data_PCOD9538408
_publ_section_title
;
Structure prediction by ZEFSAII (Michael W. Deem and Ramdas Pophale) SiO2 
 PCOD9538408
Probable space group: I M M A
;
_chemical_formula_sum "Si O2"
_cell_formula_units_Z 96
_cell_length_a 16.623943
_cell_length_b 14.679855
_cell_length_c 16.634157
_cell_angle_alpha 90.000000
_cell_angle_beta 90.000000
_cell_angle_gamma 90.000000
_cell_volume 4059.350982
_symmetry_space_group_name_H-M "I M M A"
_symmetry_group_IT_number 74
_symmetry_cell_setting 'orthorhombic'
loop_
_space_group_symop_operation_xyz
x,y,z
-x,1/2-y,z
x,-y,-z
-x,1/2+y,-z
-x,-y,-z
x,1/2+y,-z
-x,y,z
x,1/2-y,z
1/2+x,1/2+y,1/2+z
1/2-x,-y,1/2+z
1/2+x,1/2-y,1/2-z
1/2-x,y,1/2-z
1/2-x,1/2-y,1/2-z
1/2+x,y,1/2-z
1/2-x,1/2+y,1/2+z
1/2+x,-y,1/2+z
loop_
_atom_site_type_symbol
_atom_site_label
_atom_site_fract_x
_atom_site_fract_y
_atom_site_fract_z
Si Si1 0.229626 0.857536 0.009287
Si Si2 0.591068 0.533433 0.189245
Si Si3 0.177582 0.644051 0.185661
Si Si4 0.588713 0.894056 0.021411
Si Si5 0.341781 0.148899 0.220887
Si Si6 0.588237 0.358981 0.396061
O O1 0.216230 0.750000 0.012121
O O2 0.208410 0.889858 0.099343
O O3 0.324159 0.865224 0.989624
O O4 0.164926 0.895266 0.945730
O O5 0.500000 0.500795 0.186883
O O6 0.611907 0.579729 0.273661
O O7 0.598032 0.608036 0.118481
O O8 0.644085 0.443969 0.172969
O O9 0.151569 0.750000 0.179545
O O10 0.250000 0.640593 0.250000
O O11 0.500000 0.854690 0.999519
O O12 0.582957 0.000000 0.000000
O O13 0.360085 0.250000 0.186149
O O14 0.250000 0.151385 0.250000
O O15 0.394481 0.135158 0.301301
O O16 0.500000 0.397490 0.416292
O O17 0.584665 0.250000 0.411763
#
# Coordination Sequence:
#
# PCOD9538408 Si02
#       6
#    16  16  16  16  16  16
#     4  10  21  37  63  90 117 161 205 250 311 369
#     4  11  23  38  60  88 120 160 200 250 315 369
#     4  10  20  37  59  87 119 156 203 251 302 364
#     4  10  23  40  56  82 119 161 206 256 313 368
#     4  10  22  39  63  92 120 157 203 252 307 369
#     4   9  19  37  60  89 126 161 197 247 308 374
#
# _framework density 23.649099
#
# number of rings (size 3 to 8) (size 9 to 14) (size 15 to 20)
#    0.000    2.000    1.667    1.000    2.333    2.333 
#    0.000    3.333    0.000    5.500    0.000    0.000 
#    0.000    0.000    0.000    0.000    0.000    0.000 
#
# Total GULP energy -267951.802539 kJ/mol
# GULP energy per Si atom -5582.329220 kJ/mol
# Density = 2.359527 g / cm^3
# Si number density = 23.649099 Si / 1000 Ang^3
#
#
#
# Elastic Constant Matrix: (Units=GPa)
#
#
# Indices 1 2 3 4 5 6 
#
# 1 139.9352 10.0740 35.2891 0.0000 0.0000 0.0000
# 2 10.0740 71.0152 4.3827 0.0000 0.0000 0.0000
# 3 35.2891 4.3827 78.2707 0.0000 0.0000 0.0000
# 4 0.0000 0.0000 0.0000 17.6801 0.0000 0.0000
# 5 0.0000 0.0000 0.0000 0.0000 30.2935 0.0000
# 6 0.0000 0.0000 0.0000 0.0000 0.0000 23.3282
#
#
#
# Elastic Compliance Matrix: (Units=1/GPa)
#
#
# Indices 1 2 3 4 5 6 
#
# 1 0.008124 -0.000930 -0.003611 0.000000 0.000000 0.000000
# 2 -0.000930 0.014237 -0.000378 0.000000 0.000000 0.000000
# 3 -0.003611 -0.000378 0.014425 0.000000 0.000000 0.000000
# 4 0.000000 0.000000 0.000000 0.056561 0.000000 0.000000
# 5 0.000000 0.000000 0.000000 0.000000 0.033010 0.000000
# 6 0.000000 0.000000 0.000000 0.000000 0.000000 0.042867
#
#
# Mechanical properties :
#
#
# Convention : Reuss Voigt Hill
#
# Bulk Modulus (GPa) = 37.10700 43.19032 40.14866
# Shear Modulus (GPa) = 26.58973 30.22539 28.40756
#
# Velocity S-wave (km/s) = 3.35676 3.57890 3.46961
# Velocity P-wave (km/s) = 5.54514 5.94817 5.75018
#
# Compressibility (1/GPa) = 0.02694909
#
# Stress axis : x y z
#
# Youngs Moduli (GPa) = 123.09818 70.24106 69.32320
#
# Poissons Ratio (x) = 0.06529 0.25029
# Poissons Ratio (y) = 0.11443 0.02621
# Poissons Ratio (z) = 0.44445 0.02656
#
# Static dielectric constant tensor:
#      x y z
#    x 1.910550 0.000000 0.000000 
#    y 0.000000 1.887900 0.000000 
#    z 0.000000 0.000000 1.972920 
# 
# From -- ./inp_files/51845.got.cif
#   From: 2010.05.17/outbox.cif.g08.bks.cpg/sg74_26_cif.got.tgz:51845.got - 2010.06.03 17:57:02.
