data_PCOD9538052
_publ_section_title
;
Structure prediction by ZEFSAII (Michael W. Deem and Ramdas Pophale) SiO2 
 PCOD9538052
Probable space group: I M M A
;
_chemical_formula_sum "Si O2"
_cell_formula_units_Z 80
_cell_length_a 21.794359
_cell_length_b 25.953863
_cell_length_c 6.454665
_cell_angle_alpha 90.000000
_cell_angle_beta 90.000000
_cell_angle_gamma 90.000000
_cell_volume 3651.067106
_symmetry_space_group_name_H-M "I M M A"
_symmetry_group_IT_number 74
_symmetry_cell_setting 'orthorhombic'
loop_
_space_group_symop_operation_xyz
x,y,z
-x,1/2-y,z
x,-y,-z
-x,1/2+y,-z
-x,-y,-z
x,1/2+y,-z
-x,y,z
x,1/2-y,z
1/2+x,1/2+y,1/2+z
1/2-x,-y,1/2+z
1/2+x,1/2-y,1/2-z
1/2-x,y,1/2-z
1/2-x,1/2-y,1/2-z
1/2+x,y,1/2-z
1/2-x,1/2+y,1/2+z
1/2+x,-y,1/2+z
loop_
_atom_site_type_symbol
_atom_site_label
_atom_site_fract_x
_atom_site_fract_y
_atom_site_fract_z
Si Si1 0.831041 0.690782 0.400819
Si Si2 0.687904 0.912054 0.344071
Si Si3 0.070709 0.441674 0.579699
Si Si4 0.571937 0.806385 0.408731
Si Si5 0.139583 0.623318 0.765831
O O1 0.808792 0.750000 0.391065
O O2 0.809402 0.647892 0.235014
O O3 0.902017 0.691395 0.324711
O O4 0.825177 0.664844 0.623874
O O5 0.750000 0.936222 0.250000
O O6 0.683844 0.911389 0.591886
O O7 0.624231 0.934719 0.252213
O O8 0.069404 0.500000 0.500000
O O9 0.096484 0.408116 0.389110
O O10 0.000000 0.427715 0.640450
O O11 0.500000 0.809579 0.404319
O O12 0.591861 0.750000 0.488312
O O13 0.598307 0.847708 0.565746
#
# Coordination Sequence:
#
# PCOD9538052 Si02
#       5
#    16  16  16  16  16
#     4   9  19  34  53  81 120 163 204 247 294 355
#     4  10  23  42  61  91 126 159 203 258 306 366
#     4  10  23  43  64  91 122 155 202 259 313 373
#     4   9  17  29  48  79 117 157 204 251 295 350
#     4  10  20  35  59  83 118 161 201 247 304 367
#
# _framework density 21.911401000000001
#
# number of rings (size 3 to 8) (size 9 to 14) (size 15 to 20)
#    0.000    2.400    0.000    1.200    0.000   14.000 
#    3.600    5.000    0.000    0.000    0.000    0.000 
#    0.000    0.000    0.000    0.000    0.000    0.000 
#
# Total GULP energy -222877.920029 kJ/mol
# GULP energy per Si atom -5571.948001 kJ/mol
# Density = 2.186153 g / cm^3
# Si number density = 21.911401 Si / 1000 Ang^3
#
#
#
# Elastic Constant Matrix: (Units=GPa)
#
#
# Indices 1 2 3 4 5 6 
#
# 1 87.4892 8.7238 22.2891 0.0000 0.0000 0.0000
# 2 8.7238 66.8457 4.4017 0.0000 0.0000 0.0000
# 3 22.2891 4.4017 89.6062 0.0000 0.0000 0.0000
# 4 0.0000 0.0000 0.0000 7.9980 0.0000 0.0000
# 5 0.0000 0.0000 0.0000 0.0000 -11.0773 0.0000
# 6 0.0000 0.0000 0.0000 0.0000 0.0000 0.5325
#
#
#
# Elastic Compliance Matrix: (Units=1/GPa)
#
#
# Indices 1 2 3 4 5 6 
#
# 1 0.012335 -0.001412 -0.002999 0.000000 0.000000 0.000000
# 2 -0.001412 0.015170 -0.000394 0.000000 0.000000 0.000000
# 3 -0.002999 -0.000394 0.011925 0.000000 0.000000 0.000000
# 4 0.000000 0.000000 0.000000 0.125031 0.000000 0.000000
# 5 0.000000 0.000000 0.000000 0.000000 -0.090275 0.000000
# 6 0.000000 0.000000 0.000000 0.000000 0.000000 1.877779
#
#
# Mechanical properties :
#
#
# Convention : Reuss Voigt Hill
#
# Bulk Modulus (GPa) = 33.53450 34.97448 34.25449
# Shear Modulus (GPa) = 2.53612 13.39242 7.96427
#
# Velocity S-wave (km/s) = 1.07701 2.47494 1.90857
# Velocity P-wave (km/s) = 4.10907 4.91564 4.53034
#
# Compressibility (1/GPa) = 0.02982004
#
# Stress axis : x y z
#
# Youngs Moduli (GPa) = 81.07143 65.91924 83.85579
#
# Poissons Ratio (x) = 0.09310 0.25147
# Poissons Ratio (y) = 0.11450 0.03303
# Poissons Ratio (z) = 0.24312 0.02596
#
# Static dielectric constant tensor:
#      x y z
#    x 1.877740 0.000000 0.000000 
#    y 0.000000 1.876590 0.000000 
#    z 0.000000 0.000000 1.805100 
# 
# From -- ./inp_files/3857.got.cif
#   From: 2010.05.17/outbox.cif.g08.bks.cpg/sg74_2_cif.got.tgz:3857.got - 2010.06.03 17:57:02.
