data_PCOD9538438
_publ_section_title
;
Structure prediction by ZEFSAII (Michael W. Deem and Ramdas Pophale) SiO2 
 PCOD9538438
Probable space group: I M M A
;
_chemical_formula_sum "Si O2"
_cell_formula_units_Z 72
_cell_length_a 9.160792
_cell_length_b 17.065858
_cell_length_c 24.957483
_cell_angle_alpha 90.000000
_cell_angle_beta 90.000000
_cell_angle_gamma 90.000000
_cell_volume 3901.772415
_symmetry_space_group_name_H-M "I M M A"
_symmetry_group_IT_number 74
_symmetry_cell_setting 'orthorhombic'
loop_
_space_group_symop_operation_xyz
x,y,z
-x,1/2-y,z
x,-y,-z
-x,1/2+y,-z
-x,-y,-z
x,1/2+y,-z
-x,y,z
x,1/2-y,z
1/2+x,1/2+y,1/2+z
1/2-x,-y,1/2+z
1/2+x,1/2-y,1/2-z
1/2-x,y,1/2-z
1/2-x,1/2-y,1/2-z
1/2+x,y,1/2-z
1/2-x,1/2+y,1/2+z
1/2+x,-y,1/2+z
loop_
_atom_site_type_symbol
_atom_site_label
_atom_site_fract_x
_atom_site_fract_y
_atom_site_fract_z
Si Si1 0.826733 0.662685 0.986881
Si Si2 0.826891 0.885049 0.108528
Si Si3 0.323556 0.750000 0.308107
Si Si4 0.174402 0.449127 0.405337
Si Si5 0.174707 0.840497 0.695282
O O1 0.778787 0.750000 0.969337
O O2 0.807463 0.655744 0.050720
O O3 0.000000 0.655286 0.976041
O O4 0.742860 0.593671 0.956828
O O5 0.783657 0.826220 0.156212
O O6 0.000000 0.901430 0.114265
O O7 0.739570 0.965676 0.105733
O O8 0.500000 0.750000 0.302763
O O9 0.250000 0.750000 0.250000
O O10 0.212488 0.393921 0.354936
O O11 0.000000 0.453038 0.410818
O O12 0.218153 0.750000 0.685695
O O13 0.250000 0.867169 0.750000
O O14 0.000000 0.842563 0.702006
#
# Coordination Sequence:
#
# PCOD9538438 Si02
#       5
#    16  16   8  16  16
#     4  10  20  37  61  85 112 151 197 237 281 341
#     4  10  21  40  61  82 112 150 193 241 287 339
#     4  10  22  42  66  88 114 152 199 250 301 350
#     4  11  23  36  54  86 122 151 184 233 295 350
#     4   9  19  36  55  75 106 146 185 226 273 329
#
# _framework density 18.453151999999999
#
# number of rings (size 3 to 8) (size 9 to 14) (size 15 to 20)
#    0.000    2.000    1.111    2.000    0.000    8.444 
#    0.000    6.667    0.000    0.000    0.000    0.000 
#    0.000    0.000    0.000    0.000    0.000    0.000 
#
# Total GULP energy -201024.600161 kJ/mol
# GULP energy per Si atom -5584.016671 kJ/mol
# Density = 1.841115 g / cm^3
# Si number density = 18.453152 Si / 1000 Ang^3
#
#
#
# Elastic Constant Matrix: (Units=GPa)
#
#
# Indices 1 2 3 4 5 6 
#
# 1 35.9063 56.1862 51.9358 0.0000 0.0000 0.0000
# 2 56.1862 132.2888 67.5160 0.0000 0.0000 0.0000
# 3 51.9358 67.5160 117.7012 0.0000 0.0000 0.0000
# 4 0.0000 0.0000 0.0000 0.4677 0.0000 0.0000
# 5 0.0000 0.0000 0.0000 0.0000 34.4445 0.0000
# 6 0.0000 0.0000 0.0000 0.0000 0.0000 27.2408
#
#
#
# Elastic Compliance Matrix: (Units=1/GPa)
#
#
# Indices 1 2 3 4 5 6 
#
# 1 0.180398 -0.050893 -0.050408 0.000000 0.000000 0.000000
# 2 -0.050893 0.025046 0.008090 0.000000 0.000000 0.000000
# 3 -0.050408 0.008090 0.026098 0.000000 0.000000 0.000000
# 4 0.000000 0.000000 0.000000 2.138145 0.000000 0.000000
# 5 0.000000 0.000000 0.000000 0.000000 0.029032 0.000000
# 6 0.000000 0.000000 0.000000 0.000000 0.000000 0.036710
#
#
# Mechanical properties :
#
#
# Convention : Reuss Voigt Hill
#
# Bulk Modulus (GPa) = 22.16291 70.79693 46.47992
# Shear Modulus (GPa) = 1.89617 19.78115 10.83866
#
# Velocity S-wave (km/s) = 1.01479 3.27764 2.42618
# Velocity P-wave (km/s) = 3.66190 7.26450 5.75250
#
# Compressibility (1/GPa) = 0.04512043
#
# Stress axis : x y z
#
# Youngs Moduli (GPa) = 5.54330 39.92667 38.31697
#
# Poissons Ratio (x) = 2.03198 1.93147
# Poissons Ratio (y) = 0.28211 -0.30997
# Poissons Ratio (z) = 0.27942 -0.32299
#
# Static dielectric constant tensor:
#      x y z
#    x 1.618190 0.000000 0.000000 
#    y 0.000000 1.630510 0.000000 
#    z 0.000000 0.000000 1.623000 
# 
# From -- ./inp_files/56630.got.cif
#   From: 2010.05.17/outbox.cif.g08.bks.cpg/sg74_29_cif.got.tgz:56630.got - 2010.06.03 17:57:02.
