data_PCOD9538174
_publ_section_title
;
Structure prediction by ZEFSAII (Michael W. Deem and Ramdas Pophale) SiO2 
 PCOD9538174
Probable space group: I M M A
;
_chemical_formula_sum "Si O2"
_cell_formula_units_Z 112
_cell_length_a 14.634955
_cell_length_b 25.353559
_cell_length_c 14.164607
_cell_angle_alpha 90.000000
_cell_angle_beta 90.000000
_cell_angle_gamma 90.000000
_cell_volume 5255.751861
_symmetry_space_group_name_H-M "I M M A"
_symmetry_group_IT_number 74
_symmetry_cell_setting 'orthorhombic'
loop_
_space_group_symop_operation_xyz
x,y,z
-x,1/2-y,z
x,-y,-z
-x,1/2+y,-z
-x,-y,-z
x,1/2+y,-z
-x,y,z
x,1/2-y,z
1/2+x,1/2+y,1/2+z
1/2-x,-y,1/2+z
1/2+x,1/2-y,1/2-z
1/2-x,y,1/2-z
1/2-x,1/2-y,1/2-z
1/2+x,y,1/2-z
1/2-x,1/2+y,1/2+z
1/2+x,-y,1/2+z
loop_
_atom_site_type_symbol
_atom_site_label
_atom_site_fract_x
_atom_site_fract_y
_atom_site_fract_z
Si Si1 0.850721 0.095836 0.219386
Si Si2 0.099950 0.901114 0.247470
Si Si3 0.629440 0.993284 0.395040
Si Si4 0.291897 0.689812 0.582754
Si Si5 0.334001 0.454196 0.938666
Si Si6 0.605306 0.136475 0.078769
Si Si7 0.609702 0.311383 0.617473
O O1 0.750000 0.077421 0.250000
O O2 0.834835 0.147080 0.154039
O O3 0.898613 0.111552 0.316402
O O4 0.889000 0.046957 0.161300
O O5 0.095582 0.944042 0.164507
O O6 0.134732 0.931846 0.338372
O O7 0.145797 0.850618 0.198497
O O8 0.000000 0.881701 0.275632
O O9 0.736709 0.979785 0.411542
O O10 0.593615 0.000000 0.500000
O O11 0.314326 0.750000 0.609546
O O12 0.181801 0.682341 0.583197
O O13 0.335330 0.679769 0.479567
O O14 0.383728 0.500000 0.000000
O O15 0.344393 0.404932 0.009163
O O16 0.500000 0.147989 0.049579
O O17 0.500000 0.321165 0.602016
O O18 0.619512 0.250000 0.643355
#
# Coordination Sequence:
#
# PCOD9538174 Si02
#       7
#    16  16  16  16  16  16  16
#     4  10  20  36  57  83 115 154 196 244 304 359
#     4  11  22  35  57  88 119 154 196 243 300 364
#     4  11  21  36  59  85 116 153 194 246 305 365
#     4  10  21  40  65  89 116 153 200 255 312 370
#     4  11  22  38  59  82 115 160 205 245 291 357
#     4  11  24  39  57  85 122 162 203 247 300 367
#     4   9  19  38  63  90 120 155 200 255 311 367
#
# _framework density 21.309987
#
# number of rings (size 3 to 8) (size 9 to 14) (size 15 to 20)
#    0.000    1.571    0.000    7.714    0.000    6.571 
#    0.000    0.714    0.000    5.143    0.000    0.000 
#    0.000    0.000    0.000    0.000    0.000    0.000 
#
# Total GULP energy -312346.891644 kJ/mol
# GULP energy per Si atom -5577.623065 kJ/mol
# Density = 2.126148 g / cm^3
# Si number density = 21.309987 Si / 1000 Ang^3
#
#
#
# Elastic Constant Matrix: (Units=GPa)
#
#
# Indices 1 2 3 4 5 6 
#
# 1 79.6984 25.9043 31.1543 0.0000 0.0000 0.0000
# 2 25.9043 104.8381 69.3274 0.0000 0.0000 0.0000
# 3 31.1543 69.3274 149.2642 0.0000 0.0000 0.0000
# 4 0.0000 0.0000 0.0000 38.5638 0.0000 0.0000
# 5 0.0000 0.0000 0.0000 0.0000 -16.7809 0.0000
# 6 0.0000 0.0000 0.0000 0.0000 0.0000 11.9148
#
#
#
# Elastic Compliance Matrix: (Units=1/GPa)
#
#
# Indices 1 2 3 4 5 6 
#
# 1 0.014006 -0.002205 -0.001899 0.000000 0.000000 0.000000
# 2 -0.002205 0.014114 -0.006095 0.000000 0.000000 0.000000
# 3 -0.001899 -0.006095 0.009927 0.000000 0.000000 0.000000
# 4 0.000000 0.000000 0.000000 0.025931 0.000000 0.000000
# 5 0.000000 0.000000 0.000000 0.000000 -0.059592 0.000000
# 6 0.000000 0.000000 0.000000 0.000000 0.000000 0.083929
#
#
# Mechanical properties :
#
#
# Convention : Reuss Voigt Hill
#
# Bulk Modulus (GPa) = 56.66184 65.17474 60.91829
# Shear Modulus (GPa) = 43.63111 20.56721 32.09916
#
# Velocity S-wave (km/s) = 4.52978 3.11005 3.88531
# Velocity P-wave (km/s) = 7.34885 6.59902 6.98401
#
# Compressibility (1/GPa) = 0.01764856
#
# Stress axis : x y z
#
# Youngs Moduli (GPa) = 71.39600 70.85206 100.73609
#
# Poissons Ratio (x) = 0.15622 0.19133
# Poissons Ratio (y) = 0.15741 0.61400
# Poissons Ratio (z) = 0.13561 0.43186
#
# Static dielectric constant tensor:
#      x y z
#    x 1.706710 0.000000 0.000000 
#    y 0.000000 1.780290 0.000000 
#    z 0.000000 0.000000 1.782770 
# 
# From -- ./inp_files/32756.got.cif
#   From: 2010.05.17/outbox.cif.g08.bks.cpg/sg74_17_cif.got.tgz:32756.got - 2010.06.03 17:57:02.
