data_PCOD9538576
_publ_section_title
;
Structure prediction by ZEFSAII (Michael W. Deem and Ramdas Pophale) SiO2 
 PCOD9538576
Probable space group: I M M A
;
_chemical_formula_sum "Si O2"
_cell_formula_units_Z 104
_cell_length_a 24.597706
_cell_length_b 23.680895
_cell_length_c 8.241708
_cell_angle_alpha 90.000000
_cell_angle_beta 90.000000
_cell_angle_gamma 90.000000
_cell_volume 4800.759413
_symmetry_space_group_name_H-M "I M M A"
_symmetry_group_IT_number 74
_symmetry_cell_setting 'orthorhombic'
loop_
_space_group_symop_operation_xyz
x,y,z
-x,1/2-y,z
x,-y,-z
-x,1/2+y,-z
-x,-y,-z
x,1/2+y,-z
-x,y,z
x,1/2-y,z
1/2+x,1/2+y,1/2+z
1/2-x,-y,1/2+z
1/2+x,1/2-y,1/2-z
1/2-x,y,1/2-z
1/2-x,1/2-y,1/2-z
1/2+x,y,1/2-z
1/2-x,1/2+y,1/2+z
1/2+x,-y,1/2+z
loop_
_atom_site_type_symbol
_atom_site_label
_atom_site_fract_x
_atom_site_fract_y
_atom_site_fract_z
Si Si1 0.652636 0.969330 0.653921
Si Si2 0.081800 0.685614 0.732238
Si Si3 0.316174 0.376910 0.109047
Si Si4 0.399674 0.929313 0.143294
Si Si5 0.896795 0.129924 0.959953
Si Si6 0.221776 0.183767 0.926792
Si Si7 0.000000 0.900510 0.552441
O O1 0.687957 0.929055 0.767035
O O2 0.609438 0.927126 0.567891
O O3 0.680726 0.000000 0.500000
O O4 0.623430 0.015540 0.765996
O O5 0.070763 0.750000 0.690817
O O6 0.144422 0.669402 0.692814
O O7 0.073130 0.673425 0.923150
O O8 0.046503 0.642146 0.630437
O O9 0.349877 0.401482 0.955463
O O10 0.261380 0.348190 0.050301
O O11 0.419848 0.886887 0.286217
O O12 0.451076 0.937532 0.030099
O O13 0.836456 0.153720 0.926764
O O14 0.215752 0.250000 0.966945
O O15 0.250000 0.180151 0.750000
#
# Coordination Sequence:
#
# PCOD9538576 Si02
#       7
#    16  16  16  16  16  16   8
#     4   9  20  38  61  88 127 166 212 265 325 389
#     4  10  21  39  59  88 126 168 212 271 335 392
#     4  10  20  38  63  92 130 170 212 270 320 392
#     4  10  20  41  63  93 126 168 217 272 333 391
#     4  10  21  40  62  91 130 167 211 273 327 397
#     4  11  22  38  63  98 131 172 222 269 325 397
#     4  10  23  40  66  90 121 166 223 276 329 402
#
# _framework density 21.663239999999998
#
# number of rings (size 3 to 8) (size 9 to 14) (size 15 to 20)
#    0.000    2.000    1.538    1.615    0.000    3.077 
#    0.000   31.154    0.000    0.000    0.000    0.000 
#    0.000    0.000    0.000    0.000    0.000    0.000 
#
# Total GULP energy -289555.237510 kJ/mol
# GULP energy per Si atom -5568.369952 kJ/mol
# Density = 2.161393 g / cm^3
# Si number density = 21.663240 Si / 1000 Ang^3
#
#
#
# Elastic Constant Matrix: (Units=GPa)
#
#
# Indices 1 2 3 4 5 6 
#
# 1 63.9493 31.6210 4.5406 0.0000 0.0000 0.0000
# 2 31.6210 104.2280 65.4559 0.0000 0.0000 0.0000
# 3 4.5406 65.4559 93.9331 0.0000 0.0000 0.0000
# 4 0.0000 0.0000 0.0000 36.3620 0.0000 0.0000
# 5 0.0000 0.0000 0.0000 0.0000 3.3994 0.0000
# 6 0.0000 0.0000 0.0000 0.0000 0.0000 11.7681
#
#
#
# Elastic Compliance Matrix: (Units=1/GPa)
#
#
# Indices 1 2 3 4 5 6 
#
# 1 0.020034 -0.009726 0.005809 0.000000 0.000000 0.000000
# 2 -0.009726 0.021782 -0.014708 0.000000 0.000000 0.000000
# 3 0.005809 -0.014708 0.020614 0.000000 0.000000 0.000000
# 4 0.000000 0.000000 0.000000 0.027501 0.000000 0.000000
# 5 0.000000 0.000000 0.000000 0.000000 0.294170 0.000000
# 6 0.000000 0.000000 0.000000 0.000000 0.000000 0.084976
#
#
# Mechanical properties :
#
#
# Convention : Reuss Voigt Hill
#
# Bulk Modulus (GPa) = 39.71435 51.70503 45.70969
# Shear Modulus (GPa) = 9.71399 21.00542 15.35971
#
# Velocity S-wave (km/s) = 2.11986 3.11727 2.66563
# Velocity P-wave (km/s) = 4.93601 6.07256 5.53354
#
# Compressibility (1/GPa) = 0.02517982
#
# Stress axis : x y z
#
# Youngs Moduli (GPa) = 49.91451 45.90929 48.50984
#
# Poissons Ratio (x) = 0.44653 -0.28180
# Poissons Ratio (y) = 0.48548 0.71350
# Poissons Ratio (z) = -0.28996 0.67525
#
# Static dielectric constant tensor:
#      x y z
#    x 1.758860 0.000000 0.000000 
#    y 0.000000 1.797100 0.000000 
#    z 0.000000 0.000000 1.851160 
# 
# From -- ./inp_files/15232.got.cif
#   From: 2010.05.17/outbox.cif.g08.bks.cpg/sg74_8_cif.got.tgz:15232.got - 2010.06.03 17:57:02.
