data_PCOD9538735
_publ_section_title
;
Structure prediction by ZEFSAII (Michael W. Deem and Ramdas Pophale) SiO2 
 PCOD9538735
Probable space group: I M M A
;
_chemical_formula_sum "Si O2"
_cell_formula_units_Z 68
_cell_length_a 23.426763
_cell_length_b 17.834844
_cell_length_c 8.019334
_cell_angle_alpha 90.000000
_cell_angle_beta 90.000000
_cell_angle_gamma 90.000000
_cell_volume 3350.579298
_symmetry_space_group_name_H-M "I M M A"
_symmetry_group_IT_number 74
_symmetry_cell_setting 'orthorhombic'
loop_
_space_group_symop_operation_xyz
x,y,z
-x,1/2-y,z
x,-y,-z
-x,1/2+y,-z
-x,-y,-z
x,1/2+y,-z
-x,y,z
x,1/2-y,z
1/2+x,1/2+y,1/2+z
1/2-x,-y,1/2+z
1/2+x,1/2-y,1/2-z
1/2-x,y,1/2-z
1/2-x,1/2-y,1/2-z
1/2+x,y,1/2-z
1/2-x,1/2+y,1/2+z
1/2+x,-y,1/2+z
loop_
_atom_site_type_symbol
_atom_site_label
_atom_site_fract_x
_atom_site_fract_y
_atom_site_fract_z
Si Si1 0.597065 0.383741 0.355492
Si Si2 0.000000 0.134690 0.886603
Si Si3 0.000000 0.750000 0.407139
Si Si4 0.722123 0.917682 0.567306
Si Si5 0.500000 0.981470 0.804729
Si Si6 0.241774 0.250000 0.453484
Si Si7 0.382779 0.250000 0.110676
O O1 0.555645 0.352054 0.499819
O O2 0.653490 0.421446 0.426244
O O3 0.556189 0.435570 0.244568
O O4 0.619060 0.320380 0.232216
O O5 0.000000 0.180893 0.718195
O O6 0.000000 0.050248 0.822663
O O7 0.057179 0.750000 0.515842
O O8 0.750000 0.913671 0.750000
O O9 0.735194 0.833250 0.490982
O O10 0.742177 0.000000 0.500000
O O11 0.500000 0.000000 0.000000
O O12 0.250000 0.250000 0.250000
O O13 0.174494 0.250000 0.496605
#
# Coordination Sequence:
#
# PCOD9538735 Si02
#       7
#    16   8   4  16   8   8   8
#     4  11  21  40  68  88 126 179 209 264 334 404
#     4  11  23  42  58  93 134 162 214 267 330 397
#     4  12  26  40  62 104 124 156 222 280 320 392
#     4  11  22  42  67  98 127 174 228 268 325 397
#     4  11  23  38  58  95 129 166 213 271 332 387
#     4  10  20  44  65  89 135 172 212 270 326 394
#     4  12  21  42  68  93 124 170 215 265 342 390
#
# _framework density 20.294999000000001
#
# number of rings (size 3 to 8) (size 9 to 14) (size 15 to 20)
#    0.000    0.941    4.706    6.353    0.000    0.941 
#    8.471    0.588    0.000    0.000    0.000    0.000 
#    0.000    0.000    0.000    0.000    0.000    0.000 
#
# Total GULP energy -189561.569915 kJ/mol
# GULP energy per Si atom -5575.340292 kJ/mol
# Density = 2.024881 g / cm^3
# Si number density = 20.294999 Si / 1000 Ang^3
#
#
#
# Elastic Constant Matrix: (Units=GPa)
#
#
# Indices 1 2 3 4 5 6 
#
# 1 131.6690 31.4151 12.5897 0.0000 0.0000 0.0000
# 2 31.4151 166.5603 17.4834 0.0000 0.0000 0.0000
# 3 12.5897 17.4834 43.9288 0.0000 0.0000 0.0000
# 4 0.0000 0.0000 0.0000 39.0332 0.0000 0.0000
# 5 0.0000 0.0000 0.0000 0.0000 11.2350 0.0000
# 6 0.0000 0.0000 0.0000 0.0000 0.0000 19.9251
#
#
#
# Elastic Compliance Matrix: (Units=1/GPa)
#
#
# Indices 1 2 3 4 5 6 
#
# 1 0.008085 -0.001338 -0.001785 0.000000 0.000000 0.000000
# 2 -0.001338 0.006487 -0.002198 0.000000 0.000000 0.000000
# 3 -0.001785 -0.002198 0.024151 0.000000 0.000000 0.000000
# 4 0.000000 0.000000 0.000000 0.025619 0.000000 0.000000
# 5 0.000000 0.000000 0.000000 0.000000 0.089008 0.000000
# 6 0.000000 0.000000 0.000000 0.000000 0.000000 0.050188
#
#
# Mechanical properties :
#
#
# Convention : Reuss Voigt Hill
#
# Bulk Modulus (GPa) = 35.61154 51.68161 43.64657
# Shear Modulus (GPa) = 22.36755 32.75001 27.55878
#
# Velocity S-wave (km/s) = 3.32342 4.02144 3.68898
# Velocity P-wave (km/s) = 5.68436 6.86172 6.30060
#
# Compressibility (1/GPa) = 0.02808079
#
# Stress axis : x y z
#
# Youngs Moduli (GPa) = 123.69259 154.15780 41.40699
#
# Poissons Ratio (x) = 0.20619 0.07390
# Poissons Ratio (y) = 0.16544 0.09103
# Poissons Ratio (z) = 0.22075 0.33890
#
# Static dielectric constant tensor:
#      x y z
#    x 5.867530 0.000000 0.000000 
#    y 0.000000 1.731560 0.000000 
#    z 0.000000 0.000000 1.703790 
# 
# From -- ./inp_files/12007.got.cif
#   From: 2010.05.17/outbox.cif.g08.bks.cpg/sg74_7_cif.got.tgz:12007.got - 2010.06.03 17:57:02.
