data_PCOD9538474
_publ_section_title
;
Structure prediction by ZEFSAII (Michael W. Deem and Ramdas Pophale) SiO2 
 PCOD9538474
Probable space group: I M M A
;
_chemical_formula_sum "Si O2"
_cell_formula_units_Z 116
_cell_length_a 7.442505
_cell_length_b 27.840917
_cell_length_c 23.798576
_cell_angle_alpha 90.000000
_cell_angle_beta 90.000000
_cell_angle_gamma 90.000000
_cell_volume 4931.211641
_symmetry_space_group_name_H-M "I M M A"
_symmetry_group_IT_number 74
_symmetry_cell_setting 'orthorhombic'
loop_
_space_group_symop_operation_xyz
x,y,z
-x,1/2-y,z
x,-y,-z
-x,1/2+y,-z
-x,-y,-z
x,1/2+y,-z
-x,y,z
x,1/2-y,z
1/2+x,1/2+y,1/2+z
1/2-x,-y,1/2+z
1/2+x,1/2-y,1/2-z
1/2-x,y,1/2-z
1/2-x,1/2-y,1/2-z
1/2+x,y,1/2-z
1/2-x,1/2+y,1/2+z
1/2+x,-y,1/2+z
loop_
_atom_site_type_symbol
_atom_site_label
_atom_site_fract_x
_atom_site_fract_y
_atom_site_fract_z
Si Si1 0.780914 0.461285 0.358313
Si Si2 0.291013 0.196078 0.421339
Si Si3 0.781951 0.172362 0.655551
Si Si4 0.280563 0.553093 0.984291
Si Si5 0.286909 0.937113 0.184271
Si Si6 0.712313 0.364892 0.188457
Si Si7 0.795351 0.147482 0.536589
Si Si8 0.500000 0.250000 0.695027
O O1 0.731287 0.440913 0.419418
O O2 0.715462 0.515315 0.347141
O O3 0.718881 0.419841 0.315865
O O4 0.000000 0.463888 0.356701
O O5 0.500000 0.198078 0.436287
O O6 0.223105 0.250000 0.412005
O O7 0.276348 0.166158 0.364152
O O8 0.203293 0.172948 0.476312
O O9 0.731801 0.116694 0.667776
O O10 0.730388 0.178442 0.589169
O O11 0.658775 0.208123 0.690232
O O12 0.000000 0.179931 0.664558
O O13 0.500000 0.554183 0.986959
O O14 0.211662 0.595395 0.024071
O O15 0.222916 0.500000 0.000000
O O16 0.500000 0.937058 0.174449
O O17 0.250000 0.944156 0.250000
O O18 0.500000 0.367207 0.181600
O O19 0.750000 0.344535 0.250000
O O20 0.000000 0.137284 0.553943
#
# Coordination Sequence:
#
# PCOD9538474 Si02
#       8
#    16  16  16  16  16  16  16   4
#     4   9  17  32  56  91 125 164 205 251 313 380
#     4  11  25  41  60  86 119 163 212 262 320 377
#     4  10  24  43  67  99 132 170 220 271 334 392
#     4   9  15  27  54  88 124 160 201 244 305 376
#     4  10  21  39  65  93 130 167 212 265 317 392
#     4  11  22  39  62  88 123 160 210 262 316 380
#     4  10  20  37  62  92 125 163 205 261 314 380
#     4  12  26  44  74  94 132 172 220 278 330 404
#
# _framework density 23.523629
#
# number of rings (size 3 to 8) (size 9 to 14) (size 15 to 20)
#    0.000    1.931    1.379    2.276    2.897    4.690 
#    0.000    1.034    0.000    0.414    0.000    0.000 
#    0.000    0.000    0.000    0.000    0.000    0.414 
#
# Total GULP energy -323492.755176 kJ/mol
# GULP energy per Si atom -5577.461296 kJ/mol
# Density = 2.347009 g / cm^3
# Si number density = 23.523629 Si / 1000 Ang^3
#
#
#
# Elastic Constant Matrix: (Units=GPa)
#
#
# Indices 1 2 3 4 5 6 
#
# 1 96.5735 21.7758 2.4940 0.0000 0.0000 0.0000
# 2 21.7758 127.3692 10.0230 0.0000 0.0000 0.0000
# 3 2.4940 10.0230 77.9462 0.0000 0.0000 0.0000
# 4 0.0000 0.0000 0.0000 3.7473 0.0000 0.0000
# 5 0.0000 0.0000 0.0000 0.0000 7.6410 0.0000
# 6 0.0000 0.0000 0.0000 0.0000 0.0000 32.1112
#
#
#
# Elastic Compliance Matrix: (Units=1/GPa)
#
#
# Indices 1 2 3 4 5 6 
#
# 1 0.010771 -0.001833 -0.000109 0.000000 0.000000 0.000000
# 2 -0.001833 0.008243 -0.001001 0.000000 0.000000 0.000000
# 3 -0.000109 -0.001001 0.012962 0.000000 0.000000 0.000000
# 4 0.000000 0.000000 0.000000 0.266856 0.000000 0.000000
# 5 0.000000 0.000000 0.000000 0.000000 0.130873 0.000000
# 6 0.000000 0.000000 0.000000 0.000000 0.000000 0.031142
#
#
# Mechanical properties :
#
#
# Convention : Reuss Voigt Hill
#
# Bulk Modulus (GPa) = 38.32960 41.16385 39.74672
# Shear Modulus (GPa) = 10.51681 26.53964 18.52822
#
# Velocity S-wave (km/s) = 2.11671 3.36253 2.80954
# Velocity P-wave (km/s) = 4.72265 5.71073 5.24003
#
# Compressibility (1/GPa) = 0.02608950
#
# Stress axis : x y z
#
# Youngs Moduli (GPa) = 92.84271 121.30990 77.15091
#
# Poissons Ratio (x) = 0.22235 0.00840
# Poissons Ratio (y) = 0.17017 0.07726
# Poissons Ratio (z) = 0.01011 0.12147
#
# Static dielectric constant tensor:
#      x y z
#    x 1.925510 0.000000 0.000000 
#    y 0.000000 1.892480 0.000000 
#    z 0.000000 0.000000 1.872110 
# 
# From -- ./inp_files/57714.got.cif
#   From: 2010.05.17/outbox.cif.g08.bks.cpg/sg74_29_cif.got.tgz:57714.got - 2010.06.03 17:57:02.
