data_PCOD9538883
_publ_section_title
;
Structure prediction by ZEFSAII (Michael W. Deem and Ramdas Pophale) SiO2 
 PCOD9538883
Probable space group: I M M A
;
_chemical_formula_sum "Si O2"
_cell_formula_units_Z 64
_cell_length_a 21.294172
_cell_length_b 29.972218
_cell_length_c 5.254793
_cell_angle_alpha 90.000000
_cell_angle_beta 90.000000
_cell_angle_gamma 90.000000
_cell_volume 3353.785271
_symmetry_space_group_name_H-M "I M M A"
_symmetry_group_IT_number 74
_symmetry_cell_setting 'orthorhombic'
loop_
_space_group_symop_operation_xyz
x,y,z
-x,1/2-y,z
x,-y,-z
-x,1/2+y,-z
-x,-y,-z
x,1/2+y,-z
-x,y,z
x,1/2-y,z
1/2+x,1/2+y,1/2+z
1/2-x,-y,1/2+z
1/2+x,1/2-y,1/2-z
1/2-x,y,1/2-z
1/2-x,1/2-y,1/2-z
1/2+x,y,1/2-z
1/2-x,1/2+y,1/2+z
1/2+x,-y,1/2+z
loop_
_atom_site_type_symbol
_atom_site_label
_atom_site_fract_x
_atom_site_fract_y
_atom_site_fract_z
Si Si1 0.930177 0.334521 0.796080
Si Si2 0.174352 0.972077 0.750012
Si Si3 0.308828 0.299904 0.931466
Si Si4 0.879840 0.873996 0.691215
O O1 0.918383 0.356212 0.069063
O O2 0.000000 0.315392 0.779930
O O3 0.872681 0.301400 0.737117
O O4 0.920067 0.370347 0.568311
O O5 0.250000 0.967152 0.750000
O O6 0.144984 0.923140 0.741878
O O7 0.156831 0.000000 0.500000
O O8 0.156645 0.000000 0.000000
O O9 0.301569 0.250000 0.037013
O O10 0.250000 0.310072 0.750000
O O11 0.323177 0.338627 0.135429
#
# Coordination Sequence:
#
# PCOD9538883 Si02
#       4
#    16  16  16  16
#     4  10  22  39  61  88 121 165 211 248 299 366
#     4  10  21  35  59  93 123 153 200 254 308 373
#     4   9  22  40  62  94 126 161 206 255 310 369
#     4  10  22  37  65  85 124 162 198 251 313 352
#
# _framework density 19.082915
#
# number of rings (size 3 to 8) (size 9 to 14) (size 15 to 20)
#    1.500    0.750    0.000    2.250    3.500    2.500 
#    0.000    2.500    0.000   15.000    0.000    0.000 
#    0.000    0.000    0.000    0.000    0.000    0.000 
#
# Total GULP energy -178264.199911 kJ/mol
# GULP energy per Si atom -5570.756247 kJ/mol
# Density = 1.903948 g / cm^3
# Si number density = 19.082915 Si / 1000 Ang^3
#
#
#
# Elastic Constant Matrix: (Units=GPa)
#
#
# Indices 1 2 3 4 5 6 
#
# 1 119.1213 37.0136 36.8684 0.0000 0.0000 0.0000
# 2 37.0136 100.0043 37.2472 0.0000 0.0000 0.0000
# 3 36.8684 37.2472 118.9703 0.0000 0.0000 0.0000
# 4 0.0000 0.0000 0.0000 -341.7926 0.0000 0.0000
# 5 0.0000 0.0000 0.0000 0.0000 7.3805 0.0000
# 6 0.0000 0.0000 0.0000 0.0000 0.0000 -3.9104
#
#
#
# Elastic Compliance Matrix: (Units=1/GPa)
#
#
# Indices 1 2 3 4 5 6 
#
# 1 0.009965 -0.002873 -0.002189 0.000000 0.000000 0.000000
# 2 -0.002873 0.012148 -0.002913 0.000000 0.000000 0.000000
# 3 -0.002189 -0.002913 0.009996 0.000000 0.000000 0.000000
# 4 0.000000 0.000000 0.000000 -0.002926 0.000000 0.000000
# 5 0.000000 0.000000 0.000000 0.000000 0.135492 0.000000
# 6 0.000000 0.000000 0.000000 0.000000 0.000000 -0.255730
#
#
# Mechanical properties :
#
#
# Convention : Reuss Voigt Hill
#
# Bulk Modulus (GPa) = 61.88370 62.26158 62.07264
# Shear Modulus (GPa) = -71.71578 -52.53337 -62.12458
#
# Velocity S-wave (km/s) = -6.13700 -5.25250 -5.71190
# Velocity P-wave (km/s) = 4.20924 2.02171 3.30190
#
# Compressibility (1/GPa) = 0.01615934
#
# Stress axis : x y z
#
# Youngs Moduli (GPa) = 100.35224 82.31894 100.04341
#
# Poissons Ratio (x) = 0.23651 0.21895
# Poissons Ratio (y) = 0.28832 0.29142
# Poissons Ratio (z) = 0.21963 0.23979
#
# Static dielectric constant tensor:
#      x y z
#    x 1.684970 0.000000 0.000000 
#    y 0.000000 1.624290 0.000000 
#    z 0.000000 0.000000 1.678450 
# 
# From -- ./inp_files/3030.got.cif
#   From: 2010.05.17/outbox.cif.g08.bks.cpg/sg74_2_cif.got.tgz:3030.got - 2010.06.03 17:57:02.
