data_PCOD9538088
_publ_section_title
;
Structure prediction by ZEFSAII (Michael W. Deem and Ramdas Pophale) SiO2 
 PCOD9538088
Probable space group: I M M A
;
_chemical_formula_sum "Si O2"
_cell_formula_units_Z 68
_cell_length_a 22.499659
_cell_length_b 15.106720
_cell_length_c 7.823084
_cell_angle_alpha 90.000000
_cell_angle_beta 90.000000
_cell_angle_gamma 90.000000
_cell_volume 2659.035340
_symmetry_space_group_name_H-M "I M M A"
_symmetry_group_IT_number 74
_symmetry_cell_setting 'orthorhombic'
loop_
_space_group_symop_operation_xyz
x,y,z
-x,1/2-y,z
x,-y,-z
-x,1/2+y,-z
-x,-y,-z
x,1/2+y,-z
-x,y,z
x,1/2-y,z
1/2+x,1/2+y,1/2+z
1/2-x,-y,1/2+z
1/2+x,1/2-y,1/2-z
1/2-x,y,1/2-z
1/2-x,1/2-y,1/2-z
1/2+x,y,1/2-z
1/2-x,1/2+y,1/2+z
1/2+x,-y,1/2+z
loop_
_atom_site_type_symbol
_atom_site_label
_atom_site_fract_x
_atom_site_fract_y
_atom_site_fract_z
Si Si1 0.840539 0.352492 0.038124
Si Si2 0.599282 0.599932 0.895482
Si Si3 0.063234 0.559139 0.171480
Si Si4 0.500000 0.250000 0.022833
Si Si5 0.219770 0.855803 0.436351
O O1 0.831206 0.250000 0.008672
O O2 0.876552 0.365002 0.211299
O O3 0.879440 0.384852 0.877609
O O4 0.774470 0.390774 0.052720
O O5 0.571463 0.506523 0.829984
O O6 0.552078 0.671155 0.964120
O O7 0.658311 0.599246 0.011996
O O8 0.000000 0.609020 0.185418
O O9 0.058741 0.500000 0.000000
O O10 0.208806 0.750000 0.460734
O O11 0.250000 0.867252 0.250000
#
# Coordination Sequence:
#
# PCOD9538088 Si02
#       5
#    16  16  16   4  16
#     4  10  20  35  61  93 129 182 235 288 350 413
#     4  11  20  36  63  99 136 175 239 286 345 420
#     4   9  19  33  55  91 137 174 219 291 349 408
#     4  12  20  32  66 106 130 192 232 286 338 436
#     4  10  21  39  63  90 130 175 228 294 349 409
#
# _framework density 25.573183
#
# number of rings (size 3 to 8) (size 9 to 14) (size 15 to 20)
#    0.000    1.882    3.529    0.706    1.647    2.353 
#    0.000    8.235    2.588    2.824    0.000    0.000 
#    0.000    0.941    0.000    0.000    0.000    0.000 
#
# Total GULP energy -189579.290733 kJ/mol
# GULP energy per Si atom -5575.861492 kJ/mol
# Density = 2.551498 g / cm^3
# Si number density = 25.573183 Si / 1000 Ang^3
#
#
#
# Elastic Constant Matrix: (Units=GPa)
#
#
# Indices 1 2 3 4 5 6 
#
# 1 245.4347 40.4003 39.1399 0.0000 0.0000 0.0000
# 2 40.4003 52.6184 0.7615 0.0000 0.0000 0.0000
# 3 39.1399 0.7615 122.2431 0.0000 0.0000 0.0000
# 4 0.0000 0.0000 0.0000 14.9920 0.0000 0.0000
# 5 0.0000 0.0000 0.0000 0.0000 9.5180 0.0000
# 6 0.0000 0.0000 0.0000 0.0000 0.0000 35.8109
#
#
#
# Elastic Compliance Matrix: (Units=1/GPa)
#
#
# Indices 1 2 3 4 5 6 
#
# 1 0.004944 -0.003774 -0.001560 0.000000 0.000000 0.000000
# 2 -0.003774 0.021887 0.001072 0.000000 0.000000 0.000000
# 3 -0.001560 0.001072 0.008673 0.000000 0.000000 0.000000
# 4 0.000000 0.000000 0.000000 0.066702 0.000000 0.000000
# 5 0.000000 0.000000 0.000000 0.000000 0.105064 0.000000
# 6 0.000000 0.000000 0.000000 0.000000 0.000000 0.027924
#
#
# Mechanical properties :
#
#
# Convention : Reuss Voigt Hill
#
# Bulk Modulus (GPa) = 37.06255 64.54440 50.80347
# Shear Modulus (GPa) = 19.78541 34.73047 27.25794
#
# Velocity S-wave (km/s) = 2.78452 3.68921 3.26832
# Velocity P-wave (km/s) = 4.98621 6.59098 5.84394
#
# Compressibility (1/GPa) = 0.02698142
#
# Stress axis : x y z
#
# Youngs Moduli (GPa) = 202.25409 45.69001 115.29927
#
# Poissons Ratio (x) = 0.17242 0.17982
# Poissons Ratio (y) = 0.76323 -0.12359
# Poissons Ratio (z) = 0.31543 -0.04898
#
# Static dielectric constant tensor:
#      x y z
#    x 2.091780 0.000000 0.000000 
#    y 0.000000 2.019810 0.000000 
#    z 0.000000 0.000000 2.092010 
# 
# From -- ./inp_files/11922.got.cif
#   From: 2010.05.17/outbox.cif.g08.bks.cpg/sg74_6_cif.got.tgz:11922.got - 2010.06.03 17:57:02.
