data_PCOD9538361
_publ_section_title
;
Structure prediction by ZEFSAII (Michael W. Deem and Ramdas Pophale) SiO2 
 PCOD9538361
Probable space group: I M M A
;
_chemical_formula_sum "Si O2"
_cell_formula_units_Z 88
_cell_length_a 30.083661
_cell_length_b 26.253708
_cell_length_c 5.318676
_cell_angle_alpha 90.000000
_cell_angle_beta 90.000000
_cell_angle_gamma 90.000000
_cell_volume 4200.731000
_symmetry_space_group_name_H-M "I M M A"
_symmetry_group_IT_number 74
_symmetry_cell_setting 'orthorhombic'
loop_
_space_group_symop_operation_xyz
x,y,z
-x,1/2-y,z
x,-y,-z
-x,1/2+y,-z
-x,-y,-z
x,1/2+y,-z
-x,y,z
x,1/2-y,z
1/2+x,1/2+y,1/2+z
1/2-x,-y,1/2+z
1/2+x,1/2-y,1/2-z
1/2-x,y,1/2-z
1/2-x,1/2-y,1/2-z
1/2+x,y,1/2-z
1/2-x,1/2+y,1/2+z
1/2+x,-y,1/2+z
loop_
_atom_site_type_symbol
_atom_site_label
_atom_site_fract_x
_atom_site_fract_y
_atom_site_fract_z
Si Si1 0.370723 0.808117 0.461107
Si Si2 0.750000 0.030362 0.250000
Si Si3 0.088501 0.439234 0.472416
Si Si4 0.822140 0.393387 0.295574
Si Si5 0.947757 0.384822 0.966266
Si Si6 0.707752 0.303753 0.929044
O O1 0.373188 0.750000 0.557542
O O2 0.345534 0.850238 0.627683
O O3 0.419297 0.832833 0.439201
O O4 0.339662 0.805486 0.214081
O O5 0.792806 0.063590 0.167437
O O6 0.763428 0.000000 0.500000
O O7 0.086742 0.500000 0.500000
O O8 0.139457 0.419716 0.459993
O O9 0.064395 0.416018 0.715178
O O10 0.067338 0.416976 0.213608
O O11 0.788255 0.358243 0.446903
O O12 0.000000 0.375367 0.982016
O O13 0.707851 0.250000 0.079586
O O14 0.750000 0.300345 0.750000
#
# Coordination Sequence:
#
# PCOD9538361 Si02
#       6
#    16   8  16  16  16  16
#     4  10  22  40  65  96 132 173 217 271 333 398
#     4  12  30  44  67  98 137 182 230 280 332 394
#     4  11  24  42  67  94 128 175 223 279 335 393
#     4  11  23  41  65  90 136 174 224 273 333 395
#     4  11  24  43  67  97 131 170 219 277 340 402
#     4  10  20  36  63  95 126 166 215 264 322 389
#
# _framework density 20.948734999999999
#
# number of rings (size 3 to 8) (size 9 to 14) (size 15 to 20)
#    0.000    1.273    1.818    3.273    3.818    5.455 
#    0.000    3.636    0.000    2.182    0.000    0.000 
#    0.000    0.000    0.000    0.000    0.000    0.000 
#
# Total GULP energy -245520.395450 kJ/mol
# GULP energy per Si atom -5580.008988 kJ/mol
# Density = 2.090106 g / cm^3
# Si number density = 20.948735 Si / 1000 Ang^3
#
#
#
# Elastic Constant Matrix: (Units=GPa)
#
#
# Indices 1 2 3 4 5 6 
#
# 1 133.5593 61.0806 30.2920 0.0000 0.0000 0.0000
# 2 61.0806 138.2531 41.3462 0.0000 0.0000 0.0000
# 3 30.2920 41.3462 87.8424 0.0000 0.0000 0.0000
# 4 0.0000 0.0000 0.0000 51.8821 0.0000 0.0000
# 5 0.0000 0.0000 0.0000 0.0000 28.0372 0.0000
# 6 0.0000 0.0000 0.0000 0.0000 0.0000 36.1478
#
#
#
# Elastic Compliance Matrix: (Units=1/GPa)
#
#
# Indices 1 2 3 4 5 6 
#
# 1 0.009555 -0.003766 -0.001522 0.000000 0.000000 0.000000
# 2 -0.003766 0.009903 -0.003362 0.000000 0.000000 0.000000
# 3 -0.001522 -0.003362 0.013492 0.000000 0.000000 0.000000
# 4 0.000000 0.000000 0.000000 0.019274 0.000000 0.000000
# 5 0.000000 0.000000 0.000000 0.000000 0.035667 0.000000
# 6 0.000000 0.000000 0.000000 0.000000 0.000000 0.027664
#
#
# Mechanical properties :
#
#
# Convention : Reuss Voigt Hill
#
# Bulk Modulus (GPa) = 63.90741 69.45470 66.68105
# Shear Modulus (GPa) = 36.21304 38.34249 37.27777
#
# Velocity S-wave (km/s) = 4.16221 4.28284 4.22296
# Velocity P-wave (km/s) = 7.32608 7.59497 7.46174
#
# Compressibility (1/GPa) = 0.01564764
#
# Stress axis : x y z
#
# Youngs Moduli (GPa) = 104.65792 100.98440 74.12044
#
# Poissons Ratio (x) = 0.38032 0.11283
# Poissons Ratio (y) = 0.39416 0.24921
# Poissons Ratio (z) = 0.15932 0.33954
#
# Static dielectric constant tensor:
#      x y z
#    x 1.750670 0.000000 0.000000 
#    y 0.000000 1.769410 0.000000 
#    z 0.000000 0.000000 2.094960 
# 
# From -- ./inp_files/3949.got.cif
#   From: 2010.05.17/outbox.cif.g08.bks.cpg/sg74_2_cif.got.tgz:3949.got - 2010.06.03 17:57:02.
