data_PCOD9538206
_publ_section_title
;
Structure prediction by ZEFSAII (Michael W. Deem and Ramdas Pophale) SiO2 
 PCOD9538206
Probable space group: I M M A
;
_chemical_formula_sum "Si O2"
_cell_formula_units_Z 88
_cell_length_a 17.908008
_cell_length_b 17.002257
_cell_length_c 15.654847
_cell_angle_alpha 90.000000
_cell_angle_beta 90.000000
_cell_angle_gamma 90.000000
_cell_volume 4766.533874
_symmetry_space_group_name_H-M "I M M A"
_symmetry_group_IT_number 74
_symmetry_cell_setting 'orthorhombic'
loop_
_space_group_symop_operation_xyz
x,y,z
-x,1/2-y,z
x,-y,-z
-x,1/2+y,-z
-x,-y,-z
x,1/2+y,-z
-x,y,z
x,1/2-y,z
1/2+x,1/2+y,1/2+z
1/2-x,-y,1/2+z
1/2+x,1/2-y,1/2-z
1/2-x,y,1/2-z
1/2-x,1/2-y,1/2-z
1/2+x,y,1/2-z
1/2-x,1/2+y,1/2+z
1/2+x,-y,1/2+z
loop_
_atom_site_type_symbol
_atom_site_label
_atom_site_fract_x
_atom_site_fract_y
_atom_site_fract_z
Si Si1 0.411509 0.006880 0.167584
Si Si2 0.304661 0.250000 0.169618
Si Si3 0.183874 0.889631 0.540360
Si Si4 0.411185 0.336161 0.881676
Si Si5 0.410503 0.424280 0.354528
Si Si6 0.411077 0.750000 0.684191
Si Si7 0.186615 0.500000 0.000000
O O1 0.500000 0.017239 0.148620
O O2 0.362412 0.043969 0.092139
O O3 0.395877 0.048911 0.257292
O O4 0.395632 0.913729 0.173977
O O5 0.250000 0.250000 0.250000
O O6 0.294882 0.174257 0.111175
O O7 0.384294 0.250000 0.217535
O O8 0.131402 0.849768 0.470232
O O9 0.256223 0.926710 0.495146
O O10 0.500000 0.336567 0.897466
O O11 0.391471 0.250000 0.845939
O O12 0.500000 0.430527 0.369464
O O13 0.387878 0.332090 0.359565
O O14 0.365256 0.478890 0.419560
O O15 0.500000 0.750000 0.683920
#
# Coordination Sequence:
#
# PCOD9538206 Si02
#       7
#    16   8  16  16  16   8   8
#     4  10  20  37  60  86 115 151 194 243 298 359
#     4  12  24  36  54  86 126 155 192 241 299 364
#     4  12  22  35  56  86 123 157 192 236 302 361
#     4  10  20  36  58  84 117 155 196 242 287 350
#     4  10  22  41  65  88 115 153 202 255 304 360
#     4  10  20  38  66  96 117 146 196 256 313 360
#     4  12  25  38  57  84 118 166 202 238 293 360
#
# _framework density 18.462053000000001
#
# number of rings (size 3 to 8) (size 9 to 14) (size 15 to 20)
#    0.000    1.273    4.545    1.909    0.000    2.182 
#    0.000    0.000    4.000    1.091    0.000    0.000 
#    0.000    0.000    0.000    0.000    0.000    0.000 
#
# Total GULP energy -245522.390568 kJ/mol
# GULP energy per Si atom -5580.054331 kJ/mol
# Density = 1.842003 g / cm^3
# Si number density = 18.462053 Si / 1000 Ang^3
#
#
#
# Elastic Constant Matrix: (Units=GPa)
#
#
# Indices 1 2 3 4 5 6 
#
# 1 46.1025 38.0217 30.0729 0.0000 0.0000 0.0000
# 2 38.0217 140.7406 43.2612 0.0000 0.0000 0.0000
# 3 30.0729 43.2612 61.9158 0.0000 0.0000 0.0000
# 4 0.0000 0.0000 0.0000 34.4485 0.0000 0.0000
# 5 0.0000 0.0000 0.0000 0.0000 35.7918 0.0000
# 6 0.0000 0.0000 0.0000 0.0000 0.0000 17.5578
#
#
#
# Elastic Compliance Matrix: (Units=1/GPa)
#
#
# Indices 1 2 3 4 5 6 
#
# 1 0.034629 -0.005330 -0.013095 0.000000 0.000000 0.000000
# 2 -0.005330 0.009869 -0.004307 0.000000 0.000000 0.000000
# 3 -0.013095 -0.004307 0.025521 0.000000 0.000000 0.000000
# 4 0.000000 0.000000 0.000000 0.029029 0.000000 0.000000
# 5 0.000000 0.000000 0.000000 0.000000 0.027939 0.000000
# 6 0.000000 0.000000 0.000000 0.000000 0.000000 0.056955
#
#
# Mechanical properties :
#
#
# Convention : Reuss Voigt Hill
#
# Bulk Modulus (GPa) = 40.72609 52.38563 46.55586
# Shear Modulus (GPa) = 21.04469 26.71985 23.88227
#
# Velocity S-wave (km/s) = 3.37989 3.80845 3.60055
# Velocity P-wave (km/s) = 6.11054 6.91197 6.52358
#
# Compressibility (1/GPa) = 0.02455428
#
# Stress axis : x y z
#
# Youngs Moduli (GPa) = 28.87792 101.32754 39.18387
#
# Poissons Ratio (x) = 0.54005 0.51313
# Poissons Ratio (y) = 0.15391 0.16876
# Poissons Ratio (z) = 0.37817 0.43640
#
# Static dielectric constant tensor:
#      x y z
#    x 1.665520 0.000000 0.000000 
#    y 0.000000 1.680200 0.000000 
#    z 0.000000 0.000000 1.585690 
# 
# From -- ./inp_files/44000.got.cif
#   From: 2010.05.17/outbox.cif.g08.bks.cpg/sg74_22_cif.got.tgz:44000.got - 2010.06.03 17:57:02.
