data_PCOD9538472
_publ_section_title
;
Structure prediction by ZEFSAII (Michael W. Deem and Ramdas Pophale) SiO2 
 PCOD9538472
Probable space group: I M M A
;
_chemical_formula_sum "Si O2"
_cell_formula_units_Z 64
_cell_length_a 11.715913
_cell_length_b 8.227513
_cell_length_c 36.016161
_cell_angle_alpha 90.000000
_cell_angle_beta 90.000000
_cell_angle_gamma 90.000000
_cell_volume 3471.699559
_symmetry_space_group_name_H-M "I M M A"
_symmetry_group_IT_number 74
_symmetry_cell_setting 'orthorhombic'
loop_
_space_group_symop_operation_xyz
x,y,z
-x,1/2-y,z
x,-y,-z
-x,1/2+y,-z
-x,-y,-z
x,1/2+y,-z
-x,y,z
x,1/2-y,z
1/2+x,1/2+y,1/2+z
1/2-x,-y,1/2+z
1/2+x,1/2-y,1/2-z
1/2-x,y,1/2-z
1/2-x,1/2-y,1/2-z
1/2+x,y,1/2-z
1/2-x,1/2+y,1/2+z
1/2+x,-y,1/2+z
loop_
_atom_site_type_symbol
_atom_site_label
_atom_site_fract_x
_atom_site_fract_y
_atom_site_fract_z
Si Si1 0.798104 0.564122 0.595605
Si Si2 0.138187 0.750000 0.723002
Si Si3 0.134813 0.930973 0.328043
Si Si4 0.636545 0.564631 0.460150
Si Si5 0.500000 0.056471 0.957331
O O1 0.820861 0.750000 0.605952
O O2 0.802567 0.460563 0.633005
O O3 0.681218 0.542711 0.573421
O O4 0.891904 0.507781 0.565747
O O5 0.250000 0.750000 0.750000
O O6 0.152099 0.584273 0.698986
O O7 0.000000 0.750000 0.735469
O O8 0.162682 0.750000 0.313031
O O9 0.000000 0.931847 0.337116
O O10 0.677875 0.500000 0.500000
O O11 0.500000 0.564068 0.461097
O O12 0.676356 0.750000 0.455046
O O13 0.500000 0.250000 0.956694
O O14 0.500000 0.000000 0.000000
#
# Coordination Sequence:
#
# PCOD9538472 Si02
#       5
#    16   8  16  16   8
#     4  12  22  35  56  82 113 150 197 249 300 358
#     4  10  22  42  68  98 130 164 204 248 312 380
#     4  10  20  37  62  92 123 159 198 242 299 369
#     4  10  21  37  54  73 103 148 201 253 306 360
#     4  12  24  36  50  78 116 156 198 251 309 350
#
# _framework density 18.434775999999999
#
# number of rings (size 3 to 8) (size 9 to 14) (size 15 to 20)
#    0.000    1.250    2.500    4.875    0.000    2.000 
#    0.000    1.250    0.000    1.500    0.000    0.000 
#    0.000    0.000    0.000    0.000    0.000    0.000 
#
# Total GULP energy -178542.363564 kJ/mol
# GULP energy per Si atom -5579.448861 kJ/mol
# Density = 1.839282 g / cm^3
# Si number density = 18.434776 Si / 1000 Ang^3
#
#
#
# Elastic Constant Matrix: (Units=GPa)
#
#
# Indices 1 2 3 4 5 6 
#
# 1 47.6269 18.4043 35.6704 0.0000 0.0000 0.0000
# 2 18.4043 131.1597 29.7871 0.0000 0.0000 0.0000
# 3 35.6704 29.7871 77.1007 0.0000 0.0000 0.0000
# 4 0.0000 0.0000 0.0000 20.6820 0.0000 0.0000
# 5 0.0000 0.0000 0.0000 0.0000 7.4370 0.0000
# 6 0.0000 0.0000 0.0000 0.0000 0.0000 21.9282
#
#
#
# Elastic Compliance Matrix: (Units=1/GPa)
#
#
# Indices 1 2 3 4 5 6 
#
# 1 0.032315 -0.001249 -0.014468 0.000000 0.000000 0.000000
# 2 -0.001249 0.008406 -0.002670 0.000000 0.000000 0.000000
# 3 -0.014468 -0.002670 0.020695 0.000000 0.000000 0.000000
# 4 0.000000 0.000000 0.000000 0.048351 0.000000 0.000000
# 5 0.000000 0.000000 0.000000 0.000000 0.134463 0.000000
# 6 0.000000 0.000000 0.000000 0.000000 0.000000 0.045603
#
#
# Mechanical properties :
#
#
# Convention : Reuss Voigt Hill
#
# Bulk Modulus (GPa) = 40.57965 47.06789 43.82377
# Shear Modulus (GPa) = 14.93337 21.47779 18.20558
#
# Velocity S-wave (km/s) = 2.84925 3.41701 3.14597
# Velocity P-wave (km/s) = 5.73451 6.41526 6.08441
#
# Compressibility (1/GPa) = 0.02464289
#
# Stress axis : x y z
#
# Youngs Moduli (GPa) = 30.94538 118.96498 48.32059
#
# Poissons Ratio (x) = 0.14855 0.69910
# Poissons Ratio (y) = 0.03864 0.12901
# Poissons Ratio (z) = 0.44772 0.31761
#
# Static dielectric constant tensor:
#      x y z
#    x 1.676390 0.000000 0.000000 
#    y 0.000000 1.677000 0.000000 
#    z 0.000000 0.000000 1.616740 
# 
# From -- ./inp_files/71302.got.cif
#   From: 2010.05.17/outbox.cif.g08.bks.cpg/sg74_36_cif.got.tgz:71302.got - 2010.06.03 17:57:02.
