data_PCOD9538811
_publ_section_title
;
Structure prediction by ZEFSAII (Michael W. Deem and Ramdas Pophale) SiO2 
 PCOD9538811
Probable space group: I M M A
;
_chemical_formula_sum "Si O2"
_cell_formula_units_Z 56
_cell_length_a 11.202309
_cell_length_b 26.774724
_cell_length_c 7.864350
_cell_angle_alpha 90.000000
_cell_angle_beta 90.000000
_cell_angle_gamma 90.000000
_cell_volume 2358.823164
_symmetry_space_group_name_H-M "I M M A"
_symmetry_group_IT_number 74
_symmetry_cell_setting 'orthorhombic'
loop_
_space_group_symop_operation_xyz
x,y,z
-x,1/2-y,z
x,-y,-z
-x,1/2+y,-z
-x,-y,-z
x,1/2+y,-z
-x,y,z
x,1/2-y,z
1/2+x,1/2+y,1/2+z
1/2-x,-y,1/2+z
1/2+x,1/2-y,1/2-z
1/2-x,y,1/2-z
1/2-x,1/2-y,1/2-z
1/2+x,y,1/2-z
1/2-x,1/2+y,1/2+z
1/2+x,-y,1/2+z
loop_
_atom_site_type_symbol
_atom_site_label
_atom_site_fract_x
_atom_site_fract_y
_atom_site_fract_z
Si Si1 0.636790 0.250000 0.620957
Si Si2 0.632769 0.344462 0.365485
Si Si3 0.874127 0.509680 0.799533
Si Si4 0.873121 0.895469 0.197680
O O1 0.500000 0.250000 0.696092
O O2 0.750000 0.250000 0.750000
O O3 0.642517 0.297760 0.495224
O O4 0.500000 0.341210 0.282290
O O5 0.750000 0.345130 0.250000
O O6 0.629006 0.391889 0.493130
O O7 0.750000 0.534007 0.750000
O O8 0.871960 0.452017 0.731923
O O9 0.000000 0.532330 0.741942
O O10 0.876225 0.500000 0.000000
O O11 0.750000 0.870725 0.250000
O O12 0.000000 0.872787 0.251810
#
# Coordination Sequence:
#
# PCOD9538811 Si02
#       4
#     8  16  16  16
#     4  10  21  36  54  76 100 128 163 200 238 284
#     4  10  21  35  51  74 102 129 160 199 241 285
#     4   9  18  32  49  70  97 127 160 200 242 285
#     4   9  18  33  51  71  96 127 163 200 239 286
#
# _framework density 23.740652999999998
#
# number of rings (size 3 to 8) (size 9 to 14) (size 15 to 20)
#    0.000    2.571    0.000    1.286    0.000    4.000 
#    0.000    0.000    0.000    0.000    0.000    0.000 
#    0.000    0.000    0.000    0.000    0.000    0.000 
#
# Total GULP energy -156047.742387 kJ/mol
# GULP energy per Si atom -5573.133657 kJ/mol
# Density = 2.368662 g / cm^3
# Si number density = 23.740653 Si / 1000 Ang^3
#
#
#
# Elastic Constant Matrix: (Units=GPa)
#
#
# Indices 1 2 3 4 5 6 
#
# 1 366.9607 11.4157 77.2735 -0.0010 0.0009 0.0002
# 2 11.4157 95.4547 -0.7420 -0.0011 0.0014 0.0008
# 3 77.2735 -0.7420 30.3562 -0.0063 0.0076 0.0050
# 4 -0.0010 -0.0011 -0.0063 22.7580 0.0035 0.0018
# 5 0.0009 0.0014 0.0076 0.0035 51.9431 -0.0020
# 6 0.0002 0.0008 0.0050 0.0018 -0.0020 -5.3936
#
#
#
# Elastic Compliance Matrix: (Units=1/GPa)
#
#
# Indices 1 2 3 4 5 6 
#
# 1 0.005938 -0.000828 -0.015136 -0.000004 0.000002 -0.000014
# 2 -0.000828 0.010594 0.002366 0.000001 -0.000001 0.000004
# 3 -0.015136 0.002366 0.071530 0.000019 -0.000010 0.000067
# 4 -0.000004 0.000001 0.000019 0.043941 -0.000003 0.000015
# 5 0.000002 -0.000001 -0.000010 -0.000003 0.019252 -0.000007
# 6 -0.000014 0.000004 0.000067 0.000015 -0.000007 -0.185405
#
#
# Mechanical properties :
#
#
# Convention : Reuss Voigt Hill
#
# Bulk Modulus (GPa) = 16.42948 74.29622 45.36285
# Shear Modulus (GPa) = 374.98868 40.84979 207.91924
#
# Velocity S-wave (km/s) = 12.58154 4.15259 9.36854
# Velocity P-wave (km/s) = 14.76467 7.37258 11.66941
#
# Compressibility (1/GPa) = 0.06086618
#
# Stress axis : x y z
#
# Youngs Moduli (GPa) = 168.40191 94.39690 13.98014
#
# Poissons Ratio (x) = 0.07814 0.21161
# Poissons Ratio (y) = 0.13941 -0.03308
# Poissons Ratio (z) = 2.54896 -0.22336
#
# Static dielectric constant tensor:
#      x y z
#    x 1.958500 0.000000 0.000000 
#    y 0.000000 2.003330 0.000000 
#    z 0.000000 0.000000 1.875040 
# 
# From -- ./inp_files/7232.got.cif
#   From: 2010.05.17/outbox.cif.g08.bks.cpg/sg74_4_cif.got.tgz:7232.got - 2010.06.03 17:57:02.
