data_PCOD9538069
_publ_section_title
;
Structure prediction by ZEFSAII (Michael W. Deem and Ramdas Pophale) SiO2 
 PCOD9538069
Probable space group: I M M A
;
_chemical_formula_sum "Si O2"
_cell_formula_units_Z 96
_cell_length_a 8.401378
_cell_length_b 29.585786
_cell_length_c 16.875636
_cell_angle_alpha 90.000000
_cell_angle_beta 90.000000
_cell_angle_gamma 90.000000
_cell_volume 4194.631231
_symmetry_space_group_name_H-M "I M M A"
_symmetry_group_IT_number 74
_symmetry_cell_setting 'orthorhombic'
loop_
_space_group_symop_operation_xyz
x,y,z
-x,1/2-y,z
x,-y,-z
-x,1/2+y,-z
-x,-y,-z
x,1/2+y,-z
-x,y,z
x,1/2-y,z
1/2+x,1/2+y,1/2+z
1/2-x,-y,1/2+z
1/2+x,1/2-y,1/2-z
1/2-x,y,1/2-z
1/2-x,1/2-y,1/2-z
1/2+x,y,1/2-z
1/2-x,1/2+y,1/2+z
1/2+x,-y,1/2+z
loop_
_atom_site_type_symbol
_atom_site_label
_atom_site_fract_x
_atom_site_fract_y
_atom_site_fract_z
Si Si1 0.316332 0.801174 0.873478
Si Si2 0.814963 0.942946 0.462604
Si Si3 0.677286 0.800651 0.459773
Si Si4 0.685753 0.007832 0.166299
Si Si5 0.813683 0.100605 0.121544
Si Si6 0.185535 0.120638 0.836735
O O1 0.500000 0.802878 0.848654
O O2 0.254018 0.750000 0.852219
O O3 0.233212 0.848652 0.851932
O O4 0.301370 0.803747 0.969123
O O5 0.725118 0.913002 0.529219
O O6 0.798654 0.913495 0.383009
O O7 0.000000 0.947421 0.487874
O O8 0.753101 0.989477 0.419864
O O9 0.500000 0.808556 0.496545
O O10 0.681100 0.750000 0.429034
O O11 0.695132 0.834359 0.388548
O O12 0.500000 0.998994 0.165165
O O13 0.750000 0.989197 0.250000
O O14 0.718377 0.061245 0.165569
O O15 0.000000 0.094232 0.134386
O O16 0.250000 0.127901 0.750000
O O17 0.000000 0.105285 0.837080
#
# Coordination Sequence:
#
# PCOD9538069 Si02
#       6
#    16  16  16  16  16  16
#     4  10  20  35  59  90 122 157 199 249 303 358
#     4  11  23  40  62  88 120 158 204 255 302 354
#     4   9  18  33  51  73 105 147 195 246 301 359
#     4  11  25  44  65  91 124 162 203 252 308 366
#     4  12  24  39  64  95 126 163 204 250 301 361
#     4  11  22  34  51  76 110 155 201 250 304 359
#
# _framework density 22.886398
#
# number of rings (size 3 to 8) (size 9 to 14) (size 15 to 20)
#    0.000    1.333    1.667    4.500    0.000    8.000 
#    0.000    0.000    0.000    0.500    0.000    0.000 
#    0.000    0.000    0.000    0.000    0.000    0.000 
#
# Total GULP energy -267864.040770 kJ/mol
# GULP energy per Si atom -5580.500849 kJ/mol
# Density = 2.283431 g / cm^3
# Si number density = 22.886398 Si / 1000 Ang^3
#
#
#
# Elastic Constant Matrix: (Units=GPa)
#
#
# Indices 1 2 3 4 5 6 
#
# 1 59.5108 10.0259 -0.9312 -0.0001 0.0000 0.0000
# 2 10.0259 101.4833 -6.3087 0.0000 0.0000 0.0000
# 3 -0.9312 -6.3087 86.5078 -0.0004 0.0000 -0.0001
# 4 -0.0001 0.0000 -0.0004 10.8599 0.0000 -0.0001
# 5 0.0000 0.0000 0.0000 0.0000 19.7140 0.0000
# 6 0.0000 0.0000 -0.0001 -0.0001 0.0000 13.1937
#
#
#
# Elastic Compliance Matrix: (Units=1/GPa)
#
#
# Indices 1 2 3 4 5 6 
#
# 1 0.017088 -0.001684 0.000061 0.000000 0.000000 0.000000
# 2 -0.001684 0.010065 0.000716 0.000000 0.000000 0.000000
# 3 0.000061 0.000716 0.011613 0.000000 0.000000 0.000000
# 4 0.000000 0.000000 0.000000 0.092082 0.000000 0.000001
# 5 0.000000 0.000000 0.000000 0.000000 0.050725 0.000000
# 6 0.000000 0.000000 0.000000 0.000001 0.000000 0.075794
#
#
# Mechanical properties :
#
#
# Convention : Reuss Voigt Hill
#
# Bulk Modulus (GPa) = 27.06307 28.11934 27.59121
# Shear Modulus (GPa) = 18.41631 25.06791 21.74211
#
# Velocity S-wave (km/s) = 2.83977 3.31315 3.08555
# Velocity P-wave (km/s) = 4.75427 5.19125 4.97756
#
# Compressibility (1/GPa) = 0.03695072
#
# Stress axis : x y z
#
# Youngs Moduli (GPa) = 58.51921 99.35667 86.11398
#
# Poissons Ratio (x) = 0.16736 -0.00526
# Poissons Ratio (y) = 0.09857 -0.06164
# Poissons Ratio (z) = -0.00358 -0.07112
#
# Static dielectric constant tensor:
#      x y z
#    x 1.839380 0.000000 0.000000 
#    y 0.000000 1.988110 0.000000 
#    z 0.000000 0.000000 1.903790 
# 
# From -- ./inp_files/49175.got.cif
#   From: 2010.05.17/outbox.cif.g08.bks.cpg/sg74_25_cif.got.tgz:49175.got - 2010.06.03 17:57:02.
