data_PCOD9538677
_publ_section_title
;
Structure prediction by ZEFSAII (Michael W. Deem and Ramdas Pophale) SiO2 
 PCOD9538677
Probable space group: I M M A
;
_chemical_formula_sum "Si O2"
_cell_formula_units_Z 48
_cell_length_a 13.593676
_cell_length_b 10.268738
_cell_length_c 13.772450
_cell_angle_alpha 90.000000
_cell_angle_beta 90.000000
_cell_angle_gamma 90.000000
_cell_volume 1922.494881
_symmetry_space_group_name_H-M "I M M A"
_symmetry_group_IT_number 74
_symmetry_cell_setting 'orthorhombic'
loop_
_space_group_symop_operation_xyz
x,y,z
-x,1/2-y,z
x,-y,-z
-x,1/2+y,-z
-x,-y,-z
x,1/2+y,-z
-x,y,z
x,1/2-y,z
1/2+x,1/2+y,1/2+z
1/2-x,-y,1/2+z
1/2+x,1/2-y,1/2-z
1/2-x,y,1/2-z
1/2-x,1/2-y,1/2-z
1/2+x,y,1/2-z
1/2-x,1/2+y,1/2+z
1/2+x,-y,1/2+z
loop_
_atom_site_type_symbol
_atom_site_label
_atom_site_fract_x
_atom_site_fract_y
_atom_site_fract_z
Si Si1 0.387736 0.542772 0.796036
Si Si2 0.119564 0.900128 0.918643
Si Si3 0.837181 0.750000 0.328570
Si Si4 0.619872 0.250000 0.045337
O O1 0.500000 0.590025 0.787474
O O2 0.342803 0.570413 0.690156
O O3 0.388193 0.388581 0.810701
O O4 0.353502 0.624751 0.889047
O O5 0.137536 0.750000 0.942417
O O6 0.000000 0.916326 0.916048
O O7 0.156079 0.000000 0.000000
O O8 0.750000 0.750000 0.250000
O O9 0.823641 0.750000 0.444108
O O10 0.500000 0.250000 0.024914
#
# Coordination Sequence:
#
# PCOD9538677 Si02
#       4
#    16  16   8   8
#     4  10  20  39  69 100 127 163 223 290 341 389
#     4   9  17  30  53  89 129 162 199 258 327 391
#     4  12  26  40  57  92 137 176 214 261 337 425
#     4  10  20  42  76 104 126 164 227 299 350 385
#
# _framework density 24.967556999999999
#
# number of rings (size 3 to 8) (size 9 to 14) (size 15 to 20)
#    0.000    2.000    1.667    2.500    2.333    2.667 
#    0.000    4.167    0.000    0.000    0.000    0.000 
#    0.000    0.000    0.000    0.000    0.000    0.000 
#
# Total GULP energy -134310.215899 kJ/mol
# GULP energy per Si atom -5596.258996 kJ/mol
# Density = 2.491073 g / cm^3
# Si number density = 24.967557 Si / 1000 Ang^3
#
#
#
# Elastic Constant Matrix: (Units=GPa)
#
#
# Indices 1 2 3 4 5 6 
#
# 1 82.0309 13.1811 63.5582 0.0000 0.0000 0.0000
# 2 13.1811 182.0620 94.9499 0.0000 0.0000 0.0000
# 3 63.5582 94.9499 258.4017 0.0000 0.0000 0.0000
# 4 0.0000 0.0000 0.0000 57.3736 0.0000 0.0000
# 5 0.0000 0.0000 0.0000 0.0000 30.2575 0.0000
# 6 0.0000 0.0000 0.0000 0.0000 0.0000 18.3142
#
#
#
# Elastic Compliance Matrix: (Units=1/GPa)
#
#
# Indices 1 2 3 4 5 6 
#
# 1 0.015222 0.001052 -0.004131 0.000000 0.000000 0.000000
# 2 0.001052 0.006867 -0.002782 0.000000 0.000000 0.000000
# 3 -0.004131 -0.002782 0.005908 0.000000 0.000000 0.000000
# 4 0.000000 0.000000 0.000000 0.017430 0.000000 0.000000
# 5 0.000000 0.000000 0.000000 0.000000 0.033050 0.000000
# 6 0.000000 0.000000 0.000000 0.000000 0.000000 0.054603
#
#
# Mechanical properties :
#
#
# Convention : Reuss Voigt Hill
#
# Bulk Modulus (GPa) = 61.43935 96.20812 78.82374
# Shear Modulus (GPa) = 33.28306 44.57607 38.92957
#
# Velocity S-wave (km/s) = 3.65506 4.22994 3.95296
# Velocity P-wave (km/s) = 6.51719 7.90401 7.24386
#
# Compressibility (1/GPa) = 0.01627621
#
# Stress axis : x y z
#
# Youngs Moduli (GPa) = 65.69439 145.61380 169.25284
#
# Poissons Ratio (x) = -0.15322 0.69914
# Poissons Ratio (y) = -0.06913 0.47091
# Poissons Ratio (z) = 0.27137 0.40514
#
# Static dielectric constant tensor:
#      x y z
#    x 2.120540 0.000000 0.000000 
#    y 0.000000 1.887860 0.000000 
#    z 0.000000 0.000000 1.940060 
# 
# From -- ./inp_files/21380.got.cif
#   From: 2010.05.17/outbox.cif.g08.bks.cpg/sg74_11_cif.got.tgz:21380.got - 2010.06.03 17:57:02.
