data_PCOD9538900
_publ_section_title
;
Structure prediction by ZEFSAII (Michael W. Deem and Ramdas Pophale) SiO2 
 PCOD9538900
Probable space group: I M M A
;
_chemical_formula_sum "Si O2"
_cell_formula_units_Z 112
_cell_length_a 24.586700
_cell_length_b 14.629936
_cell_length_c 14.964993
_cell_angle_alpha 90.000000
_cell_angle_beta 90.000000
_cell_angle_gamma 90.000000
_cell_volume 5382.935629
_symmetry_space_group_name_H-M "I M M A"
_symmetry_group_IT_number 74
_symmetry_cell_setting 'orthorhombic'
loop_
_space_group_symop_operation_xyz
x,y,z
-x,1/2-y,z
x,-y,-z
-x,1/2+y,-z
-x,-y,-z
x,1/2+y,-z
-x,y,z
x,1/2-y,z
1/2+x,1/2+y,1/2+z
1/2-x,-y,1/2+z
1/2+x,1/2-y,1/2-z
1/2-x,y,1/2-z
1/2-x,1/2-y,1/2-z
1/2+x,y,1/2-z
1/2-x,1/2+y,1/2+z
1/2+x,-y,1/2+z
loop_
_atom_site_type_symbol
_atom_site_label
_atom_site_fract_x
_atom_site_fract_y
_atom_site_fract_z
Si Si1 0.560810 0.641018 0.272921
Si Si2 0.237843 0.850769 0.355190
Si Si3 0.626471 0.358026 0.059472
Si Si4 0.761937 0.147849 0.345729
Si Si5 0.129512 0.549914 0.373613
Si Si6 0.180995 0.104583 0.007293
Si Si7 0.058775 0.860116 0.018905
O O1 0.500000 0.621687 0.237503
O O2 0.569131 0.750000 0.269036
O O3 0.606101 0.591634 0.216251
O O4 0.561350 0.614382 0.376606
O O5 0.212367 0.750000 0.375056
O O6 0.250000 0.853293 0.250000
O O7 0.194678 0.931281 0.373746
O O8 0.291762 0.854923 0.417081
O O9 0.612656 0.250000 0.074075
O O10 0.690574 0.372202 0.082411
O O11 0.607255 0.446055 0.117756
O O12 0.612029 0.389521 0.959365
O O13 0.779475 0.250000 0.319400
O O14 0.750000 0.099463 0.250000
O O15 0.708281 0.145782 0.404943
O O16 0.116355 0.109974 0.018721
O O17 0.197132 0.000000 0.000000
O O18 0.058315 0.750000 0.014512
O O19 0.000000 0.891764 0.982014
#
# Coordination Sequence:
#
# PCOD9538900 Si02
#       7
#    16  16  16  16  16  16  16
#     4   9  18  34  58  88 118 148 186 235 297 365
#     4  11  22  35  56  88 123 152 186 242 306 363
#     4  10  21  36  52  75 111 152 193 239 291 346
#     4  10  21  37  54  73 107 154 200 238 278 338
#     4  11  20  33  56  82 111 151 191 232 293 361
#     4  12  23  34  53  84 120 154 193 240 291 358
#     4   9  19  37  59  82 112 150 190 239 299 356
#
# _framework density 20.806491999999999
#
# number of rings (size 3 to 8) (size 9 to 14) (size 15 to 20)
#    0.000    1.714    1.429    5.143    0.000    6.000 
#    0.000    1.429    0.000    1.286    0.000    1.000 
#    0.000    8.000    0.000    0.000    0.000    0.000 
#
# Total GULP energy -311750.981749 kJ/mol
# GULP energy per Si atom -5566.981817 kJ/mol
# Density = 2.075914 g / cm^3
# Si number density = 20.806492 Si / 1000 Ang^3
#
#
#
# Elastic Constant Matrix: (Units=GPa)
#
#
# Indices 1 2 3 4 5 6 
#
# 1 45.1087 -9.2078 13.0636 0.0000 0.0000 0.0000
# 2 -9.2078 97.3802 -0.2415 0.0000 0.0000 0.0000
# 3 13.0636 -0.2415 61.1073 0.0000 0.0000 0.0000
# 4 0.0000 0.0000 0.0000 15.0353 0.0000 0.0000
# 5 0.0000 0.0000 0.0000 0.0000 -1.9371 0.0000
# 6 0.0000 0.0000 0.0000 0.0000 0.0000 16.9059
#
#
#
# Elastic Compliance Matrix: (Units=1/GPa)
#
#
# Indices 1 2 3 4 5 6 
#
# 1 0.024122 0.002268 -0.005148 0.000000 0.000000 0.000000
# 2 0.002268 0.010482 -0.000443 0.000000 0.000000 0.000000
# 3 -0.005148 -0.000443 0.017463 0.000000 0.000000 0.000000
# 4 0.000000 0.000000 0.000000 0.066510 0.000000 0.000000
# 5 0.000000 0.000000 0.000000 0.000000 -0.516248 0.000000
# 6 0.000000 0.000000 0.000000 0.000000 0.000000 0.059151
#
#
# Mechanical properties :
#
#
# Convention : Reuss Voigt Hill
#
# Bulk Modulus (GPa) = 22.01589 23.42499 22.72044
# Shear Modulus (GPa) = -15.78627 19.33295 1.77334
#
# Velocity S-wave (km/s) = -2.75747 3.05155 0.92420
# Velocity P-wave (km/s) = 0.68266 4.86815 3.47598
#
# Compressibility (1/GPa) = 0.04542174
#
# Stress axis : x y z
#
# Youngs Moduli (GPa) = 41.45510 95.39805 57.26250
#
# Poissons Ratio (x) = -0.21638 0.29478
# Poissons Ratio (y) = -0.09403 0.02539
# Poissons Ratio (z) = 0.21341 0.04231
#
# Static dielectric constant tensor:
#      x y z
#    x 1.766040 0.000000 0.000000 
#    y 0.000000 1.559560 0.000000 
#    z 0.000000 0.000000 1.750420 
# 
# From -- ./inp_files/36562.got.cif
#   From: 2010.05.17/outbox.cif.g08.bks.cpg/sg74_19_cif.got.tgz:36562.got - 2010.06.03 17:57:02.
