data_PCOD9538521
_publ_section_title
;
Structure prediction by ZEFSAII (Michael W. Deem and Ramdas Pophale) SiO2 
 PCOD9538521
Probable space group: I M M A
;
_chemical_formula_sum "Si O2"
_cell_formula_units_Z 64
_cell_length_a 7.781754
_cell_length_b 27.919817
_cell_length_c 15.579506
_cell_angle_alpha 90.000000
_cell_angle_beta 90.000000
_cell_angle_gamma 90.000000
_cell_volume 3384.883671
_symmetry_space_group_name_H-M "I M M A"
_symmetry_group_IT_number 74
_symmetry_cell_setting 'orthorhombic'
loop_
_space_group_symop_operation_xyz
x,y,z
-x,1/2-y,z
x,-y,-z
-x,1/2+y,-z
-x,-y,-z
x,1/2+y,-z
-x,y,z
x,1/2-y,z
1/2+x,1/2+y,1/2+z
1/2-x,-y,1/2+z
1/2+x,1/2-y,1/2-z
1/2-x,y,1/2-z
1/2-x,1/2-y,1/2-z
1/2+x,y,1/2-z
1/2-x,1/2+y,1/2+z
1/2+x,-y,1/2+z
loop_
_atom_site_type_symbol
_atom_site_label
_atom_site_fract_x
_atom_site_fract_y
_atom_site_fract_z
Si Si1 0.293323 0.379829 0.156106
Si Si2 0.000000 0.451563 0.111197
Si Si3 0.199184 0.196902 0.482649
Si Si4 0.500000 0.561564 0.405784
Si Si5 0.809287 0.850057 0.152524
O O1 0.500000 0.388888 0.148647
O O2 0.250000 0.359370 0.250000
O O3 0.231739 0.342956 0.082483
O O4 0.171989 0.426294 0.146612
O O5 0.000000 0.508072 0.129696
O O6 0.000000 0.443162 0.008403
O O7 0.276812 0.250000 0.477004
O O8 0.205971 0.176965 0.579362
O O9 0.000000 0.200880 0.458226
O O10 0.339682 0.594398 0.374898
O O11 0.750000 0.847034 0.250000
O O12 0.000000 0.828404 0.147801
#
# Coordination Sequence:
#
# PCOD9538521 Si02
#       5
#    16   8  16   8  16
#     4  11  22  39  63  89 125 163 198 250 303 355
#     4  11  20  44  62  91 124 157 207 248 301 357
#     4  10  22  40  61  86 117 155 203 250 299 360
#     4   9  22  38  64  85 122 157 199 254 293 359
#     4  10  20  38  58  86 117 157 193 245 298 349
#
# _framework density 18.907592999999999
#
# number of rings (size 3 to 8) (size 9 to 14) (size 15 to 20)
#    0.750    1.000    3.750    0.750    0.000    2.500 
#    0.000    3.750    0.000    0.000    0.000    0.000 
#    0.000    0.000    0.000    0.000    0.000    0.000 
#
# Total GULP energy -178174.932637 kJ/mol
# GULP energy per Si atom -5567.966645 kJ/mol
# Density = 1.886456 g / cm^3
# Si number density = 18.907593 Si / 1000 Ang^3
#
#
#
# Elastic Constant Matrix: (Units=GPa)
#
#
# Indices 1 2 3 4 5 6 
#
# 1 72.6998 23.5616 -2.6081 0.0000 0.0000 0.0000
# 2 23.5616 100.1412 14.3106 0.0000 0.0000 0.0000
# 3 -2.6081 14.3106 86.1176 0.0000 0.0001 -0.0001
# 4 0.0000 0.0000 0.0000 -0.3007 0.0000 0.0000
# 5 0.0000 0.0000 0.0001 0.0000 9.2214 0.0000
# 6 0.0000 0.0000 -0.0001 0.0000 0.0000 24.4581
#
#
#
# Elastic Compliance Matrix: (Units=1/GPa)
#
#
# Indices 1 2 3 4 5 6 
#
# 1 0.014985 -0.003678 0.001065 -0.000001 0.000000 0.000000
# 2 -0.003678 0.011132 -0.001961 -0.000001 0.000000 0.000000
# 3 0.001065 -0.001961 0.011970 0.000001 0.000000 0.000000
# 4 -0.000001 -0.000001 0.000001 -3.325891 0.000003 -0.000001
# 5 0.000000 0.000000 0.000000 0.000003 0.108444 0.000000
# 6 0.000000 0.000000 0.000000 -0.000001 0.000000 0.040886
#
#
# Mechanical properties :
#
#
# Convention : Reuss Voigt Hill
#
# Bulk Modulus (GPa) = 34.55566 36.60965 35.58266
# Shear Modulus (GPa) = -1.60273 21.58874 9.99301
#
# Velocity S-wave (km/s) = -0.92169 3.38272 2.30145
# Velocity P-wave (km/s) = 4.14525 5.88740 5.09139
#
# Compressibility (1/GPa) = 0.02893882
#
# Stress axis : x y z
#
# Youngs Moduli (GPa) = 66.73148 89.83481 83.54091
#
# Poissons Ratio (x) = 0.33042 -0.08897
# Poissons Ratio (y) = 0.24544 0.16384
# Poissons Ratio (z) = -0.07107 0.17618
#
# Static dielectric constant tensor:
#      x y z
#    x 1.684940 0.000000 0.000000 
#    y 0.000000 1.684250 0.000000 
#    z 0.000000 0.000000 1.693130 
# 
# From -- ./inp_files/29330.got.cif
#   From: 2010.05.17/outbox.cif.g08.bks.cpg/sg74_15_cif.got.tgz:29330.got - 2010.06.03 17:57:02.
