data_PCOD9538373
_publ_section_title
;
Structure prediction by ZEFSAII (Michael W. Deem and Ramdas Pophale) SiO2 
 PCOD9538373
Probable space group: I M M A
;
_chemical_formula_sum "Si O2"
_cell_formula_units_Z 88
_cell_length_a 24.608438
_cell_length_b 14.549226
_cell_length_c 13.132597
_cell_angle_alpha 90.000000
_cell_angle_beta 90.000000
_cell_angle_gamma 90.000000
_cell_volume 4701.912636
_symmetry_space_group_name_H-M "I M M A"
_symmetry_group_IT_number 74
_symmetry_cell_setting 'orthorhombic'
loop_
_space_group_symop_operation_xyz
x,y,z
-x,1/2-y,z
x,-y,-z
-x,1/2+y,-z
-x,-y,-z
x,1/2+y,-z
-x,y,z
x,1/2-y,z
1/2+x,1/2+y,1/2+z
1/2-x,-y,1/2+z
1/2+x,1/2-y,1/2-z
1/2-x,y,1/2-z
1/2-x,1/2-y,1/2-z
1/2+x,y,1/2-z
1/2-x,1/2+y,1/2+z
1/2+x,-y,1/2+z
loop_
_atom_site_type_symbol
_atom_site_label
_atom_site_fract_x
_atom_site_fract_y
_atom_site_fract_z
Si Si1 0.303552 0.142132 0.688981
Si Si2 0.381179 0.462763 0.825504
Si Si3 0.000000 0.356087 0.218153
Si Si4 0.218695 0.143071 0.050598
Si Si5 0.000000 0.983914 0.379818
Si Si6 0.195398 0.500000 0.500000
Si Si7 0.380314 0.142523 0.296121
O O1 0.308871 0.250000 0.712496
O O2 0.250000 0.108474 0.750000
O O3 0.355650 0.090181 0.730924
O O4 0.296617 0.132745 0.568381
O O5 0.443281 0.437690 0.848338
O O6 0.343399 0.445518 0.922924
O O7 0.376663 0.570784 0.796304
O O8 0.942238 0.371151 0.162259
O O9 0.000000 0.250000 0.249917
O O10 0.000000 0.421119 0.316287
O O11 0.234862 0.250000 0.067421
O O12 0.167135 0.123786 0.122531
O O13 0.266688 0.069888 0.063327
O O14 0.000000 0.000000 0.500000
O O15 0.375207 0.250000 0.266577
#
# Coordination Sequence:
#
# PCOD9538373 Si02
#       7
#    16  16   8  16   8   8  16
#     4  10  20  37  57  77 106 146 184 218 264 325
#     4  11  22  36  57  79 109 146 183 225 273 320
#     4   8  16  34  57  79 107 145 179 216 275 332
#     4  10  21  35  54  83 112 139 179 225 270 326
#     4  10  20  38  55  77 107 141 185 230 268 316
#     4  12  22  33  54  79 106 148 184 218 272 328
#     4   9  19  35  56  83 112 141 178 226 275 325
#
# _framework density 18.715786999999999
#
# number of rings (size 3 to 8) (size 9 to 14) (size 15 to 20)
#    0.000    2.000    2.727    1.091    0.000    0.727 
#    0.000    4.091    0.000    6.000    0.000    0.000 
#    0.000    0.000    0.000    0.000    0.000    0.000 
#
# Total GULP energy -245299.433332 kJ/mol
# GULP energy per Si atom -5574.987121 kJ/mol
# Density = 1.867319 g / cm^3
# Si number density = 18.715787 Si / 1000 Ang^3
#
#
#
# Elastic Constant Matrix: (Units=GPa)
#
#
# Indices 1 2 3 4 5 6 
#
# 1 145.6353 35.0107 22.5931 0.0000 0.0000 0.0000
# 2 35.0107 29.1475 2.7678 0.0000 0.0000 0.0000
# 3 22.5931 2.7678 25.5149 0.0000 0.0000 0.0000
# 4 0.0000 0.0000 0.0000 14.3235 0.0000 0.0000
# 5 0.0000 0.0000 0.0000 0.0000 32.1296 0.0000
# 6 0.0000 0.0000 0.0000 0.0000 0.0000 21.4009
#
#
#
# Elastic Compliance Matrix: (Units=1/GPa)
#
#
# Indices 1 2 3 4 5 6 
#
# 1 0.011251 -0.012699 -0.008585 0.000000 0.000000 0.000000
# 2 -0.012699 0.048999 0.005930 0.000000 0.000000 0.000000
# 3 -0.008585 0.005930 0.046152 0.000000 0.000000 0.000000
# 4 0.000000 0.000000 0.000000 0.069815 0.000000 0.000000
# 5 0.000000 0.000000 0.000000 0.000000 0.031124 0.000000
# 6 0.000000 0.000000 0.000000 0.000000 0.000000 0.046727
#
#
# Mechanical properties :
#
#
# Convention : Reuss Voigt Hill
#
# Bulk Modulus (GPa) = 13.21141 35.67121 24.44131
# Shear Modulus (GPa) = 16.12860 22.89920 19.51390
#
# Velocity S-wave (km/s) = 2.93877 3.50168 3.23250
# Velocity P-wave (km/s) = 4.31155 5.95398 5.19804
#
# Compressibility (1/GPa) = 0.07569216
#
# Stress axis : x y z
#
# Youngs Moduli (GPa) = 88.87933 20.40860 21.66772
#
# Poissons Ratio (x) = 0.25917 0.18602
# Poissons Ratio (y) = 1.12870 -0.12848
# Poissons Ratio (z) = 0.76305 -0.12101
#
# Static dielectric constant tensor:
#      x y z
#    x 1.684730 0.000000 0.000000 
#    y 0.000000 1.671260 0.000000 
#    z 0.000000 0.000000 1.618710 
# 
# From -- ./inp_files/25016.got.cif
#   From: 2010.05.17/outbox.cif.g08.bks.cpg/sg74_13_cif.got.tgz:25016.got - 2010.06.03 17:57:02.
