data_PCOD9538409
_publ_section_title
;
Structure prediction by ZEFSAII (Michael W. Deem and Ramdas Pophale) SiO2 
 PCOD9538409
Probable space group: I M M A
;
_chemical_formula_sum "Si O2"
_cell_formula_units_Z 96
_cell_length_a 14.941675
_cell_length_b 18.714530
_cell_length_c 16.432901
_cell_angle_alpha 90.000000
_cell_angle_beta 90.000000
_cell_angle_gamma 90.000000
_cell_volume 4595.073360
_symmetry_space_group_name_H-M "I M M A"
_symmetry_group_IT_number 74
_symmetry_cell_setting 'orthorhombic'
loop_
_space_group_symop_operation_xyz
x,y,z
-x,1/2-y,z
x,-y,-z
-x,1/2+y,-z
-x,-y,-z
x,1/2+y,-z
-x,y,z
x,1/2-y,z
1/2+x,1/2+y,1/2+z
1/2-x,-y,1/2+z
1/2+x,1/2-y,1/2-z
1/2-x,y,1/2-z
1/2-x,1/2-y,1/2-z
1/2+x,y,1/2-z
1/2-x,1/2+y,1/2+z
1/2+x,-y,1/2+z
loop_
_atom_site_type_symbol
_atom_site_label
_atom_site_fract_x
_atom_site_fract_y
_atom_site_fract_z
Si Si1 0.644931 0.444240 0.252784
Si Si2 0.399641 0.857744 0.129310
Si Si3 0.103180 0.834677 0.894570
Si Si4 0.285011 0.167741 0.552017
Si Si5 0.897944 0.603432 0.193852
Si Si6 0.598264 0.478679 0.081819
O O1 0.750000 0.455505 0.250000
O O2 0.618138 0.381688 0.314163
O O3 0.605250 0.519015 0.285580
O O4 0.623111 0.430122 0.157872
O O5 0.500000 0.829410 0.114943
O O6 0.321600 0.834278 0.068335
O O7 0.375061 0.850767 0.224754
O O8 0.407109 0.943027 0.120541
O O9 0.113485 0.750000 0.877595
O O10 0.000000 0.845830 0.923063
O O11 0.175462 0.854577 0.964368
O O12 0.314369 0.250000 0.562945
O O13 0.330132 0.120665 0.622027
O O14 0.000000 0.621720 0.171194
O O15 0.500000 0.451526 0.055171
O O16 0.652139 0.500000 0.000000
#
# Coordination Sequence:
#
# PCOD9538409 Si02
#       6
#    16  16  16  16  16  16
#     4  11  22  37  62  94 122 157 195 254 309 373
#     4   9  19  35  56  84 120 158 201 260 322 383
#     4  10  23  43  63  86 122 167 212 258 309 366
#     4  11  23  38  58  85 122 167 215 263 315 376
#     4  10  20  37  59  89 125 159 207 259 314 381
#     4   9  18  34  59  86 116 152 192 241 301 366
#
# _framework density 20.891940000000002
#
# number of rings (size 3 to 8) (size 9 to 14) (size 15 to 20)
#    0.000    2.000    0.000    5.500    2.333    3.667 
#    0.000    3.333    0.000    0.000    0.000    0.000 
#    0.000    0.000    0.000    0.000    0.000    0.000 
#
# Total GULP energy -267413.228780 kJ/mol
# GULP energy per Si atom -5571.108933 kJ/mol
# Density = 2.084439 g / cm^3
# Si number density = 20.891940 Si / 1000 Ang^3
#
#
#
# Elastic Constant Matrix: (Units=GPa)
#
#
# Indices 1 2 3 4 5 6 
#
# 1 111.8455 10.1244 58.5080 0.0000 0.0000 0.0000
# 2 10.1244 50.9531 36.3856 0.0001 0.0000 0.0000
# 3 58.5080 36.3856 168.0591 0.0001 0.0000 0.0000
# 4 0.0000 0.0001 0.0001 -15.2000 0.0000 0.0000
# 5 0.0000 0.0000 0.0000 0.0000 49.6627 0.0000
# 6 0.0000 0.0000 0.0000 0.0000 0.0000 -27.4241
#
#
#
# Elastic Compliance Matrix: (Units=1/GPa)
#
#
# Indices 1 2 3 4 5 6 
#
# 1 0.010950 0.000646 -0.003952 0.000000 0.000000 0.000000
# 2 0.000646 0.023253 -0.005259 0.000000 0.000000 0.000000
# 3 -0.003952 -0.005259 0.008465 0.000000 0.000000 0.000000
# 4 0.000000 0.000000 0.000000 -0.065790 0.000000 0.000000
# 5 0.000000 0.000000 0.000000 0.000000 0.020136 0.000000
# 6 0.000000 0.000000 0.000000 0.000000 0.000000 -0.036464
#
#
# Mechanical properties :
#
#
# Convention : Reuss Voigt Hill
#
# Bulk Modulus (GPa) = 39.15783 60.09930 49.62857
# Shear Modulus (GPa) = -362.12077 16.46370 -172.82853
#
# Velocity S-wave (km/s) = -13.17978 2.81025 -9.10519
# Velocity P-wave (km/s) = 14.58853 6.27369 9.31305
#
# Compressibility (1/GPa) = 0.02553768
#
# Stress axis : x y z
#
# Youngs Moduli (GPa) = 91.32642 43.00477 118.13592
#
# Poissons Ratio (x) = -0.02780 0.46687
# Poissons Ratio (y) = -0.05903 0.62133
# Poissons Ratio (z) = 0.36092 0.22618
#
# Static dielectric constant tensor:
#      x y z
#    x 1.795750 0.000000 0.000000 
#    y 0.000000 1.744330 0.000000 
#    z 0.000000 0.000000 1.844610 
# 
# From -- ./inp_files/32408.got.cif
#   From: 2010.05.17/outbox.cif.g08.bks.cpg/sg74_17_cif.got.tgz:32408.got - 2010.06.03 17:57:02.
