data_PCOD9538022
_publ_section_title
;
Structure prediction by ZEFSAII (Michael W. Deem and Ramdas Pophale) SiO2 
 PCOD9538022
Probable space group: I M M A
;
_chemical_formula_sum "Si O2"
_cell_formula_units_Z 116
_cell_length_a 17.526559
_cell_length_b 20.291491
_cell_length_c 16.641129
_cell_angle_alpha 90.000000
_cell_angle_beta 90.000000
_cell_angle_gamma 90.000000
_cell_volume 5918.251354
_symmetry_space_group_name_H-M "I M M A"
_symmetry_group_IT_number 74
_symmetry_cell_setting 'orthorhombic'
loop_
_space_group_symop_operation_xyz
x,y,z
-x,1/2-y,z
x,-y,-z
-x,1/2+y,-z
-x,-y,-z
x,1/2+y,-z
-x,y,z
x,1/2-y,z
1/2+x,1/2+y,1/2+z
1/2-x,-y,1/2+z
1/2+x,1/2-y,1/2-z
1/2-x,y,1/2-z
1/2-x,1/2-y,1/2-z
1/2+x,y,1/2-z
1/2-x,1/2+y,1/2+z
1/2+x,-y,1/2+z
loop_
_atom_site_type_symbol
_atom_site_label
_atom_site_fract_x
_atom_site_fract_y
_atom_site_fract_z
Si Si1 0.500000 0.250000 0.952364
Si Si2 0.590212 0.460091 0.884979
Si Si3 0.323364 0.419151 0.307709
Si Si4 0.837191 0.569626 0.221032
Si Si5 0.409650 0.391567 0.158779
Si Si6 0.361615 0.152008 0.994968
Si Si7 0.803046 0.823727 0.956268
Si Si8 0.910295 0.826281 0.103351
O O1 0.430929 0.193402 0.956384
O O2 0.500000 0.461185 0.900149
O O3 0.610590 0.425929 0.800580
O O4 0.615703 0.535059 0.869004
O O5 0.629528 0.420479 0.956506
O O6 0.250000 0.418622 0.250000
O O7 0.344851 0.496168 0.317153
O O8 0.385733 0.383863 0.250851
O O9 0.305848 0.379740 0.388426
O O10 0.750000 0.577378 0.250000
O O11 0.863889 0.624686 0.159748
O O12 0.500000 0.387908 0.151611
O O13 0.375713 0.344571 0.091082
O O14 0.273402 0.172071 0.988760
O O15 0.803941 0.750000 0.920119
O O16 0.875226 0.831203 0.014511
O O17 0.901177 0.750000 0.129315
O O18 0.000000 0.842139 0.104850
#
# Coordination Sequence:
#
# PCOD9538022 Si02
#       8
#     4  16  16  16  16  16  16  16
#     4  12  24  36  54  90 136 164 202 258 290 370
#     4  10  20  35  58  85 117 155 197 245 299 366
#     4  10  21  39  59  90 123 156 207 257 310 367
#     4  10  21  39  61  93 124 156 200 259 312 367
#     4  10  20  36  58  83 116 154 197 249 306 365
#     4  12  21  38  57  87 125 162 200 247 303 365
#     4  11  24  41  63  87 120 166 211 259 307 370
#     4  10  23  45  66  89 124 168 213 258 313 373
#
# _framework density 19.600383999999998
#
# number of rings (size 3 to 8) (size 9 to 14) (size 15 to 20)
#    0.000    1.517    3.448    1.655    0.000    3.310 
#    4.966    0.690    0.000    0.000    0.000    0.000 
#    0.000    0.000    0.000    0.000    0.000    0.000 
#
# Total GULP energy -323092.908281 kJ/mol
# GULP energy per Si atom -5570.567384 kJ/mol
# Density = 1.955577 g / cm^3
# Si number density = 19.600384 Si / 1000 Ang^3
#
#
#
# Elastic Constant Matrix: (Units=GPa)
#
#
# Indices 1 2 3 4 5 6 
#
# 1 62.4854 31.1004 17.7713 0.0000 0.0000 0.0000
# 2 31.1004 49.7236 33.5737 0.0000 0.0000 0.0000
# 3 17.7713 33.5737 59.9170 0.0000 0.0000 0.0000
# 4 0.0000 0.0000 0.0000 4.1535 0.0000 0.0000
# 5 0.0000 0.0000 0.0000 0.0000 23.8199 0.0000
# 6 0.0000 0.0000 0.0000 0.0000 0.0000 95.1258
#
#
#
# Elastic Compliance Matrix: (Units=1/GPa)
#
#
# Indices 1 2 3 4 5 6 
#
# 1 0.023390 -0.015998 0.002027 0.000000 0.000000 0.000000
# 2 -0.015998 0.043293 -0.019514 0.000000 0.000000 0.000000
# 3 0.002027 -0.019514 0.027023 0.000000 0.000000 0.000000
# 4 0.000000 0.000000 0.000000 0.240759 0.000000 0.000000
# 5 0.000000 0.000000 0.000000 0.000000 0.041982 0.000000
# 6 0.000000 0.000000 0.000000 0.000000 0.000000 0.010512
#
#
# Mechanical properties :
#
#
# Convention : Reuss Voigt Hill
#
# Bulk Modulus (GPa) = 37.40273 37.44633 37.42453
# Shear Modulus (GPa) = 10.80283 30.59855 20.70069
#
# Velocity S-wave (km/s) = 2.35021 3.95539 3.25335
# Velocity P-wave (km/s) = 5.14672 6.32507 5.76607
#
# Compressibility (1/GPa) = 0.02673602
#
# Stress axis : x y z
#
# Youngs Moduli (GPa) = 42.75346 23.09821 37.00563
#
# Poissons Ratio (x) = 0.36953 -0.07501
# Poissons Ratio (y) = 0.68398 0.72212
# Poissons Ratio (z) = -0.08666 0.45074
#
# Static dielectric constant tensor:
#      x y z
#    x 1.706290 0.000000 0.000000 
#    y 0.000000 1.725070 0.000000 
#    z 0.000000 0.000000 1.630680 
# 
# From -- ./inp_files/44241.got.cif
#   From: 2010.05.17/outbox.cif.g08.bks.cpg/sg74_23_cif.got.tgz:44241.got - 2010.06.03 17:57:02.
