data_PCOD9538086
_publ_section_title
;
Structure prediction by ZEFSAII (Michael W. Deem and Ramdas Pophale) SiO2 
 PCOD9538086
Probable space group: I M M A
;
_chemical_formula_sum "Si O2"
_cell_formula_units_Z 116
_cell_length_a 19.457225
_cell_length_b 27.524684
_cell_length_c 11.048529
_cell_angle_alpha 90.000000
_cell_angle_beta 90.000000
_cell_angle_gamma 90.000000
_cell_volume 5917.083565
_symmetry_space_group_name_H-M "I M M A"
_symmetry_group_IT_number 74
_symmetry_cell_setting 'orthorhombic'
loop_
_space_group_symop_operation_xyz
x,y,z
-x,1/2-y,z
x,-y,-z
-x,1/2+y,-z
-x,-y,-z
x,1/2+y,-z
-x,y,z
x,1/2-y,z
1/2+x,1/2+y,1/2+z
1/2-x,-y,1/2+z
1/2+x,1/2-y,1/2-z
1/2-x,y,1/2-z
1/2-x,1/2-y,1/2-z
1/2+x,y,1/2-z
1/2-x,1/2+y,1/2+z
1/2+x,-y,1/2+z
loop_
_atom_site_type_symbol
_atom_site_label
_atom_site_fract_x
_atom_site_fract_y
_atom_site_fract_z
Si Si1 0.579853 0.896542 0.038079
Si Si2 0.082773 0.567337 0.717607
Si Si3 0.300252 0.193279 0.561656
Si Si4 0.847575 0.694586 0.546197
Si Si5 0.328360 0.103936 0.724119
Si Si6 0.500000 0.750000 0.702157
Si Si7 0.373730 0.671919 0.692758
Si Si8 0.421047 0.974619 0.370590
O O1 0.500000 0.905635 0.064235
O O2 0.626667 0.901173 0.155036
O O3 0.602617 0.928877 0.923487
O O4 0.591977 0.841943 0.988816
O O5 0.109675 0.614787 0.788548
O O6 0.101637 0.516135 0.776038
O O7 0.000000 0.570420 0.722070
O O8 0.310000 0.250000 0.591440
O O9 0.219557 0.184658 0.534505
O O10 0.325697 0.157714 0.666741
O O11 0.338146 0.181742 0.435274
O O12 0.868547 0.750000 0.529304
O O13 0.830358 0.686155 0.687417
O O14 0.250000 0.089357 0.750000
O O15 0.367890 0.069184 0.631117
O O16 0.439937 0.707010 0.700414
O O17 0.500000 0.959165 0.342952
O O18 0.422434 0.000000 0.500000
#
# Coordination Sequence:
#
# PCOD9538086 Si02
#       8
#    16  16  16  16  16   4  16  16
#     4  10  22  40  63  92 120 164 212 260 320 369
#     4   9  19  37  64  93 127 163 206 258 311 379
#     4  11  23  40  60  85 123 174 212 251 320 393
#     4  10  20  35  61  89 125 164 208 256 310 383
#     4  12  25  45  62  89 126 164 214 272 314 372
#     4  12  20  32  58 104 138 168 198 266 316 368
#     4  11  20  35  59  96 133 162 205 257 317 373
#     4  10  22  44  70  97 124 165 207 251 324 390
#
# _framework density 19.604251999999999
#
# number of rings (size 3 to 8) (size 9 to 14) (size 15 to 20)
#    0.000    1.517    3.448    1.655    0.966    2.759 
#    4.966    3.448    0.000    0.000    0.000    0.000 
#    0.000    0.000    0.000    0.000    0.000    0.000 
#
# Total GULP energy -323344.065308 kJ/mol
# GULP energy per Si atom -5574.897678 kJ/mol
# Density = 1.955963 g / cm^3
# Si number density = 19.604252 Si / 1000 Ang^3
#
#
#
# Elastic Constant Matrix: (Units=GPa)
#
#
# Indices 1 2 3 4 5 6 
#
# 1 73.2214 31.9237 36.7363 0.0000 0.0000 0.0000
# 2 31.9237 67.0155 22.8065 0.0000 0.0000 0.0000
# 3 36.7363 22.8065 83.4406 0.0000 0.0000 0.0000
# 4 0.0000 0.0000 0.0000 26.6171 0.0000 0.0000
# 5 0.0000 0.0000 0.0000 0.0000 23.8605 0.0000
# 6 0.0000 0.0000 0.0000 0.0000 0.0000 22.6899
#
#
#
# Elastic Compliance Matrix: (Units=1/GPa)
#
#
# Indices 1 2 3 4 5 6 
#
# 1 0.020338 -0.007322 -0.006953 0.000000 0.000000 0.000000
# 2 -0.007322 0.019088 -0.001994 0.000000 0.000000 0.000000
# 3 -0.006953 -0.001994 0.015591 0.000000 0.000000 0.000000
# 4 0.000000 0.000000 0.000000 0.037570 0.000000 0.000000
# 5 0.000000 0.000000 0.000000 0.000000 0.041910 0.000000
# 6 0.000000 0.000000 0.000000 0.000000 0.000000 0.044073
#
#
# Mechanical properties :
#
#
# Convention : Reuss Voigt Hill
#
# Bulk Modulus (GPa) = 44.48449 45.17893 44.83171
# Shear Modulus (GPa) = 22.87284 23.44756 23.16020
#
# Velocity S-wave (km/s) = 3.41945 3.46214 3.44086
# Velocity P-wave (km/s) = 6.19118 6.25119 6.22126
#
# Compressibility (1/GPa) = 0.02247975
#
# Stress axis : x y z
#
# Youngs Moduli (GPa) = 49.16930 52.38791 64.14119
#
# Poissons Ratio (x) = 0.38359 0.44596
# Poissons Ratio (y) = 0.36002 0.12788
# Poissons Ratio (z) = 0.34187 0.10444
#
# Static dielectric constant tensor:
#      x y z
#    x 1.673970 0.000000 0.000000 
#    y 0.000000 1.688350 0.000000 
#    z 0.000000 0.000000 1.724270 
# 
# From -- ./inp_files/22858.got.cif
#   From: 2010.05.17/outbox.cif.g08.bks.cpg/sg74_12_cif.got.tgz:22858.got - 2010.06.03 17:57:02.
