data_PCOD9538231
_publ_section_title
;
Structure prediction by ZEFSAII (Michael W. Deem and Ramdas Pophale) SiO2 
 PCOD9538231
Probable space group: I M M A
;
_chemical_formula_sum "Si O2"
_cell_formula_units_Z 68
_cell_length_a 7.974390
_cell_length_b 21.293321
_cell_length_c 20.708009
_cell_angle_alpha 90.000000
_cell_angle_beta 90.000000
_cell_angle_gamma 90.000000
_cell_volume 3516.245731
_symmetry_space_group_name_H-M "I M M A"
_symmetry_group_IT_number 74
_symmetry_cell_setting 'orthorhombic'
loop_
_space_group_symop_operation_xyz
x,y,z
-x,1/2-y,z
x,-y,-z
-x,1/2+y,-z
-x,-y,-z
x,1/2+y,-z
-x,y,z
x,1/2-y,z
1/2+x,1/2+y,1/2+z
1/2-x,-y,1/2+z
1/2+x,1/2-y,1/2-z
1/2-x,y,1/2-z
1/2-x,1/2-y,1/2-z
1/2+x,y,1/2-z
1/2-x,1/2+y,1/2+z
1/2+x,-y,1/2+z
loop_
_atom_site_type_symbol
_atom_site_label
_atom_site_fract_x
_atom_site_fract_y
_atom_site_fract_z
Si Si1 0.804247 0.491094 0.678460
Si Si2 0.500000 0.750000 0.302404
Si Si3 0.306188 0.051727 0.451620
Si Si4 0.299391 0.842370 0.157735
Si Si5 0.801110 0.318314 0.506080
O O1 0.750000 0.510119 0.750000
O O2 0.712714 0.526503 0.620580
O O3 0.780948 0.416017 0.671904
O O4 0.000000 0.503873 0.669782
O O5 0.651444 0.695986 0.307772
O O6 0.500000 0.055711 0.469306
O O7 0.242712 0.121664 0.463696
O O8 0.225227 0.000000 0.500000
O O9 0.500000 0.824597 0.169319
O O10 0.264227 0.831302 0.081521
O O11 0.726997 0.250000 0.488454
O O12 0.000000 0.313263 0.502572
#
# Coordination Sequence:
#
# PCOD9538231 Si02
#       5
#    16   4  16  16  16
#     4  11  24  42  64  85 123 163 209 266 311 369
#     4  12  22  32  66  80 130 164 208 258 308 382
#     4  11  23  36  61  95 123 157 212 259 306 374
#     4  10  22  37  58  87 120 166 210 254 312 371
#     4  10  20  36  58  87 127 161 201 252 315 372
#
# _framework density 19.338808
#
# number of rings (size 3 to 8) (size 9 to 14) (size 15 to 20)
#    0.000    1.412    3.529    1.765    4.941    1.412 
#    0.000    0.588    0.000    0.706    0.000    0.000 
#    0.000    0.000    0.000    0.000    0.000    0.000 
#
# Total GULP energy -189382.285336 kJ/mol
# GULP energy per Si atom -5570.067216 kJ/mol
# Density = 1.929479 g / cm^3
# Si number density = 19.338808 Si / 1000 Ang^3
#
#
#
# Elastic Constant Matrix: (Units=GPa)
#
#
# Indices 1 2 3 4 5 6 
#
# 1 60.0838 23.2085 3.4498 0.0000 0.0000 0.0000
# 2 23.2085 116.9863 52.6594 0.0000 0.0000 0.0000
# 3 3.4498 52.6594 76.0033 0.0000 0.0000 0.0000
# 4 0.0000 0.0000 0.0000 8.5738 0.0000 0.0000
# 5 0.0000 0.0000 0.0000 0.0000 22.6570 0.0000
# 6 0.0000 0.0000 0.0000 0.0000 0.0000 48.0314
#
#
#
# Elastic Compliance Matrix: (Units=1/GPa)
#
#
# Indices 1 2 3 4 5 6 
#
# 1 0.018334 -0.004741 0.002453 0.000000 0.000000 0.000000
# 2 -0.004741 0.013648 -0.009241 0.000000 0.000000 0.000000
# 3 0.002453 -0.009241 0.019449 0.000000 0.000000 0.000000
# 4 0.000000 0.000000 0.000000 0.116634 0.000000 0.000000
# 5 0.000000 0.000000 0.000000 0.000000 0.044136 0.000000
# 6 0.000000 0.000000 0.000000 0.000000 0.000000 0.020820
#
#
# Mechanical properties :
#
#
# Convention : Reuss Voigt Hill
#
# Bulk Modulus (GPa) = 35.24606 45.74540 40.49573
# Shear Modulus (GPa) = 18.82967 27.43616 23.13292
#
# Velocity S-wave (km/s) = 3.12376 3.77066 3.46235
# Velocity P-wave (km/s) = 5.59246 6.53171 6.08025
#
# Compressibility (1/GPa) = 0.02837196
#
# Stress axis : x y z
#
# Youngs Moduli (GPa) = 54.54340 73.26875 51.41706
#
# Poissons Ratio (x) = 0.34739 -0.12612
# Poissons Ratio (y) = 0.25861 0.47515
# Poissons Ratio (z) = -0.13379 0.67709
#
# Static dielectric constant tensor:
#      x y z
#    x 1.698030 0.000000 0.000000 
#    y 0.000000 1.739940 0.000000 
#    z 0.000000 0.000000 1.126710 
# 
# From -- ./inp_files/44863.got.cif
#   From: 2010.05.17/outbox.cif.g08.bks.cpg/sg74_23_cif.got.tgz:44863.got - 2010.06.03 17:57:02.
