data_PCOD9538023
_publ_section_title
;
Structure prediction by ZEFSAII (Michael W. Deem and Ramdas Pophale) SiO2 
 PCOD9538023
Probable space group: I M M A
;
_chemical_formula_sum "Si O2"
_cell_formula_units_Z 80
_cell_length_a 18.924337
_cell_length_b 15.247146
_cell_length_c 13.892630
_cell_angle_alpha 90.000000
_cell_angle_beta 90.000000
_cell_angle_gamma 90.000000
_cell_volume 4008.609040
_symmetry_space_group_name_H-M "I M M A"
_symmetry_group_IT_number 74
_symmetry_cell_setting 'orthorhombic'
loop_
_space_group_symop_operation_xyz
x,y,z
-x,1/2-y,z
x,-y,-z
-x,1/2+y,-z
-x,-y,-z
x,1/2+y,-z
-x,y,z
x,1/2-y,z
1/2+x,1/2+y,1/2+z
1/2-x,-y,1/2+z
1/2+x,1/2-y,1/2-z
1/2-x,y,1/2-z
1/2-x,1/2-y,1/2-z
1/2+x,y,1/2-z
1/2-x,1/2+y,1/2+z
1/2+x,-y,1/2+z
loop_
_atom_site_type_symbol
_atom_site_label
_atom_site_fract_x
_atom_site_fract_y
_atom_site_fract_z
Si Si1 0.845420 0.643680 0.646466
Si Si2 0.419373 0.855348 0.658075
Si Si3 0.078981 0.142513 0.550545
Si Si4 0.209365 0.400332 0.032045
Si Si5 0.212882 0.351232 0.657431
O O1 0.842130 0.750000 0.650347
O O2 0.879731 0.612021 0.745470
O O3 0.895504 0.619245 0.556605
O O4 0.766964 0.614107 0.616575
O O5 0.500000 0.888198 0.649616
O O6 0.423467 0.750000 0.666887
O O7 0.367535 0.874818 0.569545
O O8 0.079610 0.250000 0.553752
O O9 0.138703 0.108622 0.623377
O O10 0.000000 0.112708 0.570609
O O11 0.209852 0.500000 0.000000
O O12 0.237870 0.350941 0.937150
O O13 0.197292 0.250000 0.683300
O O14 0.250000 0.392955 0.750000
#
# Coordination Sequence:
#
# PCOD9538023 Si02
#       5
#    16  16  16  16  16
#     4   9  17  32  56  82 105 131 171 225 276 319
#     4  10  20  35  58  86 111 136 172 222 277 327
#     4   8  13  24  46  75 100 121 154 207 267 314
#     4  11  22  34  52  75 107 145 177 210 257 320
#     4   9  18  33  51  69  94 132 179 223 255 294
#
# _framework density 19.957045999999998
#
# number of rings (size 3 to 8) (size 9 to 14) (size 15 to 20)
#    0.000    2.600    0.000    4.200    0.000    6.000 
#    0.000    1.000    0.000   23.400    0.000    0.000 
#    0.000    0.000    0.000    0.000    0.000    0.000 
#
# Total GULP energy -223146.721695 kJ/mol
# GULP energy per Si atom -5578.668042 kJ/mol
# Density = 1.991162 g / cm^3
# Si number density = 19.957046 Si / 1000 Ang^3
#
#
#
# Elastic Constant Matrix: (Units=GPa)
#
#
# Indices 1 2 3 4 5 6 
#
# 1 185.7348 7.4791 84.4251 0.0000 0.0000 0.0000
# 2 7.4791 22.2463 -0.5142 0.0000 0.0000 0.0000
# 3 84.4251 -0.5142 81.3577 0.0000 0.0000 0.0000
# 4 0.0000 0.0000 0.0000 -0.0554 0.0000 0.0000
# 5 0.0000 0.0000 0.0000 0.0000 16.4097 0.0000
# 6 0.0000 0.0000 0.0000 0.0000 0.0000 1.1581
#
#
#
# Elastic Compliance Matrix: (Units=1/GPa)
#
#
# Indices 1 2 3 4 5 6 
#
# 1 0.010500 -0.003782 -0.010920 0.000000 0.000000 0.000000
# 2 -0.003782 0.046320 0.004218 0.000000 0.000000 0.000000
# 3 -0.010920 0.004218 0.023649 0.000000 0.000000 0.000000
# 4 0.000000 0.000000 0.000000-18.055147 0.000000 0.000000
# 5 0.000000 0.000000 0.000000 0.000000 0.060939 0.000000
# 6 0.000000 0.000000 0.000000 0.000000 0.000000 0.863472
#
#
# Mechanical properties :
#
#
# Convention : Reuss Voigt Hill
#
# Bulk Modulus (GPa) = 16.80639 52.45762 34.63201
# Shear Modulus (GPa) = -0.29395 16.69909 8.20257
#
# Velocity S-wave (km/s) = -0.38420 2.89580 2.02954
# Velocity P-wave (km/s) = 2.87102 6.12562 4.78362
#
# Compressibility (1/GPa) = 0.05950117
#
# Stress axis : x y z
#
# Youngs Moduli (GPa) = 95.24031 21.58874 42.28460
#
# Poissons Ratio (x) = 0.08166 0.46173
# Poissons Ratio (y) = 0.36023 -0.17835
# Poissons Ratio (z) = 1.03998 -0.09106
#
# Static dielectric constant tensor:
#      x y z
#    x 1.708470 0.000000 0.000000 
#    y 0.000000 1.699510 0.000000 
#    z 0.000000 0.000000 1.707610 
# 
# From -- ./inp_files/33973.got.cif
#   From: 2010.05.17/outbox.cif.g08.bks.cpg/sg74_17_cif.got.tgz:33973.got - 2010.06.03 17:57:02.
