data_PCOD9538085
_publ_section_title
;
Structure prediction by ZEFSAII (Michael W. Deem and Ramdas Pophale) SiO2 
 PCOD9538085
Probable space group: I M M A
;
_chemical_formula_sum "Si O2"
_cell_formula_units_Z 64
_cell_length_a 7.706821
_cell_length_b 14.398068
_cell_length_c 30.939386
_cell_angle_alpha 90.000000
_cell_angle_beta 90.000000
_cell_angle_gamma 90.000000
_cell_volume 3433.137386
_symmetry_space_group_name_H-M "I M M A"
_symmetry_group_IT_number 74
_symmetry_cell_setting 'orthorhombic'
loop_
_space_group_symop_operation_xyz
x,y,z
-x,1/2-y,z
x,-y,-z
-x,1/2+y,-z
-x,-y,-z
x,1/2+y,-z
-x,y,z
x,1/2-y,z
1/2+x,1/2+y,1/2+z
1/2-x,-y,1/2+z
1/2+x,1/2-y,1/2-z
1/2-x,y,1/2-z
1/2-x,1/2-y,1/2-z
1/2+x,y,1/2-z
1/2-x,1/2+y,1/2+z
1/2+x,-y,1/2+z
loop_
_atom_site_type_symbol
_atom_site_label
_atom_site_fract_x
_atom_site_fract_y
_atom_site_fract_z
Si Si1 0.000000 0.108505 0.989454
Si Si2 0.207547 0.144836 0.199708
Si Si3 0.500000 0.358525 0.612904
Si Si4 0.699204 0.500528 0.127892
Si Si5 0.797490 0.647715 0.554176
O O1 0.171634 0.144954 0.013395
O O2 0.000000 0.131895 0.939242
O O3 0.000000 0.000000 0.000000
O O4 0.267901 0.250000 0.189045
O O5 0.250000 0.129116 0.250000
O O6 0.286898 0.066574 0.169277
O O7 0.000000 0.142167 0.193987
O O8 0.500000 0.250000 0.624390
O O9 0.668040 0.414583 0.629623
O O10 0.500000 0.530374 0.122178
O O11 0.748282 0.433815 0.087433
O O12 0.777505 0.750000 0.574996
O O13 0.000000 0.637052 0.542287
#
# Coordination Sequence:
#
# PCOD9538085 Si02
#       5
#     8  16   8  16  16
#     4  12  22  39  61  82 115 157 206 255 309 356
#     4  10  20  35  60  97 134 162 190 232 296 372
#     4  12  26  43  60  85 118 160 216 265 302 348
#     4  11  22  39  62  88 120 161 200 248 303 361
#     4  10  21  36  58  88 120 154 194 242 302 372
#
# _framework density 18.641840999999999
#
# number of rings (size 3 to 8) (size 9 to 14) (size 15 to 20)
#    0.000    1.250    3.750    2.625    0.000    4.500 
#    0.000    0.000    0.000    0.750    0.000    0.000 
#    0.000    0.000    0.000    0.000    0.000    0.000 
#
# Total GULP energy -178808.804571 kJ/mol
# GULP energy per Si atom -5587.775143 kJ/mol
# Density = 1.859941 g / cm^3
# Si number density = 18.641841 Si / 1000 Ang^3
#
#
#
# Elastic Constant Matrix: (Units=GPa)
#
#
# Indices 1 2 3 4 5 6 
#
# 1 85.8189 61.5075 20.5085 0.0000 0.0000 0.0000
# 2 61.5075 146.8776 33.1777 0.0000 0.0000 0.0000
# 3 20.5085 33.1777 72.8227 0.0000 0.0000 0.0000
# 4 0.0000 0.0000 0.0000 24.9592 0.0000 0.0000
# 5 0.0000 0.0000 0.0000 0.0000 23.8391 0.0000
# 6 0.0000 0.0000 0.0000 0.0000 0.0000 20.6881
#
#
#
# Elastic Compliance Matrix: (Units=1/GPa)
#
#
# Indices 1 2 3 4 5 6 
#
# 1 0.016837 -0.006666 -0.001705 0.000000 0.000000 0.000000
# 2 -0.006666 0.010228 -0.002783 0.000000 0.000000 0.000000
# 3 -0.001705 -0.002783 0.015480 0.000000 0.000000 0.000000
# 4 0.000000 0.000000 0.000000 0.040065 0.000000 0.000000
# 5 0.000000 0.000000 0.000000 0.000000 0.041948 0.000000
# 6 0.000000 0.000000 0.000000 0.000000 0.000000 0.048337
#
#
# Mechanical properties :
#
#
# Convention : Reuss Voigt Hill
#
# Bulk Modulus (GPa) = 49.41013 59.54518 54.47765
# Shear Modulus (GPa) = 24.75871 26.58564 25.67218
#
# Velocity S-wave (km/s) = 3.64830 3.78051 3.71499
# Velocity P-wave (km/s) = 6.65652 7.14614 6.90567
#
# Compressibility (1/GPa) = 0.02023877
#
# Stress axis : x y z
#
# Youngs Moduli (GPa) = 59.39188 97.76701 64.59981
#
# Poissons Ratio (x) = 0.65170 0.11013
# Poissons Ratio (y) = 0.39589 0.17977
# Poissons Ratio (z) = 0.10126 0.27206
#
# Static dielectric constant tensor:
#      x y z
#    x 1.650140 0.000000 0.000000 
#    y 0.000000 1.652860 0.000000 
#    z 0.000000 0.000000 1.625070 
# 
# From -- ./inp_files/56457.got.cif
#   From: 2010.05.17/outbox.cif.g08.bks.cpg/sg74_29_cif.got.tgz:56457.got - 2010.06.03 17:57:02.
