data_PCOD9538434
_publ_section_title
;
Structure prediction by ZEFSAII (Michael W. Deem and Ramdas Pophale) SiO2 
 PCOD9538434
Probable space group: I M M A
;
_chemical_formula_sum "Si O2"
_cell_formula_units_Z 72
_cell_length_a 8.310288
_cell_length_b 18.209378
_cell_length_c 24.427508
_cell_angle_alpha 90.000000
_cell_angle_beta 90.000000
_cell_angle_gamma 90.000000
_cell_volume 3696.496935
_symmetry_space_group_name_H-M "I M M A"
_symmetry_group_IT_number 74
_symmetry_cell_setting 'orthorhombic'
loop_
_space_group_symop_operation_xyz
x,y,z
-x,1/2-y,z
x,-y,-z
-x,1/2+y,-z
-x,-y,-z
x,1/2+y,-z
-x,y,z
x,1/2-y,z
1/2+x,1/2+y,1/2+z
1/2-x,-y,1/2+z
1/2+x,1/2-y,1/2-z
1/2-x,y,1/2-z
1/2-x,1/2-y,1/2-z
1/2+x,y,1/2-z
1/2-x,1/2+y,1/2+z
1/2+x,-y,1/2+z
loop_
_atom_site_type_symbol
_atom_site_label
_atom_site_fract_x
_atom_site_fract_y
_atom_site_fract_z
Si Si1 0.694797 0.393615 0.623958
Si Si2 0.808886 0.461485 0.312508
Si Si3 0.694827 0.834298 0.609154
Si Si4 0.805533 0.750000 0.188132
Si Si5 0.696105 0.914788 0.498375
O O1 0.500000 0.394581 0.623936
O O2 0.748919 0.469187 0.651867
O O3 0.751148 0.323693 0.658253
O O4 0.747222 0.386016 0.560944
O O5 0.750000 0.466989 0.250000
O O6 0.748800 0.387588 0.342169
O O7 0.000000 0.462006 0.312390
O O8 0.500000 0.834245 0.608354
O O9 0.748789 0.750000 0.614815
O O10 0.750705 0.869661 0.551378
O O11 0.750000 0.750000 0.250000
O O12 0.000000 0.750000 0.186150
O O13 0.500000 0.913354 0.499788
O O14 0.744983 0.000000 0.500000
#
# Coordination Sequence:
#
# PCOD9538434 Si02
#       5
#    16  16  16   8  16
#     4  10  20  37  60  90 122 155 197 243 293 349
#     4  12  25  41  62  85 114 155 202 249 302 358
#     4  10  21  38  62  92 123 157 197 243 294 350
#     4  10  22  36  56  84 120 158 195 242 289 340
#     4   9  16  31  59  90 119 149 188 237 286 340
#
# _framework density 19.477902
#
# number of rings (size 3 to 8) (size 9 to 14) (size 15 to 20)
#    0.000    1.778    2.222    2.667    1.556    3.556 
#    0.000    2.222    0.000    0.000    0.000    0.000 
#    0.000    0.000    0.000    0.000    0.000    0.000 
#
# Total GULP energy -201094.096564 kJ/mol
# GULP energy per Si atom -5585.947127 kJ/mol
# Density = 1.943357 g / cm^3
# Si number density = 19.477902 Si / 1000 Ang^3
#
#
#
# Elastic Constant Matrix: (Units=GPa)
#
#
# Indices 1 2 3 4 5 6 
#
# 1 22.5376 12.6146 9.4491 0.0000 0.0000 0.0000
# 2 12.6146 108.6732 20.5404 0.0000 0.0000 0.0000
# 3 9.4491 20.5404 102.7447 0.0000 0.0000 0.0000
# 4 0.0000 0.0000 0.0000 36.4017 0.0000 0.0000
# 5 0.0000 0.0000 0.0000 0.0000 25.1258 0.0000
# 6 0.0000 0.0000 0.0000 0.0000 0.0000 -1.4041
#
#
#
# Elastic Compliance Matrix: (Units=1/GPa)
#
#
# Indices 1 2 3 4 5 6 
#
# 1 0.048618 -0.004987 -0.003474 0.000000 0.000000 0.000000
# 2 -0.004987 0.010075 -0.001555 0.000000 0.000000 0.000000
# 3 -0.003474 -0.001555 0.010363 0.000000 0.000000 0.000000
# 4 0.000000 0.000000 0.000000 0.027471 0.000000 0.000000
# 5 0.000000 0.000000 0.000000 0.000000 0.039800 0.000000
# 6 0.000000 0.000000 0.000000 0.000000 0.000000 -0.712176
#
#
# Mechanical properties :
#
#
# Convention : Reuss Voigt Hill
#
# Bulk Modulus (GPa) = 20.39860 35.46263 27.93062
# Shear Modulus (GPa) = -9.26828 24.78143 7.75657
#
# Velocity S-wave (km/s) = -2.18373 3.57078 1.99772
# Velocity P-wave (km/s) = 2.03401 5.93690 4.43756
#
# Compressibility (1/GPa) = 0.04902296
#
# Stress axis : x y z
#
# Youngs Moduli (GPa) = 20.56849 99.25788 96.49388
#
# Poissons Ratio (x) = 0.49498 0.33525
# Poissons Ratio (y) = 0.10257 0.15010
# Poissons Ratio (z) = 0.07146 0.15439
#
# Static dielectric constant tensor:
#      x y z
#    x 1.684470 0.000000 0.000000 
#    y 0.000000 1.666560 0.000000 
#    z 0.000000 0.000000 1.671070 
# 
# From -- ./inp_files/56634.got.cif
#   From: 2010.05.17/outbox.cif.g08.bks.cpg/sg74_29_cif.got.tgz:56634.got - 2010.06.03 17:57:02.
