data_PCOD9538800
_publ_section_title
;
Structure prediction by ZEFSAII (Michael W. Deem and Ramdas Pophale) SiO2 
 PCOD9538800
Probable space group: I M M A
;
_chemical_formula_sum "Si O2"
_cell_formula_units_Z 72
_cell_length_a 13.905266
_cell_length_b 7.358238
_cell_length_c 29.722578
_cell_angle_alpha 90.000000
_cell_angle_beta 90.000000
_cell_angle_gamma 90.000000
_cell_volume 3041.162365
_symmetry_space_group_name_H-M "I M M A"
_symmetry_group_IT_number 74
_symmetry_cell_setting 'orthorhombic'
loop_
_space_group_symop_operation_xyz
x,y,z
-x,1/2-y,z
x,-y,-z
-x,1/2+y,-z
-x,-y,-z
x,1/2+y,-z
-x,y,z
x,1/2-y,z
1/2+x,1/2+y,1/2+z
1/2-x,-y,1/2+z
1/2+x,1/2-y,1/2-z
1/2-x,y,1/2-z
1/2-x,1/2-y,1/2-z
1/2+x,y,1/2-z
1/2-x,1/2+y,1/2+z
1/2+x,-y,1/2+z
loop_
_atom_site_type_symbol
_atom_site_label
_atom_site_fract_x
_atom_site_fract_y
_atom_site_fract_z
Si Si1 0.182005 0.469386 0.310697
Si Si2 0.608332 0.529254 0.711475
Si Si3 0.500000 0.967013 0.445941
Si Si4 0.396768 0.039684 0.905449
Si Si5 0.704027 0.032761 0.553279
O O1 0.182281 0.250000 0.311313
O O2 0.294251 0.528991 0.314502
O O3 0.134838 0.521463 0.263076
O O4 0.119853 0.535324 0.352175
O O5 0.500000 0.467358 0.699181
O O6 0.606489 0.750000 0.709524
O O7 0.500000 0.750000 0.439588
O O8 0.601767 0.038787 0.428533
O O9 0.500000 0.000000 0.500000
O O10 0.500000 0.958307 0.917086
O O11 0.399293 0.250000 0.920158
O O12 0.300870 0.955816 0.926027
O O13 0.703096 0.250000 0.560922
O O14 0.706001 0.000000 0.500000
#
# Coordination Sequence:
#
# PCOD9538800 Si02
#       5
#    16  16   8  16  16
#     4   9  17  30  50  73  94 124 166 202 234 281
#     4   8  14  27  48  72  98 125 156 200 247 282
#     4   8  14  28  50  70  88 114 150 190 230 278
#     4  10  21  35  48  67 100 134 159 193 243 290
#     4   9  18  33  52  72  94 123 158 195 238 284
#
# _framework density 23.675158
#
# number of rings (size 3 to 8) (size 9 to 14) (size 15 to 20)
#    0.000    3.111    0.000    2.000    0.000    2.667 
#    2.000    2.222    0.000    1.333    0.000    0.000 
#    0.000    0.000    0.000    0.000    0.000    0.000 
#
# Total GULP energy -200865.558927 kJ/mol
# GULP energy per Si atom -5579.598859 kJ/mol
# Density = 2.362127 g / cm^3
# Si number density = 23.675158 Si / 1000 Ang^3
#
#
#
# Elastic Constant Matrix: (Units=GPa)
#
#
# Indices 1 2 3 4 5 6 
#
# 1 269.5634 18.5852 28.8103 0.0000 0.0000 0.0000
# 2 18.5852 95.2423 -8.8913 0.0000 0.0000 0.0000
# 3 28.8103 -8.8913 9.2231 0.0000 0.0000 0.0000
# 4 0.0000 0.0000 0.0000 13.0931 0.0000 0.0000
# 5 0.0000 0.0000 0.0000 0.0000 22.8623 0.0000
# 6 0.0000 0.0000 0.0000 0.0000 0.0000 62.0663
#
#
#
# Elastic Compliance Matrix: (Units=1/GPa)
#
#
# Indices 1 2 3 4 5 6 
#
# 1 0.006461 -0.003456 -0.023514 0.000000 0.000000 0.000000
# 2 -0.003456 0.013386 0.023700 0.000000 0.000000 0.000000
# 3 -0.023514 0.023700 0.204724 0.000000 0.000000 0.000000
# 4 0.000000 0.000000 0.000000 0.076376 0.000000 0.000000
# 5 0.000000 0.000000 0.000000 0.000000 0.043740 0.000000
# 6 0.000000 0.000000 0.000000 0.000000 0.000000 0.016112
#
#
# Mechanical properties :
#
#
# Convention : Reuss Voigt Hill
#
# Bulk Modulus (GPa) = 4.58650 50.11527 27.35088
# Shear Modulus (GPa) = 11.36320 41.97263 26.66792
#
# Velocity S-wave (km/s) = 2.19318 4.21510 3.35984
# Velocity P-wave (km/s) = 2.89048 6.70099 5.16033
#
# Compressibility (1/GPa) = 0.21803118
#
# Stress axis : x y z
#
# Youngs Moduli (GPa) = 154.77120 74.70244 4.88463
#
# Poissons Ratio (x) = 0.25817 0.11486
# Poissons Ratio (y) = 0.53489 -0.11577
# Poissons Ratio (z) = 3.63936 -1.77047
#
# Static dielectric constant tensor:
#      x y z
#    x 1.967070 0.000000 0.000000 
#    y 0.000000 1.884550 0.000000 
#    z 0.000000 0.000000 1.848910 
# 
# From -- ./inp_files/66726.got.cif
#   From: 2010.05.17/outbox.cif.g08.bks.cpg/sg74_34_cif.got.tgz:66726.got - 2010.06.03 17:57:02.
