data_PCOD9538853
_publ_section_title
;
Structure prediction by ZEFSAII (Michael W. Deem and Ramdas Pophale) SiO2 
 PCOD9538853
Probable space group: I M M A
;
_chemical_formula_sum "Si O2"
_cell_formula_units_Z 104
_cell_length_a 14.403573
_cell_length_b 30.456408
_cell_length_c 11.922025
_cell_angle_alpha 90.000000
_cell_angle_beta 90.000000
_cell_angle_gamma 90.000000
_cell_volume 5229.966993
_symmetry_space_group_name_H-M "I M M A"
_symmetry_group_IT_number 74
_symmetry_cell_setting 'orthorhombic'
loop_
_space_group_symop_operation_xyz
x,y,z
-x,1/2-y,z
x,-y,-z
-x,1/2+y,-z
-x,-y,-z
x,1/2+y,-z
-x,y,z
x,1/2-y,z
1/2+x,1/2+y,1/2+z
1/2-x,-y,1/2+z
1/2+x,1/2-y,1/2-z
1/2-x,y,1/2-z
1/2-x,1/2-y,1/2-z
1/2+x,y,1/2-z
1/2-x,1/2+y,1/2+z
1/2+x,-y,1/2+z
loop_
_atom_site_type_symbol
_atom_site_label
_atom_site_fract_x
_atom_site_fract_y
_atom_site_fract_z
Si Si1 0.387279 0.462948 0.257411
Si Si2 0.891817 0.798506 0.667442
Si Si3 0.250000 0.364905 0.750000
Si Si4 0.610306 0.370265 0.359718
Si Si5 0.609025 0.942307 0.241589
Si Si6 0.890721 0.427375 0.481825
Si Si7 0.728851 0.160024 0.991626
O O1 0.500000 0.464276 0.261208
O O2 0.359541 0.419847 0.327075
O O3 0.356906 0.511607 0.294045
O O4 0.361713 0.454549 0.127430
O O5 0.881070 0.750000 0.719571
O O6 0.872996 0.837700 0.754556
O O7 0.822495 0.803193 0.563610
O O8 0.000000 0.802712 0.632423
O O9 0.333611 0.399348 0.725675
O O10 0.230675 0.335958 0.641421
O O11 0.500000 0.370708 0.381310
O O12 0.670059 0.350793 0.460131
O O13 0.500000 0.936337 0.266659
O O14 0.617709 0.947488 0.106077
O O15 0.832885 0.383105 0.484665
O O16 0.000000 0.417447 0.466022
#
# Coordination Sequence:
#
# PCOD9538853 Si02
#       7
#    16  16   8  16  16  16  16
#     4   9  16  29  49  75 108 143 185 235 284 335
#     4  10  21  39  65  94 116 134 169 226 290 356
#     4  10  24  38  51  78 110 152 207 238 260 318
#     4  10  21  35  54  84 117 146 180 224 283 347
#     4   9  18  32  49  70 104 150 195 240 280 315
#     4   9  16  28  49  76 105 139 186 236 281 331
#     4  11  21  36  56  79 112 152 187 226 280 325
#
# _framework density 19.885403
#
# number of rings (size 3 to 8) (size 9 to 14) (size 15 to 20)
#    0.000    2.308    1.538    1.385    0.000    5.538 
#    0.000    2.692    0.000    2.769    0.000    2.154 
#    0.000    0.000    0.000    0.000    0.000    0.000 
#
# Total GULP energy -290171.227858 kJ/mol
# GULP energy per Si atom -5580.215920 kJ/mol
# Density = 1.984014 g / cm^3
# Si number density = 19.885403 Si / 1000 Ang^3
#
#
#
# Elastic Constant Matrix: (Units=GPa)
#
#
# Indices 1 2 3 4 5 6 
#
# 1 63.3179 19.2893 12.8214 0.0000 0.0000 0.0000
# 2 19.2893 51.8879 7.4277 0.0001 0.0000 0.0000
# 3 12.8214 7.4277 39.8219 0.0004 0.0000 0.0000
# 4 0.0000 0.0001 0.0004 3.9521 0.0000 0.0000
# 5 0.0000 0.0000 0.0000 0.0000 18.0947 0.0000
# 6 0.0000 0.0000 0.0000 0.0000 0.0000 -1.4336
#
#
#
# Elastic Compliance Matrix: (Units=1/GPa)
#
#
# Indices 1 2 3 4 5 6 
#
# 1 0.018679 -0.006250 -0.004848 0.000001 0.000000 0.000000
# 2 -0.006250 0.021892 -0.002071 0.000000 0.000000 0.000000
# 3 -0.004848 -0.002071 0.027059 -0.000003 0.000000 0.000000
# 4 0.000001 0.000000 -0.000003 0.253029 0.000000 -0.000007
# 5 0.000000 0.000000 0.000000 0.000000 0.055265 -0.000001
# 6 0.000000 0.000000 0.000000 -0.000007 -0.000001 -0.697559
#
#
# Mechanical properties :
#
#
# Convention : Reuss Voigt Hill
#
# Bulk Modulus (GPa) = 24.21797 26.01162 25.11480
# Shear Modulus (GPa) = -17.75995 11.82193 -2.96901
#
# Velocity S-wave (km/s) = -2.99174 2.44089 -1.22323
# Velocity P-wave (km/s) = 0.52073 4.58836 3.26529
#
# Compressibility (1/GPa) = 0.04129165
#
# Stress axis : x y z
#
# Youngs Moduli (GPa) = 53.53598 45.67842 36.95612
#
# Poissons Ratio (x) = 0.28548 0.17917
# Poissons Ratio (y) = 0.33459 0.07654
# Poissons Ratio (z) = 0.25956 0.09461
#
# Static dielectric constant tensor:
#      x y z
#    x 1.727440 0.000000 0.000000 
#    y 0.000000 1.705710 0.000000 
#    z 0.000000 0.000000 1.693310 
# 
# From -- ./inp_files/21158.got.cif
#   From: 2010.05.17/outbox.cif.g08.bks.cpg/sg74_11_cif.got.tgz:21158.got - 2010.06.03 17:57:02.
