data_PCOD9538159
_publ_section_title
;
Structure prediction by ZEFSAII (Michael W. Deem and Ramdas Pophale) SiO2 
 PCOD9538159
Probable space group: I M M A
;
_chemical_formula_sum "Si O2"
_cell_formula_units_Z 112
_cell_length_a 15.592175
_cell_length_b 28.456477
_cell_length_c 14.109869
_cell_angle_alpha 90.000000
_cell_angle_beta 90.000000
_cell_angle_gamma 90.000000
_cell_volume 6260.525866
_symmetry_space_group_name_H-M "I M M A"
_symmetry_group_IT_number 74
_symmetry_cell_setting 'orthorhombic'
loop_
_space_group_symop_operation_xyz
x,y,z
-x,1/2-y,z
x,-y,-z
-x,1/2+y,-z
-x,-y,-z
x,1/2+y,-z
-x,y,z
x,1/2-y,z
1/2+x,1/2+y,1/2+z
1/2-x,-y,1/2+z
1/2+x,1/2-y,1/2-z
1/2-x,y,1/2-z
1/2-x,1/2-y,1/2-z
1/2+x,y,1/2-z
1/2-x,1/2+y,1/2+z
1/2+x,-y,1/2+z
loop_
_atom_site_type_symbol
_atom_site_label
_atom_site_fract_x
_atom_site_fract_y
_atom_site_fract_z
Si Si1 0.848806 0.599195 0.122916
Si Si2 0.226201 0.449301 0.347058
Si Si3 0.163203 0.596769 0.463458
Si Si4 0.896556 0.301640 0.798704
Si Si5 0.103263 0.698130 0.425284
Si Si6 0.902608 0.964804 0.302812
Si Si7 0.909323 0.451556 0.055594
O O1 0.751090 0.589743 0.095150
O O2 0.858340 0.653339 0.150922
O O3 0.879278 0.566812 0.210599
O O4 0.899122 0.587259 0.026585
O O5 0.250000 0.422463 0.250000
O O6 0.175891 0.424265 0.432239
O O7 0.168635 0.494656 0.319098
O O8 0.321607 0.457726 0.387633
O O9 0.142075 0.651690 0.470635
O O10 0.098437 0.568447 0.396091
O O11 0.868160 0.250000 0.832900
O O12 0.876730 0.304582 0.686936
O O13 0.000000 0.303928 0.807211
O O14 0.131119 0.750000 0.459327
O O15 0.000000 0.696134 0.433876
O O16 0.000000 0.982975 0.290421
O O17 0.000000 0.443832 0.107954
O O18 0.915647 0.500000 0.000000
#
# Coordination Sequence:
#
# PCOD9538159 Si02
#       7
#    16  16  16  16  16  16  16
#     4  11  21  34  54  82 114 146 178 218 266 330
#     4  11  24  40  53  74 107 139 186 240 276 315
#     4  11  22  35  54  78 108 142 184 228 271 322
#     4   9  17  30  50  78 112 145 173 204 251 322
#     4   9  18  33  53  79 112 146 180 219 267 332
#     4  12  23  35  54  80 112 148 181 217 271 332
#     4  10  20  36  57  77 101 139 183 225 270 324
#
# _framework density 17.889870999999999
#
# number of rings (size 3 to 8) (size 9 to 14) (size 15 to 20)
#    0.000    1.571    1.429    6.857    0.000    4.000 
#    0.000    1.429    0.000    0.429    0.000    0.000 
#    0.000    9.143    0.000    0.000    0.000    0.000 
#
# Total GULP energy -312384.613512 kJ/mol
# GULP energy per Si atom -5578.296670 kJ/mol
# Density = 1.784915 g / cm^3
# Si number density = 17.889871 Si / 1000 Ang^3
#
#
#
# Elastic Constant Matrix: (Units=GPa)
#
#
# Indices 1 2 3 4 5 6 
#
# 1 93.0947 34.5773 33.0146 0.0000 0.0000 0.0000
# 2 34.5773 101.2160 49.0275 0.0001 0.0000 0.0000
# 3 33.0146 49.0275 91.0739 0.0004 0.0002 0.0000
# 4 0.0000 0.0001 0.0004 16.7825 0.0001 0.0000
# 5 0.0000 0.0000 0.0002 0.0001 -35.7958 0.0001
# 6 0.0000 0.0000 0.0000 0.0000 0.0001 21.7017
#
#
#
# Elastic Compliance Matrix: (Units=1/GPa)
#
#
# Indices 1 2 3 4 5 6 
#
# 1 0.012928 -0.002903 -0.003123 0.000000 0.000000 0.000000
# 2 -0.002903 0.014017 -0.006493 0.000000 0.000000 0.000000
# 3 -0.003123 -0.006493 0.015608 0.000000 0.000000 0.000000
# 4 0.000000 0.000000 0.000000 0.059586 0.000000 0.000000
# 5 0.000000 0.000000 0.000000 0.000000 -0.027936 0.000000
# 6 0.000000 0.000000 0.000000 0.000000 0.000000 0.046079
#
#
# Mechanical properties :
#
#
# Convention : Reuss Voigt Hill
#
# Bulk Modulus (GPa) = 57.10204 57.62482 57.36343
# Shear Modulus (GPa) = 33.07775 11.78870 22.43322
#
# Velocity S-wave (km/s) = 4.30462 2.56981 3.54497
# Velocity P-wave (km/s) = 7.52956 6.40984 6.99215
#
# Compressibility (1/GPa) = 0.01751251
#
# Stress axis : x y z
#
# Youngs Moduli (GPa) = 77.35261 71.34229 64.07076
#
# Poissons Ratio (x) = 0.20714 0.20012
# Poissons Ratio (y) = 0.22459 0.41602
# Poissons Ratio (z) = 0.24160 0.46324
#
# Static dielectric constant tensor:
#      x y z
#    x 1.696500 0.000000 0.000000 
#    y 0.000000 1.624090 0.000000 
#    z 0.000000 0.000000 1.538980 
# 
# From -- ./inp_files/21098.got.cif
#   From: 2010.05.17/outbox.cif.g08.bks.cpg/sg74_11_cif.got.tgz:21098.got - 2010.06.03 17:57:02.
