data_PCOD9538346
_publ_section_title
;
Structure prediction by ZEFSAII (Michael W. Deem and Ramdas Pophale) SiO2 
 PCOD9538346
Probable space group: I M M A
;
_chemical_formula_sum "Si O2"
_cell_formula_units_Z 92
_cell_length_a 15.322162
_cell_length_b 15.228827
_cell_length_c 20.664741
_cell_angle_alpha 90.000000
_cell_angle_beta 90.000000
_cell_angle_gamma 90.000000
_cell_volume 4821.880791
_symmetry_space_group_name_H-M "I M M A"
_symmetry_group_IT_number 74
_symmetry_cell_setting 'orthorhombic'
loop_
_space_group_symop_operation_xyz
x,y,z
-x,1/2-y,z
x,-y,-z
-x,1/2+y,-z
-x,-y,-z
x,1/2+y,-z
-x,y,z
x,1/2-y,z
1/2+x,1/2+y,1/2+z
1/2-x,-y,1/2+z
1/2+x,1/2-y,1/2-z
1/2-x,y,1/2-z
1/2-x,1/2-y,1/2-z
1/2+x,y,1/2-z
1/2-x,1/2+y,1/2+z
1/2+x,-y,1/2+z
loop_
_atom_site_type_symbol
_atom_site_label
_atom_site_fract_x
_atom_site_fract_y
_atom_site_fract_z
Si Si1 0.151844 0.250000 0.897306
Si Si2 0.257977 0.107461 0.426744
Si Si3 0.166035 0.120442 0.292811
Si Si4 0.272768 0.089947 0.928133
Si Si5 0.099863 0.750000 0.954903
Si Si6 0.500000 0.750000 0.775475
Si Si7 0.899057 0.568254 0.315526
Si Si8 0.355723 0.250000 0.745668
O O1 0.213173 0.164863 0.898311
O O2 0.108189 0.250000 0.827602
O O3 0.102479 0.250000 0.966251
O O4 0.196353 0.134066 0.367475
O O5 0.212994 0.115104 0.497139
O O6 0.344698 0.166330 0.430434
O O7 0.276009 0.003529 0.421916
O O8 0.250000 0.145281 0.250000
O O9 0.078681 0.174042 0.277320
O O10 0.149042 0.015881 0.284720
O O11 0.359898 0.080089 0.887200
O O12 0.000000 0.750000 0.932596
O O13 0.885224 0.660178 0.279431
O O14 0.000000 0.546822 0.318287
O O15 0.250000 0.250000 0.750000
#
# Coordination Sequence:
#
# PCOD9538346 Si02
#       8
#     8  16  16  16   8   4  16   8
#     4  10  20  36  62  88 120 169 204 239 305 373
#     4   9  20  39  63  89 120 164 205 252 323 366
#     4  11  24  44  67  90 128 165 205 272 324 377
#     4   9  18  37  62  87 123 161 202 245 305 382
#     4  10  21  40  62  89 123 158 215 268 303 372
#     4  12  24  46  64  92 116 160 224 266 318 380
#     4  11  22  38  60  98 131 159 211 253 306 383
#     4  12  21  35  64  93 129 174 204 245 314 377
#
# _framework density 19.079692000000001
#
# number of rings (size 3 to 8) (size 9 to 14) (size 15 to 20)
#    0.000    1.739    2.609    1.565    2.435    0.696 
#    4.696    8.696    0.000    0.000    0.000    0.000 
#    0.000    0.000    0.000    0.000    0.000    0.000 
#
# Total GULP energy -256098.425229 kJ/mol
# GULP energy per Si atom -5567.357070 kJ/mol
# Density = 1.903627 g / cm^3
# Si number density = 19.079692 Si / 1000 Ang^3
#
#
#
# Elastic Constant Matrix: (Units=GPa)
#
#
# Indices 1 2 3 4 5 6 
#
# 1 141.3223 50.6797 39.8562 0.0000 0.0000 0.0000
# 2 50.6797 122.2665 50.4500 0.0000 0.0000 0.0000
# 3 39.8562 50.4500 71.9168 0.0000 0.0000 0.0000
# 4 0.0000 0.0000 0.0000 16.9993 0.0000 0.0000
# 5 0.0000 0.0000 0.0000 0.0000 14.5180 0.0000
# 6 0.0000 0.0000 0.0000 0.0000 0.0000 29.8557
#
#
#
# Elastic Compliance Matrix: (Units=1/GPa)
#
#
# Indices 1 2 3 4 5 6 
#
# 1 0.008827 -0.002308 -0.003272 0.000000 0.000000 0.000000
# 2 -0.002308 0.012114 -0.007219 0.000000 0.000000 0.000000
# 3 -0.003272 -0.007219 0.020783 0.000000 0.000000 0.000000
# 4 0.000000 0.000000 0.000000 0.058826 0.000000 0.000000
# 5 0.000000 0.000000 0.000000 0.000000 0.068880 0.000000
# 6 0.000000 0.000000 0.000000 0.000000 0.000000 0.033494
#
#
# Mechanical properties :
#
#
# Convention : Reuss Voigt Hill
#
# Bulk Modulus (GPa) = 62.01861 68.60861 65.31361
# Shear Modulus (GPa) = 21.37677 25.24257 23.30967
#
# Velocity S-wave (km/s) = 3.35086 3.64126 3.49908
# Velocity P-wave (km/s) = 6.89541 7.32908 7.11555
#
# Compressibility (1/GPa) = 0.01612419
#
# Stress axis : x y z
#
# Youngs Moduli (GPa) = 113.29208 82.54606 48.11701
#
# Poissons Ratio (x) = 0.19055 0.15746
# Poissons Ratio (y) = 0.26153 0.34736
# Poissons Ratio (z) = 0.37073 0.59590
#
# Static dielectric constant tensor:
#      x y z
#    x 1.624000 0.000000 0.000000 
#    y 0.000000 1.672670 0.000000 
#    z 0.000000 0.000000 1.704970 
# 
# From -- ./inp_files/51986.got.cif
#   From: 2010.05.17/outbox.cif.g08.bks.cpg/sg74_26_cif.got.tgz:51986.got - 2010.06.03 17:57:02.
