data_PCOD9538235
_publ_section_title
;
Structure prediction by ZEFSAII (Michael W. Deem and Ramdas Pophale) SiO2 
 PCOD9538235
Probable space group: I M M A
;
_chemical_formula_sum "Si O2"
_cell_formula_units_Z 52
_cell_length_a 17.837965
_cell_length_b 25.358103
_cell_length_c 5.143893
_cell_angle_alpha 90.000000
_cell_angle_beta 90.000000
_cell_angle_gamma 90.000000
_cell_volume 2326.772890
_symmetry_space_group_name_H-M "I M M A"
_symmetry_group_IT_number 74
_symmetry_cell_setting 'orthorhombic'
loop_
_space_group_symop_operation_xyz
x,y,z
-x,1/2-y,z
x,-y,-z
-x,1/2+y,-z
-x,-y,-z
x,1/2+y,-z
-x,y,z
x,1/2-y,z
1/2+x,1/2+y,1/2+z
1/2-x,-y,1/2+z
1/2+x,1/2-y,1/2-z
1/2-x,y,1/2-z
1/2-x,1/2-y,1/2-z
1/2+x,y,1/2-z
1/2-x,1/2+y,1/2+z
1/2+x,-y,1/2+z
loop_
_atom_site_type_symbol
_atom_site_label
_atom_site_fract_x
_atom_site_fract_y
_atom_site_fract_z
Si Si1 0.698328 0.689875 0.008152
Si Si2 0.000000 0.250000 0.023466
Si Si3 0.582081 0.355708 0.331258
Si Si4 0.803538 0.059512 0.998190
O O1 0.673574 0.750000 0.050219
O O2 0.750000 0.688515 0.750000
O O3 0.626224 0.656042 0.935627
O O4 0.750000 0.675329 0.250000
O O5 0.935479 0.297864 0.043563
O O6 0.500000 0.378541 0.280475
O O7 0.632771 0.396291 0.488587
O O8 0.750000 0.063020 0.750000
O O9 0.750000 0.065694 0.250000
O O10 0.835365 0.000000 0.000000
#
# Coordination Sequence:
#
# PCOD9538235 Si02
#       4
#    16   4  16  16
#     4  10  20  36  58  88 127 177 227 270 321 396
#     4   8  20  40  64 102 152 182 222 284 344 430
#     4  10  20  40  69  97 148 181 231 277 357 411
#     4  10  23  45  72 101 133 177 238 301 351 405
#
# _framework density 22.348548000000001
#
# number of rings (size 3 to 8) (size 9 to 14) (size 15 to 20)
#    0.923    1.231    1.538    0.923    0.000    5.538 
#    0.000    6.923    0.000   18.462    0.000    0.000 
#    0.000    0.000    0.000    0.000    0.000    0.000 
#
# Total GULP energy -144784.757479 kJ/mol
# GULP energy per Si atom -5568.644518 kJ/mol
# Density = 2.229768 g / cm^3
# Si number density = 22.348548 Si / 1000 Ang^3
#
#
#
# Elastic Constant Matrix: (Units=GPa)
#
#
# Indices 1 2 3 4 5 6 
#
# 1 171.9264 88.5715 69.9572 0.0000 0.0000 0.0000
# 2 88.5715 202.7349 39.5626 0.0000 0.0000 0.0000
# 3 69.9572 39.5626 147.8580 0.0000 0.0000 0.0000
# 4 0.0000 0.0000 0.0000 30.1789 0.0000 0.0000
# 5 0.0000 0.0000 0.0000 0.0000 17.5722 0.0000
# 6 0.0000 0.0000 0.0000 0.0000 0.0000 55.9379
#
#
#
# Elastic Compliance Matrix: (Units=1/GPa)
#
#
# Indices 1 2 3 4 5 6 
#
# 1 0.008816 -0.003205 -0.003314 0.000000 0.000000 0.000000
# 2 -0.003205 0.006369 -0.000188 0.000000 0.000000 0.000000
# 3 -0.003314 -0.000188 0.008381 0.000000 0.000000 0.000000
# 4 0.000000 0.000000 0.000000 0.033136 0.000000 0.000000
# 5 0.000000 0.000000 0.000000 0.000000 0.056908 0.000000
# 6 0.000000 0.000000 0.000000 0.000000 0.000000 0.017877
#
#
# Mechanical properties :
#
#
# Convention : Reuss Voigt Hill
#
# Bulk Modulus (GPa) = 98.48538 102.07798 100.28168
# Shear Modulus (GPa) = 33.71901 42.36633 38.04267
#
# Velocity S-wave (km/s) = 3.88851 4.35870 4.13030
# Velocity P-wave (km/s) = 8.02024 8.43241 8.22891
#
# Compressibility (1/GPa) = 0.01015379
#
# Stress axis : x y z
#
# Youngs Moduli (GPa) = 113.43293 157.00150 119.31325
#
# Poissons Ratio (x) = 0.50317 0.39535
# Poissons Ratio (y) = 0.36354 0.02242
# Poissons Ratio (z) = 0.37587 0.02950
#
# Static dielectric constant tensor:
#      x y z
#    x 1.830880 0.000000 0.000000 
#    y 0.000000 1.884730 0.000000 
#    z 0.000000 0.000000 1.855550 
# 
# From -- ./inp_files/2111.got.cif
#   From: 2010.05.17/outbox.cif.g08.bks.cpg/sg74_2_cif.got.tgz:2111.got - 2010.06.03 17:57:02.
