data_PCOD9538342
_publ_section_title
;
Structure prediction by ZEFSAII (Michael W. Deem and Ramdas Pophale) SiO2 
 PCOD9538342
Probable space group: I M M A
;
_chemical_formula_sum "Si O2"
_cell_formula_units_Z 96
_cell_length_a 13.357446
_cell_length_b 14.232940
_cell_length_c 23.518140
_cell_angle_alpha 90.000000
_cell_angle_beta 90.000000
_cell_angle_gamma 90.000000
_cell_volume 4471.168295
_symmetry_space_group_name_H-M "I M M A"
_symmetry_group_IT_number 74
_symmetry_cell_setting 'orthorhombic'
loop_
_space_group_symop_operation_xyz
x,y,z
-x,1/2-y,z
x,-y,-z
-x,1/2+y,-z
-x,-y,-z
x,1/2+y,-z
-x,y,z
x,1/2-y,z
1/2+x,1/2+y,1/2+z
1/2-x,-y,1/2+z
1/2+x,1/2-y,1/2-z
1/2-x,y,1/2-z
1/2-x,1/2-y,1/2-z
1/2+x,y,1/2-z
1/2-x,1/2+y,1/2+z
1/2+x,-y,1/2+z
loop_
_atom_site_type_symbol
_atom_site_label
_atom_site_fract_x
_atom_site_fract_y
_atom_site_fract_z
Si Si1 0.621412 0.353212 0.787045
Si Si2 0.618382 0.519880 0.108238
Si Si3 0.762793 0.856861 0.934694
Si Si4 0.379055 0.442732 0.672527
Si Si5 0.225458 0.860828 0.062019
Si Si6 0.381416 0.350771 0.322989
O O1 0.500000 0.351690 0.787035
O O2 0.654242 0.250000 0.807535
O O3 0.645175 0.439016 0.829251
O O4 0.651138 0.370692 0.721922
O O5 0.500000 0.506150 0.104287
O O6 0.679540 0.427877 0.089538
O O7 0.660308 0.603470 0.068504
O O8 0.722697 0.750000 0.938938
O O9 0.852274 0.854296 0.889392
O O10 0.801513 0.883697 0.997075
O O11 0.500000 0.442131 0.667554
O O12 0.335008 0.415207 0.611223
O O13 0.348562 0.545953 0.695962
O O14 0.214081 0.750000 0.070825
O O15 0.500000 0.347997 0.314561
O O16 0.340515 0.250000 0.301000
#
# Coordination Sequence:
#
# PCOD9538342 Si02
#       6
#    16  16  16  16  16  16
#     4   9  19  37  60  87 120 156 197 246 296 354
#     4  11  23  40  60  81 113 158 205 251 301 348
#     4  10  22  40  59  84 119 152 196 253 299 351
#     4  10  20  36  61  92 126 160 192 235 297 364
#     4  11  23  37  57  87 120 156 199 245 296 358
#     4   9  18  35  59  85 117 157 195 234 288 354
#
# _framework density 21.470898999999999
#
# number of rings (size 3 to 8) (size 9 to 14) (size 15 to 20)
#    0.000    2.000    1.667    1.500    0.000    5.000 
#    0.000    7.500    0.000    5.000    0.000    0.000 
#    0.000    0.000    0.000    0.000    0.000    0.000 
#
# Total GULP energy -267683.239611 kJ/mol
# GULP energy per Si atom -5576.734159 kJ/mol
# Density = 2.142203 g / cm^3
# Si number density = 21.470899 Si / 1000 Ang^3
#
#
#
# Elastic Constant Matrix: (Units=GPa)
#
#
# Indices 1 2 3 4 5 6 
#
# 1 37.7231 18.5598 2.7091 0.0000 0.0000 0.0000
# 2 18.5598 156.0806 25.4000 0.0000 0.0000 0.0000
# 3 2.7091 25.4000 69.0043 0.0000 0.0000 0.0000
# 4 0.0000 0.0000 0.0000 28.0530 0.0000 0.0000
# 5 0.0000 0.0000 0.0000 0.0000 22.5267 0.0000
# 6 0.0000 0.0000 0.0000 0.0000 0.0000 26.6140
#
#
#
# Elastic Compliance Matrix: (Units=1/GPa)
#
#
# Indices 1 2 3 4 5 6 
#
# 1 0.028157 -0.003370 0.000135 0.000000 0.000000 0.000000
# 2 -0.003370 0.007219 -0.002525 0.000000 0.000000 0.000000
# 3 0.000135 -0.002525 0.015416 0.000000 0.000000 0.000000
# 4 0.000000 0.000000 0.000000 0.035647 0.000000 0.000000
# 5 0.000000 0.000000 0.000000 0.000000 0.044392 0.000000
# 6 0.000000 0.000000 0.000000 0.000000 0.000000 0.037574
#
#
# Mechanical properties :
#
#
# Convention : Reuss Voigt Hill
#
# Bulk Modulus (GPa) = 25.46340 39.57175 32.51757
# Shear Modulus (GPa) = 25.90470 29.84803 27.87637
#
# Velocity S-wave (km/s) = 3.47724 3.73253 3.60715
# Velocity P-wave (km/s) = 5.29215 6.08656 5.70320
#
# Compressibility (1/GPa) = 0.03927206
#
# Stress axis : x y z
#
# Youngs Moduli (GPa) = 35.51464 138.53144 64.86809
#
# Poissons Ratio (x) = 0.46688 -0.00876
# Poissons Ratio (y) = 0.11969 0.16378
# Poissons Ratio (z) = -0.00480 0.34976
#
# Static dielectric constant tensor:
#      x y z
#    x 1.819140 0.000000 0.000000 
#    y 0.000000 1.831770 0.000000 
#    z 0.000000 0.000000 1.779500 
# 
# From -- ./inp_files/51834.got.cif
#   From: 2010.05.17/outbox.cif.g08.bks.cpg/sg74_26_cif.got.tgz:51834.got - 2010.06.03 17:57:02.
