data_PCOD9538870
_publ_section_title
;
Structure prediction by ZEFSAII (Michael W. Deem and Ramdas Pophale) SiO2 
 PCOD9538870
Probable space group: I M M A
;
_chemical_formula_sum "Si O2"
_cell_formula_units_Z 84
_cell_length_a 15.718105
_cell_length_b 20.223862
_cell_length_c 13.885331
_cell_angle_alpha 90.000000
_cell_angle_beta 90.000000
_cell_angle_gamma 90.000000
_cell_volume 4413.879938
_symmetry_space_group_name_H-M "I M M A"
_symmetry_group_IT_number 74
_symmetry_cell_setting 'orthorhombic'
loop_
_space_group_symop_operation_xyz
x,y,z
-x,1/2-y,z
x,-y,-z
-x,1/2+y,-z
-x,-y,-z
x,1/2+y,-z
-x,y,z
x,1/2-y,z
1/2+x,1/2+y,1/2+z
1/2-x,-y,1/2+z
1/2+x,1/2-y,1/2-z
1/2-x,y,1/2-z
1/2-x,1/2-y,1/2-z
1/2+x,y,1/2-z
1/2-x,1/2+y,1/2+z
1/2+x,-y,1/2+z
loop_
_atom_site_type_symbol
_atom_site_label
_atom_site_fract_x
_atom_site_fract_y
_atom_site_fract_z
Si Si1 0.658892 0.877347 0.095938
Si Si2 0.402100 0.750000 0.205862
Si Si3 0.000000 0.371775 0.044095
Si Si4 0.000000 0.912149 0.750208
Si Si5 0.500000 0.750000 0.396872
Si Si6 0.155914 0.989163 0.244437
Si Si7 0.829057 0.570299 0.040539
Si Si8 0.500000 0.080406 0.025318
O O1 0.644373 0.814340 0.164358
O O2 0.651558 0.942073 0.163394
O O3 0.750396 0.879211 0.043837
O O4 0.582938 0.887012 0.021672
O O5 0.500000 0.750000 0.167552
O O6 0.420085 0.750000 0.321395
O O7 0.000000 0.361214 0.159920
O O8 0.086844 0.410502 0.017809
O O9 0.000000 0.311581 0.968784
O O10 0.000000 0.898542 0.636845
O O11 0.916980 0.957610 0.762106
O O12 0.250000 0.019974 0.250000
O O13 0.147229 0.942570 0.151402
O O14 0.796845 0.500000 0.000000
O O15 0.500000 0.000000 0.000000
#
# Coordination Sequence:
#
# PCOD9538870 Si02
#       8
#    16   8   8   8   4  16  16   8
#     4  11  22  39  62  94 127 162 212 265 327 386
#     4  10  22  43  67  92 127 165 209 262 322 391
#     4  12  24  42  59  89 127 175 220 260 320 382
#     4  12  23  35  59  86 122 165 206 260 323 376
#     4  10  24  44  72  90 130 176 226 264 320 398
#     4  10  21  35  56  92 124 154 201 261 320 383
#     4  11  22  37  62  93 129 165 210 269 326 394
#     4  12  21  35  61  90 123 160 206 266 332 375
#
# _framework density 19.030875000000002
#
# number of rings (size 3 to 8) (size 9 to 14) (size 15 to 20)
#    0.286    0.762    4.762    2.571    2.667    0.762 
#    0.000    6.190    0.000    0.000    0.000    3.333 
#    0.000    0.000    0.000    0.000    0.000    0.000 
#
# Total GULP energy -234265.665339 kJ/mol
# GULP energy per Si atom -5577.753937 kJ/mol
# Density = 1.898756 g / cm^3
# Si number density = 19.030875 Si / 1000 Ang^3
#
#
#
# Elastic Constant Matrix: (Units=GPa)
#
#
# Indices 1 2 3 4 5 6 
#
# 1 104.4006 28.5081 53.5366 0.0000 0.0000 0.0000
# 2 28.5081 68.1464 27.2216 0.0000 0.0000 0.0000
# 3 53.5366 27.2216 147.1170 0.0000 0.0000 0.0000
# 4 0.0000 0.0000 0.0000 32.7834 0.0000 0.0000
# 5 0.0000 0.0000 0.0000 0.0000 11.1175 0.0000
# 6 0.0000 0.0000 0.0000 0.0000 0.0000 7.6880
#
#
#
# Elastic Compliance Matrix: (Units=1/GPa)
#
#
# Indices 1 2 3 4 5 6 
#
# 1 0.012589 -0.003711 -0.003895 0.000000 0.000000 0.000000
# 2 -0.003711 0.016939 -0.001784 0.000000 0.000000 0.000000
# 3 -0.003895 -0.001784 0.008545 0.000000 0.000000 0.000000
# 4 0.000000 0.000000 0.000000 0.030503 0.000000 0.000000
# 5 0.000000 0.000000 0.000000 0.000000 0.089948 0.000000
# 6 0.000000 0.000000 0.000000 0.000000 0.000000 0.130072
#
#
# Mechanical properties :
#
#
# Convention : Reuss Voigt Hill
#
# Bulk Modulus (GPa) = 51.82874 59.79962 55.81418
# Shear Modulus (GPa) = 15.93338 24.34429 20.13884
#
# Velocity S-wave (km/s) = 2.89665 3.58047 3.25656
# Velocity P-wave (km/s) = 6.20327 6.97020 6.59789
#
# Compressibility (1/GPa) = 0.01929432
#
# Stress axis : x y z
#
# Youngs Moduli (GPa) = 79.43525 59.03462 117.03216
#
# Poissons Ratio (x) = 0.21906 0.45579
# Poissons Ratio (y) = 0.29476 0.20878
# Poissons Ratio (z) = 0.30937 0.10532
#
# Static dielectric constant tensor:
#      x y z
#    x 1.682620 0.000000 0.000000 
#    y 0.000000 1.668190 0.000000 
#    z 0.000000 0.000000 1.700830 
# 
# From -- ./inp_files/32292.got.cif
#   From: 2010.05.17/outbox.cif.g08.bks.cpg/sg74_17_cif.got.tgz:32292.got - 2010.06.03 17:57:02.
