data_PCOD9538784
_publ_section_title
;
Structure prediction by ZEFSAII (Michael W. Deem and Ramdas Pophale) SiO2 
 PCOD9538784
Probable space group: I M M A
;
_chemical_formula_sum "Si O2"
_cell_formula_units_Z 88
_cell_length_a 28.031307
_cell_length_b 26.974098
_cell_length_c 6.708735
_cell_angle_alpha 90.000000
_cell_angle_beta 90.000000
_cell_angle_gamma 90.000000
_cell_volume 5072.603489
_symmetry_space_group_name_H-M "I M M A"
_symmetry_group_IT_number 74
_symmetry_cell_setting 'orthorhombic'
loop_
_space_group_symop_operation_xyz
x,y,z
-x,1/2-y,z
x,-y,-z
-x,1/2+y,-z
-x,-y,-z
x,1/2+y,-z
-x,y,z
x,1/2-y,z
1/2+x,1/2+y,1/2+z
1/2-x,-y,1/2+z
1/2+x,1/2-y,1/2-z
1/2-x,y,1/2-z
1/2-x,1/2-y,1/2-z
1/2+x,y,1/2-z
1/2-x,1/2+y,1/2+z
1/2+x,-y,1/2+z
loop_
_atom_site_type_symbol
_atom_site_label
_atom_site_fract_x
_atom_site_fract_y
_atom_site_fract_z
Si Si1 0.250000 0.639011 0.750000
Si Si2 0.797755 0.807834 0.384273
Si Si3 0.863521 0.106581 0.733186
Si Si4 0.555096 0.940215 0.506293
Si Si5 0.886442 0.048152 0.359489
Si Si6 0.196918 0.948458 0.967677
O O1 0.216560 0.671045 0.603251
O O2 0.222670 0.600057 0.889702
O O3 0.810121 0.750000 0.398350
O O4 0.750000 0.812570 0.250000
O O5 0.839517 0.839534 0.277509
O O6 0.871608 0.090955 0.508126
O O7 0.910196 0.092524 0.865786
O O8 0.824949 0.068906 0.824543
O O9 0.500000 0.931731 0.457770
O O10 0.568248 0.932262 0.736635
O O11 0.564268 0.000000 0.500000
O O12 0.845230 0.040291 0.193046
O O13 0.894761 0.000000 0.500000
O O14 0.224659 0.000000 0.000000
#
# Coordination Sequence:
#
# PCOD9538784 Si02
#       6
#     8  16  16  16  16  16
#     4  12  23  36  54  80 118 146 189 250 286 336
#     4  11  24  41  61  83 108 147 201 252 298 340
#     4  11  20  37  58  77 113 154 189 233 286 344
#     4  10  21  34  53  89 122 148 188 231 280 349
#     4  11  18  32  54  76 113 160 184 223 275 339
#     4  11  22  32  50  81 114 152 192 223 273 349
#
# _framework density 17.348095000000001
#
# number of rings (size 3 to 8) (size 9 to 14) (size 15 to 20)
#    0.000    1.091    7.273    1.364    0.000    3.273 
#    0.000    0.000    0.000    0.545    0.000    0.000 
#    0.000    0.000    0.000    0.000    0.000    0.000 
#
# Total GULP energy -245107.471118 kJ/mol
# GULP energy per Si atom -5570.624344 kJ/mol
# Density = 1.730861 g / cm^3
# Si number density = 17.348095 Si / 1000 Ang^3
#
#
#
# Elastic Constant Matrix: (Units=GPa)
#
#
# Indices 1 2 3 4 5 6 
#
# 1 61.0644 57.9793 16.8058 0.0000 0.0000 0.0000
# 2 57.9793 139.4162 39.2672 0.0000 0.0000 0.0000
# 3 16.8058 39.2672 78.0928 0.0000 0.0000 0.0000
# 4 0.0000 0.0000 0.0000 22.2168 0.0000 0.0000
# 5 0.0000 0.0000 0.0000 0.0000 19.3112 0.0000
# 6 0.0000 0.0000 0.0000 0.0000 0.0000 20.7326
#
#
#
# Elastic Compliance Matrix: (Units=1/GPa)
#
#
# Indices 1 2 3 4 5 6 
#
# 1 0.027064 -0.011201 -0.000192 0.000000 0.000000 0.000000
# 2 -0.011201 0.012992 -0.004122 0.000000 0.000000 0.000000
# 3 -0.000192 -0.004122 0.014919 0.000000 0.000000 0.000000
# 4 0.000000 0.000000 0.000000 0.045011 0.000000 0.000000
# 5 0.000000 0.000000 0.000000 0.000000 0.051783 0.000000
# 6 0.000000 0.000000 0.000000 0.000000 0.000000 0.048233
#
#
# Mechanical properties :
#
#
# Convention : Reuss Voigt Hill
#
# Bulk Modulus (GPa) = 41.76274 56.29756 49.03015
# Shear Modulus (GPa) = 20.91910 23.42018 22.16964
#
# Velocity S-wave (km/s) = 3.47629 3.67824 3.57869
# Velocity P-wave (km/s) = 6.34338 7.11066 6.73795
#
# Compressibility (1/GPa) = 0.02394479
#
# Stress axis : x y z
#
# Youngs Moduli (GPa) = 36.94903 76.96994 67.02682
#
# Poissons Ratio (x) = 0.86216 0.01287
# Poissons Ratio (y) = 0.41387 0.27630
# Poissons Ratio (z) = 0.00710 0.31729
#
# Static dielectric constant tensor:
#      x y z
#    x 1.667220 0.000000 0.000000 
#    y 0.000000 1.604300 0.000000 
#    z 0.000000 0.000000 1.763310 
# 
# From -- ./inp_files/5142.got.cif
#   From: 2010.05.17/outbox.cif.g08.bks.cpg/sg74_3_cif.got.tgz:5142.got - 2010.06.03 17:57:02.
