data_PCOD9538007
_publ_section_title
;
Structure prediction by ZEFSAII (Michael W. Deem and Ramdas Pophale) SiO2 
 PCOD9538007
Probable space group: I M M A
;
_chemical_formula_sum "Si O2"
_cell_formula_units_Z 64
_cell_length_a 28.510984
_cell_length_b 12.643953
_cell_length_c 7.368719
_cell_angle_alpha 90.000000
_cell_angle_beta 90.000000
_cell_angle_gamma 90.000000
_cell_volume 2656.360873
_symmetry_space_group_name_H-M "I M M A"
_symmetry_group_IT_number 74
_symmetry_cell_setting 'orthorhombic'
loop_
_space_group_symop_operation_xyz
x,y,z
-x,1/2-y,z
x,-y,-z
-x,1/2+y,-z
-x,-y,-z
x,1/2+y,-z
-x,y,z
x,1/2-y,z
1/2+x,1/2+y,1/2+z
1/2-x,-y,1/2+z
1/2+x,1/2-y,1/2-z
1/2-x,y,1/2-z
1/2-x,1/2-y,1/2-z
1/2+x,y,1/2-z
1/2-x,1/2+y,1/2+z
1/2+x,-y,1/2+z
loop_
_atom_site_type_symbol
_atom_site_label
_atom_site_fract_x
_atom_site_fract_y
_atom_site_fract_z
Si Si1 0.449196 0.472642 0.213848
Si Si2 0.261716 0.750000 0.541700
Si Si3 0.653762 0.029847 0.790915
Si Si4 0.231574 0.500000 0.000000
Si Si5 0.857820 0.250000 0.861715
Si Si6 0.050200 0.250000 0.103929
O O1 0.500000 0.516083 0.282070
O O2 0.398097 0.503390 0.285922
O O3 0.449249 0.350123 0.264103
O O4 0.448216 0.500000 0.000000
O O5 0.250000 0.750000 0.750000
O O6 0.248185 0.624788 0.477100
O O7 0.317465 0.750000 0.511799
O O8 0.696830 0.986580 0.673378
O O9 0.652254 0.153323 0.766988
O O10 0.657389 0.000000 0.000000
O O11 0.907611 0.250000 0.961285
O O12 0.000000 0.250000 0.004732
#
# Coordination Sequence:
#
# PCOD9538007 Si02
#       6
#    16   8  16   8   8   8
#     4   9  18  31  50  82 124 173 226 281 341 403
#     4  10  22  45  74 100 141 184 222 291 355 417
#     4  10  21  37  62  93 130 174 223 279 342 408
#     4  10  22  44  71 102 136 180 231 280 352 428
#     4  10  22  40  64  95 133 179 238 283 345 431
#     4  10  20  35  57  87 128 178 230 291 352 411
#
# _framework density 24.093112000000001
#
# number of rings (size 3 to 8) (size 9 to 14) (size 15 to 20)
#    0.000    2.250    0.000    3.000    0.000    6.000 
#    2.250    5.000    2.750    0.000    0.000    0.000 
#    0.000    0.000    0.000    0.000    0.000    0.000 
#
# Total GULP energy -178191.232008 kJ/mol
# GULP energy per Si atom -5568.476000 kJ/mol
# Density = 2.403827 g / cm^3
# Si number density = 24.093112 Si / 1000 Ang^3
#
#
#
# Elastic Constant Matrix: (Units=GPa)
#
#
# Indices 1 2 3 4 5 6 
#
# 1 146.8859 67.9943 38.7982 0.0000 0.0000 0.0000
# 2 67.9943 187.1994 50.6103 0.0000 0.0000 0.0000
# 3 38.7982 50.6103 156.2803 0.0000 0.0000 0.0000
# 4 0.0000 0.0000 0.0000 44.1276 0.0000 0.0000
# 5 0.0000 0.0000 0.0000 0.0000 11.3520 0.0000
# 6 0.0000 0.0000 0.0000 0.0000 0.0000 55.1816
#
#
#
# Elastic Compliance Matrix: (Units=1/GPa)
#
#
# Indices 1 2 3 4 5 6 
#
# 1 0.008385 -0.002721 -0.001200 0.000000 0.000000 0.000000
# 2 -0.002721 0.006737 -0.001506 0.000000 0.000000 0.000000
# 3 -0.001200 -0.001506 0.007185 0.000000 0.000000 0.000000
# 4 0.000000 0.000000 0.000000 0.022662 0.000000 0.000000
# 5 0.000000 0.000000 0.000000 0.000000 0.088091 0.000000
# 6 0.000000 0.000000 0.000000 0.000000 0.000000 0.018122
#
#
# Mechanical properties :
#
#
# Convention : Reuss Voigt Hill
#
# Bulk Modulus (GPa) = 87.32676 89.46346 88.39511
# Shear Modulus (GPa) = 30.14714 44.32975 37.23844
#
# Velocity S-wave (km/s) = 3.54118 4.29410 3.93568
# Velocity P-wave (km/s) = 7.28314 7.86122 7.57769
#
# Compressibility (1/GPa) = 0.01145124
#
# Stress axis : x y z
#
# Youngs Moduli (GPa) = 119.26620 148.42435 139.18649
#
# Poissons Ratio (x) = 0.40385 0.16708
# Poissons Ratio (y) = 0.32451 0.20967
# Poissons Ratio (z) = 0.14317 0.22358
#
# Static dielectric constant tensor:
#      x y z
#    x 2.107150 0.000000 0.000000 
#    y 0.000000 2.247330 0.000000 
#    z 0.000000 0.000000 1.915920 
# 
# From -- ./inp_files/15863.got.cif
#   From: 2010.05.17/outbox.cif.g08.bks.cpg/sg74_8_cif.got.tgz:15863.got - 2010.06.03 17:57:02.
