data_PCOD9538040
_publ_section_title
;
Structure prediction by ZEFSAII (Michael W. Deem and Ramdas Pophale) SiO2 
 PCOD9538040
Probable space group: I M M A
;
_chemical_formula_sum "Si O2"
_cell_formula_units_Z 104
_cell_length_a 31.843723
_cell_length_b 14.494769
_cell_length_c 11.623560
_cell_angle_alpha 90.000000
_cell_angle_beta 90.000000
_cell_angle_gamma 90.000000
_cell_volume 5365.056472
_symmetry_space_group_name_H-M "I M M A"
_symmetry_group_IT_number 74
_symmetry_cell_setting 'orthorhombic'
loop_
_space_group_symop_operation_xyz
x,y,z
-x,1/2-y,z
x,-y,-z
-x,1/2+y,-z
-x,-y,-z
x,1/2+y,-z
-x,y,z
x,1/2-y,z
1/2+x,1/2+y,1/2+z
1/2-x,-y,1/2+z
1/2+x,1/2-y,1/2-z
1/2-x,y,1/2-z
1/2-x,1/2-y,1/2-z
1/2+x,y,1/2-z
1/2-x,1/2+y,1/2+z
1/2+x,-y,1/2+z
loop_
_atom_site_type_symbol
_atom_site_label
_atom_site_fract_x
_atom_site_fract_y
_atom_site_fract_z
Si Si1 0.390031 0.037537 0.260069
Si Si2 0.954022 0.561368 0.114502
Si Si3 0.664994 0.144951 0.087062
Si Si4 0.728270 0.500000 0.000000
Si Si5 0.713934 0.852554 0.379648
Si Si6 0.844955 0.851140 0.314049
Si Si7 0.375812 0.645934 0.507669
O O1 0.373871 0.109851 0.164815
O O2 0.376005 0.076320 0.384651
O O3 0.438016 0.006412 0.283614
O O4 0.368410 0.941855 0.225908
O O5 0.000000 0.602568 0.138864
O O6 0.958156 0.500000 0.000000
O O7 0.915356 0.626885 0.076659
O O8 0.677383 0.250000 0.121359
O O9 0.654977 0.148109 0.951394
O O10 0.700479 0.064811 0.085227
O O11 0.757373 0.567865 0.072445
O O12 0.730574 0.750000 0.407173
O O13 0.700798 0.856075 0.245805
O O14 0.668354 0.860947 0.442153
O O15 0.861953 0.750000 0.277554
O O16 0.379894 0.750000 0.553007
#
# Coordination Sequence:
#
# PCOD9538040 Si02
#       7
#    16  16  16   8  16  16  16
#     4  11  19  37  61  86 121 163 198 249 314 373
#     4   9  19  34  59  93 123 154 197 244 299 371
#     4  11  24  41  59  86 118 162 214 258 309 372
#     4  12  22  38  58  86 122 160 212 274 326 358
#     4  10  21  36  56  85 116 155 208 259 310 371
#     4  10  20  37  60  83 111 159 216 258 302 368
#     4  10  20  35  58  89 125 163 198 243 310 379
#
# _framework density 19.384699000000001
#
# number of rings (size 3 to 8) (size 9 to 14) (size 15 to 20)
#    0.000    1.692    3.077    1.846    1.077    0.923 
#    2.769    2.308    0.000    6.923    0.000    2.154 
#    0.000    0.000    0.000    0.000    0.000    0.000 
#
# Total GULP energy -289832.698904 kJ/mol
# GULP energy per Si atom -5573.705748 kJ/mol
# Density = 1.934058 g / cm^3
# Si number density = 19.384699 Si / 1000 Ang^3
#
#
#
# Elastic Constant Matrix: (Units=GPa)
#
#
# Indices 1 2 3 4 5 6 
#
# 1 93.3987 56.5178 38.2538 0.0000 0.0000 0.0000
# 2 56.5178 138.4603 39.3786 0.0000 0.0000 0.0000
# 3 38.2538 39.3786 93.9785 0.0000 0.0000 0.0000
# 4 0.0000 0.0000 0.0000 35.1498 0.0000 0.0000
# 5 0.0000 0.0000 0.0000 0.0000 7.0479 0.0000
# 6 0.0000 0.0000 0.0000 0.0000 0.0000 16.6321
#
#
#
# Elastic Compliance Matrix: (Units=1/GPa)
#
#
# Indices 1 2 3 4 5 6 
#
# 1 0.015531 -0.005156 -0.004161 0.000000 0.000000 0.000000
# 2 -0.005156 0.009911 -0.002054 0.000000 0.000000 0.000000
# 3 -0.004161 -0.002054 0.013195 0.000000 0.000000 0.000000
# 4 0.000000 0.000000 0.000000 0.028450 0.000000 0.000000
# 5 0.000000 0.000000 0.000000 0.000000 0.141886 0.000000
# 6 0.000000 0.000000 0.000000 0.000000 0.000000 0.060125
#
#
# Mechanical properties :
#
#
# Convention : Reuss Voigt Hill
#
# Bulk Modulus (GPa) = 62.91562 66.01534 64.46548
# Shear Modulus (GPa) = 16.82708 24.54511 20.68609
#
# Velocity S-wave (km/s) = 2.94948 3.56225 3.27025
# Velocity P-wave (km/s) = 6.64274 7.14484 6.89836
#
# Compressibility (1/GPa) = 0.01589430
#
# Stress axis : x y z
#
# Youngs Moduli (GPa) = 64.38589 100.89621 75.78410
#
# Poissons Ratio (x) = 0.52024 0.31538
# Poissons Ratio (y) = 0.33198 0.15567
# Poissons Ratio (z) = 0.26794 0.20725
#
# Static dielectric constant tensor:
#      x y z
#    x 1.731410 0.000000 0.000000 
#    y 0.000000 1.723100 0.000000 
#    z 0.000000 0.000000 1.711710 
# 
# From -- ./inp_files/27178.got.cif
#   From: 2010.05.17/outbox.cif.g08.bks.cpg/sg74_14_cif.got.tgz:27178.got - 2010.06.03 17:57:02.
