data_PCOD9538419
_publ_section_title
;
Structure prediction by ZEFSAII (Michael W. Deem and Ramdas Pophale) SiO2 
 PCOD9538419
Probable space group: I M M A
;
_chemical_formula_sum "Si O2"
_cell_formula_units_Z 64
_cell_length_a 8.960024
_cell_length_b 14.838183
_cell_length_c 25.151068
_cell_angle_alpha 90.000000
_cell_angle_beta 90.000000
_cell_angle_gamma 90.000000
_cell_volume 3343.846457
_symmetry_space_group_name_H-M "I M M A"
_symmetry_group_IT_number 74
_symmetry_cell_setting 'orthorhombic'
loop_
_space_group_symop_operation_xyz
x,y,z
-x,1/2-y,z
x,-y,-z
-x,1/2+y,-z
-x,-y,-z
x,1/2+y,-z
-x,y,z
x,1/2-y,z
1/2+x,1/2+y,1/2+z
1/2-x,-y,1/2+z
1/2+x,1/2-y,1/2-z
1/2-x,y,1/2-z
1/2-x,1/2-y,1/2-z
1/2+x,y,1/2-z
1/2-x,1/2+y,1/2+z
1/2+x,-y,1/2+z
loop_
_atom_site_type_symbol
_atom_site_label
_atom_site_fract_x
_atom_site_fract_y
_atom_site_fract_z
Si Si1 0.822444 0.390764 0.612450
Si Si2 0.322028 0.603789 0.892791
Si Si3 0.321210 0.250000 0.691399
Si Si4 0.679205 0.250000 0.192509
Si Si5 0.828676 0.609554 0.002239
O O1 0.792634 0.497968 0.616616
O O2 0.737384 0.335431 0.657575
O O3 0.764356 0.362814 0.553999
O O4 0.000000 0.375847 0.616566
O O5 0.500000 0.613520 0.900937
O O6 0.277534 0.663227 0.842460
O O7 0.241458 0.636933 0.946171
O O8 0.500000 0.250000 0.694637
O O9 0.250000 0.250000 0.750000
O O10 0.500000 0.250000 0.197537
O O11 0.750000 0.250000 0.250000
O O12 0.000000 0.638090 0.007507
O O13 0.825575 0.500000 0.000000
#
# Coordination Sequence:
#
# PCOD9538419 Si02
#       5
#    16  16   8   8  16
#     4  10  20  37  60  85 114 149 186 228 280 334
#     4   9  19  36  58  83 114 151 188 229 278 332
#     4  12  26  43  60  81 110 145 189 237 283 338
#     4  10  22  39  56  79 110 145 189 233 273 322
#     4   9  17  31  54  85 117 148 185 229 277 331
#
# _framework density 19.139634999999998
#
# number of rings (size 3 to 8) (size 9 to 14) (size 15 to 20)
#    0.000    2.250    0.000    2.625    0.000    7.000 
#    0.000    6.250    0.000    0.000    0.000    0.000 
#    0.000    0.000    0.000    0.000    0.000    0.000 
#
# Total GULP energy -178775.081907 kJ/mol
# GULP energy per Si atom -5586.721310 kJ/mol
# Density = 1.909607 g / cm^3
# Si number density = 19.139635 Si / 1000 Ang^3
#
#
#
# Elastic Constant Matrix: (Units=GPa)
#
#
# Indices 1 2 3 4 5 6 
#
# 1 111.4329 57.3037 92.2178 0.0000 0.0000 0.0000
# 2 57.3037 91.8844 74.5471 0.0000 0.0000 0.0000
# 3 92.2178 74.5471 212.0750 0.0000 0.0000 0.0000
# 4 0.0000 0.0000 0.0000 29.0116 0.0000 0.0000
# 5 0.0000 0.0000 0.0000 0.0000 42.8150 0.0000
# 6 0.0000 0.0000 0.0000 0.0000 0.0000 18.1325
#
#
#
# Elastic Compliance Matrix: (Units=1/GPa)
#
#
# Indices 1 2 3 4 5 6 
#
# 1 0.016154 -0.006121 -0.004873 0.000000 0.000000 0.000000
# 2 -0.006121 0.017545 -0.003505 0.000000 0.000000 0.000000
# 3 -0.004873 -0.003505 0.008066 0.000000 0.000000 0.000000
# 4 0.000000 0.000000 0.000000 0.034469 0.000000 0.000000
# 5 0.000000 0.000000 0.000000 0.000000 0.023356 0.000000
# 6 0.000000 0.000000 0.000000 0.000000 0.000000 0.055150
#
#
# Mechanical properties :
#
#
# Convention : Reuss Voigt Hill
#
# Bulk Modulus (GPa) = 78.33016 95.94772 87.13894
# Shear Modulus (GPa) = 26.59641 30.74673 28.67157
#
# Velocity S-wave (km/s) = 3.73178 4.01239 3.87463
# Velocity P-wave (km/s) = 7.71898 8.46788 8.10209
#
# Compressibility (1/GPa) = 0.01276648
#
# Stress axis : x y z
#
# Youngs Moduli (GPa) = 61.90258 56.99680 123.97110
#
# Poissons Ratio (x) = 0.34890 0.60409
# Poissons Ratio (y) = 0.37893 0.43458
# Poissons Ratio (z) = 0.30164 0.19980
#
# Static dielectric constant tensor:
#      x y z
#    x 1.640370 0.000000 0.000000 
#    y 0.000000 1.703700 0.000000 
#    z 0.000000 0.000000 1.614960 
# 
# From -- ./inp_files/56424.got.cif
#   From: 2010.05.17/outbox.cif.g08.bks.cpg/sg74_29_cif.got.tgz:56424.got - 2010.06.03 17:57:02.
