data_PCOD9538499
_publ_section_title
;
Structure prediction by ZEFSAII (Michael W. Deem and Ramdas Pophale) SiO2 
 PCOD9538499
Probable space group: I M M A
;
_chemical_formula_sum "Si O2"
_cell_formula_units_Z 96
_cell_length_a 30.365762
_cell_length_b 18.958426
_cell_length_c 9.284719
_cell_angle_alpha 90.000000
_cell_angle_beta 90.000000
_cell_angle_gamma 90.000000
_cell_volume 5345.092508
_symmetry_space_group_name_H-M "I M M A"
_symmetry_group_IT_number 74
_symmetry_cell_setting 'orthorhombic'
loop_
_space_group_symop_operation_xyz
x,y,z
-x,1/2-y,z
x,-y,-z
-x,1/2+y,-z
-x,-y,-z
x,1/2+y,-z
-x,y,z
x,1/2-y,z
1/2+x,1/2+y,1/2+z
1/2-x,-y,1/2+z
1/2+x,1/2-y,1/2-z
1/2-x,y,1/2-z
1/2-x,1/2-y,1/2-z
1/2+x,y,1/2-z
1/2-x,1/2+y,1/2+z
1/2+x,-y,1/2+z
loop_
_atom_site_type_symbol
_atom_site_label
_atom_site_fract_x
_atom_site_fract_y
_atom_site_fract_z
Si Si1 0.450539 0.074431 0.081713
Si Si2 0.101518 0.670484 0.377812
Si Si3 0.758906 0.923737 0.079195
Si Si4 0.869316 0.571969 0.799401
Si Si5 0.357341 0.411687 0.617154
Si Si6 0.314127 0.332390 0.090443
O O1 0.500000 0.085461 0.137006
O O2 0.412770 0.075212 0.202024
O O3 0.436970 0.131202 0.962164
O O4 0.448603 0.000000 0.000000
O O5 0.089016 0.750000 0.348287
O O6 0.117188 0.633057 0.233549
O O7 0.144164 0.669007 0.482453
O O8 0.750000 0.932685 0.250000
O O9 0.807521 0.890316 0.079368
O O10 0.724489 0.873798 0.994472
O O11 0.759123 0.000000 0.000000
O O12 0.853790 0.490792 0.816474
O O13 0.831929 0.621096 0.725540
O O14 0.880661 0.591450 0.963003
O O15 0.303335 0.250000 0.124849
#
# Coordination Sequence:
#
# PCOD9538499 Si02
#       6
#    16  16  16  16  16  16
#     4  10  20  37  65  92 113 147 193 241 291 352
#     4  10  21  38  60  86 117 153 191 238 300 353
#     4  12  23  35  58  82 116 159 211 255 295 347
#     4  10  21  39  60  82 124 154 198 245 296 361
#     4  11  21  37  57  87 117 160 200 240 298 349
#     4  10  23  38  57  84 115 160 204 248 297 344
#
# _framework density 17.960401000000001
#
# number of rings (size 3 to 8) (size 9 to 14) (size 15 to 20)
#    0.000    1.500    5.000    1.000    0.000    2.000 
#    0.000    3.333    0.000    0.000    0.000    0.000 
#    0.000    0.000    0.000    0.000    0.000    0.000 
#
# Total GULP energy -267722.844006 kJ/mol
# GULP energy per Si atom -5577.559250 kJ/mol
# Density = 1.791952 g / cm^3
# Si number density = 17.960401 Si / 1000 Ang^3
#
#
#
# Elastic Constant Matrix: (Units=GPa)
#
#
# Indices 1 2 3 4 5 6 
#
# 1 87.9926 21.5526 36.3213 0.0000 0.0000 0.0000
# 2 21.5526 95.6820 63.5689 0.0000 0.0000 0.0000
# 3 36.3213 63.5689 122.0666 0.0000 0.0000 0.0000
# 4 0.0000 0.0000 0.0000 4.2284 0.0000 0.0000
# 5 0.0000 0.0000 0.0000 0.0000 20.4281 0.0000
# 6 0.0000 0.0000 0.0000 0.0000 0.0000 8.8867
#
#
#
# Elastic Compliance Matrix: (Units=1/GPa)
#
#
# Indices 1 2 3 4 5 6 
#
# 1 0.012975 -0.000547 -0.003576 0.000000 0.000000 0.000000
# 2 -0.000547 0.016003 -0.008171 0.000000 0.000000 0.000000
# 3 -0.003576 -0.008171 0.013512 0.000000 0.000000 0.000000
# 4 0.000000 0.000000 0.000000 0.236497 0.000000 0.000000
# 5 0.000000 0.000000 0.000000 0.000000 0.048952 0.000000
# 6 0.000000 0.000000 0.000000 0.000000 0.000000 0.112527
#
#
# Mechanical properties :
#
#
# Convention : Reuss Voigt Hill
#
# Bulk Modulus (GPa) = 55.86141 60.95855 58.40998
# Shear Modulus (GPa) = 10.61523 18.99521 14.80522
#
# Velocity S-wave (km/s) = 2.43376 3.25563 2.87422
# Velocity P-wave (km/s) = 6.25041 6.93876 6.60356
#
# Compressibility (1/GPa) = 0.01790144
#
# Stress axis : x y z
#
# Youngs Moduli (GPa) = 77.07395 62.48695 74.01004
#
# Poissons Ratio (x) = 0.03417 0.26465
# Poissons Ratio (y) = 0.04215 0.60476
# Poissons Ratio (z) = 0.27560 0.51060
#
# Static dielectric constant tensor:
#      x y z
#    x 1.611290 0.000000 0.000000 
#    y 0.000000 1.624000 0.000000 
#    z 0.000000 0.000000 1.566980 
# 
# From -- ./inp_files/15098.got.cif
#   From: 2010.05.17/outbox.cif.g08.bks.cpg/sg74_8_cif.got.tgz:15098.got - 2010.06.03 17:57:02.
