data_PCOD9538185
_publ_section_title
;
Structure prediction by ZEFSAII (Michael W. Deem and Ramdas Pophale) SiO2 
 PCOD9538185
Probable space group: I M M A
;
_chemical_formula_sum "Si O2"
_cell_formula_units_Z 104
_cell_length_a 22.712838
_cell_length_b 23.258194
_cell_length_c 10.334771
_cell_angle_alpha 90.000000
_cell_angle_beta 90.000000
_cell_angle_gamma 90.000000
_cell_volume 5459.441917
_symmetry_space_group_name_H-M "I M M A"
_symmetry_group_IT_number 74
_symmetry_cell_setting 'orthorhombic'
loop_
_space_group_symop_operation_xyz
x,y,z
-x,1/2-y,z
x,-y,-z
-x,1/2+y,-z
-x,-y,-z
x,1/2+y,-z
-x,y,z
x,1/2-y,z
1/2+x,1/2+y,1/2+z
1/2-x,-y,1/2+z
1/2+x,1/2-y,1/2-z
1/2-x,y,1/2-z
1/2-x,1/2-y,1/2-z
1/2+x,y,1/2-z
1/2-x,1/2+y,1/2+z
1/2+x,-y,1/2+z
loop_
_atom_site_type_symbol
_atom_site_label
_atom_site_fract_x
_atom_site_fract_y
_atom_site_fract_z
Si Si1 0.859494 0.625698 0.428291
Si Si2 0.129283 0.250000 0.248245
Si Si3 0.670342 0.250000 0.548153
Si Si4 0.431133 0.057908 0.434083
Si Si5 0.872331 0.371717 0.860700
Si Si6 0.808779 0.750000 0.487788
Si Si7 0.929132 0.372500 0.311301
Si Si8 0.757196 0.550200 0.102912
O O1 0.888171 0.616585 0.287936
O O2 0.839364 0.692159 0.437261
O O3 0.901037 0.613459 0.549928
O O4 0.800741 0.587115 0.431769
O O5 0.152933 0.250000 0.102950
O O6 0.180736 0.250000 0.356859
O O7 0.092209 0.191680 0.272338
O O8 0.644177 0.306065 0.615512
O O9 0.741018 0.250000 0.553249
O O10 0.500000 0.047350 0.411516
O O11 0.421303 0.107326 0.539661
O O12 0.407305 0.082284 0.298297
O O13 0.406249 0.000000 0.500000
O O14 0.813408 0.407858 0.894326
O O15 0.000000 0.373468 0.316188
O O16 0.750000 0.527867 0.250000
O O17 0.764234 0.500000 0.000000
#
# Coordination Sequence:
#
# PCOD9538185 Si02
#       8
#    16   8   8  16  16   8  16  16
#     4  10  22  37  59  87 119 156 193 236 293 352
#     4  10  20  36  57  90 119 153 192 241 289 349
#     4  12  20  35  61  90 120 154 192 237 294 348
#     4  10  22  41  62  84 113 153 199 247 293 342
#     4  11  22  37  60  89 119 151 194 240 292 347
#     4  10  20  37  56  86 125 155 193 231 288 358
#     4  10  21  39  62  85 116 155 194 241 295 348
#     4  10  22  39  56  84 118 158 193 238 288 339
#
# _framework density 19.049565999999999
#
# number of rings (size 3 to 8) (size 9 to 14) (size 15 to 20)
#    0.000    1.692    3.077    1.385    0.000    4.923 
#    0.000    0.385    0.000    5.077    0.000    0.000 
#    0.000    0.000    0.000    0.000    0.000    0.000 
#
# Total GULP energy -290329.221391 kJ/mol
# GULP energy per Si atom -5583.254258 kJ/mol
# Density = 1.900621 g / cm^3
# Si number density = 19.049566 Si / 1000 Ang^3
#
#
#
# Elastic Constant Matrix: (Units=GPa)
#
#
# Indices 1 2 3 4 5 6 
#
# 1 13.1351 7.3506 -2.2355 0.0000 0.0000 0.0000
# 2 7.3506 110.2185 48.0620 0.0000 0.0000 0.0000
# 3 -2.2355 48.0620 104.7306 0.0000 0.0000 0.0000
# 4 0.0000 0.0000 0.0000 30.7180 0.0000 0.0000
# 5 0.0000 0.0000 0.0000 0.0000 21.8074 0.0000
# 6 0.0000 0.0000 0.0000 0.0000 0.0000 16.3400
#
#
#
# Elastic Compliance Matrix: (Units=1/GPa)
#
#
# Indices 1 2 3 4 5 6 
#
# 1 0.081357 -0.007730 0.005284 0.000000 0.000000 0.000000
# 2 -0.007730 0.012077 -0.005707 0.000000 0.000000 0.000000
# 3 0.005284 -0.005707 0.012280 0.000000 0.000000 0.000000
# 4 0.000000 0.000000 0.000000 0.032554 0.000000 0.000000
# 5 0.000000 0.000000 0.000000 0.000000 0.045856 0.000000
# 6 0.000000 0.000000 0.000000 0.000000 0.000000 0.061200
#
#
# Mechanical properties :
#
#
# Convention : Reuss Voigt Hill
#
# Bulk Modulus (GPa) = 11.18471 37.15982 24.17227
# Shear Modulus (GPa) = 17.15659 25.43357 21.29508
#
# Velocity S-wave (km/s) = 3.00430 3.65790 3.34709
# Velocity P-wave (km/s) = 4.23303 6.11470 5.25871
#
# Compressibility (1/GPa) = 0.08940779
#
# Stress axis : x y z
#
# Youngs Moduli (GPa) = 12.29150 82.80099 81.43158
#
# Poissons Ratio (x) = 0.64004 -0.43028
# Poissons Ratio (y) = 0.09501 0.46476
# Poissons Ratio (z) = -0.06495 0.47257
#
# Static dielectric constant tensor:
#      x y z
#    x 1.640590 0.000000 0.000000 
#    y 0.000000 1.654950 0.000000 
#    z 0.000000 0.000000 1.660570 
# 
# From -- ./inp_files/15271.got.cif
#   From: 2010.05.17/outbox.cif.g08.bks.cpg/sg74_8_cif.got.tgz:15271.got - 2010.06.03 17:57:02.
