data_PCOD9538779
_publ_section_title
;
Structure prediction by ZEFSAII (Michael W. Deem and Ramdas Pophale) SiO2 
 PCOD9538779
Probable space group: I M M A
;
_chemical_formula_sum "Si O2"
_cell_formula_units_Z 112
_cell_length_a 13.663712
_cell_length_b 30.330735
_cell_length_c 15.693499
_cell_angle_alpha 90.000000
_cell_angle_beta 90.000000
_cell_angle_gamma 90.000000
_cell_volume 6503.863504
_symmetry_space_group_name_H-M "I M M A"
_symmetry_group_IT_number 74
_symmetry_cell_setting 'orthorhombic'
loop_
_space_group_symop_operation_xyz
x,y,z
-x,1/2-y,z
x,-y,-z
-x,1/2+y,-z
-x,-y,-z
x,1/2+y,-z
-x,y,z
x,1/2-y,z
1/2+x,1/2+y,1/2+z
1/2-x,-y,1/2+z
1/2+x,1/2-y,1/2-z
1/2-x,y,1/2-z
1/2-x,1/2-y,1/2-z
1/2+x,y,1/2-z
1/2-x,1/2+y,1/2+z
1/2+x,-y,1/2+z
loop_
_atom_site_type_symbol
_atom_site_label
_atom_site_fract_x
_atom_site_fract_y
_atom_site_fract_z
Si Si1 0.612802 0.058557 0.627080
Si Si2 0.796750 0.081501 0.530111
Si Si3 0.114980 0.650636 0.597624
Si Si4 0.110527 0.032506 0.684990
Si Si5 0.385952 0.385297 0.290422
Si Si6 0.724196 0.031038 0.368173
Si Si7 0.711921 0.797780 0.653290
O O1 0.500000 0.065886 0.603142
O O2 0.692107 0.088122 0.577653
O O3 0.623409 0.061450 0.729721
O O4 0.645231 0.007474 0.613652
O O5 0.849360 0.120759 0.480489
O O6 0.866398 0.060874 0.601673
O O7 0.771287 0.047065 0.456069
O O8 0.129627 0.625554 0.689534
O O9 0.190240 0.691152 0.600842
O O10 0.000000 0.661371 0.592629
O O11 0.000000 0.015539 0.685456
O O12 0.186920 0.992558 0.681766
O O13 0.500000 0.394515 0.301765
O O14 0.325046 0.426645 0.324731
O O15 0.356163 0.341131 0.343092
O O16 0.668561 0.750000 0.630188
O O17 0.750000 0.794590 0.750000
#
# Coordination Sequence:
#
# PCOD9538779 Si02
#       7
#    16  16  16  16  16  16  16
#     4  10  22  36  50  68  96 137 177 216 258 301
#     4  11  21  33  52  71 101 129 170 220 255 301
#     4  10  21  34  52  76 103 134 169 210 254 295
#     4  10  22  36  51  70  97 135 177 216 258 302
#     4  10  21  35  51  73 102 136 172 207 247 295
#     4  11  21  33  50  70 100 133 171 217 252 293
#     4   9  18  34  54  75 101 132 168 203 241 296
#
# _framework density 17.220534000000001
#
# number of rings (size 3 to 8) (size 9 to 14) (size 15 to 20)
#    0.000    1.857    1.429    4.286    4.000    4.000 
#    0.000    2.857    0.000    0.000    0.000    0.000 
#    0.000    2.286    0.000    3.429    0.571    0.000 
#
# Total GULP energy -312324.959887 kJ/mol
# GULP energy per Si atom -5577.231427 kJ/mol
# Density = 1.718134 g / cm^3
# Si number density = 17.220534 Si / 1000 Ang^3
#
#
#
# Elastic Constant Matrix: (Units=GPa)
#
#
# Indices 1 2 3 4 5 6 
#
# 1 109.8141 17.9063 24.4737 0.0000 0.0000 0.0000
# 2 17.9063 64.9508 15.0090 0.0000 0.0000 -0.0001
# 3 24.4737 15.0090 61.7194 0.0000 0.0001 -0.0002
# 4 0.0000 0.0000 0.0000 -3.1728 0.0000 -0.0001
# 5 0.0000 0.0000 0.0001 0.0000 21.1578 0.0000
# 6 0.0000 -0.0001 -0.0002 -0.0001 0.0000 -3.9075
#
#
#
# Elastic Compliance Matrix: (Units=1/GPa)
#
#
# Indices 1 2 3 4 5 6 
#
# 1 0.010227 -0.001994 -0.003570 0.000000 0.000000 0.000000
# 2 -0.001994 0.016702 -0.003271 0.000000 0.000000 0.000000
# 3 -0.003570 -0.003271 0.018414 0.000000 0.000000 -0.000001
# 4 0.000000 0.000000 0.000000 -0.315180 0.000000 0.000005
# 5 0.000000 0.000000 0.000000 0.000000 0.047264 0.000000
# 6 0.000000 0.000000 -0.000001 0.000005 0.000000 -0.255917
#
#
# Mechanical properties :
#
#
# Convention : Reuss Voigt Hill
#
# Bulk Modulus (GPa) = 36.13829 39.02913 37.58371
# Shear Modulus (GPa) = -11.07187 14.75518 1.84165
#
# Velocity S-wave (km/s) = -2.53839 2.93035 1.03527
# Velocity P-wave (km/s) = 3.52703 5.84489 4.82715
#
# Compressibility (1/GPa) = 0.02767148
#
# Stress axis : x y z
#
# Youngs Moduli (GPa) = 97.77811 59.87324 54.30788
#
# Poissons Ratio (x) = 0.11942 0.19390
# Poissons Ratio (y) = 0.19502 0.17763
# Poissons Ratio (z) = 0.34911 0.19583
#
# Static dielectric constant tensor:
#      x y z
#    x 1.617100 0.000000 0.000000 
#    y 0.000000 1.597320 0.000000 
#    z 0.000000 0.000000 1.638290 
# 
# From -- ./inp_files/33120.got.cif
#   From: 2010.05.17/outbox.cif.g08.bks.cpg/sg74_17_cif.got.tgz:33120.got - 2010.06.03 17:57:02.
