data_PCOD9538349
_publ_section_title
;
Structure prediction by ZEFSAII (Michael W. Deem and Ramdas Pophale) SiO2 
 PCOD9538349
Probable space group: I M M A
;
_chemical_formula_sum "Si O2"
_cell_formula_units_Z 92
_cell_length_a 22.987817
_cell_length_b 21.109252
_cell_length_c 9.994866
_cell_angle_alpha 90.000000
_cell_angle_beta 90.000000
_cell_angle_gamma 90.000000
_cell_volume 4850.064917
_symmetry_space_group_name_H-M "I M M A"
_symmetry_group_IT_number 74
_symmetry_cell_setting 'orthorhombic'
loop_
_space_group_symop_operation_xyz
x,y,z
-x,1/2-y,z
x,-y,-z
-x,1/2+y,-z
-x,-y,-z
x,1/2+y,-z
-x,y,z
x,1/2-y,z
1/2+x,1/2+y,1/2+z
1/2-x,-y,1/2+z
1/2+x,1/2-y,1/2-z
1/2-x,y,1/2-z
1/2-x,1/2-y,1/2-z
1/2+x,y,1/2-z
1/2-x,1/2+y,1/2+z
1/2+x,-y,1/2+z
loop_
_atom_site_type_symbol
_atom_site_label
_atom_site_fract_x
_atom_site_fract_y
_atom_site_fract_z
Si Si1 0.750000 0.080499 0.250000
Si Si2 0.607964 0.654072 0.320491
Si Si3 0.207357 0.322227 0.038848
Si Si4 0.500000 0.250000 0.641138
Si Si5 0.569498 0.510907 0.346071
Si Si6 0.861928 0.550457 0.615111
Si Si7 0.341178 0.679877 0.029395
O O1 0.711376 0.126916 0.342578
O O2 0.794955 0.040907 0.338068
O O3 0.656676 0.663336 0.434325
O O4 0.551400 0.695116 0.354478
O O5 0.590859 0.580800 0.308507
O O6 0.634161 0.675165 0.178419
O O7 0.200378 0.250000 0.089463
O O8 0.271086 0.325804 0.970265
O O9 0.586894 0.500000 0.500000
O O10 0.500000 0.506913 0.337336
O O11 0.598214 0.462169 0.243109
O O12 0.876564 0.500000 0.500000
O O13 0.865133 0.621478 0.557149
O O14 0.355367 0.750000 0.974567
#
# Coordination Sequence:
#
# PCOD9538349 Si02
#       7
#     8  16  16   4  16  16  16
#     4  10  23  38  60  92 127 166 208 276 326 390
#     4  12  21  39  63  93 128 171 213 274 317 386
#     4  10  20  36  62  91 127 168 212 261 336 393
#     4  12  24  36  60 100 130 162 230 270 320 386
#     4  11  25  44  65  89 127 174 219 259 320 389
#     4  11  23  42  63  95 126 164 218 260 321 389
#     4  10  21  39  63  95 130 162 212 268 333 392
#
# _framework density 18.968817999999999
#
# number of rings (size 3 to 8) (size 9 to 14) (size 15 to 20)
#    0.000    1.217    4.348    1.826    0.000    5.913 
#    1.565    0.000    0.000    0.000    0.000    4.870 
#    0.000    0.000    0.000    0.000    0.000    0.000 
#
# Total GULP energy -256444.398618 kJ/mol
# GULP energy per Si atom -5574.878231 kJ/mol
# Density = 1.892564 g / cm^3
# Si number density = 18.968818 Si / 1000 Ang^3
#
#
#
# Elastic Constant Matrix: (Units=GPa)
#
#
# Indices 1 2 3 4 5 6 
#
# 1 70.6890 54.7469 48.6531 0.0000 0.0000 0.0000
# 2 54.7469 98.1861 42.1142 0.0000 0.0000 0.0000
# 3 48.6531 42.1142 101.0815 0.0000 0.0000 0.0000
# 4 0.0000 0.0000 0.0000 23.2510 0.0000 0.0000
# 5 0.0000 0.0000 0.0000 0.0000 22.6677 0.0000
# 6 0.0000 0.0000 0.0000 0.0000 0.0000 12.1044
#
#
#
# Elastic Compliance Matrix: (Units=1/GPa)
#
#
# Indices 1 2 3 4 5 6 
#
# 1 0.030740 -0.013142 -0.009320 0.000000 0.000000 0.000000
# 2 -0.013142 0.018020 -0.001182 0.000000 0.000000 0.000000
# 3 -0.009320 -0.001182 0.014872 0.000000 0.000000 0.000000
# 4 0.000000 0.000000 0.000000 0.043009 0.000000 0.000000
# 5 0.000000 0.000000 0.000000 0.000000 0.044116 0.000000
# 6 0.000000 0.000000 0.000000 0.000000 0.000000 0.082614
#
#
# Mechanical properties :
#
#
# Convention : Reuss Voigt Hill
#
# Bulk Modulus (GPa) = 61.19225 62.33166 61.76195
# Shear Modulus (GPa) = 17.47605 19.90079 18.68842
#
# Velocity S-wave (km/s) = 3.03859 3.24254 3.14222
# Velocity P-wave (km/s) = 6.68133 6.85202 6.76721
#
# Compressibility (1/GPa) = 0.01634194
#
# Stress axis : x y z
#
# Youngs Moduli (GPa) = 32.53126 55.49518 67.24271
#
# Poissons Ratio (x) = 0.72933 0.62672
# Poissons Ratio (y) = 0.42753 0.07947
# Poissons Ratio (z) = 0.30320 0.06559
#
# Static dielectric constant tensor:
#      x y z
#    x 1.623060 0.000000 0.000000 
#    y 0.000000 1.689480 0.000000 
#    z 0.000000 0.000000 1.658770 
# 
# From -- ./inp_files/13785.got.cif
#   From: 2010.05.17/outbox.cif.g08.bks.cpg/sg74_7_cif.got.tgz:13785.got - 2010.06.03 17:57:02.
