data_PCOD9538186
_publ_section_title
;
Structure prediction by ZEFSAII (Michael W. Deem and Ramdas Pophale) SiO2 
 PCOD9538186
Probable space group: I M M A
;
_chemical_formula_sum "Si O2"
_cell_formula_units_Z 72
_cell_length_a 10.577343
_cell_length_b 18.974260
_cell_length_c 20.020544
_cell_angle_alpha 90.000000
_cell_angle_beta 90.000000
_cell_angle_gamma 90.000000
_cell_volume 4018.068248
_symmetry_space_group_name_H-M "I M M A"
_symmetry_group_IT_number 74
_symmetry_cell_setting 'orthorhombic'
loop_
_space_group_symop_operation_xyz
x,y,z
-x,1/2-y,z
x,-y,-z
-x,1/2+y,-z
-x,-y,-z
x,1/2+y,-z
-x,y,z
x,1/2-y,z
1/2+x,1/2+y,1/2+z
1/2-x,-y,1/2+z
1/2+x,1/2-y,1/2-z
1/2-x,y,1/2-z
1/2-x,1/2-y,1/2-z
1/2+x,y,1/2-z
1/2-x,1/2+y,1/2+z
1/2+x,-y,1/2+z
loop_
_atom_site_type_symbol
_atom_site_label
_atom_site_fract_x
_atom_site_fract_y
_atom_site_fract_z
Si Si1 0.645327 0.904643 0.195544
Si Si2 0.356201 0.483819 0.078806
Si Si3 0.637580 0.250000 0.300981
Si Si4 0.141925 0.869407 0.912370
Si Si5 0.145700 0.250000 0.976417
Si Si6 0.355440 0.750000 0.137492
O O1 0.500000 0.917188 0.218352
O O2 0.750000 0.925341 0.250000
O O3 0.658129 0.821670 0.179503
O O4 0.662121 0.948653 0.126853
O O5 0.500000 0.458050 0.091197
O O6 0.249983 0.426694 0.093917
O O7 0.347066 0.500000 0.000000
O O8 0.500000 0.250000 0.267346
O O9 0.750000 0.250000 0.250000
O O10 0.644548 0.317411 0.349215
O O11 0.000000 0.900134 0.917311
O O12 0.160929 0.818572 0.976403
O O13 0.249705 0.250000 0.919380
O O14 0.000000 0.250000 0.951614
O O15 0.500000 0.750000 0.110067
#
# Coordination Sequence:
#
# PCOD9538186 Si02
#       6
#    16  16   8  16   8   8
#     4  10  22  38  56  80 109 142 180 222 269 320
#     4  10  21  37  56  80 110 142 179 223 268 317
#     4   9  19  35  53  75 104 137 176 220 262 311
#     4   9  19  35  53  76 107 139 173 216 265 317
#     4   9  18  33  54  81 109 137 173 218 266 314
#     4  10  20  36  58  80 104 138 179 220 264 315
#
# _framework density 17.919059000000001
#
# number of rings (size 3 to 8) (size 9 to 14) (size 15 to 20)
#    0.000    2.444    0.000    3.000    0.000    6.667 
#    0.000    6.667    0.000    0.000    0.000    0.000 
#    0.000    0.000    0.000    0.000    0.000    0.000 
#
# Total GULP energy -200784.012340 kJ/mol
# GULP energy per Si atom -5577.333676 kJ/mol
# Density = 1.787827 g / cm^3
# Si number density = 17.919059 Si / 1000 Ang^3
#
#
#
# Elastic Constant Matrix: (Units=GPa)
#
#
# Indices 1 2 3 4 5 6 
#
# 1 149.1480 64.1318 70.3115 0.0000 0.0000 0.0000
# 2 64.1318 85.5454 13.7888 0.0000 0.0000 0.0000
# 3 70.3115 13.7888 81.1543 0.0000 0.0000 0.0000
# 4 0.0000 0.0000 0.0000 -0.1579 0.0000 0.0000
# 5 0.0000 0.0000 0.0000 0.0000 40.3361 0.0000
# 6 0.0000 0.0000 0.0000 0.0000 0.0000 37.7908
#
#
#
# Elastic Compliance Matrix: (Units=1/GPa)
#
#
# Indices 1 2 3 4 5 6 
#
# 1 0.018018 -0.011301 -0.013691 0.000000 0.000000 0.000000
# 2 -0.011301 0.019107 0.006545 0.000000 0.000000 0.000000
# 3 -0.013691 0.006545 0.023072 0.000000 0.000000 0.000000
# 4 0.000000 0.000000 0.000000 -6.334009 0.000000 0.000000
# 5 0.000000 0.000000 0.000000 0.000000 0.024792 0.000000
# 6 0.000000 0.000000 0.000000 0.000000 0.000000 0.026461
#
#
# Mechanical properties :
#
#
# Convention : Reuss Voigt Hill
#
# Bulk Modulus (GPa) = 42.91321 68.03465 55.47393
# Shear Modulus (GPa) = -0.80934 26.76819 12.97943
#
# Velocity S-wave (km/s) = -0.67279 3.86921 2.69427
# Velocity P-wave (km/s) = 4.83703 7.61651 6.37997
#
# Compressibility (1/GPa) = 0.02330285
#
# Stress axis : x y z
#
# Youngs Moduli (GPa) = 55.49963 52.33682 43.34322
#
# Poissons Ratio (x) = 0.59146 0.59340
# Poissons Ratio (y) = 0.62721 -0.28367
# Poissons Ratio (z) = 0.75983 -0.34253
#
# Static dielectric constant tensor:
#      x y z
#    x 1.612660 0.000000 0.000000 
#    y 0.000000 1.596860 0.000000 
#    z 0.000000 0.000000 1.596260 
# 
# From -- ./inp_files/48423.got.cif
#   From: 2010.05.17/outbox.cif.g08.bks.cpg/sg74_25_cif.got.tgz:48423.got - 2010.06.03 17:57:02.
