data_PCOD9538128
_publ_section_title
;
Structure prediction by ZEFSAII (Michael W. Deem and Ramdas Pophale) SiO2 
 PCOD9538128
Probable space group: I M M A
;
_chemical_formula_sum "Si O2"
_cell_formula_units_Z 88
_cell_length_a 13.413044
_cell_length_b 18.015084
_cell_length_c 18.960320
_cell_angle_alpha 90.000000
_cell_angle_beta 90.000000
_cell_angle_gamma 90.000000
_cell_volume 4581.517012
_symmetry_space_group_name_H-M "I M M A"
_symmetry_group_IT_number 74
_symmetry_cell_setting 'orthorhombic'
loop_
_space_group_symop_operation_xyz
x,y,z
-x,1/2-y,z
x,-y,-z
-x,1/2+y,-z
-x,-y,-z
x,1/2+y,-z
-x,y,z
x,1/2-y,z
1/2+x,1/2+y,1/2+z
1/2-x,-y,1/2+z
1/2+x,1/2-y,1/2-z
1/2-x,y,1/2-z
1/2-x,1/2-y,1/2-z
1/2+x,y,1/2-z
1/2-x,1/2+y,1/2+z
1/2+x,-y,1/2+z
loop_
_atom_site_type_symbol
_atom_site_label
_atom_site_fract_x
_atom_site_fract_y
_atom_site_fract_z
Si Si1 0.000000 0.328132 0.147147
Si Si2 0.000000 0.076221 0.955065
Si Si3 0.000000 0.017736 0.176930
Si Si4 0.703612 0.836446 0.487560
Si Si5 0.274893 0.168296 0.343175
Si Si6 0.385843 0.437028 0.939560
Si Si7 0.832749 0.516850 0.705909
O O1 0.000000 0.412645 0.122548
O O2 0.890545 0.327124 0.183202
O O3 0.000000 0.250000 0.104279
O O4 0.899289 0.121989 0.969810
O O5 0.000000 0.052951 0.872571
O O6 0.000000 0.000000 0.000000
O O7 0.088380 0.024666 0.232173
O O8 0.699496 0.750000 0.467165
O O9 0.715806 0.839445 0.572427
O O10 0.798791 0.877706 0.453583
O O11 0.229402 0.250000 0.328456
O O12 0.213326 0.096900 0.317494
O O13 0.500000 0.408093 0.943805
O O14 0.370047 0.475940 0.863736
O O15 0.375577 0.500000 0.000000
O O16 0.750000 0.472161 0.750000
#
# Coordination Sequence:
#
# PCOD9538128 Si02
#       7
#     8   8   8  16  16  16  16
#     4  10  20  36  55  86 132 172 201 245 312 385
#     4  12  25  41  72  99 132 168 221 272 333 384
#     4  12  24  39  59  95 123 170 214 262 316 385
#     4  11  23  41  67  97 130 167 218 275 331 385
#     4  10  21  37  59  91 132 173 210 254 318 394
#     4  11  23  42  67  93 128 174 220 268 317 383
#     4  12  23  38  62  90 132 162 213 260 322 380
#
# _framework density 19.207612000000001
#
# number of rings (size 3 to 8) (size 9 to 14) (size 15 to 20)
#    0.000    0.909    4.545    3.545    0.000    2.909 
#    0.000    0.000    0.000    6.000    0.000    0.000 
#    0.000    0.000    0.000    0.000    0.000    0.000 
#
# Total GULP energy -245032.912516 kJ/mol
# GULP energy per Si atom -5568.929830 kJ/mol
# Density = 1.916389 g / cm^3
# Si number density = 19.207612 Si / 1000 Ang^3
#
#
#
# Elastic Constant Matrix: (Units=GPa)
#
#
# Indices 1 2 3 4 5 6 
#
# 1 162.5700 85.1544 45.6389 0.0000 0.0000 0.0000
# 2 85.1544 131.2134 62.4488 0.0000 0.0000 0.0000
# 3 45.6389 62.4488 124.4749 0.0000 0.0000 0.0000
# 4 0.0000 0.0000 0.0000 23.0069 0.0000 0.0000
# 5 0.0000 0.0000 0.0000 0.0000 28.3926 0.0000
# 6 0.0000 0.0000 0.0000 0.0000 0.0000 18.2806
#
#
#
# Elastic Compliance Matrix: (Units=1/GPa)
#
#
# Indices 1 2 3 4 5 6 
#
# 1 0.009343 -0.005824 -0.000504 0.000000 0.000000 0.000000
# 2 -0.005824 0.013642 -0.004709 0.000000 0.000000 0.000000
# 3 -0.000504 -0.004709 0.010581 0.000000 0.000000 0.000000
# 4 0.000000 0.000000 0.000000 0.043465 0.000000 0.000000
# 5 0.000000 0.000000 0.000000 0.000000 0.035220 0.000000
# 6 0.000000 0.000000 0.000000 0.000000 0.000000 0.054703
#
#
# Mechanical properties :
#
#
# Convention : Reuss Voigt Hill
#
# Bulk Modulus (GPa) = 87.00963 89.41584 88.21273
# Shear Modulus (GPa) = 25.92586 28.93709 27.43148
#
# Velocity S-wave (km/s) = 3.67791 3.88563 3.78320
# Velocity P-wave (km/s) = 7.96454 8.17216 8.06902
#
# Compressibility (1/GPa) = 0.01149298
#
# Stress axis : x y z
#
# Youngs Moduli (GPa) = 107.03115 73.30533 94.50995
#
# Poissons Ratio (x) = 0.42690 0.04763
# Poissons Ratio (y) = 0.62330 0.44502
# Poissons Ratio (z) = 0.05394 0.34518
#
# Static dielectric constant tensor:
#      x y z
#    x 1.637500 0.000000 0.000000 
#    y 0.000000 1.677670 0.000000 
#    z 0.000000 0.000000 1.682430 
# 
# From -- ./inp_files/50565.got.cif
#   From: 2010.05.17/outbox.cif.g08.bks.cpg/sg74_26_cif.got.tgz:50565.got - 2010.06.03 17:57:02.
