data_PCOD9538470
_publ_section_title
;
Structure prediction by ZEFSAII (Michael W. Deem and Ramdas Pophale) SiO2 
 PCOD9538470
Probable space group: I M M A
;
_chemical_formula_sum "Si O2"
_cell_formula_units_Z 64
_cell_length_a 15.698638
_cell_length_b 8.802721
_cell_length_c 24.215801
_cell_angle_alpha 90.000000
_cell_angle_beta 90.000000
_cell_angle_gamma 90.000000
_cell_volume 3346.399227
_symmetry_space_group_name_H-M "I M M A"
_symmetry_group_IT_number 74
_symmetry_cell_setting 'orthorhombic'
loop_
_space_group_symop_operation_xyz
x,y,z
-x,1/2-y,z
x,-y,-z
-x,1/2+y,-z
-x,-y,-z
x,1/2+y,-z
-x,y,z
x,1/2-y,z
1/2+x,1/2+y,1/2+z
1/2-x,-y,1/2+z
1/2+x,1/2-y,1/2-z
1/2-x,y,1/2-z
1/2-x,1/2-y,1/2-z
1/2+x,y,1/2-z
1/2-x,1/2+y,1/2+z
1/2+x,-y,1/2+z
loop_
_atom_site_type_symbol
_atom_site_label
_atom_site_fract_x
_atom_site_fract_y
_atom_site_fract_z
Si Si1 0.845312 0.431665 0.130507
Si Si2 0.000000 0.568739 0.061098
Si Si3 0.000000 0.566830 0.438977
Si Si4 0.664465 0.568851 0.132485
Si Si5 0.397963 0.929463 0.755063
O O1 0.852884 0.250000 0.125201
O O2 0.917288 0.509975 0.093853
O O3 0.751387 0.487445 0.115301
O O4 0.862174 0.470211 0.194924
O O5 0.000000 0.750000 0.058678
O O6 0.000000 0.500000 0.000000
O O7 0.000000 0.500000 0.500000
O O8 0.915784 0.520916 0.405021
O O9 0.000000 0.750000 0.441813
O O10 0.674448 0.750000 0.128411
O O11 0.642522 0.522804 0.195228
O O12 0.500000 0.950614 0.754607
O O13 0.380598 0.750000 0.764353
#
# Coordination Sequence:
#
# PCOD9538470 Si02
#       5
#    16   8   8  16  16
#     4  11  23  42  65  94 128 165 206 254 307 373
#     4  12  26  45  68  93 123 164 210 260 311 368
#     4  10  24  43  62  85 119 158 206 258 307 360
#     4  11  23  40  61  93 128 162 205 259 313 371
#     4  10  20  37  62  91 125 165 205 249 309 375
#
# _framework density 19.125035
#
# number of rings (size 3 to 8) (size 9 to 14) (size 15 to 20)
#    0.000    1.250    2.500    3.375    0.000    8.000 
#    0.000    2.500    0.000    0.000    0.000    0.000 
#    0.000    0.000    0.000    0.000    0.000    0.000 
#
# Total GULP energy -179007.031956 kJ/mol
# GULP energy per Si atom -5593.969749 kJ/mol
# Density = 1.908151 g / cm^3
# Si number density = 19.125035 Si / 1000 Ang^3
#
#
#
# Elastic Constant Matrix: (Units=GPa)
#
#
# Indices 1 2 3 4 5 6 
#
# 1 165.5597 65.3410 85.2882 0.0000 0.0000 0.0000
# 2 65.3410 76.1477 66.6144 0.0000 0.0000 0.0000
# 3 85.2882 66.6144 142.8687 0.0000 0.0000 0.0000
# 4 0.0000 0.0000 0.0000 36.8113 0.0000 0.0000
# 5 0.0000 0.0000 0.0000 0.0000 -6.0239 0.0000
# 6 0.0000 0.0000 0.0000 0.0000 0.0000 36.0584
#
#
#
# Elastic Compliance Matrix: (Units=1/GPa)
#
#
# Indices 1 2 3 4 5 6 
#
# 1 0.009986 -0.005664 -0.003320 0.000000 0.000000 0.000000
# 2 -0.005664 0.025392 -0.008458 0.000000 0.000000 0.000000
# 3 -0.003320 -0.008458 0.012925 0.000000 0.000000 0.000000
# 4 0.000000 0.000000 0.000000 0.027166 0.000000 0.000000
# 5 0.000000 0.000000 0.000000 0.000000 -0.166007 0.000000
# 6 0.000000 0.000000 0.000000 0.000000 0.000000 0.027733
#
#
# Mechanical properties :
#
#
# Convention : Reuss Voigt Hill
#
# Bulk Modulus (GPa) = 74.52621 91.00703 82.76662
# Shear Modulus (GPa) = -213.24152 24.52466 -94.35843
#
# Velocity S-wave (km/s) = -10.57075 3.58485 -7.03170
# Velocity P-wave (km/s) = 10.48499 8.05130 4.74930
#
# Compressibility (1/GPa) = 0.01341810
#
# Stress axis : x y z
#
# Youngs Moduli (GPa) = 100.13938 39.38291 77.36827
#
# Poissons Ratio (x) = 0.22307 0.25689
# Poissons Ratio (y) = 0.56721 0.65437
# Poissons Ratio (z) = 0.33250 0.33310
#
# Static dielectric constant tensor:
#      x y z
#    x 1.657130 0.000000 0.000000 
#    y 0.000000 1.626850 0.000000 
#    z 0.000000 0.000000 1.630870 
# 
# From -- ./inp_files/56430.got.cif
#   From: 2010.05.17/outbox.cif.g08.bks.cpg/sg74_29_cif.got.tgz:56430.got - 2010.06.03 17:57:02.
