data_PCOD9538862
_publ_section_title
;
Structure prediction by ZEFSAII (Michael W. Deem and Ramdas Pophale) SiO2 
 PCOD9538862
Probable space group: I M M A
;
_chemical_formula_sum "Si O2"
_cell_formula_units_Z 68
_cell_length_a 11.732025
_cell_length_b 21.236238
_cell_length_c 14.933311
_cell_angle_alpha 90.000000
_cell_angle_beta 90.000000
_cell_angle_gamma 90.000000
_cell_volume 3720.545958
_symmetry_space_group_name_H-M "I M M A"
_symmetry_group_IT_number 74
_symmetry_cell_setting 'orthorhombic'
loop_
_space_group_symop_operation_xyz
x,y,z
-x,1/2-y,z
x,-y,-z
-x,1/2+y,-z
-x,-y,-z
x,1/2+y,-z
-x,y,z
x,1/2-y,z
1/2+x,1/2+y,1/2+z
1/2-x,-y,1/2+z
1/2+x,1/2-y,1/2-z
1/2-x,y,1/2-z
1/2-x,1/2-y,1/2-z
1/2+x,y,1/2-z
1/2-x,1/2+y,1/2+z
1/2+x,-y,1/2+z
loop_
_atom_site_type_symbol
_atom_site_label
_atom_site_fract_x
_atom_site_fract_y
_atom_site_fract_z
Si Si1 0.000000 0.750000 0.623738
Si Si2 0.131505 0.824511 0.982898
Si Si3 0.788651 0.176137 0.649180
Si Si4 0.000000 0.907484 0.416980
Si Si5 0.310746 0.357368 0.157839
Si Si6 0.500000 0.050912 0.126064
O O1 0.900333 0.804544 0.627352
O O2 0.138984 0.750000 0.958079
O O3 0.181993 0.830314 0.082241
O O4 0.000000 0.843057 0.977160
O O5 0.213144 0.862289 0.916598
O O6 0.824785 0.250000 0.646464
O O7 0.750000 0.161308 0.750000
O O8 0.890174 0.132978 0.612144
O O9 0.000000 0.923678 0.522882
O O10 0.000000 0.975973 0.371754
O O11 0.250000 0.339107 0.250000
O O12 0.386368 0.419858 0.169196
#
# Coordination Sequence:
#
# PCOD9538862 Si02
#       6
#     4  16  16   8  16   8
#     4  10  22  34  58  90 118 152 206 238 292 342
#     4  10  21  35  55  86 125 155 185 239 310 359
#     4  10  22  38  63  95 118 150 194 253 314 373
#     4  11  21  42  67  81 120 155 204 257 298 353
#     4  11  22  36  58  86 123 154 202 244 290 356
#     4  10  24  40  60  88 110 165 213 245 290 357
#
# _framework density 18.276886999999999
#
# number of rings (size 3 to 8) (size 9 to 14) (size 15 to 20)
#    0.000    1.647    3.529    0.706    4.941    0.941 
#    0.000    0.000    0.000    1.412    0.000    0.000 
#    0.000    0.000    0.000    0.000    0.000    0.000 
#
# Total GULP energy -189292.764391 kJ/mol
# GULP energy per Si atom -5567.434247 kJ/mol
# Density = 1.823529 g / cm^3
# Si number density = 18.276887 Si / 1000 Ang^3
#
#
#
# Elastic Constant Matrix: (Units=GPa)
#
#
# Indices 1 2 3 4 5 6 
#
# 1 155.6661 41.6707 30.5605 0.0000 0.0000 0.0000
# 2 41.6707 71.4614 1.9246 0.0001 0.0000 0.0000
# 3 30.5605 1.9246 65.4352 0.0001 0.0000 0.0000
# 4 0.0000 0.0001 0.0001 10.3349 0.0000 0.0000
# 5 0.0000 0.0000 0.0000 0.0000 7.9310 0.0000
# 6 0.0000 0.0000 0.0000 0.0000 0.0000 7.2658
#
#
#
# Elastic Compliance Matrix: (Units=1/GPa)
#
#
# Indices 1 2 3 4 5 6 
#
# 1 0.008466 -0.004834 -0.003812 0.000000 0.000000 0.000000
# 2 -0.004834 0.016765 0.001765 0.000000 0.000000 0.000000
# 3 -0.003812 0.001765 0.017011 0.000000 0.000000 0.000000
# 4 0.000000 0.000000 0.000000 0.096759 0.000000 0.000000
# 5 0.000000 0.000000 0.000000 0.000000 0.126087 0.000000
# 6 0.000000 0.000000 0.000000 0.000000 0.000000 0.137630
#
#
# Mechanical properties :
#
#
# Convention : Reuss Voigt Hill
#
# Bulk Modulus (GPa) = 35.11350 48.98603 42.04977
# Shear Modulus (GPa) = 11.73777 19.66682 15.70230
#
# Velocity S-wave (km/s) = 2.53695 3.28388 2.93428
# Velocity P-wave (km/s) = 5.27591 6.42175 5.87682
#
# Compressibility (1/GPa) = 0.02847907
#
# Stress axis : x y z
#
# Youngs Moduli (GPa) = 118.11276 59.64790 58.78655
#
# Poissons Ratio (x) = 0.28836 0.22409
# Poissons Ratio (y) = 0.57100 -0.10374
# Poissons Ratio (z) = 0.45024 -0.10526
#
# Static dielectric constant tensor:
#      x y z
#    x 1.609090 0.000000 0.000000 
#    y 0.000000 1.629700 0.000000 
#    z 0.000000 0.000000 1.655100 
# 
# From -- ./inp_files/30496.got.cif
#   From: 2010.05.17/outbox.cif.g08.bks.cpg/sg74_16_cif.got.tgz:30496.got - 2010.06.03 17:57:02.
