data_PCOD9538946
_publ_section_title
;
Structure prediction by ZEFSAII (Michael W. Deem and Ramdas Pophale) SiO2 
 PCOD9538946
Probable space group: I M M A
;
_chemical_formula_sum "Si O2"
_cell_formula_units_Z 88
_cell_length_a 15.401038
_cell_length_b 14.043796
_cell_length_c 22.754229
_cell_angle_alpha 90.000000
_cell_angle_beta 90.000000
_cell_angle_gamma 90.000000
_cell_volume 4921.490252
_symmetry_space_group_name_H-M "I M M A"
_symmetry_group_IT_number 74
_symmetry_cell_setting 'orthorhombic'
loop_
_space_group_symop_operation_xyz
x,y,z
-x,1/2-y,z
x,-y,-z
-x,1/2+y,-z
-x,-y,-z
x,1/2+y,-z
-x,y,z
x,1/2-y,z
1/2+x,1/2+y,1/2+z
1/2-x,-y,1/2+z
1/2+x,1/2-y,1/2-z
1/2-x,y,1/2-z
1/2-x,1/2-y,1/2-z
1/2+x,y,1/2-z
1/2-x,1/2+y,1/2+z
1/2+x,-y,1/2+z
loop_
_atom_site_type_symbol
_atom_site_label
_atom_site_fract_x
_atom_site_fract_y
_atom_site_fract_z
Si Si1 0.500000 0.056825 0.400086
Si Si2 0.836787 0.362765 0.519004
Si Si3 0.169336 0.864793 0.706969
Si Si4 0.861901 0.141884 0.014283
Si Si5 0.000000 0.851574 0.089398
Si Si6 0.601352 0.035454 0.094571
Si Si7 0.000000 0.138270 0.224875
O O1 0.584112 0.077014 0.440715
O O2 0.500000 0.123438 0.344247
O O3 0.500000 0.949460 0.376369
O O4 0.845289 0.250000 0.530994
O O5 0.736432 0.382991 0.501142
O O6 0.890877 0.395150 0.461940
O O7 0.866198 0.432532 0.571438
O O8 0.166949 0.750000 0.695186
O O9 0.250000 0.882041 0.750000
O O10 0.161591 0.920798 0.645724
O O11 0.086127 0.897815 0.744209
O O12 0.862627 0.250000 0.038789
O O13 0.917973 0.144864 0.954673
O O14 0.000000 0.750000 0.120878
O O15 0.500000 0.031615 0.112473
O O16 0.000000 0.250000 0.236489
#
# Coordination Sequence:
#
# PCOD9538946 Si02
#       7
#     8  16  16  16   8  16   8
#     4  11  20  29  55  78 111 155 186 223 275 335
#     4  10  22  35  57  87 115 146 189 237 284 337
#     4  10  22  39  59  84 115 150 186 234 289 342
#     4   9  18  32  48  78 115 144 179 225 276 333
#     4   9  19  31  46  72 112 157 188 220 274 324
#     4  11  23  38  59  82 113 150 188 232 287 347
#     4  10  21  36  55  81 110 140 190 238 283 338
#
# _framework density 17.880763000000002
#
# number of rings (size 3 to 8) (size 9 to 14) (size 15 to 20)
#    0.000    2.000    0.909    4.091    7.636    2.182 
#    0.000    0.000    0.000    1.636    0.000    0.000 
#    0.000    0.000    0.000    0.000    0.000    0.000 
#
# Total GULP energy -245352.310254 kJ/mol
# GULP energy per Si atom -5576.188869 kJ/mol
# Density = 1.784007 g / cm^3
# Si number density = 17.880763 Si / 1000 Ang^3
#
#
#
# Elastic Constant Matrix: (Units=GPa)
#
#
# Indices 1 2 3 4 5 6 
#
# 1 99.0709 43.9651 36.0226 0.0000 0.0000 0.0000
# 2 43.9651 107.7305 30.9452 0.0000 0.0000 0.0000
# 3 36.0226 30.9452 79.5744 0.0000 0.0000 0.0000
# 4 0.0000 0.0000 0.0000 26.0539 0.0000 0.0000
# 5 0.0000 0.0000 0.0000 0.0000 13.5932 0.0000
# 6 0.0000 0.0000 0.0000 0.0000 0.0000 380.9197
#
#
#
# Elastic Compliance Matrix: (Units=1/GPa)
#
#
# Indices 1 2 3 4 5 6 
#
# 1 0.013627 -0.004266 -0.004510 0.000000 0.000000 0.000000
# 2 -0.004266 0.011785 -0.002652 0.000000 0.000000 0.000000
# 3 -0.004510 -0.002652 0.015640 0.000000 0.000000 0.000000
# 4 0.000000 0.000000 0.000000 0.038382 0.000000 0.000000
# 5 0.000000 0.000000 0.000000 0.000000 0.073566 0.000000
# 6 0.000000 0.000000 0.000000 0.000000 0.000000 0.002625
#
#
# Mechanical properties :
#
#
# Convention : Reuss Voigt Hill
#
# Bulk Modulus (GPa) = 54.95569 56.47129 55.71349
# Shear Modulus (GPa) = 27.09364 95.80955 61.45159
#
# Velocity S-wave (km/s) = 3.89683 7.32795 5.86873
# Velocity P-wave (km/s) = 7.14481 10.16116 8.78343
#
# Compressibility (1/GPa) = 0.01819648
#
# Stress axis : x y z
#
# Youngs Moduli (GPa) = 73.38628 84.85362 63.93983
#
# Poissons Ratio (x) = 0.36195 0.28835
# Poissons Ratio (y) = 0.31304 0.16957
# Poissons Ratio (z) = 0.33096 0.22503
#
# Static dielectric constant tensor:
#      x y z
#    x 1.651760 0.000000 0.000000 
#    y 0.000000 1.645740 0.000000 
#    z 0.000000 0.000000 1.574430 
# 
# From -- ./inp_files/59978.got.cif
#   From: 2010.05.17/outbox.cif.g08.bks.cpg/sg74_30_cif.got.tgz:59978.got - 2010.06.03 17:57:02.
