data_PCOD9538234
_publ_section_title
;
Structure prediction by ZEFSAII (Michael W. Deem and Ramdas Pophale) SiO2 
 PCOD9538234
Probable space group: I M M A
;
_chemical_formula_sum "Si O2"
_cell_formula_units_Z 112
_cell_length_a 28.536842
_cell_length_b 17.228434
_cell_length_c 11.970157
_cell_angle_alpha 90.000000
_cell_angle_beta 90.000000
_cell_angle_gamma 90.000000
_cell_volume 5885.069023
_symmetry_space_group_name_H-M "I M M A"
_symmetry_group_IT_number 74
_symmetry_cell_setting 'orthorhombic'
loop_
_space_group_symop_operation_xyz
x,y,z
-x,1/2-y,z
x,-y,-z
-x,1/2+y,-z
-x,-y,-z
x,1/2+y,-z
-x,y,z
x,1/2-y,z
1/2+x,1/2+y,1/2+z
1/2-x,-y,1/2+z
1/2+x,1/2-y,1/2-z
1/2-x,y,1/2-z
1/2-x,1/2-y,1/2-z
1/2+x,y,1/2-z
1/2-x,1/2+y,1/2+z
1/2+x,-y,1/2+z
loop_
_atom_site_type_symbol
_atom_site_label
_atom_site_fract_x
_atom_site_fract_y
_atom_site_fract_z
Si Si1 0.640821 0.840199 0.131755
Si Si2 0.299062 0.069102 0.685901
Si Si3 0.054341 0.590484 0.480525
Si Si4 0.054827 0.158302 0.270488
Si Si5 0.283901 0.659637 0.543345
Si Si6 0.690779 0.418600 0.067448
Si Si7 0.644573 0.918202 0.692052
O O1 0.637821 0.750000 0.155371
O O2 0.669938 0.883192 0.226544
O O3 0.589692 0.875799 0.110098
O O4 0.668330 0.856959 0.016891
O O5 0.250000 0.047801 0.750000
O O6 0.288142 0.121968 0.579180
O O7 0.332206 0.997937 0.647574
O O8 0.065931 0.500000 0.500000
O O9 0.059541 0.635287 0.598376
O O10 0.000000 0.595626 0.446686
O O11 0.066308 0.250000 0.257786
O O12 0.089937 0.103688 0.200307
O O13 0.000000 0.147163 0.241708
O O14 0.272546 0.750000 0.535324
O O15 0.241971 0.611129 0.598753
O O16 0.329565 0.646728 0.618685
O O17 0.660854 0.422169 0.178969
O O18 0.692330 0.500000 0.000000
#
# Coordination Sequence:
#
# PCOD9538234 Si02
#       7
#    16  16  16  16  16  16  16
#     4  12  23  35  60  89 120 163 204 252 304 361
#     4  12  24  43  63  82 121 171 212 246 300 376
#     4  10  20  36  58  88 124 163 206 250 304 374
#     4  10  21  37  59  88 122 156 193 248 318 379
#     4  12  26  40  59  89 122 161 211 259 303 360
#     4  12  22  39  60  88 127 163 201 245 305 368
#     4  12  23  39  65  90 122 159 201 254 310 365
#
# _framework density 19.031212
#
# number of rings (size 3 to 8) (size 9 to 14) (size 15 to 20)
#    0.000    0.571    4.286    5.571    0.000    3.714 
#    0.000    0.000    0.000    2.571    0.000    0.000 
#    0.000    0.000    0.000    0.000    0.000    0.000 
#
# Total GULP energy -312967.570155 kJ/mol
# GULP energy per Si atom -5588.706610 kJ/mol
# Density = 1.898790 g / cm^3
# Si number density = 19.031212 Si / 1000 Ang^3
#
#
#
# Elastic Constant Matrix: (Units=GPa)
#
#
# Indices 1 2 3 4 5 6 
#
# 1 118.2949 55.8458 17.8249 0.0000 0.0000 0.0000
# 2 55.8458 111.0337 17.7508 0.0000 0.0000 0.0000
# 3 17.8249 17.7508 39.9506 0.0000 0.0000 0.0000
# 4 0.0000 0.0000 0.0000 23.8443 0.0000 0.0000
# 5 0.0000 0.0000 0.0000 0.0000 28.3098 0.0000
# 6 0.0000 0.0000 0.0000 0.0000 0.0000 -8.8535
#
#
#
# Elastic Compliance Matrix: (Units=1/GPa)
#
#
# Indices 1 2 3 4 5 6 
#
# 1 0.011354 -0.005276 -0.002722 0.000000 0.000000 0.000000
# 2 -0.005276 0.012146 -0.003043 0.000000 0.000000 0.000000
# 3 -0.002722 -0.003043 0.027597 0.000000 0.000000 0.000000
# 4 0.000000 0.000000 0.000000 0.041939 0.000000 0.000000
# 5 0.000000 0.000000 0.000000 0.000000 0.035323 0.000000
# 6 0.000000 0.000000 0.000000 0.000000 0.000000 -0.112949
#
#
# Mechanical properties :
#
#
# Convention : Reuss Voigt Hill
#
# Bulk Modulus (GPa) = 34.46272 50.23581 42.34927
# Shear Modulus (GPa) = 106.01421 20.51729 63.26575
#
# Velocity S-wave (km/s) = 7.47170 3.28698 5.77194
# Velocity P-wave (km/s) = 9.62201 6.39215 8.16831
#
# Compressibility (1/GPa) = 0.02901686
#
# Stress axis : x y z
#
# Youngs Moduli (GPa) = 88.07365 82.33052 36.23535
#
# Poissons Ratio (x) = 0.43434 0.09863
# Poissons Ratio (y) = 0.46464 0.11026
# Poissons Ratio (z) = 0.23973 0.25053
#
# Static dielectric constant tensor:
#      x y z
#    x 1.692750 0.000000 0.000000 
#    y 0.000000 1.680570 0.000000 
#    z 0.000000 0.000000 1.767340 
# 
# From -- ./inp_files/27179.got.cif
#   From: 2010.05.17/outbox.cif.g08.bks.cpg/sg74_14_cif.got.tgz:27179.got - 2010.06.03 17:57:02.
