data_PCOD9538573
_publ_section_title
;
Structure prediction by ZEFSAII (Michael W. Deem and Ramdas Pophale) SiO2 
 PCOD9538573
Probable space group: I M M A
;
_chemical_formula_sum "Si O2"
_cell_formula_units_Z 96
_cell_length_a 20.504985
_cell_length_b 19.059808
_cell_length_c 11.697225
_cell_angle_alpha 90.000000
_cell_angle_beta 90.000000
_cell_angle_gamma 90.000000
_cell_volume 4571.522074
_symmetry_space_group_name_H-M "I M M A"
_symmetry_group_IT_number 74
_symmetry_cell_setting 'orthorhombic'
loop_
_space_group_symop_operation_xyz
x,y,z
-x,1/2-y,z
x,-y,-z
-x,1/2+y,-z
-x,-y,-z
x,1/2+y,-z
-x,y,z
x,1/2-y,z
1/2+x,1/2+y,1/2+z
1/2-x,-y,1/2+z
1/2+x,1/2-y,1/2-z
1/2-x,y,1/2-z
1/2-x,1/2-y,1/2-z
1/2+x,y,1/2-z
1/2-x,1/2+y,1/2+z
1/2+x,-y,1/2+z
loop_
_atom_site_type_symbol
_atom_site_label
_atom_site_fract_x
_atom_site_fract_y
_atom_site_fract_z
Si Si1 0.299285 0.329574 0.653685
Si Si2 0.572463 0.872709 0.233539
Si Si3 0.571973 0.480582 0.367024
Si Si4 0.075974 0.921523 0.521367
Si Si5 0.193044 0.118834 0.103222
Si Si6 0.331914 0.670183 0.833491
O O1 0.276663 0.250000 0.629575
O O2 0.250000 0.360276 0.750000
O O3 0.369812 0.329675 0.711413
O O4 0.308216 0.367468 0.532118
O O5 0.500000 0.844852 0.256823
O O6 0.581727 0.881096 0.098543
O O7 0.575329 0.950686 0.288250
O O8 0.567221 0.500000 0.500000
O O9 0.500000 0.446127 0.340111
O O10 0.642166 0.442245 0.363175
O O11 0.108304 0.873510 0.616982
O O12 0.000000 0.931043 0.549145
O O13 0.103784 0.000000 0.500000
O O14 0.270058 0.121761 0.130812
O O15 0.167966 0.175251 0.196184
O O16 0.326585 0.750000 0.879119
#
# Coordination Sequence:
#
# PCOD9538573 Si02
#       6
#    16  16  16  16  16  16
#     4  11  23  39  59  86 122 163 205 255 313 377
#     4  10  21  39  62  90 122 158 202 256 315 374
#     4  10  20  38  63  91 124 161 203 256 317 380
#     4  10  22  42  66  93 126 163 210 265 315 373
#     4  11  22  40  63  89 125 164 208 261 317 375
#     4  11  24  42  64  91 126 169 215 263 319 379
#
# _framework density 20.999569999999999
#
# number of rings (size 3 to 8) (size 9 to 14) (size 15 to 20)
#    0.000    1.500    1.667    4.000    0.000    5.333 
#    6.000    1.667    0.000    5.500    0.000    0.000 
#    0.000    0.000    0.000    0.000    0.000    0.000 
#
# Total GULP energy -267345.703355 kJ/mol
# GULP energy per Si atom -5569.702153 kJ/mol
# Density = 2.095177 g / cm^3
# Si number density = 20.999570 Si / 1000 Ang^3
#
#
#
# Elastic Constant Matrix: (Units=GPa)
#
#
# Indices 1 2 3 4 5 6 
#
# 1 81.0491 30.9572 44.2034 0.0000 0.0000 0.0000
# 2 30.9572 44.9687 12.6115 0.0000 0.0000 0.0000
# 3 44.2034 12.6115 122.6680 0.0000 0.0000 0.0000
# 4 0.0000 0.0000 0.0000 17.6654 0.0000 0.0000
# 5 0.0000 0.0000 0.0000 0.0000 39.4500 0.0000
# 6 0.0000 0.0000 0.0000 0.0000 0.0000 -4.2471
#
#
#
# Elastic Compliance Matrix: (Units=1/GPa)
#
#
# Indices 1 2 3 4 5 6 
#
# 1 0.020347 -0.012306 -0.006067 0.000000 0.000000 0.000000
# 2 -0.012306 0.030341 0.001315 0.000000 0.000000 0.000000
# 3 -0.006067 0.001315 0.010203 0.000000 0.000000 0.000000
# 4 0.000000 0.000000 0.000000 0.056608 0.000000 0.000000
# 5 0.000000 0.000000 0.000000 0.000000 0.025349 0.000000
# 6 0.000000 0.000000 0.000000 0.000000 0.000000 -0.235457
#
#
# Mechanical properties :
#
#
# Convention : Reuss Voigt Hill
#
# Bulk Modulus (GPa) = 37.34782 47.13668 42.24225
# Shear Modulus (GPa) = -100.87003 21.30125 -39.78439
#
# Velocity S-wave (km/s) = -6.93820 3.18837 -4.35735
# Velocity P-wave (km/s) = 6.80890 6.00412 2.27065
#
# Compressibility (1/GPa) = 0.02677533
#
# Stress axis : x y z
#
# Youngs Moduli (GPa) = 49.14625 32.95924 98.00925
#
# Poissons Ratio (x) = 0.40560 0.59462
# Poissons Ratio (y) = 0.60479 -0.12890
# Poissons Ratio (z) = 0.29817 -0.04335
#
# Static dielectric constant tensor:
#      x y z
#    x 1.780410 0.000000 0.000000 
#    y 0.000000 1.853900 0.000000 
#    z 0.000000 0.000000 1.777870 
# 
# From -- ./inp_files/23938.got.cif
#   From: 2010.05.17/outbox.cif.g08.bks.cpg/sg74_12_cif.got.tgz:23938.got - 2010.06.03 17:57:02.
