data_PCOD9538620
_publ_section_title
;
Structure prediction by ZEFSAII (Michael W. Deem and Ramdas Pophale) SiO2 
 PCOD9538620
Probable space group: I M M A
;
_chemical_formula_sum "Si O2"
_cell_formula_units_Z 104
_cell_length_a 23.565292
_cell_length_b 26.802705
_cell_length_c 7.845260
_cell_angle_alpha 90.000000
_cell_angle_beta 90.000000
_cell_angle_gamma 90.000000
_cell_volume 4955.172674
_symmetry_space_group_name_H-M "I M M A"
_symmetry_group_IT_number 74
_symmetry_cell_setting 'orthorhombic'
loop_
_space_group_symop_operation_xyz
x,y,z
-x,1/2-y,z
x,-y,-z
-x,1/2+y,-z
-x,-y,-z
x,1/2+y,-z
-x,y,z
x,1/2-y,z
1/2+x,1/2+y,1/2+z
1/2-x,-y,1/2+z
1/2+x,1/2-y,1/2-z
1/2-x,y,1/2-z
1/2-x,1/2-y,1/2-z
1/2+x,y,1/2-z
1/2-x,1/2+y,1/2+z
1/2+x,-y,1/2+z
loop_
_atom_site_type_symbol
_atom_site_label
_atom_site_fract_x
_atom_site_fract_y
_atom_site_fract_z
Si Si1 0.886498 0.639305 0.426100
Si Si2 0.817041 0.137955 0.220658
Si Si3 0.500000 0.809735 0.942574
Si Si4 0.063448 0.532000 0.327597
Si Si5 0.166287 0.472475 0.222509
Si Si6 0.876813 0.809491 0.085915
Si Si7 0.742432 0.500000 0.000000
Si Si8 0.000000 0.189456 0.045295
O O1 0.849632 0.642312 0.598682
O O2 0.944104 0.669426 0.467907
O O3 0.906085 0.583538 0.376427
O O4 0.858063 0.663847 0.259994
O O5 0.750000 0.142868 0.250000
O O6 0.830880 0.082517 0.147442
O O7 0.840425 0.175963 0.079730
O O8 0.500000 0.750000 0.948670
O O9 0.500000 0.826189 0.743712
O O10 0.058307 0.500000 0.500000
O O11 0.105528 0.497336 0.219676
O O12 0.000000 0.540265 0.258394
O O13 0.197838 0.464127 0.406246
O O14 0.209537 0.512124 0.139869
O O15 0.876603 0.750000 0.109144
O O16 0.941823 0.826296 0.045065
O O17 0.000000 0.250000 0.045262
#
# Coordination Sequence:
#
# PCOD9538620 Si02
#       8
#    16  16   8  16  16  16   8   8
#     4  12  24  43  72 104 140 185 229 285 356 421
#     4  12  26  46  68 100 136 187 240 290 351 413
#     4  11  21  41  74 104 136 187 235 282 351 422
#     4  11  23  40  64 100 142 176 218 276 353 424
#     4  11  22  42  64  99 131 180 226 286 338 411
#     4  11  26  46  71 104 138 177 235 298 353 421
#     4  10  20  38  68  88 128 168 238 278 328 388
#     4   9  19  41  71 100 130 167 224 290 344 414
#
# _framework density 20.988168000000002
#
# number of rings (size 3 to 8) (size 9 to 14) (size 15 to 20)
#    0.000    0.923    6.154    0.923    2.154    2.154 
#    1.385    1.154    0.000    0.000    0.000    0.000 
#    0.000    0.000    0.000    0.000    0.000    0.000 
#
# Total GULP energy -289908.405089 kJ/mol
# GULP energy per Si atom -5575.161636 kJ/mol
# Density = 2.094040 g / cm^3
# Si number density = 20.988168 Si / 1000 Ang^3
#
#
#
# Elastic Constant Matrix: (Units=GPa)
#
#
# Indices 1 2 3 4 5 6 
#
# 1 146.1414 29.9425 41.7062 0.0000 0.0000 0.0000
# 2 29.9425 88.7853 29.1603 0.0000 0.0000 0.0000
# 3 41.7062 29.1603 92.6418 0.0000 0.0000 0.0000
# 4 0.0000 0.0000 0.0000 29.6476 0.0000 0.0000
# 5 0.0000 0.0000 0.0000 0.0000 76.5882 0.0000
# 6 0.0000 0.0000 0.0000 0.0000 0.0000 13.3610
#
#
#
# Elastic Compliance Matrix: (Units=1/GPa)
#
#
# Indices 1 2 3 4 5 6 
#
# 1 0.008077 -0.001706 -0.003099 0.000000 0.000000 0.000000
# 2 -0.001706 0.012922 -0.003299 0.000000 0.000000 0.000000
# 3 -0.003099 -0.003299 0.013228 0.000000 0.000000 0.000000
# 4 0.000000 0.000000 0.000000 0.033730 0.000000 0.000000
# 5 0.000000 0.000000 0.000000 0.000000 0.013057 0.000000
# 6 0.000000 0.000000 0.000000 0.000000 0.000000 0.074845
#
#
# Mechanical properties :
#
#
# Convention : Reuss Voigt Hill
#
# Bulk Modulus (GPa) = 55.50047 58.79852 57.14949
# Shear Modulus (GPa) = 28.07846 39.03665 33.55755
#
# Velocity S-wave (km/s) = 3.66159 4.31738 4.00294
# Velocity P-wave (km/s) = 6.66164 7.27522 6.97518
#
# Compressibility (1/GPa) = 0.01801787
#
# Stress axis : x y z
#
# Youngs Moduli (GPa) = 123.81403 77.38673 75.59754
#
# Poissons Ratio (x) = 0.13202 0.23428
# Poissons Ratio (y) = 0.21123 0.24943
# Poissons Ratio (z) = 0.38370 0.25533
#
# Static dielectric constant tensor:
#      x y z
#    x 1.759560 0.000000 0.000000 
#    y 0.000000 1.749170 0.000000 
#    z 0.000000 0.000000 2.331590 
# 
# From -- ./inp_files/14188.got.cif
#   From: 2010.05.17/outbox.cif.g08.bks.cpg/sg74_8_cif.got.tgz:14188.got - 2010.06.03 17:57:02.
