data_PCOD9538344
_publ_section_title
;
Structure prediction by ZEFSAII (Michael W. Deem and Ramdas Pophale) SiO2 
 PCOD9538344
Probable space group: I M M A
;
_chemical_formula_sum "Si O2"
_cell_formula_units_Z 72
_cell_length_a 8.736566
_cell_length_b 17.636199
_cell_length_c 22.568126
_cell_angle_alpha 90.000000
_cell_angle_beta 90.000000
_cell_angle_gamma 90.000000
_cell_volume 3477.292714
_symmetry_space_group_name_H-M "I M M A"
_symmetry_group_IT_number 74
_symmetry_cell_setting 'orthorhombic'
loop_
_space_group_symop_operation_xyz
x,y,z
-x,1/2-y,z
x,-y,-z
-x,1/2+y,-z
-x,-y,-z
x,1/2+y,-z
-x,y,z
x,1/2-y,z
1/2+x,1/2+y,1/2+z
1/2-x,-y,1/2+z
1/2+x,1/2-y,1/2-z
1/2-x,y,1/2-z
1/2-x,1/2-y,1/2-z
1/2+x,y,1/2-z
1/2-x,1/2+y,1/2+z
1/2+x,-y,1/2+z
loop_
_atom_site_type_symbol
_atom_site_label
_atom_site_fract_x
_atom_site_fract_y
_atom_site_fract_z
Si Si1 0.819858 0.985886 0.188415
Si Si2 0.822617 0.660074 0.017445
Si Si3 0.680458 0.337990 0.854655
Si Si4 0.183276 0.894476 0.602981
Si Si5 0.184186 0.250000 0.316216
O O1 0.750000 0.014789 0.250000
O O2 0.778992 0.897585 0.181834
O O3 0.000000 0.998175 0.187298
O O4 0.739910 0.029989 0.134903
O O5 0.815575 0.750000 0.003296
O O6 0.758629 0.616316 0.960974
O O7 0.000000 0.640572 0.029482
O O8 0.723442 0.649164 0.076444
O O9 0.500000 0.351122 0.845109
O O10 0.715050 0.250000 0.841195
O O11 0.229001 0.824182 0.645818
O O12 0.000000 0.893716 0.597181
O O13 0.250000 0.250000 0.250000
O O14 0.000000 0.250000 0.311819
#
# Coordination Sequence:
#
# PCOD9538344 Si02
#       5
#    16  16  16  16   8
#     4  12  26  44  64  90 124 162 206 256 310 367
#     4  10  20  36  61  94 129 164 204 253 306 365
#     4  10  22  42  68  95 123 159 202 253 312 371
#     4  11  22  39  61  89 124 166 210 254 306 361
#     4  10  22  36  56  84 118 162 209 252 297 354
#
# _framework density 20.705763000000001
#
# number of rings (size 3 to 8) (size 9 to 14) (size 15 to 20)
#    0.000    1.333    1.111    4.667    0.000    7.111 
#    0.000    4.444    0.000    0.000    0.000    0.000 
#    0.000    0.000    0.000    0.000    0.000    0.000 
#
# Total GULP energy -201437.759601 kJ/mol
# GULP energy per Si atom -5595.493322 kJ/mol
# Density = 2.065864 g / cm^3
# Si number density = 20.705763 Si / 1000 Ang^3
#
#
#
# Elastic Constant Matrix: (Units=GPa)
#
#
# Indices 1 2 3 4 5 6 
#
# 1 45.0054 1.7813 -15.2389 0.0000 0.0000 0.0000
# 2 1.7813 43.8123 -7.0753 0.0000 0.0000 0.0000
# 3 -15.2389 -7.0753 27.7519 0.0000 0.0000 0.0000
# 4 0.0000 0.0000 0.0000 29.5191 0.0000 0.0000
# 5 0.0000 0.0000 0.0000 0.0000 35.1293 0.0000
# 6 0.0000 0.0000 0.0000 0.0000 0.0000 24.1574
#
#
#
# Elastic Compliance Matrix: (Units=1/GPa)
#
#
# Indices 1 2 3 4 5 6 
#
# 1 0.027373 0.001371 0.015380 0.000000 0.000000 0.000000
# 2 0.001371 0.023873 0.006839 0.000000 0.000000 0.000000
# 3 0.015380 0.006839 0.046223 0.000000 0.000000 0.000000
# 4 0.000000 0.000000 0.000000 0.033876 0.000000 0.000000
# 5 0.000000 0.000000 0.000000 0.000000 0.028466 0.000000
# 6 0.000000 0.000000 0.000000 0.000000 0.000000 0.041395
#
#
# Mechanical properties :
#
#
# Convention : Reuss Voigt Hill
#
# Bulk Modulus (GPa) = 6.91322 8.38931 7.65127
# Shear Modulus (GPa) = 24.72275 26.90132 25.81204
#
# Velocity S-wave (km/s) = 3.45918 3.60838 3.53457
# Velocity P-wave (km/s) = 4.39325 4.62828 4.51230
#
# Compressibility (1/GPa) = 0.14465030
#
# Stress axis : x y z
#
# Youngs Moduli (GPa) = 36.53216 41.88766 21.63437
#
# Poissons Ratio (x) = -0.05742 -0.33275
# Poissons Ratio (y) = -0.05008 -0.14796
# Poissons Ratio (z) = -0.56188 -0.28648
#
# Static dielectric constant tensor:
#      x y z
#    x 1.683130 0.000000 0.000000 
#    y 0.000000 1.759180 0.000000 
#    z 0.000000 0.000000 1.771930 
# 
# From -- ./inp_files/56702.got.cif
#   From: 2010.05.17/outbox.cif.g08.bks.cpg/sg74_29_cif.got.tgz:56702.got - 2010.06.03 17:57:02.
