data_PCOD9538651
_publ_section_title
;
Structure prediction by ZEFSAII (Michael W. Deem and Ramdas Pophale) SiO2 
 PCOD9538651
Probable space group: I M M A
;
_chemical_formula_sum "Si O2"
_cell_formula_units_Z 116
_cell_length_a 25.238024
_cell_length_b 17.757325
_cell_length_c 13.446212
_cell_angle_alpha 90.000000
_cell_angle_beta 90.000000
_cell_angle_gamma 90.000000
_cell_volume 6026.051607
_symmetry_space_group_name_H-M "I M M A"
_symmetry_group_IT_number 74
_symmetry_cell_setting 'orthorhombic'
loop_
_space_group_symop_operation_xyz
x,y,z
-x,1/2-y,z
x,-y,-z
-x,1/2+y,-z
-x,-y,-z
x,1/2+y,-z
-x,y,z
x,1/2-y,z
1/2+x,1/2+y,1/2+z
1/2-x,-y,1/2+z
1/2+x,1/2-y,1/2-z
1/2-x,y,1/2-z
1/2-x,1/2-y,1/2-z
1/2+x,y,1/2-z
1/2-x,1/2+y,1/2+z
1/2+x,-y,1/2+z
loop_
_atom_site_type_symbol
_atom_site_label
_atom_site_fract_x
_atom_site_fract_y
_atom_site_fract_z
Si Si1 0.440363 0.530550 0.611831
Si Si2 0.655671 0.339433 0.097351
Si Si3 0.560684 0.911316 0.021096
Si Si4 0.334232 0.410145 0.313824
Si Si5 0.418565 0.884547 0.253997
Si Si6 0.802327 0.085369 0.813912
Si Si7 0.500000 0.750000 0.297859
Si Si8 0.231902 0.661255 0.985648
O O1 0.432259 0.500000 0.500000
O O2 0.500000 0.561767 0.618504
O O3 0.393386 0.586630 0.640606
O O4 0.435134 0.459992 0.686638
O O5 0.655322 0.250000 0.113383
O O6 0.663168 0.380499 0.202154
O O7 0.706205 0.357508 0.028314
O O8 0.602409 0.366188 0.044413
O O9 0.500000 0.891107 0.996947
O O10 0.570246 0.895338 0.137257
O O11 0.567706 0.000000 0.000000
O O12 0.312553 0.495627 0.314232
O O13 0.297216 0.359735 0.383242
O O14 0.355587 0.876738 0.271150
O O15 0.453658 0.815980 0.292813
O O16 0.750000 0.102383 0.750000
O O17 0.792995 0.113671 0.925478
O O18 0.226690 0.750000 0.005904
#
# Coordination Sequence:
#
# PCOD9538651 Si02
#       8
#    16  16  16  16  16  16   4  16
#     4  10  20  39  64  92 122 158 210 266 317 365
#     4  11  25  41  64  93 127 168 209 262 323 378
#     4  11  23  41  65  94 126 165 214 261 311 377
#     4  11  22  40  67  90 121 165 214 261 312 385
#     4  11  23  40  63  92 124 169 205 253 314 379
#     4  11  23  40  64  95 124 159 210 266 315 371
#     4  12  24  40  62  88 128 174 210 246 308 416
#     4  11  24  42  61  89 127 164 207 257 321 390
#
# _framework density 19.249752999999998
#
# number of rings (size 3 to 8) (size 9 to 14) (size 15 to 20)
#    0.000    1.103    1.379    6.207    1.931    4.414 
#    0.000    0.000    0.000    1.241    0.000    0.000 
#    0.000    0.000    0.000    0.000    0.000    0.000 
#
# Total GULP energy -323819.600596 kJ/mol
# GULP energy per Si atom -5583.096562 kJ/mol
# Density = 1.920594 g / cm^3
# Si number density = 19.249753 Si / 1000 Ang^3
#
#
#
# Elastic Constant Matrix: (Units=GPa)
#
#
# Indices 1 2 3 4 5 6 
#
# 1 147.3000 40.2509 18.3499 0.0000 0.0000 0.0000
# 2 40.2509 50.7058 20.7824 0.0000 0.0000 0.0000
# 3 18.3499 20.7824 73.6334 0.0000 0.0000 0.0000
# 4 0.0000 0.0000 0.0000 -0.5181 0.0000 0.0000
# 5 0.0000 0.0000 0.0000 0.0000 29.9866 0.0000
# 6 0.0000 0.0000 0.0000 0.0000 0.0000 15.0503
#
#
#
# Elastic Compliance Matrix: (Units=1/GPa)
#
#
# Indices 1 2 3 4 5 6 
#
# 1 0.008673 -0.006784 -0.000247 0.000000 0.000000 0.000000
# 2 -0.006784 0.027607 -0.006101 0.000000 0.000000 0.000000
# 3 -0.000247 -0.006101 0.015364 0.000000 0.000000 0.000000
# 4 0.000000 0.000000 0.000000 -1.929949 0.000000 0.000000
# 5 0.000000 0.000000 0.000000 0.000000 0.033348 0.000000
# 6 0.000000 0.000000 0.000000 0.000000 0.000000 0.066444
#
#
# Mechanical properties :
#
#
# Convention : Reuss Voigt Hill
#
# Bulk Modulus (GPa) = 39.39936 47.82283 43.61110
# Shear Modulus (GPa) = -2.86732 21.72082 9.42675
#
# Velocity S-wave (km/s) = -1.22179 3.36276 2.21533
# Velocity P-wave (km/s) = 4.30367 6.32257 5.40816
#
# Compressibility (1/GPa) = 0.02538112
#
# Stress axis : x y z
#
# Youngs Moduli (GPa) = 115.29565 36.22212 65.08573
#
# Poissons Ratio (x) = 0.24573 0.01606
# Poissons Ratio (y) = 0.78215 0.39711
# Poissons Ratio (z) = 0.02845 0.22100
#
# Static dielectric constant tensor:
#      x y z
#    x 1.688820 0.000000 0.000000 
#    y 0.000000 1.639000 0.000000 
#    z 0.000000 0.000000 1.643760 
# 
# From -- ./inp_files/26410.got.cif
#   From: 2010.05.17/outbox.cif.g08.bks.cpg/sg74_14_cif.got.tgz:26410.got - 2010.06.03 17:57:02.
