data_PCOD9538354
_publ_section_title
;
Structure prediction by ZEFSAII (Michael W. Deem and Ramdas Pophale) SiO2 
 PCOD9538354
Probable space group: I M M A
;
_chemical_formula_sum "Si O2"
_cell_formula_units_Z 96
_cell_length_a 19.859931
_cell_length_b 25.372258
_cell_length_c 9.778750
_cell_angle_alpha 90.000000
_cell_angle_beta 90.000000
_cell_angle_gamma 90.000000
_cell_volume 4927.426983
_symmetry_space_group_name_H-M "I M M A"
_symmetry_group_IT_number 74
_symmetry_cell_setting 'orthorhombic'
loop_
_space_group_symop_operation_xyz
x,y,z
-x,1/2-y,z
x,-y,-z
-x,1/2+y,-z
-x,-y,-z
x,1/2+y,-z
-x,y,z
x,1/2-y,z
1/2+x,1/2+y,1/2+z
1/2-x,-y,1/2+z
1/2+x,1/2-y,1/2-z
1/2-x,y,1/2-z
1/2-x,1/2-y,1/2-z
1/2+x,y,1/2-z
1/2-x,1/2+y,1/2+z
1/2+x,-y,1/2+z
loop_
_atom_site_type_symbol
_atom_site_label
_atom_site_fract_x
_atom_site_fract_y
_atom_site_fract_z
Si Si1 0.185747 0.984746 0.341690
Si Si2 0.576433 0.150538 0.452483
Si Si3 0.798906 0.639218 0.371044
Si Si4 0.578738 0.970633 0.637658
Si Si5 0.576147 0.188400 0.756113
Si Si6 0.780774 0.191502 0.100306
O O1 0.250000 0.000609 0.250000
O O2 0.183015 0.921283 0.341633
O O3 0.192194 0.000000 0.500000
O O4 0.122142 0.010926 0.266460
O O5 0.500000 0.169557 0.423228
O O6 0.582592 0.091349 0.395719
O O7 0.584280 0.154411 0.617316
O O8 0.639321 0.182498 0.394809
O O9 0.750000 0.658238 0.250000
O O10 0.867505 0.671930 0.363316
O O11 0.756381 0.648425 0.507474
O O12 0.500000 0.984425 0.657425
O O13 0.603148 0.000000 0.500000
O O14 0.500000 0.180608 0.806739
O O15 0.583609 0.250000 0.718450
O O16 0.767745 0.250000 0.041423
O O17 0.750000 0.189229 0.250000
#
# Coordination Sequence:
#
# PCOD9538354 Si02
#       6
#    16  16  16  16  16  16
#     4  11  26  40  62  92 122 165 209 260 314 376
#     4  10  21  37  63  93 122 161 205 252 308 366
#     4  11  23  39  61  92 121 159 204 258 314 364
#     4  10  22  40  63  90 125 164 206 257 311 372
#     4  10  20  36  62  94 125 161 208 260 313 371
#     4  11  25  41  62  92 127 166 205 252 314 379
#
# _framework density 19.482785
#
# number of rings (size 3 to 8) (size 9 to 14) (size 15 to 20)
#    0.000    1.500    1.667    2.500    7.000    4.000 
#    0.000    0.833    0.000    1.000    0.000    0.000 
#    0.000    0.000    0.000    0.000    0.000    0.000 
#
# Total GULP energy -268078.644883 kJ/mol
# GULP energy per Si atom -5584.971768 kJ/mol
# Density = 1.943844 g / cm^3
# Si number density = 19.482785 Si / 1000 Ang^3
#
#
#
# Elastic Constant Matrix: (Units=GPa)
#
#
# Indices 1 2 3 4 5 6 
#
# 1 127.0825 32.8382 50.7464 0.0000 0.0000 0.0000
# 2 32.8382 44.4663 18.1322 0.0000 0.0000 0.0000
# 3 50.7464 18.1322 90.5270 0.0000 0.0000 0.0000
# 4 0.0000 0.0000 0.0000 37.2968 0.0000 0.0000
# 5 0.0000 0.0000 0.0000 0.0000 33.9684 0.0000
# 6 0.0000 0.0000 0.0000 0.0000 0.0000 19.9234
#
#
#
# Elastic Compliance Matrix: (Units=1/GPa)
#
#
# Indices 1 2 3 4 5 6 
#
# 1 0.011622 -0.006453 -0.005222 0.000000 0.000000 0.000000
# 2 -0.006453 0.028072 -0.002005 0.000000 0.000000 0.000000
# 3 -0.005222 -0.002005 0.014376 0.000000 0.000000 0.000000
# 4 0.000000 0.000000 0.000000 0.026812 0.000000 0.000000
# 5 0.000000 0.000000 0.000000 0.000000 0.029439 0.000000
# 6 0.000000 0.000000 0.000000 0.000000 0.000000 0.050192
#
#
# Mechanical properties :
#
#
# Convention : Reuss Voigt Hill
#
# Bulk Modulus (GPa) = 37.44183 51.72326 44.58255
# Shear Modulus (GPa) = 25.40948 28.92831 27.16890
#
# Velocity S-wave (km/s) = 3.61529 3.85751 3.73836
# Velocity P-wave (km/s) = 6.05696 6.81515 6.44721
#
# Compressibility (1/GPa) = 0.02670809
#
# Stress axis : x y z
#
# Youngs Moduli (GPa) = 86.04579 35.62236 69.56277
#
# Poissons Ratio (x) = 0.22987 0.36327
# Poissons Ratio (y) = 0.55526 0.13950
# Poissons Ratio (z) = 0.44935 0.07144
#
# Static dielectric constant tensor:
#      x y z
#    x 1.701350 0.000000 0.000000 
#    y 0.000000 1.693250 0.000000 
#    z 0.000000 0.000000 1.644330 
# 
# From -- ./inp_files/12694.got.cif
#   From: 2010.05.17/outbox.cif.g08.bks.cpg/sg74_7_cif.got.tgz:12694.got - 2010.06.03 17:57:02.
