data_PCOD9538730
_publ_section_title
;
Structure prediction by ZEFSAII (Michael W. Deem and Ramdas Pophale) SiO2 
 PCOD9538730
Probable space group: I M M A
;
_chemical_formula_sum "Si O2"
_cell_formula_units_Z 60
_cell_length_a 10.062993
_cell_length_b 26.388831
_cell_length_c 11.111566
_cell_angle_alpha 90.000000
_cell_angle_beta 90.000000
_cell_angle_gamma 90.000000
_cell_volume 2950.683259
_symmetry_space_group_name_H-M "I M M A"
_symmetry_group_IT_number 74
_symmetry_cell_setting 'orthorhombic'
loop_
_space_group_symop_operation_xyz
x,y,z
-x,1/2-y,z
x,-y,-z
-x,1/2+y,-z
-x,-y,-z
x,1/2+y,-z
-x,y,z
x,1/2-y,z
1/2+x,1/2+y,1/2+z
1/2-x,-y,1/2+z
1/2+x,1/2-y,1/2-z
1/2-x,y,1/2-z
1/2-x,1/2-y,1/2-z
1/2+x,y,1/2-z
1/2-x,1/2+y,1/2+z
1/2+x,-y,1/2+z
loop_
_atom_site_type_symbol
_atom_site_label
_atom_site_fract_x
_atom_site_fract_y
_atom_site_fract_z
Si Si1 0.500000 0.590270 0.886316
Si Si2 0.654171 0.750000 0.133654
Si Si3 0.500000 0.480035 0.787241
Si Si4 0.500000 0.500000 0.500000
Si Si5 0.250000 0.086379 0.750000
Si Si6 0.757779 0.646536 0.483896
Si Si7 0.000000 0.616742 0.894907
O O1 0.500000 0.529442 0.870953
O O2 0.500000 0.607371 0.747499
O O3 0.628876 0.611954 0.954340
O O4 0.500000 0.750000 0.172014
O O5 0.750000 0.750000 0.250000
O O6 0.682906 0.700314 0.054141
O O7 0.500000 0.490931 0.644503
O O8 0.633316 0.448046 0.803714
O O9 0.500000 0.436847 0.469016
O O10 0.293606 0.121278 0.640084
O O11 0.631763 0.647215 0.570230
#
# Coordination Sequence:
#
# PCOD9538730 Si02
#       7
#     8   8   8   4   8  16   8
#     4  11  27  45  68 102 154 195 233 298 365 453
#     4  12  28  48  79 109 144 190 247 314 378 428
#     4  11  26  38  64 101 142 189 234 279 369 429
#     4  10  20  42  62  94 142 184 242 278 334 446
#     4  12  24  41  68 106 136 185 234 308 360 438
#     4  12  25  47  72 105 145 182 252 307 367 440
#     4  11  25  43  73 102 142 202 232 296 362 445
#
# _framework density 20.334273
#
# number of rings (size 3 to 8) (size 9 to 14) (size 15 to 20)
#    0.000    0.533    5.333    1.600    9.333    2.133 
#    0.000    4.000    0.000    0.000    0.000    0.000 
#    0.000    0.000    0.000    0.000    0.000    0.000 
#
# Total GULP energy -167166.365537 kJ/mol
# GULP energy per Si atom -5572.212185 kJ/mol
# Density = 2.028799 g / cm^3
# Si number density = 20.334273 Si / 1000 Ang^3
#
#
#
# Elastic Constant Matrix: (Units=GPa)
#
#
# Indices 1 2 3 4 5 6 
#
# 1 135.4102 42.9047 25.3212 0.0000 -0.0001 0.0000
# 2 42.9047 125.9635 45.9327 0.0000 0.0000 0.0000
# 3 25.3212 45.9327 123.7044 -0.0001 0.0003 0.0000
# 4 0.0000 0.0000 -0.0001 34.8535 0.0001 0.0000
# 5 -0.0001 0.0000 0.0003 0.0001 40.3777 -0.0001
# 6 0.0000 0.0000 0.0000 0.0000 -0.0001 5.0713
#
#
#
# Elastic Compliance Matrix: (Units=1/GPa)
#
#
# Indices 1 2 3 4 5 6 
#
# 1 0.008339 -0.002565 -0.000754 0.000000 0.000000 0.000000
# 2 -0.002565 0.009971 -0.003177 0.000000 0.000000 0.000000
# 3 -0.000754 -0.003177 0.009418 0.000000 0.000000 0.000000
# 4 0.000000 0.000000 0.000000 0.028692 0.000000 0.000000
# 5 0.000000 0.000000 0.000000 0.000000 0.024766 0.000001
# 6 0.000000 0.000000 0.000000 0.000000 0.000001 0.197187
#
#
# Mechanical properties :
#
#
# Convention : Reuss Voigt Hill
#
# Bulk Modulus (GPa) = 67.86973 68.15504 68.01239
# Shear Modulus (GPa) = 16.87605 34.12179 25.49892
#
# Velocity S-wave (km/s) = 2.88398 4.10084 3.54501
# Velocity P-wave (km/s) = 6.67377 7.48415 7.09055
#
# Compressibility (1/GPa) = 0.01473411
#
# Stress axis : x y z
#
# Youngs Moduli (GPa) = 119.92095 100.28920 106.17993
#
# Poissons Ratio (x) = 0.25726 0.08010
# Poissons Ratio (y) = 0.30762 0.33737
# Poissons Ratio (z) = 0.09047 0.31865
#
# Static dielectric constant tensor:
#      x y z
#    x 1.711780 0.000000 0.000000 
#    y 0.000000 1.733350 0.000000 
#    z 0.000000 0.000000 1.691890 
# 
# From -- ./inp_files/17390.got.cif
#   From: 2010.05.17/outbox.cif.g08.bks.cpg/sg74_9_cif.got.tgz:17390.got - 2010.06.03 17:57:02.
