data_PCOD9538881
_publ_section_title
;
Structure prediction by ZEFSAII (Michael W. Deem and Ramdas Pophale) SiO2 
 PCOD9538881
Probable space group: I M M A
;
_chemical_formula_sum "Si O2"
_cell_formula_units_Z 96
_cell_length_a 13.778244
_cell_length_b 21.266229
_cell_length_c 12.775167
_cell_angle_alpha 90.000000
_cell_angle_beta 90.000000
_cell_angle_gamma 90.000000
_cell_volume 3743.268190
_symmetry_space_group_name_H-M "I M M A"
_symmetry_group_IT_number 74
_symmetry_cell_setting 'orthorhombic'
loop_
_space_group_symop_operation_xyz
x,y,z
-x,1/2-y,z
x,-y,-z
-x,1/2+y,-z
-x,-y,-z
x,1/2+y,-z
-x,y,z
x,1/2-y,z
1/2+x,1/2+y,1/2+z
1/2-x,-y,1/2+z
1/2+x,1/2-y,1/2-z
1/2-x,y,1/2-z
1/2-x,1/2-y,1/2-z
1/2+x,y,1/2-z
1/2-x,1/2+y,1/2+z
1/2+x,-y,1/2+z
loop_
_atom_site_type_symbol
_atom_site_label
_atom_site_fract_x
_atom_site_fract_y
_atom_site_fract_z
Si Si1 0.393019 0.652716 0.694126
Si Si2 0.887267 0.677556 0.260045
Si Si3 0.178087 0.580663 0.430425
Si Si4 0.307190 0.681478 0.912286
Si Si5 0.103881 0.584894 0.084829
Si Si6 0.635242 0.488512 0.233733
O O1 0.500000 0.672734 0.660235
O O2 0.358916 0.685026 0.800795
O O3 0.306276 0.665920 0.612447
O O4 0.396607 0.579979 0.730868
O O5 0.858636 0.750000 0.267536
O O6 0.826935 0.630413 0.333495
O O7 0.886788 0.652633 0.140600
O O8 0.000000 0.672121 0.294840
O O9 0.143718 0.624060 0.525485
O O10 0.290875 0.567416 0.459795
O O11 0.125369 0.519196 0.382434
O O12 0.314404 0.750000 0.964859
O O13 0.096166 0.537837 0.182926
O O14 0.000000 0.580536 0.025789
O O15 0.750000 0.487384 0.250000
#
# Coordination Sequence:
#
# PCOD9538881 Si02
#       6
#    16  16  16  16  16  16
#     4  11  23  43  68  88 116 165 212 258 312 365
#     4   9  17  30  50  78 115 160 206 245 292 363
#     4  10  21  35  59  88 123 159 193 254 317 364
#     4  11  25  43  62  92 125 158 211 264 309 375
#     4   9  18  32  53  86 122 161 201 238 293 367
#     4   9  17  37  63  90 125 157 194 244 299 368
#
# _framework density 25.646038000000001
#
# number of rings (size 3 to 8) (size 9 to 14) (size 15 to 20)
#    0.000    2.167    1.667    3.500    0.000    6.000 
#    0.000    0.833    0.000    3.000    0.000    0.000 
#    0.000    0.000    0.000    0.000    0.000    0.000 
#
# Total GULP energy -268056.798796 kJ/mol
# GULP energy per Si atom -5584.516642 kJ/mol
# Density = 2.558767 g / cm^3
# Si number density = 25.646038 Si / 1000 Ang^3
#
#
#
# Elastic Constant Matrix: (Units=GPa)
#
#
# Indices 1 2 3 4 5 6 
#
# 1 121.4812 -0.4462 -19.3032 0.0000 0.0000 0.0000
# 2 -0.4462 168.6902 16.3755 0.0000 0.0000 0.0000
# 3 -19.3032 16.3755 64.5439 0.0000 0.0000 0.0000
# 4 0.0000 0.0000 0.0000 21.7479 0.0000 0.0000
# 5 0.0000 0.0000 0.0000 0.0000 4.5512 0.0000
# 6 0.0000 0.0000 0.0000 0.0000 0.0000 -0.5186
#
#
#
# Elastic Compliance Matrix: (Units=1/GPa)
#
#
# Indices 1 2 3 4 5 6 
#
# 1 0.008651 -0.000234 0.002647 0.000000 0.000000 0.000000
# 2 -0.000234 0.006084 -0.001614 0.000000 0.000000 0.000000
# 3 0.002647 -0.001614 0.016694 0.000000 0.000000 -0.000001
# 4 0.000000 0.000000 0.000000 0.045981 0.000000 -0.000001
# 5 0.000000 0.000000 0.000000 0.000000 0.219722 0.000001
# 6 0.000000 0.000000 -0.000001 -0.000001 0.000001 -1.928321
#
#
# Mechanical properties :
#
#
# Convention : Reuss Voigt Hill
#
# Bulk Modulus (GPa) = 30.27731 38.66307 34.47019
# Shear Modulus (GPa) = -3.08304 29.02872 12.97284
#
# Velocity S-wave (km/s) = -1.09762 3.36802 2.25153
# Velocity P-wave (km/s) = 3.19767 5.49847 4.49768
#
# Compressibility (1/GPa) = 0.03302804
#
# Stress axis : x y z
#
# Youngs Moduli (GPa) = 115.58771 164.36432 59.90073
#
# Poissons Ratio (x) = 0.03847 -0.15854
# Poissons Ratio (y) = 0.02705 0.09666
# Poissons Ratio (z) = -0.30593 0.26522
#
# Static dielectric constant tensor:
#      x y z
#    x 2.035080 0.000000 0.000000 
#    y 0.000000 2.044900 0.000000 
#    z 0.000000 0.000000 2.020770 
# 
# From -- ./inp_files/32342.got.cif
#   From: 2010.05.17/outbox.cif.g08.bks.cpg/sg74_17_cif.got.tgz:32342.got - 2010.06.03 17:57:02.
