data_PCOD9538522
_publ_section_title
;
Structure prediction by ZEFSAII (Michael W. Deem and Ramdas Pophale) SiO2 
 PCOD9538522
Probable space group: I M M A
;
_chemical_formula_sum "Si O2"
_cell_formula_units_Z 72
_cell_length_a 16.130952
_cell_length_b 7.673919
_cell_length_c 29.440484
_cell_angle_alpha 90.000000
_cell_angle_beta 90.000000
_cell_angle_gamma 90.000000
_cell_volume 3644.367418
_symmetry_space_group_name_H-M "I M M A"
_symmetry_group_IT_number 74
_symmetry_cell_setting 'orthorhombic'
loop_
_space_group_symop_operation_xyz
x,y,z
-x,1/2-y,z
x,-y,-z
-x,1/2+y,-z
-x,-y,-z
x,1/2+y,-z
-x,y,z
x,1/2-y,z
1/2+x,1/2+y,1/2+z
1/2-x,-y,1/2+z
1/2+x,1/2-y,1/2-z
1/2-x,y,1/2-z
1/2-x,1/2-y,1/2-z
1/2+x,y,1/2-z
1/2-x,1/2+y,1/2+z
1/2+x,-y,1/2+z
loop_
_atom_site_type_symbol
_atom_site_label
_atom_site_fract_x
_atom_site_fract_y
_atom_site_fract_z
Si Si1 0.096778 0.250000 0.672831
Si Si2 0.908513 0.750000 0.436133
Si Si3 0.786893 0.054146 0.454980
Si Si4 0.500000 0.961033 0.554814
Si Si5 0.649113 0.048543 0.380110
Si Si6 0.731121 0.957589 0.803287
O O1 0.091311 0.250000 0.618378
O O2 0.152122 0.419404 0.686254
O O3 0.000000 0.250000 0.689590
O O4 0.860125 0.580191 0.451309
O O5 0.000000 0.750000 0.454563
O O6 0.816201 0.250000 0.459148
O O7 0.729940 0.042089 0.411537
O O8 0.736371 0.000000 0.500000
O O9 0.500000 0.750000 0.555330
O O10 0.577866 0.023294 0.586188
O O11 0.500000 0.000000 0.500000
O O12 0.624672 0.250000 0.371286
O O13 0.687523 0.981759 0.332531
O O14 0.716789 0.750000 0.814154
O O15 0.750000 0.969811 0.750000
#
# Coordination Sequence:
#
# PCOD9538522 Si02
#       6
#     8   8  16   8  16  16
#     4  11  23  41  65  93 128 162 210 267 311 371
#     4  11  24  39  57  83 117 156 197 254 306 350
#     4  11  21  37  58  83 113 158 202 244 301 370
#     4  10  20  38  58  90 128 158 202 260 313 382
#     4   9  19  36  60  86 120 157 200 250 307 371
#     4  10  21  41  67  93 125 168 212 260 323 387
#
# _framework density 19.756513999999999
#
# number of rings (size 3 to 8) (size 9 to 14) (size 15 to 20)
#    0.000    1.778    3.333    1.000    0.000    1.333 
#    6.000    2.222    0.000    0.000    0.000    0.000 
#    0.000    0.000    0.000    0.000    0.000    0.000 
#
# Total GULP energy -200443.667108 kJ/mol
# GULP energy per Si atom -5567.879642 kJ/mol
# Density = 1.971155 g / cm^3
# Si number density = 19.756514 Si / 1000 Ang^3
#
#
#
# Elastic Constant Matrix: (Units=GPa)
#
#
# Indices 1 2 3 4 5 6 
#
# 1 123.7409 54.9986 48.1010 0.0000 0.0000 0.0000
# 2 54.9986 101.2416 27.5182 0.0000 0.0000 0.0000
# 3 48.1010 27.5182 138.4489 0.0000 0.0000 0.0000
# 4 0.0000 0.0000 0.0000 11.1880 0.0000 0.0000
# 5 0.0000 0.0000 0.0000 0.0000 19.8512 0.0000
# 6 0.0000 0.0000 0.0000 0.0000 0.0000 23.1925
#
#
#
# Elastic Compliance Matrix: (Units=1/GPa)
#
#
# Indices 1 2 3 4 5 6 
#
# 1 0.011700 -0.005551 -0.002962 0.000000 0.000000 0.000000
# 2 -0.005551 0.013075 -0.000670 0.000000 0.000000 0.000000
# 3 -0.002962 -0.000670 0.008385 0.000000 0.000000 0.000000
# 4 0.000000 0.000000 0.000000 0.089381 0.000000 0.000000
# 5 0.000000 0.000000 0.000000 0.000000 0.050375 0.000000
# 6 0.000000 0.000000 0.000000 0.000000 0.000000 0.043117
#
#
# Mechanical properties :
#
#
# Convention : Reuss Voigt Hill
#
# Bulk Modulus (GPa) = 67.59273 69.40744 68.50008
# Shear Modulus (GPa) = 20.89165 26.36725 23.62945
#
# Velocity S-wave (km/s) = 3.25538 3.65720 3.46212
# Velocity P-wave (km/s) = 6.95825 7.28293 7.12244
#
# Compressibility (1/GPa) = 0.01479449
#
# Stress axis : x y z
#
# Youngs Moduli (GPa) = 85.47165 76.48186 119.26016
#
# Poissons Ratio (x) = 0.42454 0.35319
# Poissons Ratio (y) = 0.47444 0.07994
# Poissons Ratio (z) = 0.25313 0.05126
#
# Static dielectric constant tensor:
#      x y z
#    x 1.699970 0.000000 0.000000 
#    y 0.000000 1.720400 0.000000 
#    z 0.000000 0.000000 1.718170 
# 
# From -- ./inp_files/66778.got.cif
#   From: 2010.05.17/outbox.cif.g08.bks.cpg/sg74_34_cif.got.tgz:66778.got - 2010.06.03 17:57:02.
