data_PCOD9538892
_publ_section_title
;
Structure prediction by ZEFSAII (Michael W. Deem and Ramdas Pophale) SiO2 
 PCOD9538892
Probable space group: I M M A
;
_chemical_formula_sum "Si O2"
_cell_formula_units_Z 80
_cell_length_a 13.582967
_cell_length_b 13.736034
_cell_length_c 27.632104
_cell_angle_alpha 90.000000
_cell_angle_beta 90.000000
_cell_angle_gamma 90.000000
_cell_volume 5155.490103
_symmetry_space_group_name_H-M "I M M A"
_symmetry_group_IT_number 74
_symmetry_cell_setting 'orthorhombic'
loop_
_space_group_symop_operation_xyz
x,y,z
-x,1/2-y,z
x,-y,-z
-x,1/2+y,-z
-x,-y,-z
x,1/2+y,-z
-x,y,z
x,1/2-y,z
1/2+x,1/2+y,1/2+z
1/2-x,-y,1/2+z
1/2+x,1/2-y,1/2-z
1/2-x,y,1/2-z
1/2-x,1/2-y,1/2-z
1/2+x,y,1/2-z
1/2-x,1/2+y,1/2+z
1/2+x,-y,1/2+z
loop_
_atom_site_type_symbol
_atom_site_label
_atom_site_fract_x
_atom_site_fract_y
_atom_site_fract_z
Si Si1 0.882252 0.366504 0.276352
Si Si2 0.301923 0.451232 0.427069
Si Si3 0.882992 0.637100 0.024557
Si Si4 0.383792 0.132646 0.114912
Si Si5 0.381254 0.136834 0.329420
O O1 0.867768 0.250000 0.274953
O O2 0.851772 0.397231 0.330238
O O3 0.846093 0.400399 0.223514
O O4 0.000000 0.383091 0.276470
O O5 0.323893 0.561923 0.441899
O O6 0.351930 0.387917 0.469602
O O7 0.187739 0.422023 0.421883
O O8 0.348988 0.423369 0.375762
O O9 0.863933 0.750000 0.034953
O O10 0.000000 0.618708 0.029772
O O11 0.500000 0.112638 0.108904
O O12 0.371612 0.250000 0.110853
O O13 0.500000 0.137855 0.327892
O O14 0.349427 0.250000 0.335312
#
# Coordination Sequence:
#
# PCOD9538892 Si02
#       5
#    16  16  16  16  16
#     4   7  12  23  37  58  93 127 147 172 216 263
#     4  11  19  29  48  69  87 115 156 186 213 264
#     4  10  21  36  50  66  91 115 137 179 236 281
#     4   9  17  29  44  65  96 129 155 181 217 259
#     4   9  15  23  39  66  96 120 145 180 219 264
#
# _framework density 15.517436999999999
#
# number of rings (size 3 to 8) (size 9 to 14) (size 15 to 20)
#    0.000    2.800    0.000    6.600    0.000    2.400 
#    0.000    5.000    0.000    1.800    0.000    2.800 
#    0.000    4.800    0.000    0.000    0.000    0.000 
#
# Total GULP energy -222825.527895 kJ/mol
# GULP energy per Si atom -5570.638197 kJ/mol
# Density = 1.548212 g / cm^3
# Si number density = 15.517437 Si / 1000 Ang^3
#
#
#
# Elastic Constant Matrix: (Units=GPa)
#
#
# Indices 1 2 3 4 5 6 
#
# 1 86.7216 46.1023 42.4909 0.0000 0.0000 0.0000
# 2 46.1023 75.3738 44.5526 0.0000 0.0000 0.0000
# 3 42.4909 44.5526 89.2751 0.0000 0.0000 0.0000
# 4 0.0000 0.0000 0.0000 20.3045 0.0000 0.0000
# 5 0.0000 0.0000 0.0000 0.0000 33.8001 0.0000
# 6 0.0000 0.0000 0.0000 0.0000 0.0000 28.2128
#
#
#
# Elastic Compliance Matrix: (Units=1/GPa)
#
#
# Indices 1 2 3 4 5 6 
#
# 1 0.018237 -0.008545 -0.004416 0.000000 0.000000 0.000000
# 2 -0.008545 0.022822 -0.007322 0.000000 0.000000 0.000000
# 3 -0.004416 -0.007322 0.016957 0.000000 0.000000 0.000000
# 4 0.000000 0.000000 0.000000 0.049250 0.000000 0.000000
# 5 0.000000 0.000000 0.000000 0.000000 0.029586 0.000000
# 6 0.000000 0.000000 0.000000 0.000000 0.000000 0.035445
#
#
# Mechanical properties :
#
#
# Convention : Reuss Voigt Hill
#
# Bulk Modulus (GPa) = 57.30470 57.51800 57.41135
# Shear Modulus (GPa) = 22.86454 24.34514 23.60484
#
# Velocity S-wave (km/s) = 3.84275 3.96522 3.90446
# Velocity P-wave (km/s) = 7.52983 7.62306 7.57659
#
# Compressibility (1/GPa) = 0.01745058
#
# Stress axis : x y z
#
# Youngs Moduli (GPa) = 54.83292 43.81817 58.97177
#
# Poissons Ratio (x) = 0.37441 0.26042
# Poissons Ratio (y) = 0.46852 0.43181
# Poissons Ratio (z) = 0.24214 0.32085
#
# Static dielectric constant tensor:
#      x y z
#    x 1.586650 0.000000 0.000000 
#    y 0.000000 1.476290 0.000000 
#    z 0.000000 0.000000 1.541090 
# 
# From -- ./inp_files/59891.got.cif
#   From: 2010.05.17/outbox.cif.g08.bks.cpg/sg74_30_cif.got.tgz:59891.got - 2010.06.03 17:57:02.
