data_PCOD9538436
_publ_section_title
;
Structure prediction by ZEFSAII (Michael W. Deem and Ramdas Pophale) SiO2 
 PCOD9538436
Probable space group: I M M A
;
_chemical_formula_sum "Si O2"
_cell_formula_units_Z 72
_cell_length_a 22.263036
_cell_length_b 19.128709
_cell_length_c 8.773198
_cell_angle_alpha 90.000000
_cell_angle_beta 90.000000
_cell_angle_gamma 90.000000
_cell_volume 3736.181623
_symmetry_space_group_name_H-M "I M M A"
_symmetry_group_IT_number 74
_symmetry_cell_setting 'orthorhombic'
loop_
_space_group_symop_operation_xyz
x,y,z
-x,1/2-y,z
x,-y,-z
-x,1/2+y,-z
-x,-y,-z
x,1/2+y,-z
-x,y,z
x,1/2-y,z
1/2+x,1/2+y,1/2+z
1/2-x,-y,1/2+z
1/2+x,1/2-y,1/2-z
1/2-x,y,1/2-z
1/2-x,1/2-y,1/2-z
1/2+x,y,1/2-z
1/2-x,1/2+y,1/2+z
1/2+x,-y,1/2+z
loop_
_atom_site_type_symbol
_atom_site_label
_atom_site_fract_x
_atom_site_fract_y
_atom_site_fract_z
Si Si1 0.929993 0.529497 0.272099
Si Si2 0.654580 0.000000 0.500000
Si Si3 0.778247 0.750000 0.985920
Si Si4 0.247742 0.100470 0.924537
Si Si5 0.851157 0.250000 0.314482
Si Si6 0.117103 0.105505 0.455095
O O1 0.887725 0.532838 0.126733
O O2 0.908021 0.457731 0.353068
O O3 0.918437 0.593965 0.386736
O O4 0.000000 0.524595 0.235736
O O5 0.701605 0.938708 0.536777
O O6 0.832287 0.750000 0.863196
O O7 0.714147 0.750000 0.897248
O O8 0.776101 0.679537 0.082326
O O9 0.250000 0.072578 0.750000
O O10 0.313400 0.094647 0.997546
O O11 0.884940 0.320062 0.370509
#
# Coordination Sequence:
#
# PCOD9538436 Si02
#       6
#    16   8   8  16   8  16
#     4  11  23  40  57  80 113 156 200 242 287 338
#     4  12  23  36  58  86 117 152 190 246 292 340
#     4   9  19  34  54  85 128 153 173 219 299 365
#     4  11  21  35  58  91 121 150 187 235 296 356
#     4   9  18  34  57  89 113 150 185 232 284 353
#     4  10  20  37  61  84 115 148 190 236 287 348
#
# _framework density 19.271011000000001
#
# number of rings (size 3 to 8) (size 9 to 14) (size 15 to 20)
#    0.000    1.556    2.222    4.667    0.000    1.778 
#    0.000    2.222    0.000    0.000    0.000    4.667 
#    0.000    0.000    0.000    0.000    0.000    0.000 
#
# Total GULP energy -200733.421731 kJ/mol
# GULP energy per Si atom -5575.928381 kJ/mol
# Density = 1.922715 g / cm^3
# Si number density = 19.271011 Si / 1000 Ang^3
#
#
#
# Elastic Constant Matrix: (Units=GPa)
#
#
# Indices 1 2 3 4 5 6 
#
# 1 97.7501 22.7602 4.5492 0.0000 0.0000 0.0000
# 2 22.7602 80.5968 -3.4313 0.0000 0.0000 0.0000
# 3 4.5492 -3.4313 34.0955 0.0000 0.0000 0.0000
# 4 0.0000 0.0000 0.0000 22.7630 0.0000 0.0000
# 5 0.0000 0.0000 0.0000 0.0000 -32.2483 0.0000
# 6 0.0000 0.0000 0.0000 0.0000 0.0000 11.5045
#
#
#
# Elastic Compliance Matrix: (Units=1/GPa)
#
#
# Indices 1 2 3 4 5 6 
#
# 1 0.011059 -0.003199 -0.001798 0.000000 0.000000 0.000000
# 2 -0.003199 0.013386 0.001774 0.000000 0.000000 0.000000
# 3 -0.001798 0.001774 0.029748 0.000000 0.000000 0.000000
# 4 0.000000 0.000000 0.000000 0.043931 0.000000 0.000000
# 5 0.000000 0.000000 0.000000 0.000000 -0.031009 0.000000
# 6 0.000000 0.000000 0.000000 0.000000 0.000000 0.086922
#
#
# Mechanical properties :
#
#
# Convention : Reuss Voigt Hill
#
# Bulk Modulus (GPa) = 20.94362 28.91095 24.92729
# Shear Modulus (GPa) = 28.34489 12.97479 20.65984
#
# Velocity S-wave (km/s) = 3.83934 2.59758 3.27780
# Velocity P-wave (km/s) = 5.52680 4.90219 5.22384
#
# Compressibility (1/GPa) = 0.04774723
#
# Stress axis : x y z
#
# Youngs Moduli (GPa) = 90.42573 74.70213 33.61597
#
# Poissons Ratio (x) = 0.23901 0.06043
# Poissons Ratio (y) = 0.28932 -0.05964
# Poissons Ratio (z) = 0.16254 -0.13253
#
# Static dielectric constant tensor:
#      x y z
#    x 1.645030 0.000000 0.000000 
#    y 0.000000 1.759890 0.000000 
#    z 0.000000 0.000000 1.597930 
# 
# From -- ./inp_files/12209.got.cif
#   From: 2010.05.17/outbox.cif.g08.bks.cpg/sg74_7_cif.got.tgz:12209.got - 2010.06.03 17:57:02.
