data_PCOD9538697
_publ_section_title
;
Structure prediction by ZEFSAII (Michael W. Deem and Ramdas Pophale) SiO2 
 PCOD9538697
Probable space group: I M M A
;
_chemical_formula_sum "Si O2"
_cell_formula_units_Z 88
_cell_length_a 22.754069
_cell_length_b 8.367886
_cell_length_c 23.679427
_cell_angle_alpha 90.000000
_cell_angle_beta 90.000000
_cell_angle_gamma 90.000000
_cell_volume 4508.644723
_symmetry_space_group_name_H-M "I M M A"
_symmetry_group_IT_number 74
_symmetry_cell_setting 'orthorhombic'
loop_
_space_group_symop_operation_xyz
x,y,z
-x,1/2-y,z
x,-y,-z
-x,1/2+y,-z
-x,-y,-z
x,1/2+y,-z
-x,y,z
x,1/2-y,z
1/2+x,1/2+y,1/2+z
1/2-x,-y,1/2+z
1/2+x,1/2-y,1/2-z
1/2-x,y,1/2-z
1/2-x,1/2-y,1/2-z
1/2+x,y,1/2-z
1/2-x,1/2+y,1/2+z
1/2+x,-y,1/2+z
loop_
_atom_site_type_symbol
_atom_site_label
_atom_site_fract_x
_atom_site_fract_y
_atom_site_fract_z
Si Si1 0.622209 0.942836 0.618169
Si Si2 0.500000 0.439674 0.565088
Si Si3 0.685315 0.439345 0.266857
Si Si4 0.339102 0.558590 0.149104
Si Si5 0.742219 0.058989 0.437827
Si Si6 0.933614 0.058113 0.559261
O O1 0.617543 0.750000 0.620629
O O2 0.648823 0.999312 0.678934
O O3 0.674242 0.984147 0.574209
O O4 0.559235 0.005710 0.597797
O O5 0.500000 0.250000 0.562990
O O6 0.500000 0.500000 0.500000
O O7 0.693752 0.250000 0.277336
O O8 0.750000 0.507812 0.250000
O O9 0.652973 0.472137 0.208468
O O10 0.338971 0.750000 0.157070
O O11 0.281346 0.510931 0.113169
O O12 0.392807 0.508121 0.109760
O O13 0.747803 0.250000 0.435457
O O14 0.759843 0.000000 0.500000
O O15 0.935172 0.250000 0.558520
O O16 0.000000 0.996599 0.564205
O O17 0.908637 0.000000 0.500000
#
# Coordination Sequence:
#
# PCOD9538697 Si02
#       6
#    16   8  16  16  16  16
#     4  10  22  42  66  89 121 161 203 251 307 368
#     4  12  26  44  68  96 128 164 209 260 315 374
#     4  10  20  40  64  87 117 156 197 242 297 354
#     4  11  22  35  56  86 118 155 196 243 298 358
#     4  11  22  37  58  87 120 154 194 246 303 363
#     4   9  19  36  55  77 110 149 189 234 284 339
#
# _framework density 19.518059999999998
#
# number of rings (size 3 to 8) (size 9 to 14) (size 15 to 20)
#    0.000    1.636    1.818    3.000    0.000    6.909 
#    1.636    0.000    0.000    0.000    0.000    0.000 
#    0.000    0.000    0.000    0.000    0.000    0.000 
#
# Total GULP energy -245540.335381 kJ/mol
# GULP energy per Si atom -5580.462168 kJ/mol
# Density = 1.947364 g / cm^3
# Si number density = 19.518060 Si / 1000 Ang^3
#
#
#
# Elastic Constant Matrix: (Units=GPa)
#
#
# Indices 1 2 3 4 5 6 
#
# 1 113.5542 20.3201 61.7418 0.0000 0.0000 0.0000
# 2 20.3201 18.5278 11.2242 0.0000 0.0000 0.0000
# 3 61.7418 11.2242 139.8529 0.0000 0.0000 0.0000
# 4 0.0000 0.0000 0.0000 28.4583 0.0000 0.0000
# 5 0.0000 0.0000 0.0000 0.0000 14.3784 0.0000
# 6 0.0000 0.0000 0.0000 0.0000 0.0000 21.5095
#
#
#
# Elastic Compliance Matrix: (Units=1/GPa)
#
#
# Indices 1 2 3 4 5 6 
#
# 1 0.013717 -0.011956 -0.005096 0.000000 0.000000 0.000000
# 2 -0.011956 0.067153 -0.000111 0.000000 0.000000 0.000000
# 3 -0.005096 -0.000111 0.009409 0.000000 0.000000 0.000000
# 4 0.000000 0.000000 0.000000 0.035139 0.000000 0.000000
# 5 0.000000 0.000000 0.000000 0.000000 0.069549 0.000000
# 6 0.000000 0.000000 0.000000 0.000000 0.000000 0.046491
#
#
# Mechanical properties :
#
#
# Convention : Reuss Voigt Hill
#
# Bulk Modulus (GPa) = 17.87244 50.94523 34.40884
# Shear Modulus (GPa) = 16.98161 24.77915 20.88038
#
# Velocity S-wave (km/s) = 2.95285 3.56694 3.27433
# Velocity P-wave (km/s) = 4.56098 6.56676 5.65353
#
# Compressibility (1/GPa) = 0.05595206
#
# Stress axis : x y z
#
# Youngs Moduli (GPa) = 72.90348 14.89129 106.28049
#
# Poissons Ratio (x) = 0.17805 0.54161
# Poissons Ratio (y) = 0.87167 0.01180
# Poissons Ratio (z) = 0.37152 0.00165
#
# Static dielectric constant tensor:
#      x y z
#    x 1.718960 0.000000 0.000000 
#    y 0.000000 1.681160 0.000000 
#    z 0.000000 0.000000 1.695520 
# 
# From -- ./inp_files/54520.got.cif
#   From: 2010.05.17/outbox.cif.g08.bks.cpg/sg74_28_cif.got.tgz:54520.got - 2010.06.03 17:57:02.
