data_PCOD9538702
_publ_section_title
;
Structure prediction by ZEFSAII (Michael W. Deem and Ramdas Pophale) SiO2 
 PCOD9538702
Probable space group: I M M A
;
_chemical_formula_sum "Si O2"
_cell_formula_units_Z 72
_cell_length_a 27.968854
_cell_length_b 14.251932
_cell_length_c 9.434453
_cell_angle_alpha 90.000000
_cell_angle_beta 90.000000
_cell_angle_gamma 90.000000
_cell_volume 3760.669247
_symmetry_space_group_name_H-M "I M M A"
_symmetry_group_IT_number 74
_symmetry_cell_setting 'orthorhombic'
loop_
_space_group_symop_operation_xyz
x,y,z
-x,1/2-y,z
x,-y,-z
-x,1/2+y,-z
-x,-y,-z
x,1/2+y,-z
-x,y,z
x,1/2-y,z
1/2+x,1/2+y,1/2+z
1/2-x,-y,1/2+z
1/2+x,1/2-y,1/2-z
1/2-x,y,1/2-z
1/2-x,1/2-y,1/2-z
1/2+x,y,1/2-z
1/2-x,1/2+y,1/2+z
1/2+x,-y,1/2+z
loop_
_atom_site_type_symbol
_atom_site_label
_atom_site_fract_x
_atom_site_fract_y
_atom_site_fract_z
Si Si1 0.694618 0.863315 0.904857
Si Si2 0.301452 0.362594 0.425554
Si Si3 0.944236 0.984226 0.730733
Si Si4 0.122617 0.500000 0.000000
Si Si5 0.592469 0.861632 0.017236
O O1 0.695026 0.750000 0.899779
O O2 0.690442 0.891925 0.739570
O O3 0.746885 0.890282 0.961179
O O4 0.648402 0.888636 0.995958
O O5 0.305357 0.250000 0.433757
O O6 0.341274 0.412788 0.518619
O O7 0.930562 0.077386 0.641682
O O8 0.000000 0.985297 0.766562
O O9 0.910939 0.981005 0.866927
O O10 0.932785 0.897180 0.626680
O O11 0.588326 0.750000 0.036054
#
# Coordination Sequence:
#
# PCOD9538702 Si02
#       5
#    16  16  16   8  16
#     4   8  15  33  60  85 112 145 185 233 278 333
#     4   9  18  34  56  86 119 152 187 226 279 344
#     4  11  25  40  57  84 115 149 196 248 288 330
#     4  12  23  38  58  84 118 160 189 228 288 354
#     4  10  20  40  65  86 111 148 192 238 289 341
#
# _framework density 19.145529
#
# number of rings (size 3 to 8) (size 9 to 14) (size 15 to 20)
#    0.000    2.222    2.222    3.000    0.000    4.444 
#    0.000    0.000    0.000    8.000    0.000    0.000 
#    0.000    0.000    0.000    0.000    0.000    0.000 
#
# Total GULP energy -200891.959981 kJ/mol
# GULP energy per Si atom -5580.332222 kJ/mol
# Density = 1.910195 g / cm^3
# Si number density = 19.145529 Si / 1000 Ang^3
#
#
#
# Elastic Constant Matrix: (Units=GPa)
#
#
# Indices 1 2 3 4 5 6 
#
# 1 154.2717 19.1543 6.4792 0.0000 0.0000 0.0000
# 2 19.1543 74.5993 -2.1149 0.0000 0.0000 0.0000
# 3 6.4792 -2.1149 7.4698 0.0000 0.0000 0.0000
# 4 0.0000 0.0000 0.0000 6.3843 0.0000 0.0000
# 5 0.0000 0.0000 0.0000 0.0000 11.3508 0.0000
# 6 0.0000 0.0000 0.0000 0.0000 0.0000 8.6735
#
#
#
# Elastic Compliance Matrix: (Units=1/GPa)
#
#
# Indices 1 2 3 4 5 6 
#
# 1 0.007008 -0.001988 -0.006641 0.000000 0.000000 0.000000
# 2 -0.001988 0.014077 0.005710 0.000000 0.000000 0.000000
# 3 -0.006641 0.005710 0.141249 0.000000 0.000000 0.000000
# 4 0.000000 0.000000 0.000000 0.156634 0.000000 0.000000
# 5 0.000000 0.000000 0.000000 0.000000 0.088099 0.000000
# 6 0.000000 0.000000 0.000000 0.000000 0.000000 0.115293
#
#
# Mechanical properties :
#
#
# Convention : Reuss Voigt Hill
#
# Bulk Modulus (GPa) = 6.38993 31.48643 18.93818
# Shear Modulus (GPa) = 8.61528 19.46989 14.04258
#
# Velocity S-wave (km/s) = 2.12360 3.19241 2.71119
# Velocity P-wave (km/s) = 3.05903 5.48363 4.44004
#
# Compressibility (1/GPa) = 0.15649614
#
# Stress axis : x y z
#
# Youngs Moduli (GPa) = 142.69874 71.03707 7.07967
#
# Poissons Ratio (x) = 0.14119 0.04702
# Poissons Ratio (y) = 0.28363 -0.04042
# Poissons Ratio (z) = 0.94768 -0.40560
#
# Static dielectric constant tensor:
#      x y z
#    x 1.678940 0.000000 0.000000 
#    y 0.000000 1.667850 0.000000 
#    z 0.000000 0.000000 1.666410 
# 
# From -- ./inp_files/14704.got.cif
#   From: 2010.05.17/outbox.cif.g08.bks.cpg/sg74_8_cif.got.tgz:14704.got - 2010.06.03 17:57:02.
