data_PCOD9538187
_publ_section_title
;
Structure prediction by ZEFSAII (Michael W. Deem and Ramdas Pophale) SiO2 
 PCOD9538187
Probable space group: I M M A
;
_chemical_formula_sum "Si O2"
_cell_formula_units_Z 112
_cell_length_a 28.246717
_cell_length_b 14.469441
_cell_length_c 14.422500
_cell_angle_alpha 90.000000
_cell_angle_beta 90.000000
_cell_angle_gamma 90.000000
_cell_volume 5894.680623
_symmetry_space_group_name_H-M "I M M A"
_symmetry_group_IT_number 74
_symmetry_cell_setting 'orthorhombic'
loop_
_space_group_symop_operation_xyz
x,y,z
-x,1/2-y,z
x,-y,-z
-x,1/2+y,-z
-x,-y,-z
x,1/2+y,-z
-x,y,z
x,1/2-y,z
1/2+x,1/2+y,1/2+z
1/2-x,-y,1/2+z
1/2+x,1/2-y,1/2-z
1/2-x,y,1/2-z
1/2-x,1/2-y,1/2-z
1/2+x,y,1/2-z
1/2-x,1/2+y,1/2+z
1/2+x,-y,1/2+z
loop_
_atom_site_type_symbol
_atom_site_label
_atom_site_fract_x
_atom_site_fract_y
_atom_site_fract_z
Si Si1 0.290280 0.142216 0.173706
Si Si2 0.691355 0.359295 0.655922
Si Si3 0.910102 0.140430 0.929354
Si Si4 0.945716 0.470173 0.753794
Si Si5 0.348124 0.536856 0.166688
Si Si6 0.782647 0.859186 0.459952
Si Si7 0.443644 0.854481 0.629277
O O1 0.303984 0.250000 0.186281
O O2 0.250000 0.121165 0.250000
O O3 0.333042 0.069684 0.177803
O O4 0.271255 0.131592 0.068531
O O5 0.696039 0.250000 0.675679
O O6 0.645225 0.371993 0.592075
O O7 0.679815 0.411301 0.750330
O O8 0.738052 0.389604 0.601974
O O9 0.921088 0.250000 0.925357
O O10 0.938340 0.089928 0.847514
O O11 0.921517 0.109924 0.033385
O O12 0.903706 0.446156 0.683176
O O13 0.936160 0.574697 0.787911
O O14 0.000000 0.460826 0.721919
O O15 0.327391 0.581801 0.073553
O O16 0.791290 0.750000 0.442878
O O17 0.500000 0.851338 0.613462
O O18 0.426738 0.750000 0.647385
#
# Coordination Sequence:
#
# PCOD9538187 Si02
#       7
#    16  16  16  16  16  16  16
#     4  10  22  38  56  81 110 139 171 209 259 318
#     4   9  18  32  52  81 112 140 173 210 251 307
#     4   9  17  29  47  73 105 141 178 217 265 318
#     4  10  21  34  48  71 102 136 179 230 276 316
#     4  11  21  34  55  79 106 142 179 216 260 310
#     4  10  20  36  58  80 106 138 171 212 259 311
#     4   9  17  30  48  69  98 141 187 225 264 312
#
# _framework density 19.000181000000001
#
# number of rings (size 3 to 8) (size 9 to 14) (size 15 to 20)
#    0.000    2.286    0.000    3.000    0.000    5.429 
#    0.000    5.714    0.000    1.714    0.000    2.000 
#    0.000    0.000    0.000    0.000    0.000    0.000 
#
# Total GULP energy -312575.864101 kJ/mol
# GULP energy per Si atom -5581.711859 kJ/mol
# Density = 1.895694 g / cm^3
# Si number density = 19.000181 Si / 1000 Ang^3
#
#
#
# Elastic Constant Matrix: (Units=GPa)
#
#
# Indices 1 2 3 4 5 6 
#
# 1 92.1487 42.2005 46.0231 0.0000 0.0000 0.0000
# 2 42.2005 42.7935 22.0457 0.0000 0.0000 0.0000
# 3 46.0231 22.0457 74.1059 0.0000 0.0000 0.0000
# 4 0.0000 0.0000 0.0000 22.7720 0.0000 0.0000
# 5 0.0000 0.0000 0.0000 0.0000 19.1819 0.0000
# 6 0.0000 0.0000 0.0000 0.0000 0.0000 23.3121
#
#
#
# Elastic Compliance Matrix: (Units=1/GPa)
#
#
# Indices 1 2 3 4 5 6 
#
# 1 0.024310 -0.019126 -0.009408 0.000000 0.000000 0.000000
# 2 -0.019126 0.042646 -0.000808 0.000000 0.000000 0.000000
# 3 -0.009408 -0.000808 0.019577 0.000000 0.000000 0.000000
# 4 0.000000 0.000000 0.000000 0.043913 0.000000 0.000000
# 5 0.000000 0.000000 0.000000 0.000000 0.052133 0.000000
# 6 0.000000 0.000000 0.000000 0.000000 0.000000 0.042896
#
#
# Mechanical properties :
#
#
# Convention : Reuss Voigt Hill
#
# Bulk Modulus (GPa) = 35.90897 47.73185 41.82041
# Shear Modulus (GPa) = 17.03914 19.63845 18.33879
#
# Velocity S-wave (km/s) = 2.99789 3.21844 3.11012
# Velocity P-wave (km/s) = 5.56088 6.24400 5.91231
#
# Compressibility (1/GPa) = 0.02784819
#
# Stress axis : x y z
#
# Youngs Moduli (GPa) = 41.13581 23.44901 51.07987
#
# Poissons Ratio (x) = 0.44849 0.48054
# Poissons Ratio (y) = 0.78678 0.04129
# Poissons Ratio (z) = 0.38699 0.01895
#
# Static dielectric constant tensor:
#      x y z
#    x 1.647960 0.000000 0.000000 
#    y 0.000000 1.705640 0.000000 
#    z 0.000000 0.000000 1.657990 
# 
# From -- ./inp_files/27237.got.cif
#   From: 2010.05.17/outbox.cif.g08.bks.cpg/sg74_14_cif.got.tgz:27237.got - 2010.06.03 17:57:02.
