data_PCOD9538427
_publ_section_title
;
Structure prediction by ZEFSAII (Michael W. Deem and Ramdas Pophale) SiO2 
 PCOD9538427
Probable space group: I M M A
;
_chemical_formula_sum "Si O2"
_cell_formula_units_Z 64
_cell_length_a 14.000327
_cell_length_b 22.541837
_cell_length_c 9.605689
_cell_angle_alpha 90.000000
_cell_angle_beta 90.000000
_cell_angle_gamma 90.000000
_cell_volume 3031.489065
_symmetry_space_group_name_H-M "I M M A"
_symmetry_group_IT_number 74
_symmetry_cell_setting 'orthorhombic'
loop_
_space_group_symop_operation_xyz
x,y,z
-x,1/2-y,z
x,-y,-z
-x,1/2+y,-z
-x,-y,-z
x,1/2+y,-z
-x,y,z
x,1/2-y,z
1/2+x,1/2+y,1/2+z
1/2-x,-y,1/2+z
1/2+x,1/2-y,1/2-z
1/2-x,y,1/2-z
1/2-x,1/2-y,1/2-z
1/2+x,y,1/2-z
1/2-x,1/2+y,1/2+z
1/2+x,-y,1/2+z
loop_
_atom_site_type_symbol
_atom_site_label
_atom_site_fract_x
_atom_site_fract_y
_atom_site_fract_z
Si Si1 0.360039 0.045610 0.287775
Si Si2 0.394924 0.584333 0.017218
Si Si3 0.824750 0.922660 0.085198
Si Si4 0.111118 0.682578 0.275612
O O1 0.250000 0.050595 0.250000
O O2 0.372129 0.080347 0.432815
O O3 0.402903 0.070816 0.146200
O O4 0.211043 0.938586 0.434684
O O5 0.500000 0.563597 0.074545
O O6 0.374390 0.523123 0.331794
O O7 0.386744 0.651762 0.072099
O O8 0.837504 0.862236 0.169421
O O9 0.144982 0.750000 0.276605
O O10 0.000000 0.682917 0.233583
#
# Coordination Sequence:
#
# PCOD9538427 Si02
#       4
#    16  16  16  16
#     4   9  19  36  56  84 120 152 187 236 289 347
#     4  10  21  37  59  87 119 155 194 239 293 349
#     4  10  20  37  60  86 121 157 193 240 292 350
#     4  10  22  39  59  86 118 154 199 246 292 346
#
# _framework density 21.111737000000002
#
# number of rings (size 3 to 8) (size 9 to 14) (size 15 to 20)
#    0.000    2.250    0.000    2.250    0.000    7.000 
#    0.000   23.750    0.000    9.000    0.000    1.750 
#    0.000    0.000    0.000    0.000    0.000    0.000 
#
# Total GULP energy -178169.787793 kJ/mol
# GULP energy per Si atom -5567.805869 kJ/mol
# Density = 2.106369 g / cm^3
# Si number density = 21.111737 Si / 1000 Ang^3
#
#
#
# Elastic Constant Matrix: (Units=GPa)
#
#
# Indices 1 2 3 4 5 6 
#
# 1 128.4027 29.4013 40.1903 -0.0001 0.0000 0.0000
# 2 29.4013 176.9119 102.4175 0.0002 0.0000 0.0000
# 3 40.1903 102.4175 188.8569 0.0009 0.0001 0.0002
# 4 -0.0001 0.0002 0.0009 27.5740 0.0001 0.0001
# 5 0.0000 0.0000 0.0001 0.0001 28.3370 0.0000
# 6 0.0000 0.0000 0.0002 0.0001 0.0000 19.8843
#
#
#
# Elastic Compliance Matrix: (Units=1/GPa)
#
#
# Indices 1 2 3 4 5 6 
#
# 1 0.008377 -0.000525 -0.001498 0.000000 0.000000 0.000000
# 2 -0.000525 0.008272 -0.004374 0.000000 0.000000 0.000000
# 3 -0.001498 -0.004374 0.007986 0.000000 0.000000 0.000000
# 4 0.000000 0.000000 0.000000 0.036266 0.000000 0.000000
# 5 0.000000 0.000000 0.000000 0.000000 0.035290 0.000000
# 6 0.000000 0.000000 0.000000 0.000000 0.000000 0.050291
#
#
# Mechanical properties :
#
#
# Convention : Reuss Voigt Hill
#
# Bulk Modulus (GPa) = 84.45474 93.13221 88.79347
# Shear Modulus (GPa) = 30.63292 36.63655 33.63474
#
# Velocity S-wave (km/s) = 3.81332 4.17029 3.99579
# Velocity P-wave (km/s) = 7.71227 8.20964 7.96484
#
# Compressibility (1/GPa) = 0.01184066
#
# Stress axis : x y z
#
# Youngs Moduli (GPa) = 119.37324 120.88799 125.21937
#
# Poissons Ratio (x) = 0.06346 0.18758
# Poissons Ratio (y) = 0.06267 0.54774
# Poissons Ratio (z) = 0.17882 0.52880
#
# Static dielectric constant tensor:
#      x y z
#    x 1.860290 0.000000 0.000000 
#    y 0.000000 1.746330 0.000000 
#    z 0.000000 0.000000 1.820480 
# 
# From -- ./inp_files/21957.got.cif
#   From: 2010.05.17/outbox.cif.g08.bks.cpg/sg74_11_cif.got.tgz:21957.got - 2010.06.03 17:57:02.
