data_PCOD9538557
_publ_section_title
;
Structure prediction by ZEFSAII (Michael W. Deem and Ramdas Pophale) SiO2 
 PCOD9538557
Probable space group: I M M A
;
_chemical_formula_sum "Si O2"
_cell_formula_units_Z 104
_cell_length_a 8.547726
_cell_length_b 27.650340
_cell_length_c 23.377768
_cell_angle_alpha 90.000000
_cell_angle_beta 90.000000
_cell_angle_gamma 90.000000
_cell_volume 5525.277727
_symmetry_space_group_name_H-M "I M M A"
_symmetry_group_IT_number 74
_symmetry_cell_setting 'orthorhombic'
loop_
_space_group_symop_operation_xyz
x,y,z
-x,1/2-y,z
x,-y,-z
-x,1/2+y,-z
-x,-y,-z
x,1/2+y,-z
-x,y,z
x,1/2-y,z
1/2+x,1/2+y,1/2+z
1/2-x,-y,1/2+z
1/2+x,1/2-y,1/2-z
1/2-x,y,1/2-z
1/2-x,1/2-y,1/2-z
1/2+x,y,1/2-z
1/2-x,1/2+y,1/2+z
1/2+x,-y,1/2+z
loop_
_atom_site_type_symbol
_atom_site_label
_atom_site_fract_x
_atom_site_fract_y
_atom_site_fract_z
Si Si1 0.314370 0.049595 0.686544
Si Si2 0.690308 0.805606 0.001843
Si Si3 0.189486 0.343867 0.378409
Si Si4 0.817432 0.552133 0.642013
Si Si5 0.187381 0.114454 0.584839
Si Si6 0.823719 0.554515 0.979901
Si Si7 0.313349 0.250000 0.313972
O O1 0.500000 0.051645 0.686540
O O2 0.250000 0.057956 0.750000
O O3 0.252533 0.090067 0.642208
O O4 0.265050 0.995242 0.667031
O O5 0.500000 0.804908 0.000186
O O6 0.744161 0.750000 0.997868
O O7 0.739210 0.835959 0.945091
O O8 0.734197 0.832288 0.061135
O O9 0.241723 0.393151 0.346240
O O10 0.248968 0.297159 0.345769
O O11 0.000000 0.345291 0.378674
O O12 0.790851 0.552664 0.573900
O O13 0.000000 0.548350 0.656900
O O14 0.249319 0.082079 0.532791
O O15 0.000000 0.112732 0.588086
O O16 0.000000 0.572319 0.965005
O O17 0.840987 0.500000 0.000000
O O18 0.500000 0.250000 0.314682
O O19 0.250000 0.250000 0.250000
#
# Coordination Sequence:
#
# PCOD9538557 Si02
#       7
#    16  16  16  16  16  16   8
#     4  12  26  44  62  85 118 160 201 249 299 357
#     4   9  17  33  60  92 123 154 191 239 299 358
#     4  10  20  38  62  88 120 157 198 249 299 349
#     4  11  22  37  60  89 119 157 198 243 296 352
#     4  11  21  36  61  91 119 157 200 242 298 364
#     4  11  21  32  51  84 122 157 190 235 287 341
#     4  12  26  42  60  82 110 158 209 254 299 350
#
# _framework density 18.822583000000002
#
# number of rings (size 3 to 8) (size 9 to 14) (size 15 to 20)
#    0.000    1.231    3.846    3.462    0.000    2.462 
#    0.000    0.000    0.000    0.462    0.000    0.000 
#    0.000    0.000    0.000    0.000    0.000    0.000 
#
# Total GULP energy -290076.061722 kJ/mol
# GULP energy per Si atom -5578.385802 kJ/mol
# Density = 1.877974 g / cm^3
# Si number density = 18.822583 Si / 1000 Ang^3
#
#
#
# Elastic Constant Matrix: (Units=GPa)
#
#
# Indices 1 2 3 4 5 6 
#
# 1 55.3091 26.9964 14.4966 0.0000 0.0000 0.0000
# 2 26.9964 95.2866 45.5640 0.0000 0.0000 0.0000
# 3 14.4966 45.5640 108.3722 -0.0001 0.0000 0.0000
# 4 0.0000 0.0000 -0.0001 -32.5177 0.0000 0.0000
# 5 0.0000 0.0000 0.0000 0.0000 53.9789 0.0000
# 6 0.0000 0.0000 0.0000 0.0000 0.0000 20.3921
#
#
#
# Elastic Compliance Matrix: (Units=1/GPa)
#
#
# Indices 1 2 3 4 5 6 
#
# 1 0.020995 -0.005764 -0.000385 0.000000 0.000000 0.000000
# 2 -0.005764 0.014718 -0.005417 0.000000 0.000000 0.000000
# 3 -0.000385 -0.005417 0.011556 0.000000 0.000000 0.000000
# 4 0.000000 0.000000 0.000000 -0.030752 0.000000 0.000000
# 5 0.000000 0.000000 0.000000 0.000000 0.018526 0.000000
# 6 0.000000 0.000000 0.000000 0.000000 0.000000 0.049038
#
#
# Mechanical properties :
#
#
# Convention : Reuss Voigt Hill
#
# Bulk Modulus (GPa) = 41.43010 48.12020 44.77515
# Shear Modulus (GPa) = 43.38080 19.83141 31.60611
#
# Velocity S-wave (km/s) = 4.80596 3.24944 4.10220
# Velocity P-wave (km/s) = 7.27014 6.30072 6.80272
#
# Compressibility (1/GPa) = 0.02413704
#
# Stress axis : x y z
#
# Youngs Moduli (GPa) = 47.63149 67.94403 86.53161
#
# Poissons Ratio (x) = 0.39163 0.03331
# Poissons Ratio (y) = 0.27455 0.46874
# Poissons Ratio (z) = 0.01833 0.36805
#
# Static dielectric constant tensor:
#      x y z
#    x 1.655870 0.000000 0.000000 
#    y 0.000000 1.697790 0.000000 
#    z 0.000000 0.000000 1.633580 
# 
# From -- ./inp_files/57579.got.cif
#   From: 2010.05.17/outbox.cif.g08.bks.cpg/sg74_29_cif.got.tgz:57579.got - 2010.06.03 17:57:02.
