data_PCOD9538621
_publ_section_title
;
Structure prediction by ZEFSAII (Michael W. Deem and Ramdas Pophale) SiO2 
 PCOD9538621
Probable space group: I M M A
;
_chemical_formula_sum "Si O2"
_cell_formula_units_Z 48
_cell_length_a 10.742640
_cell_length_b 13.484146
_cell_length_c 14.693902
_cell_angle_alpha 90.000000
_cell_angle_beta 90.000000
_cell_angle_gamma 90.000000
_cell_volume 2128.489967
_symmetry_space_group_name_H-M "I M M A"
_symmetry_group_IT_number 74
_symmetry_cell_setting 'orthorhombic'
loop_
_space_group_symop_operation_xyz
x,y,z
-x,1/2-y,z
x,-y,-z
-x,1/2+y,-z
-x,-y,-z
x,1/2+y,-z
-x,y,z
x,1/2-y,z
1/2+x,1/2+y,1/2+z
1/2-x,-y,1/2+z
1/2+x,1/2-y,1/2-z
1/2-x,y,1/2-z
1/2-x,1/2-y,1/2-z
1/2+x,y,1/2-z
1/2-x,1/2+y,1/2+z
1/2+x,-y,1/2+z
loop_
_atom_site_type_symbol
_atom_site_label
_atom_site_fract_x
_atom_site_fract_y
_atom_site_fract_z
Si Si1 0.750000 0.424687 0.250000
Si Si2 0.500000 0.641294 0.182807
Si Si3 0.500000 0.863923 0.503389
Si Si4 0.737419 0.569748 0.081392
Si Si5 0.500000 0.928780 0.708186
O O1 0.763475 0.495459 0.163608
O O2 0.619510 0.372596 0.251769
O O3 0.500000 0.750000 0.230514
O O4 0.624327 0.635259 0.120515
O O5 0.500000 0.541829 0.247125
O O6 0.500000 0.750000 0.530588
O O7 0.368876 0.882884 0.450734
O O8 0.500000 0.925008 0.598200
O O9 0.690617 0.500000 0.000000
#
# Coordination Sequence:
#
# PCOD9538621 Si02
#       5
#     8   8   8  16   8
#     4  10  20  38  68  90 130 174 218 258 332 394
#     4  10  23  42  67 104 136 171 221 272 338 398
#     4  12  24  42  69 100 133 176 226 275 326 391
#     4  11  21  40  70  95 134 176 216 273 335 390
#     4  10  21  41  65  93 133 177 212 271 328 387
#
# _framework density 22.551200000000001
#
# number of rings (size 3 to 8) (size 9 to 14) (size 15 to 20)
#    0.000    1.333    3.333    3.000    0.000    0.000 
#    0.000   28.333    0.000    0.000    0.000    0.000 
#    0.000    0.000    0.000    0.000    0.000    0.000 
#
# Total GULP energy -133786.809778 kJ/mol
# GULP energy per Si atom -5574.450407 kJ/mol
# Density = 2.249987 g / cm^3
# Si number density = 22.551200 Si / 1000 Ang^3
#
#
#
# Elastic Constant Matrix: (Units=GPa)
#
#
# Indices 1 2 3 4 5 6 
#
# 1 232.2249 17.4504 41.9811 0.0000 0.0000 0.0000
# 2 17.4504 91.8370 28.4626 0.0000 0.0000 0.0000
# 3 41.9811 28.4626 129.3847 0.0000 0.0000 0.0000
# 4 0.0000 0.0000 0.0000 -4.1788 0.0000 0.0000
# 5 0.0000 0.0000 0.0000 0.0000 39.9375 0.0000
# 6 0.0000 0.0000 0.0000 0.0000 0.0000 4.9670
#
#
#
# Elastic Compliance Matrix: (Units=1/GPa)
#
#
# Indices 1 2 3 4 5 6 
#
# 1 0.004591 -0.000441 -0.001393 0.000000 0.000000 0.000000
# 2 -0.000441 0.011728 -0.002437 0.000000 0.000000 0.000000
# 3 -0.001393 -0.002437 0.008717 0.000000 0.000000 0.000000
# 4 0.000000 0.000000 0.000000 -0.239303 0.000000 0.000000
# 5 0.000000 0.000000 0.000000 0.000000 0.025039 0.000000
# 6 0.000000 0.000000 0.000000 0.000000 0.000000 0.201328
#
#
# Mechanical properties :
#
#
# Convention : Reuss Voigt Hill
#
# Bulk Modulus (GPa) = 60.62426 69.91498 65.26962
# Shear Modulus (GPa) = 191.28760 32.51532 111.90146
#
# Velocity S-wave (km/s) = 9.21997 3.80128 7.05186
# Velocity P-wave (km/s) = 11.84420 7.09482 9.76272
#
# Compressibility (1/GPa) = 0.01649505
#
# Stress axis : x y z
#
# Youngs Moduli (GPa) = 217.81478 85.26694 114.72024
#
# Poissons Ratio (x) = 0.03758 0.15977
# Poissons Ratio (y) = 0.09600 0.27957
# Poissons Ratio (z) = 0.30335 0.20779
#
# Static dielectric constant tensor:
#      x y z
#    x 2.058780 0.000000 0.000000 
#    y 0.000000 1.795890 0.000000 
#    z 0.000000 0.000000 1.674060 
# 
# From -- ./inp_files/29843.got.cif
#   From: 2010.05.17/outbox.cif.g08.bks.cpg/sg74_15_cif.got.tgz:29843.got - 2010.06.03 17:57:02.
