data_PCOD9538424
_publ_section_title
;
Structure prediction by ZEFSAII (Michael W. Deem and Ramdas Pophale) SiO2 
 PCOD9538424
Probable space group: I M M A
;
_chemical_formula_sum "Si O2"
_cell_formula_units_Z 100
_cell_length_a 7.937302
_cell_length_b 21.494673
_cell_length_c 27.599000
_cell_angle_alpha 90.000000
_cell_angle_beta 90.000000
_cell_angle_gamma 90.000000
_cell_volume 4708.657414
_symmetry_space_group_name_H-M "I M M A"
_symmetry_group_IT_number 74
_symmetry_cell_setting 'orthorhombic'
loop_
_space_group_symop_operation_xyz
x,y,z
-x,1/2-y,z
x,-y,-z
-x,1/2+y,-z
-x,-y,-z
x,1/2+y,-z
-x,y,z
x,1/2-y,z
1/2+x,1/2+y,1/2+z
1/2-x,-y,1/2+z
1/2+x,1/2-y,1/2-z
1/2-x,y,1/2-z
1/2-x,1/2-y,1/2-z
1/2+x,y,1/2-z
1/2-x,1/2+y,1/2+z
1/2+x,-y,1/2+z
loop_
_atom_site_type_symbol
_atom_site_label
_atom_site_fract_x
_atom_site_fract_y
_atom_site_fract_z
Si Si1 0.192160 0.977180 0.554504
Si Si2 0.000000 0.750000 0.562173
Si Si3 0.296270 0.317964 0.192630
Si Si4 0.188046 0.569214 0.130820
Si Si5 0.199790 0.453546 0.305974
Si Si6 0.810141 0.658952 0.961477
Si Si7 0.196274 0.179165 0.569833
O O1 0.279507 0.911180 0.555018
O O2 0.000000 0.974481 0.574650
O O3 0.178261 0.000000 0.500000
O O4 0.298683 0.027579 0.582822
O O5 0.848307 0.697156 0.559052
O O6 0.500000 0.316984 0.187537
O O7 0.236853 0.250000 0.173197
O O8 0.250000 0.317750 0.250000
O O9 0.235127 0.385859 0.174113
O O10 0.247073 0.518233 0.169759
O O11 0.282321 0.631690 0.114230
O O12 0.000000 0.587968 0.143122
O O13 0.250000 0.455482 0.250000
O O14 0.000000 0.450098 0.309348
O O15 0.000000 0.678804 0.948397
O O16 0.793938 0.662329 0.020458
O O17 0.240308 0.250000 0.583167
O O18 0.000000 0.178019 0.555067
#
# Coordination Sequence:
#
# PCOD9538424 Si02
#       7
#    16   4  16  16  16  16  16
#     4  11  22  38  60  86 120 159 202 252 309 366
#     4  12  22  40  54  86 120 168 212 252 312 358
#     4   8  14  26  49  79 107 138 181 229 286 347
#     4  12  25  38  59  90 121 160 207 249 304 372
#     4  10  20  37  60  86 118 156 198 253 311 366
#     4  12  22  36  60  87 118 162 212 258 305 366
#     4  11  21  38  59  87 121 155 199 251 306 364
#
# _framework density 21.237476000000001
#
# number of rings (size 3 to 8) (size 9 to 14) (size 15 to 20)
#    0.000    1.280    4.000    3.120    0.000    2.240 
#    0.000    0.000    1.760    0.480    0.000    0.000 
#    0.000    0.000    0.000    0.000    0.000    0.000 
#
# Total GULP energy -278540.819574 kJ/mol
# GULP energy per Si atom -5570.816391 kJ/mol
# Density = 2.118914 g / cm^3
# Si number density = 21.237476 Si / 1000 Ang^3
#
#
#
# Elastic Constant Matrix: (Units=GPa)
#
#
# Indices 1 2 3 4 5 6 
#
# 1 100.5291 14.1491 -6.5243 0.0000 0.0000 0.0000
# 2 14.1491 152.4421 23.4321 0.0000 0.0000 0.0000
# 3 -6.5243 23.4321 49.0235 0.0000 0.0000 0.0000
# 4 0.0000 0.0000 0.0000 -52.3767 0.0000 0.0000
# 5 0.0000 0.0000 0.0000 0.0000 19.8425 0.0000
# 6 0.0000 0.0000 0.0000 0.0000 0.0000 77.5571
#
#
#
# Elastic Compliance Matrix: (Units=1/GPa)
#
#
# Indices 1 2 3 4 5 6 
#
# 1 0.010251 -0.001253 0.001963 0.000000 0.000000 0.000000
# 2 -0.001253 0.007233 -0.003624 0.000000 0.000000 0.000000
# 3 0.001963 -0.003624 0.022392 0.000000 0.000000 0.000000
# 4 0.000000 0.000000 0.000000 -0.019092 0.000000 0.000000
# 5 0.000000 0.000000 0.000000 0.000000 0.050397 0.000000
# 6 0.000000 0.000000 0.000000 0.000000 0.000000 0.012894
#
#
# Mechanical properties :
#
#
# Convention : Reuss Voigt Hill
#
# Bulk Modulus (GPa) = 29.37010 40.45647 34.91329
# Shear Modulus (GPa) = 49.38178 27.06712 38.22445
#
# Velocity S-wave (km/s) = 4.82728 3.57388 4.24708
# Velocity P-wave (km/s) = 6.70296 6.01008 6.36595
#
# Compressibility (1/GPa) = 0.03404823
#
# Stress axis : x y z
#
# Youngs Moduli (GPa) = 97.54973 138.25024 44.65897
#
# Poissons Ratio (x) = 0.17326 -0.08768
# Poissons Ratio (y) = 0.12225 0.16185
# Poissons Ratio (z) = -0.19152 0.50104
#
# Static dielectric constant tensor:
#      x y z
#    x 1.777400 0.000000 0.000000 
#    y 0.000000 1.819590 0.000000 
#    z 0.000000 0.000000 1.824700 
# 
# From -- ./inp_files/64430.got.cif
#   From: 2010.05.17/outbox.cif.g08.bks.cpg/sg74_33_cif.got.tgz:64430.got - 2010.06.03 17:57:02.
