data_PCOD9538976
_publ_section_title
;
Structure prediction by ZEFSAII (Michael W. Deem and Ramdas Pophale) SiO2 
 PCOD9538976
Probable space group: I M M A
;
_chemical_formula_sum "Si O2"
_cell_formula_units_Z 80
_cell_length_a 13.566951
_cell_length_b 13.307158
_cell_length_c 17.398044
_cell_angle_alpha 90.000000
_cell_angle_beta 90.000000
_cell_angle_gamma 90.000000
_cell_volume 3141.000422
_symmetry_space_group_name_H-M "I M M A"
_symmetry_group_IT_number 74
_symmetry_cell_setting 'orthorhombic'
loop_
_space_group_symop_operation_xyz
x,y,z
-x,1/2-y,z
x,-y,-z
-x,1/2+y,-z
-x,-y,-z
x,1/2+y,-z
-x,y,z
x,1/2-y,z
1/2+x,1/2+y,1/2+z
1/2-x,-y,1/2+z
1/2+x,1/2-y,1/2-z
1/2-x,y,1/2-z
1/2-x,1/2-y,1/2-z
1/2+x,y,1/2-z
1/2-x,1/2+y,1/2+z
1/2+x,-y,1/2+z
loop_
_atom_site_type_symbol
_atom_site_label
_atom_site_fract_x
_atom_site_fract_y
_atom_site_fract_z
Si Si1 0.311344 0.862566 0.501178
Si Si2 0.894781 0.575850 0.317306
Si Si3 0.389600 0.131687 0.091699
Si Si4 0.820961 0.431807 0.842780
Si Si5 0.887698 0.140527 0.166999
O O1 0.302614 0.750000 0.469996
O O2 0.202333 0.890143 0.534774
O O3 0.353408 0.925824 0.430587
O O4 0.381546 0.856047 0.574617
O O5 0.892201 0.456903 0.343996
O O6 0.888294 0.604916 0.226728
O O7 0.788535 0.613183 0.344995
O O8 0.000000 0.613326 0.347444
O O9 0.500000 0.127280 0.056205
O O10 0.376267 0.250000 0.116798
O O11 0.817745 0.548237 0.817089
O O12 0.857872 0.250000 0.195999
O O13 0.000000 0.120540 0.191047
#
# Coordination Sequence:
#
# PCOD9538976 Si02
#       5
#    16  16  16  16  16
#     4  10  21  38  59  87 119 154 204 254 300 355
#     4  10  22  37  55  85 121 158 201 242 294 364
#     4   9  18  35  60  90 123 156 194 249 313 368
#     4  11  22  37  59  85 118 162 200 245 302 356
#     4  10  21  36  56  85 118 152 193 242 297 358
#
# _framework density 25.469591000000001
#
# number of rings (size 3 to 8) (size 9 to 14) (size 15 to 20)
#    0.000    2.000    2.000    1.200    0.000    4.000 
#    0.000    8.000    0.000    1.200    0.000    0.000 
#    0.000    0.000    0.000    0.000    0.000    0.000 
#
# Total GULP energy -222828.671437 kJ/mol
# GULP energy per Si atom -5570.716786 kJ/mol
# Density = 2.541162 g / cm^3
# Si number density = 25.469591 Si / 1000 Ang^3
#
#
#
# Elastic Constant Matrix: (Units=GPa)
#
#
# Indices 1 2 3 4 5 6 
#
# 1 103.3954 14.3819 -20.8349 0.0000 0.0000 0.0000
# 2 14.3819 64.1508 12.1059 0.0000 0.0000 0.0000
# 3 -20.8349 12.1059 98.7915 0.0000 0.0000 0.0000
# 4 0.0000 0.0000 0.0000 -10.9930 0.0000 0.0000
# 5 0.0000 0.0000 0.0000 0.0000 -5.6513 0.0000
# 6 0.0000 0.0000 0.0000 0.0000 0.0000 6.4680
#
#
#
# Elastic Compliance Matrix: (Units=1/GPa)
#
#
# Indices 1 2 3 4 5 6 
#
# 1 0.010590 -0.002862 0.002584 0.000000 0.000000 0.000000
# 2 -0.002862 0.016731 -0.002654 0.000000 0.000000 0.000000
# 3 0.002584 -0.002654 0.010993 0.000000 0.000000 0.000000
# 4 0.000000 0.000000 0.000000 -0.090967 0.000000 0.000000
# 5 0.000000 0.000000 0.000000 0.000000 -0.176949 0.000000
# 6 0.000000 0.000000 0.000000 0.000000 0.000000 0.154606
#
#
# Mechanical properties :
#
#
# Convention : Reuss Voigt Hill
#
# Bulk Modulus (GPa) = 30.81599 30.84927 30.83263
# Shear Modulus (GPa) = -85.73861 15.34374 -35.19744
#
# Velocity S-wave (km/s) = -5.80829 2.45711 -3.72148
# Velocity P-wave (km/s) = 5.73203 4.49315 2.51673
#
# Compressibility (1/GPa) = 0.03245068
#
# Stress axis : x y z
#
# Youngs Moduli (GPa) = 94.42487 59.77052 90.97094
#
# Poissons Ratio (x) = 0.17106 -0.23509
# Poissons Ratio (y) = 0.27024 0.24141
# Poissons Ratio (z) = -0.24401 0.15862
#
# Static dielectric constant tensor:
#      x y z
#    x 1.947820 0.000000 0.000000 
#    y 0.000000 2.085920 0.000000 
#    z 0.000000 0.000000 2.044430 
# 
# From -- ./inp_files/51650.got.cif
#   From: 2010.05.17/outbox.cif.g08.bks.cpg/sg74_26_cif.got.tgz:51650.got - 2010.06.03 17:57:02.
