data_PCOD9538890
_publ_section_title
;
Structure prediction by ZEFSAII (Michael W. Deem and Ramdas Pophale) SiO2 
 PCOD9538890
Probable space group: I M M A
;
_chemical_formula_sum "Si O2"
_cell_formula_units_Z 88
_cell_length_a 14.215160
_cell_length_b 14.450665
_cell_length_c 21.592015
_cell_angle_alpha 90.000000
_cell_angle_beta 90.000000
_cell_angle_gamma 90.000000
_cell_volume 4435.399659
_symmetry_space_group_name_H-M "I M M A"
_symmetry_group_IT_number 74
_symmetry_cell_setting 'orthorhombic'
loop_
_space_group_symop_operation_xyz
x,y,z
-x,1/2-y,z
x,-y,-z
-x,1/2+y,-z
-x,-y,-z
x,1/2+y,-z
-x,y,z
x,1/2-y,z
1/2+x,1/2+y,1/2+z
1/2-x,-y,1/2+z
1/2+x,1/2-y,1/2-z
1/2-x,y,1/2-z
1/2-x,1/2-y,1/2-z
1/2+x,y,1/2-z
1/2-x,1/2+y,1/2+z
1/2+x,-y,1/2+z
loop_
_atom_site_type_symbol
_atom_site_label
_atom_site_fract_x
_atom_site_fract_y
_atom_site_fract_z
Si Si1 0.604931 0.881849 0.153970
Si Si2 0.393872 0.912862 0.899736
Si Si3 0.385431 0.649148 0.768387
Si Si4 0.387162 0.548219 0.285445
Si Si5 0.241404 0.500000 0.500000
Si Si6 0.201416 0.145886 0.904492
O O1 0.500000 0.843939 0.147395
O O2 0.632965 0.887173 0.225913
O O3 0.688233 0.844293 0.112624
O O4 0.597018 0.987805 0.132982
O O5 0.500000 0.882627 0.918797
O O6 0.357201 0.854513 0.841130
O O7 0.325170 0.935070 0.956567
O O8 0.500000 0.644657 0.769924
O O9 0.359229 0.750000 0.742154
O O10 0.355003 0.557139 0.730903
O O11 0.500000 0.544882 0.291448
O O12 0.343902 0.594520 0.345650
O O13 0.301831 0.427827 0.539990
O O14 0.163912 0.250000 0.915180
#
# Coordination Sequence:
#
# PCOD9538890 Si02
#       6
#    16  16  16  16   8  16
#     4   8  16  32  54  81 110 135 162 205 264 324
#     4   8  14  27  49  74 103 140 172 203 253 315
#     4   8  14  27  51  83 112 134 162 208 270 334
#     4   9  18  34  56  81 109 139 172 216 268 317
#     4  10  21  36  49  66 102 142 184 226 256 294
#     4  11  23  37  54  76 104 140 180 222 264 309
#
# _framework density 19.840375999999999
#
# number of rings (size 3 to 8) (size 9 to 14) (size 15 to 20)
#    0.000    3.091    0.000    3.000    0.000    3.636 
#    0.000    3.182    0.000   14.182    0.000    0.000 
#    0.000    0.000    0.000    0.000    0.000    0.000 
#
# Total GULP energy -244990.983241 kJ/mol
# GULP energy per Si atom -5567.976892 kJ/mol
# Density = 1.979522 g / cm^3
# Si number density = 19.840376 Si / 1000 Ang^3
#
#
#
# Elastic Constant Matrix: (Units=GPa)
#
#
# Indices 1 2 3 4 5 6 
#
# 1 33.6774 9.2356 10.3189 0.0000 0.0000 0.0000
# 2 9.2356 124.9844 29.2146 0.0000 0.0000 0.0000
# 3 10.3189 29.2146 86.2665 0.0000 0.0000 0.0000
# 4 0.0000 0.0000 0.0000 -98.9029 0.0000 0.0000
# 5 0.0000 0.0000 0.0000 0.0000 18.8402 0.0000
# 6 0.0000 0.0000 0.0000 0.0000 0.0000 19.6889
#
#
#
# Elastic Compliance Matrix: (Units=1/GPa)
#
#
# Indices 1 2 3 4 5 6 
#
# 1 0.031098 -0.001551 -0.003194 0.000000 0.000000 0.000000
# 2 -0.001551 0.008766 -0.002783 0.000000 0.000000 0.000000
# 3 -0.003194 -0.002783 0.012917 0.000000 0.000000 0.000000
# 4 0.000000 0.000000 0.000000 -0.010111 0.000000 0.000000
# 5 0.000000 0.000000 0.000000 0.000000 0.053078 0.000000
# 6 0.000000 0.000000 0.000000 0.000000 0.000000 0.050790
#
#
# Mechanical properties :
#
#
# Convention : Reuss Voigt Hill
#
# Bulk Modulus (GPa) = 26.50920 38.05185 32.28052
# Shear Modulus (GPa) = 28.70766 1.00252 14.85509
#
# Velocity S-wave (km/s) = 3.80798 0.71161 2.73926
# Velocity P-wave (km/s) = 5.72054 4.46047 5.12935
#
# Compressibility (1/GPa) = 0.03772276
#
# Stress axis : x y z
#
# Youngs Moduli (GPa) = 32.15671 114.07481 77.41955
#
# Poissons Ratio (x) = 0.17696 0.24731
# Poissons Ratio (y) = 0.04988 0.21547
# Poissons Ratio (z) = 0.10272 0.31749
#
# Static dielectric constant tensor:
#      x y z
#    x 1.760110 0.000000 0.000000 
#    y 0.000000 2.005970 0.000000 
#    z 0.000000 0.000000 1.707700 
# 
# From -- ./inp_files/59932.got.cif
#   From: 2010.05.17/outbox.cif.g08.bks.cpg/sg74_30_cif.got.tgz:59932.got - 2010.06.03 17:57:02.
