data_PCOD9538232
_publ_section_title
;
Structure prediction by ZEFSAII (Michael W. Deem and Ramdas Pophale) SiO2 
 PCOD9538232
Probable space group: I M M A
;
_chemical_formula_sum "Si O2"
_cell_formula_units_Z 100
_cell_length_a 20.412145
_cell_length_b 7.738125
_cell_length_c 29.697977
_cell_angle_alpha 90.000000
_cell_angle_beta 90.000000
_cell_angle_gamma 90.000000
_cell_volume 4690.846831
_symmetry_space_group_name_H-M "I M M A"
_symmetry_group_IT_number 74
_symmetry_cell_setting 'orthorhombic'
loop_
_space_group_symop_operation_xyz
x,y,z
-x,1/2-y,z
x,-y,-z
-x,1/2+y,-z
-x,-y,-z
x,1/2+y,-z
-x,y,z
x,1/2-y,z
1/2+x,1/2+y,1/2+z
1/2-x,-y,1/2+z
1/2+x,1/2-y,1/2-z
1/2-x,y,1/2-z
1/2-x,1/2-y,1/2-z
1/2+x,y,1/2-z
1/2-x,1/2+y,1/2+z
1/2+x,-y,1/2+z
loop_
_atom_site_type_symbol
_atom_site_label
_atom_site_fract_x
_atom_site_fract_y
_atom_site_fract_z
Si Si1 0.827983 0.456662 0.449483
Si Si2 0.426149 0.551057 0.725071
Si Si3 0.806361 0.946552 0.281740
Si Si4 0.073414 0.952199 0.124654
Si Si5 0.179465 0.544225 0.949196
Si Si6 0.606267 0.048249 0.141948
Si Si7 0.000000 0.250000 0.663681
O O1 0.850313 0.500000 0.500000
O O2 0.823949 0.250000 0.446594
O O3 0.753689 0.525821 0.443613
O O4 0.874881 0.508057 0.408773
O O5 0.500000 0.483649 0.732654
O O6 0.423750 0.750000 0.740761
O O7 0.371012 0.448524 0.750859
O O8 0.413909 0.546956 0.671683
O O9 0.786637 0.750000 0.292877
O O10 0.750000 0.024818 0.250000
O O11 0.828166 0.039877 0.327287
O O12 0.072083 0.750000 0.136039
O O13 0.000000 0.002191 0.108793
O O14 0.128173 0.980436 0.087436
O O15 0.182146 0.750000 0.945058
O O16 0.158485 0.500000 0.000000
O O17 0.583627 0.250000 0.142105
O O18 0.556691 0.905176 0.160819
#
# Coordination Sequence:
#
# PCOD9538232 Si02
#       7
#    16  16  16  16  16  16   4
#     4   9  21  40  67  96 128 167 215 268 329 399
#     4  10  22  39  61  88 120 165 211 263 324 386
#     4  11  25  43  64  98 135 175 225 275 332 395
#     4  10  21  37  55  81 118 161 208 259 314 378
#     4  10  20  36  58  88 118 158 208 259 319 385
#     4  11  25  46  72 102 138 178 224 277 338 403
#     4  12  26  48  72 106 134 184 220 282 336 418
#
# _framework density 21.318110000000001
#
# number of rings (size 3 to 8) (size 9 to 14) (size 15 to 20)
#    0.000    1.760    0.800    2.160    4.480    4.160 
#    0.000    0.400    0.000    0.000    0.000    0.000 
#    0.000    0.000    0.000    0.000    0.000    0.000 
#
# Total GULP energy -278792.596468 kJ/mol
# GULP energy per Si atom -5575.851929 kJ/mol
# Density = 2.126959 g / cm^3
# Si number density = 21.318110 Si / 1000 Ang^3
#
#
#
# Elastic Constant Matrix: (Units=GPa)
#
#
# Indices 1 2 3 4 5 6 
#
# 1 66.7717 14.1451 51.9516 0.0000 0.0000 0.0000
# 2 14.1451 84.4600 3.6579 0.0000 0.0000 0.0000
# 3 51.9516 3.6579 90.1868 0.0000 0.0000 0.0000
# 4 0.0000 0.0000 0.0000 19.8160 0.0000 0.0000
# 5 0.0000 0.0000 0.0000 0.0000 21.4951 0.0000
# 6 0.0000 0.0000 0.0000 0.0000 0.0000 35.8123
#
#
#
# Elastic Compliance Matrix: (Units=1/GPa)
#
#
# Indices 1 2 3 4 5 6 
#
# 1 0.028469 -0.004065 -0.016234 0.000000 0.000000 0.000000
# 2 -0.004065 0.012441 0.001837 0.000000 0.000000 0.000000
# 3 -0.016234 0.001837 0.020365 0.000000 0.000000 0.000000
# 4 0.000000 0.000000 0.000000 0.050464 0.000000 0.000000
# 5 0.000000 0.000000 0.000000 0.000000 0.046522 0.000000
# 6 0.000000 0.000000 0.000000 0.000000 0.000000 0.027923
#
#
# Mechanical properties :
#
#
# Convention : Reuss Voigt Hill
#
# Bulk Modulus (GPa) = 41.06669 42.32529 41.69599
# Shear Modulus (GPa) = 21.62388 26.86896 24.24642
#
# Velocity S-wave (km/s) = 3.18833 3.55404 3.37614
# Velocity P-wave (km/s) = 5.73232 6.06126 5.89908
#
# Compressibility (1/GPa) = 0.02435063
#
# Stress axis : x y z
#
# Youngs Moduli (GPa) = 35.12649 80.37867 49.10320
#
# Poissons Ratio (x) = 0.32672 0.79716
# Poissons Ratio (y) = 0.14278 -0.09020
# Poissons Ratio (z) = 0.57025 -0.14764
#
# Static dielectric constant tensor:
#      x y z
#    x 1.781670 0.000000 0.000000 
#    y 0.000000 1.803640 0.000000 
#    z 0.000000 0.000000 1.768160 
# 
# From -- ./inp_files/73365.got.cif
#   From: 2010.05.17/outbox.cif.g08.bks.cpg/sg74_37_cif.got.tgz:73365.got - 2010.06.03 17:57:02.
