data_PCOD9538432
_publ_section_title
;
Structure prediction by ZEFSAII (Michael W. Deem and Ramdas Pophale) SiO2 
 PCOD9538432
Probable space group: I M M A
;
_chemical_formula_sum "Si O2"
_cell_formula_units_Z 72
_cell_length_a 14.814070
_cell_length_b 8.668809
_cell_length_c 30.451791
_cell_angle_alpha 90.000000
_cell_angle_beta 90.000000
_cell_angle_gamma 90.000000
_cell_volume 3910.629456
_symmetry_space_group_name_H-M "I M M A"
_symmetry_group_IT_number 74
_symmetry_cell_setting 'orthorhombic'
loop_
_space_group_symop_operation_xyz
x,y,z
-x,1/2-y,z
x,-y,-z
-x,1/2+y,-z
-x,-y,-z
x,1/2+y,-z
-x,y,z
x,1/2-y,z
1/2+x,1/2+y,1/2+z
1/2-x,-y,1/2+z
1/2+x,1/2-y,1/2-z
1/2-x,y,1/2-z
1/2-x,1/2-y,1/2-z
1/2+x,y,1/2-z
1/2-x,1/2+y,1/2+z
1/2+x,-y,1/2+z
loop_
_atom_site_type_symbol
_atom_site_label
_atom_site_fract_x
_atom_site_fract_y
_atom_site_fract_z
Si Si1 0.000000 0.935174 0.337645
Si Si2 0.697888 0.435565 0.549464
Si Si3 0.500000 0.565653 0.264880
Si Si4 0.689728 0.935824 0.708066
Si Si5 0.313651 0.564938 0.873885
Si Si6 0.500000 0.564442 0.450563
O O1 0.000000 0.750000 0.338682
O O2 0.000000 0.985269 0.286377
O O3 0.089421 0.998140 0.360941
O O4 0.704865 0.500000 0.500000
O O5 0.702525 0.250000 0.548338
O O6 0.774607 0.502451 0.580600
O O7 0.597805 0.482189 0.567951
O O8 0.500000 0.750000 0.265710
O O9 0.409461 0.504707 0.287474
O O10 0.682938 0.750000 0.708935
O O11 0.750000 0.983860 0.750000
O O12 0.743155 0.981579 0.664354
O O13 0.318670 0.750000 0.874786
O O14 0.500000 0.750000 0.452005
O O15 0.500000 0.500000 0.500000
#
# Coordination Sequence:
#
# PCOD9538432 Si02
#       6
#     8  16   8  16  16   8
#     4  11  23  39  59  85 115 153 195 242 298 355
#     4  10  20  37  60  88 122 157 196 242 292 348
#     4  11  23  36  58  88 120 154 195 246 298 347
#     4  10  21  38  59  83 115 155 196 238 287 346
#     4  11  23  39  61  87 115 154 200 244 292 349
#     4   8  16  31  54  81 111 149 185 224 279 338
#
# _framework density 18.411359000000001
#
# number of rings (size 3 to 8) (size 9 to 14) (size 15 to 20)
#    0.000    1.778    2.222    2.000    0.000    4.889 
#    0.000    2.778    0.000    0.000    0.000    0.000 
#    0.000    0.000    0.000    0.000    0.000    0.000 
#
# Total GULP energy -201014.918213 kJ/mol
# GULP energy per Si atom -5583.747728 kJ/mol
# Density = 1.836945 g / cm^3
# Si number density = 18.411359 Si / 1000 Ang^3
#
#
#
# Elastic Constant Matrix: (Units=GPa)
#
#
# Indices 1 2 3 4 5 6 
#
# 1 194.0201 49.6614 76.8448 0.0000 0.0000 0.0000
# 2 49.6614 43.2842 34.6276 0.0000 0.0000 0.0000
# 3 76.8448 34.6276 98.4810 0.0000 0.0000 0.0000
# 4 0.0000 0.0000 0.0000 23.8027 0.0000 0.0000
# 5 0.0000 0.0000 0.0000 0.0000 28.4451 0.0000
# 6 0.0000 0.0000 0.0000 0.0000 0.0000 16.9267
#
#
#
# Elastic Compliance Matrix: (Units=1/GPa)
#
#
# Indices 1 2 3 4 5 6 
#
# 1 0.008505 -0.006190 -0.004460 0.000000 0.000000 0.000000
# 2 -0.006190 0.036651 -0.008057 0.000000 0.000000 0.000000
# 3 -0.004460 -0.008057 0.016467 0.000000 0.000000 0.000000
# 4 0.000000 0.000000 0.000000 0.042012 0.000000 0.000000
# 5 0.000000 0.000000 0.000000 0.000000 0.035155 0.000000
# 6 0.000000 0.000000 0.000000 0.000000 0.000000 0.059078
#
#
# Mechanical properties :
#
#
# Convention : Reuss Voigt Hill
#
# Bulk Modulus (GPa) = 41.30660 73.11699 57.21179
# Shear Modulus (GPa) = 20.54637 25.47834 23.01235
#
# Velocity S-wave (km/s) = 3.34423 3.72403 3.53923
# Velocity P-wave (km/s) = 6.11522 7.63482 6.91687
#
# Compressibility (1/GPa) = 0.02420921
#
# Stress axis : x y z
#
# Youngs Moduli (GPa) = 117.57911 27.28458 60.72675
#
# Poissons Ratio (x) = 0.16889 0.27083
# Poissons Ratio (y) = 0.72782 0.48927
# Poissons Ratio (z) = 0.52439 0.21983
#
# Static dielectric constant tensor:
#      x y z
#    x 1.623220 0.000000 0.000000 
#    y 0.000000 1.612200 0.000000 
#    z 0.000000 0.000000 1.614240 
# 
# From -- ./inp_files/63643.got.cif
#   From: 2010.05.17/outbox.cif.g08.bks.cpg/sg74_32_cif.got.tgz:63643.got - 2010.06.03 17:57:02.
