data_PCOD9538054
_publ_section_title
;
Structure prediction by ZEFSAII (Michael W. Deem and Ramdas Pophale) SiO2 
 PCOD9538054
Probable space group: I M M A
;
_chemical_formula_sum "Si O2"
_cell_formula_units_Z 112
_cell_length_a 18.897260
_cell_length_b 19.893723
_cell_length_c 15.164385
_cell_angle_alpha 90.000000
_cell_angle_beta 90.000000
_cell_angle_gamma 90.000000
_cell_volume 5700.851219
_symmetry_space_group_name_H-M "I M M A"
_symmetry_group_IT_number 74
_symmetry_cell_setting 'orthorhombic'
loop_
_space_group_symop_operation_xyz
x,y,z
-x,1/2-y,z
x,-y,-z
-x,1/2+y,-z
-x,-y,-z
x,1/2+y,-z
-x,y,z
x,1/2-y,z
1/2+x,1/2+y,1/2+z
1/2-x,-y,1/2+z
1/2+x,1/2-y,1/2-z
1/2-x,y,1/2-z
1/2-x,1/2-y,1/2-z
1/2+x,y,1/2-z
1/2-x,1/2+y,1/2+z
1/2+x,-y,1/2+z
loop_
_atom_site_type_symbol
_atom_site_label
_atom_site_fract_x
_atom_site_fract_y
_atom_site_fract_z
Si Si1 0.682914 0.455945 0.588139
Si Si2 0.083308 0.908759 0.635730
Si Si3 0.665704 0.172675 0.480374
Si Si4 0.583293 0.963979 0.255772
Si Si5 0.419038 0.669773 0.694761
Si Si6 0.329360 0.323955 0.011582
Si Si7 0.302497 0.374066 0.822501
O O1 0.693564 0.500000 0.500000
O O2 0.654824 0.383036 0.555107
O O3 0.626679 0.486697 0.656954
O O4 0.755879 0.437317 0.638866
O O5 0.110081 0.862264 0.716324
O O6 0.126036 0.885101 0.550866
O O7 0.000000 0.895957 0.620406
O O8 0.090045 0.982935 0.675604
O O9 0.649215 0.250000 0.506370
O O10 0.621939 0.154140 0.394066
O O11 0.748644 0.170789 0.455702
O O12 0.500000 0.954946 0.273597
O O13 0.626522 0.899075 0.224126
O O14 0.500000 0.645403 0.686752
O O15 0.419272 0.750000 0.703999
O O16 0.358234 0.250000 0.035652
O O17 0.321606 0.330099 0.906537
O O18 0.250000 0.342565 0.750000
#
# Coordination Sequence:
#
# PCOD9538054 Si02
#       7
#    16  16  16  16  16  16  16
#     4  10  20  35  59  85 110 148 192 240 282 340
#     4  10  21  35  52  78 113 148 183 226 277 336
#     4   9  19  34  53  82 113 145 189 240 293 340
#     4  10  22  38  55  80 113 148 185 232 290 339
#     4   9  17  31  50  74 111 152 183 219 276 339
#     4  10  21  36  57  81 107 142 185 231 276 335
#     4   9  21  39  57  80 109 141 181 229 284 336
#
# _framework density 19.646189
#
# number of rings (size 3 to 8) (size 9 to 14) (size 15 to 20)
#    0.000    2.429    0.000    1.286    4.000    3.143 
#    2.571    5.714    0.000    0.857    0.000    0.000 
#    0.000    0.000    0.000    0.000    0.000    0.000 
#
# Total GULP energy -312242.598781 kJ/mol
# GULP energy per Si atom -5575.760693 kJ/mol
# Density = 1.960147 g / cm^3
# Si number density = 19.646189 Si / 1000 Ang^3
#
#
#
# Elastic Constant Matrix: (Units=GPa)
#
#
# Indices 1 2 3 4 5 6 
#
# 1 50.5939 13.8320 18.8684 0.0000 0.0000 0.0000
# 2 13.8320 44.6467 12.3261 0.0000 0.0000 0.0000
# 3 18.8684 12.3261 67.4042 0.0000 0.0000 0.0000
# 4 0.0000 0.0000 0.0000 28.5599 0.0000 0.0000
# 5 0.0000 0.0000 0.0000 0.0000 74.0259 0.0000
# 6 0.0000 0.0000 0.0000 0.0000 0.0000 15.4066
#
#
#
# Elastic Compliance Matrix: (Units=1/GPa)
#
#
# Indices 1 2 3 4 5 6 
#
# 1 0.023381 -0.005726 -0.005498 0.000000 0.000000 0.000000
# 2 -0.005726 0.024991 -0.002967 0.000000 0.000000 0.000000
# 3 -0.005498 -0.002967 0.016918 0.000000 0.000000 0.000000
# 4 0.000000 0.000000 0.000000 0.035014 0.000000 0.000000
# 5 0.000000 0.000000 0.000000 0.000000 0.013509 0.000000
# 6 0.000000 0.000000 0.000000 0.000000 0.000000 0.064907
#
#
# Mechanical properties :
#
#
# Convention : Reuss Voigt Hill
#
# Bulk Modulus (GPa) = 27.09461 28.07751 27.58606
# Shear Modulus (GPa) = 22.78898 31.43971 27.11434
#
# Velocity S-wave (km/s) = 3.40953 4.00471 3.71904
# Velocity P-wave (km/s) = 5.41489 5.97547 5.70207
#
# Compressibility (1/GPa) = 0.03690770
#
# Stress axis : x y z
#
# Youngs Moduli (GPa) = 42.76973 40.01412 59.11026
#
# Poissons Ratio (x) = 0.22911 0.32499
# Poissons Ratio (y) = 0.24489 0.17540
# Poissons Ratio (z) = 0.23515 0.11873
#
# Static dielectric constant tensor:
#      x y z
#    x 1.679910 0.000000 0.000000 
#    y 0.000000 1.732760 0.000000 
#    z 0.000000 0.000000 1.703140 
# 
# From -- ./inp_files/44375.got.cif
#   From: 2010.05.17/outbox.cif.g08.bks.cpg/sg74_23_cif.got.tgz:44375.got - 2010.06.03 17:57:02.
