data_PCOD9538616
_publ_section_title
;
Structure prediction by ZEFSAII (Michael W. Deem and Ramdas Pophale) SiO2 
 PCOD9538616
Probable space group: I M M A
;
_chemical_formula_sum "Si O2"
_cell_formula_units_Z 72
_cell_length_a 18.167880
_cell_length_b 11.888156
_cell_length_c 17.431333
_cell_angle_alpha 90.000000
_cell_angle_beta 90.000000
_cell_angle_gamma 90.000000
_cell_volume 3764.864477
_symmetry_space_group_name_H-M "I M M A"
_symmetry_group_IT_number 74
_symmetry_cell_setting 'orthorhombic'
loop_
_space_group_symop_operation_xyz
x,y,z
-x,1/2-y,z
x,-y,-z
-x,1/2+y,-z
-x,-y,-z
x,1/2+y,-z
-x,y,z
x,1/2-y,z
1/2+x,1/2+y,1/2+z
1/2-x,-y,1/2+z
1/2+x,1/2-y,1/2-z
1/2-x,y,1/2-z
1/2-x,1/2-y,1/2-z
1/2+x,y,1/2-z
1/2-x,1/2+y,1/2+z
1/2+x,-y,1/2+z
loop_
_atom_site_type_symbol
_atom_site_label
_atom_site_fract_x
_atom_site_fract_y
_atom_site_fract_z
Si Si1 0.228687 0.750000 0.159434
Si Si2 0.500000 0.619449 0.545870
Si Si3 0.914952 0.990665 0.312422
Si Si4 0.725523 0.486904 0.909205
Si Si5 0.137952 0.379764 0.161432
Si Si6 0.917528 0.250000 0.766472
O O1 0.250000 0.750000 0.250000
O O2 0.257273 0.860131 0.117607
O O3 0.140440 0.750000 0.164909
O O4 0.500000 0.750000 0.511963
O O5 0.500000 0.500000 0.500000
O O6 0.426849 0.613998 0.598417
O O7 0.855620 0.015271 0.377898
O O8 0.908395 0.860595 0.285501
O O9 0.000000 0.012396 0.332839
O O10 0.891742 0.060520 0.237581
O O11 0.788331 0.561330 0.868800
O O12 0.730317 0.500000 0.000000
O O13 0.153219 0.250000 0.177736
O O14 0.000000 0.250000 0.797484
#
# Coordination Sequence:
#
# PCOD9538616 Si02
#       6
#     8   8  16  16  16   8
#     4  12  20  44  72  94 129 176 227 278 324 401
#     4  10  22  44  64  96 141 176 218 280 345 402
#     4  11  22  42  69  96 125 170 227 275 326 393
#     4  12  26  41  65  99 137 171 217 277 339 396
#     4  11  23  42  65  93 131 175 219 266 325 407
#     4  10  20  38  68 102 118 160 228 286 316 383
#
# _framework density 19.124195
#
# number of rings (size 3 to 8) (size 9 to 14) (size 15 to 20)
#    0.000    0.889    5.556    1.333    1.556    2.222 
#    4.000    0.000    0.000    0.000    0.000    0.000 
#    0.000    0.000    0.000    0.000    0.000    0.000 
#
# Total GULP energy -201165.829623 kJ/mol
# GULP energy per Si atom -5587.939712 kJ/mol
# Density = 1.908067 g / cm^3
# Si number density = 19.124195 Si / 1000 Ang^3
#
#
#
# Elastic Constant Matrix: (Units=GPa)
#
#
# Indices 1 2 3 4 5 6 
#
# 1 172.1510 41.2699 36.2675 0.0000 0.0000 0.0000
# 2 41.2699 150.1092 47.3281 0.0000 0.0000 0.0000
# 3 36.2675 47.3281 64.3863 0.0000 0.0000 0.0000
# 4 0.0000 0.0000 0.0000 -16.0440 0.0000 0.0000
# 5 0.0000 0.0000 0.0000 0.0000 23.6353 0.0000
# 6 0.0000 0.0000 0.0000 0.0000 0.0000 -39.8121
#
#
#
# Elastic Compliance Matrix: (Units=1/GPa)
#
#
# Indices 1 2 3 4 5 6 
#
# 1 0.006672 -0.000845 -0.003137 0.000000 0.000000 0.000000
# 2 -0.000845 0.008779 -0.005977 0.000000 0.000000 0.000000
# 3 -0.003137 -0.005977 0.021692 0.000000 0.000000 0.000000
# 4 0.000000 0.000000 0.000000 -0.062328 0.000000 0.000000
# 5 0.000000 0.000000 0.000000 0.000000 0.042310 0.000000
# 6 0.000000 0.000000 0.000000 0.000000 0.000000 -0.025118
#
#
# Mechanical properties :
#
#
# Convention : Reuss Voigt Hill
#
# Bulk Modulus (GPa) = 58.05717 70.70860 64.38289
# Shear Modulus (GPa) = 283.04036 11.00790 147.02413
#
# Velocity S-wave (km/s) = 12.17877 2.40177 8.77756
# Velocity P-wave (km/s) = 15.10587 6.68917 11.68187
#
# Compressibility (1/GPa) = 0.01722440
#
# Stress axis : x y z
#
# Youngs Moduli (GPa) = 149.87110 113.91294 46.10098
#
# Poissons Ratio (x) = 0.09630 0.14462
# Poissons Ratio (y) = 0.12670 0.27553
# Poissons Ratio (z) = 0.47015 0.68082
#
# Static dielectric constant tensor:
#      x y z
#    x 1.694420 0.000000 0.000000 
#    y 0.000000 1.671470 0.000000 
#    z 0.000000 0.000000 1.628040 
# 
# From -- ./inp_files/43749.got.cif
#   From: 2010.05.17/outbox.cif.g08.bks.cpg/sg74_22_cif.got.tgz:43749.got - 2010.06.03 17:57:02.
