data_PCOD9538715
_publ_section_title
;
Structure prediction by ZEFSAII (Michael W. Deem and Ramdas Pophale) SiO2 
 PCOD9538715
Probable space group: I M M A
;
_chemical_formula_sum "Si O2"
_cell_formula_units_Z 36
_cell_length_a 7.778499
_cell_length_b 11.645847
_cell_length_c 20.459191
_cell_angle_alpha 90.000000
_cell_angle_beta 90.000000
_cell_angle_gamma 90.000000
_cell_volume 1853.341016
_symmetry_space_group_name_H-M "I M M A"
_symmetry_group_IT_number 74
_symmetry_cell_setting 'orthorhombic'
loop_
_space_group_symop_operation_xyz
x,y,z
-x,1/2-y,z
x,-y,-z
-x,1/2+y,-z
-x,-y,-z
x,1/2+y,-z
-x,y,z
x,1/2-y,z
1/2+x,1/2+y,1/2+z
1/2-x,-y,1/2+z
1/2+x,1/2-y,1/2-z
1/2-x,y,1/2-z
1/2-x,1/2-y,1/2-z
1/2+x,y,1/2-z
1/2-x,1/2+y,1/2+z
1/2+x,-y,1/2+z
loop_
_atom_site_type_symbol
_atom_site_label
_atom_site_fract_x
_atom_site_fract_y
_atom_site_fract_z
Si Si1 0.196459 0.250000 0.345979
Si Si2 0.000000 0.250000 0.473371
Si Si3 0.695369 0.504437 0.323085
Si Si4 0.000000 0.619433 0.400012
O O1 0.160641 0.250000 0.424134
O O2 0.288361 0.366404 0.326286
O O3 0.000000 0.250000 0.318327
O O4 0.000000 0.357971 0.522262
O O5 0.500000 0.539465 0.336277
O O6 0.750000 0.540340 0.250000
O O7 0.832871 0.554585 0.373796
O O8 0.000000 0.750000 0.372630
#
# Coordination Sequence:
#
# PCOD9538715 Si02
#       4
#     8   4  16   8
#     4  10  20  40  69  88 129 165 206 266 321 377
#     4   8  22  44  68  86 132 182 210 244 332 360
#     4  12  23  40  64 100 128 165 213 266 330 375
#     4  10  23  45  64  90 130 179 215 256 306 388
#
# _framework density 19.424378000000001
#
# number of rings (size 3 to 8) (size 9 to 14) (size 15 to 20)
#    1.333    0.000    4.444    1.333    0.000    5.333 
#    0.000    6.667    0.000    0.000    0.000    0.000 
#    0.000    0.000    0.000    0.000    0.000    0.000 
#
# Total GULP energy -100436.636754 kJ/mol
# GULP energy per Si atom -5579.813153 kJ/mol
# Density = 1.938017 g / cm^3
# Si number density = 19.424378 Si / 1000 Ang^3
#
#
#
# Elastic Constant Matrix: (Units=GPa)
#
#
# Indices 1 2 3 4 5 6 
#
# 1 154.2972 13.8435 30.1059 0.0000 0.0000 0.0000
# 2 13.8435 61.7295 -5.8057 0.0000 0.0000 0.0000
# 3 30.1059 -5.8057 112.2382 0.0000 0.0000 0.0000
# 4 0.0000 0.0000 0.0000 26.4181 0.0000 0.0000
# 5 0.0000 0.0000 0.0000 0.0000 14.8781 0.0000
# 6 0.0000 0.0000 0.0000 0.0000 0.0000 16.7492
#
#
#
# Elastic Compliance Matrix: (Units=1/GPa)
#
#
# Indices 1 2 3 4 5 6 
#
# 1 0.007024 -0.001761 -0.001975 0.000000 0.000000 0.000000
# 2 -0.001761 0.016720 0.001337 0.000000 0.000000 0.000000
# 3 -0.001975 0.001337 0.009509 0.000000 0.000000 0.000000
# 4 0.000000 0.000000 0.000000 0.037853 0.000000 0.000000
# 5 0.000000 0.000000 0.000000 0.000000 0.067213 0.000000
# 6 0.000000 0.000000 0.000000 0.000000 0.000000 0.059704
#
#
# Mechanical properties :
#
#
# Convention : Reuss Voigt Hill
#
# Bulk Modulus (GPa) = 35.14284 44.95027 40.04655
# Shear Modulus (GPa) = 23.55082 30.95049 27.25065
#
# Velocity S-wave (km/s) = 3.48578 3.99605 3.74961
# Velocity P-wave (km/s) = 5.85938 6.66953 6.27754
#
# Compressibility (1/GPa) = 0.02845530
#
# Stress axis : x y z
#
# Youngs Moduli (GPa) = 142.36072 59.80706 105.16774
#
# Poissons Ratio (x) = 0.10532 0.20773
# Poissons Ratio (y) = 0.25071 -0.14064
# Poissons Ratio (z) = 0.28120 -0.07998
#
# Static dielectric constant tensor:
#      x y z
#    x 1.648390 0.000000 0.000000 
#    y 0.000000 1.690240 0.000000 
#    z 0.000000 0.000000 1.679260 
# 
# From -- ./inp_files/40299.got.cif
#   From: 2010.05.17/outbox.cif.g08.bks.cpg/sg74_21_cif.got.tgz:40299.got - 2010.06.03 17:57:02.
