data_PCOD9538171
_publ_section_title
;
Structure prediction by ZEFSAII (Michael W. Deem and Ramdas Pophale) SiO2 
 PCOD9538171
Probable space group: I M M A
;
_chemical_formula_sum "Si O2"
_cell_formula_units_Z 104
_cell_length_a 8.793222
_cell_length_b 29.040831
_cell_length_c 20.175104
_cell_angle_alpha 90.000000
_cell_angle_beta 90.000000
_cell_angle_gamma 90.000000
_cell_volume 5151.964472
_symmetry_space_group_name_H-M "I M M A"
_symmetry_group_IT_number 74
_symmetry_cell_setting 'orthorhombic'
loop_
_space_group_symop_operation_xyz
x,y,z
-x,1/2-y,z
x,-y,-z
-x,1/2+y,-z
-x,-y,-z
x,1/2+y,-z
-x,y,z
x,1/2-y,z
1/2+x,1/2+y,1/2+z
1/2-x,-y,1/2+z
1/2+x,1/2-y,1/2-z
1/2-x,y,1/2-z
1/2-x,1/2-y,1/2-z
1/2+x,y,1/2-z
1/2-x,1/2+y,1/2+z
1/2+x,-y,1/2+z
loop_
_atom_site_type_symbol
_atom_site_label
_atom_site_fract_x
_atom_site_fract_y
_atom_site_fract_z
Si Si1 0.816834 0.371514 0.823226
Si Si2 0.680950 0.149799 0.322463
Si Si3 0.673278 0.039892 0.446582
Si Si4 0.822012 0.127094 0.451930
Si Si5 0.817918 0.250000 0.176820
Si Si6 0.315348 0.695941 0.065162
Si Si7 0.316380 0.978441 0.322877
O O1 0.750000 0.362534 0.750000
O O2 0.750533 0.334448 0.874770
O O3 0.776212 0.425026 0.839521
O O4 0.000000 0.368188 0.822354
O O5 0.500000 0.147645 0.317068
O O6 0.750000 0.142552 0.250000
O O7 0.744771 0.119361 0.380470
O O8 0.729140 0.200754 0.349720
O O9 0.500000 0.057955 0.435866
O O10 0.777635 0.078169 0.481768
O O11 0.660663 0.000000 0.500000
O O12 0.730200 0.015020 0.379115
O O13 0.766674 0.168864 0.498129
O O14 0.000000 0.133182 0.442534
O O15 0.750000 0.250000 0.250000
O O16 0.000000 0.250000 0.179786
O O17 0.500000 0.694447 0.067948
O O18 0.270364 0.750000 0.065843
O O19 0.500000 0.980394 0.319614
O O20 0.250000 0.988839 0.250000
#
# Coordination Sequence:
#
# PCOD9538171 Si02
#       7
#    16  16  16  16   8  16  16
#     4  10  20  37  63  93 122 153 191 235 287 350
#     4  10  20  36  57  82 112 147 190 238 287 341
#     4  10  21  39  61  83 112 151 193 239 290 346
#     4  11  24  39  58  85 116 154 196 244 299 349
#     4   8  16  30  50  76 102 134 177 224 271 322
#     4  10  23  42  60  82 116 157 200 246 294 345
#     4   9  19  35  58  88 119 151 186 230 286 345
#
# _framework density 20.186475000000002
#
# number of rings (size 3 to 8) (size 9 to 14) (size 15 to 20)
#    0.000    2.154    0.000    2.308    1.077    5.846 
#    0.000    1.538    0.000    0.000    0.000    0.000 
#    0.000    0.000    0.000    0.000    0.000    0.000 
#
# Total GULP energy -289812.287739 kJ/mol
# GULP energy per Si atom -5573.313226 kJ/mol
# Density = 2.014053 g / cm^3
# Si number density = 20.186475 Si / 1000 Ang^3
#
#
#
# Elastic Constant Matrix: (Units=GPa)
#
#
# Indices 1 2 3 4 5 6 
#
# 1 25.7829 21.4171 24.7843 0.0000 0.0000 0.0000
# 2 21.4171 96.9579 48.6974 0.0000 0.0000 0.0000
# 3 24.7843 48.6974 112.0947 0.0000 0.0000 0.0000
# 4 0.0000 0.0000 0.0000 36.1412 0.0000 0.0000
# 5 0.0000 0.0000 0.0000 0.0000 26.9437 0.0000
# 6 0.0000 0.0000 0.0000 0.0000 0.0000 33.7352
#
#
#
# Elastic Compliance Matrix: (Units=1/GPa)
#
#
# Indices 1 2 3 4 5 6 
#
# 1 0.053172 -0.007471 -0.008511 0.000000 0.000000 0.000000
# 2 -0.007471 0.014242 -0.004535 0.000000 0.000000 0.000000
# 3 -0.008511 -0.004535 0.012773 0.000000 0.000000 0.000000
# 4 0.000000 0.000000 0.000000 0.027669 0.000000 0.000000
# 5 0.000000 0.000000 0.000000 0.000000 0.037114 0.000000
# 6 0.000000 0.000000 0.000000 0.000000 0.000000 0.029643
#
#
# Mechanical properties :
#
#
# Convention : Reuss Voigt Hill
#
# Bulk Modulus (GPa) = 25.54057 47.18146 36.36102
# Shear Modulus (GPa) = 21.86283 28.69314 25.27798
#
# Velocity S-wave (km/s) = 3.29453 3.77424 3.54252
# Velocity P-wave (km/s) = 5.21073 6.51281 5.89782
#
# Compressibility (1/GPa) = 0.03915340
#
# Stress axis : x y z
#
# Youngs Moduli (GPa) = 18.80675 70.21580 78.28941
#
# Poissons Ratio (x) = 0.52455 0.66633
# Poissons Ratio (y) = 0.14050 0.35507
# Poissons Ratio (z) = 0.16007 0.31845
#
# Static dielectric constant tensor:
#      x y z
#    x 1.648150 0.000000 0.000000 
#    y 0.000000 1.955170 0.000000 
#    z 0.000000 0.000000 1.714690 
# 
# From -- ./inp_files/49346.got.cif
#   From: 2010.05.17/outbox.cif.g08.bks.cpg/sg74_25_cif.got.tgz:49346.got - 2010.06.03 17:57:02.
