data_PCOD9538467
_publ_section_title
;
Structure prediction by ZEFSAII (Michael W. Deem and Ramdas Pophale) SiO2 
 PCOD9538467
Probable space group: I M M A
;
_chemical_formula_sum "Si O2"
_cell_formula_units_Z 72
_cell_length_a 21.386182
_cell_length_b 19.528955
_cell_length_c 9.338754
_cell_angle_alpha 90.000000
_cell_angle_beta 90.000000
_cell_angle_gamma 90.000000
_cell_volume 3900.328609
_symmetry_space_group_name_H-M "I M M A"
_symmetry_group_IT_number 74
_symmetry_cell_setting 'orthorhombic'
loop_
_space_group_symop_operation_xyz
x,y,z
-x,1/2-y,z
x,-y,-z
-x,1/2+y,-z
-x,-y,-z
x,1/2+y,-z
-x,y,z
x,1/2-y,z
1/2+x,1/2+y,1/2+z
1/2-x,-y,1/2+z
1/2+x,1/2-y,1/2-z
1/2-x,y,1/2-z
1/2-x,1/2-y,1/2-z
1/2+x,y,1/2-z
1/2-x,1/2+y,1/2+z
1/2+x,-y,1/2+z
loop_
_atom_site_type_symbol
_atom_site_label
_atom_site_fract_x
_atom_site_fract_y
_atom_site_fract_z
Si Si1 0.336507 0.000000 0.000000
Si Si2 0.098071 0.900741 0.047688
Si Si3 0.286383 0.250000 0.397339
Si Si4 0.240154 0.118073 0.914432
Si Si5 0.931496 0.524275 0.756631
Si Si6 0.927882 0.750000 0.979239
O O1 0.292509 0.063652 0.958068
O O2 0.379614 0.978814 0.865751
O O3 0.081568 0.922109 0.885062
O O4 0.171427 0.913911 0.070081
O O5 0.067111 0.951749 0.160153
O O6 0.080249 0.821219 0.065777
O O7 0.250000 0.250000 0.250000
O O8 0.264236 0.183752 0.484791
O O9 0.362906 0.250000 0.385342
O O10 0.250000 0.138548 0.750000
O O11 0.000000 0.538678 0.694670
O O12 0.000000 0.750000 0.920771
#
# Coordination Sequence:
#
# PCOD9538467 Si02
#       6
#     8  16   8  16  16   8
#     4  12  25  36  62  88 125 156 210 252 308 362
#     4  10  21  38  64  88 116 159 207 249 300 365
#     4  10  25  41  66  95 125 158 200 257 314 371
#     4  11  23  41  62  90 124 162 200 251 308 363
#     4  11  22  39  58  87 123 162 202 254 306 361
#     4  10  20  37  62  91 118 156 202 249 294 364
#
# _framework density 18.459983000000001
#
# number of rings (size 3 to 8) (size 9 to 14) (size 15 to 20)
#    0.000    1.333    2.222    4.667    6.222    0.000 
#    0.000    0.000    0.000    0.000    0.000    4.667 
#    0.000    0.000    0.000    0.000    0.000    0.000 
#
# Total GULP energy -200845.516442 kJ/mol
# GULP energy per Si atom -5579.042123 kJ/mol
# Density = 1.841797 g / cm^3
# Si number density = 18.459983 Si / 1000 Ang^3
#
#
#
# Elastic Constant Matrix: (Units=GPa)
#
#
# Indices 1 2 3 4 5 6 
#
# 1 164.6367 26.8387 56.9887 0.0000 0.0000 0.0000
# 2 26.8387 77.8435 29.0816 0.0000 0.0000 0.0000
# 3 56.9887 29.0816 100.3708 0.0000 0.0000 0.0000
# 4 0.0000 0.0000 0.0000 16.2519 0.0000 0.0000
# 5 0.0000 0.0000 0.0000 0.0000 222.5120 0.0000
# 6 0.0000 0.0000 0.0000 0.0000 0.0000 27.1818
#
#
#
# Elastic Compliance Matrix: (Units=1/GPa)
#
#
# Indices 1 2 3 4 5 6 
#
# 1 0.007649 -0.001138 -0.004013 0.000000 0.000000 0.000000
# 2 -0.001138 0.014575 -0.003577 0.000000 0.000000 0.000000
# 3 -0.004013 -0.003577 0.013278 0.000000 0.000000 0.000000
# 4 0.000000 0.000000 0.000000 0.061531 0.000000 0.000000
# 5 0.000000 0.000000 0.000000 0.000000 0.004494 0.000000
# 6 0.000000 0.000000 0.000000 0.000000 0.000000 0.036789
#
#
# Mechanical properties :
#
#
# Convention : Reuss Voigt Hill
#
# Bulk Modulus (GPa) = 55.41436 63.18543 59.29990
# Shear Modulus (GPa) = 30.90487 68.51862 49.71175
#
# Velocity S-wave (km/s) = 4.09608 6.09901 5.19499
# Velocity P-wave (km/s) = 7.24254 9.15969 8.25694
#
# Compressibility (1/GPa) = 0.01804586
#
# Stress axis : x y z
#
# Youngs Moduli (GPa) = 130.74334 68.61121 75.31273
#
# Poissons Ratio (x) = 0.07807 0.30223
# Poissons Ratio (y) = 0.14876 0.26939
# Poissons Ratio (z) = 0.52468 0.24542
#
# Static dielectric constant tensor:
#      x y z
#    x 1.675860 0.000000 0.000000 
#    y 0.000000 1.638060 0.000000 
#    z 0.000000 0.000000 1.613520 
# 
# From -- ./inp_files/12193.got.cif
#   From: 2010.05.17/outbox.cif.g08.bks.cpg/sg74_7_cif.got.tgz:12193.got - 2010.06.03 17:57:02.
