data_PCOD9538893
_publ_section_title
;
Structure prediction by ZEFSAII (Michael W. Deem and Ramdas Pophale) SiO2 
 PCOD9538893
Probable space group: I M M A
;
_chemical_formula_sum "Si O2"
_cell_formula_units_Z 96
_cell_length_a 19.466728
_cell_length_b 14.115735
_cell_length_c 20.525416
_cell_angle_alpha 90.000000
_cell_angle_beta 90.000000
_cell_angle_gamma 90.000000
_cell_volume 5640.121053
_symmetry_space_group_name_H-M "I M M A"
_symmetry_group_IT_number 74
_symmetry_cell_setting 'orthorhombic'
loop_
_space_group_symop_operation_xyz
x,y,z
-x,1/2-y,z
x,-y,-z
-x,1/2+y,-z
-x,-y,-z
x,1/2+y,-z
-x,y,z
x,1/2-y,z
1/2+x,1/2+y,1/2+z
1/2-x,-y,1/2+z
1/2+x,1/2-y,1/2-z
1/2-x,y,1/2-z
1/2-x,1/2-y,1/2-z
1/2+x,y,1/2-z
1/2-x,1/2+y,1/2+z
1/2+x,-y,1/2+z
loop_
_atom_site_type_symbol
_atom_site_label
_atom_site_fract_x
_atom_site_fract_y
_atom_site_fract_z
Si Si1 0.580156 0.469038 0.879290
Si Si2 0.708756 0.851060 0.682379
Si Si3 0.827260 0.142416 0.425048
Si Si4 0.702392 0.059778 0.684661
Si Si5 0.421950 0.357150 0.747918
Si Si6 0.202829 0.861086 0.429927
O O1 0.500000 0.470338 0.895881
O O2 0.617015 0.566818 0.899888
O O3 0.586632 0.437067 0.803749
O O4 0.624271 0.388748 0.915003
O O5 0.670483 0.750000 0.677140
O O6 0.750000 0.849978 0.750000
O O7 0.766903 0.854126 0.627436
O O8 0.673289 0.952778 0.679468
O O9 0.855279 0.250000 0.432069
O O10 0.792169 0.115318 0.493710
O O11 0.750000 0.066754 0.750000
O O12 0.637867 0.127667 0.695880
O O13 0.748943 0.084820 0.621993
O O14 0.500000 0.364634 0.722811
O O15 0.414849 0.250000 0.775756
O O16 0.215255 0.750000 0.420819
#
# Coordination Sequence:
#
# PCOD9538893 Si02
#       6
#    16  16  16  16  16  16
#     4  11  21  34  51  71 104 148 183 215 262 318
#     4   9  17  31  52  75  99 131 171 217 267 311
#     4  10  21  36  50  72 106 139 178 225 267 310
#     4  11  19  32  56  79 103 138 178 222 265 317
#     4  10  21  36  54  80 113 143 176 223 276 326
#     4  11  22  33  50  76 105 138 182 226 262 312
#
# _framework density 17.020911999999999
#
# number of rings (size 3 to 8) (size 9 to 14) (size 15 to 20)
#    0.000    1.667    3.333    2.500    0.000    3.333 
#    0.000    1.667    0.000    1.500    0.000    2.333 
#    0.000    4.000    0.000    0.167    0.000    0.000 
#
# Total GULP energy -267317.890652 kJ/mol
# GULP energy per Si atom -5569.122722 kJ/mol
# Density = 1.698217 g / cm^3
# Si number density = 17.020912 Si / 1000 Ang^3
#
#
#
# Elastic Constant Matrix: (Units=GPa)
#
#
# Indices 1 2 3 4 5 6 
#
# 1 54.5291 26.8037 40.4230 0.0000 0.0000 0.0000
# 2 26.8037 119.8839 24.7057 0.0000 0.0000 0.0000
# 3 40.4230 24.7057 96.0522 0.0000 0.0000 0.0000
# 4 0.0000 0.0000 0.0000 19.6609 0.0000 0.0000
# 5 0.0000 0.0000 0.0000 0.0000 18.1264 0.0000
# 6 0.0000 0.0000 0.0000 0.0000 0.0000 23.4602
#
#
#
# Elastic Compliance Matrix: (Units=1/GPa)
#
#
# Indices 1 2 3 4 5 6 
#
# 1 0.028452 -0.004112 -0.010916 0.000000 0.000000 0.000000
# 2 -0.004112 0.009403 -0.000688 0.000000 0.000000 0.000000
# 3 -0.010916 -0.000688 0.015182 0.000000 0.000000 0.000000
# 4 0.000000 0.000000 0.000000 0.050862 0.000000 0.000000
# 5 0.000000 0.000000 0.000000 0.000000 0.055168 0.000000
# 6 0.000000 0.000000 0.000000 0.000000 0.000000 0.042625
#
#
# Mechanical properties :
#
#
# Convention : Reuss Voigt Hill
#
# Bulk Modulus (GPa) = 46.28647 50.48113 48.38380
# Shear Modulus (GPa) = 20.80499 24.15168 22.47834
#
# Velocity S-wave (km/s) = 3.49996 3.77097 3.63799
# Velocity P-wave (km/s) = 6.60196 6.97732 6.79223
#
# Compressibility (1/GPa) = 0.02160458
#
# Stress axis : x y z
#
# Youngs Moduli (GPa) = 35.14635 106.35468 65.86707
#
# Poissons Ratio (x) = 0.43730 0.71903
# Poissons Ratio (y) = 0.14451 0.04532
# Poissons Ratio (z) = 0.38367 0.07317
#
# Static dielectric constant tensor:
#      x y z
#    x 1.536450 0.000000 0.000000 
#    y 0.000000 1.658380 0.000000 
#    z 0.000000 0.000000 1.607290 
# 
# From -- ./inp_files/53963.got.cif
#   From: 2010.05.17/outbox.cif.g08.bks.cpg/sg74_27_cif.got.tgz:53963.got - 2010.06.03 17:57:02.
