data_PCOD9538807
_publ_section_title
;
Structure prediction by ZEFSAII (Michael W. Deem and Ramdas Pophale) SiO2 
 PCOD9538807
Probable space group: I M M A
;
_chemical_formula_sum "Si O2"
_cell_formula_units_Z 88
_cell_length_a 14.590871
_cell_length_b 30.508085
_cell_length_c 11.699018
_cell_angle_alpha 90.000000
_cell_angle_beta 90.000000
_cell_angle_gamma 90.000000
_cell_volume 5207.695405
_symmetry_space_group_name_H-M "I M M A"
_symmetry_group_IT_number 74
_symmetry_cell_setting 'orthorhombic'
loop_
_space_group_symop_operation_xyz
x,y,z
-x,1/2-y,z
x,-y,-z
-x,1/2+y,-z
-x,-y,-z
x,1/2+y,-z
-x,y,z
x,1/2-y,z
1/2+x,1/2+y,1/2+z
1/2-x,-y,1/2+z
1/2+x,1/2-y,1/2-z
1/2-x,y,1/2-z
1/2-x,1/2-y,1/2-z
1/2+x,y,1/2-z
1/2-x,1/2+y,1/2+z
1/2+x,-y,1/2+z
loop_
_atom_site_type_symbol
_atom_site_label
_atom_site_fract_x
_atom_site_fract_y
_atom_site_fract_z
Si Si1 0.107389 0.371899 0.872388
Si Si2 0.392042 0.871936 0.104430
Si Si3 0.891710 0.453083 0.436377
Si Si4 0.249489 0.700261 0.111091
Si Si5 0.397124 0.532420 0.394021
Si Si6 0.750000 0.980425 0.750000
O O1 0.130097 0.380450 0.738192
O O2 0.163835 0.330819 0.916801
O O3 0.126927 0.418301 0.931547
O O4 0.000000 0.362542 0.880303
O O5 0.500000 0.863702 0.097560
O O6 0.336445 0.828336 0.072892
O O7 0.372407 0.913926 0.025874
O O8 0.883532 0.500000 0.500000
O O9 0.815420 0.453378 0.336617
O O10 0.000000 0.449210 0.399472
O O11 0.246440 0.750000 0.068161
O O12 0.250000 0.702869 0.250000
O O13 0.402315 0.500000 0.500000
O O14 0.500000 0.534967 0.340381
O O15 0.321397 0.512011 0.313638
#
# Coordination Sequence:
#
# PCOD9538807 Si02
#       6
#    16  16  16  16  16   8
#     4   9  18  31  48  68  97 134 165 197 239 289
#     4   9  18  32  50  70  98 132 163 198 242 293
#     4  10  21  35  50  73 102 134 173 208 245 297
#     4   9  18  29  46  72  99 125 159 202 246 295
#     4  10  22  35  47  70 102 134 166 198 239 293
#     4  12  22  30  52  74  98 138 166 210 246 282
#
# _framework density 16.898069
#
# number of rings (size 3 to 8) (size 9 to 14) (size 15 to 20)
#    0.000    2.364    0.000    2.182    8.909    3.636 
#    0.000    3.636    0.000    0.000    0.000    0.636 
#    0.000    0.000    0.000    0.000    0.000    0.000 
#
# Total GULP energy -245277.188916 kJ/mol
# GULP energy per Si atom -5574.481566 kJ/mol
# Density = 1.685961 g / cm^3
# Si number density = 16.898069 Si / 1000 Ang^3
#
#
#
# Elastic Constant Matrix: (Units=GPa)
#
#
# Indices 1 2 3 4 5 6 
#
# 1 98.5200 63.2806 33.5134 0.0000 0.0000 0.0000
# 2 63.2806 171.0183 31.3884 0.0000 0.0000 0.0000
# 3 33.5134 31.3884 24.8230 0.0003 -0.0006 -0.0002
# 4 0.0000 0.0000 0.0003 19.4335 0.0000 0.0000
# 5 0.0000 0.0000 -0.0006 0.0000 25.1579 0.0001
# 6 0.0000 0.0000 -0.0002 0.0000 0.0001 28.7847
#
#
#
# Elastic Compliance Matrix: (Units=1/GPa)
#
#
# Indices 1 2 3 4 5 6 
#
# 1 0.020021 -0.003187 -0.023001 0.000000 -0.000001 0.000000
# 2 -0.003187 0.008122 -0.005967 0.000000 0.000000 0.000000
# 3 -0.023001 -0.005967 0.078885 -0.000001 0.000002 0.000001
# 4 0.000000 0.000000 -0.000001 0.051457 0.000000 0.000000
# 5 -0.000001 0.000000 0.000002 0.000000 0.039749 0.000000
# 6 0.000000 0.000000 0.000001 0.000000 0.000000 0.034741
#
#
# Mechanical properties :
#
#
# Convention : Reuss Voigt Hill
#
# Bulk Modulus (GPa) = 23.40983 61.19180 42.30082
# Shear Modulus (GPa) = 16.05010 25.75381 20.90195
#
# Velocity S-wave (km/s) = 3.08526 3.90817 3.52084
# Velocity P-wave (km/s) = 5.15513 7.52701 6.45102
#
# Compressibility (1/GPa) = 0.04271710
#
# Stress axis : x y z
#
# Youngs Moduli (GPa) = 49.94657 123.12608 12.67674
#
# Poissons Ratio (x) = 0.39237 0.29158
# Poissons Ratio (y) = 0.15917 0.07565
# Poissons Ratio (z) = 1.14883 0.73475
#
# Static dielectric constant tensor:
#      x y z
#    x 1.628080 0.000000 0.000000 
#    y 0.000000 1.561230 0.000000 
#    z 0.000000 0.000000 1.580460 
# 
# From -- ./inp_files/20992.got.cif
#   From: 2010.05.17/outbox.cif.g08.bks.cpg/sg74_11_cif.got.tgz:20992.got - 2010.06.03 17:57:02.
