data_PCOD9538328
_publ_section_title
;
Structure prediction by ZEFSAII (Michael W. Deem and Ramdas Pophale) SiO2 
 PCOD9538328
Probable space group: I M M A
;
_chemical_formula_sum "Si O2"
_cell_formula_units_Z 116
_cell_length_a 24.045047
_cell_length_b 30.209414
_cell_length_c 8.537076
_cell_angle_alpha 90.000000
_cell_angle_beta 90.000000
_cell_angle_gamma 90.000000
_cell_volume 6201.219142
_symmetry_space_group_name_H-M "I M M A"
_symmetry_group_IT_number 74
_symmetry_cell_setting 'orthorhombic'
loop_
_space_group_symop_operation_xyz
x,y,z
-x,1/2-y,z
x,-y,-z
-x,1/2+y,-z
-x,-y,-z
x,1/2+y,-z
-x,y,z
x,1/2-y,z
1/2+x,1/2+y,1/2+z
1/2-x,-y,1/2+z
1/2+x,1/2-y,1/2-z
1/2-x,y,1/2-z
1/2-x,1/2-y,1/2-z
1/2+x,y,1/2-z
1/2-x,1/2+y,1/2+z
1/2+x,-y,1/2+z
loop_
_atom_site_type_symbol
_atom_site_label
_atom_site_fract_x
_atom_site_fract_y
_atom_site_fract_z
Si Si1 0.740055 0.950657 0.564880
Si Si2 0.146464 0.387147 0.929855
Si Si3 0.800436 0.700350 0.628205
Si Si4 0.097032 0.320095 0.156263
Si Si5 0.933497 0.047142 0.059173
Si Si6 0.330469 0.113939 0.931580
Si Si7 0.063981 0.596456 0.637886
Si Si8 0.500000 0.750000 0.589421
O O1 0.750000 0.952390 0.750000
O O2 0.689624 0.917341 0.526461
O O3 0.792260 0.927247 0.481207
O O4 0.730611 0.000000 0.500000
O O5 0.166842 0.381493 0.754319
O O6 0.133011 0.341570 0.016583
O O7 0.090202 0.415611 0.944455
O O8 0.792423 0.750000 0.559769
O O9 0.750000 0.692268 0.750000
O O10 0.857990 0.700584 0.725595
O O11 0.806315 0.658925 0.510364
O O12 0.068621 0.360116 0.252600
O O13 0.049266 0.288048 0.097771
O O14 0.918404 0.057952 0.239711
O O15 0.000000 0.047782 0.054615
O O16 0.912752 0.000000 0.000000
O O17 0.391660 0.103991 0.001588
O O18 0.000000 0.590088 0.587627
#
# Coordination Sequence:
#
# PCOD9538328 Si02
#       8
#    16  16  16  16  16  16  16   4
#     4  12  24  42  67  94 124 162 204 251 307 372
#     4  11  23  38  59  87 124 159 195 247 312 365
#     4  10  20  38  63  88 116 158 207 255 310 370
#     4  10  20  36  61  87 116 159 212 259 306 366
#     4   9  18  34  57  81 108 148 200 244 286 351
#     4  11  23  38  58  88 126 157 196 253 309 370
#     4   9  18  35  57  81 113 156 200 247 298 353
#     4  12  20  36  62  90 116 156 224 268 306 372
#
# _framework density 18.705998000000001
#
# number of rings (size 3 to 8) (size 9 to 14) (size 15 to 20)
#    0.000    1.655    1.379    5.379    0.966    1.655 
#    1.241    0.000    0.000    8.690    0.000    0.000 
#    0.000    0.000    0.000    0.000    0.000    0.000 
#
# Total GULP energy -323161.331818 kJ/mol
# GULP energy per Si atom -5571.747100 kJ/mol
# Density = 1.866342 g / cm^3
# Si number density = 18.705998 Si / 1000 Ang^3
#
#
#
# Elastic Constant Matrix: (Units=GPa)
#
#
# Indices 1 2 3 4 5 6 
#
# 1 84.4237 27.2117 28.5050 0.0000 0.0000 0.0000
# 2 27.2117 99.0582 37.8236 0.0000 0.0000 0.0000
# 3 28.5050 37.8236 90.8901 0.0000 0.0000 0.0000
# 4 0.0000 0.0000 0.0000 7.0526 0.0000 0.0000
# 5 0.0000 0.0000 0.0000 0.0000 18.4833 0.0000
# 6 0.0000 0.0000 0.0000 0.0000 0.0000 36.0208
#
#
#
# Elastic Compliance Matrix: (Units=1/GPa)
#
#
# Indices 1 2 3 4 5 6 
#
# 1 0.013763 -0.002536 -0.003261 0.000000 0.000000 0.000000
# 2 -0.002536 0.012469 -0.004394 0.000000 0.000000 0.000000
# 3 -0.003261 -0.004394 0.013854 0.000000 0.000000 0.000000
# 4 0.000000 0.000000 0.000000 0.141791 0.000000 0.000000
# 5 0.000000 0.000000 0.000000 0.000000 0.054103 0.000000
# 6 0.000000 0.000000 0.000000 0.000000 0.000000 0.027762
#
#
# Mechanical properties :
#
#
# Convention : Reuss Voigt Hill
#
# Bulk Modulus (GPa) = 50.74896 51.27252 51.01074
# Shear Modulus (GPa) = 17.20035 24.36679 20.78357
#
# Velocity S-wave (km/s) = 3.03563 3.61310 3.33688
# Velocity P-wave (km/s) = 6.28295 6.69889 6.49425
#
# Compressibility (1/GPa) = 0.01970484
#
# Stress axis : x y z
#
# Youngs Moduli (GPa) = 72.65617 80.19679 72.18336
#
# Poissons Ratio (x) = 0.20335 0.23541
# Poissons Ratio (y) = 0.18423 0.31716
# Poissons Ratio (z) = 0.23696 0.35237
#
# Static dielectric constant tensor:
#      x y z
#    x 1.679180 0.000000 0.000000 
#    y 0.000000 1.671450 0.000000 
#    z 0.000000 0.000000 1.629940 
# 
# From -- ./inp_files/14304.got.cif
#   From: 2010.05.17/outbox.cif.g08.bks.cpg/sg74_8_cif.got.tgz:14304.got - 2010.06.03 17:57:02.
