data_PCOD9538092
_publ_section_title
;
Structure prediction by ZEFSAII (Michael W. Deem and Ramdas Pophale) SiO2 
 PCOD9538092
Probable space group: I M M A
;
_chemical_formula_sum "Si O2"
_cell_formula_units_Z 96
_cell_length_a 20.650526
_cell_length_b 14.844229
_cell_length_c 13.404627
_cell_angle_alpha 90.000000
_cell_angle_beta 90.000000
_cell_angle_gamma 90.000000
_cell_volume 4109.069600
_symmetry_space_group_name_H-M "I M M A"
_symmetry_group_IT_number 74
_symmetry_cell_setting 'orthorhombic'
loop_
_space_group_symop_operation_xyz
x,y,z
-x,1/2-y,z
x,-y,-z
-x,1/2+y,-z
-x,-y,-z
x,1/2+y,-z
-x,y,z
x,1/2-y,z
1/2+x,1/2+y,1/2+z
1/2-x,-y,1/2+z
1/2+x,1/2-y,1/2-z
1/2-x,y,1/2-z
1/2-x,1/2-y,1/2-z
1/2+x,y,1/2-z
1/2-x,1/2+y,1/2+z
1/2+x,-y,1/2+z
loop_
_atom_site_type_symbol
_atom_site_label
_atom_site_fract_x
_atom_site_fract_y
_atom_site_fract_z
Si Si1 0.570577 0.142240 0.162443
Si Si2 0.073697 0.055910 0.120076
Si Si3 0.926426 0.151235 0.867081
Si Si4 0.291461 0.350769 0.348911
Si Si5 0.316142 0.401150 0.011772
Si Si6 0.314196 0.851623 0.205232
O O1 0.500000 0.132876 0.115002
O O2 0.577645 0.250000 0.185862
O O3 0.571365 0.078897 0.260206
O O4 0.625484 0.110634 0.087859
O O5 0.144642 0.100665 0.106566
O O6 0.000000 0.088869 0.087878
O O7 0.078148 0.950111 0.089397
O O8 0.918814 0.250000 0.921258
O O9 0.870943 0.149380 0.784681
O O10 0.000000 0.153110 0.826811
O O11 0.311295 0.250000 0.318988
O O12 0.250000 0.385682 0.250000
O O13 0.241489 0.345949 0.439753
O O14 0.338908 0.383642 0.900392
O O15 0.287867 0.500000 0.000000
O O16 0.293461 0.750000 0.181183
O O17 0.250000 0.898434 0.250000
#
# Coordination Sequence:
#
# PCOD9538092 Si02
#       6
#    16  16  16  16  16  16
#     4  10  20  36  59  91 131 167 204 253 311 380
#     4  10  20  35  62  95 127 164 208 255 313 380
#     4   9  19  36  59  88 122 162 206 253 309 376
#     4  11  23  40  65  93 127 167 211 257 311 376
#     4  12  25  37  58  90 126 165 207 259 310 372
#     4  10  22  38  58  82 116 161 207 252 298 355
#
# _framework density 23.362953999999998
#
# number of rings (size 3 to 8) (size 9 to 14) (size 15 to 20)
#    0.000    1.667    1.667    3.000    2.333    2.000 
#    0.000    1.667    0.000    1.500    0.000    2.333 
#    0.000    0.000    0.000    0.000    0.000    0.000 
#
# Total GULP energy -267239.917110 kJ/mol
# GULP energy per Si atom -5567.498273 kJ/mol
# Density = 2.330978 g / cm^3
# Si number density = 23.362954 Si / 1000 Ang^3
#
#
#
# Elastic Constant Matrix: (Units=GPa)
#
#
# Indices 1 2 3 4 5 6 
#
# 1 182.8334 34.6225 38.2397 0.0000 0.0000 0.0000
# 2 34.6225 120.9571 14.7712 0.0000 0.0000 0.0000
# 3 38.2397 14.7712 50.5636 0.0000 0.0000 0.0000
# 4 0.0000 0.0000 0.0000 18.0171 0.0000 0.0000
# 5 0.0000 0.0000 0.0000 0.0000 2.9397 0.0000
# 6 0.0000 0.0000 0.0000 0.0000 0.0000 39.2373
#
#
#
# Elastic Compliance Matrix: (Units=1/GPa)
#
#
# Indices 1 2 3 4 5 6 
#
# 1 0.006702 -0.001348 -0.004675 0.000000 0.000000 0.000000
# 2 -0.001348 0.008844 -0.001565 0.000000 0.000000 0.000000
# 3 -0.004675 -0.001565 0.023770 0.000000 0.000000 0.000000
# 4 0.000000 0.000000 0.000000 0.055503 0.000000 0.000000
# 5 0.000000 0.000000 0.000000 0.000000 0.340166 0.000000
# 6 0.000000 0.000000 0.000000 0.000000 0.000000 0.025486
#
#
# Mechanical properties :
#
#
# Convention : Reuss Voigt Hill
#
# Bulk Modulus (GPa) = 41.42182 58.84676 50.13429
# Shear Modulus (GPa) = 10.33713 29.82020 20.07867
#
# Velocity S-wave (km/s) = 2.10575 3.57653 2.93477
# Velocity P-wave (km/s) = 4.86626 6.50371 5.74363
#
# Compressibility (1/GPa) = 0.02414186
#
# Stress axis : x y z
#
# Youngs Moduli (GPa) = 149.19893 113.06874 42.07016
#
# Poissons Ratio (x) = 0.15237 0.19669
# Poissons Ratio (y) = 0.20106 0.06582
# Poissons Ratio (z) = 0.69753 0.17690
#
# Static dielectric constant tensor:
#      x y z
#    x 1.805430 0.000000 0.000000 
#    y 0.000000 1.935670 0.000000 
#    z 0.000000 0.000000 2.394720 
# 
# From -- ./inp_files/35302.got.cif
#   From: 2010.05.17/outbox.cif.g08.bks.cpg/sg74_18_cif.got.tgz:35302.got - 2010.06.03 17:57:02.
