data_PCOD9538777
_publ_section_title
;
Structure prediction by ZEFSAII (Michael W. Deem and Ramdas Pophale) SiO2 
 PCOD9538777
Probable space group: I M M A
;
_chemical_formula_sum "Si O2"
_cell_formula_units_Z 80
_cell_length_a 23.098166
_cell_length_b 16.995014
_cell_length_c 11.000137
_cell_angle_alpha 90.000000
_cell_angle_beta 90.000000
_cell_angle_gamma 90.000000
_cell_volume 4318.143980
_symmetry_space_group_name_H-M "I M M A"
_symmetry_group_IT_number 74
_symmetry_cell_setting 'orthorhombic'
loop_
_space_group_symop_operation_xyz
x,y,z
-x,1/2-y,z
x,-y,-z
-x,1/2+y,-z
-x,-y,-z
x,1/2+y,-z
-x,y,z
x,1/2-y,z
1/2+x,1/2+y,1/2+z
1/2-x,-y,1/2+z
1/2+x,1/2-y,1/2-z
1/2-x,y,1/2-z
1/2-x,1/2-y,1/2-z
1/2+x,y,1/2-z
1/2-x,1/2+y,1/2+z
1/2+x,-y,1/2+z
loop_
_atom_site_type_symbol
_atom_site_label
_atom_site_fract_x
_atom_site_fract_y
_atom_site_fract_z
Si Si1 0.168056 0.156011 0.000194
Si Si2 0.798630 0.340573 0.506744
Si Si3 0.314000 0.578531 0.757706
Si Si4 0.935712 0.842877 0.181522
Si Si5 0.895246 0.045385 0.615758
O O1 0.164447 0.250000 0.019764
O O2 0.116456 0.134307 0.909106
O O3 0.233100 0.140317 0.952060
O O4 0.166512 0.113129 0.129361
O O5 0.810753 0.250000 0.535990
O O6 0.803461 0.355065 0.361360
O O7 0.844426 0.398893 0.564454
O O8 0.250000 0.539791 0.750000
O O9 0.362710 0.519931 0.804546
O O10 0.927739 0.750000 0.212722
O O11 0.932723 0.898551 0.298948
O O12 0.000000 0.850220 0.125689
O O13 0.922523 0.000000 0.500000
#
# Coordination Sequence:
#
# PCOD9538777 Si02
#       5
#    16  16  16  16  16
#     4   9  18  33  54  78 105 140 178 219 267 321
#     4   9  17  31  53  80 107 137 176 216 263 326
#     4   9  18  31  50  78 112 140 164 208 271 326
#     4  10  22  39  57  76 102 141 187 230 267 308
#     4  10  21  34  51  79 108 139 174 218 273 325
#
# _framework density 18.526478000000001
#
# number of rings (size 3 to 8) (size 9 to 14) (size 15 to 20)
#    0.000    2.600    0.000    1.200    2.800    3.600 
#    0.000    5.000    0.000    1.200    0.000   11.200 
#    0.000    0.000    0.000    0.000    0.000    0.000 
#
# Total GULP energy -223006.685362 kJ/mol
# GULP energy per Si atom -5575.167134 kJ/mol
# Density = 1.848431 g / cm^3
# Si number density = 18.526478 Si / 1000 Ang^3
#
#
#
# Elastic Constant Matrix: (Units=GPa)
#
#
# Indices 1 2 3 4 5 6 
#
# 1 82.2918 32.8444 46.1964 0.0000 0.0000 0.0000
# 2 32.8444 47.9625 30.3544 0.0000 0.0000 0.0000
# 3 46.1964 30.3544 75.6006 0.0000 0.0000 0.0000
# 4 0.0000 0.0000 0.0000 25.5664 0.0000 0.0000
# 5 0.0000 0.0000 0.0000 0.0000 14.3284 0.0000
# 6 0.0000 0.0000 0.0000 0.0000 0.0000 -71.8218
#
#
#
# Elastic Compliance Matrix: (Units=1/GPa)
#
#
# Indices 1 2 3 4 5 6 
#
# 1 0.020682 -0.008265 -0.009320 0.000000 0.000000 0.000000
# 2 -0.008265 0.031255 -0.007499 0.000000 0.000000 0.000000
# 3 -0.009320 -0.007499 0.021933 0.000000 0.000000 0.000000
# 4 0.000000 0.000000 0.000000 0.039114 0.000000 0.000000
# 5 0.000000 0.000000 0.000000 0.000000 0.069792 0.000000
# 6 0.000000 0.000000 0.000000 0.000000 0.000000 -0.013923
#
#
# Mechanical properties :
#
#
# Convention : Reuss Voigt Hill
#
# Bulk Modulus (GPa) = 42.18747 47.18281 44.68514
# Shear Modulus (GPa) = 22.03405 0.04524 11.03965
#
# Velocity S-wave (km/s) = 3.45240 0.15644 2.44372
# Velocity P-wave (km/s) = 6.22198 5.05526 5.66872
#
# Compressibility (1/GPa) = 0.02370372
#
# Stress axis : x y z
#
# Youngs Moduli (GPa) = 48.35031 31.99454 45.59294
#
# Poissons Ratio (x) = 0.26443 0.42491
# Poissons Ratio (y) = 0.39961 0.34190
# Poissons Ratio (z) = 0.45061 0.23993
#
# Static dielectric constant tensor:
#      x y z
#    x 1.633720 0.000000 0.000000 
#    y 0.000000 1.633730 0.000000 
#    z 0.000000 0.000000 1.650640 
# 
# From -- ./inp_files/20505.got.cif
#   From: 2010.05.17/outbox.cif.g08.bks.cpg/sg74_11_cif.got.tgz:20505.got - 2010.06.03 17:57:02.
