data_PCOD9538875
_publ_section_title
;
Structure prediction by ZEFSAII (Michael W. Deem and Ramdas Pophale) SiO2 
 PCOD9538875
Probable space group: I M M A
;
_chemical_formula_sum "Si O2"
_cell_formula_units_Z 116
_cell_length_a 25.241785
_cell_length_b 30.312328
_cell_length_c 7.343185
_cell_angle_alpha 90.000000
_cell_angle_beta 90.000000
_cell_angle_gamma 90.000000
_cell_volume 5618.544496
_symmetry_space_group_name_H-M "I M M A"
_symmetry_group_IT_number 74
_symmetry_cell_setting 'orthorhombic'
loop_
_space_group_symop_operation_xyz
x,y,z
-x,1/2-y,z
x,-y,-z
-x,1/2+y,-z
-x,-y,-z
x,1/2+y,-z
-x,y,z
x,1/2-y,z
1/2+x,1/2+y,1/2+z
1/2-x,-y,1/2+z
1/2+x,1/2-y,1/2-z
1/2-x,y,1/2-z
1/2-x,1/2-y,1/2-z
1/2+x,y,1/2-z
1/2-x,1/2+y,1/2+z
1/2+x,-y,1/2+z
loop_
_atom_site_type_symbol
_atom_site_label
_atom_site_fract_x
_atom_site_fract_y
_atom_site_fract_z
Si Si1 0.140709 0.049683 0.566385
Si Si2 0.760850 0.893646 0.462868
Si Si3 0.561119 0.116541 0.841753
Si Si4 0.291855 0.201966 0.088774
Si Si5 0.664010 0.450075 0.504754
Si Si6 0.061851 0.904497 0.913110
Si Si7 0.500000 0.250000 0.169933
Si Si8 0.091290 0.324529 0.356155
O O1 0.188043 0.077929 0.478196
O O2 0.084514 0.073896 0.555273
O O3 0.151385 0.053704 0.781602
O O4 0.141258 0.000000 0.500000
O O5 0.750000 0.901302 0.250000
O O6 0.774151 0.842375 0.485653
O O7 0.707699 0.913884 0.552301
O O8 0.500000 0.121746 0.886215
O O9 0.565753 0.112739 0.623632
O O10 0.590630 0.157308 0.935509
O O11 0.292282 0.250000 0.991819
O O12 0.250000 0.204766 0.250000
O O13 0.350005 0.193698 0.171698
O O14 0.685391 0.500000 0.500000
O O15 0.608067 0.441740 0.401818
O O16 0.077322 0.864906 0.778448
O O17 0.000000 0.917972 0.885551
O O18 0.546419 0.211738 0.167434
#
# Coordination Sequence:
#
# PCOD9538875 Si02
#       8
#    16  16  16  16  16  16   4  16
#     4  10  21  35  57  88 122 161 209 258 311 380
#     4  10  21  40  61  85 124 162 203 259 317 374
#     4  10  21  39  62  89 125 169 211 257 319 382
#     4  11  24  40  63  92 123 161 210 263 319 387
#     4  10  22  37  58  90 123 161 213 259 309 384
#     4  10  22  40  62  90 128 172 211 259 322 381
#     4  12  24  40  72 104 122 168 228 272 324 388
#     4  12  22  43  67  93 131 168 212 271 325 378
#
# _framework density 20.645914999999999
#
# number of rings (size 3 to 8) (size 9 to 14) (size 15 to 20)
#    0.000    1.517    3.448    1.241    1.931    1.931 
#    0.000    1.379    0.000    0.000    0.000    0.000 
#    0.000    0.000    0.000    0.000    0.000    0.000 
#
# Total GULP energy -323019.066187 kJ/mol
# GULP energy per Si atom -5569.294245 kJ/mol
# Density = 2.059892 g / cm^3
# Si number density = 20.645915 Si / 1000 Ang^3
#
#
#
# Elastic Constant Matrix: (Units=GPa)
#
#
# Indices 1 2 3 4 5 6 
#
# 1 112.9286 23.5480 4.1586 0.0000 0.0000 0.0000
# 2 23.5480 115.7430 0.5098 0.0000 0.0000 0.0000
# 3 4.1586 0.5098 34.4750 0.0000 0.0000 0.0000
# 4 0.0000 0.0000 0.0000 -6.5000 0.0000 0.0000
# 5 0.0000 0.0000 0.0000 0.0000 14.6407 0.0000
# 6 0.0000 0.0000 0.0000 0.0000 0.0000 55.3290
#
#
#
# Elastic Compliance Matrix: (Units=1/GPa)
#
#
# Indices 1 2 3 4 5 6 
#
# 1 0.009288 -0.001885 -0.001093 0.000000 0.000000 0.000000
# 2 -0.001885 0.009023 0.000094 0.000000 0.000000 0.000000
# 3 -0.001093 0.000094 0.029137 0.000000 0.000000 0.000000
# 4 0.000000 0.000000 0.000000 -0.153845 0.000000 0.000000
# 5 0.000000 0.000000 0.000000 0.000000 0.068303 0.000000
# 6 0.000000 0.000000 0.000000 0.000000 0.000000 0.018074
#
#
# Mechanical properties :
#
#
# Convention : Reuss Voigt Hill
#
# Bulk Modulus (GPa) = 23.99162 35.50881 29.75021
# Shear Modulus (GPa) = -13884.17859 28.35596 -6927.91132
#
# Velocity S-wave (km/s) = -82.09447 3.71002 -57.99025
# Velocity P-wave (km/s) = 94.73309 5.96562 66.85346
#
# Compressibility (1/GPa) = 0.04168123
#
# Stress axis : x y z
#
# Youngs Moduli (GPa) = 107.66078 110.82900 34.32067
#
# Poissons Ratio (x) = 0.20890 0.03750
# Poissons Ratio (y) = 0.20293 -0.00322
# Poissons Ratio (z) = 0.11763 -0.01041
#
# Static dielectric constant tensor:
#      x y z
#    x 1.752790 0.000000 0.000000 
#    y 0.000000 1.785570 0.000000 
#    z 0.000000 0.000000 1.790200 
# 
# From -- ./inp_files/14206.got.cif
#   From: 2010.05.17/outbox.cif.g08.bks.cpg/sg74_8_cif.got.tgz:14206.got - 2010.06.03 17:57:02.
