data_PCOD9538016
_publ_section_title
;
Structure prediction by ZEFSAII (Michael W. Deem and Ramdas Pophale) SiO2 
 PCOD9538016
Probable space group: I M M A
;
_chemical_formula_sum "Si O2"
_cell_formula_units_Z 64
_cell_length_a 15.714465
_cell_length_b 21.309562
_cell_length_c 8.601850
_cell_angle_alpha 90.000000
_cell_angle_beta 90.000000
_cell_angle_gamma 90.000000
_cell_volume 2880.487456
_symmetry_space_group_name_H-M "I M M A"
_symmetry_group_IT_number 74
_symmetry_cell_setting 'orthorhombic'
loop_
_space_group_symop_operation_xyz
x,y,z
-x,1/2-y,z
x,-y,-z
-x,1/2+y,-z
-x,-y,-z
x,1/2+y,-z
-x,y,z
x,1/2-y,z
1/2+x,1/2+y,1/2+z
1/2-x,-y,1/2+z
1/2+x,1/2-y,1/2-z
1/2-x,y,1/2-z
1/2-x,1/2-y,1/2-z
1/2+x,y,1/2-z
1/2-x,1/2+y,1/2+z
1/2+x,-y,1/2+z
loop_
_atom_site_type_symbol
_atom_site_label
_atom_site_fract_x
_atom_site_fract_y
_atom_site_fract_z
Si Si1 0.096492 0.059718 0.081259
Si Si2 0.602908 0.818184 0.420431
Si Si3 0.824800 0.558190 0.618446
Si Si4 0.397754 0.676985 0.052575
O O1 0.096558 0.049899 0.263706
O O2 0.000000 0.062615 0.021648
O O3 0.135819 0.124976 0.024275
O O4 0.137773 0.000000 0.000000
O O5 0.500000 0.814413 0.438302
O O6 0.638103 0.750000 0.464410
O O7 0.618317 0.829027 0.237878
O O8 0.820351 0.500000 0.500000
O O9 0.750000 0.559157 0.750000
O O10 0.842931 0.624048 0.533136
O O11 0.500000 0.667128 0.027572
O O12 0.380105 0.750000 0.009457
#
# Coordination Sequence:
#
# PCOD9538016 Si02
#       4
#    16  16  16  16
#     4  10  20  35  58  85 111 146 196 250 301 353
#     4   8  15  31  57  88 119 147 179 229 294 359
#     4  12  26  41  58  82 122 168 211 254 302 357
#     4   9  19  38  65  95 124 156 198 249 306 367
#
# _framework density 22.218461000000001
#
# number of rings (size 3 to 8) (size 9 to 14) (size 15 to 20)
#    0.000    2.250    0.000    4.500    0.000    5.500 
#    0.000    2.500    0.000    3.750    0.000    0.000 
#    0.000    0.000    0.000    0.000    0.000    0.000 
#
# Total GULP energy -178445.305502 kJ/mol
# GULP energy per Si atom -5576.415797 kJ/mol
# Density = 2.216789 g / cm^3
# Si number density = 22.218461 Si / 1000 Ang^3
#
#
#
# Elastic Constant Matrix: (Units=GPa)
#
#
# Indices 1 2 3 4 5 6 
#
# 1 59.6633 56.9432 28.7437 0.0000 0.0000 0.0000
# 2 56.9432 234.6438 128.5897 0.0000 0.0000 0.0000
# 3 28.7437 128.5897 110.5733 0.0000 0.0000 0.0000
# 4 0.0000 0.0000 0.0000 46.2279 0.0000 0.0000
# 5 0.0000 0.0000 0.0000 0.0000 31.4093 0.0000
# 6 0.0000 0.0000 0.0000 0.0000 0.0000 2.2727
#
#
#
# Elastic Compliance Matrix: (Units=1/GPa)
#
#
# Indices 1 2 3 4 5 6 
#
# 1 0.021885 -0.006047 0.001344 0.000000 0.000000 0.000000
# 2 -0.006047 0.013422 -0.014037 0.000000 0.000000 0.000000
# 3 0.001344 -0.014037 0.025018 0.000000 0.000000 0.000000
# 4 0.000000 0.000000 0.000000 0.021632 0.000000 0.000000
# 5 0.000000 0.000000 0.000000 0.000000 0.031838 0.000000
# 6 0.000000 0.000000 0.000000 0.000000 0.000000 0.439998
#
#
# Mechanical properties :
#
#
# Convention : Reuss Voigt Hill
#
# Bulk Modulus (GPa) = 43.77441 92.60374 68.18908
# Shear Modulus (GPa) = 8.34881 28.68891 18.51886
#
# Velocity S-wave (km/s) = 1.94056 3.59725 2.89015
# Velocity P-wave (km/s) = 4.97651 7.68263 6.47258
#
# Compressibility (1/GPa) = 0.02284440
#
# Stress axis : x y z
#
# Youngs Moduli (GPa) = 45.69312 74.50633 39.97118
#
# Poissons Ratio (x) = 0.45058 -0.05371
# Poissons Ratio (y) = 0.27633 0.56106
# Poissons Ratio (z) = -0.06140 1.04581
#
# Static dielectric constant tensor:
#      x y z
#    x 1.970490 0.000000 0.000000 
#    y 0.000000 1.812430 0.000000 
#    z 0.000000 0.000000 1.783810 
# 
# From -- ./inp_files/10229.got.cif
#   From: 2010.05.17/outbox.cif.g08.bks.cpg/sg74_6_cif.got.tgz:10229.got - 2010.06.03 17:57:02.
