data_PCOD9538748
_publ_section_title
;
Structure prediction by ZEFSAII (Michael W. Deem and Ramdas Pophale) SiO2 
 PCOD9538748
Probable space group: I M M A
;
_chemical_formula_sum "Si O2"
_cell_formula_units_Z 88
_cell_length_a 25.624147
_cell_length_b 28.910858
_cell_length_c 5.928445
_cell_angle_alpha 90.000000
_cell_angle_beta 90.000000
_cell_angle_gamma 90.000000
_cell_volume 4391.887357
_symmetry_space_group_name_H-M "I M M A"
_symmetry_group_IT_number 74
_symmetry_cell_setting 'orthorhombic'
loop_
_space_group_symop_operation_xyz
x,y,z
-x,1/2-y,z
x,-y,-z
-x,1/2+y,-z
-x,-y,-z
x,1/2+y,-z
-x,y,z
x,1/2-y,z
1/2+x,1/2+y,1/2+z
1/2-x,-y,1/2+z
1/2+x,1/2-y,1/2-z
1/2-x,y,1/2-z
1/2-x,1/2-y,1/2-z
1/2+x,y,1/2-z
1/2-x,1/2+y,1/2+z
1/2+x,-y,1/2+z
loop_
_atom_site_type_symbol
_atom_site_label
_atom_site_fract_x
_atom_site_fract_y
_atom_site_fract_z
Si Si1 0.202989 0.802085 0.578534
Si Si2 0.558947 0.113621 0.149960
Si Si3 0.000000 0.024762 0.746821
Si Si4 0.399807 0.198085 0.394374
Si Si5 0.103565 0.947770 0.041055
Si Si6 0.355303 0.864021 0.224134
O O1 0.209888 0.750000 0.482248
O O2 0.250000 0.810919 0.750000
O O3 0.194935 0.842504 0.397153
O O4 0.149843 0.801134 0.725682
O O5 0.500000 0.105719 0.070777
O O6 0.560352 0.160221 0.301259
O O7 0.578050 0.072436 0.312542
O O8 0.602144 0.123227 0.963708
O O9 0.055956 0.049652 0.777946
O O10 0.000000 0.000000 0.500000
O O11 0.000000 0.000000 0.000000
O O12 0.420184 0.250000 0.415069
O O13 0.378383 0.177716 0.627474
O O14 0.146061 0.910102 0.122318
O O15 0.122688 0.000000 0.000000
#
# Coordination Sequence:
#
# PCOD9538748 Si02
#       6
#    16  16   8  16  16  16
#     4   9  18  35  59  84 111 138 174 233 306 368
#     4  10  21  35  50  76 111 152 193 236 277 336
#     4  10  22  34  54  84 113 154 203 250 308 360
#     4   9  19  36  52  77 113 143 183 229 278 347
#     4  10  22  34  52  77 113 149 190 244 298 344
#     4  10  21  32  53  78 113 142 189 229 290 356
#
# _framework density 20.036943000000001
#
# number of rings (size 3 to 8) (size 9 to 14) (size 15 to 20)
#    0.000    2.364    0.909    0.545    6.364    2.545 
#    0.000    2.727    0.000    0.000    0.000    0.000 
#  196.364    0.000    0.000    0.000    0.000    0.000 
#
# Total GULP energy -245267.946477 kJ/mol
# GULP energy per Si atom -5574.271511 kJ/mol
# Density = 1.999134 g / cm^3
# Si number density = 20.036943 Si / 1000 Ang^3
#
#
#
# Elastic Constant Matrix: (Units=GPa)
#
#
# Indices 1 2 3 4 5 6 
#
# 1 53.9095 22.5466 8.4775 0.0000 0.0000 0.0000
# 2 22.5466 137.2069 26.2107 0.0000 0.0000 0.0000
# 3 8.4775 26.2107 63.1167 0.0000 0.0000 0.0000
# 4 0.0000 0.0000 0.0000 31.6174 0.0000 0.0000
# 5 0.0000 0.0000 0.0000 0.0000 32.6208 0.0000
# 6 0.0000 0.0000 0.0000 0.0000 0.0000 22.6310
#
#
#
# Elastic Compliance Matrix: (Units=1/GPa)
#
#
# Indices 1 2 3 4 5 6 
#
# 1 0.020038 -0.003018 -0.001438 0.000000 0.000000 0.000000
# 2 -0.003018 0.008371 -0.003071 0.000000 0.000000 0.000000
# 3 -0.001438 -0.003071 0.017312 0.000000 0.000000 0.000000
# 4 0.000000 0.000000 0.000000 0.031628 0.000000 0.000000
# 5 0.000000 0.000000 0.000000 0.000000 0.030655 0.000000
# 6 0.000000 0.000000 0.000000 0.000000 0.000000 0.044187
#
#
# Mechanical properties :
#
#
# Convention : Reuss Voigt Hill
#
# Bulk Modulus (GPa) = 32.60838 40.96697 36.78768
# Shear Modulus (GPa) = 28.17413 30.50705 29.34059
#
# Velocity S-wave (km/s) = 3.75388 3.90621 3.83080
# Velocity P-wave (km/s) = 5.92438 6.39020 6.16170
#
# Compressibility (1/GPa) = 0.03066696
#
# Stress axis : x y z
#
# Youngs Moduli (GPa) = 49.90523 119.46258 57.76326
#
# Poissons Ratio (x) = 0.36054 0.08307
# Poissons Ratio (y) = 0.15062 0.17738
# Poissons Ratio (z) = 0.07177 0.36685
#
# Static dielectric constant tensor:
#      x y z
#    x 1.690430 0.000000 0.000000 
#    y 0.000000 1.762440 0.000000 
#    z 0.000000 0.000000 1.761670 
# 
# From -- ./inp_files/4619.got.cif
#   From: 2010.05.17/outbox.cif.g08.bks.cpg/sg74_3_cif.got.tgz:4619.got - 2010.06.03 17:57:02.
