data_PCOD9538540
_publ_section_title
;
Structure prediction by ZEFSAII (Michael W. Deem and Ramdas Pophale) SiO2 
 PCOD9538540
Probable space group: I M M A
;
_chemical_formula_sum "Si O2"
_cell_formula_units_Z 108
_cell_length_a 14.549438
_cell_length_b 28.758716
_cell_length_c 12.703863
_cell_angle_alpha 90.000000
_cell_angle_beta 90.000000
_cell_angle_gamma 90.000000
_cell_volume 5315.590442
_symmetry_space_group_name_H-M "I M M A"
_symmetry_group_IT_number 74
_symmetry_cell_setting 'orthorhombic'
loop_
_space_group_symop_operation_xyz
x,y,z
-x,1/2-y,z
x,-y,-z
-x,1/2+y,-z
-x,-y,-z
x,1/2+y,-z
-x,y,z
x,1/2-y,z
1/2+x,1/2+y,1/2+z
1/2-x,-y,1/2+z
1/2+x,1/2-y,1/2-z
1/2-x,y,1/2-z
1/2-x,1/2-y,1/2-z
1/2+x,y,1/2-z
1/2-x,1/2+y,1/2+z
1/2+x,-y,1/2+z
loop_
_atom_site_type_symbol
_atom_site_label
_atom_site_fract_x
_atom_site_fract_y
_atom_site_fract_z
Si Si1 0.250000 0.580264 0.750000
Si Si2 0.764042 0.448488 0.020172
Si Si3 0.391080 0.891809 0.079118
Si Si4 0.391940 0.358587 0.504387
Si Si5 0.500000 0.250000 0.797904
Si Si6 0.611964 0.800707 0.944203
Si Si7 0.855283 0.672195 0.237576
Si Si8 0.890121 0.338222 0.221945
O O1 0.258166 0.552515 0.856494
O O2 0.161467 0.613620 0.757265
O O3 0.799676 0.500000 0.000000
O O4 0.672414 0.434441 0.955799
O O5 0.834582 0.406325 0.997859
O O6 0.500000 0.899242 0.062863
O O7 0.372735 0.875685 0.198578
O O8 0.360052 0.846890 0.007649
O O9 0.500000 0.369205 0.495672
O O10 0.376431 0.333078 0.614398
O O11 0.367184 0.328007 0.400296
O O12 0.421237 0.209475 0.790087
O O13 0.500000 0.799735 0.952956
O O14 0.644254 0.750000 0.982258
O O15 0.636741 0.806243 0.820740
O O16 0.750000 0.685122 0.250000
O O17 0.000000 0.342467 0.229323
#
# Coordination Sequence:
#
# PCOD9538540 Si02
#       8
#     8  16  16  16   4  16  16  16
#     4  10  20  38  61  86 124 156 205 252 320 382
#     4  11  24  40  66  97 125 168 219 275 332 397
#     4  11  22  39  65  89 131 170 208 269 331 390
#     4  10  21  42  65  87 126 169 209 266 332 386
#     4  12  26  44  64  98 130 188 230 268 324 400
#     4   9  18  33  58  88 117 156 204 246 297 372
#     4  12  24  42  66  96 132 176 225 275 327 394
#     4   9  18  35  60  84 117 161 200 246 310 371
#
# _framework density 20.317592999999999
#
# number of rings (size 3 to 8) (size 9 to 14) (size 15 to 20)
#    0.000    1.630    4.444    0.222    1.037    1.778 
#    1.333    0.370    0.000    0.000    0.000    0.000 
#    0.000    0.000    0.000    0.000    0.000    0.000 
#
# Total GULP energy -300939.234159 kJ/mol
# GULP energy per Si atom -5572.948781 kJ/mol
# Density = 2.027135 g / cm^3
# Si number density = 20.317593 Si / 1000 Ang^3
#
#
#
# Elastic Constant Matrix: (Units=GPa)
#
#
# Indices 1 2 3 4 5 6 
#
# 1 86.7687 -0.0801 -2.1965 0.0000 0.0000 0.0000
# 2 -0.0801 34.2759 -3.1708 -0.0001 0.0000 0.0000
# 3 -2.1965 -3.1708 99.9641 -0.0001 -0.0001 0.0000
# 4 0.0000 -0.0001 -0.0001 43.8277 0.0000 0.0001
# 5 0.0000 0.0000 -0.0001 0.0000 22.9599 0.0000
# 6 0.0000 0.0000 0.0000 0.0001 0.0000 27.6656
#
#
#
# Elastic Compliance Matrix: (Units=1/GPa)
#
#
# Indices 1 2 3 4 5 6 
#
# 1 0.011531 0.000051 0.000255 0.000000 0.000000 0.000000
# 2 0.000051 0.029261 0.000929 0.000000 0.000000 0.000000
# 3 0.000255 0.000929 0.010039 0.000000 0.000000 0.000000
# 4 0.000000 0.000000 0.000000 0.022817 0.000000 0.000000
# 5 0.000000 0.000000 0.000000 0.000000 0.043554 0.000000
# 6 0.000000 0.000000 0.000000 0.000000 0.000000 0.036146
#
#
# Mechanical properties :
#
#
# Convention : Reuss Voigt Hill
#
# Bulk Modulus (GPa) = 18.76148 23.34599 21.05373
# Shear Modulus (GPa) = 29.64803 33.98772 31.81788
#
# Velocity S-wave (km/s) = 3.82413 4.09445 3.96160
# Velocity P-wave (km/s) = 5.36216 5.81964 5.59558
#
# Compressibility (1/GPa) = 0.05330070
#
# Stress axis : x y z
#
# Youngs Moduli (GPa) = 86.71981 34.17507 99.61475
#
# Poissons Ratio (x) = -0.00173 -0.02540
# Poissons Ratio (y) = -0.00438 -0.09257
# Poissons Ratio (z) = -0.02211 -0.03176
#
# Static dielectric constant tensor:
#      x y z
#    x 1.725140 0.000000 0.000000 
#    y 0.000000 1.685350 0.000000 
#    z 0.000000 0.000000 1.790870 
# 
# From -- ./inp_files/21207.got.cif
#   From: 2010.05.17/outbox.cif.g08.bks.cpg/sg74_11_cif.got.tgz:21207.got - 2010.06.03 17:57:02.
