data_PCOD9538337
_publ_section_title
;
Structure prediction by ZEFSAII (Michael W. Deem and Ramdas Pophale) SiO2 
 PCOD9538337
Probable space group: I M M A
;
_chemical_formula_sum "Si O2"
_cell_formula_units_Z 104
_cell_length_a 9.513336
_cell_length_b 21.773424
_cell_length_c 26.904220
_cell_angle_alpha 90.000000
_cell_angle_beta 90.000000
_cell_angle_gamma 90.000000
_cell_volume 5572.883588
_symmetry_space_group_name_H-M "I M M A"
_symmetry_group_IT_number 74
_symmetry_cell_setting 'orthorhombic'
loop_
_space_group_symop_operation_xyz
x,y,z
-x,1/2-y,z
x,-y,-z
-x,1/2+y,-z
-x,-y,-z
x,1/2+y,-z
-x,y,z
x,1/2-y,z
1/2+x,1/2+y,1/2+z
1/2-x,-y,1/2+z
1/2+x,1/2-y,1/2-z
1/2-x,y,1/2-z
1/2-x,1/2-y,1/2-z
1/2+x,y,1/2-z
1/2-x,1/2+y,1/2+z
1/2+x,-y,1/2+z
loop_
_atom_site_type_symbol
_atom_site_label
_atom_site_fract_x
_atom_site_fract_y
_atom_site_fract_z
Si Si1 0.500000 0.321082 0.285308
Si Si2 0.782429 0.112020 0.146669
Si Si3 0.155560 0.179197 0.048415
Si Si4 0.667299 0.858174 0.359138
Si Si5 0.165292 0.823633 0.452648
Si Si6 0.000000 0.678637 0.666389
Si Si7 0.834597 0.486978 0.801760
Si Si8 0.328166 0.250000 0.802830
O O1 0.500000 0.250000 0.300279
O O2 0.367824 0.354311 0.309503
O O3 0.500000 0.324399 0.226249
O O4 0.844097 0.131776 0.093727
O O5 0.632124 0.142618 0.146675
O O6 0.785037 0.041058 0.161411
O O7 0.174031 0.250000 0.066987
O O8 0.000000 0.177294 0.024459
O O9 0.274570 0.166473 0.007888
O O10 0.500000 0.841429 0.360328
O O11 0.735441 0.859056 0.413872
O O12 0.679287 0.922081 0.329647
O O13 0.765145 0.808902 0.331005
O O14 0.179028 0.750000 0.442830
O O15 0.000000 0.839029 0.448005
O O16 0.000000 0.750000 0.651866
O O17 0.750000 0.488324 0.750000
O O18 0.000000 0.497294 0.791152
O O19 0.500000 0.250000 0.800363
O O20 0.250000 0.250000 0.750000
#
# Coordination Sequence:
#
# PCOD9538337 Si02
#       8
#     8  16  16  16  16   8  16   8
#     4  11  20  36  60  84 117 159 207 263 316 374
#     4  12  23  39  59  87 126 166 212 260 314 373
#     4  10  20  36  61  90 122 165 211 260 316 374
#     4  11  23  41  66  95 128 165 210 259 317 382
#     4  10  21  38  63  95 127 160 202 260 322 382
#     4  11  24  36  56  88 121 159 209 267 330 374
#     4  11  25  43  64  91 125 171 217 255 307 380
#     4  12  24  40  64  98 134 166 206 262 321 376
#
# _framework density 18.661791999999998
#
# number of rings (size 3 to 8) (size 9 to 14) (size 15 to 20)
#    0.000    1.077    2.308    4.846    2.154    4.308 
#    0.000    0.769    0.000    3.692    0.000    0.000 
#    0.000    0.000    0.000    0.000    0.000    0.000 
#
# Total GULP energy -290390.237567 kJ/mol
# GULP energy per Si atom -5584.427646 kJ/mol
# Density = 1.861932 g / cm^3
# Si number density = 18.661792 Si / 1000 Ang^3
#
#
#
# Elastic Constant Matrix: (Units=GPa)
#
#
# Indices 1 2 3 4 5 6 
#
# 1 161.8240 51.5709 40.4463 0.0000 0.0000 0.0000
# 2 51.5709 98.7638 41.4891 0.0000 0.0000 0.0000
# 3 40.4463 41.4891 88.4640 0.0000 0.0000 0.0000
# 4 0.0000 0.0000 0.0000 24.8434 0.0000 0.0000
# 5 0.0000 0.0000 0.0000 0.0000 24.0705 0.0000
# 6 0.0000 0.0000 0.0000 0.0000 0.0000 23.0822
#
#
#
# Elastic Compliance Matrix: (Units=1/GPa)
#
#
# Indices 1 2 3 4 5 6 
#
# 1 0.007696 -0.003164 -0.002035 0.000000 0.000000 0.000000
# 2 -0.003164 0.013910 -0.005077 0.000000 0.000000 0.000000
# 3 -0.002035 -0.005077 0.014616 0.000000 0.000000 0.000000
# 4 0.000000 0.000000 0.000000 0.040252 0.000000 0.000000
# 5 0.000000 0.000000 0.000000 0.000000 0.041545 0.000000
# 6 0.000000 0.000000 0.000000 0.000000 0.000000 0.043323
#
#
# Mechanical properties :
#
#
# Convention : Reuss Voigt Hill
#
# Bulk Modulus (GPa) = 63.81647 68.45159 66.13403
# Shear Modulus (GPa) = 26.72108 28.76891 27.74500
#
# Velocity S-wave (km/s) = 3.78810 3.93057 3.85999
# Velocity P-wave (km/s) = 7.30777 7.57357 7.44185
#
# Compressibility (1/GPa) = 0.01566994
#
# Stress axis : x y z
#
# Youngs Moduli (GPa) = 129.92939 71.89016 68.41997
#
# Poissons Ratio (x) = 0.22746 0.13923
# Poissons Ratio (y) = 0.41109 0.34738
# Poissons Ratio (z) = 0.26441 0.36500
#
# Static dielectric constant tensor:
#      x y z
#    x 1.623150 0.000000 0.000000 
#    y 0.000000 1.631580 0.000000 
#    z 0.000000 0.000000 1.657340 
# 
# From -- ./inp_files/64556.got.cif
#   From: 2010.05.17/outbox.cif.g08.bks.cpg/sg74_33_cif.got.tgz:64556.got - 2010.06.03 17:57:02.
