data_PCOD9538463
_publ_section_title
;
Structure prediction by ZEFSAII (Michael W. Deem and Ramdas Pophale) SiO2 
 PCOD9538463
Probable space group: I M M A
;
_chemical_formula_sum "Si O2"
_cell_formula_units_Z 96
_cell_length_a 7.779839
_cell_length_b 30.598274
_cell_length_c 17.982178
_cell_angle_alpha 90.000000
_cell_angle_beta 90.000000
_cell_angle_gamma 90.000000
_cell_volume 4280.651096
_symmetry_space_group_name_H-M "I M M A"
_symmetry_group_IT_number 74
_symmetry_cell_setting 'orthorhombic'
loop_
_space_group_symop_operation_xyz
x,y,z
-x,1/2-y,z
x,-y,-z
-x,1/2+y,-z
-x,-y,-z
x,1/2+y,-z
-x,y,z
x,1/2-y,z
1/2+x,1/2+y,1/2+z
1/2-x,-y,1/2+z
1/2+x,1/2-y,1/2-z
1/2-x,y,1/2-z
1/2-x,1/2-y,1/2-z
1/2+x,y,1/2-z
1/2-x,1/2+y,1/2+z
1/2+x,-y,1/2+z
loop_
_atom_site_type_symbol
_atom_site_label
_atom_site_fract_x
_atom_site_fract_y
_atom_site_fract_z
Si Si1 0.291255 0.296435 0.879522
Si Si2 0.294587 0.480826 0.165829
Si Si3 0.209657 0.799415 0.553693
Si Si4 0.295448 0.112880 0.828731
Si Si5 0.301193 0.895205 0.901542
Si Si6 0.808991 0.947027 0.043921
O O1 0.500000 0.295909 0.878379
O O2 0.226122 0.250000 0.852582
O O3 0.236252 0.337292 0.832357
O O4 0.244281 0.301960 0.966229
O O5 0.500000 0.480243 0.162183
O O6 0.250000 0.495510 0.250000
O O7 0.224264 0.431371 0.154191
O O8 0.242817 0.510373 0.093330
O O9 0.262984 0.750000 0.579779
O O10 0.270569 0.845703 0.589297
O O11 0.000000 0.799739 0.557406
O O12 0.500000 0.109307 0.842426
O O13 0.250000 0.093573 0.750000
O O14 0.195878 0.088719 0.892153
O O15 0.500000 0.888696 0.880634
O O16 0.297497 0.922987 0.978954
O O17 0.000000 0.952783 0.014097
#
# Coordination Sequence:
#
# PCOD9538463 Si02
#       6
#    16  16  16  16  16  16
#     4   8  14  26  47  72  99 135 178 226 276 326
#     4  11  24  41  61  84 115 150 188 232 282 337
#     4   8  13  26  53  86 113 139 179 228 274 324
#     4  11  21  34  51  72 105 144 187 233 280 331
#     4  10  20  37  62  90 115 147 188 231 277 329
#     4  12  24  38  57  82 112 147 189 233 280 331
#
# _framework density 22.426496
#
# number of rings (size 3 to 8) (size 9 to 14) (size 15 to 20)
#    0.000    2.000    1.667    4.500    0.000    3.667 
#    0.000    0.000    0.000    3.500    0.000    0.000 
#    0.000    0.000    0.000    0.000    0.000    0.167 
#
# Total GULP energy -267438.445019 kJ/mol
# GULP energy per Si atom -5571.634271 kJ/mol
# Density = 2.237545 g / cm^3
# Si number density = 22.426496 Si / 1000 Ang^3
#
#
#
# Elastic Constant Matrix: (Units=GPa)
#
#
# Indices 1 2 3 4 5 6 
#
# 1 55.8088 4.8691 -7.0430 0.0000 0.0000 0.0000
# 2 4.8691 204.2723 26.6768 0.0000 0.0000 0.0000
# 3 -7.0430 26.6768 20.8232 0.0000 0.0000 0.0000
# 4 0.0000 0.0000 0.0000 50.0589 0.0000 0.0000
# 5 0.0000 0.0000 0.0000 0.0000 14.9983 0.0000
# 6 0.0000 0.0000 0.0000 0.0000 0.0000 36.2703
#
#
#
# Elastic Compliance Matrix: (Units=1/GPa)
#
#
# Indices 1 2 3 4 5 6 
#
# 1 0.019123 -0.001562 0.008469 0.000000 0.000000 0.000000
# 2 -0.001562 0.006007 -0.008223 0.000000 0.000000 0.000000
# 3 0.008469 -0.008223 0.061423 0.000000 0.000000 0.000000
# 4 0.000000 0.000000 0.000000 0.019976 0.000000 0.000000
# 5 0.000000 0.000000 0.000000 0.000000 0.066674 0.000000
# 6 0.000000 0.000000 0.000000 0.000000 0.000000 0.027571
#
#
# Mechanical properties :
#
#
# Convention : Reuss Voigt Hill
#
# Bulk Modulus (GPa) = 11.91606 36.65669 24.28638
# Shear Modulus (GPa) = 21.60945 37.35891 29.48418
#
# Velocity S-wave (km/s) = 3.10751 4.08590 3.62982
# Velocity P-wave (km/s) = 4.26619 6.21612 5.33107
#
# Compressibility (1/GPa) = 0.08392033
#
# Stress axis : x y z
#
# Youngs Moduli (GPa) = 52.29210 166.48412 16.28058
#
# Poissons Ratio (x) = 0.26002 -0.13788
# Poissons Ratio (y) = 0.08167 0.13388
# Poissons Ratio (z) = -0.44286 1.36906
#
# Static dielectric constant tensor:
#      x y z
#    x 1.870730 0.000000 0.000000 
#    y 0.000000 1.929770 0.000000 
#    z 0.000000 0.000000 1.680920 
# 
# From -- ./inp_files/49104.got.cif
#   From: 2010.05.17/outbox.cif.g08.bks.cpg/sg74_25_cif.got.tgz:49104.got - 2010.06.03 17:57:02.
