data_PCOD9538932
_publ_section_title
;
Structure prediction by ZEFSAII (Michael W. Deem and Ramdas Pophale) SiO2 
 PCOD9538932
Probable space group: I M M A
;
_chemical_formula_sum "Si O2"
_cell_formula_units_Z 88
_cell_length_a 17.463824
_cell_length_b 9.201375
_cell_length_c 31.137425
_cell_angle_alpha 90.000000
_cell_angle_beta 90.000000
_cell_angle_gamma 90.000000
_cell_volume 5003.509988
_symmetry_space_group_name_H-M "I M M A"
_symmetry_group_IT_number 74
_symmetry_cell_setting 'orthorhombic'
loop_
_space_group_symop_operation_xyz
x,y,z
-x,1/2-y,z
x,-y,-z
-x,1/2+y,-z
-x,-y,-z
x,1/2+y,-z
-x,y,z
x,1/2-y,z
1/2+x,1/2+y,1/2+z
1/2-x,-y,1/2+z
1/2+x,1/2-y,1/2-z
1/2-x,y,1/2-z
1/2-x,1/2-y,1/2-z
1/2+x,y,1/2-z
1/2-x,1/2+y,1/2+z
1/2+x,-y,1/2+z
loop_
_atom_site_type_symbol
_atom_site_label
_atom_site_fract_x
_atom_site_fract_y
_atom_site_fract_z
Si Si1 0.086400 0.588390 0.687406
Si Si2 0.263309 0.921763 0.200313
Si Si3 0.591785 0.424088 0.546157
Si Si4 0.125440 0.908789 0.588661
Si Si5 0.000000 0.582665 0.456301
Si Si6 0.700705 0.577002 0.616122
O O1 0.109011 0.750000 0.704222
O O2 0.148010 0.465627 0.695881
O O3 0.090391 0.601414 0.636159
O O4 0.000000 0.557271 0.701431
O O5 0.250834 0.750000 0.194249
O O6 0.250000 0.960473 0.250000
O O7 0.214819 0.007257 0.163641
O O8 0.610372 0.500000 0.500000
O O9 0.500000 0.443556 0.552912
O O10 0.606832 0.250000 0.544012
O O11 0.639482 0.497035 0.585274
O O12 0.114108 0.750000 0.567604
O O13 0.215629 0.935853 0.593726
O O14 0.077211 0.032883 0.566965
O O15 0.000000 0.500000 0.500000
O O16 0.000000 0.750000 0.462524
O O17 0.684015 0.750000 0.620007
#
# Coordination Sequence:
#
# PCOD9538932 Si02
#       6
#    16  16  16  16   8  16
#     4   9  17  32  55  78 101 133 174 221 269 322
#     4  10  21  36  54  80 115 150 186 233 286 342
#     4  10  21  38  61  88 118 151 189 238 294 352
#     4   9  18  35  53  72 102 134 170 218 266 315
#     4  12  24  34  48  70 100 140 178 216 262 310
#     4  10  21  37  60  85 110 148 190 233 285 340
#
# _framework density 17.587651999999999
#
# number of rings (size 3 to 8) (size 9 to 14) (size 15 to 20)
#    0.000    2.182    0.909    3.545    0.000    7.273 
#    0.000    0.909    0.000    1.091    0.000    0.000 
#    0.000    0.000    0.000    0.000    0.000    0.000 
#
# Total GULP energy -244979.576060 kJ/mol
# GULP energy per Si atom -5567.717638 kJ/mol
# Density = 1.754762 g / cm^3
# Si number density = 17.587652 Si / 1000 Ang^3
#
#
#
# Elastic Constant Matrix: (Units=GPa)
#
#
# Indices 1 2 3 4 5 6 
#
# 1 72.9210 50.4708 49.4561 0.0000 0.0000 0.0000
# 2 50.4708 126.2559 77.6224 0.0000 0.0000 0.0000
# 3 49.4561 77.6224 106.1426 0.0000 0.0000 0.0000
# 4 0.0000 0.0000 0.0000 26.2351 0.0000 0.0000
# 5 0.0000 0.0000 0.0000 0.0000 37.5615 0.0000
# 6 0.0000 0.0000 0.0000 0.0000 0.0000 49.8602
#
#
#
# Elastic Compliance Matrix: (Units=1/GPa)
#
#
# Indices 1 2 3 4 5 6 
#
# 1 0.021307 -0.004386 -0.006720 0.000000 0.000000 0.000000
# 2 -0.004386 0.015293 -0.009141 0.000000 0.000000 0.000000
# 3 -0.006720 -0.009141 0.019237 0.000000 0.000000 0.000000
# 4 0.000000 0.000000 0.000000 0.038117 0.000000 0.000000
# 5 0.000000 0.000000 0.000000 0.000000 0.026623 0.000000
# 6 0.000000 0.000000 0.000000 0.000000 0.000000 0.020056
#
#
# Mechanical properties :
#
#
# Convention : Reuss Voigt Hill
#
# Bulk Modulus (GPa) = 65.17256 73.37979 69.27617
# Shear Modulus (GPa) = 26.84694 31.24937 29.04816
#
# Velocity S-wave (km/s) = 3.91124 4.21976 4.06842
# Velocity P-wave (km/s) = 7.58507 8.09659 7.84500
#
# Compressibility (1/GPa) = 0.01534388
#
# Stress axis : x y z
#
# Youngs Moduli (GPa) = 46.93327 65.38859 51.98283
#
# Poissons Ratio (x) = 0.28677 0.34935
# Poissons Ratio (y) = 0.20583 0.47515
# Poissons Ratio (z) = 0.31541 0.59769
#
# Static dielectric constant tensor:
#      x y z
#    x 1.579480 0.000000 0.000000 
#    y 0.000000 1.584320 0.000000 
#    z 0.000000 0.000000 1.559420 
# 
# From -- ./inp_files/72945.got.cif
#   From: 2010.05.17/outbox.cif.g08.bks.cpg/sg74_37_cif.got.tgz:72945.got - 2010.06.03 17:57:02.
