data_PCOD9538897
_publ_section_title
;
Structure prediction by ZEFSAII (Michael W. Deem and Ramdas Pophale) SiO2 
 PCOD9538897
Probable space group: I M M A
;
_chemical_formula_sum "Si O2"
_cell_formula_units_Z 116
_cell_length_a 16.209666
_cell_length_b 24.320925
_cell_length_c 17.509393
_cell_angle_alpha 90.000000
_cell_angle_beta 90.000000
_cell_angle_gamma 90.000000
_cell_volume 6902.799284
_symmetry_space_group_name_H-M "I M M A"
_symmetry_group_IT_number 74
_symmetry_cell_setting 'orthorhombic'
loop_
_space_group_symop_operation_xyz
x,y,z
-x,1/2-y,z
x,-y,-z
-x,1/2+y,-z
-x,-y,-z
x,1/2+y,-z
-x,y,z
x,1/2-y,z
1/2+x,1/2+y,1/2+z
1/2-x,-y,1/2+z
1/2+x,1/2-y,1/2-z
1/2-x,y,1/2-z
1/2-x,1/2-y,1/2-z
1/2+x,y,1/2-z
1/2-x,1/2+y,1/2+z
1/2+x,-y,1/2+z
loop_
_atom_site_type_symbol
_atom_site_label
_atom_site_fract_x
_atom_site_fract_y
_atom_site_fract_z
Si Si1 0.000000 0.250000 0.459546
Si Si2 0.652116 0.642990 0.743293
Si Si3 0.909341 0.020600 0.254303
Si Si4 0.862422 0.336667 0.413490
Si Si5 0.595413 0.917269 0.501009
Si Si6 0.674552 0.502893 0.390237
Si Si7 0.831726 0.312379 0.076861
Si Si8 0.861393 0.532230 0.576201
O O1 0.927326 0.298188 0.455172
O O2 0.750000 0.629175 0.750000
O O3 0.603794 0.585812 0.741748
O O4 0.627128 0.672494 0.821751
O O5 0.643753 0.676280 0.665334
O O6 0.900978 0.011760 0.344662
O O7 0.000000 0.003439 0.228785
O O8 0.842325 0.993177 0.199301
O O9 0.766788 0.322608 0.429912
O O10 0.874306 0.401966 0.428877
O O11 0.500000 0.920489 0.479492
O O12 0.653256 0.941401 0.434458
O O13 0.621613 0.856954 0.526274
O O14 0.612729 0.957809 0.572753
O O15 0.764381 0.480161 0.410546
O O16 0.850684 0.250000 0.056697
O O17 0.887758 0.500000 0.500000
#
# Coordination Sequence:
#
# PCOD9538897 Si02
#       8
#     4  16  16  16  16  16  16  16
#     4  12  24  36  52  72  98 144 208 224 260 312
#     4   9  19  32  47  67  99 141 182 222 264 314
#     4  11  21  32  51  81 111 143 182 228 273 332
#     4  10  21  36  51  73 101 143 188 230 266 323
#     4  11  21  33  52  81 107 139 181 232 278 324
#     4  11  18  36  58  76 104 144 185 225 271 339
#     4  11  20  34  51  71 108 145 183 227 277 326
#     4  11  21  38  58  80 112 147 181 226 296 337
#
# _framework density 16.804777000000001
#
# number of rings (size 3 to 8) (size 9 to 14) (size 15 to 20)
#    0.000    1.379    4.828    3.724    4.828    1.379 
#    0.000    0.000    0.000    0.000    0.000    0.000 
#    2.069    2.207    0.000    0.000    0.000    0.000 
#
# Total GULP energy -323178.457069 kJ/mol
# GULP energy per Si atom -5572.042363 kJ/mol
# Density = 1.676653 g / cm^3
# Si number density = 16.804777 Si / 1000 Ang^3
#
#
#
# Elastic Constant Matrix: (Units=GPa)
#
#
# Indices 1 2 3 4 5 6 
#
# 1 49.9025 15.3553 6.2625 0.0000 0.0000 0.0000
# 2 15.3553 98.6840 35.0947 0.0000 0.0000 0.0000
# 3 6.2625 35.0947 66.1922 0.0000 0.0000 0.0000
# 4 0.0000 0.0000 0.0000 13.5753 0.0000 0.0000
# 5 0.0000 0.0000 0.0000 0.0000 12.7972 0.0000
# 6 0.0000 0.0000 0.0000 0.0000 0.0000 16.9499
#
#
#
# Elastic Compliance Matrix: (Units=1/GPa)
#
#
# Indices 1 2 3 4 5 6 
#
# 1 0.021052 -0.003164 -0.000314 0.000000 0.000000 0.000000
# 2 -0.003164 0.012964 -0.006574 0.000000 0.000000 0.000000
# 3 -0.000314 -0.006574 0.018623 0.000000 0.000000 0.000000
# 4 0.000000 0.000000 0.000000 0.073663 0.000000 0.000000
# 5 0.000000 0.000000 0.000000 0.000000 0.078142 0.000000
# 6 0.000000 0.000000 0.000000 0.000000 0.000000 0.058997
#
#
# Mechanical properties :
#
#
# Convention : Reuss Voigt Hill
#
# Bulk Modulus (GPa) = 30.73689 36.46707 33.60198
# Shear Modulus (GPa) = 16.98429 19.20223 18.09326
#
# Velocity S-wave (km/s) = 3.18257 3.38400 3.28483
# Velocity P-wave (km/s) = 5.64228 6.08409 5.86734
#
# Compressibility (1/GPa) = 0.03253419
#
# Stress axis : x y z
#
# Youngs Moduli (GPa) = 47.50123 77.13966 53.69806
#
# Poissons Ratio (x) = 0.24407 0.01687
# Poissons Ratio (y) = 0.15029 0.35300
# Poissons Ratio (z) = 0.01493 0.50710
#
# Static dielectric constant tensor:
#      x y z
#    x 1.594730 0.000000 0.000000 
#    y 0.000000 1.552380 0.000000 
#    z 0.000000 0.000000 1.595080 
# 
# From -- ./inp_files/43221.got.cif
#   From: 2010.05.17/outbox.cif.g08.bks.cpg/sg74_22_cif.got.tgz:43221.got - 2010.06.03 17:57:02.
