data_PCOD9538589
_publ_section_title
;
Structure prediction by ZEFSAII (Michael W. Deem and Ramdas Pophale) SiO2 
 PCOD9538589
Probable space group: I M M A
;
_chemical_formula_sum "Si O2"
_cell_formula_units_Z 96
_cell_length_a 28.257701
_cell_length_b 19.578079
_cell_length_c 8.851367
_cell_angle_alpha 90.000000
_cell_angle_beta 90.000000
_cell_angle_gamma 90.000000
_cell_volume 4896.855065
_symmetry_space_group_name_H-M "I M M A"
_symmetry_group_IT_number 74
_symmetry_cell_setting 'orthorhombic'
loop_
_space_group_symop_operation_xyz
x,y,z
-x,1/2-y,z
x,-y,-z
-x,1/2+y,-z
-x,-y,-z
x,1/2+y,-z
-x,y,z
x,1/2-y,z
1/2+x,1/2+y,1/2+z
1/2-x,-y,1/2+z
1/2+x,1/2-y,1/2-z
1/2-x,y,1/2-z
1/2-x,1/2-y,1/2-z
1/2+x,y,1/2-z
1/2-x,1/2+y,1/2+z
1/2+x,-y,1/2+z
loop_
_atom_site_type_symbol
_atom_site_label
_atom_site_fract_x
_atom_site_fract_y
_atom_site_fract_z
Si Si1 0.602535 0.330067 0.443264
Si Si2 0.553788 0.439143 0.620534
Si Si3 0.808816 0.574968 0.921152
Si Si4 0.203619 0.076442 0.439991
Si Si5 0.553953 0.171059 0.123802
Si Si6 0.609226 0.572892 0.081851
O O1 0.607655 0.250000 0.477299
O O2 0.561629 0.367084 0.538093
O O3 0.649813 0.373969 0.469546
O O4 0.587554 0.337391 0.268298
O O5 0.560669 0.500000 0.500000
O O6 0.500000 0.445506 0.679851
O O7 0.593552 0.441792 0.748706
O O8 0.809897 0.571040 0.737319
O O9 0.756500 0.605499 0.956066
O O10 0.813983 0.500000 0.000000
O O11 0.160554 0.104906 0.540848
O O12 0.209733 0.000000 0.500000
O O13 0.500000 0.156060 0.169216
O O14 0.556380 0.250000 0.075919
O O15 0.570613 0.121834 0.992321
O O16 0.608563 0.500000 0.000000
#
# Coordination Sequence:
#
# PCOD9538589 Si02
#       6
#    16  16  16  16  16  16
#     4  11  23  39  60  88 121 163 206 247 302 366
#     4  11  25  41  61  90 122 162 207 256 310 365
#     4  10  20  38  64  90 123 157 198 249 300 367
#     4   9  20  36  59  97 121 153 198 245 308 357
#     4  10  21  38  59  84 119 161 203 249 300 358
#     4  11  22  38  62  91 120 151 200 253 308 362
#
# _framework density 19.604420999999999
#
# number of rings (size 3 to 8) (size 9 to 14) (size 15 to 20)
#    0.000    1.667    1.667    2.500    7.000    4.333 
#    0.000    2.500    0.000    1.000    0.000    0.000 
#    0.000    0.000    0.000    0.000    0.000    0.000 
#
# Total GULP energy -267826.883449 kJ/mol
# GULP energy per Si atom -5579.726739 kJ/mol
# Density = 1.955980 g / cm^3
# Si number density = 19.604421 Si / 1000 Ang^3
#
#
#
# Elastic Constant Matrix: (Units=GPa)
#
#
# Indices 1 2 3 4 5 6 
#
# 1 136.2858 50.3998 47.4590 0.0000 0.0000 0.0000
# 2 50.3998 72.1171 24.3807 0.0000 0.0000 0.0000
# 3 47.4590 24.3807 66.3093 0.0000 0.0000 0.0000
# 4 0.0000 0.0000 0.0000 25.8144 0.0000 0.0000
# 5 0.0000 0.0000 0.0000 0.0000 27.3084 0.0000
# 6 0.0000 0.0000 0.0000 0.0000 0.0000 2.9761
#
#
#
# Elastic Compliance Matrix: (Units=1/GPa)
#
#
# Indices 1 2 3 4 5 6 
#
# 1 0.011747 -0.006129 -0.006154 0.000000 0.000000 0.000000
# 2 -0.006129 0.019032 -0.002611 0.000000 0.000000 0.000000
# 3 -0.006154 -0.002611 0.020446 0.000000 0.000000 0.000000
# 4 0.000000 0.000000 0.000000 0.038738 0.000000 0.000000
# 5 0.000000 0.000000 0.000000 0.000000 0.036619 0.000000
# 6 0.000000 0.000000 0.000000 0.000000 0.000000 0.336006
#
#
# Mechanical properties :
#
#
# Convention : Reuss Voigt Hill
#
# Bulk Modulus (GPa) = 46.64963 57.68793 52.16878
# Shear Modulus (GPa) = 10.00957 21.38464 15.69711
#
# Velocity S-wave (km/s) = 2.26205 3.30632 2.83272
# Velocity P-wave (km/s) = 5.53801 6.63819 6.11290
#
# Compressibility (1/GPa) = 0.02143640
#
# Stress axis : x y z
#
# Youngs Moduli (GPa) = 85.12673 52.54176 48.91037
#
# Poissons Ratio (x) = 0.32203 0.30100
# Poissons Ratio (y) = 0.52175 0.12771
# Poissons Ratio (z) = 0.52388 0.13719
#
# Static dielectric constant tensor:
#      x y z
#    x 1.771300 0.000000 0.000000 
#    y 0.000000 1.645400 0.000000 
#    z 0.000000 0.000000 1.825370 
# 
# From -- ./inp_files/15131.got.cif
#   From: 2010.05.17/outbox.cif.g08.bks.cpg/sg74_8_cif.got.tgz:15131.got - 2010.06.03 17:57:02.
