data_PCOD9538998
_publ_section_title
;
Structure prediction by ZEFSAII (Michael W. Deem and Ramdas Pophale) SiO2 
 PCOD9538998
Probable space group: I M M A
;
_chemical_formula_sum "Si O2"
_cell_formula_units_Z 116
_cell_length_a 7.799807
_cell_length_b 26.828207
_cell_length_c 23.497948
_cell_angle_alpha 90.000000
_cell_angle_beta 90.000000
_cell_angle_gamma 90.000000
_cell_volume 4917.059273
_symmetry_space_group_name_H-M "I M M A"
_symmetry_group_IT_number 74
_symmetry_cell_setting 'orthorhombic'
loop_
_space_group_symop_operation_xyz
x,y,z
-x,1/2-y,z
x,-y,-z
-x,1/2+y,-z
-x,-y,-z
x,1/2+y,-z
-x,y,z
x,1/2-y,z
1/2+x,1/2+y,1/2+z
1/2-x,-y,1/2+z
1/2+x,1/2-y,1/2-z
1/2-x,y,1/2-z
1/2-x,1/2-y,1/2-z
1/2+x,y,1/2-z
1/2-x,1/2+y,1/2+z
1/2+x,-y,1/2+z
loop_
_atom_site_type_symbol
_atom_site_label
_atom_site_fract_x
_atom_site_fract_y
_atom_site_fract_z
Si Si1 0.295705 0.373074 0.311425
Si Si2 0.000000 0.750000 0.195756
Si Si3 0.199229 0.157401 0.960311
Si Si4 0.302300 0.066058 0.687490
Si Si5 0.800541 0.033195 0.369808
Si Si6 0.704339 0.441607 0.009811
Si Si7 0.209130 0.806988 0.916161
Si Si8 0.310926 0.823835 0.163512
O O1 0.500000 0.376767 0.315824
O O2 0.250000 0.351941 0.250000
O O3 0.221025 0.428418 0.318594
O O4 0.228958 0.339874 0.363569
O O5 0.846237 0.706709 0.189825
O O6 0.292841 0.178385 0.905196
O O7 0.000000 0.171976 0.954246
O O8 0.210980 0.097449 0.967148
O O9 0.267007 0.176099 0.021205
O O10 0.500000 0.079947 0.686617
O O11 0.250000 0.047327 0.750000
O O12 0.202713 0.117229 0.676484
O O13 0.274644 0.020477 0.644358
O O14 0.729913 0.062493 0.425167
O O15 0.000000 0.024393 0.381876
O O16 0.500000 0.431994 0.006044
O O17 0.732845 0.500000 0.000000
O O18 0.256563 0.750000 0.907170
O O19 0.000000 0.810201 0.917241
O O20 0.500000 0.806026 0.181718
#
# Coordination Sequence:
#
# PCOD9538998 Si02
#       8
#    16   4  16  16  16  16  16  16
#     4  11  22  39  60  87 124 168 221 280 341 404
#     4  12  26  52  74 110 140 188 238 292 350 426
#     4  11  21  38  66  98 136 178 226 282 339 417
#     4  12  25  46  73 103 141 180 233 287 346 425
#     4  11  22  38  62  96 134 179 225 278 341 410
#     4  10  21  36  57  88 132 174 219 272 338 407
#     4   9  20  37  61  89 124 172 223 276 340 408
#     4  12  26  47  75 107 145 184 234 290 353 417
#
# _framework density 23.591336999999999
#
# number of rings (size 3 to 8) (size 9 to 14) (size 15 to 20)
#    0.000    1.103    2.759    3.931    0.966    2.207 
#    0.000    0.345    0.000    4.552    0.000    0.000 
#    0.000    0.000    0.000    0.000    0.000    0.000 
#
# Total GULP energy -324094.245021 kJ/mol
# GULP energy per Si atom -5587.831811 kJ/mol
# Density = 2.353764 g / cm^3
# Si number density = 23.591337 Si / 1000 Ang^3
#
#
#
# Elastic Constant Matrix: (Units=GPa)
#
#
# Indices 1 2 3 4 5 6 
#
# 1 116.7906 14.1683 7.6643 0.0000 0.0000 0.0000
# 2 14.1683 111.7369 13.9339 0.0000 0.0000 0.0000
# 3 7.6643 13.9339 97.7468 -0.0001 0.0000 0.0000
# 4 0.0000 0.0000 -0.0001 -6.6754 0.0000 0.0000
# 5 0.0000 0.0000 0.0000 0.0000 19.0151 0.0000
# 6 0.0000 0.0000 0.0000 0.0000 0.0000 -34.8193
#
#
#
# Elastic Compliance Matrix: (Units=1/GPa)
#
#
# Indices 1 2 3 4 5 6 
#
# 1 0.008724 -0.001039 -0.000536 0.000000 0.000000 0.000000
# 2 -0.001039 0.009235 -0.001235 0.000000 0.000000 0.000000
# 3 -0.000536 -0.001235 0.010449 0.000000 0.000000 0.000000
# 4 0.000000 0.000000 0.000000 -0.149805 0.000000 0.000000
# 5 0.000000 0.000000 0.000000 0.000000 0.052590 0.000000
# 6 0.000000 0.000000 0.000000 0.000000 0.000000 -0.028720
#
#
# Mechanical properties :
#
#
# Convention : Reuss Voigt Hill
#
# Bulk Modulus (GPa) = 43.88440 44.20081 44.04260
# Shear Modulus (GPa) = -59.30438 14.87126 -22.21656
#
# Velocity S-wave (km/s) = -5.01924 2.51344 -3.07208
# Velocity P-wave (km/s) = 3.86627 5.21535 2.47506
#
# Compressibility (1/GPa) = 0.02278714
#
# Stress axis : x y z
#
# Youngs Moduli (GPa) = 114.63179 108.27913 95.70673
#
# Poissons Ratio (x) = 0.11254 0.05129
# Poissons Ratio (y) = 0.11914 0.11820
# Poissons Ratio (z) = 0.06143 0.13373
#
# Static dielectric constant tensor:
#      x y z
#    x 1.880560 0.000000 0.000000 
#    y 0.000000 1.863210 0.000000 
#    z 0.000000 0.000000 1.943120 
# 
# From -- ./inp_files/57720.got.cif
#   From: 2010.05.17/outbox.cif.g08.bks.cpg/sg74_29_cif.got.tgz:57720.got - 2010.06.03 17:57:02.
