data_PCOD9538404
_publ_section_title
;
Structure prediction by ZEFSAII (Michael W. Deem and Ramdas Pophale) SiO2 
 PCOD9538404
Probable space group: I M M A
;
_chemical_formula_sum "Si O2"
_cell_formula_units_Z 68
_cell_length_a 10.216567
_cell_length_b 19.125029
_cell_length_c 16.956400
_cell_angle_alpha 90.000000
_cell_angle_beta 90.000000
_cell_angle_gamma 90.000000
_cell_volume 3313.147285
_symmetry_space_group_name_H-M "I M M A"
_symmetry_group_IT_number 74
_symmetry_cell_setting 'orthorhombic'
loop_
_space_group_symop_operation_xyz
x,y,z
-x,1/2-y,z
x,-y,-z
-x,1/2+y,-z
-x,-y,-z
x,1/2+y,-z
-x,y,z
x,1/2-y,z
1/2+x,1/2+y,1/2+z
1/2-x,-y,1/2+z
1/2+x,1/2-y,1/2-z
1/2-x,y,1/2-z
1/2-x,1/2-y,1/2-z
1/2+x,y,1/2-z
1/2-x,1/2+y,1/2+z
1/2+x,-y,1/2+z
loop_
_atom_site_type_symbol
_atom_site_label
_atom_site_fract_x
_atom_site_fract_y
_atom_site_fract_z
Si Si1 0.249094 0.898570 0.965509
Si Si2 0.000000 0.500000 0.000000
Si Si3 0.147860 0.250000 0.049665
Si Si4 0.850034 0.750000 0.141918
Si Si5 0.352959 0.869766 0.138091
Si Si6 0.645772 0.528120 0.813318
O O1 0.217378 0.822338 0.929892
O O2 0.323647 0.942805 0.899738
O O3 0.329999 0.886239 0.045449
O O4 0.115918 0.939795 0.987711
O O5 0.000000 0.250000 0.079673
O O6 0.142739 0.250000 0.953612
O O7 0.763159 0.682419 0.162312
O O8 0.000000 0.750000 0.171190
O O9 0.500000 0.840801 0.149153
O O10 0.345827 0.944097 0.180976
O O11 0.500000 0.547265 0.788215
O O12 0.750000 0.553572 0.750000
#
# Coordination Sequence:
#
# PCOD9538404 Si02
#       6
#    16   4   8   8  16  16
#     4  11  21  36  60  90 120 157 197 243 298 351
#     4  12  20  30  66  96 120 154 196 256 288 358
#     4   9  18  31  52  87 122 147 187 237 289 348
#     4   9  19  31  56  89 120 149 191 235 291 359
#     4  10  20  37  59  86 119 152 190 243 301 358
#     4  11  25  40  59  85 116 155 201 252 301 358
#
# _framework density 20.524290000000001
#
# number of rings (size 3 to 8) (size 9 to 14) (size 15 to 20)
#    0.000    1.647    3.529    1.059    3.294    2.824 
#    0.000    2.941    0.000    0.000    0.000    0.000 
#    0.000    0.000    0.000    0.000    0.000    0.000 
#
# Total GULP energy -189417.274505 kJ/mol
# GULP energy per Si atom -5571.096309 kJ/mol
# Density = 2.047758 g / cm^3
# Si number density = 20.524290 Si / 1000 Ang^3
#
#
#
# Elastic Constant Matrix: (Units=GPa)
#
#
# Indices 1 2 3 4 5 6 
#
# 1 175.0765 46.7105 34.9690 0.0000 0.0000 0.0000
# 2 46.7105 108.6551 -5.0262 0.0000 0.0000 0.0000
# 3 34.9690 -5.0262 63.6700 0.0000 0.0000 0.0000
# 4 0.0000 0.0000 0.0000 -3.5195 0.0000 0.0000
# 5 0.0000 0.0000 0.0000 0.0000 7.8850 0.0000
# 6 0.0000 0.0000 0.0000 0.0000 0.0000 17.8028
#
#
#
# Elastic Compliance Matrix: (Units=1/GPa)
#
#
# Indices 1 2 3 4 5 6 
#
# 1 0.007504 -0.003429 -0.004392 0.000000 0.000000 0.000000
# 2 -0.003429 0.010804 0.002736 0.000000 0.000000 0.000000
# 3 -0.004392 0.002736 0.018334 0.000000 0.000000 0.000000
# 4 0.000000 0.000000 0.000000 -0.284131 0.000000 0.000000
# 5 0.000000 0.000000 0.000000 0.000000 0.126823 0.000000
# 6 0.000000 0.000000 0.000000 0.000000 0.000000 0.056171
#
#
# Mechanical properties :
#
#
# Convention : Reuss Voigt Hill
#
# Bulk Modulus (GPa) = 37.77503 55.63424 46.70463
# Shear Modulus (GPa) = -109.88664 22.48355 -43.70155
#
# Velocity S-wave (km/s) = -7.32503 3.31337 -4.61940
# Velocity P-wave (km/s) = 7.28673 6.46554 2.37625
#
# Compressibility (1/GPa) = 0.02647252
#
# Stress axis : x y z
#
# Youngs Moduli (GPa) = 133.26387 92.55703 54.54292
#
# Poissons Ratio (x) = 0.31738 0.23955
# Poissons Ratio (y) = 0.45697 -0.14924
# Poissons Ratio (z) = 0.58530 -0.25326
#
# Static dielectric constant tensor:
#      x y z
#    x 1.722240 0.000000 0.000000 
#    y 0.000000 1.743640 0.000000 
#    z 0.000000 0.000000 1.709200 
# 
# From -- ./inp_files/39260.got.cif
#   From: 2010.05.17/outbox.cif.g08.bks.cpg/sg74_20_cif.got.tgz:39260.got - 2010.06.03 17:57:02.
