data_PCOD9538301
_publ_section_title
;
Structure prediction by ZEFSAII (Michael W. Deem and Ramdas Pophale) SiO2 
 PCOD9538301
Probable space group: I M M A
;
_chemical_formula_sum "Si O2"
_cell_formula_units_Z 72
_cell_length_a 22.464746
_cell_length_b 8.772560
_cell_length_c 19.840077
_cell_angle_alpha 90.000000
_cell_angle_beta 90.000000
_cell_angle_gamma 90.000000
_cell_volume 3909.950085
_symmetry_space_group_name_H-M "I M M A"
_symmetry_group_IT_number 74
_symmetry_cell_setting 'orthorhombic'
loop_
_space_group_symop_operation_xyz
x,y,z
-x,1/2-y,z
x,-y,-z
-x,1/2+y,-z
-x,-y,-z
x,1/2+y,-z
-x,y,z
x,1/2-y,z
1/2+x,1/2+y,1/2+z
1/2-x,-y,1/2+z
1/2+x,1/2-y,1/2-z
1/2-x,y,1/2-z
1/2-x,1/2-y,1/2-z
1/2+x,y,1/2-z
1/2-x,1/2+y,1/2+z
1/2+x,-y,1/2+z
loop_
_atom_site_type_symbol
_atom_site_label
_atom_site_fract_x
_atom_site_fract_y
_atom_site_fract_z
Si Si1 0.146591 0.431494 0.927050
Si Si2 0.929651 0.432669 0.192088
Si Si3 0.000000 0.931375 0.425314
Si Si4 0.223599 0.932926 0.572959
Si Si5 0.108973 0.566617 0.658846
O O1 0.149641 0.250000 0.932001
O O2 0.100974 0.483582 0.869962
O O3 0.212105 0.497520 0.910446
O O4 0.130091 0.500000 0.000000
O O5 0.922654 0.250000 0.183286
O O6 0.899439 0.475718 0.263122
O O7 0.000000 0.465108 0.196405
O O8 0.000000 0.750000 0.429275
O O9 0.000000 0.000000 0.500000
O O10 0.942183 0.988949 0.385169
O O11 0.228798 0.750000 0.567763
O O12 0.173173 0.969927 0.627550
O O13 0.205848 0.000000 0.500000
O O14 0.100732 0.750000 0.654293
#
# Coordination Sequence:
#
# PCOD9538301 Si02
#       5
#    16  16   8  16  16
#     4  11  23  40  62  87 118 151 194 244 296 355
#     4  10  21  40  64  86 117 156 195 241 293 351
#     4  12  24  36  56  84 119 160 203 246 288 342
#     4  10  20  36  60  87 118 154 197 243 292 347
#     4  10  21  39  61  86 118 157 198 241 291 350
#
# _framework density 18.414556000000001
#
# number of rings (size 3 to 8) (size 9 to 14) (size 15 to 20)
#    0.000    1.556    1.111    5.667    0.000    6.222 
#    0.000    4.444    0.000    0.000    0.000    0.000 
#    0.000    0.000    0.000    0.000    0.000    0.000 
#
# Total GULP energy -201224.022100 kJ/mol
# GULP energy per Si atom -5589.556169 kJ/mol
# Density = 1.837264 g / cm^3
# Si number density = 18.414556 Si / 1000 Ang^3
#
#
#
# Elastic Constant Matrix: (Units=GPa)
#
#
# Indices 1 2 3 4 5 6 
#
# 1 80.0220 50.2457 81.2114 0.0000 0.0000 0.0000
# 2 50.2457 74.3746 62.3246 0.0000 0.0000 0.0000
# 3 81.2114 62.3246 138.5762 0.0000 0.0000 0.0000
# 4 0.0000 0.0000 0.0000 31.5545 0.0000 0.0000
# 5 0.0000 0.0000 0.0000 0.0000 66.0118 0.0000
# 6 0.0000 0.0000 0.0000 0.0000 0.0000 29.8572
#
#
#
# Elastic Compliance Matrix: (Units=1/GPa)
#
#
# Indices 1 2 3 4 5 6 
#
# 1 0.035253 -0.010437 -0.015966 0.000000 0.000000 0.000000
# 2 -0.010437 0.024668 -0.004978 0.000000 0.000000 0.000000
# 3 -0.015966 -0.004978 0.018811 0.000000 0.000000 0.000000
# 4 0.000000 0.000000 0.000000 0.031691 0.000000 0.000000
# 5 0.000000 0.000000 0.000000 0.000000 0.015149 0.000000
# 6 0.000000 0.000000 0.000000 0.000000 0.000000 0.033493
#
#
# Mechanical properties :
#
#
# Convention : Reuss Voigt Hill
#
# Bulk Modulus (GPa) = 62.61243 75.61512 69.11377
# Shear Modulus (GPa) = 22.01194 32.09746 27.05470
#
# Velocity S-wave (km/s) = 3.46114 4.17951 3.83718
# Velocity P-wave (km/s) = 7.07447 8.02764 7.56608
#
# Compressibility (1/GPa) = 0.01597127
#
# Stress axis : x y z
#
# Youngs Moduli (GPa) = 28.36647 40.53870 53.15913
#
# Poissons Ratio (x) = 0.42311 0.84871
# Poissons Ratio (y) = 0.29607 0.26461
# Poissons Ratio (z) = 0.45289 0.20179
#
# Static dielectric constant tensor:
#      x y z
#    x 1.614430 0.000000 0.000000 
#    y 0.000000 1.620560 0.000000 
#    z 0.000000 0.000000 1.610440 
# 
# From -- ./inp_files/39428.got.cif
#   From: 2010.05.17/outbox.cif.g08.bks.cpg/sg74_20_cif.got.tgz:39428.got - 2010.06.03 17:57:02.
