data_PCOD9538135
_publ_section_title
;
Structure prediction by ZEFSAII (Michael W. Deem and Ramdas Pophale) SiO2 
 PCOD9538135
Probable space group: I M M A
;
_chemical_formula_sum "Si O2"
_cell_formula_units_Z 80
_cell_length_a 8.833342
_cell_length_b 28.001821
_cell_length_c 18.076061
_cell_angle_alpha 90.000000
_cell_angle_beta 90.000000
_cell_angle_gamma 90.000000
_cell_volume 4471.107570
_symmetry_space_group_name_H-M "I M M A"
_symmetry_group_IT_number 74
_symmetry_cell_setting 'orthorhombic'
loop_
_space_group_symop_operation_xyz
x,y,z
-x,1/2-y,z
x,-y,-z
-x,1/2+y,-z
-x,-y,-z
x,1/2+y,-z
-x,y,z
x,1/2-y,z
1/2+x,1/2+y,1/2+z
1/2-x,-y,1/2+z
1/2+x,1/2-y,1/2-z
1/2-x,y,1/2-z
1/2-x,1/2-y,1/2-z
1/2+x,y,1/2-z
1/2-x,1/2+y,1/2+z
1/2+x,-y,1/2+z
loop_
_atom_site_type_symbol
_atom_site_label
_atom_site_fract_x
_atom_site_fract_y
_atom_site_fract_z
Si Si1 0.179941 0.935449 0.125232
Si Si2 0.681111 0.697285 0.477288
Si Si3 0.179901 0.463706 0.327899
Si Si4 0.820472 0.903085 0.957612
Si Si5 0.319973 0.835952 0.174004
O O1 0.259021 0.889979 0.162550
O O2 0.000000 0.933978 0.140035
O O3 0.249961 0.984565 0.153038
O O4 0.201170 0.929236 0.036751
O O5 0.500000 0.692840 0.464341
O O6 0.711682 0.750000 0.508097
O O7 0.722894 0.652138 0.527909
O O8 0.762230 0.691389 0.398579
O O9 0.250000 0.447719 0.250000
O O10 0.227854 0.428331 0.393555
O O11 0.000000 0.467427 0.322255
O O12 0.000000 0.905615 0.940345
O O13 0.500000 0.835508 0.177835
O O14 0.250000 0.816844 0.250000
#
# Coordination Sequence:
#
# PCOD9538135 Si02
#       5
#    16  16  16  16  16
#     4  10  20  36  56  78 108 144 179 214 256 309
#     4   9  19  37  59  80 103 135 174 216 266 320
#     4  12  24  36  53  78 109 142 177 217 260 309
#     4   9  19  36  57  80 107 138 172 213 260 311
#     4  11  21  33  50  75 109 145 181 220 260 305
#
# _framework density 17.892658000000001
#
# number of rings (size 3 to 8) (size 9 to 14) (size 15 to 20)
#    0.000    1.800    0.000    6.600    0.000    7.200 
#    0.000    0.000    0.000    0.600    0.000    0.000 
#    0.000    0.000    0.000    0.000    0.000    0.000 
#
# Total GULP energy -223530.215602 kJ/mol
# GULP energy per Si atom -5588.255390 kJ/mol
# Density = 1.785193 g / cm^3
# Si number density = 17.892658 Si / 1000 Ang^3
#
#
#
# Elastic Constant Matrix: (Units=GPa)
#
#
# Indices 1 2 3 4 5 6 
#
# 1 71.5271 20.1134 23.1626 0.0000 0.0000 0.0000
# 2 20.1134 62.6983 13.8207 0.0000 0.0000 0.0000
# 3 23.1626 13.8207 43.6055 0.0001 0.0000 0.0000
# 4 0.0000 0.0000 0.0001 0.0604 0.0000 0.0000
# 5 0.0000 0.0000 0.0000 0.0000 31.7595 0.0000
# 6 0.0000 0.0000 0.0000 0.0000 0.0000 21.9841
#
#
#
# Elastic Compliance Matrix: (Units=1/GPa)
#
#
# Indices 1 2 3 4 5 6 
#
# 1 0.017722 -0.003881 -0.008184 0.000027 0.000000 0.000000
# 2 -0.003881 0.017997 -0.003643 0.000011 0.000000 0.000000
# 3 -0.008184 -0.003643 0.028434 -0.000064 0.000000 0.000000
# 4 0.000027 0.000011 -0.000064 16.567316 0.000003 0.000002
# 5 0.000000 0.000000 0.000000 0.000003 0.031487 0.000000
# 6 0.000000 0.000000 0.000000 0.000002 0.000000 0.045488
#
#
# Mechanical properties :
#
#
# Convention : Reuss Voigt Hill
#
# Bulk Modulus (GPa) = 30.54450 32.44714 31.49582
# Shear Modulus (GPa) = 0.29849 18.80972 9.55411
#
# Velocity S-wave (km/s) = 0.40888 3.24582 2.31328
# Velocity P-wave (km/s) = 4.16304 5.67634 4.97754
#
# Compressibility (1/GPa) = 0.03273912
#
# Stress axis : x y z
#
# Youngs Moduli (GPa) = 56.42628 55.56340 35.16864
#
# Poissons Ratio (x) = 0.21566 0.28781
# Poissons Ratio (y) = 0.21901 0.12810
# Poissons Ratio (z) = 0.46177 0.20239
#
# Static dielectric constant tensor:
#      x y z
#    x 1.593020 0.000000 0.000000 
#    y 0.000000 1.620260 0.000000 
#    z 0.000000 0.000000 1.596420 
# 
# From -- ./inp_files/39694.got.cif
#   From: 2010.05.17/outbox.cif.g08.bks.cpg/sg74_20_cif.got.tgz:39694.got - 2010.06.03 17:57:02.
