data_PCOD9538118
_publ_section_title
;
Structure prediction by ZEFSAII (Michael W. Deem and Ramdas Pophale) SiO2 
 PCOD9538118
Probable space group: I M M A
;
_chemical_formula_sum "Si O2"
_cell_formula_units_Z 112
_cell_length_a 15.425430
_cell_length_b 27.911568
_cell_length_c 13.986767
_cell_angle_alpha 90.000000
_cell_angle_beta 90.000000
_cell_angle_gamma 90.000000
_cell_volume 6021.973696
_symmetry_space_group_name_H-M "I M M A"
_symmetry_group_IT_number 74
_symmetry_cell_setting 'orthorhombic'
loop_
_space_group_symop_operation_xyz
x,y,z
-x,1/2-y,z
x,-y,-z
-x,1/2+y,-z
-x,-y,-z
x,1/2+y,-z
-x,y,z
x,1/2-y,z
1/2+x,1/2+y,1/2+z
1/2-x,-y,1/2+z
1/2+x,1/2-y,1/2-z
1/2-x,y,1/2-z
1/2-x,1/2-y,1/2-z
1/2+x,y,1/2-z
1/2-x,1/2+y,1/2+z
1/2+x,-y,1/2+z
loop_
_atom_site_type_symbol
_atom_site_label
_atom_site_fract_x
_atom_site_fract_y
_atom_site_fract_z
Si Si1 0.780220 0.694350 0.979097
Si Si2 0.904341 0.444071 0.088597
Si Si3 0.655780 0.143103 0.291253
Si Si4 0.901694 0.046335 0.568182
Si Si5 0.780642 0.596237 0.070755
Si Si6 0.656891 0.525639 0.277378
Si Si7 0.593177 0.306097 0.104577
O O1 0.797553 0.750000 0.003306
O O2 0.825959 0.680199 0.878291
O O3 0.677549 0.687733 0.960010
O O4 0.801789 0.652041 0.053367
O O5 0.893751 0.401667 0.165353
O O6 0.889803 0.492821 0.145423
O O7 0.000000 0.442465 0.044943
O O8 0.830734 0.433273 0.011465
O O9 0.750000 0.128598 0.250000
O O10 0.606231 0.165707 0.202631
O O11 0.821100 0.082995 0.558063
O O12 0.895071 0.031184 0.679559
O O13 0.000000 0.063659 0.548010
O O14 0.886587 0.000000 0.500000
O O15 0.816607 0.575051 0.169932
O O16 0.750000 0.502537 0.250000
O O17 0.500000 0.318237 0.060423
O O18 0.593137 0.250000 0.129489
#
# Coordination Sequence:
#
# PCOD9538118 Si02
#       7
#    16  16  16  16  16  16  16
#     4   9  18  32  49  70  97 134 181 228 274 321
#     4  11  21  32  51  80 111 144 179 213 255 312
#     4   9  17  29  45  67 101 143 183 224 267 316
#     4  10  21  37  58  83 109 140 176 213 261 321
#     4  10  21  36  55  79 109 143 178 220 265 311
#     4  10  20  36  55  75 107 142 173 213 261 315
#     4   9  16  26  43  69 102 140 180 222 268 317
#
# _framework density 18.598552999999999
#
# number of rings (size 3 to 8) (size 9 to 14) (size 15 to 20)
#    0.000    2.286    0.000    3.857    0.000    6.286 
#    0.000    1.429    0.000    7.714    0.000    0.000 
#    0.000    0.000    0.000    0.000    0.000    0.000 
#
# Total GULP energy -312243.199954 kJ/mol
# GULP energy per Si atom -5575.771428 kJ/mol
# Density = 1.855622 g / cm^3
# Si number density = 18.598553 Si / 1000 Ang^3
#
#
#
# Elastic Constant Matrix: (Units=GPa)
#
#
# Indices 1 2 3 4 5 6 
#
# 1 75.7287 17.4226 7.0101 0.0000 0.0000 0.0000
# 2 17.4226 103.3879 43.2826 0.0001 0.0000 0.0000
# 3 7.0101 43.2826 67.9753 0.0001 0.0000 0.0000
# 4 0.0000 0.0001 0.0001 17.3449 0.0000 0.0000
# 5 0.0000 0.0000 0.0000 0.0000 13.1825 0.0000
# 6 0.0000 0.0000 0.0000 0.0000 0.0000 0.7829
#
#
#
# Elastic Compliance Matrix: (Units=1/GPa)
#
#
# Indices 1 2 3 4 5 6 
#
# 1 0.013738 -0.002348 0.000078 0.000000 0.000000 0.000000
# 2 -0.002348 0.013589 -0.008411 0.000000 0.000000 0.000000
# 3 0.000078 -0.008411 0.020058 0.000000 0.000000 0.000000
# 4 0.000000 0.000000 0.000000 0.057654 0.000000 0.000000
# 5 0.000000 0.000000 0.000000 0.000000 0.075858 0.000000
# 6 0.000000 0.000000 0.000000 0.000000 0.000000 1.277257
#
#
# Mechanical properties :
#
#
# Convention : Reuss Voigt Hill
#
# Bulk Modulus (GPa) = 38.42440 42.50249 40.46344
# Shear Modulus (GPa) = 3.35979 18.22051 10.79015
#
# Velocity S-wave (km/s) = 1.34551 3.13337 2.41127
# Velocity P-wave (km/s) = 4.80818 5.99940 5.43652
#
# Compressibility (1/GPa) = 0.02602513
#
# Stress axis : x y z
#
# Youngs Moduli (GPa) = 72.79106 73.58920 49.85424
#
# Poissons Ratio (x) = 0.17277 -0.00390
# Poissons Ratio (y) = 0.17090 0.41930
# Poissons Ratio (z) = -0.00569 0.61892
#
# Static dielectric constant tensor:
#      x y z
#    x 1.672640 0.000000 0.000000 
#    y 0.000000 1.645970 0.000000 
#    z 0.000000 0.000000 1.630250 
# 
# From -- ./inp_files/33168.got.cif
#   From: 2010.05.17/outbox.cif.g08.bks.cpg/sg74_17_cif.got.tgz:33168.got - 2010.06.03 17:57:02.
