data_PCOD9538661
_publ_section_title
;
Structure prediction by ZEFSAII (Michael W. Deem and Ramdas Pophale) SiO2 
 PCOD9538661
Probable space group: I M M A
;
_chemical_formula_sum "Si O2"
_cell_formula_units_Z 68
_cell_length_a 14.807545
_cell_length_b 11.961133
_cell_length_c 14.858167
_cell_angle_alpha 90.000000
_cell_angle_beta 90.000000
_cell_angle_gamma 90.000000
_cell_volume 2631.604473
_symmetry_space_group_name_H-M "I M M A"
_symmetry_group_IT_number 74
_symmetry_cell_setting 'orthorhombic'
loop_
_space_group_symop_operation_xyz
x,y,z
-x,1/2-y,z
x,-y,-z
-x,1/2+y,-z
-x,-y,-z
x,1/2+y,-z
-x,y,z
x,1/2-y,z
1/2+x,1/2+y,1/2+z
1/2-x,-y,1/2+z
1/2+x,1/2-y,1/2-z
1/2-x,y,1/2-z
1/2-x,1/2-y,1/2-z
1/2+x,y,1/2-z
1/2-x,1/2+y,1/2+z
1/2+x,-y,1/2+z
loop_
_atom_site_type_symbol
_atom_site_label
_atom_site_fract_x
_atom_site_fract_y
_atom_site_fract_z
Si Si1 0.393809 0.872753 0.018586
Si Si2 0.606615 0.125255 0.477848
Si Si3 0.000000 0.250000 0.809005
Si Si4 0.605821 0.632894 0.737934
Si Si5 0.349681 0.105240 0.775807
O O1 0.500000 0.875970 0.993514
O O2 0.358908 0.750000 0.983313
O O3 0.383909 0.862214 0.126074
O O4 0.357830 0.000000 0.000000
O O5 0.500000 0.126144 0.505786
O O6 0.640919 0.250000 0.509385
O O7 0.610574 0.129209 0.369913
O O8 0.642683 0.000000 0.500000
O O9 0.920825 0.347078 0.795753
O O10 0.500000 0.627127 0.761362
O O11 0.643181 0.750000 0.770306
O O12 0.651898 0.527507 0.778472
O O13 0.250000 0.139939 0.750000
#
# Coordination Sequence:
#
# PCOD9538661 Si02
#       5
#    16  16   4  16  16
#     4  10  20  39  65  96 133 172 218 279 340 402
#     4   8  14  27  46  73 108 154 212 266 311 369
#     4  12  22  44  64  98 138 172 216 284 330 422
#     4   9  18  35  57  82 122 166 211 267 331 398
#     4  12  23  40  68  99 135 172 221 280 342 400
#
# _framework density 25.839749999999999
#
# number of rings (size 3 to 8) (size 9 to 14) (size 15 to 20)
#    0.000    2.118    3.529    1.765    0.000    1.412 
#    2.118    3.529    0.000    2.824    0.000    0.000 
#    0.000    0.000    0.000    0.000    0.000    0.000 
#
# Total GULP energy -189295.906727 kJ/mol
# GULP energy per Si atom -5567.526668 kJ/mol
# Density = 2.578094 g / cm^3
# Si number density = 25.839750 Si / 1000 Ang^3
#
#
#
# Elastic Constant Matrix: (Units=GPa)
#
#
# Indices 1 2 3 4 5 6 
#
# 1 117.0432 24.3113 -6.9109 0.0000 0.0000 0.0000
# 2 24.3113 345.8393 24.3947 0.0000 0.0000 0.0000
# 3 -6.9109 24.3947 76.6955 0.0000 0.0000 0.0000
# 4 0.0000 0.0000 0.0000 29.8098 0.0000 0.0000
# 5 0.0000 0.0000 0.0000 0.0000 -8.3506 0.0000
# 6 0.0000 0.0000 0.0000 0.0000 0.0000 -152.2606
#
#
#
# Elastic Compliance Matrix: (Units=1/GPa)
#
#
# Indices 1 2 3 4 5 6 
#
# 1 0.008746 -0.000686 0.001006 0.000000 0.000000 0.000000
# 2 -0.000686 0.003012 -0.001020 0.000000 0.000000 0.000000
# 3 0.001006 -0.001020 0.013454 0.000000 0.000000 0.000000
# 4 0.000000 0.000000 0.000000 0.033546 0.000000 0.000000
# 5 0.000000 0.000000 0.000000 0.000000 -0.119752 0.000000
# 6 0.000000 0.000000 0.000000 0.000000 0.000000 -0.006568
#
#
# Mechanical properties :
#
#
# Convention : Reuss Voigt Hill
#
# Bulk Modulus (GPa) = 41.99503 69.24090 55.61796
# Shear Modulus (GPa) = -85.87155 7.02524 -39.42315
#
# Velocity S-wave (km/s) = -5.77100 1.65066 -3.91023
# Velocity P-wave (km/s) = 5.30270 5.52153 1.08829
#
# Compressibility (1/GPa) = 0.02381234
#
# Stress axis : x y z
#
# Youngs Moduli (GPa) = 114.34179 332.04368 74.32969
#
# Poissons Ratio (x) = 0.22770 -0.07479
# Poissons Ratio (y) = 0.07841 0.07579
# Poissons Ratio (z) = -0.11505 0.33859
#
# Static dielectric constant tensor:
#      x y z
#    x 1.950070 0.000000 0.000000 
#    y 0.000000 2.125730 0.000000 
#    z 0.000000 0.000000 2.056430 
# 
# From -- ./inp_files/51538.got.cif
#   From: 2010.05.17/outbox.cif.g08.bks.cpg/sg74_26_cif.got.tgz:51538.got - 2010.06.03 17:57:02.
