data_PCOD9538539
_publ_section_title
;
Structure prediction by ZEFSAII (Michael W. Deem and Ramdas Pophale) SiO2 
 PCOD9538539
Probable space group: I M M A
;
_chemical_formula_sum "Si O2"
_cell_formula_units_Z 80
_cell_length_a 28.324587
_cell_length_b 14.271083
_cell_length_c 9.115003
_cell_angle_alpha 90.000000
_cell_angle_beta 90.000000
_cell_angle_gamma 90.000000
_cell_volume 3684.489592
_symmetry_space_group_name_H-M "I M M A"
_symmetry_group_IT_number 74
_symmetry_cell_setting 'orthorhombic'
loop_
_space_group_symop_operation_xyz
x,y,z
-x,1/2-y,z
x,-y,-z
-x,1/2+y,-z
-x,-y,-z
x,1/2+y,-z
-x,y,z
x,1/2-y,z
1/2+x,1/2+y,1/2+z
1/2-x,-y,1/2+z
1/2+x,1/2-y,1/2-z
1/2-x,y,1/2-z
1/2-x,1/2-y,1/2-z
1/2+x,y,1/2-z
1/2-x,1/2+y,1/2+z
1/2+x,-y,1/2+z
loop_
_atom_site_type_symbol
_atom_site_label
_atom_site_fract_x
_atom_site_fract_y
_atom_site_fract_z
Si Si1 0.315643 0.862555 0.368173
Si Si2 0.631060 0.356341 0.160354
Si Si3 0.715750 0.362982 0.965087
Si Si4 0.052009 0.104573 0.565722
Si Si5 0.908780 0.974099 0.147293
O O1 0.320915 0.750000 0.378567
O O2 0.303442 0.884658 0.197715
O O3 0.270533 0.890559 0.466586
O O4 0.363138 0.915680 0.403629
O O5 0.637111 0.250000 0.219531
O O6 0.608847 0.431849 0.269914
O O7 0.680299 0.394373 0.092254
O O8 0.594938 0.350094 0.022650
O O9 0.714953 0.250000 0.974615
O O10 0.064151 0.089848 0.735543
O O11 0.000000 0.145944 0.544188
O O12 0.050189 0.000000 0.500000
O O13 0.936356 0.000000 0.000000
#
# Coordination Sequence:
#
# PCOD9538539 Si02
#       5
#    16  16  16  16  16
#     4   9  17  33  55  81 115 152 192 237 286 343
#     4  10  20  38  61  86 117 152 198 248 292 346
#     4   8  15  31  56  81 107 147 191 240 293 331
#     4   9  19  37  60  83 109 145 193 243 288 344
#     4  11  23  37  54  89 121 160 196 234 298 358
#
# _framework density 21.712641999999999
#
# number of rings (size 3 to 8) (size 9 to 14) (size 15 to 20)
#    0.000    2.600    2.000    1.200    0.000    1.600 
#    7.200    0.000    0.000    3.600    0.000    2.800 
#    0.000    0.000    0.000    0.000    0.000    0.000 
#
# Total GULP energy -223281.986637 kJ/mol
# GULP energy per Si atom -5582.049666 kJ/mol
# Density = 2.166322 g / cm^3
# Si number density = 21.712642 Si / 1000 Ang^3
#
#
#
# Elastic Constant Matrix: (Units=GPa)
#
#
# Indices 1 2 3 4 5 6 
#
# 1 75.4851 9.4115 12.0783 0.0000 0.0000 0.0000
# 2 9.4115 93.4068 9.3927 0.0000 0.0000 0.0000
# 3 12.0783 9.3927 79.9531 0.0000 0.0000 0.0000
# 4 0.0000 0.0000 0.0000 20.9469 0.0000 0.0000
# 5 0.0000 0.0000 0.0000 0.0000 -4.1465 0.0000
# 6 0.0000 0.0000 0.0000 0.0000 0.0000 11.2245
#
#
#
# Elastic Compliance Matrix: (Units=1/GPa)
#
#
# Indices 1 2 3 4 5 6 
#
# 1 0.013705 -0.001187 -0.001931 0.000000 0.000000 0.000000
# 2 -0.001187 0.010937 -0.001106 0.000000 0.000000 0.000000
# 3 -0.001931 -0.001106 0.012929 0.000000 0.000000 0.000000
# 4 0.000000 0.000000 0.000000 0.047740 0.000000 0.000000
# 5 0.000000 0.000000 0.000000 0.000000 -0.241169 0.000000
# 6 0.000000 0.000000 0.000000 0.000000 0.000000 0.089090
#
#
# Mechanical properties :
#
#
# Convention : Reuss Voigt Hill
#
# Bulk Modulus (GPa) = 34.33614 34.51221 34.42418
# Shear Modulus (GPa) = -102.84955 20.13583 -41.35686
#
# Velocity S-wave (km/s) = -6.88995 3.04859 -4.36906
# Velocity P-wave (km/s) = 6.88817 5.32178 3.09237
#
# Compressibility (1/GPa) = 0.02912383
#
# Stress axis : x y z
#
# Youngs Moduli (GPa) = 72.96839 91.43612 77.34604
#
# Poissons Ratio (x) = 0.10851 0.14935
# Poissons Ratio (y) = 0.08659 0.08551
# Poissons Ratio (z) = 0.14089 0.10109
#
# Static dielectric constant tensor:
#      x y z
#    x 1.788880 0.000000 0.000000 
#    y 0.000000 1.801490 0.000000 
#    z 0.000000 0.000000 1.817180 
# 
# From -- ./inp_files/14945.got.cif
#   From: 2010.05.17/outbox.cif.g08.bks.cpg/sg74_8_cif.got.tgz:14945.got - 2010.06.03 17:57:02.
