data_PCOD9538670
_publ_section_title
;
Structure prediction by ZEFSAII (Michael W. Deem and Ramdas Pophale) SiO2 
 PCOD9538670
Probable space group: I M M A
;
_chemical_formula_sum "Si O2"
_cell_formula_units_Z 48
_cell_length_a 16.703180
_cell_length_b 19.955093
_cell_length_c 7.297586
_cell_angle_alpha 90.000000
_cell_angle_beta 90.000000
_cell_angle_gamma 90.000000
_cell_volume 2432.384006
_symmetry_space_group_name_H-M "I M M A"
_symmetry_group_IT_number 74
_symmetry_cell_setting 'orthorhombic'
loop_
_space_group_symop_operation_xyz
x,y,z
-x,1/2-y,z
x,-y,-z
-x,1/2+y,-z
-x,-y,-z
x,1/2+y,-z
-x,y,z
x,1/2-y,z
1/2+x,1/2+y,1/2+z
1/2-x,-y,1/2+z
1/2+x,1/2-y,1/2-z
1/2-x,y,1/2-z
1/2-x,1/2-y,1/2-z
1/2+x,y,1/2-z
1/2-x,1/2+y,1/2+z
1/2+x,-y,1/2+z
loop_
_atom_site_type_symbol
_atom_site_label
_atom_site_fract_x
_atom_site_fract_y
_atom_site_fract_z
Si Si1 0.802413 0.000000 0.500000
Si Si2 0.250000 0.112997 0.750000
Si Si3 0.910046 0.948073 0.830488
Si Si4 0.591773 0.671129 0.402541
O O1 0.755018 0.063546 0.576390
O O2 0.647369 0.027431 0.171079
O O3 0.333627 0.152775 0.729936
O O4 0.000000 0.950046 0.755109
O O5 0.897331 0.874762 0.917361
O O6 0.907142 0.000000 0.000000
O O7 0.500000 0.655844 0.334522
O O8 0.594969 0.750000 0.441527
#
# Coordination Sequence:
#
# PCOD9538670 Si02
#       4
#     8   8  16  16
#     4  12  23  38  61  98 130 166 212 274 308 376
#     4  12  23  38  62  96 131 168 216 258 321 374
#     4  10  20  39  66  94 124 166 214 264 318 372
#     4  10  22  42  64  90 129 169 209 262 318 378
#
# _framework density 19.733726999999998
#
# number of rings (size 3 to 8) (size 9 to 14) (size 15 to 20)
#    0.000    1.333    3.333    3.000    0.000    1.333 
#    0.000    5.000    0.000    4.000    0.000    0.000 
#    0.000    0.000    0.000    0.000    0.000    0.000 
#
# Total GULP energy -133935.251568 kJ/mol
# GULP energy per Si atom -5580.635482 kJ/mol
# Density = 1.968881 g / cm^3
# Si number density = 19.733727 Si / 1000 Ang^3
#
#
#
# Elastic Constant Matrix: (Units=GPa)
#
#
# Indices 1 2 3 4 5 6 
#
# 1 162.8836 59.3853 37.6661 0.0000 0.0000 0.0000
# 2 59.3853 126.1696 28.3056 0.0000 0.0000 0.0000
# 3 37.6661 28.3056 55.0727 0.0000 0.0000 0.0000
# 4 0.0000 0.0000 0.0000 26.4571 0.0000 0.0000
# 5 0.0000 0.0000 0.0000 0.0000 33.8645 0.0000
# 6 0.0000 0.0000 0.0000 0.0000 0.0000 31.1230
#
#
#
# Elastic Compliance Matrix: (Units=1/GPa)
#
#
# Indices 1 2 3 4 5 6 
#
# 1 0.008145 -0.002921 -0.004070 0.000000 0.000000 0.000000
# 2 -0.002921 0.010006 -0.003145 0.000000 0.000000 0.000000
# 3 -0.004070 -0.003145 0.022558 0.000000 0.000000 0.000000
# 4 0.000000 0.000000 0.000000 0.037797 0.000000 0.000000
# 5 0.000000 0.000000 0.000000 0.000000 0.029529 0.000000
# 6 0.000000 0.000000 0.000000 0.000000 0.000000 0.032131
#
#
# Mechanical properties :
#
#
# Convention : Reuss Voigt Hill
#
# Bulk Modulus (GPa) = 48.92879 66.09331 57.51105
# Shear Modulus (GPa) = 29.89528 32.87350 31.38439
#
# Velocity S-wave (km/s) = 3.89644 4.08591 3.99230
# Velocity P-wave (km/s) = 6.71500 7.47160 7.10339
#
# Compressibility (1/GPa) = 0.02043786
#
# Stress axis : x y z
#
# Youngs Moduli (GPa) = 122.76956 99.93776 44.33071
#
# Poissons Ratio (x) = 0.29190 0.18041
# Poissons Ratio (y) = 0.35859 0.13943
# Poissons Ratio (z) = 0.49963 0.31433
#
# Static dielectric constant tensor:
#      x y z
#    x 1.789890 0.000000 0.000000 
#    y 0.000000 1.680660 0.000000 
#    z 0.000000 0.000000 1.651340 
# 
# From -- ./inp_files/10094.got.cif
#   From: 2010.05.17/outbox.cif.g08.bks.cpg/sg74_6_cif.got.tgz:10094.got - 2010.06.03 17:57:02.
