data_PCOD9538851
_publ_section_title
;
Structure prediction by ZEFSAII (Michael W. Deem and Ramdas Pophale) SiO2 
 PCOD9538851
Probable space group: I M M A
;
_chemical_formula_sum "Si O2"
_cell_formula_units_Z 68
_cell_length_a 20.180736
_cell_length_b 7.803764
_cell_length_c 18.870749
_cell_angle_alpha 90.000000
_cell_angle_beta 90.000000
_cell_angle_gamma 90.000000
_cell_volume 2971.873136
_symmetry_space_group_name_H-M "I M M A"
_symmetry_group_IT_number 74
_symmetry_cell_setting 'orthorhombic'
loop_
_space_group_symop_operation_xyz
x,y,z
-x,1/2-y,z
x,-y,-z
-x,1/2+y,-z
-x,-y,-z
x,1/2+y,-z
-x,y,z
x,1/2-y,z
1/2+x,1/2+y,1/2+z
1/2-x,-y,1/2+z
1/2+x,1/2-y,1/2-z
1/2-x,y,1/2-z
1/2-x,1/2-y,1/2-z
1/2+x,y,1/2-z
1/2-x,1/2+y,1/2+z
1/2+x,-y,1/2+z
loop_
_atom_site_type_symbol
_atom_site_label
_atom_site_fract_x
_atom_site_fract_y
_atom_site_fract_z
Si Si1 0.827793 0.442976 0.418865
Si Si2 0.000000 0.250000 0.262061
Si Si3 0.426359 0.455322 0.417239
Si Si4 0.703067 0.054890 0.664022
Si Si5 0.391683 0.052969 0.783656
O O1 0.822927 0.500000 0.500000
O O2 0.852855 0.250000 0.417696
O O3 0.755838 0.450895 0.381533
O O4 0.876118 0.547211 0.367298
O O5 0.942545 0.403243 0.264456
O O6 0.422573 0.500000 0.500000
O O7 0.500000 0.506525 0.392330
O O8 0.421485 0.250000 0.407800
O O9 0.366623 0.543516 0.377641
O O10 0.727683 0.250000 0.664112
O O11 0.677589 0.010262 0.742712
O O12 0.409721 0.250000 0.764484
#
# Coordination Sequence:
#
# PCOD9538851 Si02
#       5
#    16   4  16  16  16
#     4  12  25  45  74 103 142 186 237 300 361 428
#     4  12  26  48  76 106 144 196 234 298 360 432
#     4  10  21  35  54  82 125 174 227 281 340 417
#     4  11  24  40  65 100 138 182 229 286 353 420
#     4  11  26  47  74 107 146 184 241 297 358 426
#
# _framework density 22.881193
#
# number of rings (size 3 to 8) (size 9 to 14) (size 15 to 20)
#    0.000    0.941    1.176    5.294    4.941    4.235 
#    0.000    0.588    0.000    0.000    0.000    0.000 
#    0.000    0.000    0.000    0.000    0.000    0.000 
#
# Total GULP energy -189682.742087 kJ/mol
# GULP energy per Si atom -5578.904179 kJ/mol
# Density = 2.282911 g / cm^3
# Si number density = 22.881193 Si / 1000 Ang^3
#
#
#
# Elastic Constant Matrix: (Units=GPa)
#
#
# Indices 1 2 3 4 5 6 
#
# 1 56.8803 36.3201 7.4196 0.0000 0.0000 0.0000
# 2 36.3201 135.8369 20.5249 0.0000 0.0000 0.0000
# 3 7.4196 20.5249 127.8673 0.0000 0.0000 0.0000
# 4 0.0000 0.0000 0.0000 26.2282 0.0000 0.0000
# 5 0.0000 0.0000 0.0000 0.0000 1.5073 0.0000
# 6 0.0000 0.0000 0.0000 0.0000 0.0000 36.8868
#
#
#
# Elastic Compliance Matrix: (Units=1/GPa)
#
#
# Indices 1 2 3 4 5 6 
#
# 1 0.021214 -0.005623 -0.000328 0.000000 0.000000 0.000000
# 2 -0.005623 0.009035 -0.001124 0.000000 0.000000 0.000000
# 3 -0.000328 -0.001124 0.008020 0.000000 0.000000 0.000000
# 4 0.000000 0.000000 0.000000 0.038127 0.000000 0.000000
# 5 0.000000 0.000000 0.000000 0.000000 0.663449 0.000000
# 6 0.000000 0.000000 0.000000 0.000000 0.000000 0.027110
#
#
# Mechanical properties :
#
#
# Convention : Reuss Voigt Hill
#
# Bulk Modulus (GPa) = 41.46129 49.90155 45.68142
# Shear Modulus (GPa) = 6.33598 30.01245 18.17422
#
# Velocity S-wave (km/s) = 1.66586 3.62562 2.82137
# Velocity P-wave (km/s) = 4.67544 6.27560 5.53366
#
# Compressibility (1/GPa) = 0.02411888
#
# Stress axis : x y z
#
# Youngs Moduli (GPa) = 47.13915 110.68119 124.68694
#
# Poissons Ratio (x) = 0.62231 0.04095
# Poissons Ratio (y) = 0.26504 0.14015
# Poissons Ratio (z) = 0.01548 0.12441
#
# Static dielectric constant tensor:
#      x y z
#    x 1.856300 0.000000 0.000000 
#    y 0.000000 1.806650 0.000000 
#    z 0.000000 0.000000 1.924900 
# 
# From -- ./inp_files/44851.got.cif
#   From: 2010.05.17/outbox.cif.g08.bks.cpg/sg74_23_cif.got.tgz:44851.got - 2010.06.03 17:57:02.
