data_PCOD9538600
_publ_section_title
;
Structure prediction by ZEFSAII (Michael W. Deem and Ramdas Pophale) SiO2 
 PCOD9538600
Probable space group: I M M A
;
_chemical_formula_sum "Si O2"
_cell_formula_units_Z 64
_cell_length_a 16.481526
_cell_length_b 24.445561
_cell_length_c 7.901715
_cell_angle_alpha 90.000000
_cell_angle_beta 90.000000
_cell_angle_gamma 90.000000
_cell_volume 3183.602152
_symmetry_space_group_name_H-M "I M M A"
_symmetry_group_IT_number 74
_symmetry_cell_setting 'orthorhombic'
loop_
_space_group_symop_operation_xyz
x,y,z
-x,1/2-y,z
x,-y,-z
-x,1/2+y,-z
-x,-y,-z
x,1/2+y,-z
-x,y,z
x,1/2-y,z
1/2+x,1/2+y,1/2+z
1/2-x,-y,1/2+z
1/2+x,1/2-y,1/2-z
1/2-x,y,1/2-z
1/2-x,1/2-y,1/2-z
1/2+x,y,1/2-z
1/2-x,1/2+y,1/2+z
1/2+x,-y,1/2+z
loop_
_atom_site_type_symbol
_atom_site_label
_atom_site_fract_x
_atom_site_fract_y
_atom_site_fract_z
Si Si1 0.901243 0.868523 0.345849
Si Si2 0.401374 0.250000 0.715948
Si Si3 0.155286 0.131938 0.284792
Si Si4 0.903336 0.060950 0.974067
Si Si5 0.902465 0.250000 0.179071
O O1 0.875127 0.806186 0.303922
O O2 0.868013 0.886249 0.526992
O O3 0.873167 0.907044 0.191904
O O4 0.000000 0.868869 0.352080
O O5 0.500000 0.250000 0.718537
O O6 0.377560 0.250000 0.518637
O O7 0.250000 0.126984 0.250000
O O8 0.129105 0.195042 0.264707
O O9 0.111155 0.097186 0.139878
O O10 0.000000 0.056056 0.949582
O O11 0.869481 0.000000 0.000000
O O12 0.000000 0.250000 0.186940
#
# Coordination Sequence:
#
# PCOD9538600 Si02
#       5
#    16   8  16  16   8
#     4  10  20  38  65  92 119 160 214 260 309 371
#     4   9  17  33  62  91 113 150 201 260 314 359
#     4  12  25  40  59  97 133 168 200 253 326 393
#     4  10  22  43  67  90 118 162 223 274 306 360
#     4  11  20  39  67  90 125 167 211 261 313 373
#
# _framework density 20.103014999999999
#
# number of rings (size 3 to 8) (size 9 to 14) (size 15 to 20)
#    0.000    1.500    2.500    3.375    0.000    3.000 
#    4.500    5.000    0.000    0.000    0.000    0.000 
#    0.000    0.000    0.000    0.000    0.000    0.000 
#
# Total GULP energy -178875.959880 kJ/mol
# GULP energy per Si atom -5589.873746 kJ/mol
# Density = 2.005726 g / cm^3
# Si number density = 20.103015 Si / 1000 Ang^3
#
#
#
# Elastic Constant Matrix: (Units=GPa)
#
#
# Indices 1 2 3 4 5 6 
#
# 1 10.9515 1.8436 8.2629 0.0000 0.0000 0.0000
# 2 1.8436 138.5442 75.3617 0.0000 0.0000 0.0000
# 3 8.2629 75.3617 196.3233 0.0000 -0.0001 0.0000
# 4 0.0000 0.0000 0.0000 -6.3112 0.0000 0.0000
# 5 0.0000 0.0000 -0.0001 0.0000 -18.0206 0.0000
# 6 0.0000 0.0000 0.0000 0.0000 0.0000 17.1418
#
#
#
# Elastic Compliance Matrix: (Units=1/GPa)
#
#
# Indices 1 2 3 4 5 6 
#
# 1 0.094450 0.001145 -0.004415 0.000000 0.000000 0.000000
# 2 0.001145 0.009137 -0.003555 0.000000 0.000000 0.000000
# 3 -0.004415 -0.003555 0.006644 0.000000 0.000000 0.000000
# 4 0.000000 0.000000 0.000000 -0.158448 0.000000 0.000000
# 5 0.000000 0.000000 0.000000 0.000000 -0.055492 0.000000
# 6 0.000000 0.000000 0.000000 0.000000 0.000000 0.058337
#
#
# Mechanical properties :
#
#
# Convention : Reuss Voigt Hill
#
# Bulk Modulus (GPa) = 10.35412 57.41727 33.88569
# Shear Modulus (GPa) = 10592.11645 15.91871 5304.01758
#
# Velocity S-wave (km/s) = 72.66607 2.81705 51.42127
# Velocity P-wave (km/s) = 83.93830 6.26135 59.51825
#
# Compressibility (1/GPa) = 0.09657990
#
# Stress axis : x y z
#
# Youngs Moduli (GPa) = 10.58761 109.44908 150.50625
#
# Poissons Ratio (x) = -0.12526 0.66442
# Poissons Ratio (y) = -0.01212 0.53511
# Poissons Ratio (z) = 0.04674 0.38914
#
# Static dielectric constant tensor:
#      x y z
#    x 1.698050 0.000000 0.000000 
#    y 0.000000 1.700690 0.000000 
#    z 0.000000 0.000000 1.691770 
# 
# From -- ./inp_files/8869.got.cif
#   From: 2010.05.17/outbox.cif.g08.bks.cpg/sg74_5_cif.got.tgz:8869.got - 2010.06.03 17:57:02.
