data_PCOD9538527
_publ_section_title
;
Structure prediction by ZEFSAII (Michael W. Deem and Ramdas Pophale) SiO2 
 PCOD9538527
Probable space group: I M M A
;
_chemical_formula_sum "Si O2"
_cell_formula_units_Z 72
_cell_length_a 17.560360
_cell_length_b 15.092229
_cell_length_c 14.649255
_cell_angle_alpha 90.000000
_cell_angle_beta 90.000000
_cell_angle_gamma 90.000000
_cell_volume 3882.418432
_symmetry_space_group_name_H-M "I M M A"
_symmetry_group_IT_number 74
_symmetry_cell_setting 'orthorhombic'
loop_
_space_group_symop_operation_xyz
x,y,z
-x,1/2-y,z
x,-y,-z
-x,1/2+y,-z
-x,-y,-z
x,1/2+y,-z
-x,y,z
x,1/2-y,z
1/2+x,1/2+y,1/2+z
1/2-x,-y,1/2+z
1/2+x,1/2-y,1/2-z
1/2-x,y,1/2-z
1/2-x,1/2-y,1/2-z
1/2+x,y,1/2-z
1/2-x,1/2+y,1/2+z
1/2+x,-y,1/2+z
loop_
_atom_site_type_symbol
_atom_site_label
_atom_site_fract_x
_atom_site_fract_y
_atom_site_fract_z
Si Si1 0.316190 0.000000 0.500000
Si Si2 0.089880 0.480451 0.180134
Si Si3 0.089987 0.644898 0.652892
Si Si4 0.309760 0.353885 0.975473
Si Si5 0.660025 0.148028 0.770125
O O1 0.366328 0.969760 0.585561
O O2 0.262045 0.081731 0.526527
O O3 0.114779 0.412220 0.259708
O O4 0.110033 0.578061 0.216467
O O5 0.000000 0.469383 0.166963
O O6 0.098828 0.750000 0.670669
O O7 0.138031 0.623250 0.562409
O O8 0.000000 0.627987 0.637163
O O9 0.287945 0.250000 0.982480
O O10 0.351869 0.363546 0.878592
O O11 0.644114 0.250000 0.745495
O O12 0.750000 0.132385 0.750000
#
# Coordination Sequence:
#
# PCOD9538527 Si02
#       5
#     8  16  16  16  16
#     4  12  23  38  57  80 118 154 196 240 279 332
#     4  11  24  39  58  83 115 156 196 235 284 339
#     4   9  20  39  60  86 119 150 187 239 295 347
#     4  10  21  36  61  90 113 147 190 235 291 347
#     4  10  20  38  60  83 115 150 185 232 287 340
#
# _framework density 18.545142999999999
#
# number of rings (size 3 to 8) (size 9 to 14) (size 15 to 20)
#    0.000    1.778    2.222    1.667    0.000    2.222 
#    0.000    7.222    0.000    4.000    0.000    0.000 
#    0.000    0.000    0.000    0.000    0.000    0.000 
#
# Total GULP energy -201064.432513 kJ/mol
# GULP energy per Si atom -5585.123125 kJ/mol
# Density = 1.850293 g / cm^3
# Si number density = 18.545143 Si / 1000 Ang^3
#
#
#
# Elastic Constant Matrix: (Units=GPa)
#
#
# Indices 1 2 3 4 5 6 
#
# 1 19.7651 5.8606 7.1928 0.0000 0.0000 0.0000
# 2 5.8606 22.8805 9.9738 0.0000 0.0000 0.0000
# 3 7.1928 9.9738 78.9728 0.0000 0.0000 0.0000
# 4 0.0000 0.0000 0.0000 18.5891 0.0000 0.0000
# 5 0.0000 0.0000 0.0000 0.0000 36.9764 0.0000
# 6 0.0000 0.0000 0.0000 0.0000 0.0000 20.4162
#
#
#
# Elastic Compliance Matrix: (Units=1/GPa)
#
#
# Indices 1 2 3 4 5 6 
#
# 1 0.055631 -0.012742 -0.003458 0.000000 0.000000 0.000000
# 2 -0.012742 0.049170 -0.005049 0.000000 0.000000 0.000000
# 3 -0.003458 -0.005049 0.013615 0.000000 0.000000 0.000000
# 4 0.000000 0.000000 0.000000 0.053795 0.000000 0.000000
# 5 0.000000 0.000000 0.000000 0.000000 0.027044 0.000000
# 6 0.000000 0.000000 0.000000 0.000000 0.000000 0.048981
#
#
# Mechanical properties :
#
#
# Convention : Reuss Voigt Hill
#
# Bulk Modulus (GPa) = 13.17210 18.63032 15.90121
# Shear Modulus (GPa) = 15.82080 21.76909 18.79495
#
# Velocity S-wave (km/s) = 2.92395 3.42986 3.18696
# Velocity P-wave (km/s) = 4.30319 5.07474 4.70481
#
# Compressibility (1/GPa) = 0.07591803
#
# Stress axis : x y z
#
# Youngs Moduli (GPa) = 17.97575 20.33755 73.44733
#
# Poissons Ratio (x) = 0.25914 0.25395
# Poissons Ratio (y) = 0.22905 0.37086
# Poissons Ratio (z) = 0.06215 0.10269
#
# Static dielectric constant tensor:
#      x y z
#    x 1.618570 0.000000 0.000000 
#    y 0.000000 1.632500 0.000000 
#    z 0.000000 0.000000 1.639330 
# 
# From -- ./inp_files/33814.got.cif
#   From: 2010.05.17/outbox.cif.g08.bks.cpg/sg74_17_cif.got.tgz:33814.got - 2010.06.03 17:57:02.
