data_PCOD9538547
_publ_section_title
;
Structure prediction by ZEFSAII (Michael W. Deem and Ramdas Pophale) SiO2 
 PCOD9538547
Probable space group: I M M A
;
_chemical_formula_sum "Si O2"
_cell_formula_units_Z 60
_cell_length_a 10.615192
_cell_length_b 16.853308
_cell_length_c 15.203011
_cell_angle_alpha 90.000000
_cell_angle_beta 90.000000
_cell_angle_gamma 90.000000
_cell_volume 2719.835395
_symmetry_space_group_name_H-M "I M M A"
_symmetry_group_IT_number 74
_symmetry_cell_setting 'orthorhombic'
loop_
_space_group_symop_operation_xyz
x,y,z
-x,1/2-y,z
x,-y,-z
-x,1/2+y,-z
-x,-y,-z
x,1/2+y,-z
-x,y,z
x,1/2-y,z
1/2+x,1/2+y,1/2+z
1/2-x,-y,1/2+z
1/2+x,1/2-y,1/2-z
1/2-x,y,1/2-z
1/2-x,1/2-y,1/2-z
1/2+x,y,1/2-z
1/2-x,1/2+y,1/2+z
1/2+x,-y,1/2+z
loop_
_atom_site_type_symbol
_atom_site_label
_atom_site_fract_x
_atom_site_fract_y
_atom_site_fract_z
Si Si1 0.198305 0.109893 0.154205
Si Si2 0.500000 0.750000 0.630228
Si Si3 0.500000 0.156864 0.604688
Si Si4 0.276502 0.845831 0.023764
Si Si5 0.000000 0.012353 0.785544
Si Si6 0.500000 0.447465 0.911312
O O1 0.250000 0.128282 0.250000
O O2 0.106410 0.181277 0.131710
O O3 0.119810 0.029479 0.168535
O O4 0.292559 0.113944 0.072562
O O5 0.500000 0.250000 0.622046
O O6 0.369149 0.140128 0.553270
O O7 0.500000 0.104101 0.690935
O O8 0.297145 0.750000 0.021685
O O9 0.376460 0.890715 0.085076
O O10 0.000000 0.003724 0.680377
O O11 0.500000 0.500000 0.000000
#
# Coordination Sequence:
#
# PCOD9538547 Si02
#       6
#    16   4   8  16   8   8
#     4  11  23  41  68 103 141 187 239 296 361 440
#     4  10  20  38  62 102 138 178 234 294 342 444
#     4  10  25  46  75 103 129 187 252 295 348 429
#     4  11  25  46  74 104 143 187 242 304 363 428
#     4  11  27  44  72  98 145 189 245 293 364 432
#     4  12  28  48  66 107 151 185 234 294 373 434
#
# _framework density 22.060158000000001
#
# number of rings (size 3 to 8) (size 9 to 14) (size 15 to 20)
#    0.000    1.067    1.333    4.000    9.333    3.200 
#    0.000    2.667    0.000    0.000    0.000    0.000 
#    0.000    0.000    0.000    0.000    0.000    0.000 
#
# Total GULP energy -167087.402067 kJ/mol
# GULP energy per Si atom -5569.580069 kJ/mol
# Density = 2.200995 g / cm^3
# Si number density = 22.060158 Si / 1000 Ang^3
#
#
#
# Elastic Constant Matrix: (Units=GPa)
#
#
# Indices 1 2 3 4 5 6 
#
# 1 83.1957 44.6819 0.8457 0.0000 0.0000 0.0000
# 2 44.6819 84.5184 50.2416 0.0000 0.0000 0.0000
# 3 0.8457 50.2416 63.6082 0.0000 0.0000 0.0000
# 4 0.0000 0.0000 0.0000 -13.1905 0.0000 0.0000
# 5 0.0000 0.0000 0.0000 0.0000 35.3142 0.0000
# 6 0.0000 0.0000 0.0000 0.0000 0.0000 42.3440
#
#
#
# Elastic Compliance Matrix: (Units=1/GPa)
#
#
# Indices 1 2 3 4 5 6 
#
# 1 0.025015 -0.024557 0.019064 0.000000 0.000000 0.000000
# 2 -0.024557 0.046412 -0.036332 0.000000 0.000000 0.000000
# 3 0.019064 -0.036332 0.044165 0.000000 0.000000 0.000000
# 4 0.000000 0.000000 0.000000 -0.075812 0.000000 0.000000
# 5 0.000000 0.000000 0.000000 0.000000 0.028317 0.000000
# 6 0.000000 0.000000 0.000000 0.000000 0.000000 0.023616
#
#
# Mechanical properties :
#
#
# Convention : Reuss Voigt Hill
#
# Bulk Modulus (GPa) = 31.30747 46.98450 39.14599
# Shear Modulus (GPa) = 26.88028 21.93044 24.40536
#
# Velocity S-wave (km/s) = 3.49449 3.15639 3.32973
# Velocity P-wave (km/s) = 5.52310 5.88458 5.70670
#
# Compressibility (1/GPa) = 0.03194126
#
# Stress axis : x y z
#
# Youngs Moduli (GPa) = 39.97627 21.54631 22.64229
#
# Poissons Ratio (x) = 0.52911 -0.43165
# Poissons Ratio (y) = 0.98170 0.82264
# Poissons Ratio (z) = -0.76211 0.78283
#
# Static dielectric constant tensor:
#      x y z
#    x 1.854740 0.000000 0.000000 
#    y 0.000000 1.771590 0.000000 
#    z 0.000000 0.000000 1.855510 
# 
# From -- ./inp_files/30165.got.cif
#   From: 2010.05.17/outbox.cif.g08.bks.cpg/sg74_16_cif.got.tgz:30165.got - 2010.06.03 17:57:02.
