data_PCOD9538345
_publ_section_title
;
Structure prediction by ZEFSAII (Michael W. Deem and Ramdas Pophale) SiO2 
 PCOD9538345
Probable space group: I M M A
;
_chemical_formula_sum "Si O2"
_cell_formula_units_Z 108
_cell_length_a 20.978410
_cell_length_b 15.220584
_cell_length_c 14.542437
_cell_angle_alpha 90.000000
_cell_angle_beta 90.000000
_cell_angle_gamma 90.000000
_cell_volume 4643.453237
_symmetry_space_group_name_H-M "I M M A"
_symmetry_group_IT_number 74
_symmetry_cell_setting 'orthorhombic'
loop_
_space_group_symop_operation_xyz
x,y,z
-x,1/2-y,z
x,-y,-z
-x,1/2+y,-z
-x,-y,-z
x,1/2+y,-z
-x,y,z
x,1/2-y,z
1/2+x,1/2+y,1/2+z
1/2-x,-y,1/2+z
1/2+x,1/2-y,1/2-z
1/2-x,y,1/2-z
1/2-x,1/2-y,1/2-z
1/2+x,y,1/2-z
1/2-x,1/2+y,1/2+z
1/2+x,-y,1/2+z
loop_
_atom_site_type_symbol
_atom_site_label
_atom_site_fract_x
_atom_site_fract_y
_atom_site_fract_z
Si Si1 0.075793 0.565872 0.144385
Si Si2 0.922782 0.654828 0.323051
Si Si3 0.820796 0.343950 0.964033
Si Si4 0.376222 0.124175 0.341601
Si Si5 0.821633 0.353023 0.355610
Si Si6 0.073888 0.104545 0.482749
Si Si7 0.000000 0.250000 0.183312
Si Si8 0.236202 0.000000 0.500000
O O1 0.094044 0.581034 0.251141
O O2 0.101139 0.470488 0.122824
O O3 0.000000 0.573100 0.134003
O O4 0.112024 0.638035 0.085183
O O5 0.905866 0.750000 0.285199
O O6 0.896170 0.644016 0.424596
O O7 0.000000 0.651342 0.331409
O O8 0.793362 0.250000 0.935009
O O9 0.836126 0.341212 0.072175
O O10 0.777129 0.428093 0.944370
O O11 0.329870 0.125319 0.252352
O O12 0.441932 0.175263 0.320959
O O13 0.799443 0.250000 0.366421
O O14 0.893688 0.356762 0.394071
O O15 0.794626 0.432331 0.422673
O O16 0.000000 0.126552 0.477779
O O17 0.078633 0.000000 0.500000
#
# Coordination Sequence:
#
# PCOD9538345 Si02
#       8
#    16  16  16  16  16  16   4   8
#     4  11  23  39  71 108 149 188 229 290 380 458
#     4   9  18  34  53  88 133 177 220 269 333 430
#     4  12  26  49  76 106 143 194 248 315 375 439
#     4  12  25  44  71 112 155 192 234 297 379 459
#     4  12  26  45  72 105 141 195 248 312 374 439
#     4  10  20  36  61  94 136 182 230 290 369 445
#     4  12  24  44  74 120 166 186 234 300 386 494
#     4  12  28  52  70  98 140 190 264 314 354 424
#
# _framework density 23.258552999999999
#
# number of rings (size 3 to 8) (size 9 to 14) (size 15 to 20)
#    0.000    0.889    4.444    2.222    2.074    4.148 
#    0.000    1.481    0.000    0.889    0.000    0.000 
#    0.000    0.000    0.000    0.000    0.000    0.000 
#
# Total GULP energy -300790.745227 kJ/mol
# GULP energy per Si atom -5570.198986 kJ/mol
# Density = 2.320562 g / cm^3
# Si number density = 23.258553 Si / 1000 Ang^3
#
#
#
# Elastic Constant Matrix: (Units=GPa)
#
#
# Indices 1 2 3 4 5 6 
#
# 1 54.5747 38.0304 10.5377 0.0000 0.0000 0.0000
# 2 38.0304 131.1997 18.4167 0.0000 0.0000 0.0000
# 3 10.5377 18.4167 94.6162 0.0000 0.0000 0.0000
# 4 0.0000 0.0000 0.0000 42.5891 0.0000 0.0000
# 5 0.0000 0.0000 0.0000 0.0000 15.4100 0.0000
# 6 0.0000 0.0000 0.0000 0.0000 0.0000 -598.6644
#
#
#
# Elastic Compliance Matrix: (Units=1/GPa)
#
#
# Indices 1 2 3 4 5 6 
#
# 1 0.023118 -0.006518 -0.001306 0.000000 0.000000 0.000000
# 2 -0.006518 0.009674 -0.001157 0.000000 0.000000 0.000000
# 3 -0.001306 -0.001157 0.010940 0.000000 0.000000 0.000000
# 4 0.000000 0.000000 0.000000 0.023480 0.000000 0.000000
# 5 0.000000 0.000000 0.000000 0.000000 0.064893 0.000000
# 6 0.000000 0.000000 0.000000 0.000000 0.000000 -0.001670
#
#
# Mechanical properties :
#
#
# Convention : Reuss Voigt Hill
#
# Bulk Modulus (GPa) = 38.80578 46.04003 42.42291
# Shear Modulus (GPa) = 31.85020 -93.90601 -31.02790
#
# Velocity S-wave (km/s) = 3.70455 -6.36101 -3.65642
# Velocity P-wave (km/s) = 5.91769 5.84056 0.67338
#
# Compressibility (1/GPa) = 0.02576936
#
# Stress axis : x y z
#
# Youngs Moduli (GPa) = 43.25727 103.37378 91.41034
#
# Poissons Ratio (x) = 0.67375 0.11938
# Poissons Ratio (y) = 0.28194 0.10577
# Poissons Ratio (z) = 0.05650 0.11961
#
# Static dielectric constant tensor:
#      x y z
#    x 1.924550 0.000000 0.000000 
#    y 0.000000 1.146140 0.000000 
#    z 0.000000 0.000000 1.886250 
# 
# From -- ./inp_files/36587.got.cif
#   From: 2010.05.17/outbox.cif.g08.bks.cpg/sg74_19_cif.got.tgz:36587.got - 2010.06.03 17:57:02.
