data_PCOD9538101
_publ_section_title
;
Structure prediction by ZEFSAII (Michael W. Deem and Ramdas Pophale) SiO2 
 PCOD9538101
Probable space group: I M M A
;
_chemical_formula_sum "Si O2"
_cell_formula_units_Z 88
_cell_length_a 24.418384
_cell_length_b 11.141845
_cell_length_c 16.174128
_cell_angle_alpha 90.000000
_cell_angle_beta 90.000000
_cell_angle_gamma 90.000000
_cell_volume 4400.427877
_symmetry_space_group_name_H-M "I M M A"
_symmetry_group_IT_number 74
_symmetry_cell_setting 'orthorhombic'
loop_
_space_group_symop_operation_xyz
x,y,z
-x,1/2-y,z
x,-y,-z
-x,1/2+y,-z
-x,-y,-z
x,1/2+y,-z
-x,y,z
x,1/2-y,z
1/2+x,1/2+y,1/2+z
1/2-x,-y,1/2+z
1/2+x,1/2-y,1/2-z
1/2-x,y,1/2-z
1/2-x,1/2-y,1/2-z
1/2+x,y,1/2-z
1/2-x,1/2+y,1/2+z
1/2+x,-y,1/2+z
loop_
_atom_site_type_symbol
_atom_site_label
_atom_site_fract_x
_atom_site_fract_y
_atom_site_fract_z
Si Si1 0.095853 0.883001 0.690028
Si Si2 0.500000 0.114137 0.058562
Si Si3 0.858818 0.382631 0.891009
Si Si4 0.436644 0.110277 0.379038
Si Si5 0.693740 0.552553 0.216831
Si Si6 0.761894 0.121543 0.544374
O O1 0.118730 0.750000 0.688723
O O2 0.052400 0.895438 0.617771
O O3 0.066624 0.897069 0.778951
O O4 0.146528 0.969146 0.683243
O O5 0.500000 0.250000 0.021302
O O6 0.500000 0.000000 0.000000
O O7 0.885122 0.250000 0.902094
O O8 0.897498 0.498901 0.905099
O O9 0.834631 0.387729 0.796974
O O10 0.804032 0.386506 0.946236
O O11 0.500000 0.094095 0.405054
O O12 0.420318 0.250000 0.400188
O O13 0.750000 0.492514 0.250000
O O14 0.714204 0.624614 0.137299
O O15 0.775431 0.250000 0.503545
O O16 0.780841 0.000000 0.500000
#
# Coordination Sequence:
#
# PCOD9538101 Si02
#       6
#    16   8  16  16  16  16
#     4   9  17  31  51  72 101 138 171 214 268 316
#     4  10  20  36  52  68 100 146 189 224 265 314
#     4   9  18  33  53  77 104 135 171 214 262 310
#     4   9  16  29  51  77 102 129 162 205 260 313
#     4   9  18  33  54  79 105 136 177 223 272 324
#     4  10  21  36  53  74 104 140 174 212 262 316
#
# _framework density 19.998055000000001
#
# number of rings (size 3 to 8) (size 9 to 14) (size 15 to 20)
#    0.000    2.727    0.909    0.545    0.000    5.091 
#    0.000   10.000    0.000    0.545    0.000    0.000 
#    0.000    0.000    0.000    0.000    0.000    0.000 
#
# Total GULP energy -244985.683764 kJ/mol
# GULP energy per Si atom -5567.856449 kJ/mol
# Density = 1.995254 g / cm^3
# Si number density = 19.998055 Si / 1000 Ang^3
#
#
#
# Elastic Constant Matrix: (Units=GPa)
#
#
# Indices 1 2 3 4 5 6 
#
# 1 87.0496 61.9121 -2.7469 0.0000 0.0000 0.0000
# 2 61.9121 157.4649 36.0130 0.0000 0.0000 0.0000
# 3 -2.7469 36.0130 52.9592 0.0000 0.0000 0.0000
# 4 0.0000 0.0000 0.0000 7.9572 0.0000 0.0000
# 5 0.0000 0.0000 0.0000 0.0000 9.8870 0.0000
# 6 0.0000 0.0000 0.0000 0.0000 0.0000 3.6147
#
#
#
# Elastic Compliance Matrix: (Units=1/GPa)
#
#
# Indices 1 2 3 4 5 6 
#
# 1 0.017757 -0.008517 0.006713 0.000000 0.000000 0.000000
# 2 -0.008517 0.011605 -0.008333 0.000000 0.000000 0.000000
# 3 0.006713 -0.008333 0.024897 0.000000 0.000000 0.000000
# 4 0.000000 0.000000 0.000000 0.125673 0.000000 0.000000
# 5 0.000000 0.000000 0.000000 0.000000 0.101143 0.000000
# 6 0.000000 0.000000 0.000000 0.000000 0.000000 0.276648
#
#
# Mechanical properties :
#
#
# Convention : Reuss Voigt Hill
#
# Bulk Modulus (GPa) = 29.42542 54.20334 41.81438
# Shear Modulus (GPa) = 8.48424 17.77813 13.13119
#
# Velocity S-wave (km/s) = 2.06198 2.98483 2.56525
# Velocity P-wave (km/s) = 4.51830 6.24837 5.45239
#
# Compressibility (1/GPa) = 0.03398422
#
# Stress axis : x y z
#
# Youngs Moduli (GPa) = 56.31586 86.16822 40.16470
#
# Poissons Ratio (x) = 0.73389 -0.26961
# Poissons Ratio (y) = 0.47964 0.33471
# Poissons Ratio (z) = -0.37803 0.71808
#
# Static dielectric constant tensor:
#      x y z
#    x 1.677530 0.000000 0.000000 
#    y 0.000000 1.737300 0.000000 
#    z 0.000000 0.000000 1.734090 
# 
# From -- ./inp_files/45129.got.cif
#   From: 2010.05.17/outbox.cif.g08.bks.cpg/sg74_23_cif.got.tgz:45129.got - 2010.06.03 17:57:02.
