data_PCOD9538543
_publ_section_title
;
Structure prediction by ZEFSAII (Michael W. Deem and Ramdas Pophale) SiO2 
 PCOD9538543
Probable space group: I M M A
;
_chemical_formula_sum "Si O2"
_cell_formula_units_Z 104
_cell_length_a 8.727098
_cell_length_b 21.526332
_cell_length_c 28.644255
_cell_angle_alpha 90.000000
_cell_angle_beta 90.000000
_cell_angle_gamma 90.000000
_cell_volume 5381.178747
_symmetry_space_group_name_H-M "I M M A"
_symmetry_group_IT_number 74
_symmetry_cell_setting 'orthorhombic'
loop_
_space_group_symop_operation_xyz
x,y,z
-x,1/2-y,z
x,-y,-z
-x,1/2+y,-z
-x,-y,-z
x,1/2+y,-z
-x,y,z
x,1/2-y,z
1/2+x,1/2+y,1/2+z
1/2-x,-y,1/2+z
1/2+x,1/2-y,1/2-z
1/2-x,y,1/2-z
1/2-x,1/2-y,1/2-z
1/2+x,y,1/2-z
1/2-x,1/2+y,1/2+z
1/2+x,-y,1/2+z
loop_
_atom_site_type_symbol
_atom_site_label
_atom_site_fract_x
_atom_site_fract_y
_atom_site_fract_z
Si Si1 0.329518 0.360099 0.060567
Si Si2 0.684737 0.111819 0.620795
Si Si3 0.812559 0.250000 0.902905
Si Si4 0.815292 0.880065 0.844241
Si Si5 0.677662 0.250000 0.490003
Si Si6 0.315131 0.512575 0.300754
Si Si7 0.672884 0.054236 0.971442
Si Si8 0.685177 0.750000 0.802826
O O1 0.500000 0.339176 0.075070
O O2 0.249864 0.392743 0.104030
O O3 0.223384 0.305927 0.042783
O O4 0.345500 0.397781 0.013101
O O5 0.500000 0.112143 0.621129
O O6 0.735048 0.184529 0.620778
O O7 0.735838 0.065265 0.662036
O O8 0.741573 0.082356 0.572299
O O9 0.000000 0.250000 0.902626
O O10 0.754811 0.250000 0.957182
O O11 0.745858 0.814120 0.826711
O O12 0.000000 0.874821 0.844453
O O13 0.771818 0.941673 0.814853
O O14 0.500000 0.250000 0.498633
O O15 0.500000 0.513987 0.299901
O O16 0.250000 0.526617 0.250000
O O17 0.500000 0.033566 0.956575
O O18 0.756416 0.000000 0.000000
O O19 0.500000 0.750000 0.802871
O O20 0.750000 0.750000 0.750000
#
# Coordination Sequence:
#
# PCOD9538543 Si02
#       8
#    16  16   8  16   8  16  16   8
#     4  11  22  35  53  81 117 153 189 235 284 339
#     4  10  20  38  61  88 116 152 202 249 297 357
#     4   9  18  34  59  86 116 153 195 245 297 344
#     4  11  23  40  60  87 119 158 203 248 296 354
#     4  11  20  34  55  80 112 159 200 233 282 341
#     4  10  23  41  64  89 117 152 196 249 306 363
#     4  10  21  35  52  79 115 153 189 231 287 347
#     4  12  25  42  63  88 117 154 198 251 305 356
#
# _framework density 19.326622
#
# number of rings (size 3 to 8) (size 9 to 14) (size 15 to 20)
#    0.000    1.538    1.538    3.692    0.000    4.000 
#    0.000    0.769    0.000    0.000    0.000    0.000 
#    0.000    0.000    0.000    0.000    0.000    0.000 
#
# Total GULP energy -289827.339261 kJ/mol
# GULP energy per Si atom -5573.602678 kJ/mol
# Density = 1.928263 g / cm^3
# Si number density = 19.326622 Si / 1000 Ang^3
#
#
#
# Elastic Constant Matrix: (Units=GPa)
#
#
# Indices 1 2 3 4 5 6 
#
# 1 44.8105 24.5080 25.6361 0.0000 0.0000 0.0000
# 2 24.5080 123.5834 63.7746 0.0000 0.0000 0.0000
# 3 25.6361 63.7746 136.7259 0.0000 0.0000 0.0000
# 4 0.0000 0.0000 0.0000 36.3723 0.0000 0.0000
# 5 0.0000 0.0000 0.0000 0.0000 36.6053 0.0000
# 6 0.0000 0.0000 0.0000 0.0000 0.0000 23.7543
#
#
#
# Elastic Compliance Matrix: (Units=1/GPa)
#
#
# Indices 1 2 3 4 5 6 
#
# 1 0.026093 -0.003490 -0.003265 0.000000 0.000000 0.000000
# 2 -0.003490 0.011124 -0.004534 0.000000 0.000000 0.000000
# 3 -0.003265 -0.004534 0.010041 0.000000 0.000000 0.000000
# 4 0.000000 0.000000 0.000000 0.027493 0.000000 0.000000
# 5 0.000000 0.000000 0.000000 0.000000 0.027318 0.000000
# 6 0.000000 0.000000 0.000000 0.000000 0.000000 0.042098
#
#
# Mechanical properties :
#
#
# Convention : Reuss Voigt Hill
#
# Bulk Modulus (GPa) = 40.51863 59.21747 49.86805
# Shear Modulus (GPa) = 28.57629 32.09312 30.33471
#
# Velocity S-wave (km/s) = 3.84942 4.07942 3.96609
# Velocity P-wave (km/s) = 6.38499 7.27295 6.84339
#
# Compressibility (1/GPa) = 0.02468001
#
# Stress axis : x y z
#
# Youngs Moduli (GPa) = 38.32517 89.89892 99.59228
#
# Poissons Ratio (x) = 0.31373 0.32513
# Poissons Ratio (y) = 0.13375 0.45157
# Poissons Ratio (z) = 0.12511 0.40762
#
# Static dielectric constant tensor:
#      x y z
#    x 2.140390 0.000000 0.000000 
#    y 0.000000 1.661570 0.000000 
#    z 0.000000 0.000000 1.598910 
# 
# From -- ./inp_files/64543.got.cif
#   From: 2010.05.17/outbox.cif.g08.bks.cpg/sg74_33_cif.got.tgz:64543.got - 2010.06.03 17:57:02.
