data_PCOD9538455
_publ_section_title
;
Structure prediction by ZEFSAII (Michael W. Deem and Ramdas Pophale) SiO2 
 PCOD9538455
Probable space group: I M M A
;
_chemical_formula_sum "Si O2"
_cell_formula_units_Z 68
_cell_length_a 23.451285
_cell_length_b 8.035957
_cell_length_c 17.139980
_cell_angle_alpha 90.000000
_cell_angle_beta 90.000000
_cell_angle_gamma 90.000000
_cell_volume 3230.089527
_symmetry_space_group_name_H-M "I M M A"
_symmetry_group_IT_number 74
_symmetry_cell_setting 'orthorhombic'
loop_
_space_group_symop_operation_xyz
x,y,z
-x,1/2-y,z
x,-y,-z
-x,1/2+y,-z
-x,-y,-z
x,1/2+y,-z
-x,y,z
x,1/2-y,z
1/2+x,1/2+y,1/2+z
1/2-x,-y,1/2+z
1/2+x,1/2-y,1/2-z
1/2-x,y,1/2-z
1/2-x,1/2-y,1/2-z
1/2+x,y,1/2-z
1/2-x,1/2+y,1/2+z
1/2+x,-y,1/2+z
loop_
_atom_site_type_symbol
_atom_site_label
_atom_site_fract_x
_atom_site_fract_y
_atom_site_fract_z
Si Si1 0.583864 0.554848 0.362968
Si Si2 0.562112 0.953196 0.186555
Si Si3 0.500000 0.500000 0.500000
Si Si4 0.171356 0.449484 0.590448
Si Si5 0.295250 0.445544 0.409532
O O1 0.567942 0.750000 0.371382
O O2 0.566794 0.497176 0.276978
O O3 0.549864 0.469471 0.433030
O O4 0.651656 0.536535 0.370481
O O5 0.500000 0.004453 0.155505
O O6 0.563752 0.750000 0.185797
O O7 0.616616 0.011407 0.138077
O O8 0.165942 0.500000 0.500000
O O9 0.173331 0.250000 0.594328
O O10 0.232099 0.514686 0.621338
O O11 0.294775 0.500000 0.500000
O O12 0.305696 0.250000 0.404791
#
# Coordination Sequence:
#
# PCOD9538455 Si02
#       5
#    16  16   4  16  16
#     4  11  22  38  61  88 121 155 196 238 283 342
#     4   9  19  37  60  87 116 153 195 238 284 347
#     4  12  22  32  64  94 120 152 194 236 284 332
#     4  10  20  37  62  87 115 150 195 241 292 345
#     4  11  22  37  58  84 117 154 197 241 289 343
#
# _framework density 21.052047000000002
#
# number of rings (size 3 to 8) (size 9 to 14) (size 15 to 20)
#    0.000    1.647    2.353    4.588    0.000    2.353 
#    0.000    7.059    0.000    4.941    0.000    0.000 
#    0.000    0.000    0.000    0.000    0.000    0.000 
#
# Total GULP energy -189432.790867 kJ/mol
# GULP energy per Si atom -5571.552673 kJ/mol
# Density = 2.100413 g / cm^3
# Si number density = 21.052047 Si / 1000 Ang^3
#
#
#
# Elastic Constant Matrix: (Units=GPa)
#
#
# Indices 1 2 3 4 5 6 
#
# 1 211.4908 -2.0165 59.0235 0.0000 0.0000 0.0000
# 2 -2.0165 42.3948 -3.3184 0.0000 0.0000 0.0000
# 3 59.0235 -3.3184 59.5102 0.0000 0.0000 0.0000
# 4 0.0000 0.0000 0.0000 13.2305 0.0000 0.0000
# 5 0.0000 0.0000 0.0000 0.0000 46.1563 0.0000
# 6 0.0000 0.0000 0.0000 0.0000 0.0000 -62.8026
#
#
#
# Elastic Compliance Matrix: (Units=1/GPa)
#
#
# Indices 1 2 3 4 5 6 
#
# 1 0.006540 -0.000198 -0.006497 0.000000 0.000000 0.000000
# 2 -0.000198 0.023697 0.001517 0.000000 0.000000 0.000000
# 3 -0.006497 0.001517 0.023333 0.000000 0.000000 0.000000
# 4 0.000000 0.000000 0.000000 0.075583 0.000000 0.000000
# 5 0.000000 0.000000 0.000000 0.000000 0.021666 0.000000
# 6 0.000000 0.000000 0.000000 0.000000 0.000000 -0.015923
#
#
# Mechanical properties :
#
#
# Convention : Reuss Voigt Hill
#
# Bulk Modulus (GPa) = 23.14037 46.75254 34.94646
# Shear Modulus (GPa) = 31.31755 16.63066 23.97410
#
# Velocity S-wave (km/s) = 3.86116 2.81370 3.37827
# Velocity P-wave (km/s) = 5.55823 5.72819 5.64385
#
# Compressibility (1/GPa) = 0.04321452
#
# Stress axis : x y z
#
# Youngs Moduli (GPa) = 152.91159 42.19914 42.85855
#
# Poissons Ratio (x) = 0.00833 0.27846
# Poissons Ratio (y) = 0.03020 -0.06503
# Poissons Ratio (z) = 0.99351 -0.06403
#
# Static dielectric constant tensor:
#      x y z
#    x 1.785440 0.000000 0.000000 
#    y 0.000000 1.791700 0.000000 
#    z 0.000000 0.000000 1.719630 
# 
# From -- ./inp_files/44855.got.cif
#   From: 2010.05.17/outbox.cif.g08.bks.cpg/sg74_23_cif.got.tgz:44855.got - 2010.06.03 17:57:02.
