data_PCOD9538513
_publ_section_title
;
Structure prediction by ZEFSAII (Michael W. Deem and Ramdas Pophale) SiO2 
 PCOD9538513
Probable space group: I M M A
;
_chemical_formula_sum "Si O2"
_cell_formula_units_Z 80
_cell_length_a 19.010284
_cell_length_b 7.556411
_cell_length_c 30.576688
_cell_angle_alpha 90.000000
_cell_angle_beta 90.000000
_cell_angle_gamma 90.000000
_cell_volume 4392.326528
_symmetry_space_group_name_H-M "I M M A"
_symmetry_group_IT_number 74
_symmetry_cell_setting 'orthorhombic'
loop_
_space_group_symop_operation_xyz
x,y,z
-x,1/2-y,z
x,-y,-z
-x,1/2+y,-z
-x,-y,-z
x,1/2+y,-z
-x,y,z
x,1/2-y,z
1/2+x,1/2+y,1/2+z
1/2-x,-y,1/2+z
1/2+x,1/2-y,1/2-z
1/2-x,y,1/2-z
1/2-x,1/2-y,1/2-z
1/2+x,y,1/2-z
1/2-x,1/2+y,1/2+z
1/2+x,-y,1/2+z
loop_
_atom_site_type_symbol
_atom_site_label
_atom_site_fract_x
_atom_site_fract_y
_atom_site_fract_z
Si Si1 0.585700 0.547714 0.223789
Si Si2 0.656265 0.460770 0.549974
Si Si3 0.580895 0.033492 0.873594
Si Si4 0.819093 0.461330 0.549168
Si Si5 0.914205 0.750000 0.790654
Si Si6 0.084254 0.750000 0.891191
O O1 0.500000 0.549007 0.223267
O O2 0.609017 0.750000 0.229859
O O3 0.605582 0.482947 0.175148
O O4 0.608469 0.420387 0.262677
O O5 0.633949 0.500000 0.500000
O O6 0.651394 0.250000 0.557848
O O7 0.738139 0.520315 0.553027
O O8 0.612342 0.577899 0.583429
O O9 0.500000 0.977192 0.879876
O O10 0.580399 0.250000 0.873511
O O11 0.630696 0.970675 0.912570
O O12 0.844301 0.500000 0.500000
O O13 0.817294 0.250000 0.553499
O O14 0.891312 0.750000 0.840767
O O15 0.000000 0.750000 0.790927
O O16 0.000000 0.750000 0.891723
#
# Coordination Sequence:
#
# PCOD9538513 Si02
#       6
#    16  16  16  16   8   8
#     4   8  14  27  48  70  99 139 174 209 254 303
#     4  10  20  38  58  77 104 141 178 205 250 325
#     4   8  14  27  48  75 105 139 181 222 257 293
#     4   9  18  31  50  73 101 141 180 214 255 308
#     4   9  18  32  49  75 105 128 165 213 259 318
#     4  11  24  38  57  85 108 128 163 222 278 314
#
# _framework density 18.213581999999999
#
# number of rings (size 3 to 8) (size 9 to 14) (size 15 to 20)
#    0.000    3.000    1.000    1.200    1.400    2.000 
#    1.800    2.000    0.000    2.400    0.000    5.600 
#    0.000    0.000    0.000    0.000    0.000    0.000 
#
# Total GULP energy -222972.693968 kJ/mol
# GULP energy per Si atom -5574.317349 kJ/mol
# Density = 1.817213 g / cm^3
# Si number density = 18.213582 Si / 1000 Ang^3
#
#
#
# Elastic Constant Matrix: (Units=GPa)
#
#
# Indices 1 2 3 4 5 6 
#
# 1 37.5771 24.5132 62.6905 0.0000 0.0000 0.0000
# 2 24.5132 89.9480 67.0457 0.0000 0.0000 0.0000
# 3 62.6905 67.0457 200.6180 0.0000 0.0000 0.0000
# 4 0.0000 0.0000 0.0000 25.3442 0.0000 0.0000
# 5 0.0000 0.0000 0.0000 0.0000 -26.0884 0.0000
# 6 0.0000 0.0000 0.0000 0.0000 0.0000 7.9408
#
#
#
# Elastic Compliance Matrix: (Units=1/GPa)
#
#
# Indices 1 2 3 4 5 6 
#
# 1 0.056182 -0.002963 -0.016566 0.000000 0.000000 0.000000
# 2 -0.002963 0.014962 -0.004074 0.000000 0.000000 0.000000
# 3 -0.016566 -0.004074 0.011523 0.000000 0.000000 0.000000
# 4 0.000000 0.000000 0.000000 0.039457 0.000000 0.000000
# 5 0.000000 0.000000 0.000000 0.000000 -0.038331 0.000000
# 6 0.000000 0.000000 0.000000 0.000000 0.000000 0.125932
#
#
# Mechanical properties :
#
#
# Convention : Reuss Voigt Hill
#
# Bulk Modulus (GPa) = 28.20064 70.73799 49.46932
# Shear Modulus (GPa) = 18.60461 13.03224 15.81842
#
# Velocity S-wave (km/s) = 3.19951 2.67783 2.95022
# Velocity P-wave (km/s) = 5.40056 6.96300 6.23095
#
# Compressibility (1/GPa) = 0.03546019
#
# Stress axis : x y z
#
# Youngs Moduli (GPa) = 17.79929 66.83610 86.78433
#
# Poissons Ratio (x) = 0.19805 1.43766
# Poissons Ratio (y) = 0.05274 0.35358
# Poissons Ratio (z) = 0.29486 0.27231
#
# Static dielectric constant tensor:
#      x y z
#    x 1.611960 0.000000 0.000000 
#    y 0.000000 1.649300 0.000000 
#    z 0.000000 0.000000 1.621620 
# 
# From -- ./inp_files/67594.got.cif
#   From: 2010.05.17/outbox.cif.g08.bks.cpg/sg74_34_cif.got.tgz:67594.got - 2010.06.03 17:57:02.
