data_PCOD9538920
_publ_section_title
;
Structure prediction by ZEFSAII (Michael W. Deem and Ramdas Pophale) SiO2 
 PCOD9538920
Probable space group: I M M A
;
_chemical_formula_sum "Si O2"
_cell_formula_units_Z 88
_cell_length_a 9.270962
_cell_length_b 30.961130
_cell_length_c 18.061800
_cell_angle_alpha 90.000000
_cell_angle_beta 90.000000
_cell_angle_gamma 90.000000
_cell_volume 5184.449313
_symmetry_space_group_name_H-M "I M M A"
_symmetry_group_IT_number 74
_symmetry_cell_setting 'orthorhombic'
loop_
_space_group_symop_operation_xyz
x,y,z
-x,1/2-y,z
x,-y,-z
-x,1/2+y,-z
-x,-y,-z
x,1/2+y,-z
-x,y,z
x,1/2-y,z
1/2+x,1/2+y,1/2+z
1/2-x,-y,1/2+z
1/2+x,1/2-y,1/2-z
1/2-x,y,1/2-z
1/2-x,1/2-y,1/2-z
1/2+x,y,1/2-z
1/2-x,1/2+y,1/2+z
1/2+x,-y,1/2+z
loop_
_atom_site_type_symbol
_atom_site_label
_atom_site_fract_x
_atom_site_fract_y
_atom_site_fract_z
Si Si1 0.168081 0.750000 0.327687
Si Si2 0.668912 0.364124 0.442054
Si Si3 0.672883 0.199874 0.170352
Si Si4 0.176054 0.548893 0.016407
Si Si5 0.837890 0.826084 0.107692
Si Si6 0.668320 0.418785 0.675830
O O1 0.250000 0.750000 0.250000
O O2 0.219079 0.708486 0.372980
O O3 0.000000 0.750000 0.314635
O O4 0.500000 0.364814 0.418463
O O5 0.760813 0.335092 0.386063
O O6 0.719312 0.413504 0.458426
O O7 0.672703 0.342522 0.523556
O O8 0.500000 0.194631 0.177105
O O9 0.699955 0.250000 0.146133
O O10 0.750000 0.194813 0.250000
O O11 0.224341 0.560625 0.099465
O O12 0.000000 0.551071 0.016974
O O13 0.219075 0.500000 0.000000
O O14 0.823091 0.867504 0.160661
O O15 0.000000 0.808142 0.118205
O O16 0.500000 0.430055 0.683235
O O17 0.750000 0.430890 0.750000
#
# Coordination Sequence:
#
# PCOD9538920 Si02
#       6
#     8  16  16  16  16  16
#     4  12  24  34  46  66  95 130 167 204 246 288
#     4   9  18  33  55  79 102 134 172 211 257 306
#     4  10  21  36  54  77 106 139 177 220 267 319
#     4   8  15  31  54  77 102 134 171 209 253 311
#     4   9  19  34  49  69  97 130 167 203 242 292
#     4   9  17  30  50  73  96 126 165 203 244 294
#
# _framework density 16.973837
#
# number of rings (size 3 to 8) (size 9 to 14) (size 15 to 20)
#    0.000    2.727    0.000    4.091    1.273    4.000 
#    0.000    3.636    0.000    4.364    0.000    0.000 
#    0.000    0.000    0.000    0.000    0.000    0.000 
#
# Total GULP energy -245188.559177 kJ/mol
# GULP energy per Si atom -5572.467254 kJ/mol
# Density = 1.693520 g / cm^3
# Si number density = 16.973837 Si / 1000 Ang^3
#
#
#
# Elastic Constant Matrix: (Units=GPa)
#
#
# Indices 1 2 3 4 5 6 
#
# 1 75.6631 53.1009 38.8245 0.0000 0.0000 0.0000
# 2 53.1009 117.7704 58.6228 0.0000 0.0000 0.0000
# 3 38.8245 58.6228 80.2349 -0.0003 -0.0001 0.0000
# 4 0.0000 0.0000 -0.0003 6.7267 0.0000 0.0000
# 5 0.0000 0.0000 -0.0001 0.0000 31.5983 0.0000
# 6 0.0000 0.0000 0.0000 0.0000 0.0000 10.6488
#
#
#
# Elastic Compliance Matrix: (Units=1/GPa)
#
#
# Indices 1 2 3 4 5 6 
#
# 1 0.020529 -0.006776 -0.004983 0.000000 0.000000 0.000000
# 2 -0.006776 0.015581 -0.008105 0.000000 0.000000 0.000000
# 3 -0.004983 -0.008105 0.020797 0.000001 0.000000 0.000000
# 4 0.000000 0.000000 0.000001 0.148662 0.000000 0.000000
# 5 0.000000 0.000000 0.000000 0.000000 0.031647 0.000000
# 6 0.000000 0.000000 0.000000 0.000000 0.000000 0.093908
#
#
# Mechanical properties :
#
#
# Convention : Reuss Voigt Hill
#
# Bulk Modulus (GPa) = 58.21324 63.86273 61.03798
# Shear Modulus (GPa) = 13.27751 18.00277 15.64014
#
# Velocity S-wave (km/s) = 2.79988 3.26025 3.03879
# Velocity P-wave (km/s) = 6.69498 7.20265 6.95345
#
# Compressibility (1/GPa) = 0.01717822
#
# Stress axis : x y z
#
# Youngs Moduli (GPa) = 48.71267 64.18199 48.08493
#
# Poissons Ratio (x) = 0.43488 0.23960
# Poissons Ratio (y) = 0.33006 0.38974
# Poissons Ratio (z) = 0.24273 0.52021
#
# Static dielectric constant tensor:
#      x y z
#    x 1.563830 0.000000 0.000000 
#    y 0.000000 1.585760 0.000000 
#    z 0.000000 0.000000 1.557900 
# 
# From -- ./inp_files/40105.got.cif
#   From: 2010.05.17/outbox.cif.g08.bks.cpg/sg74_21_cif.got.tgz:40105.got - 2010.06.03 17:57:02.
