data_PCOD9538387
_publ_section_title
;
Structure prediction by ZEFSAII (Michael W. Deem and Ramdas Pophale) SiO2 
 PCOD9538387
Probable space group: I M M A
;
_chemical_formula_sum "Si O2"
_cell_formula_units_Z 80
_cell_length_a 25.215338
_cell_length_b 26.605085
_cell_length_c 5.279347
_cell_angle_alpha 90.000000
_cell_angle_beta 90.000000
_cell_angle_gamma 90.000000
_cell_volume 3541.682724
_symmetry_space_group_name_H-M "I M M A"
_symmetry_group_IT_number 74
_symmetry_cell_setting 'orthorhombic'
loop_
_space_group_symop_operation_xyz
x,y,z
-x,1/2-y,z
x,-y,-z
-x,1/2+y,-z
-x,-y,-z
x,1/2+y,-z
-x,y,z
x,1/2-y,z
1/2+x,1/2+y,1/2+z
1/2-x,-y,1/2+z
1/2+x,1/2-y,1/2-z
1/2-x,y,1/2-z
1/2-x,1/2-y,1/2-z
1/2+x,y,1/2-z
1/2-x,1/2+y,1/2+z
1/2+x,-y,1/2+z
loop_
_atom_site_type_symbol
_atom_site_label
_atom_site_fract_x
_atom_site_fract_y
_atom_site_fract_z
Si Si1 0.633933 0.968082 0.757154
Si Si2 0.798102 0.096268 0.568147
Si Si3 0.113722 0.122515 0.950923
Si Si4 0.942529 0.805801 0.373710
Si Si5 0.167133 0.807498 0.686524
O O1 0.602338 0.917712 0.670579
O O2 0.638026 0.000000 0.500000
O O3 0.689807 0.943680 0.847931
O O4 0.614005 0.000000 0.000000
O O5 0.750000 0.084253 0.750000
O O6 0.795353 0.152758 0.456610
O O7 0.851860 0.095773 0.734309
O O8 0.153322 0.166389 0.048505
O O9 0.064469 0.150705 0.831109
O O10 0.940585 0.750000 0.253662
O O11 0.890802 0.808412 0.550234
O O12 0.000000 0.810125 0.502842
O O13 0.185102 0.750000 0.697915
#
# Coordination Sequence:
#
# PCOD9538387 Si02
#       5
#    16  16  16  16  16
#     4  11  22  42  63  89 118 161 209 261 319 367
#     4  10  22  40  59  88 125 161 208 262 306 368
#     4  10  20  37  58  85 123 160 201 259 310 366
#     4   9  18  34  59  91 123 157 200 250 307 369
#     4   9  19  34  56  87 125 168 206 247 303 370
#
# _framework density 22.588132000000002
#
# number of rings (size 3 to 8) (size 9 to 14) (size 15 to 20)
#    0.000    2.200    2.000    0.600    0.000    5.200 
#    3.600    3.000    0.000    1.200    0.000    0.000 
#    0.000    0.000    0.000    0.000    0.000    0.000 
#
# Total GULP energy -223117.180016 kJ/mol
# GULP energy per Si atom -5577.929500 kJ/mol
# Density = 2.253672 g / cm^3
# Si number density = 22.588132 Si / 1000 Ang^3
#
#
#
# Elastic Constant Matrix: (Units=GPa)
#
#
# Indices 1 2 3 4 5 6 
#
# 1 66.7174 0.8307 14.5683 0.0000 0.0000 0.0000
# 2 0.8307 103.8781 37.2304 0.0000 0.0000 0.0000
# 3 14.5683 37.2304 97.0156 0.0000 0.0000 0.0000
# 4 0.0000 0.0000 0.0000 40.0701 0.0000 0.0000
# 5 0.0000 0.0000 0.0000 0.0000 17.3852 0.0000
# 6 0.0000 0.0000 0.0000 0.0000 0.0000 -12.3124
#
#
#
# Elastic Compliance Matrix: (Units=1/GPa)
#
#
# Indices 1 2 3 4 5 6 
#
# 1 0.015558 0.000827 -0.002653 0.000000 0.000000 0.000000
# 2 0.000827 0.011206 -0.004424 0.000000 0.000000 0.000000
# 3 -0.002653 -0.004424 0.012404 0.000000 0.000000 0.000000
# 4 0.000000 0.000000 0.000000 0.024956 0.000000 0.000000
# 5 0.000000 0.000000 0.000000 0.000000 0.057520 0.000000
# 6 0.000000 0.000000 0.000000 0.000000 0.000000 -0.081219
#
#
# Mechanical properties :
#
#
# Convention : Reuss Voigt Hill
#
# Bulk Modulus (GPa) = 37.50242 41.42999 39.46620
# Shear Modulus (GPa) = 80.88585 23.36071 52.12328
#
# Velocity S-wave (km/s) = 5.99055 3.21939 4.80891
# Velocity P-wave (km/s) = 8.03043 5.67456 6.95300
#
# Compressibility (1/GPa) = 0.02666495
#
# Stress axis : x y z
#
# Youngs Moduli (GPa) = 64.27690 89.23951 80.61928
#
# Poissons Ratio (x) = -0.07376 0.21392
# Poissons Ratio (y) = -0.05313 0.35669
# Poissons Ratio (z) = 0.17055 0.39483
#
# Static dielectric constant tensor:
#      x y z
#    x 1.818700 0.000000 0.000000 
#    y 0.000000 1.910850 0.000000 
#    z 0.000000 0.000000 1.928230 
# 
# From -- ./inp_files/4531.got.cif
#   From: 2010.05.17/outbox.cif.g08.bks.cpg/sg74_3_cif.got.tgz:4531.got - 2010.06.03 17:57:02.
