data_PCOD9538617
_publ_section_title
;
Structure prediction by ZEFSAII (Michael W. Deem and Ramdas Pophale) SiO2 
 PCOD9538617
Probable space group: I M M A
;
_chemical_formula_sum "Si O2"
_cell_formula_units_Z 64
_cell_length_a 14.764711
_cell_length_b 13.148055
_cell_length_c 15.944733
_cell_angle_alpha 90.000000
_cell_angle_beta 90.000000
_cell_angle_gamma 90.000000
_cell_volume 3095.306887
_symmetry_space_group_name_H-M "I M M A"
_symmetry_group_IT_number 74
_symmetry_cell_setting 'orthorhombic'
loop_
_space_group_symop_operation_xyz
x,y,z
-x,1/2-y,z
x,-y,-z
-x,1/2+y,-z
-x,-y,-z
x,1/2+y,-z
-x,y,z
x,1/2-y,z
1/2+x,1/2+y,1/2+z
1/2-x,-y,1/2+z
1/2+x,1/2-y,1/2-z
1/2-x,y,1/2-z
1/2-x,1/2-y,1/2-z
1/2+x,y,1/2-z
1/2-x,1/2+y,1/2+z
1/2+x,-y,1/2+z
loop_
_atom_site_type_symbol
_atom_site_label
_atom_site_fract_x
_atom_site_fract_y
_atom_site_fract_z
Si Si1 0.897417 0.432501 0.890594
Si Si2 0.396291 0.750000 0.522162
Si Si3 0.605904 0.363155 0.799741
Si Si4 0.266428 0.250000 0.150232
Si Si5 0.790474 0.530806 0.594884
O O1 0.890783 0.379007 0.800143
O O2 0.817613 0.513756 0.895440
O O3 0.000000 0.473675 0.898811
O O4 0.883062 0.347524 0.961655
O O5 0.500000 0.750000 0.550895
O O6 0.327064 0.750000 0.598083
O O7 0.500000 0.369919 0.823938
O O8 0.639761 0.250000 0.821110
O O9 0.662320 0.450218 0.844243
O O10 0.250000 0.250000 0.250000
O O11 0.314103 0.145498 0.121101
O O12 0.814582 0.500000 0.500000
#
# Coordination Sequence:
#
# PCOD9538617 Si02
#       5
#    16   8  16   8  16
#     4  10  20  39  67 105 135 158 207 276 344 400
#     4  10  20  38  68 102 133 165 206 270 340 401
#     4  10  22  41  69 100 128 163 218 285 342 391
#     4  12  26  46  59  93 142 182 223 265 321 415
#     4  12  26  41  67  93 134 184 227 269 328 392
#
# _framework density 20.676462999999998
#
# number of rings (size 3 to 8) (size 9 to 14) (size 15 to 20)
#    0.000    1.250    3.750    2.250    3.500    3.000 
#    0.000    1.875    0.000    0.000    0.000    0.000 
#    0.000    0.000    0.000    0.000    0.000    0.000 
#
# Total GULP energy -179029.973977 kJ/mol
# GULP energy per Si atom -5594.686687 kJ/mol
# Density = 2.062940 g / cm^3
# Si number density = 20.676463 Si / 1000 Ang^3
#
#
#
# Elastic Constant Matrix: (Units=GPa)
#
#
# Indices 1 2 3 4 5 6 
#
# 1 61.8008 47.4115 43.8571 0.0000 0.0000 0.0000
# 2 47.4115 176.9995 61.5653 0.0000 0.0000 0.0000
# 3 43.8571 61.5653 145.0552 0.0000 0.0000 0.0000
# 4 0.0000 0.0000 0.0000 30.0834 0.0000 0.0000
# 5 0.0000 0.0000 0.0000 0.0000 35.5018 0.0000
# 6 0.0000 0.0000 0.0000 0.0000 0.0000 10.6390
#
#
#
# Elastic Compliance Matrix: (Units=1/GPa)
#
#
# Indices 1 2 3 4 5 6 
#
# 1 0.023232 -0.004434 -0.005142 0.000000 0.000000 0.000000
# 2 -0.004434 0.007475 -0.001832 0.000000 0.000000 0.000000
# 3 -0.005142 -0.001832 0.009226 0.000000 0.000000 0.000000
# 4 0.000000 0.000000 0.000000 0.033241 0.000000 0.000000
# 5 0.000000 0.000000 0.000000 0.000000 0.028168 0.000000
# 6 0.000000 0.000000 0.000000 0.000000 0.000000 0.093994
#
#
# Mechanical properties :
#
#
# Convention : Reuss Voigt Hill
#
# Bulk Modulus (GPa) = 58.42367 76.61371 67.51869
# Shear Modulus (GPa) = 22.33564 30.64626 26.49095
#
# Velocity S-wave (km/s) = 3.29027 3.85409 3.58329
# Velocity P-wave (km/s) = 6.53850 7.54582 7.06015
#
# Compressibility (1/GPa) = 0.01711635
#
# Stress axis : x y z
#
# Youngs Moduli (GPa) = 43.04394 133.78512 108.38875
#
# Poissons Ratio (x) = 0.59326 0.55734
# Poissons Ratio (y) = 0.19088 0.19854
# Poissons Ratio (z) = 0.22134 0.24506
#
# Static dielectric constant tensor:
#      x y z
#    x 1.736610 0.000000 0.000000 
#    y 0.000000 1.765000 0.000000 
#    z 0.000000 0.000000 1.719180 
# 
# From -- ./inp_files/30253.got.cif
#   From: 2010.05.17/outbox.cif.g08.bks.cpg/sg74_16_cif.got.tgz:30253.got - 2010.06.03 17:57:02.
