data_PCOD9538567
_publ_section_title
;
Structure prediction by ZEFSAII (Michael W. Deem and Ramdas Pophale) SiO2 
 PCOD9538567
Probable space group: I M M A
;
_chemical_formula_sum "Si O2"
_cell_formula_units_Z 80
_cell_length_a 20.826304
_cell_length_b 13.394677
_cell_length_c 13.326997
_cell_angle_alpha 90.000000
_cell_angle_beta 90.000000
_cell_angle_gamma 90.000000
_cell_volume 3717.720609
_symmetry_space_group_name_H-M "I M M A"
_symmetry_group_IT_number 74
_symmetry_cell_setting 'orthorhombic'
loop_
_space_group_symop_operation_xyz
x,y,z
-x,1/2-y,z
x,-y,-z
-x,1/2+y,-z
-x,-y,-z
x,1/2+y,-z
-x,y,z
x,1/2-y,z
1/2+x,1/2+y,1/2+z
1/2-x,-y,1/2+z
1/2+x,1/2-y,1/2-z
1/2-x,y,1/2-z
1/2-x,1/2-y,1/2-z
1/2+x,y,1/2-z
1/2-x,1/2+y,1/2+z
1/2+x,-y,1/2+z
loop_
_atom_site_type_symbol
_atom_site_label
_atom_site_fract_x
_atom_site_fract_y
_atom_site_fract_z
Si Si1 0.888198 0.637981 0.056998
Si Si2 0.426768 0.438569 0.342490
Si Si3 0.864337 0.474213 0.359813
Si Si4 0.071700 0.862022 0.470094
Si Si5 0.743480 0.862488 0.130001
O O1 0.904709 0.750000 0.088761
O O2 0.924116 0.552915 0.119051
O O3 0.812418 0.622821 0.078455
O O4 0.904534 0.623030 0.940038
O O5 0.500000 0.411796 0.314558
O O6 0.377421 0.431905 0.250030
O O7 0.918234 0.558699 0.382193
O O8 0.878108 0.390705 0.443095
O O9 0.800876 0.539447 0.380682
O O10 0.078823 0.750000 0.433892
O O11 0.000000 0.872422 0.512351
O O12 0.720530 0.750000 0.098280
O O13 0.750000 0.855966 0.250000
#
# Coordination Sequence:
#
# PCOD9538567 Si02
#       5
#    16  16  16  16  16
#     4  10  22  40  59  85 125 165 205 252 306 371
#     4  11  23  37  59  92 125 163 211 258 319 386
#     4  11  21  39  63  89 123 161 207 263 321 374
#     4  10  22  39  60  90 124 159 204 257 314 378
#     4  10  20  38  63  89 117 157 210 260 307 360
#
# _framework density 21.518561999999999
#
# number of rings (size 3 to 8) (size 9 to 14) (size 15 to 20)
#    0.000    1.600    2.000    4.200    0.000    6.400 
#    0.000    0.000    0.000    0.600    0.000    0.000 
#    0.000    0.000    0.000    0.000    0.000    0.000 
#
# Total GULP energy -223204.667960 kJ/mol
# GULP energy per Si atom -5580.116699 kJ/mol
# Density = 2.146958 g / cm^3
# Si number density = 21.518562 Si / 1000 Ang^3
#
#
#
# Elastic Constant Matrix: (Units=GPa)
#
#
# Indices 1 2 3 4 5 6 
#
# 1 85.9928 6.3691 -8.4330 0.0000 0.0000 0.0000
# 2 6.3691 32.1802 -30.1856 0.0000 0.0000 0.0000
# 3 -8.4330 -30.1856 51.1794 0.0000 0.0000 0.0000
# 4 0.0000 0.0000 0.0000 12.4338 0.0000 0.0000
# 5 0.0000 0.0000 0.0000 0.0000 30.0848 0.0000
# 6 0.0000 0.0000 0.0000 0.0000 0.0000 90.3825
#
#
#
# Elastic Compliance Matrix: (Units=1/GPa)
#
#
# Indices 1 2 3 4 5 6 
#
# 1 0.011839 -0.001149 0.001273 0.000000 0.000000 0.000000
# 2 -0.001149 0.069669 0.040901 0.000000 0.000000 0.000000
# 3 0.001273 0.040901 0.043872 0.000000 0.000000 0.000000
# 4 0.000000 0.000000 0.000000 0.080426 0.000000 0.000000
# 5 0.000000 0.000000 0.000000 0.000000 0.033239 0.000000
# 6 0.000000 0.000000 0.000000 0.000000 0.000000 0.011064
#
#
# Mechanical properties :
#
#
# Convention : Reuss Voigt Hill
#
# Bulk Modulus (GPa) = 4.82089 11.65036 8.23563
# Shear Modulus (GPa) = 21.07905 40.02033 30.54969
#
# Velocity S-wave (km/s) = 3.13321 4.31722 3.77197
# Velocity P-wave (km/s) = 3.91594 5.50246 4.77554
#
# Compressibility (1/GPa) = 0.20743041
#
# Stress axis : x y z
#
# Youngs Moduli (GPa) = 84.46781 14.35368 22.79335
#
# Poissons Ratio (x) = 0.01649 -0.02902
# Poissons Ratio (y) = 0.09705 -0.93228
# Poissons Ratio (z) = -0.10753 -0.58708
#
# Static dielectric constant tensor:
#      x y z
#    x 1.833260 0.000000 0.000000 
#    y 0.000000 1.767660 0.000000 
#    z 0.000000 0.000000 1.781580 
# 
# From -- ./inp_files/35088.got.cif
#   From: 2010.05.17/outbox.cif.g08.bks.cpg/sg74_18_cif.got.tgz:35088.got - 2010.06.03 17:57:02.
