data_PCOD9538747
_publ_section_title
;
Structure prediction by ZEFSAII (Michael W. Deem and Ramdas Pophale) SiO2 
 PCOD9538747
Probable space group: I M M A
;
_chemical_formula_sum "Si O2"
_cell_formula_units_Z 52
_cell_length_a 13.787759
_cell_length_b 15.652053
_cell_length_c 9.365465
_cell_angle_alpha 90.000000
_cell_angle_beta 90.000000
_cell_angle_gamma 90.000000
_cell_volume 2021.130420
_symmetry_space_group_name_H-M "I M M A"
_symmetry_group_IT_number 74
_symmetry_cell_setting 'orthorhombic'
loop_
_space_group_symop_operation_xyz
x,y,z
-x,1/2-y,z
x,-y,-z
-x,1/2+y,-z
-x,-y,-z
x,1/2+y,-z
-x,y,z
x,1/2-y,z
1/2+x,1/2+y,1/2+z
1/2-x,-y,1/2+z
1/2+x,1/2-y,1/2-z
1/2-x,y,1/2-z
1/2-x,1/2-y,1/2-z
1/2+x,y,1/2-z
1/2-x,1/2+y,1/2+z
1/2+x,-y,1/2+z
loop_
_atom_site_type_symbol
_atom_site_label
_atom_site_fract_x
_atom_site_fract_y
_atom_site_fract_z
Si Si1 0.500000 0.750000 0.342219
Si Si2 0.391340 0.098963 0.321963
Si Si3 0.105090 0.087512 0.739307
Si Si4 0.698528 0.348197 0.028366
O O1 0.583668 0.674121 0.324414
O O2 0.500000 0.126104 0.363422
O O3 0.371521 0.120681 0.155843
O O4 0.305536 0.142854 0.407665
O O5 0.381464 0.996732 0.332299
O O6 0.183149 0.099515 0.615967
O O7 0.000000 0.073250 0.662925
O O8 0.674718 0.250000 0.996817
#
# Coordination Sequence:
#
# PCOD9538747 Si02
#       4
#     4  16  16  16
#     4   8  16  32  62  88 108 138 192 246 288 326
#     4  10  21  32  52  84 115 144 185 240 290 336
#     4   9  17  34  57  87 111 142 190 241 288 331
#     4  11  20  33  53  83 117 150 189 238 284 339
#
# _framework density 25.728176999999999
#
# number of rings (size 3 to 8) (size 9 to 14) (size 15 to 20)
#    0.923    1.231    1.538    3.692    0.000    6.154 
#    0.000    0.000    0.000   20.308    8.000    0.000 
#    0.000    0.000    0.000    0.000    0.000    0.000 
#
# Total GULP energy -145165.444799 kJ/mol
# GULP energy per Si atom -5583.286338 kJ/mol
# Density = 2.566962 g / cm^3
# Si number density = 25.728177 Si / 1000 Ang^3
#
#
#
# Elastic Constant Matrix: (Units=GPa)
#
#
# Indices 1 2 3 4 5 6 
#
# 1 103.8817 7.3283 34.1785 0.0000 0.0000 0.0000
# 2 7.3283 67.1821 -6.5412 0.0000 0.0000 0.0000
# 3 34.1785 -6.5412 115.6486 0.0000 0.0000 0.0000
# 4 0.0000 0.0000 0.0000 -0.4197 0.0000 0.0000
# 5 0.0000 0.0000 0.0000 0.0000 35.7996 0.0000
# 6 0.0000 0.0000 0.0000 0.0000 0.0000 53.4359
#
#
#
# Elastic Compliance Matrix: (Units=1/GPa)
#
#
# Indices 1 2 3 4 5 6 
#
# 1 0.010811 -0.001499 -0.003280 0.000000 0.000000 0.000000
# 2 -0.001499 0.015175 0.001301 0.000000 0.000000 0.000000
# 3 -0.003280 0.001301 0.009690 0.000000 0.000000 0.000000
# 4 0.000000 0.000000 0.000000 -2.382527 0.000000 0.000000
# 5 0.000000 0.000000 0.000000 0.000000 0.027933 0.000000
# 6 0.000000 0.000000 0.000000 0.000000 0.000000 0.018714
#
#
# Mechanical properties :
#
#
# Convention : Reuss Voigt Hill
#
# Bulk Modulus (GPa) = 34.81713 39.62707 37.22210
# Shear Modulus (GPa) = -2.18945 34.54627 16.17841
#
# Velocity S-wave (km/s) = -0.92349 3.66832 2.51035
# Velocity P-wave (km/s) = 3.52490 5.77735 4.78553
#
# Compressibility (1/GPa) = 0.02872149
#
# Stress axis : x y z
#
# Youngs Moduli (GPa) = 92.49680 65.89749 103.20119
#
# Poissons Ratio (x) = 0.09876 0.33849
# Poissons Ratio (y) = 0.13862 -0.13429
# Poissons Ratio (z) = 0.30338 -0.08575
#
# Static dielectric constant tensor:
#      x y z
#    x 2.088080 0.000000 0.000000 
#    y 0.000000 1.948990 0.000000 
#    z 0.000000 0.000000 2.025230 
# 
# From -- ./inp_files/19596.got.cif
#   From: 2010.05.17/outbox.cif.g08.bks.cpg/sg74_10_cif.got.tgz:19596.got - 2010.06.03 17:57:02.
