data_PCOD9538423
_publ_section_title
;
Structure prediction by ZEFSAII (Michael W. Deem and Ramdas Pophale) SiO2 
 PCOD9538423
Probable space group: I M M A
;
_chemical_formula_sum "Si O2"
_cell_formula_units_Z 64
_cell_length_a 17.734029
_cell_length_b 21.603634
_cell_length_c 8.456270
_cell_angle_alpha 90.000000
_cell_angle_beta 90.000000
_cell_angle_gamma 90.000000
_cell_volume 3239.761696
_symmetry_space_group_name_H-M "I M M A"
_symmetry_group_IT_number 74
_symmetry_cell_setting 'orthorhombic'
loop_
_space_group_symop_operation_xyz
x,y,z
-x,1/2-y,z
x,-y,-z
-x,1/2+y,-z
-x,-y,-z
x,1/2+y,-z
-x,y,z
x,1/2-y,z
1/2+x,1/2+y,1/2+z
1/2-x,-y,1/2+z
1/2+x,1/2-y,1/2-z
1/2-x,y,1/2-z
1/2-x,1/2-y,1/2-z
1/2+x,y,1/2-z
1/2-x,1/2+y,1/2+z
1/2+x,-y,1/2+z
loop_
_atom_site_type_symbol
_atom_site_label
_atom_site_fract_x
_atom_site_fract_y
_atom_site_fract_z
Si Si1 0.911070 0.750000 0.639145
Si Si2 0.414117 0.507328 0.688254
Si Si3 0.164446 0.884840 0.308797
Si Si4 0.339229 0.750000 0.208363
Si Si5 0.666487 0.628489 0.812280
O O1 0.861975 0.750000 0.476946
O O2 0.886671 0.687100 0.725730
O O3 0.000000 0.750000 0.604007
O O4 0.412072 0.500000 0.500000
O O5 0.500000 0.518920 0.739845
O O6 0.384360 0.443425 0.760497
O O7 0.363420 0.565184 0.737845
O O8 0.250000 0.893743 0.250000
O O9 0.134866 0.818697 0.239291
O O10 0.166559 0.880195 0.498458
O O11 0.250000 0.750000 0.250000
O O12 0.750000 0.641960 0.750000
#
# Coordination Sequence:
#
# PCOD9538423 Si02
#       5
#     8  16  16   8  16
#     4  10  21  37  60  91 123 154 196 250 303 357
#     4  11  24  40  57  82 118 156 197 247 302 357
#     4  10  20  37  60  86 115 150 195 243 292 351
#     4   8  18  35  58  87 118 154 196 246 296 353
#     4  11  22  38  62  88 118 156 198 244 296 357
#
# _framework density 19.754539000000001
#
# number of rings (size 3 to 8) (size 9 to 14) (size 15 to 20)
#    0.000    1.750    0.000    4.125    0.000    6.000 
#    0.000    3.750    0.000    3.000    0.000    1.750 
#    0.000    0.000    0.000    0.000    0.000    0.000 
#
# Total GULP energy -178566.579203 kJ/mol
# GULP energy per Si atom -5580.205600 kJ/mol
# Density = 1.970958 g / cm^3
# Si number density = 19.754539 Si / 1000 Ang^3
#
#
#
# Elastic Constant Matrix: (Units=GPa)
#
#
# Indices 1 2 3 4 5 6 
#
# 1 73.0949 38.7299 23.6184 0.0000 0.0000 0.0000
# 2 38.7299 143.6138 21.9917 0.0000 0.0000 0.0000
# 3 23.6184 21.9917 45.9176 0.0000 0.0000 0.0000
# 4 0.0000 0.0000 0.0000 -23.2829 0.0000 0.0000
# 5 0.0000 0.0000 0.0000 0.0000 16.7982 0.0000
# 6 0.0000 0.0000 0.0000 0.0000 0.0000 1833.4629
#
#
#
# Elastic Compliance Matrix: (Units=1/GPa)
#
#
# Indices 1 2 3 4 5 6 
#
# 1 0.018084 -0.003726 -0.007517 0.000000 0.000000 0.000000
# 2 -0.003726 0.008282 -0.002050 0.000000 0.000000 0.000000
# 3 -0.007517 -0.002050 0.026627 0.000000 0.000000 0.000000
# 4 0.000000 0.000000 0.000000 -0.042950 0.000000 0.000000
# 5 0.000000 0.000000 0.000000 0.000000 0.059530 0.000000
# 6 0.000000 0.000000 0.000000 0.000000 0.000000 0.000545
#
#
# Mechanical properties :
#
#
# Convention : Reuss Voigt Hill
#
# Bulk Modulus (GPa) = 37.87007 47.92291 42.89649
# Shear Modulus (GPa) = 47.39041 377.28139 212.33590
#
# Velocity S-wave (km/s) = 4.90323 13.83471 10.37885
# Velocity P-wave (km/s) = 7.16014 16.71858 12.86037
#
# Compressibility (1/GPa) = 0.02640608
#
# Stress axis : x y z
#
# Youngs Moduli (GPa) = 55.29758 120.74649 37.55634
#
# Poissons Ratio (x) = 0.44987 0.28232
# Poissons Ratio (y) = 0.20603 0.07699
# Poissons Ratio (z) = 0.41569 0.24754
#
# Static dielectric constant tensor:
#      x y z
#    x 1.683450 0.000000 0.000000 
#    y 0.000000 1.721980 0.000000 
#    z 0.000000 0.000000 1.677280 
# 
# From -- ./inp_files/8860.got.cif
#   From: 2010.05.17/outbox.cif.g08.bks.cpg/sg74_5_cif.got.tgz:8860.got - 2010.06.03 17:57:02.
