data_PCOD9538824
_publ_section_title
;
Structure prediction by ZEFSAII (Michael W. Deem and Ramdas Pophale) SiO2 
 PCOD9538824
Probable space group: I M M A
;
_chemical_formula_sum "Si O2"
_cell_formula_units_Z 80
_cell_length_a 26.552176
_cell_length_b 7.865744
_cell_length_c 18.852697
_cell_angle_alpha 90.000000
_cell_angle_beta 90.000000
_cell_angle_gamma 90.000000
_cell_volume 3937.435145
_symmetry_space_group_name_H-M "I M M A"
_symmetry_group_IT_number 74
_symmetry_cell_setting 'orthorhombic'
loop_
_space_group_symop_operation_xyz
x,y,z
-x,1/2-y,z
x,-y,-z
-x,1/2+y,-z
-x,-y,-z
x,1/2+y,-z
-x,y,z
x,1/2-y,z
1/2+x,1/2+y,1/2+z
1/2-x,-y,1/2+z
1/2+x,1/2-y,1/2-z
1/2-x,y,1/2-z
1/2-x,1/2-y,1/2-z
1/2+x,y,1/2-z
1/2-x,1/2+y,1/2+z
1/2+x,-y,1/2+z
loop_
_atom_site_type_symbol
_atom_site_label
_atom_site_fract_x
_atom_site_fract_y
_atom_site_fract_z
Si Si1 0.653726 0.453073 0.917972
Si Si2 0.747705 0.546711 0.669816
Si Si3 0.848619 0.955221 0.917711
Si Si4 0.556542 0.045307 0.835073
Si Si5 0.556568 0.544841 0.671708
O O1 0.653140 0.250000 0.912632
O O2 0.700853 0.515457 0.872143
O O3 0.601162 0.519332 0.885133
O O4 0.659136 0.500000 0.000000
O O5 0.740884 0.750000 0.675151
O O6 0.750000 0.478238 0.750000
O O7 0.700080 0.480287 0.625249
O O8 0.848755 0.750000 0.912915
O O9 0.899799 0.017772 0.880294
O O10 0.845989 0.000000 0.000000
O O11 0.500000 0.981099 0.851432
O O12 0.555168 0.250000 0.841074
O O13 0.567729 0.002087 0.753185
O O14 0.500000 0.482594 0.654940
O O15 0.555692 0.750000 0.667676
#
# Coordination Sequence:
#
# PCOD9538824 Si02
#       5
#    16  16  16  16  16
#     4  11  23  37  55  80 110 142 177 219 265 315
#     4  10  21  38  59  80 105 139 178 220 266 318
#     4  10  21  35  52  77 108 140 174 214 261 312
#     4   9  19  36  56  79 107 138 174 217 264 313
#     4   9  18  34  56  80 105 136 177 220 259 306
#
# _framework density 20.317795
#
# number of rings (size 3 to 8) (size 9 to 14) (size 15 to 20)
#    0.000    2.200    0.000    2.400    0.000    7.600 
#    0.000    0.000    0.000    0.000    0.000    0.000 
#    0.000    0.000    0.000    0.000    0.000    0.000 
#
# Total GULP energy -223407.699761 kJ/mol
# GULP energy per Si atom -5585.192494 kJ/mol
# Density = 2.027155 g / cm^3
# Si number density = 20.317795 Si / 1000 Ang^3
#
#
#
# Elastic Constant Matrix: (Units=GPa)
#
#
# Indices 1 2 3 4 5 6 
#
# 1 172.5812 1.5200 132.5197 0.0000 0.0000 0.0000
# 2 1.5200 17.2387 -4.0453 0.0000 0.0000 0.0000
# 3 132.5197 -4.0453 184.0017 0.0000 0.0000 0.0000
# 4 0.0000 0.0000 0.0000 52.1811 0.0000 0.0000
# 5 0.0000 0.0000 0.0000 0.0000 8.9937 0.0000
# 6 0.0000 0.0000 0.0000 0.0000 0.0000 19.8587
#
#
#
# Elastic Compliance Matrix: (Units=1/GPa)
#
#
# Indices 1 2 3 4 5 6 
#
# 1 0.013159 -0.003402 -0.009552 0.000000 0.000000 0.000000
# 2 -0.003402 0.059189 0.003751 0.000000 0.000000 0.000000
# 3 -0.009552 0.003751 0.012397 0.000000 0.000000 0.000000
# 4 0.000000 0.000000 0.000000 0.019164 0.000000 0.000000
# 5 0.000000 0.000000 0.000000 0.000000 0.111189 0.000000
# 6 0.000000 0.000000 0.000000 0.000000 0.000000 0.050356
#
#
# Mechanical properties :
#
#
# Convention : Reuss Voigt Hill
#
# Bulk Modulus (GPa) = 15.07388 70.42337 42.74863
# Shear Modulus (GPa) = 16.34133 32.46184 24.40159
#
# Velocity S-wave (km/s) = 2.83907 4.00147 3.46930
# Velocity P-wave (km/s) = 4.26407 7.48900 6.09374
#
# Compressibility (1/GPa) = 0.06633991
#
# Stress axis : x y z
#
# Youngs Moduli (GPa) = 75.99324 16.89494 80.66672
#
# Poissons Ratio (x) = 0.05747 0.77053
# Poissons Ratio (y) = 0.25852 -0.30261
# Poissons Ratio (z) = 0.72589 -0.06338
#
# Static dielectric constant tensor:
#      x y z
#    x 1.732340 0.000000 0.000000 
#    y 0.000000 1.749440 0.000000 
#    z 0.000000 0.000000 1.659340 
# 
# From -- ./inp_files/39698.got.cif
#   From: 2010.05.17/outbox.cif.g08.bks.cpg/sg74_20_cif.got.tgz:39698.got - 2010.06.03 17:57:02.
