data_PCOD9538220
_publ_section_title
;
Structure prediction by ZEFSAII (Michael W. Deem and Ramdas Pophale) SiO2 
 PCOD9538220
Probable space group: I M M A
;
_chemical_formula_sum "Si O2"
_cell_formula_units_Z 96
_cell_length_a 22.986898
_cell_length_b 15.703306
_cell_length_c 14.784927
_cell_angle_alpha 90.000000
_cell_angle_beta 90.000000
_cell_angle_gamma 90.000000
_cell_volume 5336.919435
_symmetry_space_group_name_H-M "I M M A"
_symmetry_group_IT_number 74
_symmetry_cell_setting 'orthorhombic'
loop_
_space_group_symop_operation_xyz
x,y,z
-x,1/2-y,z
x,-y,-z
-x,1/2+y,-z
-x,-y,-z
x,1/2+y,-z
-x,y,z
x,1/2-y,z
1/2+x,1/2+y,1/2+z
1/2-x,-y,1/2+z
1/2+x,1/2-y,1/2-z
1/2-x,y,1/2-z
1/2-x,1/2-y,1/2-z
1/2+x,y,1/2-z
1/2-x,1/2+y,1/2+z
1/2+x,-y,1/2+z
loop_
_atom_site_type_symbol
_atom_site_label
_atom_site_fract_x
_atom_site_fract_y
_atom_site_fract_z
Si Si1 0.000000 0.348957 0.784940
Si Si2 0.811089 0.511467 0.403982
Si Si3 0.222429 0.346314 0.850770
Si Si4 0.761432 0.845634 0.858644
Si Si5 0.884559 0.557789 0.228116
Si Si6 0.881774 0.426080 0.075578
Si Si7 0.000000 0.396439 0.995713
O O1 0.058010 0.391514 0.747875
O O2 0.000000 0.250000 0.766753
O O3 0.000000 0.365544 0.893017
O O4 0.842145 0.500000 0.500000
O O5 0.762337 0.586755 0.404633
O O6 0.778515 0.422762 0.389894
O O7 0.850768 0.530321 0.317826
O O8 0.221299 0.250000 0.886872
O O9 0.250000 0.343058 0.750000
O O10 0.158525 0.383981 0.833030
O O11 0.747498 0.750000 0.890200
O O12 0.750000 0.845551 0.750000
O O13 0.825817 0.871221 0.894812
O O14 0.899618 0.477811 0.165454
O O15 0.938102 0.374065 0.040993
O O16 0.868026 0.500000 0.000000
O O17 0.000000 0.500000 0.000000
#
# Coordination Sequence:
#
# PCOD9538220 Si02
#       7
#     8  16  16  16  16  16   8
#     4  12  24  38  61  92 120 152 196 248 301 367
#     4  11  22  38  58  84 117 158 202 248 295 349
#     4   9  18  33  56  83 115 151 191 241 300 355
#     4  11  22  37  57  84 118 160 203 245 294 351
#     4  11  20  38  58  82 120 155 193 242 294 355
#     4  11  19  37  59  83 118 157 195 237 300 357
#     4  10  20  36  58  86 117 154 194 234 296 361
#
# _framework density 17.987905000000001
#
# number of rings (size 3 to 8) (size 9 to 14) (size 15 to 20)
#    0.000    1.333    6.667    1.500    0.000    2.000 
#    0.000    0.417    0.000    0.000    0.000    0.583 
#    0.000    0.000    0.000    0.000    0.000    0.000 
#
# Total GULP energy -267784.803721 kJ/mol
# GULP energy per Si atom -5578.850078 kJ/mol
# Density = 1.794696 g / cm^3
# Si number density = 17.987905 Si / 1000 Ang^3
#
#
#
# Elastic Constant Matrix: (Units=GPa)
#
#
# Indices 1 2 3 4 5 6 
#
# 1 114.2725 35.4262 33.5298 0.0000 0.0000 0.0000
# 2 35.4262 109.3004 33.2034 0.0000 0.0000 0.0000
# 3 33.5298 33.2034 89.5862 0.0000 0.0000 0.0000
# 4 0.0000 0.0000 0.0000 1.5402 0.0000 0.0000
# 5 0.0000 0.0000 0.0000 0.0000 22.7068 0.0000
# 6 0.0000 0.0000 0.0000 0.0000 0.0000 6.2606
#
#
#
# Elastic Compliance Matrix: (Units=1/GPa)
#
#
# Indices 1 2 3 4 5 6 
#
# 1 0.010387 -0.002463 -0.002975 0.000000 0.000000 0.000000
# 2 -0.002463 0.010894 -0.003116 0.000000 0.000000 0.000000
# 3 -0.002975 -0.003116 0.013431 0.000000 0.000000 0.000000
# 4 0.000000 0.000000 0.000000 0.649261 0.000000 0.000000
# 5 0.000000 0.000000 0.000000 0.000000 0.044040 0.000000
# 6 0.000000 0.000000 0.000000 0.000000 0.000000 0.159728
#
#
# Mechanical properties :
#
#
# Convention : Reuss Voigt Hill
#
# Bulk Modulus (GPa) = 56.80314 57.49753 57.15033
# Shear Modulus (GPa) = 5.49018 20.16816 12.82917
#
# Velocity S-wave (km/s) = 1.74894 3.35208 2.67350
# Velocity P-wave (km/s) = 5.97708 6.85681 6.43200
#
# Compressibility (1/GPa) = 0.01760466
#
# Stress axis : x y z
#
# Youngs Moduli (GPa) = 96.26970 91.79420 74.45650
#
# Poissons Ratio (x) = 0.22609 0.22150
# Poissons Ratio (y) = 0.23712 0.23199
# Poissons Ratio (z) = 0.28639 0.28601
#
# Static dielectric constant tensor:
#      x y z
#    x 1.628480 0.000000 0.000000 
#    y 0.000000 1.623310 0.000000 
#    z 0.000000 0.000000 1.631860 
# 
# From -- ./inp_files/32433.got.cif
#   From: 2010.05.17/outbox.cif.g08.bks.cpg/sg74_17_cif.got.tgz:32433.got - 2010.06.03 17:57:02.
