data_PCOD9538597
_publ_section_title
;
Structure prediction by ZEFSAII (Michael W. Deem and Ramdas Pophale) SiO2 
 PCOD9538597
Probable space group: I M M A
;
_chemical_formula_sum "Si O2"
_cell_formula_units_Z 68
_cell_length_a 22.886126
_cell_length_b 15.615262
_cell_length_c 10.639208
_cell_angle_alpha 90.000000
_cell_angle_beta 90.000000
_cell_angle_gamma 90.000000
_cell_volume 3802.164124
_symmetry_space_group_name_H-M "I M M A"
_symmetry_group_IT_number 74
_symmetry_cell_setting 'orthorhombic'
loop_
_space_group_symop_operation_xyz
x,y,z
-x,1/2-y,z
x,-y,-z
-x,1/2+y,-z
-x,-y,-z
x,1/2+y,-z
-x,y,z
x,1/2-y,z
1/2+x,1/2+y,1/2+z
1/2-x,-y,1/2+z
1/2+x,1/2-y,1/2-z
1/2-x,y,1/2-z
1/2-x,1/2-y,1/2-z
1/2+x,y,1/2-z
1/2-x,1/2+y,1/2+z
1/2+x,-y,1/2+z
loop_
_atom_site_type_symbol
_atom_site_label
_atom_site_fract_x
_atom_site_fract_y
_atom_site_fract_z
Si Si1 0.500000 0.250000 0.814361
Si Si2 0.365857 0.908328 0.550842
Si Si3 0.566575 0.750000 0.431276
Si Si4 0.617695 0.852873 0.834657
Si Si5 0.741241 0.349179 0.098447
Si Si6 0.500000 0.102112 0.020005
O O1 0.554864 0.250000 0.718316
O O2 0.500000 0.164543 0.898552
O O3 0.398799 0.832843 0.477714
O O4 0.379644 0.896191 0.698254
O O5 0.295634 0.897624 0.538231
O O6 0.384374 0.000000 0.500000
O O7 0.500000 0.750000 0.485464
O O8 0.622926 0.750000 0.814886
O O9 0.674587 0.879217 0.916583
O O10 0.557860 0.873661 0.902838
O O11 0.745787 0.250000 0.058962
O O12 0.750000 0.351179 0.250000
O O13 0.500000 0.000000 0.000000
#
# Coordination Sequence:
#
# PCOD9538597 Si02
#       6
#     4  16   8  16  16   8
#     4  10  26  46  54  76 126 168 186 242 312 350
#     4  11  21  35  63  96 121 150 195 252 309 354
#     4  10  24  39  58  82 129 159 182 242 313 372
#     4  10  20  38  65  88 116 159 208 248 289 353
#     4   8  15  33  58  85 115 149 187 237 293 344
#     4  12  26  41  62  84 114 159 211 249 287 362
#
# _framework density 17.884550999999998
#
# number of rings (size 3 to 8) (size 9 to 14) (size 15 to 20)
#    0.353    1.647    3.529    1.412    4.941    1.412 
#    0.000    0.000    0.000    1.412    0.000    0.000 
#    0.000    0.000    0.000    0.000    0.000    0.000 
#
# Total GULP energy -189517.521487 kJ/mol
# GULP energy per Si atom -5574.044750 kJ/mol
# Density = 1.784385 g / cm^3
# Si number density = 17.884551 Si / 1000 Ang^3
#
#
#
# Elastic Constant Matrix: (Units=GPa)
#
#
# Indices 1 2 3 4 5 6 
#
# 1 152.7044 49.0769 49.3197 0.0000 0.0000 0.0000
# 2 49.0769 137.5650 49.4392 0.0000 0.0000 0.0000
# 3 49.3197 49.4392 73.6598 0.0000 0.0000 0.0000
# 4 0.0000 0.0000 0.0000 24.3314 0.0000 0.0000
# 5 0.0000 0.0000 0.0000 0.0000 20.1326 0.0000
# 6 0.0000 0.0000 0.0000 0.0000 0.0000 0.3424
#
#
#
# Elastic Compliance Matrix: (Units=1/GPa)
#
#
# Indices 1 2 3 4 5 6 
#
# 1 0.008530 -0.001305 -0.004835 0.000000 0.000000 0.000000
# 2 -0.001305 0.009780 -0.005690 0.000000 0.000000 0.000000
# 3 -0.004835 -0.005690 0.020632 0.000000 0.000000 0.000000
# 4 0.000000 0.000000 0.000000 0.041099 0.000000 0.000000
# 5 0.000000 0.000000 0.000000 0.000000 0.049671 0.000000
# 6 0.000000 0.000000 0.000000 0.000000 0.000000 2.920925
#
#
# Mechanical properties :
#
#
# Convention : Reuss Voigt Hill
#
# Bulk Modulus (GPa) = 65.44058 73.28897 69.36478
# Shear Modulus (GPa) = 1.62370 23.36749 12.49559
#
# Velocity S-wave (km/s) = 0.95386 3.61858 2.64612
# Velocity P-wave (km/s) = 6.15493 7.65027 6.94298
#
# Compressibility (1/GPa) = 0.01528104
#
# Stress axis : x y z
#
# Youngs Moduli (GPa) = 117.23721 102.25016 48.46753
#
# Poissons Ratio (x) = 0.13347 0.23434
# Poissons Ratio (y) = 0.15304 0.27579
# Poissons Ratio (z) = 0.56684 0.58181
#
# Static dielectric constant tensor:
#      x y z
#    x 1.649250 0.000000 0.000000 
#    y 0.000000 1.595200 0.000000 
#    z 0.000000 0.000000 1.589600 
# 
# From -- ./inp_files/20254.got.cif
#   From: 2010.05.17/outbox.cif.g08.bks.cpg/sg74_11_cif.got.tgz:20254.got - 2010.06.03 17:57:02.
