data_PCOD9538762
_publ_section_title
;
Structure prediction by ZEFSAII (Michael W. Deem and Ramdas Pophale) SiO2 
 PCOD9538762
Probable space group: I M M A
;
_chemical_formula_sum "Si O2"
_cell_formula_units_Z 64
_cell_length_a 13.989999
_cell_length_b 13.936559
_cell_length_c 19.938119
_cell_angle_alpha 90.000000
_cell_angle_beta 90.000000
_cell_angle_gamma 90.000000
_cell_volume 3887.383840
_symmetry_space_group_name_H-M "I M M A"
_symmetry_group_IT_number 74
_symmetry_cell_setting 'orthorhombic'
loop_
_space_group_symop_operation_xyz
x,y,z
-x,1/2-y,z
x,-y,-z
-x,1/2+y,-z
-x,-y,-z
x,1/2+y,-z
-x,y,z
x,1/2-y,z
1/2+x,1/2+y,1/2+z
1/2-x,-y,1/2+z
1/2+x,1/2-y,1/2-z
1/2-x,y,1/2-z
1/2-x,1/2-y,1/2-z
1/2+x,y,1/2-z
1/2-x,1/2+y,1/2+z
1/2+x,-y,1/2+z
loop_
_atom_site_type_symbol
_atom_site_label
_atom_site_fract_x
_atom_site_fract_y
_atom_site_fract_z
Si Si1 0.887054 0.137694 0.470813
Si Si2 0.389538 0.637736 0.377980
Si Si3 0.299324 0.538653 0.097609
Si Si4 0.387451 0.358195 0.782782
O O1 0.868086 0.250000 0.462278
O O2 0.859807 0.104090 0.545759
O O3 0.000000 0.120321 0.459826
O O4 0.825553 0.069231 0.422532
O O5 0.500000 0.616791 0.394981
O O6 0.370879 0.750000 0.394552
O O7 0.310824 0.569022 0.410065
O O8 0.379902 0.629368 0.297057
O O9 0.331957 0.566578 0.172079
O O10 0.500000 0.363149 0.799113
O O11 0.353129 0.250000 0.799072
#
# Coordination Sequence:
#
# PCOD9538762 Si02
#       4
#    16  16  16  16
#     4  10  21  34  47  68  95 118 148 192 233 272
#     4   9  18  30  45  70 100 124 150 189 231 268
#     4  11  18  29  50  69  90 124 157 182 224 279
#     4   9  16  26  44  72  99 119 145 185 232 279
#
# _framework density 16.463512999999999
#
# number of rings (size 3 to 8) (size 9 to 14) (size 15 to 20)
#    0.000    2.250    0.000    7.500    0.000    4.000 
#    0.000    2.500    0.000    5.250    0.000    3.500 
#    0.000    0.000    0.000    0.000    0.000    0.000 
#
# Total GULP energy -178513.339922 kJ/mol
# GULP energy per Si atom -5578.541873 kJ/mol
# Density = 1.642604 g / cm^3
# Si number density = 16.463513 Si / 1000 Ang^3
#
#
#
# Elastic Constant Matrix: (Units=GPa)
#
#
# Indices 1 2 3 4 5 6 
#
# 1 104.2673 62.8242 15.8165 0.0000 0.0000 0.0000
# 2 62.8242 109.6465 20.4337 0.0000 0.0000 0.0000
# 3 15.8165 20.4337 13.3786 0.0000 0.0000 0.0000
# 4 0.0000 0.0000 0.0000 22.5544 0.0000 0.0000
# 5 0.0000 0.0000 0.0000 0.0000 23.2022 0.0000
# 6 0.0000 0.0000 0.0000 0.0000 0.0000 27.5873
#
#
#
# Elastic Compliance Matrix: (Units=1/GPa)
#
#
# Indices 1 2 3 4 5 6 
#
# 1 0.015036 -0.007412 -0.006455 0.000000 0.000000 0.000000
# 2 -0.007412 0.016403 -0.016290 0.000000 0.000000 0.000000
# 3 -0.006455 -0.016290 0.107258 0.000000 0.000000 0.000000
# 4 0.000000 0.000000 0.000000 0.044337 0.000000 0.000000
# 5 0.000000 0.000000 0.000000 0.000000 0.043099 0.000000
# 6 0.000000 0.000000 0.000000 0.000000 0.000000 0.036249
#
#
# Mechanical properties :
#
#
# Convention : Reuss Voigt Hill
#
# Bulk Modulus (GPa) = 12.75792 47.27124 30.01458
# Shear Modulus (GPa) = 14.33386 23.21666 18.77526
#
# Velocity S-wave (km/s) = 2.95387 3.75932 3.38067
# Velocity P-wave (km/s) = 4.40452 6.90061 5.78870
#
# Compressibility (1/GPa) = 0.07838268
#
# Stress axis : x y z
#
# Youngs Moduli (GPa) = 66.50713 60.96423 9.32330
#
# Poissons Ratio (x) = 0.45188 0.06018
# Poissons Ratio (y) = 0.49297 0.15188
# Poissons Ratio (z) = 0.42929 0.99312
#
# Static dielectric constant tensor:
#      x y z
#    x 1.593850 0.000000 0.000000 
#    y 0.000000 1.536510 0.000000 
#    z 0.000000 0.000000 1.549820 
# 
# From -- ./inp_files/42404.got.cif
#   From: 2010.05.17/outbox.cif.g08.bks.cpg/sg74_22_cif.got.tgz:42404.got - 2010.06.03 17:57:02.
