data_PCOD9538394
_publ_section_title
;
Structure prediction by ZEFSAII (Michael W. Deem and Ramdas Pophale) SiO2 
 PCOD9538394
Probable space group: I M M A
;
_chemical_formula_sum "Si O2"
_cell_formula_units_Z 88
_cell_length_a 8.572164
_cell_length_b 18.911051
_cell_length_c 29.965507
_cell_angle_alpha 90.000000
_cell_angle_beta 90.000000
_cell_angle_gamma 90.000000
_cell_volume 4857.667305
_symmetry_space_group_name_H-M "I M M A"
_symmetry_group_IT_number 74
_symmetry_cell_setting 'orthorhombic'
loop_
_space_group_symop_operation_xyz
x,y,z
-x,1/2-y,z
x,-y,-z
-x,1/2+y,-z
-x,-y,-z
x,1/2+y,-z
-x,y,z
x,1/2-y,z
1/2+x,1/2+y,1/2+z
1/2-x,-y,1/2+z
1/2+x,1/2-y,1/2-z
1/2-x,y,1/2-z
1/2-x,1/2-y,1/2-z
1/2+x,y,1/2-z
1/2-x,1/2+y,1/2+z
1/2+x,-y,1/2+z
loop_
_atom_site_type_symbol
_atom_site_label
_atom_site_fract_x
_atom_site_fract_y
_atom_site_fract_z
Si Si1 0.318129 0.039355 0.546583
Si Si2 0.317039 0.666959 0.001517
Si Si3 0.311621 0.750000 0.300824
Si Si4 0.190337 0.670336 0.601739
Si Si5 0.183660 0.023337 0.364872
Si Si6 0.186472 0.595341 0.199697
O O1 0.500000 0.029522 0.557780
O O2 0.279838 0.120281 0.535573
O O3 0.215712 0.009048 0.586327
O O4 0.284598 0.000000 0.500000
O O5 0.500000 0.646460 0.003928
O O6 0.305788 0.750000 0.010750
O O7 0.264206 0.656862 0.949983
O O8 0.500000 0.750000 0.300710
O O9 0.250000 0.750000 0.250000
O O10 0.261827 0.672983 0.319277
O O11 0.240657 0.750000 0.614140
O O12 0.242484 0.604599 0.631912
O O13 0.000000 0.670576 0.601755
O O14 0.259857 0.970433 0.329753
O O15 0.000000 0.025468 0.355905
O O16 0.250000 0.589375 0.250000
O O17 0.000000 0.595646 0.201320
#
# Coordination Sequence:
#
# PCOD9538394 Si02
#       6
#    16  16   8  16  16  16
#     4  11  22  34  49  73 108 144 177 217 266 315
#     4   9  17  32  53  73  96 133 181 225 264 310
#     4   8  16  32  56  80 104 138 170 208 254 304
#     4   8  15  29  51  77 102 132 174 221 265 313
#     4  11  21  34  56  81 106 139 179 220 268 317
#     4  10  20  37  59  83 110 137 174 216 263 316
#
# _framework density 18.115691999999999
#
# number of rings (size 3 to 8) (size 9 to 14) (size 15 to 20)
#    0.000    2.364    1.818    2.727    0.000    1.818 
#    1.636    0.000    0.000    2.727    0.000    0.000 
#    0.000    0.000    0.000    0.000    0.000    0.000 
#
# Total GULP energy -245254.949295 kJ/mol
# GULP energy per Si atom -5573.976120 kJ/mol
# Density = 1.807446 g / cm^3
# Si number density = 18.115692 Si / 1000 Ang^3
#
#
#
# Elastic Constant Matrix: (Units=GPa)
#
#
# Indices 1 2 3 4 5 6 
#
# 1 15.0660 19.2284 12.3581 0.0000 0.0000 0.0000
# 2 19.2284 151.5359 47.5918 0.0000 0.0000 0.0000
# 3 12.3581 47.5918 29.6279 0.0000 0.0000 0.0000
# 4 0.0000 0.0000 0.0000 26.3979 0.0000 0.0000
# 5 0.0000 0.0000 0.0000 0.0000 23.4716 0.0000
# 6 0.0000 0.0000 0.0000 0.0000 0.0000 21.1321
#
#
#
# Elastic Compliance Matrix: (Units=1/GPa)
#
#
# Indices 1 2 3 4 5 6 
#
# 1 0.100947 0.000837 -0.043451 0.000000 0.000000 0.000000
# 2 0.000837 0.013325 -0.021753 0.000000 0.000000 0.000000
# 3 -0.043451 -0.021753 0.086818 0.000000 0.000000 0.000000
# 4 0.000000 0.000000 0.000000 0.037882 0.000000 0.000000
# 5 0.000000 0.000000 0.000000 0.000000 0.042605 0.000000
# 6 0.000000 0.000000 0.000000 0.000000 0.000000 0.047321
#
#
# Mechanical properties :
#
#
# Convention : Reuss Voigt Hill
#
# Bulk Modulus (GPa) = 13.82046 39.39848 26.60947
# Shear Modulus (GPa) = 10.37885 22.00377 16.19131
#
# Velocity S-wave (km/s) = 2.39617 3.48893 2.99285
# Velocity P-wave (km/s) = 3.91166 6.16649 5.16366
#
# Compressibility (1/GPa) = 0.07235648
#
# Stress axis : x y z
#
# Youngs Moduli (GPa) = 9.90618 75.04914 11.51839
#
# Poissons Ratio (x) = -0.06283 0.50048
# Poissons Ratio (y) = -0.00829 0.25056
# Poissons Ratio (z) = 0.43043 1.63252
#
# Static dielectric constant tensor:
#      x y z
#    x 1.620140 0.000000 0.000000 
#    y 0.000000 1.682230 0.000000 
#    z 0.000000 0.000000 1.573420 
# 
# From -- ./inp_files/70227.got.cif
#   From: 2010.05.17/outbox.cif.g08.bks.cpg/sg74_36_cif.got.tgz:70227.got - 2010.06.03 17:57:02.
