data_PCOD9538763
_publ_section_title
;
Structure prediction by ZEFSAII (Michael W. Deem and Ramdas Pophale) SiO2 
 PCOD9538763
Probable space group: I M M A
;
_chemical_formula_sum "Si O2"
_cell_formula_units_Z 100
_cell_length_a 21.610064
_cell_length_b 7.533437
_cell_length_c 31.606966
_cell_angle_alpha 90.000000
_cell_angle_beta 90.000000
_cell_angle_gamma 90.000000
_cell_volume 5145.552612
_symmetry_space_group_name_H-M "I M M A"
_symmetry_group_IT_number 74
_symmetry_cell_setting 'orthorhombic'
loop_
_space_group_symop_operation_xyz
x,y,z
-x,1/2-y,z
x,-y,-z
-x,1/2+y,-z
-x,-y,-z
x,1/2+y,-z
-x,y,z
x,1/2-y,z
1/2+x,1/2+y,1/2+z
1/2-x,-y,1/2+z
1/2+x,1/2-y,1/2-z
1/2-x,y,1/2-z
1/2-x,1/2-y,1/2-z
1/2+x,y,1/2-z
1/2-x,1/2+y,1/2+z
1/2+x,-y,1/2+z
loop_
_atom_site_type_symbol
_atom_site_label
_atom_site_fract_x
_atom_site_fract_y
_atom_site_fract_z
Si Si1 0.569812 0.967130 0.595206
Si Si2 0.092736 0.543613 0.353110
Si Si3 0.000000 0.750000 0.615954
Si Si4 0.190013 0.038363 0.048189
Si Si5 0.431604 0.537710 0.243621
Si Si6 0.646296 0.460642 0.323968
Si Si7 0.766411 0.034297 0.370861
O O1 0.500000 0.028946 0.588227
O O2 0.568033 0.750000 0.594916
O O3 0.621278 0.025449 0.561225
O O4 0.597162 0.024873 0.640764
O O5 0.073084 0.750000 0.356837
O O6 0.053792 0.407251 0.381054
O O7 0.081542 0.482280 0.304425
O O8 0.165469 0.534559 0.362483
O O9 0.188252 0.250000 0.052885
O O10 0.238337 0.976692 0.083786
O O11 0.205810 0.000000 0.000000
O O12 0.500000 0.470125 0.256437
O O13 0.434231 0.750000 0.242910
O O14 0.379473 0.491471 0.277441
O O15 0.649079 0.250000 0.330048
O O16 0.714735 0.524815 0.336501
O O17 0.770005 0.250000 0.370100
#
# Coordination Sequence:
#
# PCOD9538763 Si02
#       7
#    16  16   4  16  16  16  16
#     4   8  14  27  45  70 102 142 189 235 276 319
#     4  11  23  38  59  86 114 146 185 226 278 334
#     4  12  22  40  64  84 118 144 182 232 276 322
#     4   9  18  32  52  76 107 139 179 229 275 329
#     4  10  21  34  47  72 109 143 187 235 277 323
#     4   9  18  30  51  74 100 144 193 235 275 324
#     4   9  19  37  54  78 111 143 182 228 277 334
#
# _framework density 19.434259000000001
#
# number of rings (size 3 to 8) (size 9 to 14) (size 15 to 20)
#    0.000    2.560    1.600    2.640    1.120    3.200 
#    0.000    5.600    0.000    0.960    0.000    0.560 
#    0.000    0.000    0.000    0.000    0.000    0.000 
#
# Total GULP energy -278348.013764 kJ/mol
# GULP energy per Si atom -5566.960275 kJ/mol
# Density = 1.939003 g / cm^3
# Si number density = 19.434259 Si / 1000 Ang^3
#
#
#
# Elastic Constant Matrix: (Units=GPa)
#
#
# Indices 1 2 3 4 5 6 
#
# 1 157.7039 19.0904 22.7558 0.0000 0.0000 0.0000
# 2 19.0904 70.8449 2.3259 0.0000 0.0000 0.0000
# 3 22.7558 2.3259 20.7137 0.0000 0.0000 0.0000
# 4 0.0000 0.0000 0.0000 15.0541 0.0000 0.0000
# 5 0.0000 0.0000 0.0000 0.0000 11.6697 0.0000
# 6 0.0000 0.0000 0.0000 0.0000 0.0000 13.1002
#
#
#
# Elastic Compliance Matrix: (Units=1/GPa)
#
#
# Indices 1 2 3 4 5 6 
#
# 1 0.007762 -0.001818 -0.008323 0.000000 0.000000 0.000000
# 2 -0.001818 0.014594 0.000359 0.000000 0.000000 0.000000
# 3 -0.008323 0.000359 0.057381 0.000000 0.000000 0.000000
# 4 0.000000 0.000000 0.000000 0.066427 0.000000 0.000000
# 5 0.000000 0.000000 0.000000 0.000000 0.085692 0.000000
# 6 0.000000 0.000000 0.000000 0.000000 0.000000 0.076335
#
#
# Mechanical properties :
#
#
# Convention : Reuss Voigt Hill
#
# Bulk Modulus (GPa) = 16.61928 37.51185 27.06557
# Shear Modulus (GPa) = 14.37557 21.63750 18.00653
#
# Velocity S-wave (km/s) = 2.72270 3.34034 3.04721
# Velocity P-wave (km/s) = 4.29584 5.84987 5.13202
#
# Compressibility (1/GPa) = 0.06017106
#
# Stress axis : x y z
#
# Youngs Moduli (GPa) = 128.83117 68.52342 17.42752
#
# Poissons Ratio (x) = 0.12460 0.14505
# Poissons Ratio (y) = 0.23426 -0.00626
# Poissons Ratio (z) = 1.07228 -0.02460
#
# Static dielectric constant tensor:
#      x y z
#    x 1.679940 0.000000 0.000000 
#    y 0.000000 1.726070 0.000000 
#    z 0.000000 0.000000 1.678730 
# 
# From -- ./inp_files/73393.got.cif
#   From: 2010.05.17/outbox.cif.g08.bks.cpg/sg74_37_cif.got.tgz:73393.got - 2010.06.03 17:57:02.
