data_PCOD9538609
_publ_section_title
;
Structure prediction by ZEFSAII (Michael W. Deem and Ramdas Pophale) SiO2 
 PCOD9538609
Probable space group: I M M A
;
_chemical_formula_sum "Si O2"
_cell_formula_units_Z 96
_cell_length_a 15.517362
_cell_length_b 24.507963
_cell_length_c 11.675221
_cell_angle_alpha 90.000000
_cell_angle_beta 90.000000
_cell_angle_gamma 90.000000
_cell_volume 4440.074098
_symmetry_space_group_name_H-M "I M M A"
_symmetry_group_IT_number 74
_symmetry_cell_setting 'orthorhombic'
loop_
_space_group_symop_operation_xyz
x,y,z
-x,1/2-y,z
x,-y,-z
-x,1/2+y,-z
-x,-y,-z
x,1/2+y,-z
-x,y,z
x,1/2-y,z
1/2+x,1/2+y,1/2+z
1/2-x,-y,1/2+z
1/2+x,1/2-y,1/2-z
1/2-x,y,1/2-z
1/2-x,1/2-y,1/2-z
1/2+x,y,1/2-z
1/2-x,1/2+y,1/2+z
1/2+x,-y,1/2+z
loop_
_atom_site_type_symbol
_atom_site_label
_atom_site_fract_x
_atom_site_fract_y
_atom_site_fract_z
Si Si1 0.694006 0.511015 0.866582
Si Si2 0.598391 0.601641 0.158647
Si Si3 0.395850 0.308971 0.011030
Si Si4 0.897381 0.880777 0.715673
Si Si5 0.840513 0.689276 0.181816
Si Si6 0.395587 0.187640 0.426874
O O1 0.750000 0.513513 0.750000
O O2 0.639435 0.456888 0.842429
O O3 0.642317 0.567778 0.851124
O O4 0.725762 0.500000 0.000000
O O5 0.500000 0.593496 0.127090
O O6 0.606732 0.637352 0.272976
O O7 0.638884 0.642903 0.066885
O O8 0.500000 0.306654 0.993140
O O9 0.359231 0.250000 0.983679
O O10 0.382174 0.327011 0.139928
O O11 0.868274 0.861334 0.841632
O O12 0.000000 0.890332 0.721440
O O13 0.878427 0.750000 0.207960
O O14 0.750000 0.687244 0.250000
O O15 0.843143 0.684880 0.045049
O O16 0.500000 0.182275 0.447226
O O17 0.384050 0.250000 0.381619
#
# Coordination Sequence:
#
# PCOD9538609 Si02
#       6
#    16  16  16  16  16  16
#     4  12  27  46  66  91 126 176 222 272 330 393
#     4  11  22  38  64  92 122 160 214 271 321 377
#     4   9  17  31  58  95 126 150 187 247 315 379
#     4  10  20  38  66  95 125 160 209 265 324 385
#     4  10  21  37  58  88 132 179 216 257 317 389
#     4   9  18  35  62  95 130 167 208 262 328 393
#
# _framework density 21.621261000000001
#
# number of rings (size 3 to 8) (size 9 to 14) (size 15 to 20)
#    0.000    1.833    1.667    2.500    0.000    7.000 
#    0.000    0.000    0.000    5.000    0.000    0.000 
#    0.000    0.000    0.000    0.000    0.000    0.000 
#
# Total GULP energy -267459.443914 kJ/mol
# GULP energy per Si atom -5572.071748 kJ/mol
# Density = 2.157205 g / cm^3
# Si number density = 21.621261 Si / 1000 Ang^3
#
#
#
# Elastic Constant Matrix: (Units=GPa)
#
#
# Indices 1 2 3 4 5 6 
#
# 1 28.0307 19.8495 24.4060 0.0000 0.0000 0.0001
# 2 19.8495 136.0940 52.4772 -0.0001 0.0000 -0.0001
# 3 24.4060 52.4772 139.6243 -0.0003 -0.0003 -0.0006
# 4 0.0000 -0.0001 -0.0003 35.0909 -0.0001 -0.0003
# 5 0.0000 0.0000 -0.0003 -0.0001 57.7743 -0.0005
# 6 0.0001 -0.0001 -0.0006 -0.0003 -0.0005 33.0843
#
#
#
# Elastic Compliance Matrix: (Units=1/GPa)
#
#
# Indices 1 2 3 4 5 6 
#
# 1 0.043888 -0.004027 -0.006158 0.000000 0.000000 0.000000
# 2 -0.004027 0.008963 -0.002665 0.000000 0.000000 0.000000
# 3 -0.006158 -0.002665 0.009240 0.000000 0.000000 0.000000
# 4 0.000000 0.000000 0.000000 0.028497 0.000000 0.000000
# 5 0.000000 0.000000 0.000000 0.000000 0.017309 0.000000
# 6 0.000000 0.000000 0.000000 0.000000 0.000000 0.030226
#
#
# Mechanical properties :
#
#
# Convention : Reuss Voigt Hill
#
# Bulk Modulus (GPa) = 27.47856 55.24604 41.36230
# Shear Modulus (GPa) = 28.41669 38.99099 33.70384
#
# Velocity S-wave (km/s) = 3.62925 4.25121 3.95248
# Velocity P-wave (km/s) = 5.50442 7.05012 6.32467
#
# Compressibility (1/GPa) = 0.03639202
#
# Stress axis : x y z
#
# Youngs Moduli (GPa) = 22.78504 111.57400 108.22458
#
# Poissons Ratio (x) = 0.44927 0.66647
# Poissons Ratio (y) = 0.09175 0.28839
# Poissons Ratio (z) = 0.14032 0.29731
#
# Static dielectric constant tensor:
#      x y z
#    x 1.844700 0.000000 0.000000 
#    y 0.000000 1.895440 0.000000 
#    z 0.000000 0.000000 1.890390 
# 
# From -- ./inp_files/23926.got.cif
#   From: 2010.05.17/outbox.cif.g08.bks.cpg/sg74_12_cif.got.tgz:23926.got - 2010.06.03 17:57:02.
