data_PCOD9538891
_publ_section_title
;
Structure prediction by ZEFSAII (Michael W. Deem and Ramdas Pophale) SiO2 
 PCOD9538891
Probable space group: I M M A
;
_chemical_formula_sum "Si O2"
_cell_formula_units_Z 80
_cell_length_a 13.972524
_cell_length_b 18.281746
_cell_length_c 15.941016
_cell_angle_alpha 90.000000
_cell_angle_beta 90.000000
_cell_angle_gamma 90.000000
_cell_volume 4072.007157
_symmetry_space_group_name_H-M "I M M A"
_symmetry_group_IT_number 74
_symmetry_cell_setting 'orthorhombic'
loop_
_space_group_symop_operation_xyz
x,y,z
-x,1/2-y,z
x,-y,-z
-x,1/2+y,-z
-x,-y,-z
x,1/2+y,-z
-x,y,z
x,1/2-y,z
1/2+x,1/2+y,1/2+z
1/2-x,-y,1/2+z
1/2+x,1/2-y,1/2-z
1/2-x,y,1/2-z
1/2-x,1/2-y,1/2-z
1/2+x,y,1/2-z
1/2-x,1/2+y,1/2+z
1/2+x,-y,1/2+z
loop_
_atom_site_type_symbol
_atom_site_label
_atom_site_fract_x
_atom_site_fract_y
_atom_site_fract_z
Si Si1 0.610108 0.032234 0.404806
Si Si2 0.885646 0.918244 0.472433
Si Si3 0.116166 0.670593 0.315034
Si Si4 0.780237 0.166490 0.040866
Si Si5 0.115759 0.373912 0.867322
O O1 0.500000 0.050734 0.387737
O O2 0.671752 0.105018 0.400579
O O3 0.614959 0.000000 0.500000
O O4 0.637070 0.960037 0.353864
O O5 0.858575 0.895472 0.377184
O O6 0.828295 0.859674 0.527161
O O7 0.000000 0.912895 0.481394
O O8 0.856207 0.000000 0.500000
O O9 0.146178 0.750000 0.349861
O O10 0.145757 0.664124 0.218615
O O11 0.000000 0.670174 0.312875
O O12 0.788811 0.250000 0.067801
O O13 0.834075 0.156554 0.950564
O O14 0.000000 0.367341 0.878734
#
# Coordination Sequence:
#
# PCOD9538891 Si02
#       5
#    16  16  16  16  16
#     4   8  15  28  45  67  97 130 160 186 218 273
#     4  10  21  36  50  64  88 124 164 202 239 282
#     4   9  17  30  49  74 100 121 147 189 238 284
#     4  11  20  29  46  70  96 127 162 197 233 275
#     4   9  17  30  48  72 104 133 151 178 228 288
#
# _framework density 19.646331
#
# number of rings (size 3 to 8) (size 9 to 14) (size 15 to 20)
#    0.000    2.600    0.000    4.800    0.000    4.400 
#    0.000    2.000    0.000    0.000    0.000    4.200 
#    0.000   16.000    0.000    0.000    0.000    0.000 
#
# Total GULP energy -223115.349222 kJ/mol
# GULP energy per Si atom -5577.883731 kJ/mol
# Density = 1.960161 g / cm^3
# Si number density = 19.646331 Si / 1000 Ang^3
#
#
#
# Elastic Constant Matrix: (Units=GPa)
#
#
# Indices 1 2 3 4 5 6 
#
# 1 69.5534 24.4474 -0.9236 0.0000 0.0000 0.0000
# 2 24.4474 135.1863 21.2771 0.0000 0.0000 0.0000
# 3 -0.9236 21.2771 29.0640 -0.0001 0.0000 0.0000
# 4 0.0000 0.0000 -0.0001 28.7317 0.0000 0.0000
# 5 0.0000 0.0000 0.0000 0.0000 13.2438 0.0000
# 6 0.0000 0.0000 0.0000 0.0000 0.0000 19.8580
#
#
#
# Elastic Compliance Matrix: (Units=1/GPa)
#
#
# Indices 1 2 3 4 5 6 
#
# 1 0.015565 -0.003269 0.002888 0.000000 0.000000 0.000000
# 2 -0.003269 0.009047 -0.006727 0.000000 0.000000 0.000000
# 3 0.002888 -0.006727 0.039423 0.000000 0.000000 0.000000
# 4 0.000000 0.000000 0.000000 0.034805 0.000000 0.000000
# 5 0.000000 0.000000 0.000000 0.000000 0.075507 0.000000
# 6 0.000000 0.000000 0.000000 0.000000 0.000000 0.050358
#
#
# Mechanical properties :
#
#
# Convention : Reuss Voigt Hill
#
# Bulk Modulus (GPa) = 20.07281 35.93394 28.00337
# Shear Modulus (GPa) = 19.56730 24.96688 22.26709
#
# Velocity S-wave (km/s) = 3.15933 3.56872 3.37025
# Velocity P-wave (km/s) = 4.85261 5.94232 5.42489
#
# Compressibility (1/GPa) = 0.04981863
#
# Stress axis : x y z
#
# Youngs Moduli (GPa) = 64.24699 110.53116 25.36562
#
# Poissons Ratio (x) = 0.36136 -0.07326
# Poissons Ratio (y) = 0.21005 0.17064
# Poissons Ratio (z) = -0.18555 0.74356
#
# Static dielectric constant tensor:
#      x y z
#    x 1.750550 0.000000 0.000000 
#    y 0.000000 1.709330 0.000000 
#    z 0.000000 0.000000 1.686030 
# 
# From -- ./inp_files/42696.got.cif
#   From: 2010.05.17/outbox.cif.g08.bks.cpg/sg74_22_cif.got.tgz:42696.got - 2010.06.03 17:57:02.
