data_PCOD9538153
_publ_section_title
;
Structure prediction by ZEFSAII (Michael W. Deem and Ramdas Pophale) SiO2 
 PCOD9538153
Probable space group: I M M A
;
_chemical_formula_sum "Si O2"
_cell_formula_units_Z 68
_cell_length_a 7.741855
_cell_length_b 23.419317
_cell_length_c 19.467818
_cell_angle_alpha 90.000000
_cell_angle_beta 90.000000
_cell_angle_gamma 90.000000
_cell_volume 3529.689765
_symmetry_space_group_name_H-M "I M M A"
_symmetry_group_IT_number 74
_symmetry_cell_setting 'orthorhombic'
loop_
_space_group_symop_operation_xyz
x,y,z
-x,1/2-y,z
x,-y,-z
-x,1/2+y,-z
-x,-y,-z
x,1/2+y,-z
-x,y,z
x,1/2-y,z
1/2+x,1/2+y,1/2+z
1/2-x,-y,1/2+z
1/2+x,1/2-y,1/2-z
1/2-x,y,1/2-z
1/2-x,1/2-y,1/2-z
1/2+x,y,1/2-z
1/2-x,1/2+y,1/2+z
1/2+x,-y,1/2+z
loop_
_atom_site_type_symbol
_atom_site_label
_atom_site_fract_x
_atom_site_fract_y
_atom_site_fract_z
Si Si1 0.799433 0.078838 0.034717
Si Si2 0.706502 0.887986 0.327177
Si Si3 0.794289 0.518441 0.826059
Si Si4 0.500000 0.500000 0.000000
Si Si5 0.203116 0.314683 0.540851
O O1 0.000000 0.061527 0.023150
O O2 0.741676 0.058840 0.111034
O O3 0.788365 0.145176 0.016623
O O4 0.655377 0.047819 0.988808
O O5 0.500000 0.890629 0.334751
O O6 0.750000 0.868471 0.250000
O O7 0.774903 0.953534 0.332686
O O8 0.771864 0.846303 0.386181
O O9 0.750000 0.539639 0.750000
O O10 0.000000 0.514802 0.829999
O O11 0.270168 0.250000 0.543270
O O12 0.000000 0.312585 0.526269
#
# Coordination Sequence:
#
# PCOD9538153 Si02
#       5
#    16  16  16   4  16
#     4  11  23  39  60  93 123 157 205 250 305 369
#     4  10  20  36  56  83 118 156 199 249 304 360
#     4   9  20  35  58  89 123 155 191 245 303 369
#     4  12  22  36  62  90 124 164 186 252 304 370
#     4  11  24  41  60  84 116 162 213 257 302 357
#
# _framework density 19.265149000000001
#
# number of rings (size 3 to 8) (size 9 to 14) (size 15 to 20)
#    0.000    1.647    1.176    3.176    1.647    5.176 
#    0.000    0.000    0.000    0.706    0.000    0.000 
#    0.000    0.000    0.000    0.000    0.000    0.000 
#
# Total GULP energy -189270.374267 kJ/mol
# GULP energy per Si atom -5566.775714 kJ/mol
# Density = 1.922130 g / cm^3
# Si number density = 19.265149 Si / 1000 Ang^3
#
#
#
# Elastic Constant Matrix: (Units=GPa)
#
#
# Indices 1 2 3 4 5 6 
#
# 1 91.1464 13.6647 5.7159 0.0000 0.0000 0.0000
# 2 13.6647 139.1821 69.4993 0.0000 0.0000 0.0000
# 3 5.7159 69.4993 97.0955 0.0000 0.0000 0.0000
# 4 0.0000 0.0000 0.0000 24.5385 0.0000 0.0000
# 5 0.0000 0.0000 0.0000 0.0000 17.1381 0.0000
# 6 0.0000 0.0000 0.0000 0.0000 0.0000 26.3572
#
#
#
# Elastic Compliance Matrix: (Units=1/GPa)
#
#
# Indices 1 2 3 4 5 6 
#
# 1 0.011138 -0.001192 0.000198 0.000000 0.000000 0.000000
# 2 -0.001192 0.011309 -0.008024 0.000000 0.000000 0.000000
# 3 0.000198 -0.008024 0.016031 0.000000 0.000000 0.000000
# 4 0.000000 0.000000 0.000000 0.040752 0.000000 0.000000
# 5 0.000000 0.000000 0.000000 0.000000 0.058349 0.000000
# 6 0.000000 0.000000 0.000000 0.000000 0.000000 0.037940
#
#
# Mechanical properties :
#
#
# Convention : Reuss Voigt Hill
#
# Bulk Modulus (GPa) = 48.92410 56.13155 52.52782
# Shear Modulus (GPa) = 24.95370 29.50971 27.23170
#
# Velocity S-wave (km/s) = 3.60290 3.91802 3.76376
# Velocity P-wave (km/s) = 6.53897 7.04751 6.79800
#
# Compressibility (1/GPa) = 0.02043982
#
# Stress axis : x y z
#
# Youngs Moduli (GPa) = 89.78521 88.42648 62.37805
#
# Poissons Ratio (x) = 0.10542 -0.01233
# Poissons Ratio (y) = 0.10704 0.50055
# Poissons Ratio (z) = -0.01775 0.70958
#
# Static dielectric constant tensor:
#      x y z
#    x 1.702690 0.000000 0.000000 
#    y 0.000000 1.703540 0.000000 
#    z 0.000000 0.000000 1.732820 
# 
# From -- ./inp_files/39192.got.cif
#   From: 2010.05.17/outbox.cif.g08.bks.cpg/sg74_20_cif.got.tgz:39192.got - 2010.06.03 17:57:02.
