data_PCOD9538075
_publ_section_title
;
Structure prediction by ZEFSAII (Michael W. Deem and Ramdas Pophale) SiO2 
 PCOD9538075
Probable space group: I M M A
;
_chemical_formula_sum "Si O2"
_cell_formula_units_Z 112
_cell_length_a 29.218100
_cell_length_b 16.026949
_cell_length_c 12.495918
_cell_angle_alpha 90.000000
_cell_angle_beta 90.000000
_cell_angle_gamma 90.000000
_cell_volume 5851.550976
_symmetry_space_group_name_H-M "I M M A"
_symmetry_group_IT_number 74
_symmetry_cell_setting 'orthorhombic'
loop_
_space_group_symop_operation_xyz
x,y,z
-x,1/2-y,z
x,-y,-z
-x,1/2+y,-z
-x,-y,-z
x,1/2+y,-z
-x,y,z
x,1/2-y,z
1/2+x,1/2+y,1/2+z
1/2-x,-y,1/2+z
1/2+x,1/2-y,1/2-z
1/2-x,y,1/2-z
1/2-x,1/2-y,1/2-z
1/2+x,y,1/2-z
1/2-x,1/2+y,1/2+z
1/2+x,-y,1/2+z
loop_
_atom_site_type_symbol
_atom_site_label
_atom_site_fract_x
_atom_site_fract_y
_atom_site_fract_z
Si Si1 0.805904 0.903029 0.006924
Si Si2 0.450019 0.149946 0.792999
Si Si3 0.647627 0.150925 0.719046
Si Si4 0.304421 0.654915 0.733365
Si Si5 0.449159 0.150977 0.049734
Si Si6 0.646177 0.581428 0.925675
Si Si7 0.209362 0.654564 0.409306
O O1 0.812904 0.862728 0.891109
O O2 0.836669 0.863055 0.099004
O O3 0.753148 0.892695 0.044594
O O4 0.816563 0.000000 0.000000
O O5 0.500000 0.116903 0.757842
O O6 0.450812 0.250000 0.772460
O O7 0.402890 0.115937 0.743925
O O8 0.447166 0.140360 0.921115
O O9 0.645590 0.250000 0.741871
O O10 0.686745 0.119514 0.800991
O O11 0.319170 0.750000 0.759811
O O12 0.250000 0.650298 0.750000
O O13 0.327845 0.589511 0.813494
O O14 0.500000 0.125009 0.085342
O O15 0.444019 0.250000 0.071281
O O16 0.406883 0.099834 0.094554
O O17 0.651741 0.500000 0.000000
O O18 0.669419 0.651148 0.002027
O O19 0.224423 0.750000 0.391441
#
# Coordination Sequence:
#
# PCOD9538075 Si02
#       7
#    16  16  16  16  16  16  16
#     4  12  26  38  56  81 120 156 200 245 293 346
#     4   8  14  27  53  87 113 136 175 232 289 337
#     4  10  20  35  60  86 114 147 188 240 292 345
#     4  11  24  41  60  79 112 163 209 243 292 368
#     4   9  17  33  58  86 117 153 194 240 294 359
#     4  12  24  36  59  88 121 154 194 247 301 351
#     4  11  21  38  60  83 111 148 191 240 293 348
#
# _framework density 19.140224
#
# number of rings (size 3 to 8) (size 9 to 14) (size 15 to 20)
#    0.000    1.571    2.857    4.286    2.000    1.429 
#    0.000    0.000    0.000    1.286    0.000    2.000 
#    0.000    0.000    0.000    0.000    0.000    0.000 
#
# Total GULP energy -312686.864298 kJ/mol
# GULP energy per Si atom -5583.694005 kJ/mol
# Density = 1.909666 g / cm^3
# Si number density = 19.140224 Si / 1000 Ang^3
#
#
#
# Elastic Constant Matrix: (Units=GPa)
#
#
# Indices 1 2 3 4 5 6 
#
# 1 103.4755 23.1662 37.6707 0.0000 0.0000 0.0000
# 2 23.1662 47.3879 14.5419 0.0000 0.0000 0.0000
# 3 37.6707 14.5419 109.8656 0.0000 0.0000 0.0000
# 4 0.0000 0.0000 0.0000 5.5980 0.0000 0.0000
# 5 0.0000 0.0000 0.0000 0.0000 16.3766 0.0000
# 6 0.0000 0.0000 0.0000 0.0000 0.0000 -12.1947
#
#
#
# Elastic Compliance Matrix: (Units=1/GPa)
#
#
# Indices 1 2 3 4 5 6 
#
# 1 0.012006 -0.004801 -0.003481 0.000000 0.000000 0.000000
# 2 -0.004801 0.023916 -0.001519 0.000000 0.000000 0.000000
# 3 -0.003481 -0.001519 0.010497 0.000000 0.000000 0.000000
# 4 0.000000 0.000000 0.000000 0.178634 0.000000 0.000000
# 5 0.000000 0.000000 0.000000 0.000000 0.061063 0.000000
# 6 0.000000 0.000000 0.000000 0.000000 0.000000 -0.082003
#
#
# Mechanical properties :
#
#
# Convention : Reuss Voigt Hill
#
# Bulk Modulus (GPa) = 37.29185 45.72071 41.50628
# Shear Modulus (GPa) = 21.49111 14.31269 17.90190
#
# Velocity S-wave (km/s) = 3.35449 2.73752 3.06159
# Velocity P-wave (km/s) = 5.87616 5.82504 5.85066
#
# Compressibility (1/GPa) = 0.02681551
#
# Stress axis : x y z
#
# Youngs Moduli (GPa) = 83.28905 41.81339 95.26732
#
# Poissons Ratio (x) = 0.20075 0.33165
# Poissons Ratio (y) = 0.39989 0.14474
# Poissons Ratio (z) = 0.28995 0.06353
#
# Static dielectric constant tensor:
#      x y z
#    x 1.692930 0.000000 0.000000 
#    y 0.000000 1.713570 0.000000 
#    z 0.000000 0.000000 1.659800 
# 
# From -- ./inp_files/21107.got.cif
#   From: 2010.05.17/outbox.cif.g08.bks.cpg/sg74_11_cif.got.tgz:21107.got - 2010.06.03 17:57:02.
