data_PCOD9538410
_publ_section_title
;
Structure prediction by ZEFSAII (Michael W. Deem and Ramdas Pophale) SiO2 
 PCOD9538410
Probable space group: I M M A
;
_chemical_formula_sum "Si O2"
_cell_formula_units_Z 80
_cell_length_a 23.351726
_cell_length_b 15.322236
_cell_length_c 9.797784
_cell_angle_alpha 90.000000
_cell_angle_beta 90.000000
_cell_angle_gamma 90.000000
_cell_volume 3505.653550
_symmetry_space_group_name_H-M "I M M A"
_symmetry_group_IT_number 74
_symmetry_cell_setting 'orthorhombic'
loop_
_space_group_symop_operation_xyz
x,y,z
-x,1/2-y,z
x,-y,-z
-x,1/2+y,-z
-x,-y,-z
x,1/2+y,-z
-x,y,z
x,1/2-y,z
1/2+x,1/2+y,1/2+z
1/2-x,-y,1/2+z
1/2+x,1/2-y,1/2-z
1/2-x,y,1/2-z
1/2-x,1/2-y,1/2-z
1/2+x,y,1/2-z
1/2-x,1/2+y,1/2+z
1/2+x,-y,1/2+z
loop_
_atom_site_type_symbol
_atom_site_label
_atom_site_fract_x
_atom_site_fract_y
_atom_site_fract_z
Si Si1 0.849755 0.654153 0.219002
Si Si2 0.561440 0.147986 0.126529
Si Si3 0.398969 0.478666 0.345366
Si Si4 0.801968 0.152738 0.089141
Si Si5 0.816217 0.396296 0.499626
O O1 0.877014 0.750000 0.227755
O O2 0.891714 0.571590 0.226471
O O3 0.809092 0.642286 0.348873
O O4 0.819449 0.648378 0.071900
O O5 0.500000 0.132483 0.054871
O O6 0.563722 0.250000 0.162294
O O7 0.563190 0.087527 0.260144
O O8 0.619420 0.126344 0.045731
O O9 0.416661 0.500000 0.500000
O O10 0.337596 0.427639 0.349145
O O11 0.818836 0.250000 0.137423
O O12 0.733867 0.141624 0.094823
O O13 0.809216 0.500000 0.500000
#
# Coordination Sequence:
#
# PCOD9538410 Si02
#       5
#    16  16  16  16  16
#     4  10  20  37  59  90 127 163 198 243 306 372
#     4  11  25  44  65  89 121 164 213 263 314 369
#     4  10  21  41  63  92 123 160 204 258 312 376
#     4  10  21  36  62  96 130 162 199 248 309 378
#     4  12  22  38  62  91 127 167 203 251 311 375
#
# _framework density 22.820281000000001
#
# number of rings (size 3 to 8) (size 9 to 14) (size 15 to 20)
#    0.000    1.400    2.000    4.800    0.000    4.000 
#    0.000    2.000    0.000    0.600    0.000    5.600 
#    0.000    0.000    0.000    0.000    0.000    0.000 
#
# Total GULP energy -223627.000745 kJ/mol
# GULP energy per Si atom -5590.675019 kJ/mol
# Density = 2.276834 g / cm^3
# Si number density = 22.820281 Si / 1000 Ang^3
#
#
#
# Elastic Constant Matrix: (Units=GPa)
#
#
# Indices 1 2 3 4 5 6 
#
# 1 104.1416 20.4684 9.2594 0.0000 0.0000 0.0000
# 2 20.4684 175.2388 16.8941 0.0000 0.0000 0.0000
# 3 9.2594 16.8941 58.9169 0.0000 0.0000 0.0000
# 4 0.0000 0.0000 0.0000 24.9555 0.0000 0.0000
# 5 0.0000 0.0000 0.0000 0.0000 10.5080 0.0000
# 6 0.0000 0.0000 0.0000 0.0000 0.0000 15.8644
#
#
#
# Elastic Compliance Matrix: (Units=1/GPa)
#
#
# Indices 1 2 3 4 5 6 
#
# 1 0.009918 -0.001037 -0.001261 0.000000 0.000000 0.000000
# 2 -0.001037 0.005977 -0.001551 0.000000 0.000000 0.000000
# 3 -0.001261 -0.001551 0.017616 0.000000 0.000000 0.000000
# 4 0.000000 0.000000 0.000000 0.040071 0.000000 0.000000
# 5 0.000000 0.000000 0.000000 0.000000 0.095166 0.000000
# 6 0.000000 0.000000 0.000000 0.000000 0.000000 0.063034
#
#
# Mechanical properties :
#
#
# Convention : Reuss Voigt Hill
#
# Bulk Modulus (GPa) = 38.74034 47.94902 43.34468
# Shear Modulus (GPa) = 20.15435 29.71061 24.93248
#
# Velocity S-wave (km/s) = 2.97505 3.61215 3.30897
# Velocity P-wave (km/s) = 5.36790 6.20113 5.79950
#
# Compressibility (1/GPa) = 0.02581289
#
# Stress axis : x y z
#
# Youngs Moduli (GPa) = 100.82419 167.30438 56.76647
#
# Poissons Ratio (x) = 0.17347 0.07161
# Poissons Ratio (y) = 0.10454 0.08804
# Poissons Ratio (z) = 0.12718 0.25948
#
# Static dielectric constant tensor:
#      x y z
#    x 1.855770 0.000000 0.000000 
#    y 0.000000 1.807080 0.000000 
#    z 0.000000 0.000000 1.916230 
# 
# From -- ./inp_files/24879.got.cif
#   From: 2010.05.17/outbox.cif.g08.bks.cpg/sg74_13_cif.got.tgz:24879.got - 2010.06.03 17:57:02.
