data_PCOD9538935
_publ_section_title
;
Structure prediction by ZEFSAII (Michael W. Deem and Ramdas Pophale) SiO2 
 PCOD9538935
Probable space group: I M M A
;
_chemical_formula_sum "Si O2"
_cell_formula_units_Z 120
_cell_length_a 9.492762
_cell_length_b 28.214599
_cell_length_c 25.178768
_cell_angle_alpha 90.000000
_cell_angle_beta 90.000000
_cell_angle_gamma 90.000000
_cell_volume 6743.742064
_symmetry_space_group_name_H-M "I M M A"
_symmetry_group_IT_number 74
_symmetry_cell_setting 'orthorhombic'
loop_
_space_group_symop_operation_xyz
x,y,z
-x,1/2-y,z
x,-y,-z
-x,1/2+y,-z
-x,-y,-z
x,1/2+y,-z
-x,y,z
x,1/2-y,z
1/2+x,1/2+y,1/2+z
1/2-x,-y,1/2+z
1/2+x,1/2-y,1/2-z
1/2-x,y,1/2-z
1/2-x,1/2-y,1/2-z
1/2+x,y,1/2-z
1/2-x,1/2+y,1/2+z
1/2+x,-y,1/2+z
loop_
_atom_site_type_symbol
_atom_site_label
_atom_site_fract_x
_atom_site_fract_y
_atom_site_fract_z
Si Si1 0.165153 0.193033 0.104449
Si Si2 0.837283 0.693437 0.496852
Si Si3 0.000000 0.575309 0.260355
Si Si4 0.666422 0.039493 0.133338
Si Si5 0.265702 0.936742 0.331386
Si Si6 0.661189 0.625004 0.434338
Si Si7 0.668086 0.863861 0.805116
Si Si8 0.837549 0.950255 0.970980
O O1 0.168961 0.250000 0.112023
O O2 0.240953 0.182766 0.048372
O O3 0.254287 0.167702 0.150390
O O4 0.000000 0.178338 0.104004
O O5 0.833953 0.750000 0.489422
O O6 0.769903 0.666707 0.446953
O O7 0.000000 0.679249 0.506031
O O8 0.121996 0.580947 0.305753
O O9 0.119525 0.566415 0.214313
O O10 0.500000 0.029958 0.127115
O O11 0.681655 0.081515 0.176013
O O12 0.734309 0.056444 0.078216
O O13 0.742186 0.991260 0.150874
O O14 0.307979 0.905023 0.381792
O O15 0.500000 0.642688 0.432550
O O16 0.674131 0.589538 0.484306
O O17 0.500000 0.853185 0.801324
O O18 0.750000 0.856956 0.750000
O O19 0.000000 0.951572 0.951814
O O20 0.807697 0.000000 0.000000
#
# Coordination Sequence:
#
# PCOD9538935 Si02
#       8
#    16  16   8  16  16  16  16  16
#     4  10  21  41  65  88 116 152 194 241 300 362
#     4  10  22  39  63  94 125 154 188 239 299 355
#     4  10  24  38  60  80 119 150 205 244 290 334
#     4  11  24  38  55  82 118 157 200 246 298 345
#     4  11  22  40  58  87 112 160 198 247 289 344
#     4  11  22  38  61  89 121 158 200 239 292 356
#     4  11  25  40  57  84 115 156 206 254 302 350
#     4  10  21  36  54  81 118 157 195 237 289 353
#
# _framework density 17.794276
#
# number of rings (size 3 to 8) (size 9 to 14) (size 15 to 20)
#    0.000    1.467    2.667    2.000    3.733    5.867 
#    0.000    0.000    0.000    0.000    0.000    2.800 
#    0.000    0.000    0.000    0.000    0.000    0.000 
#
# Total GULP energy -334029.993149 kJ/mol
# GULP energy per Si atom -5567.166552 kJ/mol
# Density = 1.775378 g / cm^3
# Si number density = 17.794276 Si / 1000 Ang^3
#
#
#
# Elastic Constant Matrix: (Units=GPa)
#
#
# Indices 1 2 3 4 5 6 
#
# 1 137.7823 33.2101 30.4130 0.0000 0.0000 0.0000
# 2 33.2101 41.8738 32.9032 0.0000 0.0000 0.0000
# 3 30.4130 32.9032 51.4286 0.0000 0.0000 0.0000
# 4 0.0000 0.0000 0.0000 6.5280 0.0000 0.0000
# 5 0.0000 0.0000 0.0000 0.0000 32.6859 0.0000
# 6 0.0000 0.0000 0.0000 0.0000 0.0000 53.7634
#
#
#
# Elastic Compliance Matrix: (Units=1/GPa)
#
#
# Indices 1 2 3 4 5 6 
#
# 1 0.009032 -0.005965 -0.001525 0.000000 0.000000 0.000000
# 2 -0.005965 0.051964 -0.029718 0.000000 0.000000 0.000000
# 3 -0.001525 -0.029718 0.039359 0.000000 0.000000 0.000000
# 4 0.000000 0.000000 0.000000 0.153186 0.000000 0.000000
# 5 0.000000 0.000000 0.000000 0.000000 0.030594 0.000000
# 6 0.000000 0.000000 0.000000 0.000000 0.000000 0.018600
#
#
# Mechanical properties :
#
#
# Convention : Reuss Voigt Hill
#
# Bulk Modulus (GPa) = 38.55180 47.12637 42.83909
# Shear Modulus (GPa) = 12.96014 27.56603 20.26309
#
# Velocity S-wave (km/s) = 2.70169 3.94020 3.37819
# Velocity P-wave (km/s) = 5.60754 6.87326 6.27241
#
# Compressibility (1/GPa) = 0.02593913
#
# Stress axis : x y z
#
# Youngs Moduli (GPa) = 110.71453 19.24418 25.40703
#
# Poissons Ratio (x) = 0.11480 0.03874
# Poissons Ratio (y) = 0.66044 0.75504
# Poissons Ratio (z) = 0.16882 0.57190
#
# Static dielectric constant tensor:
#      x y z
#    x 1.602620 0.000000 0.000000 
#    y 0.000000 1.620660 0.000000 
#    z 0.000000 0.000000 1.578680 
# 
# From -- ./inp_files/65141.got.cif
#   From: 2010.05.17/outbox.cif.g08.bks.cpg/sg74_33_cif.got.tgz:65141.got - 2010.06.03 17:57:02.
