data_PCOD9538300
_publ_section_title
;
Structure prediction by ZEFSAII (Michael W. Deem and Ramdas Pophale) SiO2 
 PCOD9538300
Probable space group: I M M A
;
_chemical_formula_sum "Si O2"
_cell_formula_units_Z 120
_cell_length_a 22.562580
_cell_length_b 15.038713
_cell_length_c 15.354504
_cell_angle_alpha 90.000000
_cell_angle_beta 90.000000
_cell_angle_gamma 90.000000
_cell_volume 5209.969997
_symmetry_space_group_name_H-M "I M M A"
_symmetry_group_IT_number 74
_symmetry_cell_setting 'orthorhombic'
loop_
_space_group_symop_operation_xyz
x,y,z
-x,1/2-y,z
x,-y,-z
-x,1/2+y,-z
-x,-y,-z
x,1/2+y,-z
-x,y,z
x,1/2-y,z
1/2+x,1/2+y,1/2+z
1/2-x,-y,1/2+z
1/2+x,1/2-y,1/2-z
1/2-x,y,1/2-z
1/2-x,1/2-y,1/2-z
1/2+x,y,1/2-z
1/2-x,1/2+y,1/2+z
1/2+x,-y,1/2+z
loop_
_atom_site_type_symbol
_atom_site_label
_atom_site_fract_x
_atom_site_fract_y
_atom_site_fract_z
Si Si1 0.348853 0.857150 0.918000
Si Si2 0.565521 0.858452 0.767538
Si Si3 0.717609 0.931021 0.580199
Si Si4 0.275849 0.896569 0.340225
Si Si5 0.147839 0.856437 0.393336
Si Si6 0.409170 0.645823 0.568856
Si Si7 0.099798 0.852838 0.204724
Si Si8 0.000000 0.417976 0.921511
O O1 0.351500 0.750000 0.917886
O O2 0.385639 0.890933 0.835457
O O3 0.280525 0.884725 0.910362
O O4 0.374558 0.887360 0.012062
O O5 0.500000 0.884932 0.796677
O O6 0.568375 0.750000 0.767777
O O7 0.573554 0.882587 0.666711
O O8 0.710754 0.001538 0.338917
O O9 0.661290 0.868997 0.566027
O O10 0.716144 0.000000 0.500000
O O11 0.250000 0.861976 0.250000
O O12 0.218105 0.878838 0.398021
O O13 0.339306 0.852559 0.351592
O O14 0.142978 0.750000 0.389912
O O15 0.118043 0.885842 0.302156
O O16 0.423208 0.750000 0.556251
O O17 0.448491 0.593978 0.499026
O O18 0.078769 0.750000 0.209840
O O19 0.051708 0.909194 0.153986
#
# Coordination Sequence:
#
# PCOD9538300 Si02
#       8
#    16  16  16  16  16  16  16   8
#     4  10  21  38  62  90 122 156 198 248 300 351
#     4   9  19  39  65  92 117 153 203 251 298 353
#     4  12  24  38  58  91 122 160 198 249 298 360
#     4  10  21  37  57  85 118 157 194 242 301 355
#     4   9  18  36  59  87 117 150 192 244 298 355
#     4  11  23  40  63  88 121 159 203 249 301 357
#     4  10  20  36  60  87 117 154 200 243 294 363
#     4  12  23  38  63  92 119 157 200 251 302 356
#
# _framework density 23.032762000000002
#
# number of rings (size 3 to 8) (size 9 to 14) (size 15 to 20)
#    0.000    1.733    2.000    2.800    1.867    1.600 
#    1.200    5.000    0.000    0.400    0.000    0.000 
#    0.000    0.000    0.000    0.000    0.000    0.000 
#
# Total GULP energy -334088.837688 kJ/mol
# GULP energy per Si atom -5568.147295 kJ/mol
# Density = 2.298034 g / cm^3
# Si number density = 23.032762 Si / 1000 Ang^3
#
#
#
# Elastic Constant Matrix: (Units=GPa)
#
#
# Indices 1 2 3 4 5 6 
#
# 1 161.2501 12.4097 76.0515 0.0000 0.0000 0.0000
# 2 12.4097 61.6636 43.8333 0.0000 0.0000 0.0000
# 3 76.0515 43.8333 98.3627 0.0000 0.0000 0.0000
# 4 0.0000 0.0000 0.0000 10.0893 0.0000 0.0000
# 5 0.0000 0.0000 0.0000 0.0000 34.9827 0.0000
# 6 0.0000 0.0000 0.0000 0.0000 0.0000 1.9803
#
#
#
# Elastic Compliance Matrix: (Units=1/GPa)
#
#
# Indices 1 2 3 4 5 6 
#
# 1 0.010929 0.005573 -0.010934 0.000000 0.000000 0.000000
# 2 0.005573 0.026577 -0.016152 0.000000 0.000000 0.000000
# 3 -0.010934 -0.016152 0.025818 0.000000 0.000000 0.000000
# 4 0.000000 0.000000 0.000000 0.099115 0.000000 0.000000
# 5 0.000000 0.000000 0.000000 0.000000 0.028586 0.000000
# 6 0.000000 0.000000 0.000000 0.000000 0.000000 0.504965
#
#
# Mechanical properties :
#
#
# Convention : Reuss Voigt Hill
#
# Bulk Modulus (GPa) = 49.26558 65.09615 57.18086
# Shear Modulus (GPa) = 6.70437 22.00927 14.35682
#
# Velocity S-wave (km/s) = 1.70796 3.09457 2.49935
# Velocity P-wave (km/s) = 5.03242 6.41033 5.76271
#
# Compressibility (1/GPa) = 0.02029815
#
# Stress axis : x y z
#
# Youngs Moduli (GPa) = 91.49647 37.62613 38.73275
#
# Poissons Ratio (x) = -0.20968 0.42349
# Poissons Ratio (y) = -0.50987 0.62562
# Poissons Ratio (z) = 1.00039 0.60775
#
# Static dielectric constant tensor:
#      x y z
#    x 1.824030 0.000000 0.000000 
#    y 0.000000 1.918650 0.000000 
#    z 0.000000 0.000000 2.005850 
# 
# From -- ./inp_files/35720.got.cif
#   From: 2010.05.17/outbox.cif.g08.bks.cpg/sg74_18_cif.got.tgz:35720.got - 2010.06.03 17:57:02.
