data_PCOD9538176
_publ_section_title
;
Structure prediction by ZEFSAII (Michael W. Deem and Ramdas Pophale) SiO2 
 PCOD9538176
Probable space group: I M M A
;
_chemical_formula_sum "Si O2"
_cell_formula_units_Z 96
_cell_length_a 22.739559
_cell_length_b 26.953182
_cell_length_c 7.397469
_cell_angle_alpha 90.000000
_cell_angle_beta 90.000000
_cell_angle_gamma 90.000000
_cell_volume 4533.934437
_symmetry_space_group_name_H-M "I M M A"
_symmetry_group_IT_number 74
_symmetry_cell_setting 'orthorhombic'
loop_
_space_group_symop_operation_xyz
x,y,z
-x,1/2-y,z
x,-y,-z
-x,1/2+y,-z
-x,-y,-z
x,1/2+y,-z
-x,y,z
x,1/2-y,z
1/2+x,1/2+y,1/2+z
1/2-x,-y,1/2+z
1/2+x,1/2-y,1/2-z
1/2-x,y,1/2-z
1/2-x,1/2-y,1/2-z
1/2+x,y,1/2-z
1/2-x,1/2+y,1/2+z
1/2+x,-y,1/2+z
loop_
_atom_site_type_symbol
_atom_site_label
_atom_site_fract_x
_atom_site_fract_y
_atom_site_fract_z
Si Si1 0.688280 0.459516 0.154214
Si Si2 0.563975 0.851541 0.867519
Si Si3 0.120600 0.306602 0.687831
Si Si4 0.563335 0.030785 0.188758
Si Si5 0.271194 0.135444 0.945594
Si Si6 0.658462 0.191521 0.408817
O O1 0.750000 0.464319 0.250000
O O2 0.629446 0.471835 0.269962
O O3 0.687440 0.500000 0.000000
O O4 0.692736 0.405678 0.056828
O O5 0.500000 0.831099 0.813023
O O6 0.561546 0.910458 0.846465
O O7 0.615884 0.827429 0.748912
O O8 0.576174 0.840077 0.076831
O O9 0.106955 0.250000 0.646437
O O10 0.185306 0.320441 0.613068
O O11 0.123289 0.313450 0.902015
O O12 0.500000 0.017379 0.277230
O O13 0.564402 0.000000 0.000000
O O14 0.250000 0.114171 0.750000
O O15 0.216567 0.157911 0.058161
O O16 0.673482 0.250000 0.384670
#
# Coordination Sequence:
#
# PCOD9538176 Si02
#       6
#    16  16  16  16  16  16
#     4  11  21  35  58  88 119 152 196 252 313 368
#     4  11  22  38  60  86 116 155 205 253 299 360
#     4  10  21  37  57  83 116 156 198 244 299 360
#     4   9  19  37  62  85 113 156 202 246 300 367
#     4  10  20  36  57  83 117 150 195 249 303 366
#     4  10  22  38  58  85 120 160 199 246 303 363
#
# _framework density 21.173663000000001
#
# number of rings (size 3 to 8) (size 9 to 14) (size 15 to 20)
#    0.000    1.833    1.667    2.500    0.000    4.000 
#    0.000    3.333    0.000    0.500    0.000    0.000 
#    0.000    0.000    0.000    0.000    0.000    0.000 
#
# Total GULP energy -267579.462946 kJ/mol
# GULP energy per Si atom -5574.572145 kJ/mol
# Density = 2.112547 g / cm^3
# Si number density = 21.173663 Si / 1000 Ang^3
#
#
#
# Elastic Constant Matrix: (Units=GPa)
#
#
# Indices 1 2 3 4 5 6 
#
# 1 139.0551 7.6289 35.2937 0.0000 0.0000 0.0000
# 2 7.6289 61.3824 21.7194 0.0000 0.0000 0.0000
# 3 35.2937 21.7194 54.8187 0.0000 0.0000 0.0000
# 4 0.0000 0.0000 0.0000 13.0582 0.0000 0.0000
# 5 0.0000 0.0000 0.0000 0.0000 -5.1057 0.0000
# 6 0.0000 0.0000 0.0000 0.0000 0.0000 -13.9745
#
#
#
# Elastic Compliance Matrix: (Units=1/GPa)
#
#
# Indices 1 2 3 4 5 6 
#
# 1 0.008653 0.001042 -0.005984 0.000000 0.000000 0.000000
# 2 0.001042 0.019073 -0.008228 0.000000 0.000000 0.000000
# 3 -0.005984 -0.008228 0.025354 0.000000 0.000000 0.000000
# 4 0.000000 0.000000 0.000000 0.076580 0.000000 0.000000
# 5 0.000000 0.000000 0.000000 0.000000 -0.195861 0.000000
# 6 0.000000 0.000000 0.000000 0.000000 0.000000 -0.071559
#
#
# Mechanical properties :
#
#
# Convention : Reuss Voigt Hill
#
# Bulk Modulus (GPa) = 37.39542 42.72669 40.06105
# Shear Modulus (GPa) = -48.77744 11.50322 -18.63711
#
# Velocity S-wave (km/s) = -4.80488 2.33337 -2.97004
# Velocity P-wave (km/s) = 3.61702 5.24237 2.68324
#
# Compressibility (1/GPa) = 0.02674124
#
# Stress axis : x y z
#
# Youngs Moduli (GPa) = 115.56690 52.42989 39.44100
#
# Poissons Ratio (x) = -0.05463 0.23601
# Poissons Ratio (y) = -0.12041 0.32451
# Poissons Ratio (z) = 0.69153 0.43137
#
# Static dielectric constant tensor:
#      x y z
#    x 1.889260 0.000000 0.000000 
#    y 0.000000 1.745700 0.000000 
#    z 0.000000 0.000000 1.796630 
# 
# From -- ./inp_files/12623.got.cif
#   From: 2010.05.17/outbox.cif.g08.bks.cpg/sg74_7_cif.got.tgz:12623.got - 2010.06.03 17:57:02.
