data_PCOD9538398
_publ_section_title
;
Structure prediction by ZEFSAII (Michael W. Deem and Ramdas Pophale) SiO2 
 PCOD9538398
Probable space group: I M M A
;
_chemical_formula_sum "Si O2"
_cell_formula_units_Z 88
_cell_length_a 32.237923
_cell_length_b 8.935333
_cell_length_c 16.405807
_cell_angle_alpha 90.000000
_cell_angle_beta 90.000000
_cell_angle_gamma 90.000000
_cell_volume 4725.800611
_symmetry_space_group_name_H-M "I M M A"
_symmetry_group_IT_number 74
_symmetry_cell_setting 'orthorhombic'
loop_
_space_group_symop_operation_xyz
x,y,z
-x,1/2-y,z
x,-y,-z
-x,1/2+y,-z
-x,-y,-z
x,1/2+y,-z
-x,y,z
x,1/2-y,z
1/2+x,1/2+y,1/2+z
1/2-x,-y,1/2+z
1/2+x,1/2-y,1/2-z
1/2-x,y,1/2-z
1/2-x,1/2-y,1/2-z
1/2+x,y,1/2-z
1/2-x,1/2+y,1/2+z
1/2+x,-y,1/2+z
loop_
_atom_site_type_symbol
_atom_site_label
_atom_site_fract_x
_atom_site_fract_y
_atom_site_fract_z
Si Si1 0.828116 0.081318 0.631822
Si Si2 0.255294 0.427349 0.347847
Si Si3 0.953907 0.424900 0.354921
Si Si4 0.607272 0.000000 0.000000
Si Si5 0.614759 0.930565 0.735183
Si Si6 0.159515 0.070722 0.911493
O O1 0.820821 0.250000 0.662229
O O2 0.860505 0.088606 0.557172
O O3 0.784833 0.002852 0.611154
O O4 0.849608 0.980300 0.701123
O O5 0.257488 0.250000 0.365487
O O6 0.250000 0.444992 0.250000
O O7 0.296679 0.508560 0.377628
O O8 0.958617 0.250000 0.337828
O O9 0.924407 0.432303 0.433976
O O10 0.927578 0.485207 0.278666
O O11 0.000000 0.490248 0.367277
O O12 0.615232 0.750000 0.727242
O O13 0.625003 0.009570 0.650857
O O14 0.159950 0.250000 0.914335
O O15 0.153103 0.000000 0.000000
#
# Coordination Sequence:
#
# PCOD9538398 Si02
#       6
#    16  16  16   8  16  16
#     4  11  22  35  54  80 113 157 205 246 295 348
#     4  11  23  39  59  81 112 151 197 247 295 344
#     4   9  18  34  58  86 117 156 198 241 293 355
#     4  10  21  34  52  82 126 162 202 246 293 348
#     4  10  20  37  59  84 115 150 192 240 294 353
#     4  12  25  41  62  86 116 151 196 246 300 357
#
# _framework density 18.621182000000001
#
# number of rings (size 3 to 8) (size 9 to 14) (size 15 to 20)
#    0.000    1.455    1.818    4.091    1.273    2.909 
#    0.000    0.000    0.000   11.455    0.000    0.000 
#    0.000    0.000    0.000    0.000    0.000    0.000 
#
# Total GULP energy -245459.387173 kJ/mol
# GULP energy per Si atom -5578.622436 kJ/mol
# Density = 1.857880 g / cm^3
# Si number density = 18.621182 Si / 1000 Ang^3
#
#
#
# Elastic Constant Matrix: (Units=GPa)
#
#
# Indices 1 2 3 4 5 6 
#
# 1 119.2527 37.1078 57.1623 0.0000 0.0000 0.0000
# 2 37.1078 112.1255 43.9928 0.0000 0.0000 0.0000
# 3 57.1623 43.9928 121.9298 0.0000 0.0000 0.0000
# 4 0.0000 0.0000 0.0000 13.9151 0.0000 0.0000
# 5 0.0000 0.0000 0.0000 0.0000 -5.5141 0.0000
# 6 0.0000 0.0000 0.0000 0.0000 0.0000 43.4039
#
#
#
# Elastic Compliance Matrix: (Units=1/GPa)
#
#
# Indices 1 2 3 4 5 6 
#
# 1 0.011157 -0.001911 -0.004541 0.000000 0.000000 0.000000
# 2 -0.001911 0.010717 -0.002971 0.000000 0.000000 0.000000
# 3 -0.004541 -0.002971 0.011402 0.000000 0.000000 0.000000
# 4 0.000000 0.000000 0.000000 0.071864 0.000000 0.000000
# 5 0.000000 0.000000 0.000000 0.000000 -0.181354 0.000000
# 6 0.000000 0.000000 0.000000 0.000000 0.000000 0.023039
#
#
# Mechanical properties :
#
#
# Convention : Reuss Voigt Hill
#
# Bulk Modulus (GPa) = 69.29784 69.98153 69.63968
# Shear Modulus (GPa) = -169.37784 24.69733 -72.34026
#
# Velocity S-wave (km/s) = -9.54763 3.64579 -6.23961
# Velocity P-wave (km/s) = 9.17865 7.44216 3.79881
#
# Compressibility (1/GPa) = 0.01443046
#
# Stress axis : x y z
#
# Youngs Moduli (GPa) = 89.63150 93.31390 87.70194
#
# Poissons Ratio (x) = 0.17829 0.39826
# Poissons Ratio (y) = 0.17125 0.26055
# Poissons Ratio (z) = 0.40702 0.27722
#
# Static dielectric constant tensor:
#      x y z
#    x 1.675320 0.000000 0.000000 
#    y 0.000000 1.644040 0.000000 
#    z 0.000000 0.000000 1.658420 
# 
# From -- ./inp_files/47023.got.cif
#   From: 2010.05.17/outbox.cif.g08.bks.cpg/sg74_24_cif.got.tgz:47023.got - 2010.06.03 17:57:02.
