data_PCOD9538493
_publ_section_title
;
Structure prediction by ZEFSAII (Michael W. Deem and Ramdas Pophale) SiO2 
 PCOD9538493
Probable space group: I M M A
;
_chemical_formula_sum "Si O2"
_cell_formula_units_Z 88
_cell_length_a 11.613570
_cell_length_b 21.149346
_cell_length_c 18.319472
_cell_angle_alpha 90.000000
_cell_angle_beta 90.000000
_cell_angle_gamma 90.000000
_cell_volume 4499.617908
_symmetry_space_group_name_H-M "I M M A"
_symmetry_group_IT_number 74
_symmetry_cell_setting 'orthorhombic'
loop_
_space_group_symop_operation_xyz
x,y,z
-x,1/2-y,z
x,-y,-z
-x,1/2+y,-z
-x,-y,-z
x,1/2+y,-z
-x,y,z
x,1/2-y,z
1/2+x,1/2+y,1/2+z
1/2-x,-y,1/2+z
1/2+x,1/2-y,1/2-z
1/2-x,y,1/2-z
1/2-x,1/2-y,1/2-z
1/2+x,y,1/2-z
1/2-x,1/2+y,1/2+z
1/2+x,-y,1/2+z
loop_
_atom_site_type_symbol
_atom_site_label
_atom_site_fract_x
_atom_site_fract_y
_atom_site_fract_z
Si Si1 0.874600 0.506064 0.586119
Si Si2 0.358518 0.750000 0.809854
Si Si3 0.866931 0.323015 0.946827
Si Si4 0.374168 0.564166 0.708936
Si Si5 0.249873 0.138441 0.402371
Si Si6 0.800892 0.575154 0.171548
O O1 0.878134 0.500000 0.500000
O O2 0.821950 0.574297 0.597507
O O3 0.801513 0.451398 0.621908
O O4 0.000000 0.501771 0.618343
O O5 0.500000 0.750000 0.790744
O O6 0.250000 0.750000 0.750000
O O7 0.325860 0.809927 0.860254
O O8 0.842055 0.250000 0.927166
O O9 0.854361 0.369290 0.877078
O O10 0.000000 0.326881 0.970931
O O11 0.788570 0.341903 0.016422
O O12 0.500000 0.576141 0.743552
O O13 0.250000 0.570421 0.750000
O O14 0.360321 0.616055 0.644937
O O15 0.372608 0.490149 0.684280
O O16 0.750000 0.595314 0.250000
#
# Coordination Sequence:
#
# PCOD9538493 Si02
#       6
#    16   8  16  16  16  16
#     4  10  20  37  64  94 126 164 208 257 320 387
#     4  12  28  46  68  96 135 178 221 268 321 384
#     4  11  23  40  63  88 120 166 217 268 322 384
#     4  10  22  38  62  94 130 167 209 262 320 383
#     4  11  22  40  63  93 126 163 217 264 318 376
#     4  10  22  39  63  93 129 161 208 267 327 387
#
# _framework density 19.557216
#
# number of rings (size 3 to 8) (size 9 to 14) (size 15 to 20)
#    0.000    1.455    2.727    2.182    0.000   12.000 
#    0.000    2.727    0.000    0.000    0.000    0.000 
#    0.000    0.000    0.000    0.000    0.000    0.000 
#
# Total GULP energy -245050.052600 kJ/mol
# GULP energy per Si atom -5569.319377 kJ/mol
# Density = 1.951270 g / cm^3
# Si number density = 19.557216 Si / 1000 Ang^3
#
#
#
# Elastic Constant Matrix: (Units=GPa)
#
#
# Indices 1 2 3 4 5 6 
#
# 1 122.5110 23.2760 21.9048 0.0000 0.0000 0.0000
# 2 23.2760 100.7008 29.0395 0.0000 0.0000 0.0000
# 3 21.9048 29.0395 93.0999 0.0000 0.0000 0.0000
# 4 0.0000 0.0000 0.0000 29.8557 0.0000 0.0000
# 5 0.0000 0.0000 0.0000 0.0000 2.6075 0.0000
# 6 0.0000 0.0000 0.0000 0.0000 0.0000 -22.7668
#
#
#
# Elastic Compliance Matrix: (Units=1/GPa)
#
#
# Indices 1 2 3 4 5 6 
#
# 1 0.008741 -0.001568 -0.001567 0.000000 0.000000 0.000000
# 2 -0.001568 0.011193 -0.003122 0.000000 0.000000 0.000000
# 3 -0.001567 -0.003122 0.012084 0.000000 0.000000 0.000000
# 4 0.000000 0.000000 0.000000 0.033494 0.000000 0.000000
# 5 0.000000 0.000000 0.000000 0.000000 0.383513 0.000000
# 6 0.000000 0.000000 0.000000 0.000000 0.000000 -0.043924
#
#
# Mechanical properties :
#
#
# Convention : Reuss Voigt Hill
#
# Bulk Modulus (GPa) = 51.27746 51.63913 51.45829
# Shear Modulus (GPa) = 11.78916 18.07868 14.93392
#
# Velocity S-wave (km/s) = 2.45787 3.04369 2.76633
# Velocity P-wave (km/s) = 5.85926 6.23005 6.04750
#
# Compressibility (1/GPa) = 0.01950175
#
# Stress axis : x y z
#
# Youngs Moduli (GPa) = 114.40670 89.33889 82.75504
#
# Poissons Ratio (x) = 0.14011 0.12971
# Poissons Ratio (y) = 0.17943 0.25839
# Poissons Ratio (z) = 0.17932 0.27895
#
# Static dielectric constant tensor:
#      x y z
#    x 1.803720 0.000000 0.000000 
#    y 0.000000 1.670210 0.000000 
#    z 0.000000 0.000000 2.110280 
# 
# From -- ./inp_files/41300.got.cif
#   From: 2010.05.17/outbox.cif.g08.bks.cpg/sg74_21_cif.got.tgz:41300.got - 2010.06.03 17:57:02.
