data_PCOD9538369
_publ_section_title
;
Structure prediction by ZEFSAII (Michael W. Deem and Ramdas Pophale) SiO2 
 PCOD9538369
Probable space group: I M M A
;
_chemical_formula_sum "Si O2"
_cell_formula_units_Z 92
_cell_length_a 7.863575
_cell_length_b 22.637001
_cell_length_c 29.399790
_cell_angle_alpha 90.000000
_cell_angle_beta 90.000000
_cell_angle_gamma 90.000000
_cell_volume 5233.390619
_symmetry_space_group_name_H-M "I M M A"
_symmetry_group_IT_number 74
_symmetry_cell_setting 'orthorhombic'
loop_
_space_group_symop_operation_xyz
x,y,z
-x,1/2-y,z
x,-y,-z
-x,1/2+y,-z
-x,-y,-z
x,1/2+y,-z
-x,y,z
x,1/2-y,z
1/2+x,1/2+y,1/2+z
1/2-x,-y,1/2+z
1/2+x,1/2-y,1/2-z
1/2-x,y,1/2-z
1/2-x,1/2-y,1/2-z
1/2+x,y,1/2-z
1/2-x,1/2+y,1/2+z
1/2+x,-y,1/2+z
loop_
_atom_site_type_symbol
_atom_site_label
_atom_site_fract_x
_atom_site_fract_y
_atom_site_fract_z
Si Si1 0.803354 0.433634 0.608225
Si Si2 0.796503 0.315417 0.944766
Si Si3 0.796194 0.120418 0.802840
Si Si4 0.804000 0.033936 0.044477
Si Si5 0.704514 0.250000 0.696621
Si Si6 0.000000 0.750000 0.925894
Si Si7 0.809353 0.164975 0.451881
O O1 0.748211 0.371554 0.585612
O O2 0.775182 0.426626 0.661961
O O3 0.704371 0.487341 0.585312
O O4 0.000000 0.443136 0.598039
O O5 0.753094 0.250000 0.925760
O O6 0.000000 0.315890 0.951874
O O7 0.711979 0.322148 0.994090
O O8 0.750000 0.111948 0.750000
O O9 0.732634 0.185837 0.818615
O O10 0.000000 0.120488 0.806407
O O11 0.710355 0.094735 0.054107
O O12 0.000000 0.049560 0.034011
O O13 0.734672 0.000000 0.000000
O O14 0.500000 0.250000 0.690360
O O15 0.750000 0.250000 0.750000
O O16 0.847471 0.800920 0.928935
O O17 0.000000 0.182355 0.437662
#
# Coordination Sequence:
#
# PCOD9538369 Si02
#       7
#    16  16  16  16   8   4  16
#     4  12  25  36  52  79 105 141 189 229 277 336
#     4  11  21  36  51  72 104 140 184 235 285 327
#     4  10  20  37  55  74  99 135 176 228 285 332
#     4  11  22  38  57  77 107 147 188 231 280 328
#     4   8  16  30  51  72  94 126 170 219 279 333
#     4  12  22  40  52  82 108 148 184 222 286 328
#     4  12  22  36  58  80 107 145 187 230 274 334
#
# _framework density 17.579423999999999
#
# number of rings (size 3 to 8) (size 9 to 14) (size 15 to 20)
#    0.000    1.043    4.348    3.391    1.217    2.435 
#    0.000    0.000    0.000    0.000    0.000    0.000 
#    0.000    0.000    0.000    0.783    4.522    1.391 
#
# Total GULP energy -256376.775425 kJ/mol
# GULP energy per Si atom -5573.408161 kJ/mol
# Density = 1.753941 g / cm^3
# Si number density = 17.579424 Si / 1000 Ang^3
#
#
#
# Elastic Constant Matrix: (Units=GPa)
#
#
# Indices 1 2 3 4 5 6 
#
# 1 96.9563 17.4647 -6.6627 0.0000 0.0000 0.0000
# 2 17.4647 113.6135 22.2498 0.0000 0.0000 0.0000
# 3 -6.6627 22.2498 43.0541 0.0000 0.0000 0.0000
# 4 0.0000 0.0000 0.0000 16.3049 0.0000 0.0000
# 5 0.0000 0.0000 0.0000 0.0000 17.1160 0.0000
# 6 0.0000 0.0000 0.0000 0.0000 0.0000 36.8223
#
#
#
# Elastic Compliance Matrix: (Units=1/GPa)
#
#
# Indices 1 2 3 4 5 6 
#
# 1 0.010912 -0.002234 0.002843 0.000000 0.000000 0.000000
# 2 -0.002234 0.010250 -0.005643 0.000000 0.000000 0.000000
# 3 0.002843 -0.005643 0.026583 0.000000 0.000000 0.000000
# 4 0.000000 0.000000 0.000000 0.061331 0.000000 0.000000
# 5 0.000000 0.000000 0.000000 0.000000 0.058425 0.000000
# 6 0.000000 0.000000 0.000000 0.000000 0.000000 0.027157
#
#
# Mechanical properties :
#
#
# Convention : Reuss Voigt Hill
#
# Bulk Modulus (GPa) = 26.54140 35.52527 31.03334
# Shear Modulus (GPa) = 23.01122 28.75345 25.88234
#
# Velocity S-wave (km/s) = 3.62192 4.04868 3.84123
# Velocity P-wave (km/s) = 5.71155 6.48907 6.11269
#
# Compressibility (1/GPa) = 0.03767699
#
# Stress axis : x y z
#
# Youngs Moduli (GPa) = 91.64439 97.55803 37.61832
#
# Poissons Ratio (x) = 0.21796 -0.10696
# Poissons Ratio (y) = 0.20475 0.21228
# Poissons Ratio (z) = -0.26056 0.55052
#
# Static dielectric constant tensor:
#      x y z
#    x 1.641120 0.000000 0.000000 
#    y 0.000000 2.605730 0.000000 
#    z 0.000000 0.000000 1.582050 
# 
# From -- ./inp_files/70524.got.cif
#   From: 2010.05.17/outbox.cif.g08.bks.cpg/sg74_36_cif.got.tgz:70524.got - 2010.06.03 17:57:02.
