data_PCOD9538114
_publ_section_title
;
Structure prediction by ZEFSAII (Michael W. Deem and Ramdas Pophale) SiO2 
 PCOD9538114
Probable space group: I M M A
;
_chemical_formula_sum "Si O2"
_cell_formula_units_Z 88
_cell_length_a 7.444111
_cell_length_b 35.269067
_cell_length_c 15.204036
_cell_angle_alpha 90.000000
_cell_angle_beta 90.000000
_cell_angle_gamma 90.000000
_cell_volume 3991.771753
_symmetry_space_group_name_H-M "I M M A"
_symmetry_group_IT_number 74
_symmetry_cell_setting 'orthorhombic'
loop_
_space_group_symop_operation_xyz
x,y,z
-x,1/2-y,z
x,-y,-z
-x,1/2+y,-z
-x,-y,-z
x,1/2+y,-z
-x,y,z
x,1/2-y,z
1/2+x,1/2+y,1/2+z
1/2-x,-y,1/2+z
1/2+x,1/2-y,1/2-z
1/2-x,y,1/2-z
1/2-x,1/2-y,1/2-z
1/2+x,y,1/2-z
1/2-x,1/2+y,1/2+z
1/2+x,-y,1/2+z
loop_
_atom_site_type_symbol
_atom_site_label
_atom_site_fract_x
_atom_site_fract_y
_atom_site_fract_z
Si Si1 0.714613 0.439843 0.850149
Si Si2 0.714544 0.525707 0.851270
Si Si3 0.785458 0.293405 0.653581
Si Si4 0.219803 0.905541 0.528420
Si Si5 0.714783 0.750000 0.853591
Si Si6 0.719796 0.322100 0.034937
O O1 0.500000 0.441892 0.858360
O O2 0.750000 0.428281 0.750000
O O3 0.784476 0.482875 0.864678
O O4 0.776693 0.412609 0.927716
O O5 0.500000 0.523770 0.864845
O O6 0.750000 0.535600 0.750000
O O7 0.782295 0.558699 0.914498
O O8 0.715512 0.250000 0.653543
O O9 0.750000 0.310377 0.750000
O O10 0.722575 0.314114 0.565692
O O11 0.000000 0.291339 0.645615
O O12 0.277317 0.864290 0.561190
O O13 0.000000 0.905604 0.530975
O O14 0.500000 0.750000 0.865336
O O15 0.750000 0.750000 0.750000
O O16 0.781131 0.712074 0.902599
O O17 0.500000 0.321807 0.036096
#
# Coordination Sequence:
#
# PCOD9538114 Si02
#       6
#    16  16  16  16   8  16
#     4   9  17  30  48  70  96 125 157 191 229 275
#     4   9  17  30  48  69  93 122 157 196 234 274
#     4   9  16  28  47  69  91 118 149 183 224 272
#     4   9  17  29  48  71  93 123 160 194 228 275
#     4  10  20  36  55  72  92 122 159 198 237 278
#     4   9  17  31  50  70  94 124 158 192 231 281
#
# _framework density 22.045349999999999
#
# number of rings (size 3 to 8) (size 9 to 14) (size 15 to 20)
#    0.000    2.909    0.909    0.545    0.000    3.636 
#    0.000    1.818    0.000    6.545    0.000    0.000 
#    0.000    0.000    0.000    0.000    0.000    0.000 
#
# Total GULP energy -245571.807555 kJ/mol
# GULP energy per Si atom -5581.177444 kJ/mol
# Density = 2.199517 g / cm^3
# Si number density = 22.045350 Si / 1000 Ang^3
#
#
#
# Elastic Constant Matrix: (Units=GPa)
#
#
# Indices 1 2 3 4 5 6 
#
# 1 65.9785 3.9569 -5.5149 0.0000 0.0000 0.0000
# 2 3.9569 105.1087 70.1938 -0.0001 0.0000 0.0000
# 3 -5.5149 70.1938 114.3758 -0.0001 0.0000 0.0000
# 4 0.0000 -0.0001 -0.0001 11.9140 0.0000 0.0000
# 5 0.0000 0.0000 0.0000 0.0000 22.5652 0.0000
# 6 0.0000 0.0000 0.0000 0.0000 0.0000 -1.1346
#
#
#
# Elastic Compliance Matrix: (Units=1/GPa)
#
#
# Indices 1 2 3 4 5 6 
#
# 1 0.015422 -0.001825 0.001864 0.000000 0.000000 0.000000
# 2 -0.001825 0.016337 -0.010114 0.000000 0.000000 0.000000
# 3 0.001864 -0.010114 0.015040 0.000000 0.000000 0.000000
# 4 0.000000 0.000000 0.000000 0.083935 0.000000 -0.000001
# 5 0.000000 0.000000 0.000000 0.000000 0.044316 0.000000
# 6 0.000000 0.000000 0.000000 -0.000001 0.000000 -0.881375
#
#
# Mechanical properties :
#
#
# Convention : Reuss Voigt Hill
#
# Bulk Modulus (GPa) = 37.52690 46.97052 42.24871
# Shear Modulus (GPa) = -7.38236 21.12408 6.87086
#
# Velocity S-wave (km/s) = -1.83193 3.09886 1.76733
# Velocity P-wave (km/s) = 3.54752 5.84435 4.83432
#
# Compressibility (1/GPa) = 0.02664755
#
# Stress axis : x y z
#
# Youngs Moduli (GPa) = 64.84372 61.20979 66.48817
#
# Poissons Ratio (x) = 0.11172 -0.12392
# Poissons Ratio (y) = 0.11835 0.67249
# Poissons Ratio (z) = -0.12085 0.61910
#
# Static dielectric constant tensor:
#      x y z
#    x 1.875240 0.000000 0.000000 
#    y 0.000000 1.800580 0.000000 
#    z 0.000000 0.000000 1.779610 
# 
# From -- ./inp_files/19076.got.cif
#   From: 2010.05.17/outbox.cif.g08.bks.cpg/sg74_10_cif.got.tgz:19076.got - 2010.06.03 17:57:02.
