data_PCOD9538887
_publ_section_title
;
Structure prediction by ZEFSAII (Michael W. Deem and Ramdas Pophale) SiO2 
 PCOD9538887
Probable space group: I M M A
;
_chemical_formula_sum "Si O2"
_cell_formula_units_Z 80
_cell_length_a 17.754776
_cell_length_b 24.582020
_cell_length_c 9.933624
_cell_angle_alpha 90.000000
_cell_angle_beta 90.000000
_cell_angle_gamma 90.000000
_cell_volume 4335.512898
_symmetry_space_group_name_H-M "I M M A"
_symmetry_group_IT_number 74
_symmetry_cell_setting 'orthorhombic'
loop_
_space_group_symop_operation_xyz
x,y,z
-x,1/2-y,z
x,-y,-z
-x,1/2+y,-z
-x,-y,-z
x,1/2+y,-z
-x,y,z
x,1/2-y,z
1/2+x,1/2+y,1/2+z
1/2-x,-y,1/2+z
1/2+x,1/2-y,1/2-z
1/2-x,y,1/2-z
1/2-x,1/2-y,1/2-z
1/2+x,y,1/2-z
1/2-x,1/2+y,1/2+z
1/2+x,-y,1/2+z
loop_
_atom_site_type_symbol
_atom_site_label
_atom_site_fract_x
_atom_site_fract_y
_atom_site_fract_z
Si Si1 0.175501 0.582649 0.411725
Si Si2 0.909911 0.812679 0.914032
Si Si3 0.149777 0.400313 0.876722
Si Si4 0.661669 0.610815 0.784698
Si Si5 0.087425 0.499693 0.243705
O O1 0.153641 0.618571 0.280430
O O2 0.265983 0.580223 0.413582
O O3 0.149719 0.603589 0.555810
O O4 0.137604 0.526092 0.364165
O O5 0.889115 0.750000 0.937460
O O6 0.875221 0.835400 0.775795
O O7 0.000000 0.816858 0.910678
O O8 0.878143 0.852926 0.028070
O O9 0.098395 0.454380 0.870874
O O10 0.750000 0.609936 0.750000
O O11 0.622216 0.558839 0.714488
O O12 0.000000 0.495048 0.279216
#
# Coordination Sequence:
#
# PCOD9538887 Si02
#       5
#    16  16  16  16  16
#     4   9  20  38  61  91 121 161 199 242 300 359
#     4  11  25  44  64  88 121 158 203 260 307 349
#     4   9  19  42  61  86 121 161 204 245 296 360
#     4  12  22  38  62  91 126 165 199 244 305 366
#     4  10  21  35  61  93 128 163 197 246 304 366
#
# _framework density 18.452255999999998
#
# number of rings (size 3 to 8) (size 9 to 14) (size 15 to 20)
#    1.200    0.600    2.000    3.000    0.000    3.600 
#    0.000    5.000    0.000    2.400    0.000    0.000 
#    0.000    0.000    0.000    0.000    0.000    0.000 
#
# Total GULP energy -222922.520157 kJ/mol
# GULP energy per Si atom -5573.063004 kJ/mol
# Density = 1.841026 g / cm^3
# Si number density = 18.452256 Si / 1000 Ang^3
#
#
#
# Elastic Constant Matrix: (Units=GPa)
#
#
# Indices 1 2 3 4 5 6 
#
# 1 107.1557 62.1449 8.2661 0.0000 0.0000 0.0000
# 2 62.1449 101.6418 29.5343 0.0000 0.0000 0.0000
# 3 8.2661 29.5343 66.9542 0.0000 0.0000 0.0000
# 4 0.0000 0.0000 0.0000 16.8743 0.0000 0.0000
# 5 0.0000 0.0000 0.0000 0.0000 11.8258 0.0000
# 6 0.0000 0.0000 0.0000 0.0000 0.0000 91.3824
#
#
#
# Elastic Compliance Matrix: (Units=1/GPa)
#
#
# Indices 1 2 3 4 5 6 
#
# 1 0.014811 -0.009778 0.002484 0.000000 0.000000 0.000000
# 2 -0.009778 0.017740 -0.006618 0.000000 0.000000 0.000000
# 3 0.002484 -0.006618 0.017548 0.000000 0.000000 0.000000
# 4 0.000000 0.000000 0.000000 0.059262 0.000000 0.000000
# 5 0.000000 0.000000 0.000000 0.000000 0.084561 0.000000
# 6 0.000000 0.000000 0.000000 0.000000 0.000000 0.010943
#
#
# Mechanical properties :
#
#
# Convention : Reuss Voigt Hill
#
# Bulk Modulus (GPa) = 44.89030 52.84914 48.86972
# Shear Modulus (GPa) = 20.82362 35.73693 28.28028
#
# Velocity S-wave (km/s) = 3.36298 4.40560 3.91911
# Velocity P-wave (km/s) = 6.28173 7.38798 6.85720
#
# Compressibility (1/GPa) = 0.02227653
#
# Stress axis : x y z
#
# Youngs Moduli (GPa) = 67.51725 56.37120 56.98609
#
# Poissons Ratio (x) = 0.55117 -0.14158
# Poissons Ratio (y) = 0.66015 0.37713
# Poissons Ratio (z) = -0.16774 0.37306
#
# Static dielectric constant tensor:
#      x y z
#    x 1.620260 0.000000 0.000000 
#    y 0.000000 1.611940 0.000000 
#    z 0.000000 0.000000 1.705010 
# 
# From -- ./inp_files/20455.got.cif
#   From: 2010.05.17/outbox.cif.g08.bks.cpg/sg74_11_cif.got.tgz:20455.got - 2010.06.03 17:57:02.
