data_PCOD9538030
_publ_section_title
;
Structure prediction by ZEFSAII (Michael W. Deem and Ramdas Pophale) SiO2 
 PCOD9538030
Probable space group: I M M A
;
_chemical_formula_sum "Si O2"
_cell_formula_units_Z 96
_cell_length_a 18.151232
_cell_length_b 26.572419
_cell_length_c 10.012831
_cell_angle_alpha 90.000000
_cell_angle_beta 90.000000
_cell_angle_gamma 90.000000
_cell_volume 4829.410096
_symmetry_space_group_name_H-M "I M M A"
_symmetry_group_IT_number 74
_symmetry_cell_setting 'orthorhombic'
loop_
_space_group_symop_operation_xyz
x,y,z
-x,1/2-y,z
x,-y,-z
-x,1/2+y,-z
-x,-y,-z
x,1/2+y,-z
-x,y,z
x,1/2-y,z
1/2+x,1/2+y,1/2+z
1/2-x,-y,1/2+z
1/2+x,1/2-y,1/2-z
1/2-x,y,1/2-z
1/2-x,1/2-y,1/2-z
1/2+x,y,1/2-z
1/2-x,1/2+y,1/2+z
1/2+x,-y,1/2+z
loop_
_atom_site_type_symbol
_atom_site_label
_atom_site_fract_x
_atom_site_fract_y
_atom_site_fract_z
Si Si1 0.588446 0.194038 0.911117
Si Si2 0.817729 0.477523 0.851215
Si Si3 0.589517 0.358155 0.174925
Si Si4 0.829508 0.359589 0.808289
Si Si5 0.588536 0.528053 0.865176
Si Si6 0.086698 0.809510 0.953686
O O1 0.500000 0.194862 0.908768
O O2 0.614106 0.250000 0.870355
O O3 0.615512 0.150332 0.814245
O O4 0.613339 0.180378 0.060257
O O5 0.750000 0.488707 0.750000
O O6 0.826066 0.417235 0.855536
O O7 0.886049 0.500751 0.769710
O O8 0.809726 0.500000 0.000000
O O9 0.500000 0.358725 0.172287
O O10 0.615340 0.414299 0.140828
O O11 0.609508 0.339621 0.321440
O O12 0.750000 0.345191 0.750000
O O13 0.860824 0.325620 0.926572
O O14 0.500000 0.528752 0.870514
O O15 0.614998 0.500000 0.000000
O O16 0.090529 0.750000 0.928646
O O17 0.000000 0.821047 0.984678
#
# Coordination Sequence:
#
# PCOD9538030 Si02
#       6
#    16  16  16  16  16  16
#     4  10  20  36  60  86 112 147 188 228 273 328
#     4  11  24  41  60  82 111 149 192 237 285 340
#     4   9  18  34  57  86 116 145 185 233 276 325
#     4  11  24  39  55  81 113 147 185 230 285 335
#     4  10  20  35  58  87 118 152 187 230 284 336
#     4  10  20  36  59  84 112 149 190 231 276 328
#
# _framework density 19.878204
#
# number of rings (size 3 to 8) (size 9 to 14) (size 15 to 20)
#    0.000    1.833    0.000    4.000    0.000    9.000 
#    0.000    0.833    0.000    2.000    0.000    0.000 
#    0.000    0.000    0.000    0.000    0.000    0.000 
#
# Total GULP energy -267982.764302 kJ/mol
# GULP energy per Si atom -5582.974256 kJ/mol
# Density = 1.983296 g / cm^3
# Si number density = 19.878204 Si / 1000 Ang^3
#
#
#
# Elastic Constant Matrix: (Units=GPa)
#
#
# Indices 1 2 3 4 5 6 
#
# 1 33.4425 41.4070 37.0928 0.0000 0.0000 0.0000
# 2 41.4070 87.2488 56.5179 0.0000 0.0000 0.0000
# 3 37.0928 56.5179 149.1420 0.0000 0.0000 0.0000
# 4 0.0000 0.0000 0.0000 19.9413 0.0000 0.0000
# 5 0.0000 0.0000 0.0000 0.0000 -30.8207 0.0000
# 6 0.0000 0.0000 0.0000 0.0000 0.0000 12.9290
#
#
#
# Elastic Compliance Matrix: (Units=1/GPa)
#
#
# Indices 1 2 3 4 5 6 
#
# 1 0.077796 -0.032322 -0.007100 0.000000 0.000000 0.000000
# 2 -0.032322 0.028619 -0.002807 0.000000 0.000000 0.000000
# 3 -0.007100 -0.002807 0.009534 0.000000 0.000000 0.000000
# 4 0.000000 0.000000 0.000000 0.050147 0.000000 0.000000
# 5 0.000000 0.000000 0.000000 0.000000 -0.032446 0.000000
# 6 0.000000 0.000000 0.000000 0.000000 0.000000 0.077345
#
#
# Mechanical properties :
#
#
# Convention : Reuss Voigt Hill
#
# Bulk Modulus (GPa) = 31.75317 59.98541 45.86929
# Shear Modulus (GPa) = 16.34248 9.39763 12.87006
#
# Velocity S-wave (km/s) = 2.87039 2.17666 2.54726
# Velocity P-wave (km/s) = 5.19558 6.04642 5.63707
#
# Compressibility (1/GPa) = 0.03149292
#
# Stress axis : x y z
#
# Youngs Moduli (GPa) = 12.85406 34.94197 104.88286
#
# Poissons Ratio (x) = 1.12938 0.74469
# Poissons Ratio (y) = 0.41546 0.29436
# Poissons Ratio (z) = 0.09127 0.09807
#
# Static dielectric constant tensor:
#      x y z
#    x 1.718160 0.000000 0.000000 
#    y 0.000000 1.696240 0.000000 
#    z 0.000000 0.000000 1.681780 
# 
# From -- ./inp_files/12691.got.cif
#   From: 2010.05.17/outbox.cif.g08.bks.cpg/sg74_7_cif.got.tgz:12691.got - 2010.06.03 17:57:02.
