data_PCOD9538002
_publ_section_title
;
Structure prediction by ZEFSAII (Michael W. Deem and Ramdas Pophale) SiO2 
 PCOD9538002
Probable space group: I M M A
;
_chemical_formula_sum "Si O2"
_cell_formula_units_Z 96
_cell_length_a 8.614842
_cell_length_b 25.007597
_cell_length_c 22.662292
_cell_angle_alpha 90.000000
_cell_angle_beta 90.000000
_cell_angle_gamma 90.000000
_cell_volume 4882.284801
_symmetry_space_group_name_H-M "I M M A"
_symmetry_group_IT_number 74
_symmetry_cell_setting 'orthorhombic'
loop_
_space_group_symop_operation_xyz
x,y,z
-x,1/2-y,z
x,-y,-z
-x,1/2+y,-z
-x,-y,-z
x,1/2+y,-z
-x,y,z
x,1/2-y,z
1/2+x,1/2+y,1/2+z
1/2-x,-y,1/2+z
1/2+x,1/2-y,1/2-z
1/2-x,y,1/2-z
1/2-x,1/2-y,1/2-z
1/2+x,y,1/2-z
1/2-x,1/2+y,1/2+z
1/2+x,-y,1/2+z
loop_
_atom_site_type_symbol
_atom_site_label
_atom_site_fract_x
_atom_site_fract_y
_atom_site_fract_z
Si Si1 0.318370 0.558704 0.482939
Si Si2 0.312729 0.439455 0.186425
Si Si3 0.817138 0.331598 0.687678
Si Si4 0.681278 0.556740 0.342413
Si Si5 0.814210 0.135324 0.421675
Si Si6 0.811612 0.750000 0.538553
Si Si7 0.184567 0.250000 0.905477
O O1 0.257792 0.500000 0.500000
O O2 0.500000 0.561191 0.500435
O O3 0.309330 0.563550 0.412990
O O4 0.230313 0.603578 0.519207
O O5 0.500000 0.441654 0.186869
O O6 0.250000 0.421867 0.250000
O O7 0.247130 0.498831 0.174226
O O8 0.259468 0.399410 0.134337
O O9 0.750000 0.312016 0.750000
O O10 0.777298 0.394279 0.683692
O O11 0.738937 0.300833 0.633115
O O12 0.000000 0.322606 0.685539
O O13 0.500000 0.560461 0.324724
O O14 0.757465 0.195996 0.428915
O O15 0.000000 0.137315 0.417030
O O16 0.756443 0.750000 0.470712
O O17 0.000000 0.750000 0.537960
O O18 0.000000 0.250000 0.910598
#
# Coordination Sequence:
#
# PCOD9538002 Si02
#       7
#    16  16  16  16  16   8   8
#     4  10  20  35  57  87 121 156 192 240 299 354
#     4  11  23  39  59  86 118 158 200 247 302 362
#     4  12  25  42  62  87 121 163 208 253 298 351
#     4  11  22  38  60  89 124 161 200 247 300 360
#     4  10  22  39  62  89 120 156 200 247 297 357
#     4  10  22  43  66  91 121 158 198 248 305 358
#     4  12  25  43  64  91 122 158 202 248 299 356
#
# _framework density 19.662925999999999
#
# number of rings (size 3 to 8) (size 9 to 14) (size 15 to 20)
#    0.000    1.167    1.667    5.000    0.000    5.667 
#    0.000    0.417    0.000    0.000    0.000    0.000 
#    0.000    0.000    0.000    0.000    0.000    0.000 
#
# Total GULP energy -268451.814708 kJ/mol
# GULP energy per Si atom -5592.746140 kJ/mol
# Density = 1.961817 g / cm^3
# Si number density = 19.662926 Si / 1000 Ang^3
#
#
#
# Elastic Constant Matrix: (Units=GPa)
#
#
# Indices 1 2 3 4 5 6 
#
# 1 55.3959 14.7545 18.3428 0.0000 0.0000 0.0000
# 2 14.7545 136.0557 38.5993 0.0000 0.0000 0.0000
# 3 18.3428 38.5993 83.1473 0.0000 0.0000 0.0000
# 4 0.0000 0.0000 0.0000 12.1360 0.0000 0.0000
# 5 0.0000 0.0000 0.0000 0.0000 29.4637 0.0000
# 6 0.0000 0.0000 0.0000 0.0000 0.0000 -333.9627
#
#
#
# Elastic Compliance Matrix: (Units=1/GPa)
#
#
# Indices 1 2 3 4 5 6 
#
# 1 0.019600 -0.001035 -0.003843 0.000000 0.000000 0.000000
# 2 -0.001035 0.008519 -0.003727 0.000000 0.000000 0.000000
# 3 -0.003843 -0.003727 0.014605 0.000000 0.000000 0.000000
# 4 0.000000 0.000000 0.000000 0.082399 0.000000 0.000000
# 5 0.000000 0.000000 0.000000 0.000000 0.033940 0.000000
# 6 0.000000 0.000000 0.000000 0.000000 0.000000 -0.002994
#
#
# Mechanical properties :
#
#
# Convention : Reuss Voigt Hill
#
# Bulk Modulus (GPa) = 39.19403 46.44357 42.81880
# Shear Modulus (GPa) = 27.50508 -44.94580 -8.72036
#
# Velocity S-wave (km/s) = 3.74415 -4.78621 -2.10821
# Velocity P-wave (km/s) = 6.21834 2.62155 3.98718
#
# Compressibility (1/GPa) = 0.02551409
#
# Stress axis : x y z
#
# Youngs Moduli (GPa) = 51.01984 117.37867 68.47100
#
# Poissons Ratio (x) = 0.12151 0.26316
# Poissons Ratio (y) = 0.05281 0.25516
# Poissons Ratio (z) = 0.19609 0.43742
#
# Static dielectric constant tensor:
#      x y z
#    x 1.673630 0.000000 0.000000 
#    y 0.000000 1.700900 0.000000 
#    z 0.000000 0.000000 1.687590 
# 
# From -- ./inp_files/57314.got.cif
#   From: 2010.05.17/outbox.cif.g08.bks.cpg/sg74_29_cif.got.tgz:57314.got - 2010.06.03 17:57:02.
