data_PCOD9538381
_publ_section_title
;
Structure prediction by ZEFSAII (Michael W. Deem and Ramdas Pophale) SiO2 
 PCOD9538381
Probable space group: I M M A
;
_chemical_formula_sum "Si O2"
_cell_formula_units_Z 104
_cell_length_a 9.382531
_cell_length_b 28.663151
_cell_length_c 19.560557
_cell_angle_alpha 90.000000
_cell_angle_beta 90.000000
_cell_angle_gamma 90.000000
_cell_volume 5260.477375
_symmetry_space_group_name_H-M "I M M A"
_symmetry_group_IT_number 74
_symmetry_cell_setting 'orthorhombic'
loop_
_space_group_symop_operation_xyz
x,y,z
-x,1/2-y,z
x,-y,-z
-x,1/2+y,-z
-x,-y,-z
x,1/2+y,-z
-x,y,z
x,1/2-y,z
1/2+x,1/2+y,1/2+z
1/2-x,-y,1/2+z
1/2+x,1/2-y,1/2-z
1/2-x,y,1/2-z
1/2-x,1/2-y,1/2-z
1/2+x,y,1/2-z
1/2-x,1/2+y,1/2+z
1/2+x,-y,1/2+z
loop_
_atom_site_type_symbol
_atom_site_label
_atom_site_fract_x
_atom_site_fract_y
_atom_site_fract_z
Si Si1 0.500000 0.502273 0.261218
Si Si2 0.666239 0.304141 0.383570
Si Si3 0.662612 0.442626 0.048607
Si Si4 0.169578 0.303993 0.528448
Si Si5 0.257756 0.980879 0.147123
Si Si6 0.170733 0.607891 0.070893
Si Si7 0.164745 0.617107 0.687779
O O1 0.620207 0.513453 0.202387
O O2 0.621669 0.495373 0.320018
O O3 0.500000 0.318169 0.391538
O O4 0.668726 0.250000 0.362940
O O5 0.750952 0.307602 0.455247
O O6 0.750179 0.336194 0.330827
O O7 0.500000 0.440272 0.021662
O O8 0.699918 0.494046 0.075979
O O9 0.664332 0.413543 0.119655
O O10 0.771683 0.417522 0.997828
O O11 0.184916 0.250000 0.551334
O O12 0.247261 0.342763 0.574172
O O13 0.000000 0.313633 0.521004
O O14 0.216059 0.927426 0.130945
O O15 0.000000 0.613560 0.069394
O O16 0.250000 0.594350 0.750000
O O17 0.000000 0.624596 0.707429
#
# Coordination Sequence:
#
# PCOD9538381 Si02
#       7
#     8  16  16  16  16  16  16
#     4  10  24  44  66  92 123 168 217 258 312 376
#     4  10  20  37  58  81 111 152 201 256 313 370
#     4  11  25  40  61  90 127 168 214 261 311 365
#     4  10  21  38  63  92 125 162 204 254 314 379
#     4  11  24  43  66  92 128 169 212 261 312 374
#     4  12  25  40  63  98 131 165 209 263 316 368
#     4  11  24  38  55  81 113 159 210 258 311 366
#
# _framework density 19.770068999999999
#
# number of rings (size 3 to 8) (size 9 to 14) (size 15 to 20)
#    0.000    1.231    3.077    2.308    5.385    4.000 
#    0.000    0.000    0.000    0.000    0.000    3.231 
#    0.000    0.000    0.000    0.000    0.000    0.000 
#
# Total GULP energy -289540.003778 kJ/mol
# GULP energy per Si atom -5568.076996 kJ/mol
# Density = 1.972507 g / cm^3
# Si number density = 19.770069 Si / 1000 Ang^3
#
#
#
# Elastic Constant Matrix: (Units=GPa)
#
#
# Indices 1 2 3 4 5 6 
#
# 1 171.8038 32.6177 8.5359 0.0001 0.0000 0.0018
# 2 32.6177 93.4728 -1.8483 0.0000 0.0000 0.0015
# 3 8.5359 -1.8483 24.0189 0.0002 0.0000 0.0058
# 4 0.0001 0.0000 0.0002 14.2747 0.0000 0.0013
# 5 0.0000 0.0000 0.0000 0.0000 42.8728 0.0002
# 6 0.0018 0.0015 0.0058 0.0013 0.0002-1424.9411
#
#
#
# Elastic Compliance Matrix: (Units=1/GPa)
#
#
# Indices 1 2 3 4 5 6 
#
# 1 0.006373 -0.002272 -0.002440 0.000000 0.000000 0.000000
# 2 -0.002272 0.011525 0.001694 0.000000 0.000000 0.000000
# 3 -0.002440 0.001694 0.042631 -0.000001 0.000000 0.000000
# 4 0.000000 0.000000 -0.000001 0.070054 0.000000 0.000000
# 5 0.000000 0.000000 0.000000 0.000000 0.023325 0.000000
# 6 0.000000 0.000000 0.000000 0.000000 0.000000 -0.000702
#
#
# Mechanical properties :
#
#
# Convention : Reuss Voigt Hill
#
# Bulk Modulus (GPa) = 18.35062 40.87846 29.61454
# Shear Modulus (GPa) = 28.18387 -256.89271 -114.35442
#
# Velocity S-wave (km/s) = 3.77979 -11.41150 -7.61366
# Velocity P-wave (km/s) = 5.32459 12.36559 7.89166
#
# Compressibility (1/GPa) = 0.05449407
#
# Stress axis : x y z
#
# Youngs Moduli (GPa) = 156.90709 86.77022 23.45688
#
# Poissons Ratio (x) = 0.19716 0.05723
# Poissons Ratio (y) = 0.35652 -0.03974
# Poissons Ratio (z) = 0.38282 -0.14702
#
# Static dielectric constant tensor:
#      x y z
#    x 1.669340 0.000000 0.000000 
#    y 0.000000 1.767820 0.000000 
#    z 0.000000 0.000000 1.699470 
# 
# From -- ./inp_files/49250.got.cif
#   From: 2010.05.17/outbox.cif.g08.bks.cpg/sg74_25_cif.got.tgz:49250.got - 2010.06.03 17:57:02.
