data_PCOD9538768
_publ_section_title
;
Structure prediction by ZEFSAII (Michael W. Deem and Ramdas Pophale) SiO2 
 PCOD9538768
Probable space group: I M M A
;
_chemical_formula_sum "Si O2"
_cell_formula_units_Z 120
_cell_length_a 7.716127
_cell_length_b 28.172150
_cell_length_c 28.403222
_cell_angle_alpha 90.000000
_cell_angle_beta 90.000000
_cell_angle_gamma 90.000000
_cell_volume 6174.289196
_symmetry_space_group_name_H-M "I M M A"
_symmetry_group_IT_number 74
_symmetry_cell_setting 'orthorhombic'
loop_
_space_group_symop_operation_xyz
x,y,z
-x,1/2-y,z
x,-y,-z
-x,1/2+y,-z
-x,-y,-z
x,1/2+y,-z
-x,y,z
x,1/2-y,z
1/2+x,1/2+y,1/2+z
1/2-x,-y,1/2+z
1/2+x,1/2-y,1/2-z
1/2-x,y,1/2-z
1/2-x,1/2-y,1/2-z
1/2+x,y,1/2-z
1/2-x,1/2+y,1/2+z
1/2+x,-y,1/2+z
loop_
_atom_site_type_symbol
_atom_site_label
_atom_site_fract_x
_atom_site_fract_y
_atom_site_fract_z
Si Si1 0.208453 0.565939 0.695690
Si Si2 0.792804 0.147733 0.033242
Si Si3 0.293578 0.197453 0.937403
Si Si4 0.208699 0.041216 0.695991
Si Si5 0.708891 0.250000 0.195004
Si Si6 0.792349 0.102497 0.610217
Si Si7 0.292960 0.157158 0.140871
Si Si8 0.290822 0.948180 0.485778
O O1 0.250000 0.577558 0.750000
O O2 0.274047 0.512489 0.686238
O O3 0.275552 0.607443 0.661847
O O4 0.000000 0.564103 0.691192
O O5 0.738804 0.161385 0.085482
O O6 0.000000 0.147300 0.031471
O O7 0.731666 0.182409 0.991747
O O8 0.729394 0.094765 0.019335
O O9 0.500000 0.199278 0.929280
O O10 0.221910 0.250000 0.928532
O O11 0.222728 0.153929 0.905995
O O12 0.250000 0.052851 0.750000
O O13 0.275117 0.078993 0.658049
O O14 0.000000 0.039868 0.691759
O O15 0.500000 0.250000 0.190198
O O16 0.750000 0.250000 0.250000
O O17 0.775278 0.297486 0.169411
O O18 0.758185 0.066964 0.566896
O O19 0.000000 0.107383 0.614763
O O20 0.500000 0.156205 0.148050
O O21 0.500000 0.949128 0.488480
O O22 0.225422 0.000000 0.500000
#
# Coordination Sequence:
#
# PCOD9538768 Si02
#       8
#    16  16  16  16   8  16  16  16
#     4   9  18  32  49  69  94 125 161 203 247 292
#     4  10  21  34  49  74 102 130 166 205 245 292
#     4   9  18  34  55  74  97 130 165 205 251 297
#     4   9  18  32  50  75 103 130 164 203 244 293
#     4  10  22  38  54  72  94 126 166 212 261 304
#     4   9  18  32  51  76 100 128 169 208 244 293
#     4  10  21  35  51  71  97 128 164 207 255 302
#     4   9  19  34  49  70 103 136 165 200 246 298
#
# _framework density 19.435435999999999
#
# number of rings (size 3 to 8) (size 9 to 14) (size 15 to 20)
#    0.000    2.667    0.000    0.800    2.800    2.667 
#    0.000    0.000    0.000    0.400    0.000    0.000 
#    0.000    0.000    0.000    0.000    0.000    0.000 
#
# Total GULP energy -334759.798866 kJ/mol
# GULP energy per Si atom -5579.329981 kJ/mol
# Density = 1.939120 g / cm^3
# Si number density = 19.435436 Si / 1000 Ang^3
#
#
#
# Elastic Constant Matrix: (Units=GPa)
#
#
# Indices 1 2 3 4 5 6 
#
# 1 27.6225 11.2398 -2.6208 0.0000 0.0000 0.0000
# 2 11.2398 169.1138 104.2709 0.0000 0.0000 0.0000
# 3 -2.6208 104.2709 140.3660 0.0000 0.0000 0.0000
# 4 0.0000 0.0000 0.0000 13.6682 0.0000 0.0000
# 5 0.0000 0.0000 0.0000 0.0000 18.8184 0.0000
# 6 0.0000 0.0000 0.0000 0.0000 0.0000 9.1574
#
#
#
# Elastic Compliance Matrix: (Units=1/GPa)
#
#
# Indices 1 2 3 4 5 6 
#
# 1 0.038946 -0.005603 0.004890 0.000000 0.000000 0.000000
# 2 -0.005603 0.011716 -0.008808 0.000000 0.000000 0.000000
# 3 0.004890 -0.008808 0.013759 0.000000 0.000000 0.000000
# 4 0.000000 0.000000 0.000000 0.073162 0.000000 0.000000
# 5 0.000000 0.000000 0.000000 0.000000 0.053140 0.000000
# 6 0.000000 0.000000 0.000000 0.000000 0.000000 0.109201
#
#
# Mechanical properties :
#
#
# Convention : Reuss Voigt Hill
#
# Bulk Modulus (GPa) = 22.03725 62.54244 42.28985
# Shear Modulus (GPa) = 14.96583 23.27630 19.12107
#
# Velocity S-wave (km/s) = 2.77795 3.46442 3.14000
# Velocity P-wave (km/s) = 4.65324 6.94640 5.91207
#
# Compressibility (1/GPa) = 0.04537771
#
# Stress axis : x y z
#
# Youngs Moduli (GPa) = 25.67636 85.34984 72.68125
#
# Poissons Ratio (x) = 0.47824 -0.35538
# Poissons Ratio (y) = 0.14387 0.64019
# Poissons Ratio (z) = -0.12555 0.75178
#
# Static dielectric constant tensor:
#      x y z
#    x 1.716940 0.000000 0.000000 
#    y 0.000000 1.712870 0.000000 
#    z 0.000000 0.000000 1.651140 
# 
# From -- ./inp_files/65148.got.cif
#   From: 2010.05.17/outbox.cif.g08.bks.cpg/sg74_33_cif.got.tgz:65148.got - 2010.06.03 17:57:02.
