data_PCOD9538909
_publ_section_title
;
Structure prediction by ZEFSAII (Michael W. Deem and Ramdas Pophale) SiO2 
 PCOD9538909
Probable space group: I M M A
;
_chemical_formula_sum "Si O2"
_cell_formula_units_Z 64
_cell_length_a 21.377766
_cell_length_b 8.768654
_cell_length_c 18.765566
_cell_angle_alpha 90.000000
_cell_angle_beta 90.000000
_cell_angle_gamma 90.000000
_cell_volume 3517.684788
_symmetry_space_group_name_H-M "I M M A"
_symmetry_group_IT_number 74
_symmetry_cell_setting 'orthorhombic'
loop_
_space_group_symop_operation_xyz
x,y,z
-x,1/2-y,z
x,-y,-z
-x,1/2+y,-z
-x,-y,-z
x,1/2+y,-z
-x,y,z
x,1/2-y,z
1/2+x,1/2+y,1/2+z
1/2-x,-y,1/2+z
1/2+x,1/2-y,1/2-z
1/2-x,y,1/2-z
1/2-x,1/2-y,1/2-z
1/2+x,y,1/2-z
1/2-x,1/2+y,1/2+z
1/2+x,-y,1/2+z
loop_
_atom_site_type_symbol
_atom_site_label
_atom_site_fract_x
_atom_site_fract_y
_atom_site_fract_z
Si Si1 0.385592 0.430889 0.831774
Si Si2 0.500000 0.067753 0.079217
Si Si3 0.500000 0.066561 0.421604
Si Si4 0.244484 0.926076 0.663531
Si Si5 0.381552 0.565003 0.672944
O O1 0.393550 0.250000 0.833324
O O2 0.438856 0.509582 0.878717
O O3 0.315684 0.476514 0.857042
O O4 0.390347 0.491751 0.750610
O O5 0.500000 0.250000 0.076753
O O6 0.500000 0.000000 0.000000
O O7 0.500000 0.250000 0.425500
O O8 0.561621 0.021038 0.377741
O O9 0.500000 0.000000 0.500000
O O10 0.234194 0.750000 0.642486
O O11 0.250000 0.928722 0.750000
O O12 0.313681 0.977824 0.640851
O O13 0.380817 0.750000 0.681848
#
# Coordination Sequence:
#
# PCOD9538909 Si02
#       5
#    16   8   8  16  16
#     4  11  21  34  56  86 112 137 175 221 269 320
#     4  12  25  42  59  77 107 143 179 220 267 322
#     4  10  21  36  53  75 105 141 181 224 269 314
#     4   8  15  30  52  78 108 142 179 220 266 314
#     4   9  18  34  56  80 108 146 186 222 266 319
#
# _framework density 18.193784999999998
#
# number of rings (size 3 to 8) (size 9 to 14) (size 15 to 20)
#    0.000    2.250    0.000    5.625    0.000    6.500 
#    0.000    1.250    0.000    3.000    0.000    0.000 
#    0.000    0.000    0.000    0.000    0.000    0.000 
#
# Total GULP energy -178567.353677 kJ/mol
# GULP energy per Si atom -5580.229802 kJ/mol
# Density = 1.815238 g / cm^3
# Si number density = 18.193785 Si / 1000 Ang^3
#
#
#
# Elastic Constant Matrix: (Units=GPa)
#
#
# Indices 1 2 3 4 5 6 
#
# 1 200.1381 72.1140 83.1543 0.0000 0.0000 0.0000
# 2 72.1140 99.1728 48.1593 0.0000 0.0000 0.0000
# 3 83.1543 48.1593 82.2910 0.0000 0.0000 0.0000
# 4 0.0000 0.0000 0.0000 27.4118 0.0000 0.0000
# 5 0.0000 0.0000 0.0000 0.0000 -7.3454 0.0000
# 6 0.0000 0.0000 0.0000 0.0000 0.0000 17.3357
#
#
#
# Elastic Compliance Matrix: (Units=1/GPa)
#
#
# Indices 1 2 3 4 5 6 
#
# 1 0.009228 -0.003048 -0.007541 0.000000 0.000000 0.000000
# 2 -0.003048 0.015094 -0.005753 0.000000 0.000000 0.000000
# 3 -0.007541 -0.005753 0.023139 0.000000 0.000000 0.000000
# 4 0.000000 0.000000 0.000000 0.036481 0.000000 0.000000
# 5 0.000000 0.000000 0.000000 0.000000 -0.136140 0.000000
# 6 0.000000 0.000000 0.000000 0.000000 0.000000 0.057684
#
#
# Mechanical properties :
#
#
# Convention : Reuss Voigt Hill
#
# Bulk Modulus (GPa) = 67.67661 87.60634 77.64148
# Shear Modulus (GPa) = 116.02173 19.35871 67.69022
#
# Velocity S-wave (km/s) = 7.99427 3.26548 6.10622
# Velocity P-wave (km/s) = 11.06750 7.90406 9.61675
#
# Compressibility (1/GPa) = 0.01477615
#
# Stress axis : x y z
#
# Youngs Moduli (GPa) = 108.36539 66.25266 43.21723
#
# Poissons Ratio (x) = 0.20196 0.32590
# Poissons Ratio (y) = 0.33033 0.24863
# Poissons Ratio (z) = 0.81717 0.38116
#
# Static dielectric constant tensor:
#      x y z
#    x 1.659410 0.000000 0.000000 
#    y 0.000000 1.608940 0.000000 
#    z 0.000000 0.000000 1.584120 
# 
# From -- ./inp_files/44789.got.cif
#   From: 2010.05.17/outbox.cif.g08.bks.cpg/sg74_23_cif.got.tgz:44789.got - 2010.06.03 17:57:02.
