data_PCOD9538927
_publ_section_title
;
Structure prediction by ZEFSAII (Michael W. Deem and Ramdas Pophale) SiO2 
 PCOD9538927
Probable space group: I M M A
;
_chemical_formula_sum "Si O2"
_cell_formula_units_Z 116
_cell_length_a 7.755906
_cell_length_b 28.702790
_cell_length_c 23.695722
_cell_angle_alpha 90.000000
_cell_angle_beta 90.000000
_cell_angle_gamma 90.000000
_cell_volume 5275.050194
_symmetry_space_group_name_H-M "I M M A"
_symmetry_group_IT_number 74
_symmetry_cell_setting 'orthorhombic'
loop_
_space_group_symop_operation_xyz
x,y,z
-x,1/2-y,z
x,-y,-z
-x,1/2+y,-z
-x,-y,-z
x,1/2+y,-z
-x,y,z
x,1/2-y,z
1/2+x,1/2+y,1/2+z
1/2-x,-y,1/2+z
1/2+x,1/2-y,1/2-z
1/2-x,y,1/2-z
1/2-x,1/2-y,1/2-z
1/2+x,y,1/2-z
1/2-x,1/2+y,1/2+z
1/2+x,-y,1/2+z
loop_
_atom_site_type_symbol
_atom_site_label
_atom_site_fract_x
_atom_site_fract_y
_atom_site_fract_z
Si Si1 0.000000 0.750000 0.304066
Si Si2 0.799376 0.178644 0.840246
Si Si3 0.211842 0.946657 0.496183
Si Si4 0.293502 0.302481 0.527394
Si Si5 0.206170 0.990565 0.814411
Si Si6 0.198473 0.386159 0.189242
Si Si7 0.699847 0.083182 0.875058
Si Si8 0.300329 0.869031 0.926344
O O1 0.845086 0.790980 0.308714
O O2 0.786728 0.122477 0.836100
O O3 0.000000 0.193155 0.829369
O O4 0.758450 0.186028 0.907229
O O5 0.270542 0.920949 0.438974
O O6 0.274047 0.917469 0.549762
O O7 0.000000 0.945911 0.495198
O O8 0.265957 0.000000 0.500000
O O9 0.500000 0.304387 0.521494
O O10 0.232680 0.250000 0.518220
O O11 0.217987 0.334543 0.478810
O O12 0.250000 0.002578 0.750000
O O13 0.286771 0.030777 0.852283
O O14 0.000000 0.992369 0.823588
O O15 0.277407 0.937786 0.821637
O O16 0.250000 0.366664 0.250000
O O17 0.222700 0.355607 0.133634
O O18 0.000000 0.396399 0.195748
O O19 0.500000 0.096901 0.878449
O O20 0.500000 0.875767 0.914690
#
# Coordination Sequence:
#
# PCOD9538927 Si02
#       8
#     4  16  16  16  16  16  16  16
#     4  12  22  36  60  82 116 152 202 236 304 350
#     4  11  22  36  56  84 118 153 194 244 291 352
#     4   9  18  30  47  75 113 155 192 226 275 345
#     4  10  21  36  54  78 113 151 190 239 291 340
#     4  10  21  37  57  82 112 150 196 245 290 340
#     4  10  21  38  58  80 110 148 194 244 291 340
#     4  11  20  34  55  82 119 155 190 237 290 345
#     4  11  21  33  55  82 112 148 191 235 287 347
#
# _framework density 21.990310999999998
#
# number of rings (size 3 to 8) (size 9 to 14) (size 15 to 20)
#    0.000    1.655    2.759    2.690    0.966    3.034 
#    0.000    0.000    0.000    3.724    0.000    0.483 
#    0.000    0.000    0.000    0.000    0.000    0.000 
#
# Total GULP energy -323361.927174 kJ/mol
# GULP energy per Si atom -5575.205641 kJ/mol
# Density = 2.194026 g / cm^3
# Si number density = 21.990311 Si / 1000 Ang^3
#
#
#
# Elastic Constant Matrix: (Units=GPa)
#
#
# Indices 1 2 3 4 5 6 
#
# 1 85.2803 7.5701 3.7826 0.0000 0.0000 0.0000
# 2 7.5701 39.8976 -8.0873 0.0000 0.0000 0.0000
# 3 3.7826 -8.0873 80.9669 -0.0001 0.0000 0.0000
# 4 0.0000 0.0000 -0.0001 1.3215 0.0000 0.0000
# 5 0.0000 0.0000 0.0000 0.0000 17.1607 0.0000
# 6 0.0000 0.0000 0.0000 0.0000 0.0000 22.2202
#
#
#
# Elastic Compliance Matrix: (Units=1/GPa)
#
#
# Indices 1 2 3 4 5 6 
#
# 1 0.011978 -0.002435 -0.000803 0.000000 0.000000 0.000000
# 2 -0.002435 0.026077 0.002718 0.000001 0.000000 0.000000
# 3 -0.000803 0.002718 0.012660 0.000001 0.000000 0.000000
# 4 0.000000 0.000001 0.000001 0.756721 0.000000 0.000000
# 5 0.000000 0.000000 0.000000 0.000000 0.058273 0.000000
# 6 0.000000 0.000000 0.000000 0.000000 0.000000 0.045004
#
#
# Mechanical properties :
#
#
# Convention : Reuss Voigt Hill
#
# Bulk Modulus (GPa) = 20.13069 23.63064 21.88066
# Shear Modulus (GPa) = 5.38613 21.66575 13.52594
#
# Velocity S-wave (km/s) = 1.56673 3.14226 2.48278
# Velocity P-wave (km/s) = 3.52804 4.89227 4.26505
#
# Compressibility (1/GPa) = 0.04967540
#
# Stress axis : x y z
#
# Youngs Moduli (GPa) = 83.48753 38.34749 78.99044
#
# Poissons Ratio (x) = 0.09339 0.06342
# Poissons Ratio (y) = 0.20333 -0.21473
# Poissons Ratio (z) = 0.06703 -0.10425
#
# Static dielectric constant tensor:
#      x y z
#    x 1.801460 0.000000 0.000000 
#    y 0.000000 1.828290 0.000000 
#    z 0.000000 0.000000 1.877290 
# 
# From -- ./inp_files/57918.got.cif
#   From: 2010.05.17/outbox.cif.g08.bks.cpg/sg74_29_cif.got.tgz:57918.got - 2010.06.03 17:57:02.
