data_PCOD9538603
_publ_section_title
;
Structure prediction by ZEFSAII (Michael W. Deem and Ramdas Pophale) SiO2 
 PCOD9538603
Probable space group: I M M A
;
_chemical_formula_sum "Si O2"
_cell_formula_units_Z 88
_cell_length_a 13.809761
_cell_length_b 15.252830
_cell_length_c 22.438714
_cell_angle_alpha 90.000000
_cell_angle_beta 90.000000
_cell_angle_gamma 90.000000
_cell_volume 4726.444423
_symmetry_space_group_name_H-M "I M M A"
_symmetry_group_IT_number 74
_symmetry_cell_setting 'orthorhombic'
loop_
_space_group_symop_operation_xyz
x,y,z
-x,1/2-y,z
x,-y,-z
-x,1/2+y,-z
-x,-y,-z
x,1/2+y,-z
-x,y,z
x,1/2-y,z
1/2+x,1/2+y,1/2+z
1/2-x,-y,1/2+z
1/2+x,1/2-y,1/2-z
1/2-x,y,1/2-z
1/2-x,1/2-y,1/2-z
1/2+x,y,1/2-z
1/2-x,1/2+y,1/2+z
1/2+x,-y,1/2+z
loop_
_atom_site_type_symbol
_atom_site_label
_atom_site_fract_x
_atom_site_fract_y
_atom_site_fract_z
Si Si1 0.260970 0.582889 0.626002
Si Si2 0.758430 0.401458 0.574603
Si Si3 0.385042 0.852761 0.191043
Si Si4 0.111945 0.250000 0.095522
Si Si5 0.388108 0.250000 0.548254
Si Si6 0.888859 0.355543 0.462191
Si Si7 0.250000 0.015254 0.750000
O O1 0.282861 0.498103 0.585424
O O2 0.333761 0.663111 0.617815
O O3 0.157786 0.615421 0.600255
O O4 0.258738 0.545932 0.692457
O O5 0.827904 0.375906 0.630114
O O6 0.670799 0.333730 0.570757
O O7 0.823326 0.392636 0.515510
O O8 0.500000 0.865312 0.183528
O O9 0.368322 0.750000 0.205340
O O10 0.340317 0.918800 0.239658
O O11 0.000000 0.250000 0.113351
O O12 0.117343 0.250000 0.023656
O O13 0.500000 0.250000 0.566213
O O14 0.884354 0.250000 0.466572
O O15 0.000000 0.383430 0.467817
#
# Coordination Sequence:
#
# PCOD9538603 Si02
#       7
#    16  16  16   8   8  16   8
#     4  11  23  41  62  86 119 164 210 258 302 362
#     4  11  20  37  65  99 131 158 195 243 316 383
#     4  10  20  38  65  94 128 165 198 244 306 375
#     4  11  24  43  61  81 116 163 216 263 303 352
#     4  11  22  38  61  94 134 161 198 248 305 379
#     4  11  21  37  64  97 130 160 196 249 314 381
#     4  10  25  39  62  86 126 160 214 264 298 356
#
# _framework density 18.618646999999999
#
# number of rings (size 3 to 8) (size 9 to 14) (size 15 to 20)
#    0.000    1.273    4.545    1.364    0.000    7.636 
#    0.000    4.545    0.000    0.000    0.000    0.000 
#    0.000    0.000    0.000    0.000    0.000    0.000 
#
# Total GULP energy -245788.785655 kJ/mol
# GULP energy per Si atom -5586.108765 kJ/mol
# Density = 1.857627 g / cm^3
# Si number density = 18.618647 Si / 1000 Ang^3
#
#
#
# Elastic Constant Matrix: (Units=GPa)
#
#
# Indices 1 2 3 4 5 6 
#
# 1 155.3618 86.9810 53.6930 0.0000 0.0000 0.0000
# 2 86.9810 165.7964 51.9157 0.0000 0.0000 0.0000
# 3 53.6930 51.9157 96.6476 0.0000 0.0000 0.0000
# 4 0.0000 0.0000 0.0000 29.7667 0.0000 0.0000
# 5 0.0000 0.0000 0.0000 0.0000 19.0519 0.0000
# 6 0.0000 0.0000 0.0000 0.0000 0.0000 6.8922
#
#
#
# Elastic Compliance Matrix: (Units=1/GPa)
#
#
# Indices 1 2 3 4 5 6 
#
# 1 0.009899 -0.004173 -0.003258 0.000000 0.000000 0.000000
# 2 -0.004173 0.009010 -0.002522 0.000000 0.000000 0.000000
# 3 -0.003258 -0.002522 0.013511 0.000000 0.000000 0.000000
# 4 0.000000 0.000000 0.000000 0.033595 0.000000 0.000000
# 5 0.000000 0.000000 0.000000 0.000000 0.052488 0.000000
# 6 0.000000 0.000000 0.000000 0.000000 0.000000 0.145091
#
#
# Mechanical properties :
#
#
# Convention : Reuss Voigt Hill
#
# Bulk Modulus (GPa) = 79.90076 89.22059 84.56068
# Shear Modulus (GPa) = 17.38098 26.15657 21.76878
#
# Velocity S-wave (km/s) = 3.05868 3.75221 3.42305
# Velocity P-wave (km/s) = 7.44860 8.17289 7.81913
#
# Compressibility (1/GPa) = 0.01251552
#
# Stress axis : x y z
#
# Youngs Moduli (GPa) = 101.02251 110.98263 74.01237
#
# Poissons Ratio (x) = 0.46314 0.24111
# Poissons Ratio (y) = 0.42158 0.18664
# Poissons Ratio (z) = 0.32910 0.27987
#
# Static dielectric constant tensor:
#      x y z
#    x 1.623180 0.000000 0.000000 
#    y 0.000000 1.653410 0.000000 
#    z 0.000000 0.000000 1.647640 
# 
# From -- ./inp_files/51782.got.cif
#   From: 2010.05.17/outbox.cif.g08.bks.cpg/sg74_26_cif.got.tgz:51782.got - 2010.06.03 17:57:02.
