data_PCOD9538129
_publ_section_title
;
Structure prediction by ZEFSAII (Michael W. Deem and Ramdas Pophale) SiO2 
 PCOD9538129
Probable space group: I M M A
;
_chemical_formula_sum "Si O2"
_cell_formula_units_Z 64
_cell_length_a 27.981579
_cell_length_b 26.225586
_cell_length_c 5.059859
_cell_angle_alpha 90.000000
_cell_angle_beta 90.000000
_cell_angle_gamma 90.000000
_cell_volume 3713.093060
_symmetry_space_group_name_H-M "I M M A"
_symmetry_group_IT_number 74
_symmetry_cell_setting 'orthorhombic'
loop_
_space_group_symop_operation_xyz
x,y,z
-x,1/2-y,z
x,-y,-z
-x,1/2+y,-z
-x,-y,-z
x,1/2+y,-z
-x,y,z
x,1/2-y,z
1/2+x,1/2+y,1/2+z
1/2-x,-y,1/2+z
1/2+x,1/2-y,1/2-z
1/2-x,y,1/2-z
1/2-x,1/2-y,1/2-z
1/2+x,y,1/2-z
1/2-x,1/2+y,1/2+z
1/2+x,-y,1/2+z
loop_
_atom_site_type_symbol
_atom_site_label
_atom_site_fract_x
_atom_site_fract_y
_atom_site_fract_z
Si Si1 0.250000 0.035814 0.250000
Si Si2 0.344387 0.597889 0.607151
Si Si3 0.783180 0.691057 0.008986
Si Si4 0.500000 0.962563 0.247514
Si Si5 0.602849 0.058726 0.901276
O O1 0.296244 0.070277 0.296277
O O2 0.241868 0.000000 0.500000
O O3 0.328448 0.654995 0.534749
O O4 0.362614 0.569728 0.344192
O O5 0.382231 0.592096 0.845101
O O6 0.796179 0.750000 0.063312
O O7 0.750000 0.689915 0.750000
O O8 0.750000 0.672037 0.250000
O O9 0.549506 0.932518 0.213747
O O10 0.500000 0.000000 0.500000
O O11 0.500000 0.000000 0.000000
O O12 0.606399 0.000000 0.000000
#
# Coordination Sequence:
#
# PCOD9538129 Si02
#       5
#     8  16  16   8  16
#     4  12  24  32  45  72 113 148 170 198 252 320
#     4  12  22  35  53  78 107 144 180 217 266 319
#     4  10  21  38  56  75 102 140 185 230 265 308
#     4  10  20  36  56  76 105 144 185 228 268 304
#     4  11  22  36  53  79 109 142 181 221 262 322
#
# _framework density 17.236302999999999
#
# number of rings (size 3 to 8) (size 9 to 14) (size 15 to 20)
#    0.000    1.000    1.250    9.000    1.750    0.000 
#    0.000    0.000    0.000    0.000    0.000    5.250 
#    0.000    0.000    0.000    0.000    0.000    0.000 
#
# Total GULP energy -178792.026967 kJ/mol
# GULP energy per Si atom -5587.250843 kJ/mol
# Density = 1.719707 g / cm^3
# Si number density = 17.236303 Si / 1000 Ang^3
#
#
#
# Elastic Constant Matrix: (Units=GPa)
#
#
# Indices 1 2 3 4 5 6 
#
# 1 97.3773 45.9108 36.9327 0.0000 0.0000 0.0000
# 2 45.9108 66.8284 22.1794 0.0000 0.0000 0.0000
# 3 36.9327 22.1794 129.6110 0.0000 0.0000 0.0000
# 4 0.0000 0.0000 0.0000 6.3342 0.0000 0.0000
# 5 0.0000 0.0000 0.0000 0.0000 32.8039 0.0000
# 6 0.0000 0.0000 0.0000 0.0000 0.0000 46.2734
#
#
#
# Elastic Compliance Matrix: (Units=1/GPa)
#
#
# Indices 1 2 3 4 5 6 
#
# 1 0.016133 -0.010133 -0.002863 0.000000 0.000000 0.000000
# 2 -0.010133 0.022229 -0.000917 0.000000 0.000000 0.000000
# 3 -0.002863 -0.000917 0.008688 0.000000 0.000000 0.000000
# 4 0.000000 0.000000 0.000000 0.157872 0.000000 0.000000
# 5 0.000000 0.000000 0.000000 0.000000 0.030484 0.000000
# 6 0.000000 0.000000 0.000000 0.000000 0.000000 0.021611
#
#
# Mechanical properties :
#
#
# Convention : Reuss Voigt Hill
#
# Bulk Modulus (GPa) = 52.01580 55.98474 54.00027
# Shear Modulus (GPa) = 17.16741 29.66855 23.41798
#
# Velocity S-wave (km/s) = 3.15938 4.15334 3.68998
# Velocity P-wave (km/s) = 6.59943 7.45329 7.03932
#
# Compressibility (1/GPa) = 0.01922493
#
# Stress axis : x y z
#
# Youngs Moduli (GPa) = 61.98646 44.98610 115.10046
#
# Poissons Ratio (x) = 0.45584 0.32954
# Poissons Ratio (y) = 0.62810 0.10550
# Poissons Ratio (z) = 0.17747 0.04123
#
# Static dielectric constant tensor:
#      x y z
#    x 1.633560 0.000000 0.000000 
#    y 0.000000 1.589100 0.000000 
#    z 0.000000 0.000000 1.613560 
# 
# From -- ./inp_files/3653.got.cif
#   From: 2010.05.17/outbox.cif.g08.bks.cpg/sg74_2_cif.got.tgz:3653.got - 2010.06.03 17:57:02.
