data_PCOD9538464
_publ_section_title
;
Structure prediction by ZEFSAII (Michael W. Deem and Ramdas Pophale) SiO2 
 PCOD9538464
Probable space group: I M M A
;
_chemical_formula_sum "Si O2"
_cell_formula_units_Z 80
_cell_length_a 8.179417
_cell_length_b 24.961453
_cell_length_c 17.297356
_cell_angle_alpha 90.000000
_cell_angle_beta 90.000000
_cell_angle_gamma 90.000000
_cell_volume 3531.603475
_symmetry_space_group_name_H-M "I M M A"
_symmetry_group_IT_number 74
_symmetry_cell_setting 'orthorhombic'
loop_
_space_group_symop_operation_xyz
x,y,z
-x,1/2-y,z
x,-y,-z
-x,1/2+y,-z
-x,-y,-z
x,1/2+y,-z
-x,y,z
x,1/2-y,z
1/2+x,1/2+y,1/2+z
1/2-x,-y,1/2+z
1/2+x,1/2-y,1/2-z
1/2-x,y,1/2-z
1/2-x,1/2-y,1/2-z
1/2+x,y,1/2-z
1/2-x,1/2+y,1/2+z
1/2+x,-y,1/2+z
loop_
_atom_site_type_symbol
_atom_site_label
_atom_site_fract_x
_atom_site_fract_y
_atom_site_fract_z
Si Si1 0.303382 0.477394 0.834248
Si Si2 0.680149 0.750000 0.393395
Si Si3 0.808838 0.664891 0.835894
Si Si4 0.320892 0.250000 0.051577
Si Si5 0.801717 0.573267 0.565019
Si Si6 0.303303 0.130342 0.903817
O O1 0.500000 0.477360 0.834545
O O2 0.250000 0.497523 0.750000
O O3 0.255846 0.512575 0.910035
O O4 0.245973 0.416300 0.846077
O O5 0.500000 0.750000 0.359698
O O6 0.685204 0.750000 0.486666
O O7 0.754070 0.690573 0.379404
O O8 0.750000 0.675438 0.750000
O O9 0.701902 0.699805 0.893980
O O10 0.770715 0.605210 0.862226
O O11 0.000000 0.677612 0.843685
O O12 0.500000 0.250000 0.013850
O O13 0.747947 0.606311 0.488183
O O14 0.000000 0.574756 0.563549
O O15 0.500000 0.130594 0.907015
#
# Coordination Sequence:
#
# PCOD9538464 Si02
#       6
#    16   8  16   8  16  16
#     4  10  22  40  63  93 125 163 207 255 309 368
#     4  12  24  39  62  95 126 155 200 257 314 367
#     4  12  24  37  54  82 120 162 207 252 301 359
#     4  12  23  39  58  79 114 159 204 253 306 359
#     4  10  20  37  62  90 122 161 205 251 301 360
#     4  10  21  40  66  91 122 164 209 252 305 370
#
# _framework density 22.652598000000001
#
# number of rings (size 3 to 8) (size 9 to 14) (size 15 to 20)
#    0.000    1.200    2.000    5.100    0.000    5.600 
#    0.000    0.500    0.000    3.600    0.000    0.000 
#    0.000    0.000    0.000    0.000    0.000    0.000 
#
# Total GULP energy -223113.248400 kJ/mol
# GULP energy per Si atom -5577.831210 kJ/mol
# Density = 2.260104 g / cm^3
# Si number density = 22.652598 Si / 1000 Ang^3
#
#
#
# Elastic Constant Matrix: (Units=GPa)
#
#
# Indices 1 2 3 4 5 6 
#
# 1 41.7789 25.2769 -6.2126 0.0000 0.0000 0.0000
# 2 25.2769 145.2952 8.4846 0.0000 0.0000 0.0000
# 3 -6.2126 8.4846 44.5298 -0.0001 0.0000 0.0000
# 4 0.0000 0.0000 -0.0001 31.8565 0.0000 0.0000
# 5 0.0000 0.0000 0.0000 0.0000 12.4216 0.0000
# 6 0.0000 0.0000 0.0000 0.0000 0.0000 15.5834
#
#
#
# Elastic Compliance Matrix: (Units=1/GPa)
#
#
# Indices 1 2 3 4 5 6 
#
# 1 0.027748 -0.005110 0.004845 0.000000 0.000000 0.000000
# 2 -0.005110 0.007901 -0.002218 0.000000 0.000000 0.000000
# 3 0.004845 -0.002218 0.023555 0.000000 0.000000 0.000000
# 4 0.000000 0.000000 0.000000 0.031391 0.000000 0.000000
# 5 0.000000 0.000000 0.000000 0.000000 0.080505 0.000000
# 6 0.000000 0.000000 0.000000 0.000000 0.000000 0.064171
#
#
# Mechanical properties :
#
#
# Convention : Reuss Voigt Hill
#
# Bulk Modulus (GPa) = 18.43760 31.85573 25.14667
# Shear Modulus (GPa) = 19.35607 25.57598 22.46602
#
# Velocity S-wave (km/s) = 2.92631 3.36378 3.15264
# Velocity P-wave (km/s) = 4.42433 5.40185 4.93734
#
# Compressibility (1/GPa) = 0.05423699
#
# Stress axis : x y z
#
# Youngs Moduli (GPa) = 36.03903 126.56472 42.45293
#
# Poissons Ratio (x) = 0.64677 -0.20568
# Poissons Ratio (y) = 0.18417 0.09418
# Poissons Ratio (z) = -0.17461 0.28077
#
# Static dielectric constant tensor:
#      x y z
#    x 1.792480 0.000000 0.000000 
#    y 0.000000 1.971680 0.000000 
#    z 0.000000 0.000000 1.826370 
# 
# From -- ./inp_files/48619.got.cif
#   From: 2010.05.17/outbox.cif.g08.bks.cpg/sg74_25_cif.got.tgz:48619.got - 2010.06.03 17:57:02.
