data_PCOD9538706
_publ_section_title
;
Structure prediction by ZEFSAII (Michael W. Deem and Ramdas Pophale) SiO2 
 PCOD9538706
Probable space group: I M M A
;
_chemical_formula_sum "Si O2"
_cell_formula_units_Z 116
_cell_length_a 27.376701
_cell_length_b 9.705731
_cell_length_c 22.681873
_cell_angle_alpha 90.000000
_cell_angle_beta 90.000000
_cell_angle_gamma 90.000000
_cell_volume 6026.820788
_symmetry_space_group_name_H-M "I M M A"
_symmetry_group_IT_number 74
_symmetry_cell_setting 'orthorhombic'
loop_
_space_group_symop_operation_xyz
x,y,z
-x,1/2-y,z
x,-y,-z
-x,1/2+y,-z
-x,-y,-z
x,1/2+y,-z
-x,y,z
x,1/2-y,z
1/2+x,1/2+y,1/2+z
1/2-x,-y,1/2+z
1/2+x,1/2-y,1/2-z
1/2-x,y,1/2-z
1/2-x,1/2-y,1/2-z
1/2+x,y,1/2-z
1/2-x,1/2+y,1/2+z
1/2+x,-y,1/2+z
loop_
_atom_site_type_symbol
_atom_site_label
_atom_site_fract_x
_atom_site_fract_y
_atom_site_fract_z
Si Si1 0.367138 0.594217 0.846521
Si Si2 0.305127 0.594619 0.726957
Si Si3 0.306498 0.591540 0.383571
Si Si4 0.780929 0.915746 0.559513
Si Si5 0.058269 0.601746 0.820437
Si Si6 0.088875 0.035458 0.931555
Si Si7 0.441880 0.410958 0.788939
Si Si8 0.500000 0.250000 0.586308
O O1 0.385807 0.750000 0.854682
O O2 0.338357 0.588047 0.784583
O O3 0.326849 0.567658 0.896550
O O4 0.410854 0.487082 0.838946
O O5 0.308837 0.750000 0.701006
O O6 0.250000 0.577813 0.750000
O O7 0.316694 0.477401 0.679850
O O8 0.289065 0.750000 0.378772
O O9 0.266419 0.490804 0.412632
O O10 0.356954 0.592251 0.419969
O O11 0.773060 0.750000 0.551115
O O12 0.790952 0.000000 0.500000
O O13 0.071669 0.750000 0.793628
O O14 0.083047 0.585758 0.883696
O O15 0.069465 0.481854 0.774146
O O16 0.000000 0.600511 0.828807
O O17 0.043568 0.132928 0.915147
O O18 0.083730 0.000000 0.000000
O O19 0.500000 0.427526 0.798092
O O20 0.430454 0.250000 0.786173
#
# Coordination Sequence:
#
# PCOD9538706 Si02
#       8
#    16  16  16  16  16  16  16   4
#     4  10  21  39  65  93 125 167 206 245 308 371
#     4  10  20  40  65  91 126 166 203 255 317 378
#     4  12  25  41  62  95 126 160 209 261 318 382
#     4  11  24  44  67  93 127 164 203 252 307 375
#     4  10  22  37  58  84 114 157 207 256 311 375
#     4  12  27  42  64  82 115 165 216 272 329 376
#     4  10  22  38  61  92 129 164 202 254 310 363
#     4  12  26  48  62  80 118 162 220 288 328 376
#
# _framework density 19.247295000000001
#
# number of rings (size 3 to 8) (size 9 to 14) (size 15 to 20)
#    0.000    1.241    2.759    2.690    1.931    6.069 
#    0.000    0.000    0.000    0.414    0.000    0.000 
#    0.000    0.000    0.000    0.000    0.000    0.000 
#
# Total GULP energy -323421.274026 kJ/mol
# GULP energy per Si atom -5576.228863 kJ/mol
# Density = 1.920349 g / cm^3
# Si number density = 19.247295 Si / 1000 Ang^3
#
#
#
# Elastic Constant Matrix: (Units=GPa)
#
#
# Indices 1 2 3 4 5 6 
#
# 1 87.6293 65.9089 40.4524 0.0000 0.0000 0.0000
# 2 65.9089 164.5239 64.0487 0.0000 0.0000 0.0000
# 3 40.4524 64.0487 89.4324 0.0000 0.0000 0.0000
# 4 0.0000 0.0000 0.0000 14.5990 0.0000 0.0000
# 5 0.0000 0.0000 0.0000 0.0000 17.2174 0.0000
# 6 0.0000 0.0000 0.0000 0.0000 0.0000 20.0368
#
#
#
# Elastic Compliance Matrix: (Units=1/GPa)
#
#
# Indices 1 2 3 4 5 6 
#
# 1 0.017291 -0.005383 -0.003966 0.000000 0.000000 0.000000
# 2 -0.005383 0.010104 -0.004801 0.000000 0.000000 0.000000
# 3 -0.003966 -0.004801 0.016414 0.000000 0.000000 0.000000
# 4 0.000000 0.000000 0.000000 0.068498 0.000000 0.000000
# 5 0.000000 0.000000 0.000000 0.000000 0.058081 0.000000
# 6 0.000000 0.000000 0.000000 0.000000 0.000000 0.049908
#
#
# Mechanical properties :
#
#
# Convention : Reuss Voigt Hill
#
# Bulk Modulus (GPa) = 64.48052 75.82285 70.15168
# Shear Modulus (GPa) = 19.70325 21.78236 20.74281
#
# Velocity S-wave (km/s) = 3.20299 3.36774 3.28640
# Velocity P-wave (km/s) = 6.87405 7.38930 7.13633
#
# Compressibility (1/GPa) = 0.01550856
#
# Stress axis : x y z
#
# Youngs Moduli (GPa) = 57.83260 98.97453 60.92360
#
# Poissons Ratio (x) = 0.53277 0.24163
# Poissons Ratio (y) = 0.31131 0.29250
# Poissons Ratio (z) = 0.22937 0.47518
#
# Static dielectric constant tensor:
#      x y z
#    x 1.689620 0.000000 0.000000 
#    y 0.000000 1.750230 0.000000 
#    z 0.000000 0.000000 1.662070 
# 
# From -- ./inp_files/62442.got.cif
#   From: 2010.05.17/outbox.cif.g08.bks.cpg/sg74_32_cif.got.tgz:62442.got - 2010.06.03 17:57:02.
