data_PCOD9538015
_publ_section_title
;
Structure prediction by ZEFSAII (Michael W. Deem and Ramdas Pophale) SiO2 
 PCOD9538015
Probable space group: I M M A
;
_chemical_formula_sum "Si O2"
_cell_formula_units_Z 100
_cell_length_a 19.075121
_cell_length_b 7.901516
_cell_length_c 33.590299
_cell_angle_alpha 90.000000
_cell_angle_beta 90.000000
_cell_angle_gamma 90.000000
_cell_volume 5062.809601
_symmetry_space_group_name_H-M "I M M A"
_symmetry_group_IT_number 74
_symmetry_cell_setting 'orthorhombic'
loop_
_space_group_symop_operation_xyz
x,y,z
-x,1/2-y,z
x,-y,-z
-x,1/2+y,-z
-x,-y,-z
x,1/2+y,-z
-x,y,z
x,1/2-y,z
1/2+x,1/2+y,1/2+z
1/2-x,-y,1/2+z
1/2+x,1/2-y,1/2-z
1/2-x,y,1/2-z
1/2-x,1/2-y,1/2-z
1/2+x,y,1/2-z
1/2-x,1/2+y,1/2+z
1/2+x,-y,1/2+z
loop_
_atom_site_type_symbol
_atom_site_label
_atom_site_fract_x
_atom_site_fract_y
_atom_site_fract_z
Si Si1 0.420456 0.048168 0.724982
Si Si2 0.000000 0.750000 0.036740
Si Si3 0.578934 0.948838 0.810774
Si Si4 0.649703 0.042601 0.643601
Si Si5 0.693018 0.945086 0.127767
Si Si6 0.772035 0.551692 0.543796
Si Si7 0.106808 0.052345 0.058395
O O1 0.500000 0.979633 0.724732
O O2 0.424391 0.250000 0.720417
O O3 0.379102 0.987558 0.686350
O O4 0.390706 0.015438 0.768893
O O5 0.060308 0.597148 0.040130
O O6 0.500000 0.021420 0.816307
O O7 0.572469 0.750000 0.805573
O O8 0.629416 0.978317 0.847836
O O9 0.647425 0.250000 0.640397
O O10 0.730102 0.984299 0.638807
O O11 0.605597 0.971553 0.606434
O O12 0.694314 0.750000 0.139355
O O13 0.689630 0.961065 0.080210
O O14 0.795333 0.500000 0.500000
O O15 0.782411 0.750000 0.549665
O O16 0.688142 0.520951 0.547057
O O17 0.087944 0.250000 0.048608
#
# Coordination Sequence:
#
# PCOD9538015 Si02
#       7
#    16   4  16  16  16  16  16
#     4   9  18  31  51  76 106 148 194 233 280 333
#     4  12  22  36  58  74 118 154 200 242 300 340
#     4  10  21  37  54  76 111 148 184 229 283 338
#     4   9  18  33  53  80 111 147 190 243 291 332
#     4  10  20  35  58  85 111 143 184 228 282 340
#     4  10  21  38  63  87 113 144 184 230 276 338
#     4  10  22  36  55  82 110 152 198 244 294 340
#
# _framework density 19.751878000000001
#
# number of rings (size 3 to 8) (size 9 to 14) (size 15 to 20)
#    0.000    2.240    0.800    1.680    3.360    2.880 
#    0.000    3.600    0.000    0.480    0.000    0.000 
#    0.000    0.000    0.000    0.000    0.000    0.000 
#
# Total GULP energy -278531.204095 kJ/mol
# GULP energy per Si atom -5570.624082 kJ/mol
# Density = 1.970692 g / cm^3
# Si number density = 19.751878 Si / 1000 Ang^3
#
#
#
# Elastic Constant Matrix: (Units=GPa)
#
#
# Indices 1 2 3 4 5 6 
#
# 1 41.2364 21.6460 44.2305 0.0000 0.0000 0.0000
# 2 21.6460 72.1901 16.2206 0.0000 0.0000 0.0000
# 3 44.2305 16.2206 133.9145 0.0000 0.0000 0.0000
# 4 0.0000 0.0000 0.0000 28.9965 0.0000 0.0000
# 5 0.0000 0.0000 0.0000 0.0000 -23.9875 0.0000
# 6 0.0000 0.0000 0.0000 0.0000 0.0000 23.3725
#
#
#
# Elastic Compliance Matrix: (Units=1/GPa)
#
#
# Indices 1 2 3 4 5 6 
#
# 1 0.043765 -0.010151 -0.013225 0.000000 0.000000 0.000000
# 2 -0.010151 0.016594 0.001343 0.000000 0.000000 0.000000
# 3 -0.013225 0.001343 0.011673 0.000000 0.000000 0.000000
# 4 0.000000 0.000000 0.000000 0.034487 0.000000 0.000000
# 5 0.000000 0.000000 0.000000 0.000000 -0.041688 0.000000
# 6 0.000000 0.000000 0.000000 0.000000 0.000000 0.042785
#
#
# Mechanical properties :
#
#
# Convention : Reuss Voigt Hill
#
# Bulk Modulus (GPa) = 35.75948 45.72614 40.74281
# Shear Modulus (GPa) = 31.05495 16.69255 23.87375
#
# Velocity S-wave (km/s) = 3.96947 2.91024 3.48038
# Velocity P-wave (km/s) = 6.25720 5.87309 6.06818
#
# Compressibility (1/GPa) = 0.02796461
#
# Stress axis : x y z
#
# Youngs Moduli (GPa) = 22.84948 60.26137 85.66769
#
# Poissons Ratio (x) = 0.61172 1.13299
# Poissons Ratio (y) = 0.23195 -0.11503
# Poissons Ratio (z) = 0.30219 -0.08092
#
# Static dielectric constant tensor:
#      x y z
#    x 1.699630 0.000000 0.000000 
#    y 0.000000 1.709090 0.000000 
#    z 0.000000 0.000000 1.735650 
# 
# From -- ./inp_files/73377.got.cif
#   From: 2010.05.17/outbox.cif.g08.bks.cpg/sg74_37_cif.got.tgz:73377.got - 2010.06.03 17:57:02.
