data_PCOD9538268
_publ_section_title
;
Structure prediction by ZEFSAII (Michael W. Deem and Ramdas Pophale) SiO2 
 PCOD9538268
Probable space group: I M M A
;
_chemical_formula_sum "Si O2"
_cell_formula_units_Z 96
_cell_length_a 12.269819
_cell_length_b 18.961608
_cell_length_c 22.200858
_cell_angle_alpha 90.000000
_cell_angle_beta 90.000000
_cell_angle_gamma 90.000000
_cell_volume 5165.151676
_symmetry_space_group_name_H-M "I M M A"
_symmetry_group_IT_number 74
_symmetry_cell_setting 'orthorhombic'
loop_
_space_group_symop_operation_xyz
x,y,z
-x,1/2-y,z
x,-y,-z
-x,1/2+y,-z
-x,-y,-z
x,1/2+y,-z
-x,y,z
x,1/2-y,z
1/2+x,1/2+y,1/2+z
1/2-x,-y,1/2+z
1/2+x,1/2-y,1/2-z
1/2-x,y,1/2-z
1/2-x,1/2-y,1/2-z
1/2+x,y,1/2-z
1/2-x,1/2+y,1/2+z
1/2+x,-y,1/2+z
loop_
_atom_site_type_symbol
_atom_site_label
_atom_site_fract_x
_atom_site_fract_y
_atom_site_fract_z
Si Si1 0.383331 0.405719 0.814704
Si Si2 0.294153 0.927857 0.618555
Si Si3 0.209459 0.582502 0.081338
Si Si4 0.500000 0.165801 0.416262
Si Si5 0.876127 0.082126 0.479430
Si Si6 0.880777 0.250000 0.737898
Si Si7 0.500000 0.832426 0.439140
Si Si8 0.250000 0.487369 0.250000
O O1 0.500000 0.426602 0.841433
O O2 0.288939 0.413064 0.862440
O O3 0.388398 0.325046 0.795195
O O4 0.351343 0.459545 0.761859
O O5 0.390935 0.872072 0.608924
O O6 0.179455 0.909172 0.585830
O O7 0.273040 0.944001 0.689030
O O8 0.326176 0.000318 0.582511
O O9 0.106191 0.631345 0.087463
O O10 0.283412 0.608545 0.025544
O O11 0.500000 0.250000 0.404385
O O12 0.500000 0.155530 0.488646
O O13 0.000000 0.110357 0.483207
O O14 0.883410 0.000000 0.500000
O O15 0.750000 0.250000 0.750000
O O16 0.000000 0.250000 0.774164
O O17 0.500000 0.750000 0.428243
#
# Coordination Sequence:
#
# PCOD9538268 Si02
#       8
#    16  16  16   8  16   8   8   8
#     4  10  21  37  56  83 120 159 201 247 286 339
#     4  10  21  37  60  89 114 150 191 239 298 352
#     4  10  20  36  59  88 119 151 197 239 290 347
#     4  11  23  41  63  85 119 151 188 245 313 367
#     4   9  17  32  57  86 115 147 184 233 292 349
#     4  10  20  38  56  76 118 172 212 241 290 343
#     4  11  23  37  57  87 123 159 195 243 286 357
#     4  10  22  37  59  90 114 148 198 252 292 348
#
# _framework density 18.586095
#
# number of rings (size 3 to 8) (size 9 to 14) (size 15 to 20)
#    0.000    2.000    2.500    1.000    2.333    4.667 
#    3.000    0.417    0.000    1.500    0.000    0.000 
#    0.000    0.000    0.000    0.000    0.000    0.000 
#
# Total GULP energy -267213.502324 kJ/mol
# GULP energy per Si atom -5566.947965 kJ/mol
# Density = 1.854379 g / cm^3
# Si number density = 18.586095 Si / 1000 Ang^3
#
#
#
# Elastic Constant Matrix: (Units=GPa)
#
#
# Indices 1 2 3 4 5 6 
#
# 1 171.0995 51.1904 38.0450 0.0000 0.0000 0.0000
# 2 51.1904 62.8269 17.0145 0.0000 0.0000 0.0000
# 3 38.0450 17.0145 90.4763 0.0000 0.0000 0.0000
# 4 0.0000 0.0000 0.0000 15.1780 0.0000 0.0000
# 5 0.0000 0.0000 0.0000 0.0000 14.3135 0.0000
# 6 0.0000 0.0000 0.0000 0.0000 0.0000 15.0711
#
#
#
# Elastic Compliance Matrix: (Units=1/GPa)
#
#
# Indices 1 2 3 4 5 6 
#
# 1 0.008158 -0.006025 -0.002297 0.000000 0.000000 0.000000
# 2 -0.006025 0.021220 -0.001457 0.000000 0.000000 0.000000
# 3 -0.002297 -0.001457 0.012293 0.000000 0.000000 0.000000
# 4 0.000000 0.000000 0.000000 0.065885 0.000000 0.000000
# 5 0.000000 0.000000 0.000000 0.000000 0.069864 0.000000
# 6 0.000000 0.000000 0.000000 0.000000 0.000000 0.066352
#
#
# Mechanical properties :
#
#
# Convention : Reuss Voigt Hill
#
# Bulk Modulus (GPa) = 45.22392 59.65583 52.43988
# Shear Modulus (GPa) = 18.47058 23.45607 20.96332
#
# Velocity S-wave (km/s) = 3.15586 3.55635 3.36207
# Velocity P-wave (km/s) = 6.13711 7.00216 6.58386
#
# Compressibility (1/GPa) = 0.02211219
#
# Stress axis : x y z
#
# Youngs Moduli (GPa) = 122.58041 47.12480 81.34917
#
# Poissons Ratio (x) = 0.28392 0.18689
# Poissons Ratio (y) = 0.73852 0.11854
# Poissons Ratio (z) = 0.28162 0.06867
#
# Static dielectric constant tensor:
#      x y z
#    x 1.697780 0.000000 0.000000 
#    y 0.000000 1.782300 0.000000 
#    z 0.000000 0.000000 1.691690 
# 
# From -- ./inp_files/50844.got.cif
#   From: 2010.05.17/outbox.cif.g08.bks.cpg/sg74_26_cif.got.tgz:50844.got - 2010.06.03 17:57:02.
