data_PCOD9538173
_publ_section_title
;
Structure prediction by ZEFSAII (Michael W. Deem and Ramdas Pophale) SiO2 
 PCOD9538173
Probable space group: I M M A
;
_chemical_formula_sum "Si O2"
_cell_formula_units_Z 112
_cell_length_a 15.301634
_cell_length_b 14.311284
_cell_length_c 24.271899
_cell_angle_alpha 90.000000
_cell_angle_beta 90.000000
_cell_angle_gamma 90.000000
_cell_volume 5315.206799
_symmetry_space_group_name_H-M "I M M A"
_symmetry_group_IT_number 74
_symmetry_cell_setting 'orthorhombic'
loop_
_space_group_symop_operation_xyz
x,y,z
-x,1/2-y,z
x,-y,-z
-x,1/2+y,-z
-x,-y,-z
x,1/2+y,-z
-x,y,z
x,1/2-y,z
1/2+x,1/2+y,1/2+z
1/2-x,-y,1/2+z
1/2+x,1/2-y,1/2-z
1/2-x,y,1/2-z
1/2-x,1/2-y,1/2-z
1/2+x,y,1/2-z
1/2-x,1/2+y,1/2+z
1/2+x,-y,1/2+z
loop_
_atom_site_type_symbol
_atom_site_label
_atom_site_fract_x
_atom_site_fract_y
_atom_site_fract_z
Si Si1 0.102948 0.854474 0.193847
Si Si2 0.093644 0.092969 0.462585
Si Si3 0.284033 0.645204 0.518399
Si Si4 0.398397 0.138221 0.377832
Si Si5 0.847942 0.045239 0.238491
Si Si6 0.094733 0.013777 0.650062
Si Si7 0.252210 0.640391 0.396723
O O1 0.111825 0.750000 0.216884
O O2 0.159337 0.859612 0.138558
O O3 0.000000 0.873121 0.185421
O O4 0.144291 0.933490 0.231279
O O5 0.181747 0.149624 0.467755
O O6 0.000000 0.137450 0.476910
O O7 0.101104 0.000000 0.500000
O O8 0.091224 0.055062 0.401213
O O9 0.320967 0.750000 0.510506
O O10 0.336977 0.606399 0.571165
O O11 0.278543 0.601548 0.457173
O O12 0.500000 0.122135 0.391880
O O13 0.384865 0.250000 0.370712
O O14 0.379965 0.089681 0.318776
O O15 0.750000 0.076356 0.250000
O O16 0.896587 0.052246 0.296411
O O17 0.176572 0.081845 0.634932
O O18 0.000000 0.064257 0.653908
O O19 0.224175 0.750000 0.402591
#
# Coordination Sequence:
#
# PCOD9538173 Si02
#       7
#    16  16  16  16  16  16  16
#     4  10  22  40  60  86 124 164 204 253 308 371
#     4  10  20  36  57  82 118 159 199 250 311 365
#     4  10  21  37  61  89 119 159 206 256 316 378
#     4  10  23  43  65  94 131 168 214 270 322 377
#     4  12  23  40  66  90 123 169 211 261 313 377
#     4  11  22  37  57  86 120 160 205 251 308 374
#     4  10  21  37  58  88 121 158 202 252 312 375
#
# _framework density 21.071617
#
# number of rings (size 3 to 8) (size 9 to 14) (size 15 to 20)
#    0.000    1.571    2.857    2.143    0.000    2.286 
#    0.000    5.000    0.000    3.000    0.000    0.000 
#    0.000    0.000    0.000    0.000    0.000    0.000 
#
# Total GULP energy -312098.899596 kJ/mol
# GULP energy per Si atom -5573.194636 kJ/mol
# Density = 2.102366 g / cm^3
# Si number density = 21.071617 Si / 1000 Ang^3
#
#
#
# Elastic Constant Matrix: (Units=GPa)
#
#
# Indices 1 2 3 4 5 6 
#
# 1 92.3754 17.4971 34.1557 0.0000 0.0000 0.0000
# 2 17.4971 44.2948 11.0953 0.0000 0.0000 0.0000
# 3 34.1557 11.0953 100.8646 0.0000 0.0000 0.0000
# 4 0.0000 0.0000 0.0000 18.6582 0.0000 0.0000
# 5 0.0000 0.0000 0.0000 0.0000 51.9296 0.0000
# 6 0.0000 0.0000 0.0000 0.0000 0.0000 21.0364
#
#
#
# Elastic Compliance Matrix: (Units=1/GPa)
#
#
# Indices 1 2 3 4 5 6 
#
# 1 0.013084 -0.004174 -0.003972 0.000000 0.000000 0.000000
# 2 -0.004174 0.024547 -0.001287 0.000000 0.000000 0.000000
# 3 -0.003972 -0.001287 0.011401 0.000000 0.000000 0.000000
# 4 0.000000 0.000000 0.000000 0.053596 0.000000 0.000000
# 5 0.000000 0.000000 0.000000 0.000000 0.019257 0.000000
# 6 0.000000 0.000000 0.000000 0.000000 0.000000 0.047537
#
#
# Mechanical properties :
#
#
# Convention : Reuss Voigt Hill
#
# Bulk Modulus (GPa) = 33.14797 40.33677 36.74237
# Shear Modulus (GPa) = 25.20899 29.97728 27.59313
#
# Velocity S-wave (km/s) = 3.46258 3.77588 3.62262
# Velocity P-wave (km/s) = 5.63482 6.18012 5.91376
#
# Compressibility (1/GPa) = 0.03016776
#
# Stress axis : x y z
#
# Youngs Moduli (GPa) = 76.42650 40.73816 87.71336
#
# Poissons Ratio (x) = 0.17003 0.34837
# Poissons Ratio (y) = 0.31898 0.11288
# Poissons Ratio (z) = 0.30354 0.05243
#
# Static dielectric constant tensor:
#      x y z
#    x 1.842390 0.000000 0.000000 
#    y 0.000000 1.810830 0.000000 
#    z 0.000000 0.000000 1.812440 
# 
# From -- ./inp_files/60113.got.cif
#   From: 2010.05.17/outbox.cif.g08.bks.cpg/sg74_31_cif.got.tgz:60113.got - 2010.06.03 17:57:02.
