data_PCOD9538058
_publ_section_title
;
Structure prediction by ZEFSAII (Michael W. Deem and Ramdas Pophale) SiO2 
 PCOD9538058
Probable space group: I M M A
;
_chemical_formula_sum "Si O2"
_cell_formula_units_Z 116
_cell_length_a 17.838853
_cell_length_b 25.500251
_cell_length_c 14.759936
_cell_angle_alpha 90.000000
_cell_angle_beta 90.000000
_cell_angle_gamma 90.000000
_cell_volume 6714.224468
_symmetry_space_group_name_H-M "I M M A"
_symmetry_group_IT_number 74
_symmetry_cell_setting 'orthorhombic'
loop_
_space_group_symop_operation_xyz
x,y,z
-x,1/2-y,z
x,-y,-z
-x,1/2+y,-z
-x,-y,-z
x,1/2+y,-z
-x,y,z
x,1/2-y,z
1/2+x,1/2+y,1/2+z
1/2-x,-y,1/2+z
1/2+x,1/2-y,1/2-z
1/2-x,y,1/2-z
1/2-x,1/2-y,1/2-z
1/2+x,y,1/2-z
1/2-x,1/2+y,1/2+z
1/2+x,-y,1/2+z
loop_
_atom_site_type_symbol
_atom_site_label
_atom_site_fract_x
_atom_site_fract_y
_atom_site_fract_z
Si Si1 0.811623 0.599137 0.040562
Si Si2 0.228325 0.808069 0.354886
Si Si3 0.089481 0.932853 0.720520
Si Si4 0.586754 0.625521 0.137506
Si Si5 0.589291 0.953545 0.305575
Si Si6 0.653078 0.440605 0.023115
Si Si7 0.417709 0.140545 0.383070
Si Si8 0.000000 0.750000 0.877827
O O1 0.776900 0.647886 0.095835
O O2 0.860929 0.564301 0.109446
O O3 0.740262 0.568592 0.000321
O O4 0.861969 0.622623 0.960750
O O5 0.240336 0.750000 0.393080
O O6 0.250000 0.807711 0.250000
O O7 0.142071 0.825491 0.359164
O O8 0.134147 0.929680 0.627146
O O9 0.105564 0.884450 0.787300
O O10 0.000000 0.933304 0.700157
O O11 0.106434 0.987571 0.771947
O O12 0.500000 0.639601 0.143129
O O13 0.604023 0.586007 0.221207
O O14 0.605346 0.595659 0.044448
O O15 0.500000 0.950575 0.326044
O O16 0.632537 0.500000 0.000000
O O17 0.500000 0.115752 0.403305
O O18 0.435669 0.202468 0.378800
#
# Coordination Sequence:
#
# PCOD9538058 Si02
#       8
#    16  16  16  16  16  16  16   4
#     4  11  23  37  57  88 125 159 196 243 305 374
#     4  10  21  37  56  80 116 158 196 248 303 358
#     4  10  21  39  62  87 119 156 204 252 294 357
#     4  10  20  37  59  84 114 156 202 250 292 355
#     4  10  20  35  59  86 123 158 190 243 299 356
#     4  11  23  36  57  89 121 164 200 237 297 365
#     4   9  21  40  65  91 114 152 203 256 298 351
#     4   8  20  44  72  88 116 154 206 268 302 344
#
# _framework density 17.276754
#
# number of rings (size 3 to 8) (size 9 to 14) (size 15 to 20)
#    0.414    1.517    2.759    0.828    2.897    1.379 
#    0.000    2.069    6.069    0.828    0.000    0.000 
#    0.000    0.000    0.000    0.000    0.000    0.000 
#
# Total GULP energy -322952.167925 kJ/mol
# GULP energy per Si atom -5568.140826 kJ/mol
# Density = 1.723743 g / cm^3
# Si number density = 17.276754 Si / 1000 Ang^3
#
#
#
# Elastic Constant Matrix: (Units=GPa)
#
#
# Indices 1 2 3 4 5 6 
#
# 1 59.8943 13.7807 54.1169 0.0000 0.0000 0.0000
# 2 13.7807 52.9528 40.6924 0.0000 0.0000 0.0000
# 3 54.1169 40.6924 118.4963 0.0000 0.0000 -0.0001
# 4 0.0000 0.0000 0.0000 8.0642 0.0000 0.0000
# 5 0.0000 0.0000 0.0000 0.0000 26.2050 0.0000
# 6 0.0000 0.0000 -0.0001 0.0000 0.0000 47.2824
#
#
#
# Elastic Compliance Matrix: (Units=1/GPa)
#
#
# Indices 1 2 3 4 5 6 
#
# 1 0.028912 0.003563 -0.014428 0.000000 0.000000 0.000000
# 2 0.003563 0.026094 -0.010588 0.000000 0.000000 0.000000
# 3 -0.014428 -0.010588 0.018664 0.000000 0.000000 0.000000
# 4 0.000000 0.000000 0.000000 0.124004 0.000000 0.000000
# 5 0.000000 0.000000 0.000000 0.000000 0.038161 0.000000
# 6 0.000000 0.000000 0.000000 0.000000 0.000000 0.021149
#
#
# Mechanical properties :
#
#
# Convention : Reuss Voigt Hill
#
# Bulk Modulus (GPa) = 32.50454 49.83593 41.17024
# Shear Modulus (GPa) = 16.12145 24.49389 20.30767
#
# Velocity S-wave (km/s) = 3.05803 3.76937 3.43218
# Velocity P-wave (km/s) = 5.59675 6.91755 6.29190
#
# Compressibility (1/GPa) = 0.03076494
#
# Stress axis : x y z
#
# Youngs Moduli (GPa) = 34.58729 38.32283 53.57849
#
# Poissons Ratio (x) = -0.13654 0.77302
# Poissons Ratio (y) = -0.12323 0.56729
# Poissons Ratio (z) = 0.49902 0.40577
#
# Static dielectric constant tensor:
#      x y z
#    x 1.593980 0.000000 0.000000 
#    y 0.000000 1.570930 0.000000 
#    z 0.000000 0.000000 1.579230 
# 
# From -- ./inp_files/26422.got.cif
#   From: 2010.05.17/outbox.cif.g08.bks.cpg/sg74_14_cif.got.tgz:26422.got - 2010.06.03 17:57:02.
