data_PCOD9538293
_publ_section_title
;
Structure prediction by ZEFSAII (Michael W. Deem and Ramdas Pophale) SiO2 
 PCOD9538293
Probable space group: I M M A
;
_chemical_formula_sum "Si O2"
_cell_formula_units_Z 100
_cell_length_a 22.229617
_cell_length_b 7.807282
_cell_length_c 26.772721
_cell_angle_alpha 90.000000
_cell_angle_beta 90.000000
_cell_angle_gamma 90.000000
_cell_volume 4646.483067
_symmetry_space_group_name_H-M "I M M A"
_symmetry_group_IT_number 74
_symmetry_cell_setting 'orthorhombic'
loop_
_space_group_symop_operation_xyz
x,y,z
-x,1/2-y,z
x,-y,-z
-x,1/2+y,-z
-x,-y,-z
x,1/2+y,-z
-x,y,z
x,1/2-y,z
1/2+x,1/2+y,1/2+z
1/2-x,-y,1/2+z
1/2+x,1/2-y,1/2-z
1/2-x,y,1/2-z
1/2-x,1/2-y,1/2-z
1/2+x,y,1/2-z
1/2-x,1/2+y,1/2+z
1/2+x,-y,1/2+z
loop_
_atom_site_type_symbol
_atom_site_label
_atom_site_fract_x
_atom_site_fract_y
_atom_site_fract_z
Si Si1 0.932730 0.458547 0.190992
Si Si2 0.174641 0.055416 0.122917
Si Si3 0.588815 0.447310 0.196751
Si Si4 0.721953 0.045176 0.057423
Si Si5 0.275521 0.446677 0.805238
Si Si6 0.589062 0.446264 0.913771
Si Si7 0.000000 0.000000 0.500000
O O1 0.924810 0.250000 0.193872
O O2 0.882159 0.523359 0.152330
O O3 0.928096 0.521292 0.248633
O O4 0.000000 0.494175 0.173016
O O5 0.157382 0.250000 0.109068
O O6 0.213528 0.976791 0.077595
O O7 0.227594 0.052343 0.163673
O O8 0.570032 0.250000 0.196403
O O9 0.660592 0.464332 0.195898
O O10 0.569275 0.523606 0.143526
O O11 0.722554 0.250000 0.064405
O O12 0.660752 0.979255 0.083246
O O13 0.715947 0.000000 0.000000
O O14 0.281170 0.250000 0.824147
O O15 0.250000 0.436435 0.750000
O O16 0.575878 0.250000 0.926656
O O17 0.552495 0.541524 0.957134
#
# Coordination Sequence:
#
# PCOD9538293 Si02
#       7
#    16  16  16  16  16  16   4
#     4   9  19  36  58  87 120 157 200 245 293 360
#     4  10  20  36  60  86 116 154 197 245 303 359
#     4  11  22  36  59  87 120 159 201 249 300 357
#     4  11  23  39  62  90 118 152 196 253 308 359
#     4  11  21  32  52  84 120 155 194 243 302 360
#     4  12  26  43  63  87 119 160 206 258 303 349
#     4  12  30  48  64  78 118 172 220 248 300 352
#
# _framework density 21.521654999999999
#
# number of rings (size 3 to 8) (size 9 to 14) (size 15 to 20)
#    0.000    1.280    4.000    2.160    1.120    3.200 
#    0.000    0.000    0.000    2.880    0.000    0.000 
#    0.000    0.000    0.000    0.000    0.000    0.160 
#
# Total GULP energy -278492.619459 kJ/mol
# GULP energy per Si atom -5569.852389 kJ/mol
# Density = 2.147267 g / cm^3
# Si number density = 21.521655 Si / 1000 Ang^3
#
#
#
# Elastic Constant Matrix: (Units=GPa)
#
#
# Indices 1 2 3 4 5 6 
#
# 1 159.3309 -3.2533 48.0273 0.0000 0.0000 0.0000
# 2 -3.2533 52.6324 6.8136 0.0000 0.0000 0.0000
# 3 48.0273 6.8136 91.6251 0.0000 0.0000 0.0000
# 4 0.0000 0.0000 0.0000 18.2378 0.0000 0.0000
# 5 0.0000 0.0000 0.0000 0.0000 65.6200 0.0000
# 6 0.0000 0.0000 0.0000 0.0000 0.0000 50.1329
#
#
#
# Elastic Compliance Matrix: (Units=1/GPa)
#
#
# Indices 1 2 3 4 5 6 
#
# 1 0.007504 0.000982 -0.004006 0.000000 0.000000 0.000000
# 2 0.000982 0.019313 -0.001951 0.000000 0.000000 0.000000
# 3 -0.004006 -0.001951 0.013159 0.000000 0.000000 0.000000
# 4 0.000000 0.000000 0.000000 0.054831 0.000000 0.000000
# 5 0.000000 0.000000 0.000000 0.000000 0.015239 0.000000
# 6 0.000000 0.000000 0.000000 0.000000 0.000000 0.019947
#
#
# Mechanical properties :
#
#
# Convention : Reuss Voigt Hill
#
# Bulk Modulus (GPa) = 33.30456 45.19597 39.25026
# Shear Modulus (GPa) = 33.34388 43.59820 38.47104
#
# Velocity S-wave (km/s) = 3.94041 4.50575 4.23253
# Velocity P-wave (km/s) = 6.01755 6.93649 6.49330
#
# Compressibility (1/GPa) = 0.03002592
#
# Stress axis : x y z
#
# Youngs Moduli (GPa) = 133.26279 51.77856 75.99245
#
# Poissons Ratio (x) = -0.05087 0.30446
# Poissons Ratio (y) = -0.13093 0.14828
# Poissons Ratio (z) = 0.53391 0.10103
#
# Static dielectric constant tensor:
#      x y z
#    x 1.767030 0.000000 0.000000 
#    y 0.000000 1.869630 0.000000 
#    z 0.000000 0.000000 1.843520 
# 
# From -- ./inp_files/68228.got.cif
#   From: 2010.05.17/outbox.cif.g08.bks.cpg/sg74_35_cif.got.tgz:68228.got - 2010.06.03 17:57:02.
