data_PCOD9538769
_publ_section_title
;
Structure prediction by ZEFSAII (Michael W. Deem and Ramdas Pophale) SiO2 
 PCOD9538769
Probable space group: I M M A
;
_chemical_formula_sum "Si O2"
_cell_formula_units_Z 100
_cell_length_a 21.320708
_cell_length_b 7.743497
_cell_length_c 28.722944
_cell_angle_alpha 90.000000
_cell_angle_beta 90.000000
_cell_angle_gamma 90.000000
_cell_volume 4742.067245
_symmetry_space_group_name_H-M "I M M A"
_symmetry_group_IT_number 74
_symmetry_cell_setting 'orthorhombic'
loop_
_space_group_symop_operation_xyz
x,y,z
-x,1/2-y,z
x,-y,-z
-x,1/2+y,-z
-x,-y,-z
x,1/2+y,-z
-x,y,z
x,1/2-y,z
1/2+x,1/2+y,1/2+z
1/2-x,-y,1/2+z
1/2+x,1/2-y,1/2-z
1/2-x,y,1/2-z
1/2-x,1/2-y,1/2-z
1/2+x,y,1/2-z
1/2-x,1/2+y,1/2+z
1/2+x,-y,1/2+z
loop_
_atom_site_type_symbol
_atom_site_label
_atom_site_fract_x
_atom_site_fract_y
_atom_site_fract_z
Si Si1 0.928860 0.958918 0.392279
Si Si2 0.411483 0.949544 0.623369
Si Si3 0.772785 0.553288 0.135919
Si Si4 0.159673 0.955246 0.308793
Si Si5 0.567657 0.956363 0.731400
Si Si6 0.500000 0.750000 0.410098
Si Si7 0.687065 0.549221 0.947326
O O1 0.930416 0.750000 0.390761
O O2 0.891367 0.021098 0.346377
O O3 0.000000 0.021828 0.393771
O O4 0.885551 0.013004 0.435304
O O5 0.429809 0.750000 0.613987
O O6 0.429213 0.995762 0.676826
O O7 0.336309 0.958227 0.623138
O O8 0.445475 0.095049 0.592929
O O9 0.790604 0.750000 0.147854
O O10 0.728479 0.477501 0.177062
O O11 0.727698 0.551508 0.090851
O O12 0.165016 0.750000 0.315860
O O13 0.128513 0.982543 0.259003
O O14 0.500000 0.023640 0.749756
O O15 0.567070 0.750000 0.735677
O O16 0.700015 0.750000 0.939993
O O17 0.701451 0.500000 0.000000
#
# Coordination Sequence:
#
# PCOD9538769 Si02
#       7
#    16  16  16  16  16   4  16
#     4   9  18  34  52  76 109 150 196 242 290 340
#     4  11  23  39  60  89 119 150 195 238 286 347
#     4  10  21  40  59  84 116 149 189 233 288 345
#     4   9  19  32  52  76 108 152 196 241 285 338
#     4  10  21  34  49  75 112 150 198 248 287 333
#     4  12  22  40  64  88 118 156 186 240 296 334
#     4  11  22  37  58  83 112 146 185 237 285 343
#
# _framework density 21.08785
#
# number of rings (size 3 to 8) (size 9 to 14) (size 15 to 20)
#    0.000    1.920    1.600    3.600    1.120    5.440 
#    0.000    3.200    0.000    0.000    0.000    0.560 
#    0.000    0.000    0.000    0.000    0.000    0.000 
#
# Total GULP energy -278552.428906 kJ/mol
# GULP energy per Si atom -5571.048578 kJ/mol
# Density = 2.103985 g / cm^3
# Si number density = 21.087850 Si / 1000 Ang^3
#
#
#
# Elastic Constant Matrix: (Units=GPa)
#
#
# Indices 1 2 3 4 5 6 
#
# 1 131.9298 14.8330 -13.3577 0.0000 0.0000 0.0000
# 2 14.8330 76.7990 -6.7093 0.0000 0.0000 0.0000
# 3 -13.3577 -6.7093 6.8642 0.0000 0.0000 0.0000
# 4 0.0000 0.0000 0.0000 17.3601 0.0000 0.0000
# 5 0.0000 0.0000 0.0000 0.0000 9.2124 0.0000
# 6 0.0000 0.0000 0.0000 0.0000 0.0000 31.6904
#
#
#
# Elastic Compliance Matrix: (Units=1/GPa)
#
#
# Indices 1 2 3 4 5 6 
#
# 1 0.009444 -0.000239 0.018144 0.000000 0.000000 0.000000
# 2 -0.000239 0.014243 0.013456 0.000000 0.000000 0.000000
# 3 0.018144 0.013456 0.194144 0.000000 0.000000 0.000000
# 4 0.000000 0.000000 0.000000 0.057603 0.000000 0.000000
# 5 0.000000 0.000000 0.000000 0.000000 0.108549 0.000000
# 6 0.000000 0.000000 0.000000 0.000000 0.000000 0.031555
#
#
# Mechanical properties :
#
#
# Convention : Reuss Voigt Hill
#
# Bulk Modulus (GPa) = 3.56439 22.79169 13.17804
# Shear Modulus (GPa) = 11.20240 26.37437 18.78839
#
# Velocity S-wave (km/s) = 2.30733 3.54035 2.98813
# Velocity P-wave (km/s) = 2.96518 5.24819 4.26238
#
# Compressibility (1/GPa) = 0.28055271
#
# Stress axis : x y z
#
# Youngs Moduli (GPa) = 105.89095 70.21131 5.15082
#
# Poissons Ratio (x) = 0.01677 -0.09346
# Poissons Ratio (y) = 0.02530 -0.06931
# Poissons Ratio (z) = -1.92127 -0.94479
#
# Static dielectric constant tensor:
#      x y z
#    x 1.810390 0.000000 0.000000 
#    y 0.000000 1.764920 0.000000 
#    z 0.000000 0.000000 1.752550 
# 
# From -- ./inp_files/73425.got.cif
#   From: 2010.05.17/outbox.cif.g08.bks.cpg/sg74_37_cif.got.tgz:73425.got - 2010.06.03 17:57:02.
