data_PCOD9538269
_publ_section_title
;
Structure prediction by ZEFSAII (Michael W. Deem and Ramdas Pophale) SiO2 
 PCOD9538269
Probable space group: I M M A
;
_chemical_formula_sum "Si O2"
_cell_formula_units_Z 96
_cell_length_a 15.813363
_cell_length_b 19.943397
_cell_length_c 16.070129
_cell_angle_alpha 90.000000
_cell_angle_beta 90.000000
_cell_angle_gamma 90.000000
_cell_volume 5068.071555
_symmetry_space_group_name_H-M "I M M A"
_symmetry_group_IT_number 74
_symmetry_cell_setting 'orthorhombic'
loop_
_space_group_symop_operation_xyz
x,y,z
-x,1/2-y,z
x,-y,-z
-x,1/2+y,-z
-x,-y,-z
x,1/2+y,-z
-x,y,z
x,1/2-y,z
1/2+x,1/2+y,1/2+z
1/2-x,-y,1/2+z
1/2+x,1/2-y,1/2-z
1/2-x,y,1/2-z
1/2-x,1/2-y,1/2-z
1/2+x,y,1/2-z
1/2-x,1/2+y,1/2+z
1/2+x,-y,1/2+z
loop_
_atom_site_type_symbol
_atom_site_label
_atom_site_fract_x
_atom_site_fract_y
_atom_site_fract_z
Si Si1 0.000000 0.668519 0.254736
Si Si2 0.000000 0.168892 0.940285
Si Si3 0.147510 0.325136 0.248047
Si Si4 0.211974 0.927020 0.500888
Si Si5 0.903344 0.453647 0.348884
Si Si6 0.349252 0.828153 0.557718
Si Si7 0.670698 0.407231 0.810536
O O1 0.913381 0.636268 0.290962
O O2 0.000000 0.750000 0.264222
O O3 0.000000 0.651360 0.156183
O O4 0.917524 0.147031 0.990928
O O5 0.000000 0.250000 0.945138
O O6 0.125820 0.250000 0.277599
O O7 0.250000 0.330219 0.250000
O O8 0.108660 0.384425 0.300775
O O9 0.119088 0.331772 0.152246
O O10 0.130725 0.941693 0.558022
O O11 0.267163 0.872938 0.548597
O O12 0.194716 0.901112 0.408097
O O13 0.256859 0.000000 0.500000
O O14 0.851936 0.513561 0.304529
O O15 0.000000 0.474803 0.350652
O O16 0.330095 0.750000 0.541248
O O17 0.750000 0.390916 0.750000
#
# Coordination Sequence:
#
# PCOD9538269 Si02
#       7
#     8   8  16  16  16  16  16
#     4  11  24  44  66  91 120 156 210 266 316 366
#     4   9  20  38  60  84 118 157 194 248 313 365
#     4  10  20  36  59  88 123 161 201 245 299 367
#     4  10  23  38  61  88 121 162 206 247 306 367
#     4  11  23  39  62  88 127 167 204 248 303 368
#     4  10  20  38  61  88 123 161 200 246 308 372
#     4  11  24  42  66  92 123 160 210 258 313 366
#
# _framework density 18.942115000000001
#
# number of rings (size 3 to 8) (size 9 to 14) (size 15 to 20)
#    0.000    1.667    2.500    1.500    4.667    2.333 
#    0.000    0.417    0.000    0.000    0.000    0.000 
#    0.000    0.000    0.000    0.000    0.000    0.000 
#
# Total GULP energy -267833.080247 kJ/mol
# GULP energy per Si atom -5579.855838 kJ/mol
# Density = 1.889900 g / cm^3
# Si number density = 18.942115 Si / 1000 Ang^3
#
#
#
# Elastic Constant Matrix: (Units=GPa)
#
#
# Indices 1 2 3 4 5 6 
#
# 1 77.6717 25.2214 24.5599 0.0000 0.0000 0.0000
# 2 25.2214 84.8813 42.2636 0.0000 0.0000 0.0000
# 3 24.5599 42.2636 90.5541 0.0000 0.0000 0.0000
# 4 0.0000 0.0000 0.0000 28.8578 0.0000 0.0000
# 5 0.0000 0.0000 0.0000 0.0000 18.7245 0.0000
# 6 0.0000 0.0000 0.0000 0.0000 0.0000 41.4881
#
#
#
# Elastic Compliance Matrix: (Units=1/GPa)
#
#
# Indices 1 2 3 4 5 6 
#
# 1 0.014683 -0.003101 -0.002535 0.000000 0.000000 0.000000
# 2 -0.003101 0.016003 -0.006628 0.000000 0.000000 0.000000
# 3 -0.002535 -0.006628 0.014824 0.000000 0.000000 0.000000
# 4 0.000000 0.000000 0.000000 0.034653 0.000000 0.000000
# 5 0.000000 0.000000 0.000000 0.000000 0.053406 0.000000
# 6 0.000000 0.000000 0.000000 0.000000 0.000000 0.024103
#
#
# Mechanical properties :
#
#
# Convention : Reuss Voigt Hill
#
# Bulk Modulus (GPa) = 47.65870 48.57744 48.11807
# Shear Modulus (GPa) = 26.42804 28.55158 27.48981
#
# Velocity S-wave (km/s) = 3.73929 3.88662 3.81366
# Velocity P-wave (km/s) = 6.62253 6.77067 6.69701
#
# Compressibility (1/GPa) = 0.02098253
#
# Stress axis : x y z
#
# Youngs Moduli (GPa) = 68.10526 62.49013 67.45797
#
# Poissons Ratio (x) = 0.19376 0.17102
# Poissons Ratio (y) = 0.21117 0.44710
# Poissons Ratio (z) = 0.17266 0.41417
#
# Static dielectric constant tensor:
#      x y z
#    x 1.669140 0.000000 0.000000 
#    y 0.000000 1.642340 0.000000 
#    z 0.000000 0.000000 1.655650 
# 
# From -- ./inp_files/32441.got.cif
#   From: 2010.05.17/outbox.cif.g08.bks.cpg/sg74_17_cif.got.tgz:32441.got - 2010.06.03 17:57:02.
