data_PCOD9538673
_publ_section_title
;
Structure prediction by ZEFSAII (Michael W. Deem and Ramdas Pophale) SiO2 
 PCOD9538673
Probable space group: I M M A
;
_chemical_formula_sum "Si O2"
_cell_formula_units_Z 72
_cell_length_a 15.764140
_cell_length_b 14.820968
_cell_length_c 15.157286
_cell_angle_alpha 90.000000
_cell_angle_beta 90.000000
_cell_angle_gamma 90.000000
_cell_volume 3541.345489
_symmetry_space_group_name_H-M "I M M A"
_symmetry_group_IT_number 74
_symmetry_cell_setting 'orthorhombic'
loop_
_space_group_symop_operation_xyz
x,y,z
-x,1/2-y,z
x,-y,-z
-x,1/2+y,-z
-x,-y,-z
x,1/2+y,-z
-x,y,z
x,1/2-y,z
1/2+x,1/2+y,1/2+z
1/2-x,-y,1/2+z
1/2+x,1/2-y,1/2-z
1/2-x,y,1/2-z
1/2-x,1/2-y,1/2-z
1/2+x,y,1/2-z
1/2-x,1/2+y,1/2+z
1/2+x,-y,1/2+z
loop_
_atom_site_type_symbol
_atom_site_label
_atom_site_fract_x
_atom_site_fract_y
_atom_site_fract_z
Si Si1 0.000000 0.400466 0.957528
Si Si2 0.830816 0.456257 0.684640
Si Si3 0.000000 0.859340 0.245803
Si Si4 0.154186 0.846769 0.931198
Si Si5 0.099266 0.649524 0.730933
Si Si6 0.271981 0.000000 0.000000
O O1 0.000000 0.398737 0.853228
O O2 0.000000 0.500000 0.000000
O O3 0.917095 0.352196 0.994269
O O4 0.750000 0.435913 0.750000
O O5 0.851812 0.562823 0.696221
O O6 0.816860 0.445864 0.579336
O O7 0.913620 0.398845 0.711767
O O8 0.000000 0.750000 0.245275
O O9 0.198422 0.750000 0.935232
O O10 0.109118 0.853849 0.836712
O O11 0.214431 0.929939 0.946968
O O12 0.129449 0.750000 0.703347
O O13 0.000000 0.641926 0.708145
#
# Coordination Sequence:
#
# PCOD9538673 Si02
#       6
#     8  16   8  16  16   8
#     4  12  20  36  67  97 129 167 215 277 352 411
#     4  12  25  45  71  97 132 177 225 278 334 403
#     4  12  28  47  66  94 140 188 229 276 327 394
#     4  11  21  36  62  99 132 159 207 279 349 403
#     4  10  20  39  68 102 133 162 207 278 354 407
#     4  12  26  40  64  94 128 178 228 269 322 397
#
# _framework density 20.331256
#
# number of rings (size 3 to 8) (size 9 to 14) (size 15 to 20)
#    0.000    0.667    5.556    3.667    0.000    3.111 
#    0.000    0.000    0.000    0.000    0.000    0.000 
#    0.000    0.000    0.000    0.000    0.000    0.000 
#
# Total GULP energy -201085.482700 kJ/mol
# GULP energy per Si atom -5585.707853 kJ/mol
# Density = 2.028498 g / cm^3
# Si number density = 20.331256 Si / 1000 Ang^3
#
#
#
# Elastic Constant Matrix: (Units=GPa)
#
#
# Indices 1 2 3 4 5 6 
#
# 1 109.1259 38.2110 40.2674 0.0000 0.0000 0.0000
# 2 38.2110 111.3009 -6.3308 0.0000 0.0000 0.0000
# 3 40.2674 -6.3308 80.4379 0.0000 0.0000 0.0000
# 4 0.0000 0.0000 0.0000 22.5997 0.0000 0.0000
# 5 0.0000 0.0000 0.0000 0.0000 -66.1398 0.0000
# 6 0.0000 0.0000 0.0000 0.0000 0.0000 -9.1684
#
#
#
# Elastic Compliance Matrix: (Units=1/GPa)
#
#
# Indices 1 2 3 4 5 6 
#
# 1 0.013603 -0.005080 -0.007209 0.000000 0.000000 0.000000
# 2 -0.005080 0.010922 0.003403 0.000000 0.000000 0.000000
# 3 -0.007209 0.003403 0.016309 0.000000 0.000000 0.000000
# 4 0.000000 0.000000 0.000000 0.044248 0.000000 0.000000
# 5 0.000000 0.000000 0.000000 0.000000 -0.015119 0.000000
# 6 0.000000 0.000000 0.000000 0.000000 0.000000 -0.109070
#
#
# Mechanical properties :
#
#
# Convention : Reuss Voigt Hill
#
# Bulk Modulus (GPa) = 43.36451 49.46221 46.41336
# Shear Modulus (GPa) = -366.37286 4.70612 -180.83337
#
# Velocity S-wave (km/s) = -13.43849 1.52307 -9.44122
# Velocity P-wave (km/s) = 14.81268 5.24156 9.79646
#
# Compressibility (1/GPa) = 0.02306033
#
# Stress axis : x y z
#
# Youngs Moduli (GPa) = 73.51421 91.55620 61.31651
#
# Poissons Ratio (x) = 0.46511 0.44206
# Poissons Ratio (y) = 0.37346 -0.20864
# Poissons Ratio (z) = 0.53000 -0.31154
#
# Static dielectric constant tensor:
#      x y z
#    x 1.737940 0.000000 0.000000 
#    y 0.000000 2.045200 0.000000 
#    z 0.000000 0.000000 1.731270 
# 
# From -- ./inp_files/33864.got.cif
#   From: 2010.05.17/outbox.cif.g08.bks.cpg/sg74_17_cif.got.tgz:33864.got - 2010.06.03 17:57:02.
