data_PCOD9538671
_publ_section_title
;
Structure prediction by ZEFSAII (Michael W. Deem and Ramdas Pophale) SiO2 
 PCOD9538671
Probable space group: I M M A
;
_chemical_formula_sum "Si O2"
_cell_formula_units_Z 64
_cell_length_a 10.089646
_cell_length_b 18.616867
_cell_length_c 17.130542
_cell_angle_alpha 90.000000
_cell_angle_beta 90.000000
_cell_angle_gamma 90.000000
_cell_volume 3217.759856
_symmetry_space_group_name_H-M "I M M A"
_symmetry_group_IT_number 74
_symmetry_cell_setting 'orthorhombic'
loop_
_space_group_symop_operation_xyz
x,y,z
-x,1/2-y,z
x,-y,-z
-x,1/2+y,-z
-x,-y,-z
x,1/2+y,-z
-x,y,z
x,1/2-y,z
1/2+x,1/2+y,1/2+z
1/2-x,-y,1/2+z
1/2+x,1/2-y,1/2-z
1/2-x,y,1/2-z
1/2-x,1/2-y,1/2-z
1/2+x,y,1/2-z
1/2-x,1/2+y,1/2+z
1/2+x,-y,1/2+z
loop_
_atom_site_type_symbol
_atom_site_label
_atom_site_fract_x
_atom_site_fract_y
_atom_site_fract_z
Si Si1 0.000000 0.554963 0.426178
Si Si2 0.250000 0.438617 0.250000
Si Si3 0.654859 0.168470 0.117560
Si Si4 0.500000 0.167596 0.653311
Si Si5 0.500000 0.527050 0.251467
Si Si6 0.766510 0.332521 0.553309
O O1 0.000000 0.500000 0.500000
O O2 0.000000 0.517609 0.342022
O O3 0.872444 0.606827 0.426001
O O4 0.305890 0.387892 0.182415
O O5 0.368158 0.488237 0.281402
O O6 0.500000 0.159150 0.093907
O O7 0.667459 0.250000 0.147586
O O8 0.744129 0.161847 0.040448
O O9 0.500000 0.250000 0.682182
O O10 0.500000 0.109456 0.721934
O O11 0.369708 0.157756 0.599802
O O12 0.813186 0.250000 0.568594
#
# Coordination Sequence:
#
# PCOD9538671 Si02
#       6
#     8   8  16   8   8  16
#     4  12  23  40  64  95 122 165 211 254 309 381
#     4  12  23  42  59  94 130 168 200 258 317 378
#     4  10  20  39  66  95 124 163 210 256 307 374
#     4  10  24  45  63  90 126 163 213 273 324 377
#     4  12  26  41  62  89 131 166 207 257 322 376
#     4  10  21  41  68  92 120 160 213 265 313 371
#
# _framework density 19.889614999999999
#
# number of rings (size 3 to 8) (size 9 to 14) (size 15 to 20)
#    0.000    1.250    2.500    3.750    0.000    2.000 
#    0.000    6.250    0.000    0.000    0.000    0.000 
#    0.000    0.000    0.000    0.000    0.000    0.000 
#
# Total GULP energy -178796.840393 kJ/mol
# GULP energy per Si atom -5587.401262 kJ/mol
# Density = 1.984435 g / cm^3
# Si number density = 19.889615 Si / 1000 Ang^3
#
#
#
# Elastic Constant Matrix: (Units=GPa)
#
#
# Indices 1 2 3 4 5 6 
#
# 1 93.8306 57.4158 14.6121 0.0000 0.0000 0.0000
# 2 57.4158 126.9782 45.2020 0.0000 0.0000 0.0000
# 3 14.6121 45.2020 70.1372 0.0000 0.0000 0.0000
# 4 0.0000 0.0000 0.0000 41.1367 0.0000 0.0000
# 5 0.0000 0.0000 0.0000 0.0000 18.8199 0.0000
# 6 0.0000 0.0000 0.0000 0.0000 0.0000 20.7942
#
#
#
# Elastic Compliance Matrix: (Units=1/GPa)
#
#
# Indices 1 2 3 4 5 6 
#
# 1 0.014872 -0.007295 0.001603 0.000000 0.000000 0.000000
# 2 -0.007295 0.013799 -0.007373 0.000000 0.000000 0.000000
# 3 0.001603 -0.007373 0.018676 0.000000 0.000000 0.000000
# 4 0.000000 0.000000 0.000000 0.024309 0.000000 0.000000
# 5 0.000000 0.000000 0.000000 0.000000 0.053135 0.000000
# 6 0.000000 0.000000 0.000000 0.000000 0.000000 0.048090
#
#
# Mechanical properties :
#
#
# Convention : Reuss Voigt Hill
#
# Bulk Modulus (GPa) = 47.13433 58.37842 52.75638
# Shear Modulus (GPa) = 24.26198 27.73122 25.99660
#
# Velocity S-wave (km/s) = 3.49640 3.73802 3.61923
# Velocity P-wave (km/s) = 6.32844 6.93148 6.63681
#
# Compressibility (1/GPa) = 0.02121596
#
# Stress axis : x y z
#
# Youngs Moduli (GPa) = 67.24067 72.46961 53.54576
#
# Poissons Ratio (x) = 0.52870 -0.08586
# Poissons Ratio (y) = 0.49055 0.39480
# Poissons Ratio (z) = -0.10781 0.53433
#
# Static dielectric constant tensor:
#      x y z
#    x 1.682580 0.000000 0.000000 
#    y 0.000000 1.715980 0.000000 
#    z 0.000000 0.000000 1.692660 
# 
# From -- ./inp_files/40746.got.cif
#   From: 2010.05.17/outbox.cif.g08.bks.cpg/sg74_21_cif.got.tgz:40746.got - 2010.06.03 17:57:02.
