data_PCOD9538765
_publ_section_title
;
Structure prediction by ZEFSAII (Michael W. Deem and Ramdas Pophale) SiO2 
 PCOD9538765
Probable space group: I M M A
;
_chemical_formula_sum "Si O2"
_cell_formula_units_Z 120
_cell_length_a 27.897340
_cell_length_b 9.150617
_cell_length_c 26.763049
_cell_angle_alpha 90.000000
_cell_angle_beta 90.000000
_cell_angle_gamma 90.000000
_cell_volume 6832.014241
_symmetry_space_group_name_H-M "I M M A"
_symmetry_group_IT_number 74
_symmetry_cell_setting 'orthorhombic'
loop_
_space_group_symop_operation_xyz
x,y,z
-x,1/2-y,z
x,-y,-z
-x,1/2+y,-z
-x,-y,-z
x,1/2+y,-z
-x,y,z
x,1/2-y,z
1/2+x,1/2+y,1/2+z
1/2-x,-y,1/2+z
1/2+x,1/2-y,1/2-z
1/2-x,y,1/2-z
1/2-x,1/2-y,1/2-z
1/2+x,y,1/2-z
1/2-x,1/2+y,1/2+z
1/2+x,-y,1/2+z
loop_
_atom_site_type_symbol
_atom_site_label
_atom_site_fract_x
_atom_site_fract_y
_atom_site_fract_z
Si Si1 0.290747 0.917800 0.815866
Si Si2 0.702321 0.576004 0.448771
Si Si3 0.180050 0.576239 0.845742
Si Si4 0.203282 0.590341 0.570186
Si Si5 0.121647 0.000000 0.500000
Si Si6 0.942980 0.921642 0.688358
Si Si7 0.863830 0.076252 0.753866
Si Si8 0.055669 0.087488 0.588832
O O1 0.297631 0.750000 0.798146
O O2 0.234036 0.943142 0.823123
O O3 0.311039 0.929369 0.872198
O O4 0.318580 0.026641 0.780193
O O5 0.685409 0.500000 0.500000
O O6 0.696172 0.750000 0.449626
O O7 0.679742 0.502408 0.399471
O O8 0.758883 0.534076 0.444083
O O9 0.172184 0.750000 0.850313
O O10 0.144207 0.501160 0.807048
O O11 0.228213 0.750000 0.567156
O O12 0.158002 0.590311 0.534465
O O13 0.087964 0.078509 0.539927
O O14 0.932804 0.750000 0.694150
O O15 0.000000 0.946020 0.695819
O O16 0.910392 0.013308 0.725917
O O17 0.932000 0.972280 0.631741
O O18 0.865529 0.250000 0.758569
O O19 0.060512 0.250000 0.611150
O O20 0.000000 0.065981 0.574878
#
# Coordination Sequence:
#
# PCOD9538765 Si02
#       8
#    16  16  16  16   8  16  16  16
#     4   9  19  35  52  71 103 144 182 221 268 318
#     4  11  21  35  54  75 105 141 179 216 257 303
#     4  10  21  37  56  78 108 144 183 222 263 310
#     4  10  21  34  48  69  96 131 176 221 266 312
#     4  12  21  30  52  74 100 128 176 224 281 328
#     4  10  22  41  62  79  99 135 180 225 278 337
#     4  12  23  34  54  83 111 138 172 216 271 329
#     4  10  22  38  53  72  98 129 169 221 281 338
#
# _framework density 17.564366
#
# number of rings (size 3 to 8) (size 9 to 14) (size 15 to 20)
#    0.000    1.600    0.667    5.800    0.000    7.733 
#    0.000    1.333    0.000    0.000    0.000    0.000 
#    0.000    0.533    0.000    2.000    0.000    3.067 
#
# Total GULP energy -335106.069037 kJ/mol
# GULP energy per Si atom -5585.101151 kJ/mol
# Density = 1.752439 g / cm^3
# Si number density = 17.564366 Si / 1000 Ang^3
#
#
#
# Elastic Constant Matrix: (Units=GPa)
#
#
# Indices 1 2 3 4 5 6 
#
# 1 43.0022 32.3908 45.9185 0.0000 0.0000 0.0000
# 2 32.3908 137.1150 69.5917 0.0000 0.0000 0.0000
# 3 45.9185 69.5917 122.6532 0.0000 0.0000 0.0000
# 4 0.0000 0.0000 0.0000 22.6557 0.0000 0.0000
# 5 0.0000 0.0000 0.0000 0.0000 34.5170 0.0000
# 6 0.0000 0.0000 0.0000 0.0000 0.0000 18.8273
#
#
#
# Elastic Compliance Matrix: (Units=1/GPa)
#
#
# Indices 1 2 3 4 5 6 
#
# 1 0.039370 -0.002556 -0.013289 0.000000 0.000000 0.000000
# 2 -0.002556 0.010409 -0.004949 0.000000 0.000000 0.000000
# 3 -0.013289 -0.004949 0.015936 0.000000 0.000000 0.000000
# 4 0.000000 0.000000 0.000000 0.044139 0.000000 0.000000
# 5 0.000000 0.000000 0.000000 0.000000 0.028971 0.000000
# 6 0.000000 0.000000 0.000000 0.000000 0.000000 0.053114
#
#
# Mechanical properties :
#
#
# Convention : Reuss Voigt Hill
#
# Bulk Modulus (GPa) = 41.44671 66.50805 53.97738
# Shear Modulus (GPa) = 20.69796 25.52462 23.11129
#
# Velocity S-wave (km/s) = 3.43652 3.81623 3.63134
# Velocity P-wave (km/s) = 6.27650 7.57401 6.95558
#
# Compressibility (1/GPa) = 0.02412737
#
# Stress axis : x y z
#
# Youngs Moduli (GPa) = 25.40004 96.07365 62.75004
#
# Poissons Ratio (x) = 0.24552 0.83390
# Poissons Ratio (y) = 0.06491 0.31055
# Poissons Ratio (z) = 0.33755 0.47547
#
# Static dielectric constant tensor:
#      x y z
#    x 1.595520 0.000000 0.000000 
#    y 0.000000 1.610790 0.000000 
#    z 0.000000 0.000000 1.614940 
# 
# From -- ./inp_files/69005.got.cif
#   From: 2010.05.17/outbox.cif.g08.bks.cpg/sg74_35_cif.got.tgz:69005.got - 2010.06.03 17:57:02.
