data_PCOD9538109
_publ_section_title
;
Structure prediction by ZEFSAII (Michael W. Deem and Ramdas Pophale) SiO2 
 PCOD9538109
Probable space group: I M M A
;
_chemical_formula_sum "Si O2"
_cell_formula_units_Z 96
_cell_length_a 9.401219
_cell_length_b 29.674126
_cell_length_c 19.474963
_cell_angle_alpha 90.000000
_cell_angle_beta 90.000000
_cell_angle_gamma 90.000000
_cell_volume 5432.988019
_symmetry_space_group_name_H-M "I M M A"
_symmetry_group_IT_number 74
_symmetry_cell_setting 'orthorhombic'
loop_
_space_group_symop_operation_xyz
x,y,z
-x,1/2-y,z
x,-y,-z
-x,1/2+y,-z
-x,-y,-z
x,1/2+y,-z
-x,y,z
x,1/2-y,z
1/2+x,1/2+y,1/2+z
1/2-x,-y,1/2+z
1/2+x,1/2-y,1/2-z
1/2-x,y,1/2-z
1/2-x,1/2-y,1/2-z
1/2+x,y,1/2-z
1/2-x,1/2+y,1/2+z
1/2+x,-y,1/2+z
loop_
_atom_site_type_symbol
_atom_site_label
_atom_site_fract_x
_atom_site_fract_y
_atom_site_fract_z
Si Si1 0.839011 0.803777 0.186333
Si Si2 0.829867 0.475280 0.072898
Si Si3 0.168107 0.945106 0.178433
Si Si4 0.828994 0.618658 0.570841
Si Si5 0.830223 0.634586 0.069848
Si Si6 0.670417 0.301584 0.177758
O O1 0.836609 0.750000 0.188524
O O2 0.750000 0.821612 0.250000
O O3 0.793629 0.820682 0.112280
O O4 0.000000 0.819871 0.195427
O O5 0.802978 0.509559 0.135250
O O6 0.742904 0.429697 0.085545
O O7 0.000000 0.465704 0.069367
O O8 0.793975 0.500000 0.000000
O O9 0.250000 0.942241 0.250000
O O10 0.199286 0.905119 0.124485
O O11 0.000000 0.943298 0.192845
O O12 0.763670 0.630960 0.497141
O O13 0.792407 0.658633 0.624525
O O14 0.000000 0.614642 0.568711
O O15 0.000000 0.633020 0.053177
O O16 0.500000 0.303662 0.188457
O O17 0.703166 0.250000 0.153797
O O18 0.750000 0.308193 0.250000
#
# Coordination Sequence:
#
# PCOD9538109 Si02
#       6
#    16  16  16  16  16  16
#     4   9  18  32  51  75 104 140 182 228 273 319
#     4  10  20  39  60  77 108 152 190 225 278 340
#     4  10  21  36  56  80 106 143 185 226 272 327
#     4  11  23  36  57  88 115 142 183 234 283 328
#     4  10  20  36  54  75 109 149 186 222 270 334
#     4   9  20  40  62  85 116 151 188 233 287 345
#
# _framework density 17.669834000000002
#
# number of rings (size 3 to 8) (size 9 to 14) (size 15 to 20)
#    0.000    2.167    1.667    1.000    0.000    5.000 
#    0.000    3.333    0.000    0.000    0.000    0.000 
#    0.000    0.000    0.000    0.000    0.000    0.000 
#
# Total GULP energy -267663.017847 kJ/mol
# GULP energy per Si atom -5576.312872 kJ/mol
# Density = 1.762962 g / cm^3
# Si number density = 17.669834 Si / 1000 Ang^3
#
#
#
# Elastic Constant Matrix: (Units=GPa)
#
#
# Indices 1 2 3 4 5 6 
#
# 1 47.8186 51.8200 56.4140 0.0000 0.0000 0.0000
# 2 51.8200 95.4789 64.2424 0.0000 0.0000 0.0000
# 3 56.4140 64.2424 122.2592 -0.0001 0.0000 0.0000
# 4 0.0000 0.0000 -0.0001 29.1592 0.0000 0.0000
# 5 0.0000 0.0000 0.0000 0.0000 35.8073 0.0000
# 6 0.0000 0.0000 0.0000 0.0000 0.0000 23.4963
#
#
#
# Elastic Compliance Matrix: (Units=1/GPa)
#
#
# Indices 1 2 3 4 5 6 
#
# 1 0.072362 -0.026000 -0.019728 0.000000 0.000000 0.000000
# 2 -0.026000 0.025543 -0.001425 0.000000 0.000000 0.000000
# 3 -0.019728 -0.001425 0.018031 0.000000 0.000000 0.000000
# 4 0.000000 0.000000 0.000000 0.034294 0.000000 0.000000
# 5 0.000000 0.000000 0.000000 0.000000 0.027927 0.000000
# 6 0.000000 0.000000 0.000000 0.000000 0.000000 0.042560
#
#
# Mechanical properties :
#
#
# Convention : Reuss Voigt Hill
#
# Bulk Modulus (GPa) = 46.23002 67.83439 57.03220
# Shear Modulus (GPa) = 15.51667 23.89791 19.70729
#
# Velocity S-wave (km/s) = 2.96656 3.68158 3.34324
# Velocity P-wave (km/s) = 6.16069 7.51966 6.87384
#
# Compressibility (1/GPa) = 0.02163097
#
# Stress axis : x y z
#
# Youngs Moduli (GPa) = 13.81941 39.14923 55.45909
#
# Poissons Ratio (x) = 1.01786 1.09411
# Poissons Ratio (y) = 0.35930 0.07903
# Poissons Ratio (z) = 0.27263 0.05579
#
# Static dielectric constant tensor:
#      x y z
#    x 1.592550 0.000000 0.000000 
#    y 0.000000 1.634490 0.000000 
#    z 0.000000 0.000000 1.588220 
# 
# From -- ./inp_files/49100.got.cif
#   From: 2010.05.17/outbox.cif.g08.bks.cpg/sg74_25_cif.got.tgz:49100.got - 2010.06.03 17:57:02.
