data_PCOD9538711
_publ_section_title
;
Structure prediction by ZEFSAII (Michael W. Deem and Ramdas Pophale) SiO2 
 PCOD9538711
Probable space group: I M M A
;
_chemical_formula_sum "Si O2"
_cell_formula_units_Z 112
_cell_length_a 29.042431
_cell_length_b 14.167387
_cell_length_c 12.690146
_cell_angle_alpha 90.000000
_cell_angle_beta 90.000000
_cell_angle_gamma 90.000000
_cell_volume 5221.428583
_symmetry_space_group_name_H-M "I M M A"
_symmetry_group_IT_number 74
_symmetry_cell_setting 'orthorhombic'
loop_
_space_group_symop_operation_xyz
x,y,z
-x,1/2-y,z
x,-y,-z
-x,1/2+y,-z
-x,-y,-z
x,1/2+y,-z
-x,y,z
x,1/2-y,z
1/2+x,1/2+y,1/2+z
1/2-x,-y,1/2+z
1/2+x,1/2-y,1/2-z
1/2-x,y,1/2-z
1/2-x,1/2-y,1/2-z
1/2+x,y,1/2-z
1/2-x,1/2+y,1/2+z
1/2+x,-y,1/2+z
loop_
_atom_site_type_symbol
_atom_site_label
_atom_site_fract_x
_atom_site_fract_y
_atom_site_fract_z
Si Si1 0.326127 0.649479 0.186364
Si Si2 0.616640 0.357218 0.348603
Si Si3 0.697929 0.438736 0.236447
Si Si4 0.360974 0.106657 0.038640
Si Si5 0.430799 0.143495 0.766547
Si Si6 0.950478 0.389354 0.975745
Si Si7 0.553350 0.434615 0.164754
O O1 0.304278 0.750000 0.216337
O O2 0.301466 0.550894 0.210532
O O3 0.375668 0.641314 0.241948
O O4 0.340708 0.655690 0.063432
O O5 0.625117 0.250000 0.313475
O O6 0.663500 0.416158 0.333187
O O7 0.594219 0.353579 0.463569
O O8 0.577578 0.404206 0.274214
O O9 0.750000 0.406035 0.250000
O O10 0.672247 0.387355 0.139141
O O11 0.586507 0.383595 0.079224
O O12 0.359821 0.000000 0.000000
O O13 0.443429 0.250000 0.804621
O O14 0.448986 0.129847 0.648400
O O15 0.443687 0.050228 0.834717
O O16 0.000000 0.353249 0.016456
O O17 0.950226 0.500000 0.000000
O O18 0.500000 0.408443 0.157592
#
# Coordination Sequence:
#
# PCOD9538711 Si02
#       7
#    16  16  16  16  16  16  16
#     4  10  20  40  67  92 125 164 199 244 307 369
#     4  11  23  40  59  84 121 164 209 258 312 367
#     4  10  21  41  68  94 120 154 200 259 318 371
#     4   9  18  38  58  87 119 160 197 240 297 354
#     4  11  21  36  58  87 123 162 205 248 300 365
#     4  11  21  36  58  84 122 170 212 251 300 358
#     4  11  21  36  59  88 121 161 206 255 303 354
#
# _framework density 21.450067000000001
#
# number of rings (size 3 to 8) (size 9 to 14) (size 15 to 20)
#    0.000    1.571    5.714    1.286    0.000    6.000 
#    0.000    6.429    0.000    0.000    0.000    0.000 
#    0.000    0.000    0.000    0.000    0.000    0.000 
#
# Total GULP energy -312197.089845 kJ/mol
# GULP energy per Si atom -5574.948033 kJ/mol
# Density = 2.140125 g / cm^3
# Si number density = 21.450067 Si / 1000 Ang^3
#
#
#
# Elastic Constant Matrix: (Units=GPa)
#
#
# Indices 1 2 3 4 5 6 
#
# 1 167.0786 15.4229 41.6376 0.0000 0.0000 0.0000
# 2 15.4229 105.4142 -3.2504 0.0000 0.0000 0.0000
# 3 41.6376 -3.2504 51.2836 0.0000 0.0000 0.0000
# 4 0.0000 0.0000 0.0000 11.7011 0.0000 0.0000
# 5 0.0000 0.0000 0.0000 0.0000 5.7959 0.0000
# 6 0.0000 0.0000 0.0000 0.0000 0.0000 -39.8658
#
#
#
# Elastic Compliance Matrix: (Units=1/GPa)
#
#
# Indices 1 2 3 4 5 6 
#
# 1 0.007682 -0.001319 -0.006321 0.000000 0.000000 0.000000
# 2 -0.001319 0.009731 0.001688 0.000000 0.000000 0.000000
# 3 -0.006321 0.001688 0.024738 0.000000 0.000000 0.000000
# 4 0.000000 0.000000 0.000000 0.085462 0.000000 0.000000
# 5 0.000000 0.000000 0.000000 0.000000 0.172535 0.000000
# 6 0.000000 0.000000 0.000000 0.000000 0.000000 -0.025084
#
#
# Mechanical properties :
#
#
# Convention : Reuss Voigt Hill
#
# Bulk Modulus (GPa) = 33.06040 47.93296 40.49668
# Shear Modulus (GPa) = 16.83212 13.52399 15.17805
#
# Velocity S-wave (km/s) = 2.80431 2.51367 2.66296
# Velocity P-wave (km/s) = 5.09232 5.55154 5.32688
#
# Compressibility (1/GPa) = 0.03024767
#
# Stress axis : x y z
#
# Youngs Moduli (GPa) = 130.17176 102.76030 40.42313
#
# Poissons Ratio (x) = 0.13553 0.25551
# Poissons Ratio (y) = 0.17168 -0.06822
# Poissons Ratio (z) = 0.82279 -0.17342
#
# Static dielectric constant tensor:
#      x y z
#    x 1.752350 0.000000 0.000000 
#    y 0.000000 1.815580 0.000000 
#    z 0.000000 0.000000 1.826450 
# 
# From -- ./inp_files/37402.got.cif
#   From: 2010.05.17/outbox.cif.g08.bks.cpg/sg74_19_cif.got.tgz:37402.got - 2010.06.03 17:57:02.
