data_PCOD9538731
_publ_section_title
;
Structure prediction by ZEFSAII (Michael W. Deem and Ramdas Pophale) SiO2 
 PCOD9538731
Probable space group: I M M A
;
_chemical_formula_sum "Si O2"
_cell_formula_units_Z 92
_cell_length_a 9.568132
_cell_length_b 27.706980
_cell_length_c 19.567582
_cell_angle_alpha 90.000000
_cell_angle_beta 90.000000
_cell_angle_gamma 90.000000
_cell_volume 5187.445080
_symmetry_space_group_name_H-M "I M M A"
_symmetry_group_IT_number 74
_symmetry_cell_setting 'orthorhombic'
loop_
_space_group_symop_operation_xyz
x,y,z
-x,1/2-y,z
x,-y,-z
-x,1/2+y,-z
-x,-y,-z
x,1/2+y,-z
-x,y,z
x,1/2-y,z
1/2+x,1/2+y,1/2+z
1/2-x,-y,1/2+z
1/2+x,1/2-y,1/2-z
1/2-x,y,1/2-z
1/2-x,1/2-y,1/2-z
1/2+x,y,1/2-z
1/2-x,1/2+y,1/2+z
1/2+x,-y,1/2+z
loop_
_atom_site_type_symbol
_atom_site_label
_atom_site_fract_x
_atom_site_fract_y
_atom_site_fract_z
Si Si1 0.165667 0.936277 0.180051
Si Si2 0.335496 0.851775 0.425773
Si Si3 0.834136 0.193970 0.317922
Si Si4 0.335844 0.476906 0.424753
Si Si5 0.000000 0.750000 0.270680
Si Si6 0.780559 0.250000 0.856029
Si Si7 0.332673 0.119567 0.060592
O O1 0.250000 0.937813 0.250000
O O2 0.198819 0.888599 0.135939
O O3 0.000000 0.935309 0.194761
O O4 0.193478 0.982312 0.131735
O O5 0.500000 0.859248 0.442424
O O6 0.311274 0.797795 0.399894
O O7 0.240888 0.864550 0.490420
O O8 0.800838 0.250000 0.334038
O O9 0.750000 0.180270 0.250000
O O10 0.803357 0.159233 0.381153
O O11 0.000000 0.191046 0.304114
O O12 0.317327 0.500000 0.500000
O O13 0.500000 0.463020 0.419168
O O14 0.236247 0.431117 0.418145
O O15 0.118934 0.750000 0.209504
O O16 0.123180 0.750000 0.329004
O O17 0.500000 0.115312 0.052438
#
# Coordination Sequence:
#
# PCOD9538731 Si02
#       7
#    16  16  16  16   4   8  16
#     4  10  23  39  62  89 119 157 200 250 300 356
#     4  11  23  41  60  89 124 164 209 248 297 364
#     4   9  20  40  62  88 121 155 193 240 296 358
#     4  10  20  42  63  81 115 160 200 245 300 352
#     4  10  24  42  60  86 124 170 206 262 308 348
#     4  11  24  40  62  90 121 168 210 254 306 360
#     4  11  24  38  62  93 123 157 197 250 306 356
#
# _framework density 17.735128
#
# number of rings (size 3 to 8) (size 9 to 14) (size 15 to 20)
#    0.000    1.739    2.609    0.522    4.870    3.826 
#    0.000    3.478    0.000    0.000    0.000    0.000 
#    0.000    0.000    0.000    0.000    0.000    0.000 
#
# Total GULP energy -256367.497199 kJ/mol
# GULP energy per Si atom -5573.206461 kJ/mol
# Density = 1.769476 g / cm^3
# Si number density = 17.735128 Si / 1000 Ang^3
#
#
#
# Elastic Constant Matrix: (Units=GPa)
#
#
# Indices 1 2 3 4 5 6 
#
# 1 103.0492 64.2600 84.2744 0.0000 0.0000 0.0000
# 2 64.2600 127.9534 91.8349 0.0000 0.0000 0.0000
# 3 84.2744 91.8349 158.7857 0.0000 0.0000 -0.0001
# 4 0.0000 0.0000 0.0000 44.8474 0.0000 0.0000
# 5 0.0000 0.0000 0.0000 0.0000 41.3499 0.0000
# 6 0.0000 0.0000 -0.0001 0.0000 0.0000 -16.8041
#
#
#
# Elastic Compliance Matrix: (Units=1/GPa)
#
#
# Indices 1 2 3 4 5 6 
#
# 1 0.018148 -0.003763 -0.007455 0.000000 0.000000 0.000000
# 2 -0.003763 0.014142 -0.006182 0.000000 0.000000 0.000000
# 3 -0.007455 -0.006182 0.013830 0.000000 0.000000 0.000000
# 4 0.000000 0.000000 0.000000 0.022298 0.000000 0.000000
# 5 0.000000 0.000000 0.000000 0.000000 0.024184 0.000000
# 6 0.000000 0.000000 0.000000 0.000000 0.000000 -0.059509
#
#
# Mechanical properties :
#
#
# Convention : Reuss Voigt Hill
#
# Bulk Modulus (GPa) = 88.34668 96.72521 92.53595
# Shear Modulus (GPa) = 69.76768 23.83991 46.80379
#
# Velocity S-wave (km/s) = 6.27886 3.67034 5.14274
# Velocity P-wave (km/s) = 10.12364 8.52168 9.35701
#
# Compressibility (1/GPa) = 0.01131904
#
# Stress axis : x y z
#
# Youngs Moduli (GPa) = 55.10296 70.71028 72.30636
#
# Poissons Ratio (x) = 0.26610 0.53907
# Poissons Ratio (y) = 0.20737 0.44699
# Poissons Ratio (z) = 0.41081 0.43713
#
# Static dielectric constant tensor:
#      x y z
#    x 1.592240 0.000000 0.000000 
#    y 0.000000 1.604070 0.000000 
#    z 0.000000 0.000000 1.566500 
# 
# From -- ./inp_files/49204.got.cif
#   From: 2010.05.17/outbox.cif.g08.bks.cpg/sg74_25_cif.got.tgz:49204.got - 2010.06.03 17:57:02.
