data_PCOD9538262
_publ_section_title
;
Structure prediction by ZEFSAII (Michael W. Deem and Ramdas Pophale) SiO2 
 PCOD9538262
Probable space group: I M M A
;
_chemical_formula_sum "Si O2"
_cell_formula_units_Z 104
_cell_length_a 9.045222
_cell_length_b 21.306470
_cell_length_c 28.225351
_cell_angle_alpha 90.000000
_cell_angle_beta 90.000000
_cell_angle_gamma 90.000000
_cell_volume 5439.639073
_symmetry_space_group_name_H-M "I M M A"
_symmetry_group_IT_number 74
_symmetry_cell_setting 'orthorhombic'
loop_
_space_group_symop_operation_xyz
x,y,z
-x,1/2-y,z
x,-y,-z
-x,1/2+y,-z
-x,-y,-z
x,1/2+y,-z
-x,y,z
x,1/2-y,z
1/2+x,1/2+y,1/2+z
1/2-x,-y,1/2+z
1/2+x,1/2-y,1/2-z
1/2-x,y,1/2-z
1/2-x,1/2-y,1/2-z
1/2+x,y,1/2-z
1/2-x,1/2+y,1/2+z
1/2+x,-y,1/2+z
loop_
_atom_site_type_symbol
_atom_site_label
_atom_site_fract_x
_atom_site_fract_y
_atom_site_fract_z
Si Si1 0.171177 0.074468 0.703117
Si Si2 0.822255 0.148627 0.119981
Si Si3 0.824545 0.091424 0.946951
Si Si4 0.676620 0.180232 0.021848
Si Si5 0.675246 0.178229 0.645497
Si Si6 0.673758 0.014284 0.111318
Si Si7 0.822789 0.250000 0.198556
O O1 0.250000 0.050124 0.750000
O O2 0.243417 0.139375 0.686071
O O3 0.000000 0.083979 0.713268
O O4 0.185139 0.027222 0.659006
O O5 0.746872 0.178478 0.073843
O O6 0.760410 0.078264 0.120612
O O7 0.783580 0.189317 0.166463
O O8 0.000000 0.149451 0.115035
O O9 0.802795 0.140395 0.903437
O O10 0.000000 0.082258 0.954014
O O11 0.747290 0.027104 0.930348
O O12 0.749972 0.124933 0.991559
O O13 0.500000 0.171984 0.024036
O O14 0.706553 0.250000 0.001098
O O15 0.500000 0.177670 0.654906
O O16 0.725355 0.250000 0.641604
O O17 0.500000 0.025672 0.101496
O O18 0.750000 0.250000 0.250000
O O19 0.000000 0.250000 0.204220
#
# Coordination Sequence:
#
# PCOD9538262 Si02
#       7
#    16  16  16  16  16  16   8
#     4  10  21  36  55  78 108 146 189 239 292 347
#     4  11  23  42  65  91 121 155 196 242 295 354
#     4  10  20  36  59  87 119 159 202 245 294 351
#     4  11  23  38  60  90 124 162 200 244 296 351
#     4   9  18  33  53  78 110 148 192 240 289 342
#     4  10  22  40  60  86 119 154 196 247 300 358
#     4  10  24  44  68  96 126 158 198 250 305 368
#
# _framework density 19.118915999999999
#
# number of rings (size 3 to 8) (size 9 to 14) (size 15 to 20)
#    0.000    1.846    0.769    2.769    0.000    7.077 
#    0.000    6.154    0.000    0.000    0.000    0.000 
#    0.000    0.000    0.000    0.000    0.000    0.000 
#
# Total GULP energy -290488.254667 kJ/mol
# GULP energy per Si atom -5586.312590 kJ/mol
# Density = 1.907540 g / cm^3
# Si number density = 19.118916 Si / 1000 Ang^3
#
#
#
# Elastic Constant Matrix: (Units=GPa)
#
#
# Indices 1 2 3 4 5 6 
#
# 1 75.2843 47.7722 58.3519 0.0000 0.0000 0.0000
# 2 47.7722 121.7972 38.1628 0.0000 0.0000 0.0000
# 3 58.3519 38.1628 106.2499 0.0000 0.0000 0.0000
# 4 0.0000 0.0000 0.0000 4.6515 0.0000 0.0000
# 5 0.0000 0.0000 0.0000 0.0000 35.1956 0.0000
# 6 0.0000 0.0000 0.0000 0.0000 0.0000 28.3729
#
#
#
# Elastic Compliance Matrix: (Units=1/GPa)
#
#
# Indices 1 2 3 4 5 6 
#
# 1 0.027333 -0.006780 -0.012576 0.000000 0.000000 0.000000
# 2 -0.006780 0.010934 -0.000203 0.000000 0.000000 0.000000
# 3 -0.012576 -0.000203 0.016391 0.000000 0.000000 0.000000
# 4 0.000000 0.000000 0.000000 0.214986 0.000000 0.000000
# 5 0.000000 0.000000 0.000000 0.000000 0.028413 0.000000
# 6 0.000000 0.000000 0.000000 0.000000 0.000000 0.035245
#
#
# Mechanical properties :
#
#
# Convention : Reuss Voigt Hill
#
# Bulk Modulus (GPa) = 64.35474 65.76724 65.06099
# Shear Modulus (GPa) = 13.24154 24.24695 18.74425
#
# Velocity S-wave (km/s) = 2.63456 3.56507 3.13454
# Velocity P-wave (km/s) = 6.55651 7.17077 6.87051
#
# Compressibility (1/GPa) = 0.01553887
#
# Stress axis : x y z
#
# Youngs Moduli (GPa) = 36.58626 91.46194 61.00801
#
# Poissons Ratio (x) = 0.62014 0.76721
# Poissons Ratio (y) = 0.24807 0.01241
# Poissons Ratio (z) = 0.46009 0.01860
#
# Static dielectric constant tensor:
#      x y z
#    x 1.634730 0.000000 0.000000 
#    y 0.000000 1.674560 0.000000 
#    z 0.000000 0.000000 1.657130 
# 
# From -- ./inp_files/64449.got.cif
#   From: 2010.05.17/outbox.cif.g08.bks.cpg/sg74_33_cif.got.tgz:64449.got - 2010.06.03 17:57:02.
