data_PCOD9538962
_publ_section_title
;
Structure prediction by ZEFSAII (Michael W. Deem and Ramdas Pophale) SiO2 
 PCOD9538962
Probable space group: I M M A
;
_chemical_formula_sum "Si O2"
_cell_formula_units_Z 120
_cell_length_a 29.445047
_cell_length_b 8.032921
_cell_length_c 25.102939
_cell_angle_alpha 90.000000
_cell_angle_beta 90.000000
_cell_angle_gamma 90.000000
_cell_volume 5937.591544
_symmetry_space_group_name_H-M "I M M A"
_symmetry_group_IT_number 74
_symmetry_cell_setting 'orthorhombic'
loop_
_space_group_symop_operation_xyz
x,y,z
-x,1/2-y,z
x,-y,-z
-x,1/2+y,-z
-x,-y,-z
x,1/2+y,-z
-x,y,z
x,1/2-y,z
1/2+x,1/2+y,1/2+z
1/2-x,-y,1/2+z
1/2+x,1/2-y,1/2-z
1/2-x,y,1/2-z
1/2-x,1/2-y,1/2-z
1/2+x,y,1/2-z
1/2-x,1/2+y,1/2+z
1/2+x,-y,1/2+z
loop_
_atom_site_type_symbol
_atom_site_label
_atom_site_fract_x
_atom_site_fract_y
_atom_site_fract_z
Si Si1 0.399512 0.053241 0.251460
Si Si2 0.316836 0.558323 0.114016
Si Si3 0.585115 0.947306 0.868848
Si Si4 0.226016 0.549033 0.061482
Si Si5 0.500000 0.048211 0.061945
Si Si6 0.126450 0.048569 0.938175
Si Si7 0.050877 0.948623 0.143040
Si Si8 0.800021 0.558422 0.259694
O O1 0.407289 0.250000 0.251117
O O2 0.412006 0.986066 0.192134
O O3 0.429232 0.977166 0.298271
O O4 0.345950 0.022449 0.262174
O O5 0.321442 0.750000 0.096199
O O6 0.365354 0.474452 0.105579
O O7 0.271849 0.482519 0.087929
O O8 0.307275 0.558790 0.176968
O O9 0.577951 0.750000 0.863740
O O10 0.544526 0.012425 0.905710
O O11 0.226863 0.750000 0.067539
O O12 0.176501 0.491587 0.081357
O O13 0.227254 0.500000 0.000000
O O14 0.500000 0.250000 0.063248
O O15 0.500000 0.000000 0.000000
O O16 0.126673 0.250000 0.936055
O O17 0.086410 0.984519 0.900527
O O18 0.120782 0.000000 0.000000
O O19 0.048474 0.750000 0.134752
O O20 0.000000 0.017290 0.137998
O O21 0.798841 0.750000 0.239739
O O22 0.750000 0.484433 0.250000
#
# Coordination Sequence:
#
# PCOD9538962 Si02
#       8
#    16  16  16  16   8  16  16  16
#     4  10  21  36  56  82 112 147 184 226 276 330
#     4   9  18  32  51  77 105 135 177 219 260 315
#     4   9  20  38  57  76 107 146 178 218 275 327
#     4   9  18  32  51  75 103 139 177 215 261 317
#     4  10  22  40  60  82 106 140 183 224 271 326
#     4   9  19  36  57  78 109 145 182 226 277 331
#     4  10  22  38  57  83 111 143 187 236 283 335
#     4   9  18  32  54  79 107 145 182 218 267 324
#
# _framework density 20.210214000000001
#
# number of rings (size 3 to 8) (size 9 to 14) (size 15 to 20)
#    0.000    2.667    0.000    0.400    2.800    3.467 
#    0.000    2.667    0.000    0.000    0.000    0.000 
#    0.000    0.000    0.000    0.000    0.000    0.000 
#
# Total GULP energy -334519.003853 kJ/mol
# GULP energy per Si atom -5575.316731 kJ/mol
# Density = 2.016421 g / cm^3
# Si number density = 20.210214 Si / 1000 Ang^3
#
#
#
# Elastic Constant Matrix: (Units=GPa)
#
#
# Indices 1 2 3 4 5 6 
#
# 1 209.1838 7.0252 90.3789 0.0000 0.0000 0.0000
# 2 7.0252 9.5225 0.9227 0.0000 0.0000 0.0000
# 3 90.3789 0.9227 77.8223 0.0000 0.0000 0.0000
# 4 0.0000 0.0000 0.0000 21.6961 0.0000 0.0000
# 5 0.0000 0.0000 0.0000 0.0000 37.0749 0.0000
# 6 0.0000 0.0000 0.0000 0.0000 0.0000 32.0866
#
#
#
# Elastic Compliance Matrix: (Units=1/GPa)
#
#
# Indices 1 2 3 4 5 6 
#
# 1 0.009951 -0.006229 -0.011482 0.000000 0.000000 0.000000
# 2 -0.006229 0.109034 0.005941 0.000000 0.000000 0.000000
# 3 -0.011482 0.005941 0.026114 0.000000 0.000000 0.000000
# 4 0.000000 0.000000 0.000000 0.046091 0.000000 0.000000
# 5 0.000000 0.000000 0.000000 0.000000 0.026972 0.000000
# 6 0.000000 0.000000 0.000000 0.000000 0.000000 0.031166
#
#
# Mechanical properties :
#
#
# Convention : Reuss Voigt Hill
#
# Bulk Modulus (GPa) = 8.22645 54.79802 31.51224
# Shear Modulus (GPa) = 15.95462 31.38497 23.66980
#
# Velocity S-wave (km/s) = 2.81273 3.94499 3.42596
# Velocity P-wave (km/s) = 3.82465 6.92268 5.59247
#
# Compressibility (1/GPa) = 0.12155910
#
# Stress axis : x y z
#
# Youngs Moduli (GPa) = 100.49584 9.17142 38.29313
#
# Poissons Ratio (x) = 0.05712 0.43969
# Poissons Ratio (y) = 0.62594 -0.22749
# Poissons Ratio (z) = 1.15393 -0.05448
#
# Static dielectric constant tensor:
#      x y z
#    x 1.744650 0.000000 0.000000 
#    y 0.000000 1.730010 0.000000 
#    z 0.000000 0.000000 1.697360 
# 
# From -- ./inp_files/69003.got.cif
#   From: 2010.05.17/outbox.cif.g08.bks.cpg/sg74_35_cif.got.tgz:69003.got - 2010.06.03 17:57:02.
