data_PCOD9538542
_publ_section_title
;
Structure prediction by ZEFSAII (Michael W. Deem and Ramdas Pophale) SiO2 
 PCOD9538542
Probable space group: I M M A
;
_chemical_formula_sum "Si O2"
_cell_formula_units_Z 80
_cell_length_a 14.132690
_cell_length_b 18.287550
_cell_length_c 16.248856
_cell_angle_alpha 90.000000
_cell_angle_beta 90.000000
_cell_angle_gamma 90.000000
_cell_volume 4199.553800
_symmetry_space_group_name_H-M "I M M A"
_symmetry_group_IT_number 74
_symmetry_cell_setting 'orthorhombic'
loop_
_space_group_symop_operation_xyz
x,y,z
-x,1/2-y,z
x,-y,-z
-x,1/2+y,-z
-x,-y,-z
x,1/2+y,-z
-x,y,z
x,1/2-y,z
1/2+x,1/2+y,1/2+z
1/2-x,-y,1/2+z
1/2+x,1/2-y,1/2-z
1/2-x,y,1/2-z
1/2-x,1/2-y,1/2-z
1/2+x,y,1/2-z
1/2-x,1/2+y,1/2+z
1/2+x,-y,1/2+z
loop_
_atom_site_type_symbol
_atom_site_label
_atom_site_fract_x
_atom_site_fract_y
_atom_site_fract_z
Si Si1 0.247780 0.838012 0.535552
Si Si2 0.111576 0.578363 0.082467
Si Si3 0.887209 0.168716 0.752089
Si Si4 0.113346 0.084219 0.590250
Si Si5 0.747768 0.462618 0.150736
O O1 0.248025 0.750000 0.536558
O O2 0.337022 0.872441 0.486060
O O3 0.158867 0.872039 0.485372
O O4 0.246815 0.878221 0.623709
O O5 0.126631 0.622302 0.167019
O O6 0.164680 0.502579 0.103581
O O7 0.000000 0.569121 0.067109
O O8 0.850779 0.250000 0.762247
O O9 0.852811 0.129832 0.670271
O O10 0.000000 0.173070 0.740741
O O11 0.000000 0.080105 0.584710
O O12 0.158884 0.005180 0.609112
O O13 0.750000 0.471768 0.250000
#
# Coordination Sequence:
#
# PCOD9538542 Si02
#       5
#    16  16  16  16  16
#     4  11  25  39  57  87 119 156 199 242 289 342
#     4  10  20  38  61  87 119 151 191 241 292 350
#     4   9  16  27  51  85 116 146 174 214 284 353
#     4  10  20  38  61  87 119 151 191 241 292 350
#     4  11  23  40  60  86 116 154 203 242 286 346
#
# _framework density 19.049641999999999
#
# number of rings (size 3 to 8) (size 9 to 14) (size 15 to 20)
#    0.000    1.800    2.000    3.600    0.000    6.000 
#    0.000    3.000    0.000    0.000    0.000    5.600 
#    0.000    0.000    0.000    0.000    0.000    0.000 
#
# Total GULP energy -223165.988014 kJ/mol
# GULP energy per Si atom -5579.149700 kJ/mol
# Density = 1.900628 g / cm^3
# Si number density = 19.049642 Si / 1000 Ang^3
#
#
#
# Elastic Constant Matrix: (Units=GPa)
#
#
# Indices 1 2 3 4 5 6 
#
# 1 138.7169 35.4935 21.5520 0.0000 0.0000 0.0000
# 2 35.4935 158.7464 64.3774 0.0000 0.0000 0.0000
# 3 21.5520 64.3774 65.7066 0.0000 0.0000 0.0000
# 4 0.0000 0.0000 0.0000 13.1266 0.0000 0.0000
# 5 0.0000 0.0000 0.0000 0.0000 90.1419 0.0000
# 6 0.0000 0.0000 0.0000 0.0000 0.0000 11.4601
#
#
#
# Elastic Compliance Matrix: (Units=1/GPa)
#
#
# Indices 1 2 3 4 5 6 
#
# 1 0.007723 -0.001161 -0.001396 0.000000 0.000000 0.000000
# 2 -0.001161 0.010627 -0.010031 0.000000 0.000000 0.000000
# 3 -0.001396 -0.010031 0.025505 0.000000 0.000000 0.000000
# 4 0.000000 0.000000 0.000000 0.076181 0.000000 0.000000
# 5 0.000000 0.000000 0.000000 0.000000 0.011094 0.000000
# 6 0.000000 0.000000 0.000000 0.000000 0.000000 0.087260
#
#
# Mechanical properties :
#
#
# Convention : Reuss Voigt Hill
#
# Bulk Modulus (GPa) = 53.53486 67.33507 60.43497
# Shear Modulus (GPa) = 20.01668 39.06218 29.53943
#
# Velocity S-wave (km/s) = 3.24507 4.53321 3.94211
# Velocity P-wave (km/s) = 6.49649 7.92615 7.24666
#
# Compressibility (1/GPa) = 0.01867942
#
# Stress axis : x y z
#
# Youngs Moduli (GPa) = 129.48710 94.10110 39.20741
#
# Poissons Ratio (x) = 0.10921 0.05473
# Poissons Ratio (y) = 0.15028 0.39330
# Poissons Ratio (z) = 0.18076 0.94395
#
# Static dielectric constant tensor:
#      x y z
#    x 1.687170 0.000000 0.000000 
#    y 0.000000 1.673640 0.000000 
#    z 0.000000 0.000000 1.663120 
# 
# From -- ./inp_files/42694.got.cif
#   From: 2010.05.17/outbox.cif.g08.bks.cpg/sg74_22_cif.got.tgz:42694.got - 2010.06.03 17:57:02.
