data_PCOD9538937
_publ_section_title
;
Structure prediction by ZEFSAII (Michael W. Deem and Ramdas Pophale) SiO2 
 PCOD9538937
Probable space group: I M M A
;
_chemical_formula_sum "Si O2"
_cell_formula_units_Z 96
_cell_length_a 8.421187
_cell_length_b 27.399558
_cell_length_c 21.123989
_cell_angle_alpha 90.000000
_cell_angle_beta 90.000000
_cell_angle_gamma 90.000000
_cell_volume 4874.081660
_symmetry_space_group_name_H-M "I M M A"
_symmetry_group_IT_number 74
_symmetry_cell_setting 'orthorhombic'
loop_
_space_group_symop_operation_xyz
x,y,z
-x,1/2-y,z
x,-y,-z
-x,1/2+y,-z
-x,-y,-z
x,1/2+y,-z
-x,y,z
x,1/2-y,z
1/2+x,1/2+y,1/2+z
1/2-x,-y,1/2+z
1/2+x,1/2-y,1/2-z
1/2-x,y,1/2-z
1/2-x,1/2-y,1/2-z
1/2+x,y,1/2-z
1/2-x,1/2+y,1/2+z
1/2+x,-y,1/2+z
loop_
_atom_site_type_symbol
_atom_site_label
_atom_site_fract_x
_atom_site_fract_y
_atom_site_fract_z
Si Si1 0.188247 0.085651 0.180792
Si Si2 0.807064 0.194934 0.562298
Si Si3 0.680291 0.023650 0.837651
Si Si4 0.307369 0.131201 0.815809
Si Si5 0.825324 0.048792 0.961422
Si Si6 0.190238 0.130573 0.447529
O O1 0.250000 0.100599 0.250000
O O2 0.255598 0.119302 0.124039
O O3 0.000000 0.088436 0.178530
O O4 0.235831 0.028236 0.172377
O O5 0.751630 0.250000 0.574138
O O6 0.755770 0.158571 0.619422
O O7 0.766756 0.177734 0.490681
O O8 0.000000 0.194675 0.565160
O O9 0.500000 0.018061 0.814649
O O10 0.752012 0.074935 0.813922
O O11 0.689769 0.036370 0.911495
O O12 0.500000 0.129568 0.816734
O O13 0.250000 0.154910 0.750000
O O14 0.000000 0.060469 0.932983
O O15 0.770269 0.089138 0.009981
O O16 0.844595 0.000000 0.000000
O O17 0.000000 0.126267 0.448417
#
# Coordination Sequence:
#
# PCOD9538937 Si02
#       6
#    16  16  16  16  16  16
#     4  12  25  40  57  85 120 157 193 233 282 342
#     4   9  19  38  62  86 112 144 189 242 296 352
#     4  11  21  35  55  81 115 157 200 238 276 332
#     4  10  21  36  54  82 115 155 196 236 282 331
#     4  11  21  32  51  82 115 151 191 235 283 335
#     4  11  21  37  61  85 111 150 193 239 293 348
#
# _framework density 19.696017999999999
#
# number of rings (size 3 to 8) (size 9 to 14) (size 15 to 20)
#    0.000    1.333    3.333    3.500    0.000    3.667 
#    0.000    0.000    0.000    4.500    0.000    0.000 
#    0.000    0.000    0.000    0.000    0.000    0.000 
#
# Total GULP energy -267456.963139 kJ/mol
# GULP energy per Si atom -5572.020065 kJ/mol
# Density = 1.965119 g / cm^3
# Si number density = 19.696018 Si / 1000 Ang^3
#
#
#
# Elastic Constant Matrix: (Units=GPa)
#
#
# Indices 1 2 3 4 5 6 
#
# 1 57.3158 17.2748 16.8091 0.0000 0.0000 0.0000
# 2 17.2748 73.8387 50.6620 0.0000 0.0000 0.0000
# 3 16.8091 50.6620 137.4435 0.0000 0.0000 0.0000
# 4 0.0000 0.0000 0.0000 -0.0449 0.0000 0.0000
# 5 0.0000 0.0000 0.0000 0.0000 30.2370 0.0000
# 6 0.0000 0.0000 0.0000 0.0000 0.0000 6.1499
#
#
#
# Elastic Compliance Matrix: (Units=1/GPa)
#
#
# Indices 1 2 3 4 5 6 
#
# 1 0.018855 -0.003787 -0.000910 -0.000002 0.000000 0.000000
# 2 -0.003787 0.018888 -0.006499 -0.000001 0.000000 0.000000
# 3 -0.000910 -0.006499 0.009783 0.000007 0.000000 0.000000
# 4 -0.000002 -0.000001 0.000007-22.263057 0.000000 0.000013
# 5 0.000000 0.000000 0.000000 0.000000 0.033072 0.000000
# 6 0.000000 0.000000 0.000000 0.000013 0.000000 0.162604
#
#
# Mechanical properties :
#
#
# Convention : Reuss Voigt Hill
#
# Bulk Modulus (GPa) = 39.78665 48.67663 44.23164
# Shear Modulus (GPa) = -0.22739 19.52521 9.64891
#
# Velocity S-wave (km/s) = -0.34014 3.15195 2.21575
# Velocity P-wave (km/s) = 4.48218 6.16555 5.38999
#
# Compressibility (1/GPa) = 0.02513406
#
# Stress axis : x y z
#
# Youngs Moduli (GPa) = 53.03505 52.94332 102.22219
#
# Poissons Ratio (x) = 0.20049 0.09304
# Poissons Ratio (y) = 0.20083 0.66435
# Poissons Ratio (z) = 0.04827 0.34408
#
# Static dielectric constant tensor:
#      x y z
#    x 1.732630 0.000000 0.000000 
#    y 0.000000 1.693900 0.000000 
#    z 0.000000 0.000000 1.741380 
# 
# From -- ./inp_files/49118.got.cif
#   From: 2010.05.17/outbox.cif.g08.bks.cpg/sg74_25_cif.got.tgz:49118.got - 2010.06.03 17:57:02.
