data_PCOD9538488
_publ_section_title
;
Structure prediction by ZEFSAII (Michael W. Deem and Ramdas Pophale) SiO2 
 PCOD9538488
Probable space group: I M M A
;
_chemical_formula_sum "Si O2"
_cell_formula_units_Z 52
_cell_length_a 19.349677
_cell_length_b 7.666955
_cell_length_c 14.398495
_cell_angle_alpha 90.000000
_cell_angle_beta 90.000000
_cell_angle_gamma 90.000000
_cell_volume 2136.061409
_symmetry_space_group_name_H-M "I M M A"
_symmetry_group_IT_number 74
_symmetry_cell_setting 'orthorhombic'
loop_
_space_group_symop_operation_xyz
x,y,z
-x,1/2-y,z
x,-y,-z
-x,1/2+y,-z
-x,-y,-z
x,1/2+y,-z
-x,y,z
x,1/2-y,z
1/2+x,1/2+y,1/2+z
1/2-x,-y,1/2+z
1/2+x,1/2-y,1/2-z
1/2-x,y,1/2-z
1/2-x,1/2-y,1/2-z
1/2+x,y,1/2-z
1/2-x,1/2+y,1/2+z
1/2+x,-y,1/2+z
loop_
_atom_site_type_symbol
_atom_site_label
_atom_site_fract_x
_atom_site_fract_y
_atom_site_fract_z
Si Si1 0.079730 0.957464 0.600223
Si Si2 0.079659 0.954230 0.194885
Si Si3 0.285620 0.445015 0.394235
Si Si4 0.250000 0.750000 0.250000
O O1 0.079049 0.750000 0.610010
O O2 0.000000 0.023181 0.594802
O O3 0.112184 0.000000 0.500000
O O4 0.104997 0.033185 0.697770
O O5 0.081893 0.750000 0.170004
O O6 0.000000 0.014381 0.191507
O O7 0.132617 0.054967 0.130884
O O8 0.276849 0.500000 0.500000
O O9 0.257007 0.250000 0.377326
O O10 0.256597 0.596219 0.329662
#
# Coordination Sequence:
#
# PCOD9538488 Si02
#       4
#    16  16  16   4
#     4   9  16  27  46  75 119 175 225 275 339 412
#     4  10  20  37  64 102 147 190 237 296 369 458
#     4  12  25  48  80 109 147 197 247 316 389 450
#     4  12  26  52  78 108 144 196 258 314 380 446
#
# _framework density 24.343869000000002
#
# number of rings (size 3 to 8) (size 9 to 14) (size 15 to 20)
#    0.000    1.538    3.077    2.308    0.000    6.154 
#    0.000    1.538    0.000    0.000    0.000    0.000 
#    0.000    0.000    0.000    0.000    0.000    0.000 
#
# Total GULP energy -144995.875757 kJ/mol
# GULP energy per Si atom -5576.764452 kJ/mol
# Density = 2.428846 g / cm^3
# Si number density = 24.343869 Si / 1000 Ang^3
#
#
#
# Elastic Constant Matrix: (Units=GPa)
#
#
# Indices 1 2 3 4 5 6 
#
# 1 115.0966 15.0336 30.2468 0.0000 0.0000 0.0000
# 2 15.0336 202.5975 66.5841 0.0000 0.0000 0.0000
# 3 30.2468 66.5841 178.6248 0.0000 0.0000 0.0000
# 4 0.0000 0.0000 0.0000 31.0455 0.0000 0.0000
# 5 0.0000 0.0000 0.0000 0.0000 24.5557 0.0000
# 6 0.0000 0.0000 0.0000 0.0000 0.0000 -344.6662
#
#
#
# Elastic Compliance Matrix: (Units=1/GPa)
#
#
# Indices 1 2 3 4 5 6 
#
# 1 0.009100 -0.000192 -0.001469 0.000000 0.000000 0.000000
# 2 -0.000192 0.005629 -0.002066 0.000000 0.000000 0.000000
# 3 -0.001469 -0.002066 0.006617 0.000000 0.000000 0.000000
# 4 0.000000 0.000000 0.000000 0.032211 0.000000 0.000000
# 5 0.000000 0.000000 0.000000 0.000000 0.040724 0.000000
# 6 0.000000 0.000000 0.000000 0.000000 0.000000 -0.002901
#
#
# Mechanical properties :
#
#
# Convention : Reuss Voigt Hill
#
# Bulk Modulus (GPa) = 71.98758 80.00531 75.99644
# Shear Modulus (GPa) = 48.32608 -32.18270 8.07169
#
# Velocity S-wave (km/s) = 4.46033 -3.63988 1.82288
# Velocity P-wave (km/s) = 7.49409 3.90782 5.97630
#
# Compressibility (1/GPa) = 0.01389129
#
# Stress axis : x y z
#
# Youngs Moduli (GPa) = 109.89536 177.64913 151.12341
#
# Poissons Ratio (x) = 0.03418 0.22202
# Poissons Ratio (y) = 0.02114 0.31218
# Poissons Ratio (z) = 0.16145 0.36697
#
# Static dielectric constant tensor:
#      x y z
#    x 2.085170 0.000000 0.000000 
#    y 0.000000 1.876750 0.000000 
#    z 0.000000 0.000000 1.881550 
# 
# From -- ./inp_files/25778.got.cif
#   From: 2010.05.17/outbox.cif.g08.bks.cpg/sg74_13_cif.got.tgz:25778.got - 2010.06.03 17:57:02.
