data_PCOD9538770
_publ_section_title
;
Structure prediction by ZEFSAII (Michael W. Deem and Ramdas Pophale) SiO2 
 PCOD9538770
Probable space group: I M M A
;
_chemical_formula_sum "Si O2"
_cell_formula_units_Z 88
_cell_length_a 18.313340
_cell_length_b 14.227226
_cell_length_c 15.628580
_cell_angle_alpha 90.000000
_cell_angle_beta 90.000000
_cell_angle_gamma 90.000000
_cell_volume 4071.995684
_symmetry_space_group_name_H-M "I M M A"
_symmetry_group_IT_number 74
_symmetry_cell_setting 'orthorhombic'
loop_
_space_group_symop_operation_xyz
x,y,z
-x,1/2-y,z
x,-y,-z
-x,1/2+y,-z
-x,-y,-z
x,1/2+y,-z
-x,y,z
x,1/2-y,z
1/2+x,1/2+y,1/2+z
1/2-x,-y,1/2+z
1/2+x,1/2-y,1/2-z
1/2-x,y,1/2-z
1/2-x,1/2-y,1/2-z
1/2+x,y,1/2-z
1/2-x,1/2+y,1/2+z
1/2+x,-y,1/2+z
loop_
_atom_site_type_symbol
_atom_site_label
_atom_site_fract_x
_atom_site_fract_y
_atom_site_fract_z
Si Si1 0.378009 0.500000 0.500000
Si Si2 0.107425 0.641285 0.868394
Si Si3 0.226663 0.140417 0.341506
Si Si4 0.136654 0.145127 0.692039
Si Si5 0.294727 0.354787 0.617686
Si Si6 0.919675 0.942571 0.677797
O O1 0.421681 0.428286 0.440058
O O2 0.329305 0.436421 0.562735
O O3 0.085345 0.750000 0.872360
O O4 0.195456 0.638872 0.886823
O O5 0.090371 0.601434 0.773578
O O6 0.207445 0.250000 0.327030
O O7 0.250000 0.095934 0.250000
O O8 0.152686 0.092409 0.372483
O O9 0.105586 0.250000 0.678209
O O10 0.208241 0.134767 0.632224
O O11 0.168252 0.142396 0.788665
O O12 0.086109 0.055119 0.681503
O O13 0.308439 0.250000 0.581772
O O14 0.000000 0.914217 0.646057
#
# Coordination Sequence:
#
# PCOD9538770 Si02
#       6
#     8  16  16  16  16  16
#     4  12  18  30  53  80 107 132 176 216 256 312
#     4  10  21  34  50  74 105 136 168 213 262 306
#     4   8  16  31  50  71  97 128 162 206 257 300
#     4   9  18  34  51  72 102 134 174 220 265 305
#     4   9  18  31  53  78 100 133 174 220 264 302
#     4  11  20  31  51  77 102 136 174 209 255 304
#
# _framework density 21.611025000000001
#
# number of rings (size 3 to 8) (size 9 to 14) (size 15 to 20)
#    0.000    2.364    1.818    4.364    5.091    1.818 
#    0.000    0.455    0.000    0.000    0.000   10.182 
#    0.000   23.273    0.000    0.000    0.000    0.000 
#
# Total GULP energy -245438.708522 kJ/mol
# GULP energy per Si atom -5578.152466 kJ/mol
# Density = 2.156184 g / cm^3
# Si number density = 21.611025 Si / 1000 Ang^3
#
#
#
# Elastic Constant Matrix: (Units=GPa)
#
#
# Indices 1 2 3 4 5 6 
#
# 1 140.7710 40.6742 0.6492 0.0000 0.0000 0.0000
# 2 40.6742 157.3723 21.5113 0.0000 0.0000 0.0000
# 3 0.6492 21.5113 21.0764 0.0000 0.0000 0.0000
# 4 0.0000 0.0000 0.0000 27.8849 0.0000 0.0000
# 5 0.0000 0.0000 0.0000 0.0000 -3.9991 0.0000
# 6 0.0000 0.0000 0.0000 0.0000 0.0000 -14.0855
#
#
#
# Elastic Compliance Matrix: (Units=1/GPa)
#
#
# Indices 1 2 3 4 5 6 
#
# 1 0.007756 -0.002292 0.002100 0.000000 0.000000 0.000000
# 2 -0.002292 0.008062 -0.008157 0.000000 0.000000 0.000000
# 3 0.002100 -0.008157 0.055708 0.000000 0.000000 0.000000
# 4 0.000000 0.000000 0.000000 0.035862 0.000000 0.000000
# 5 0.000000 0.000000 0.000000 0.000000 -0.250056 0.000000
# 6 0.000000 0.000000 0.000000 0.000000 0.000000 -0.070995
#
#
# Mechanical properties :
#
#
# Convention : Reuss Voigt Hill
#
# Bulk Modulus (GPa) = 18.23908 49.43212 33.83560
# Shear Modulus (GPa) = -27.98141 19.05241 -4.46450
#
# Velocity S-wave (km/s) = -3.60220 2.97241 -1.43886
# Velocity P-wave (km/s) = 2.97374 5.89097 3.59586
#
# Compressibility (1/GPa) = 0.05482732
#
# Stress axis : x y z
#
# Youngs Moduli (GPa) = 128.92877 124.04290 17.95088
#
# Poissons Ratio (x) = 0.28427 -0.03770
# Poissons Ratio (y) = 0.29547 0.14643
# Poissons Ratio (z) = -0.27077 1.01188
#
# Static dielectric constant tensor:
#      x y z
#    x 1.808450 0.000000 0.000000 
#    y 0.000000 1.819860 0.000000 
#    z 0.000000 0.000000 1.809200 
# 
# From -- ./inp_files/43948.got.cif
#   From: 2010.05.17/outbox.cif.g08.bks.cpg/sg74_22_cif.got.tgz:43948.got - 2010.06.03 17:57:02.
