data_PCOD9538348
_publ_section_title
;
Structure prediction by ZEFSAII (Michael W. Deem and Ramdas Pophale) SiO2 
 PCOD9538348
Probable space group: I M M A
;
_chemical_formula_sum "Si O2"
_cell_formula_units_Z 104
_cell_length_a 21.694531
_cell_length_b 25.875084
_cell_length_c 9.270227
_cell_angle_alpha 90.000000
_cell_angle_beta 90.000000
_cell_angle_gamma 90.000000
_cell_volume 5203.821643
_symmetry_space_group_name_H-M "I M M A"
_symmetry_group_IT_number 74
_symmetry_cell_setting 'orthorhombic'
loop_
_space_group_symop_operation_xyz
x,y,z
-x,1/2-y,z
x,-y,-z
-x,1/2+y,-z
-x,-y,-z
x,1/2+y,-z
-x,y,z
x,1/2-y,z
1/2+x,1/2+y,1/2+z
1/2-x,-y,1/2+z
1/2+x,1/2-y,1/2-z
1/2-x,y,1/2-z
1/2-x,1/2-y,1/2-z
1/2+x,y,1/2-z
1/2-x,1/2+y,1/2+z
1/2+x,-y,1/2+z
loop_
_atom_site_type_symbol
_atom_site_label
_atom_site_fract_x
_atom_site_fract_y
_atom_site_fract_z
Si Si1 0.429627 0.455001 0.616537
Si Si2 0.931120 0.467888 0.358206
Si Si3 0.141430 0.351189 0.956244
Si Si4 0.427212 0.306611 0.789511
Si Si5 0.822971 0.807936 0.734588
Si Si6 0.750000 0.621897 0.250000
Si Si7 0.851551 0.615690 0.478965
O O1 0.434053 0.500000 0.500000
O O2 0.500000 0.436207 0.647598
O O3 0.405607 0.488439 0.750760
O O4 0.386574 0.408808 0.563203
O O5 0.941811 0.500000 0.500000
O O6 0.884066 0.424567 0.412548
O O7 0.000000 0.449429 0.305778
O O8 0.093487 0.314025 0.875571
O O9 0.203280 0.347989 0.857230
O O10 0.152275 0.336597 0.121726
O O11 0.500000 0.307382 0.803349
O O12 0.404440 0.250000 0.840508
O O13 0.400139 0.355664 0.874537
O O14 0.849673 0.750000 0.726945
O O15 0.750000 0.803815 0.750000
O O16 0.831111 0.839479 0.587979
O O17 0.796821 0.596485 0.370061
#
# Coordination Sequence:
#
# PCOD9538348 Si02
#       7
#    16  16  16  16  16   8  16
#     4  10  21  38  61  89 117 153 199 243 299 369
#     4  10  20  36  62  91 118 155 201 246 301 363
#     4  11  21  40  61  86 121 158 199 259 305 367
#     4  10  21  37  59  89 121 157 202 251 311 374
#     4  11  23  40  61  87 121 163 209 254 306 369
#     4  10  22  36  57  86 116 156 208 244 301 370
#     4  11  21  39  61  87 126 161 205 262 308 367
#
# _framework density 19.985313000000001
#
# number of rings (size 3 to 8) (size 9 to 14) (size 15 to 20)
#    0.000    1.538    1.538    4.615    0.000    1.231 
#    0.000    6.923    1.692    5.538    0.000    0.000 
#    0.000    0.000    0.000    0.000    0.000    0.000 
#
# Total GULP energy -289519.604823 kJ/mol
# GULP energy per Si atom -5567.684708 kJ/mol
# Density = 1.993983 g / cm^3
# Si number density = 19.985313 Si / 1000 Ang^3
#
#
#
# Elastic Constant Matrix: (Units=GPa)
#
#
# Indices 1 2 3 4 5 6 
#
# 1 74.0163 42.9326 23.9194 0.0000 0.0000 0.0000
# 2 42.9326 105.8968 32.6243 0.0000 0.0000 0.0000
# 3 23.9194 32.6243 109.1373 0.0000 0.0000 0.0000
# 4 0.0000 0.0000 0.0000 98.8165 0.0000 0.0000
# 5 0.0000 0.0000 0.0000 0.0000 29.6959 0.0000
# 6 0.0000 0.0000 0.0000 0.0000 0.0000 24.7808
#
#
#
# Elastic Compliance Matrix: (Units=1/GPa)
#
#
# Indices 1 2 3 4 5 6 
#
# 1 0.018032 -0.006711 -0.001946 0.000000 0.000000 0.000000
# 2 -0.006711 0.012899 -0.002385 0.000000 0.000000 0.000000
# 3 -0.001946 -0.002385 0.010302 0.000000 0.000000 0.000000
# 4 0.000000 0.000000 0.000000 0.010120 0.000000 0.000000
# 5 0.000000 0.000000 0.000000 0.000000 0.033675 0.000000
# 6 0.000000 0.000000 0.000000 0.000000 0.000000 0.040354
#
#
# Mechanical properties :
#
#
# Convention : Reuss Voigt Hill
#
# Bulk Modulus (GPa) = 52.22176 54.22255 53.22216
# Shear Modulus (GPa) = 32.49959 43.29692 37.89826
#
# Velocity S-wave (km/s) = 4.03696 4.65955 4.35938
# Velocity P-wave (km/s) = 6.92215 7.49257 7.21300
#
# Compressibility (1/GPa) = 0.01914911
#
# Stress axis : x y z
#
# Youngs Moduli (GPa) = 55.45671 77.52720 97.06680
#
# Poissons Ratio (x) = 0.52029 0.18888
# Poissons Ratio (y) = 0.37217 0.23150
# Poissons Ratio (z) = 0.10791 0.18490
#
# Static dielectric constant tensor:
#      x y z
#    x 1.761080 0.000000 0.000000 
#    y 0.000000 1.736560 0.000000 
#    z 0.000000 0.000000 1.694620 
# 
# From -- ./inp_files/12761.got.cif
#   From: 2010.05.17/outbox.cif.g08.bks.cpg/sg74_7_cif.got.tgz:12761.got - 2010.06.03 17:57:02.
