data_PCOD9538934
_publ_section_title
;
Structure prediction by ZEFSAII (Michael W. Deem and Ramdas Pophale) SiO2 
 PCOD9538934
Probable space group: I M M A
;
_chemical_formula_sum "Si O2"
_cell_formula_units_Z 80
_cell_length_a 28.197350
_cell_length_b 14.523683
_cell_length_c 9.441239
_cell_angle_alpha 90.000000
_cell_angle_beta 90.000000
_cell_angle_gamma 90.000000
_cell_volume 3866.464687
_symmetry_space_group_name_H-M "I M M A"
_symmetry_group_IT_number 74
_symmetry_cell_setting 'orthorhombic'
loop_
_space_group_symop_operation_xyz
x,y,z
-x,1/2-y,z
x,-y,-z
-x,1/2+y,-z
-x,-y,-z
x,1/2+y,-z
-x,y,z
x,1/2-y,z
1/2+x,1/2+y,1/2+z
1/2-x,-y,1/2+z
1/2+x,1/2-y,1/2-z
1/2-x,y,1/2-z
1/2-x,1/2-y,1/2-z
1/2+x,y,1/2-z
1/2-x,1/2+y,1/2+z
1/2+x,-y,1/2+z
loop_
_atom_site_type_symbol
_atom_site_label
_atom_site_fract_x
_atom_site_fract_y
_atom_site_fract_z
Si Si1 0.552439 0.906273 0.907711
Si Si2 0.298604 0.858880 0.661762
Si Si3 0.611464 0.015086 0.331439
Si Si4 0.366778 0.854417 0.115328
Si Si5 0.738567 0.361603 0.905363
O O1 0.500000 0.863836 0.910386
O O2 0.568557 0.933035 0.749512
O O3 0.594427 0.855064 0.991009
O O4 0.549806 0.000000 0.000000
O O5 0.311665 0.750000 0.665961
O O6 0.250000 0.867473 0.750000
O O7 0.342454 0.922219 0.699039
O O8 0.280574 0.889139 0.507494
O O9 0.605394 0.000000 0.500000
O O10 0.618564 0.920400 0.244114
O O11 0.360967 0.750000 0.168147
O O12 0.315366 0.886104 0.056494
O O13 0.740009 0.250000 0.907152
O O14 0.750000 0.396306 0.750000
#
# Coordination Sequence:
#
# PCOD9538934 Si02
#       5
#    16  16  16  16  16
#     4   9  20  40  62  83 110 148 197 249 298 351
#     4  10  21  36  54  80 118 162 205 249 295 350
#     4  11  23  36  58  91 123 158 195 243 310 373
#     4  10  21  39  62  88 119 158 207 253 292 349
#     4   9  17  31  52  77 109 151 193 237 290 343
#
# _framework density 20.690736999999999
#
# number of rings (size 3 to 8) (size 9 to 14) (size 15 to 20)
#    0.000    2.200    0.000    2.400    0.000    8.000 
#    0.000    0.000    0.000    0.000    0.000    2.800 
#    0.000    0.000    0.000    0.000    0.000    0.000 
#
# Total GULP energy -223330.486404 kJ/mol
# GULP energy per Si atom -5583.262160 kJ/mol
# Density = 2.064364 g / cm^3
# Si number density = 20.690737 Si / 1000 Ang^3
#
#
#
# Elastic Constant Matrix: (Units=GPa)
#
#
# Indices 1 2 3 4 5 6 
#
# 1 129.7773 26.7133 32.3142 0.0000 0.0000 0.0000
# 2 26.7133 86.1653 31.8051 0.0000 0.0000 0.0000
# 3 32.3142 31.8051 107.6947 0.0000 0.0000 0.0000
# 4 0.0000 0.0000 0.0000 12.1724 0.0000 0.0000
# 5 0.0000 0.0000 0.0000 0.0000 21.3005 0.0000
# 6 0.0000 0.0000 0.0000 0.0000 0.0000 32.3387
#
#
#
# Elastic Compliance Matrix: (Units=1/GPa)
#
#
# Indices 1 2 3 4 5 6 
#
# 1 0.008603 -0.001924 -0.002013 0.000000 0.000000 0.000000
# 2 -0.001924 0.013456 -0.003397 0.000000 0.000000 0.000000
# 3 -0.002013 -0.003397 0.010893 0.000000 0.000000 0.000000
# 4 0.000000 0.000000 0.000000 0.082153 0.000000 0.000000
# 5 0.000000 0.000000 0.000000 0.000000 0.046947 0.000000
# 6 0.000000 0.000000 0.000000 0.000000 0.000000 0.030923
#
#
# Mechanical properties :
#
#
# Convention : Reuss Voigt Hill
#
# Bulk Modulus (GPa) = 54.69281 56.14474 55.41878
# Shear Modulus (GPa) = 23.39331 28.68264 26.03797
#
# Velocity S-wave (km/s) = 3.36611 3.72728 3.55129
# Velocity P-wave (km/s) = 6.44969 6.76148 6.60743
#
# Compressibility (1/GPa) = 0.01828394
#
# Stress axis : x y z
#
# Youngs Moduli (GPa) = 116.24121 74.31733 91.80517
#
# Poissons Ratio (x) = 0.14299 0.18481
# Poissons Ratio (y) = 0.22365 0.31182
# Poissons Ratio (z) = 0.23400 0.25242
#
# Static dielectric constant tensor:
#      x y z
#    x 1.732260 0.000000 0.000000 
#    y 0.000000 1.776610 0.000000 
#    z 0.000000 0.000000 2.225400 
# 
# From -- ./inp_files/14907.got.cif
#   From: 2010.05.17/outbox.cif.g08.bks.cpg/sg74_8_cif.got.tgz:14907.got - 2010.06.03 17:57:02.
