data_PCOD9538632
_publ_section_title
;
Structure prediction by ZEFSAII (Michael W. Deem and Ramdas Pophale) SiO2 
 PCOD9538632
Probable space group: I M M A
;
_chemical_formula_sum "Si O2"
_cell_formula_units_Z 108
_cell_length_a 25.032247
_cell_length_b 14.480612
_cell_length_c 16.550162
_cell_angle_alpha 90.000000
_cell_angle_beta 90.000000
_cell_angle_gamma 90.000000
_cell_volume 5999.140064
_symmetry_space_group_name_H-M "I M M A"
_symmetry_group_IT_number 74
_symmetry_cell_setting 'orthorhombic'
loop_
_space_group_symop_operation_xyz
x,y,z
-x,1/2-y,z
x,-y,-z
-x,1/2+y,-z
-x,-y,-z
x,1/2+y,-z
-x,y,z
x,1/2-y,z
1/2+x,1/2+y,1/2+z
1/2-x,-y,1/2+z
1/2+x,1/2-y,1/2-z
1/2-x,y,1/2-z
1/2-x,1/2-y,1/2-z
1/2+x,y,1/2-z
1/2-x,1/2+y,1/2+z
1/2+x,-y,1/2+z
loop_
_atom_site_type_symbol
_atom_site_label
_atom_site_fract_x
_atom_site_fract_y
_atom_site_fract_z
Si Si1 0.803449 0.140020 0.900867
Si Si2 0.063879 0.854993 0.885777
Si Si3 0.936086 0.533065 0.727181
Si Si4 0.377569 0.500000 0.500000
Si Si5 0.317428 0.641250 0.063469
Si Si6 0.367330 0.143541 0.759382
Si Si7 0.087254 0.087231 0.452223
Si Si8 0.000000 0.750000 0.531094
O O1 0.809932 0.250000 0.921417
O O2 0.743351 0.109863 0.923178
O O3 0.819866 0.133453 0.806242
O O4 0.842315 0.070705 0.947426
O O5 0.083548 0.750000 0.899467
O O6 0.074829 0.889840 0.794899
O O7 0.000000 0.853929 0.895939
O O8 0.087917 0.932265 0.943963
O O9 0.911446 0.435112 0.754521
O O10 0.911251 0.564278 0.642349
O O11 0.000000 0.525172 0.717173
O O12 0.313756 0.750000 0.048584
O O13 0.346754 0.629577 0.149557
O O14 0.354511 0.603241 0.992147
O O15 0.387007 0.250000 0.752308
O O16 0.047168 0.170753 0.466701
O O17 0.064762 0.000000 0.500000
#
# Coordination Sequence:
#
# PCOD9538632 Si02
#       8
#    16  16  16   8  16  16  16   4
#     4  10  22  38  61  88 120 154 201 256 307 365
#     4  10  23  41  63  88 120 158 199 249 308 382
#     4  11  23  38  59  88 123 163 208 248 305 381
#     4  12  21  38  66  92 114 151 194 256 314 372
#     4  10  21  39  60  88 120 161 207 251 301 361
#     4  10  20  39  59  85 119 160 202 250 307 360
#     4  12  24  39  60  90 127 163 216 254 306 370
#     4  12  26  40  60  90 122 180 208 262 310 374
#
# _framework density 18.002579999999998
#
# number of rings (size 3 to 8) (size 9 to 14) (size 15 to 20)
#    0.000    1.333    4.444    1.333    2.074    2.074 
#    0.000    0.000    0.000    0.000    0.000    4.148 
#    0.000    0.000    0.000    0.000    0.000    0.000 
#
# Total GULP energy -300653.942040 kJ/mol
# GULP energy per Si atom -5567.665593 kJ/mol
# Density = 1.796161 g / cm^3
# Si number density = 18.002580 Si / 1000 Ang^3
#
#
#
# Elastic Constant Matrix: (Units=GPa)
#
#
# Indices 1 2 3 4 5 6 
#
# 1 80.9876 57.0130 56.9437 0.0000 0.0000 0.0000
# 2 57.0130 137.3168 50.0366 0.0000 0.0000 0.0000
# 3 56.9437 50.0366 97.5506 0.0000 0.0000 0.0000
# 4 0.0000 0.0000 0.0000 13.0378 0.0000 0.0000
# 5 0.0000 0.0000 0.0000 0.0000 17.2794 0.0000
# 6 0.0000 0.0000 0.0000 0.0000 0.0000 140.8410
#
#
#
# Elastic Compliance Matrix: (Units=1/GPa)
#
#
# Indices 1 2 3 4 5 6 
#
# 1 0.024496 -0.006100 -0.011170 0.000000 0.000000 0.000000
# 2 -0.006100 0.010476 -0.001812 0.000000 0.000000 0.000000
# 3 -0.011170 -0.001812 0.017701 0.000000 0.000000 0.000000
# 4 0.000000 0.000000 0.000000 0.076700 0.000000 0.000000
# 5 0.000000 0.000000 0.000000 0.000000 0.057872 0.000000
# 6 0.000000 0.000000 0.000000 0.000000 0.000000 0.007100
#
#
# Mechanical properties :
#
#
# Convention : Reuss Voigt Hill
#
# Bulk Modulus (GPa) = 68.93132 71.53794 70.23463
# Shear Modulus (GPa) = 21.06628 44.35576 32.71102
#
# Velocity S-wave (km/s) = 3.42450 4.96911 4.26727
# Velocity P-wave (km/s) = 7.34909 8.52916 7.96102
#
# Compressibility (1/GPa) = 0.01450719
#
# Stress axis : x y z
#
# Youngs Moduli (GPa) = 40.82326 95.45992 56.49381
#
# Poissons Ratio (x) = 0.58233 0.63104
# Poissons Ratio (y) = 0.24903 0.10238
# Poissons Ratio (z) = 0.45600 0.17300
#
# Static dielectric constant tensor:
#      x y z
#    x 1.612260 0.000000 0.000000 
#    y 0.000000 1.617350 0.000000 
#    z 0.000000 0.000000 1.617650 
# 
# From -- ./inp_files/37434.got.cif
#   From: 2010.05.17/outbox.cif.g08.bks.cpg/sg74_19_cif.got.tgz:37434.got - 2010.06.03 17:57:02.
