data_PCOD9538950
_publ_section_title
;
Structure prediction by ZEFSAII (Michael W. Deem and Ramdas Pophale) SiO2 
 PCOD9538950
Probable space group: I M M A
;
_chemical_formula_sum "Si O2"
_cell_formula_units_Z 104
_cell_length_a 17.801809
_cell_length_b 9.583695
_cell_length_c 28.806500
_cell_angle_alpha 90.000000
_cell_angle_beta 90.000000
_cell_angle_gamma 90.000000
_cell_volume 4914.593654
_symmetry_space_group_name_H-M "I M M A"
_symmetry_group_IT_number 74
_symmetry_cell_setting 'orthorhombic'
loop_
_space_group_symop_operation_xyz
x,y,z
-x,1/2-y,z
x,-y,-z
-x,1/2+y,-z
-x,-y,-z
x,1/2+y,-z
-x,y,z
x,1/2-y,z
1/2+x,1/2+y,1/2+z
1/2-x,-y,1/2+z
1/2+x,1/2-y,1/2-z
1/2-x,y,1/2-z
1/2-x,1/2-y,1/2-z
1/2+x,y,1/2-z
1/2-x,1/2+y,1/2+z
1/2+x,-y,1/2+z
loop_
_atom_site_type_symbol
_atom_site_label
_atom_site_fract_x
_atom_site_fract_y
_atom_site_fract_z
Si Si1 0.410690 0.598909 0.703159
Si Si2 0.387205 0.595853 0.539985
Si Si3 0.184203 0.411704 0.288849
Si Si4 0.148212 0.082274 0.617707
Si Si5 0.500000 0.417797 0.948762
Si Si6 0.409825 0.597022 0.373176
Si Si7 0.288589 0.093343 0.040796
O O1 0.500000 0.599044 0.697904
O O2 0.382428 0.750000 0.685595
O O3 0.388967 0.588409 0.756288
O O4 0.379259 0.470488 0.673932
O O5 0.419823 0.500000 0.500000
O O6 0.418908 0.750000 0.541940
O O7 0.396190 0.514451 0.587377
O O8 0.298891 0.610740 0.529864
O O9 0.198071 0.250000 0.304452
O O10 0.250000 0.444646 0.250000
O O11 0.163671 0.512736 0.331729
O O12 0.156250 0.250000 0.620145
O O13 0.071592 0.054616 0.586560
O O14 0.207889 0.000935 0.586180
O O15 0.500000 0.250000 0.958914
O O16 0.500000 0.500000 0.000000
O O17 0.500000 0.610203 0.369067
O O18 0.378579 0.750000 0.383529
O O19 0.321237 0.250000 0.045226
O O20 0.323900 0.000000 0.000000
#
# Coordination Sequence:
#
# PCOD9538950 Si02
#       7
#    16  16  16  16   8  16  16
#     4   9  19  37  60  83 112 154 201 247 300 365
#     4  10  21  36  56  81 112 149 189 237 292 351
#     4  10  23  41  61  90 126 162 207 261 316 376
#     4  11  24  41  63  92 127 165 207 255 313 376
#     4  10  24  44  66  98 136 174 216 266 321 390
#     4  10  21  36  55  81 111 147 191 238 292 350
#     4  10  21  38  60  87 118 153 196 244 298 361
#
# _framework density 21.161463999999999
#
# number of rings (size 3 to 8) (size 9 to 14) (size 15 to 20)
#    0.000    2.000    0.000    2.308    3.231    6.462 
#    0.000    0.000    0.000    0.000    0.000    0.000 
#    0.000    0.000    0.000    0.000    0.000    0.000 
#
# Total GULP energy -289587.388859 kJ/mol
# GULP energy per Si atom -5568.988247 kJ/mol
# Density = 2.111330 g / cm^3
# Si number density = 21.161464 Si / 1000 Ang^3
#
#
#
# Elastic Constant Matrix: (Units=GPa)
#
#
# Indices 1 2 3 4 5 6 
#
# 1 55.4911 32.1645 15.1433 0.0000 0.0000 0.0000
# 2 32.1645 205.7912 101.9943 0.0000 0.0000 0.0000
# 3 15.1433 101.9943 134.6231 0.0000 0.0000 0.0000
# 4 0.0000 0.0000 0.0000 46.1527 0.0000 0.0000
# 5 0.0000 0.0000 0.0000 0.0000 30.5106 0.0000
# 6 0.0000 0.0000 0.0000 0.0000 0.0000 19.4321
#
#
#
# Elastic Compliance Matrix: (Units=1/GPa)
#
#
# Indices 1 2 3 4 5 6 
#
# 1 0.019819 -0.003191 0.000188 0.000000 0.000000 0.000000
# 2 -0.003191 0.008295 -0.005925 0.000000 0.000000 0.000000
# 3 0.000188 -0.005925 0.011896 0.000000 0.000000 0.000000
# 4 0.000000 0.000000 0.000000 0.021667 0.000000 0.000000
# 5 0.000000 0.000000 0.000000 0.000000 0.032775 0.000000
# 6 0.000000 0.000000 0.000000 0.000000 0.000000 0.051461
#
#
# Mechanical properties :
#
#
# Convention : Reuss Voigt Hill
#
# Bulk Modulus (GPa) = 45.13903 77.16773 61.15338
# Shear Modulus (GPa) = 29.21327 35.65931 32.43629
#
# Velocity S-wave (km/s) = 3.71953 4.10946 3.91935
# Velocity P-wave (km/s) = 6.31060 7.68519 7.03156
#
# Compressibility (1/GPa) = 0.02215378
#
# Stress axis : x y z
#
# Youngs Moduli (GPa) = 50.45627 120.55765 84.06007
#
# Poissons Ratio (x) = 0.38469 -0.01582
# Poissons Ratio (y) = 0.16100 0.49809
# Poissons Ratio (z) = -0.00949 0.71436
#
# Static dielectric constant tensor:
#      x y z
#    x 1.871670 0.000000 0.000000 
#    y 0.000000 1.813310 0.000000 
#    z 0.000000 0.000000 1.800410 
# 
# From -- ./inp_files/68246.got.cif
#   From: 2010.05.17/outbox.cif.g08.bks.cpg/sg74_35_cif.got.tgz:68246.got - 2010.06.03 17:57:02.
