data_PCOD9538074
_publ_section_title
;
Structure prediction by ZEFSAII (Michael W. Deem and Ramdas Pophale) SiO2 
 PCOD9538074
Probable space group: I M M A
;
_chemical_formula_sum "Si O2"
_cell_formula_units_Z 56
_cell_length_a 20.924355
_cell_length_b 24.288331
_cell_length_c 5.017824
_cell_angle_alpha 90.000000
_cell_angle_beta 90.000000
_cell_angle_gamma 90.000000
_cell_volume 2550.146773
_symmetry_space_group_name_H-M "I M M A"
_symmetry_group_IT_number 74
_symmetry_cell_setting 'orthorhombic'
loop_
_space_group_symop_operation_xyz
x,y,z
-x,1/2-y,z
x,-y,-z
-x,1/2+y,-z
-x,-y,-z
x,1/2+y,-z
-x,y,z
x,1/2-y,z
1/2+x,1/2+y,1/2+z
1/2-x,-y,1/2+z
1/2+x,1/2-y,1/2-z
1/2-x,y,1/2-z
1/2-x,1/2-y,1/2-z
1/2+x,y,1/2-z
1/2-x,1/2+y,1/2+z
1/2+x,-y,1/2+z
loop_
_atom_site_type_symbol
_atom_site_label
_atom_site_fract_x
_atom_site_fract_y
_atom_site_fract_z
Si Si1 0.180290 0.250000 0.072541
Si Si2 0.883947 0.626872 0.499371
Si Si3 0.574245 0.062790 0.498586
Si Si4 0.103542 0.250000 0.577084
Si Si5 0.250000 0.657450 0.250000
O O1 0.115956 0.250000 0.893248
O O2 0.216042 0.303613 0.968258
O O3 0.165961 0.250000 0.382802
O O4 0.919472 0.587787 0.291314
O O5 0.917486 0.687660 0.488457
O O6 0.810274 0.628991 0.394698
O O7 0.888622 0.601481 0.791692
O O8 0.500000 0.062203 0.415651
O O9 0.597944 0.000000 0.500000
#
# Coordination Sequence:
#
# PCOD9538074 Si02
#       5
#     8  16  16   8   8
#     4   9  18  32  54  85 130 175 200 222 273 390
#     4  11  22  39  66  96 127 160 200 260 314 369
#     4  11  25  46  67  85 114 169 229 262 293 359
#     4  10  20  35  59  95 128 159 197 241 311 376
#     4   9  20  34  60  96 130 162 200 243 314 380
#
# _framework density 21.959517999999999
#
# number of rings (size 3 to 8) (size 9 to 14) (size 15 to 20)
#    0.000    1.714    0.000    6.000    0.000   17.143 
#    0.000    7.143    0.000    0.000    0.000    0.000 
#    0.000    0.000    0.000    0.000    0.000    0.000 
#
# Total GULP energy -156215.765493 kJ/mol
# GULP energy per Si atom -5579.134482 kJ/mol
# Density = 2.190954 g / cm^3
# Si number density = 21.959518 Si / 1000 Ang^3
#
#
#
# Elastic Constant Matrix: (Units=GPa)
#
#
# Indices 1 2 3 4 5 6 
#
# 1 54.1729 -1.0951 -10.4280 0.0000 0.0000 0.0000
# 2 -1.0951 127.9548 0.2162 0.0000 0.0000 0.0000
# 3 -10.4280 0.2162 60.3367 0.0000 0.0000 0.0000
# 4 0.0000 0.0000 0.0000 13.5997 0.0000 0.0000
# 5 0.0000 0.0000 0.0000 0.0000 25.5267 0.0000
# 6 0.0000 0.0000 0.0000 0.0000 0.0000 19.8749
#
#
#
# Elastic Compliance Matrix: (Units=1/GPa)
#
#
# Indices 1 2 3 4 5 6 
#
# 1 0.019098 0.000158 0.003300 0.000000 0.000000 0.000000
# 2 0.000158 0.007817 -0.000001 0.000000 0.000000 0.000000
# 3 0.003300 -0.000001 0.017144 0.000000 0.000000 0.000000
# 4 0.000000 0.000000 0.000000 0.073531 0.000000 0.000000
# 5 0.000000 0.000000 0.000000 0.000000 0.039175 0.000000
# 6 0.000000 0.000000 0.000000 0.000000 0.000000 0.050315
#
#
# Mechanical properties :
#
#
# Convention : Reuss Voigt Hill
#
# Bulk Modulus (GPa) = 19.61821 24.42783 22.02302
# Shear Modulus (GPa) = 23.02500 28.71836 25.87168
#
# Velocity S-wave (km/s) = 3.24160 3.62026 3.43615
# Velocity P-wave (km/s) = 4.79206 5.35006 5.07873
#
# Compressibility (1/GPa) = 0.05097305
#
# Stress axis : x y z
#
# Youngs Moduli (GPa) = 52.36191 127.93263 58.32939
#
# Poissons Ratio (x) = -0.02020 -0.19249
# Poissons Ratio (y) = -0.00827 0.00004
# Poissons Ratio (z) = -0.17280 0.00009
#
# Static dielectric constant tensor:
#      x y z
#    x 1.867670 0.000000 0.000000 
#    y 0.000000 1.827850 0.000000 
#    z 0.000000 0.000000 1.765600 
# 
# From -- ./inp_files/2876.got.cif
#   From: 2010.05.17/outbox.cif.g08.bks.cpg/sg74_2_cif.got.tgz:2876.got - 2010.06.03 17:57:02.
