data_PCOD9538552
_publ_section_title
;
Structure prediction by ZEFSAII (Michael W. Deem and Ramdas Pophale) SiO2 
 PCOD9538552
Probable space group: I M M A
;
_chemical_formula_sum "Si O2"
_cell_formula_units_Z 60
_cell_length_a 7.341206
_cell_length_b 15.437954
_cell_length_c 21.376367
_cell_angle_alpha 90.000000
_cell_angle_beta 90.000000
_cell_angle_gamma 90.000000
_cell_volume 2422.652088
_symmetry_space_group_name_H-M "I M M A"
_symmetry_group_IT_number 74
_symmetry_cell_setting 'orthorhombic'
loop_
_space_group_symop_operation_xyz
x,y,z
-x,1/2-y,z
x,-y,-z
-x,1/2+y,-z
-x,-y,-z
x,1/2+y,-z
-x,y,z
x,1/2-y,z
1/2+x,1/2+y,1/2+z
1/2-x,-y,1/2+z
1/2+x,1/2-y,1/2-z
1/2-x,y,1/2-z
1/2-x,1/2-y,1/2-z
1/2+x,y,1/2-z
1/2-x,1/2+y,1/2+z
1/2+x,-y,1/2+z
loop_
_atom_site_type_symbol
_atom_site_label
_atom_site_fract_x
_atom_site_fract_y
_atom_site_fract_z
Si Si1 0.292053 0.930805 0.885676
Si Si2 0.220343 0.151897 0.507714
Si Si3 0.214220 0.250000 0.176608
Si Si4 0.500000 0.250000 0.697585
Si Si5 0.217759 0.109200 0.653019
O O1 0.500000 0.959089 0.897532
O O2 0.210428 0.912743 0.954212
O O3 0.290080 0.837983 0.852771
O O4 0.224360 0.008434 0.842117
O O5 0.284272 0.250000 0.495440
O O6 0.256270 0.128901 0.579281
O O7 0.000000 0.153116 0.501788
O O8 0.250000 0.250000 0.250000
O O9 0.000000 0.250000 0.164547
O O10 0.341627 0.174522 0.690401
O O11 0.000000 0.123420 0.664901
#
# Coordination Sequence:
#
# PCOD9538552 Si02
#       5
#    16  16   8   4  16
#     4  10  20  38  62  85 116 160 204 250 311 368
#     4   9  15  30  54  79 116 165 204 240 295 361
#     4  12  26  43  64  90 125 154 200 257 315 375
#     4  12  22  34  54  80 124 160 210 252 296 342
#     4  10  21  36  56  84 123 168 213 248 298 363
#
# _framework density 24.766245000000001
#
# number of rings (size 3 to 8) (size 9 to 14) (size 15 to 20)
#    0.000    1.867    2.667    2.400    1.867    3.200 
#    4.800    1.333    0.000    0.000    0.000    0.933 
#    0.000    0.000    0.000    0.000    0.000    0.000 
#
# Total GULP energy -167296.199047 kJ/mol
# GULP energy per Si atom -5576.539968 kJ/mol
# Density = 2.470988 g / cm^3
# Si number density = 24.766245 Si / 1000 Ang^3
#
#
#
# Elastic Constant Matrix: (Units=GPa)
#
#
# Indices 1 2 3 4 5 6 
#
# 1 137.6731 40.2634 21.3106 0.0000 0.0000 0.0000
# 2 40.2634 201.5013 29.7732 0.0000 0.0000 0.0000
# 3 21.3106 29.7732 99.5349 0.0000 0.0000 0.0000
# 4 0.0000 0.0000 0.0000 62.0056 0.0000 0.0000
# 5 0.0000 0.0000 0.0000 0.0000 -8.0394 0.0000
# 6 0.0000 0.0000 0.0000 0.0000 0.0000 77.3523
#
#
#
# Elastic Compliance Matrix: (Units=1/GPa)
#
#
# Indices 1 2 3 4 5 6 
#
# 1 0.007865 -0.001384 -0.001270 0.000000 0.000000 0.000000
# 2 -0.001384 0.005436 -0.001330 0.000000 0.000000 0.000000
# 3 -0.001270 -0.001330 0.010716 0.000000 0.000000 0.000000
# 4 0.000000 0.000000 0.000000 0.016128 0.000000 0.000000
# 5 0.000000 0.000000 0.000000 0.000000 -0.124387 0.000000
# 6 0.000000 0.000000 0.000000 0.000000 0.000000 0.012928
#
#
# Mechanical properties :
#
#
# Convention : Reuss Voigt Hill
#
# Bulk Modulus (GPa) = 62.30529 69.04486 65.67507
# Shear Modulus (GPa) = -86.20986 49.42117 -18.39434
#
# Velocity S-wave (km/s) = -5.90635 4.47195 -2.72824
# Velocity P-wave (km/s) = 4.61534 7.38943 4.08058
#
# Compressibility (1/GPa) = 0.01605000
#
# Stress axis : x y z
#
# Youngs Moduli (GPa) = 127.14741 183.96766 93.31536
#
# Poissons Ratio (x) = 0.25459 0.11850
# Poissons Ratio (y) = 0.17596 0.12408
# Poissons Ratio (z) = 0.16147 0.24461
#
# Static dielectric constant tensor:
#      x y z
#    x 2.010100 0.000000 0.000000 
#    y 0.000000 1.994260 0.000000 
#    z 0.000000 0.000000 1.962510 
# 
# From -- ./inp_files/56323.got.cif
#   From: 2010.05.17/outbox.cif.g08.bks.cpg/sg74_29_cif.got.tgz:56323.got - 2010.06.03 17:57:02.
