data_PCOD9538948
_publ_section_title
;
Structure prediction by ZEFSAII (Michael W. Deem and Ramdas Pophale) SiO2 
 PCOD9538948
Probable space group: I M M A
;
_chemical_formula_sum "Si O2"
_cell_formula_units_Z 112
_cell_length_a 14.431155
_cell_length_b 13.885955
_cell_length_c 27.112939
_cell_angle_alpha 90.000000
_cell_angle_beta 90.000000
_cell_angle_gamma 90.000000
_cell_volume 5433.171849
_symmetry_space_group_name_H-M "I M M A"
_symmetry_group_IT_number 74
_symmetry_cell_setting 'orthorhombic'
loop_
_space_group_symop_operation_xyz
x,y,z
-x,1/2-y,z
x,-y,-z
-x,1/2+y,-z
-x,-y,-z
x,1/2+y,-z
-x,y,z
x,1/2-y,z
1/2+x,1/2+y,1/2+z
1/2-x,-y,1/2+z
1/2+x,1/2-y,1/2-z
1/2-x,y,1/2-z
1/2-x,1/2-y,1/2-z
1/2+x,y,1/2-z
1/2-x,1/2+y,1/2+z
1/2+x,-y,1/2+z
loop_
_atom_site_type_symbol
_atom_site_label
_atom_site_fract_x
_atom_site_fract_y
_atom_site_fract_z
Si Si1 0.390045 0.492515 0.778066
Si Si2 0.206716 0.867367 0.471709
Si Si3 0.725167 0.636229 0.831799
Si Si4 0.895137 0.365490 0.927925
Si Si5 0.608377 0.006470 0.667523
Si Si6 0.894833 0.866769 0.570707
Si Si7 0.111340 0.861943 0.370234
O O1 0.500000 0.510624 0.783644
O O2 0.332400 0.589285 0.787088
O O3 0.374957 0.454143 0.722894
O O4 0.360729 0.420780 0.821772
O O5 0.201486 0.750000 0.472457
O O6 0.314357 0.893368 0.465728
O O7 0.158045 0.900173 0.521714
O O8 0.155216 0.897375 0.421403
O O9 0.735822 0.750000 0.826581
O O10 0.822343 0.582424 0.838370
O O11 0.662635 0.614532 0.880032
O O12 0.890910 0.250000 0.921361
O O13 0.876015 0.416825 0.875747
O O14 0.000000 0.390243 0.943475
O O15 0.500000 0.977885 0.665126
O O16 0.900684 0.750000 0.567370
O O17 0.000000 0.904097 0.573540
O O18 0.137468 0.750000 0.364116
O O19 0.000000 0.866506 0.374463
#
# Coordination Sequence:
#
# PCOD9538948 Si02
#       7
#    16  16  16  16  16  16  16
#     4  10  21  36  55  81 111 142 180 226 273 323
#     4   9  16  29  52  81 112 145 178 214 260 315
#     4  11  23  39  58  78 104 141 184 232 283 328
#     4   9  18  34  57  83 111 145 182 217 258 314
#     4  10  22  39  57  79 109 143 181 227 273 319
#     4   9  18  34  57  83 109 139 177 221 270 323
#     4   9  17  30  51  81 116 149 177 210 260 324
#
# _framework density 20.614108999999999
#
# number of rings (size 3 to 8) (size 9 to 14) (size 15 to 20)
#    0.000    2.429    0.000    2.143    0.000    4.571 
#    0.000    7.857    0.000   13.714    0.000    0.000 
#    0.000    0.000    0.000    0.000    0.000    0.000 
#
# Total GULP energy -312940.869831 kJ/mol
# GULP energy per Si atom -5588.229818 kJ/mol
# Density = 2.056719 g / cm^3
# Si number density = 20.614109 Si / 1000 Ang^3
#
#
#
# Elastic Constant Matrix: (Units=GPa)
#
#
# Indices 1 2 3 4 5 6 
#
# 1 88.9332 19.3953 53.9900 0.0000 0.0000 0.0000
# 2 19.3953 61.0205 15.5155 0.0000 0.0000 0.0000
# 3 53.9900 15.5155 86.3063 0.0000 0.0000 0.0000
# 4 0.0000 0.0000 0.0000 25.6610 0.0000 0.0000
# 5 0.0000 0.0000 0.0000 0.0000 28.8217 0.0000
# 6 0.0000 0.0000 0.0000 0.0000 0.0000 25.7868
#
#
#
# Elastic Compliance Matrix: (Units=1/GPa)
#
#
# Indices 1 2 3 4 5 6 
#
# 1 0.018675 -0.003107 -0.011124 0.000000 0.000000 0.000000
# 2 -0.003107 0.017690 -0.001236 0.000000 0.000000 0.000000
# 3 -0.011124 -0.001236 0.018768 0.000000 0.000000 0.000000
# 4 0.000000 0.000000 0.000000 0.038970 0.000000 0.000000
# 5 0.000000 0.000000 0.000000 0.000000 0.034696 0.000000
# 6 0.000000 0.000000 0.000000 0.000000 0.000000 0.038780
#
#
# Mechanical properties :
#
#
# Convention : Reuss Voigt Hill
#
# Bulk Modulus (GPa) = 41.32647 46.00685 43.66666
# Shear Modulus (GPa) = 24.20377 25.87783 25.04080
#
# Velocity S-wave (km/s) = 3.43028 3.54693 3.48909
# Velocity P-wave (km/s) = 5.98167 6.25627 6.12051
#
# Compressibility (1/GPa) = 0.02419757
#
# Stress axis : x y z
#
# Youngs Moduli (GPa) = 53.54673 56.52916 53.28329
#
# Poissons Ratio (x) = 0.17566 0.59272
# Poissons Ratio (y) = 0.16640 0.06587
# Poissons Ratio (z) = 0.59565 0.06988
#
# Static dielectric constant tensor:
#      x y z
#    x 1.739800 0.000000 0.000000 
#    y 0.000000 1.744000 0.000000 
#    z 0.000000 0.000000 1.715130 
# 
# From -- ./inp_files/60195.got.cif
#   From: 2010.05.17/outbox.cif.g08.bks.cpg/sg74_31_cif.got.tgz:60195.got - 2010.06.03 17:57:02.
