data_PCOD9538237
_publ_section_title
;
Structure prediction by ZEFSAII (Michael W. Deem and Ramdas Pophale) SiO2 
 PCOD9538237
Probable space group: I M M A
;
_chemical_formula_sum "Si O2"
_cell_formula_units_Z 52
_cell_length_a 24.337319
_cell_length_b 9.495449
_cell_length_c 10.653519
_cell_angle_alpha 90.000000
_cell_angle_beta 90.000000
_cell_angle_gamma 90.000000
_cell_volume 2461.961884
_symmetry_space_group_name_H-M "I M M A"
_symmetry_group_IT_number 74
_symmetry_cell_setting 'orthorhombic'
loop_
_space_group_symop_operation_xyz
x,y,z
-x,1/2-y,z
x,-y,-z
-x,1/2+y,-z
-x,-y,-z
x,1/2+y,-z
-x,y,z
x,1/2-y,z
1/2+x,1/2+y,1/2+z
1/2-x,-y,1/2+z
1/2+x,1/2-y,1/2-z
1/2-x,y,1/2-z
1/2-x,1/2-y,1/2-z
1/2+x,y,1/2-z
1/2-x,1/2+y,1/2+z
1/2+x,-y,1/2+z
loop_
_atom_site_type_symbol
_atom_site_label
_atom_site_fract_x
_atom_site_fract_y
_atom_site_fract_z
Si Si1 0.500000 0.413986 0.373256
Si Si2 0.411825 0.500000 0.000000
Si Si3 0.216157 0.916879 0.120935
Si Si4 0.619284 0.915680 0.736200
Si Si5 0.000000 0.750000 0.458203
O O1 0.500000 0.250000 0.406169
O O2 0.500000 0.500000 0.500000
O O3 0.444894 0.440476 0.295434
O O4 0.375365 0.455172 0.118556
O O5 0.451697 0.628354 0.035745
O O6 0.212394 0.750000 0.095596
O O7 0.250000 0.936583 0.250000
O O8 0.157137 0.986508 0.151213
O O9 0.238687 0.000000 0.000000
O O10 0.631194 0.750000 0.715616
#
# Coordination Sequence:
#
# PCOD9538237 Si02
#       5
#     8   8  16  16   4
#     4  10  22  40  59  90 130 171 217 268 335 406
#     4  11  22  38  62  98 140 186 232 283 340 408
#     4  11  27  50  76 105 139 180 236 292 352 419
#     4  11  24  42  67  97 139 183 228 282 347 413
#     4  10  20  36  58  90 146 190 236 274 340 406
#
# _framework density 21.121368
#
# number of rings (size 3 to 8) (size 9 to 14) (size 15 to 20)
#    0.000    1.231    1.538    3.692    6.462    6.154 
#    2.769    0.000    0.000    0.000    0.000    0.000 
#    0.000    0.000    0.000    0.000    0.000    0.000 
#
# Total GULP energy -144873.668849 kJ/mol
# GULP energy per Si atom -5572.064186 kJ/mol
# Density = 2.107329 g / cm^3
# Si number density = 21.121368 Si / 1000 Ang^3
#
#
#
# Elastic Constant Matrix: (Units=GPa)
#
#
# Indices 1 2 3 4 5 6 
#
# 1 71.0437 57.2939 28.1554 0.0000 0.0000 0.0000
# 2 57.2939 164.7542 69.7438 0.0000 0.0000 0.0000
# 3 28.1554 69.7438 140.0030 0.0000 0.0000 0.0000
# 4 0.0000 0.0000 0.0000 9.2545 0.0000 0.0000
# 5 0.0000 0.0000 0.0000 0.0000 5.4199 0.0000
# 6 0.0000 0.0000 0.0000 0.0000 0.0000 19.2414
#
#
#
# Elastic Compliance Matrix: (Units=1/GPa)
#
#
# Indices 1 2 3 4 5 6 
#
# 1 0.019615 -0.006528 -0.000693 0.000000 0.000000 0.000000
# 2 -0.006528 0.009864 -0.003601 0.000000 0.000000 0.000000
# 3 -0.000693 -0.003601 0.009076 0.000000 0.000000 0.000000
# 4 0.000000 0.000000 0.000000 0.108055 0.000000 0.000000
# 5 0.000000 0.000000 0.000000 0.000000 0.184506 0.000000
# 6 0.000000 0.000000 0.000000 0.000000 0.000000 0.051971
#
#
# Mechanical properties :
#
#
# Convention : Reuss Voigt Hill
#
# Bulk Modulus (GPa) = 59.13139 76.24299 67.68719
# Shear Modulus (GPa) = 12.18418 21.49034 16.83726
#
# Velocity S-wave (km/s) = 2.40441 3.19324 2.82648
# Velocity P-wave (km/s) = 5.98039 7.05490 6.53975
#
# Compressibility (1/GPa) = 0.01691149
#
# Stress axis : x y z
#
# Youngs Moduli (GPa) = 50.98171 101.37679 110.18117
#
# Poissons Ratio (x) = 0.66178 0.07632
# Poissons Ratio (y) = 0.33280 0.39678
# Poissons Ratio (z) = 0.03532 0.36507
#
# Static dielectric constant tensor:
#      x y z
#    x 1.783350 0.000000 0.000000 
#    y 0.000000 1.717610 0.000000 
#    z 0.000000 0.000000 1.786440 
# 
# From -- ./inp_files/25805.got.cif
#   From: 2010.05.17/outbox.cif.g08.bks.cpg/sg74_13_cif.got.tgz:25805.got - 2010.06.03 17:57:02.
