data_PCOD9538498
_publ_section_title
;
Structure prediction by ZEFSAII (Michael W. Deem and Ramdas Pophale) SiO2 
 PCOD9538498
Probable space group: I M M A
;
_chemical_formula_sum "Si O2"
_cell_formula_units_Z 68
_cell_length_a 9.392435
_cell_length_b 16.179298
_cell_length_c 24.807680
_cell_angle_alpha 90.000000
_cell_angle_beta 90.000000
_cell_angle_gamma 90.000000
_cell_volume 3769.849595
_symmetry_space_group_name_H-M "I M M A"
_symmetry_group_IT_number 74
_symmetry_cell_setting 'orthorhombic'
loop_
_space_group_symop_operation_xyz
x,y,z
-x,1/2-y,z
x,-y,-z
-x,1/2+y,-z
-x,-y,-z
x,1/2+y,-z
-x,y,z
x,1/2-y,z
1/2+x,1/2+y,1/2+z
1/2-x,-y,1/2+z
1/2+x,1/2-y,1/2-z
1/2-x,y,1/2-z
1/2-x,1/2-y,1/2-z
1/2+x,y,1/2-z
1/2-x,1/2+y,1/2+z
1/2+x,-y,1/2+z
loop_
_atom_site_type_symbol
_atom_site_label
_atom_site_fract_x
_atom_site_fract_y
_atom_site_fract_z
Si Si1 0.000000 0.071837 0.336812
Si Si2 0.255652 0.955708 0.142645
Si Si3 0.000000 0.977593 0.222410
Si Si4 0.833454 0.911380 0.024541
Si Si5 0.161671 0.250000 0.486527
Si Si6 0.500000 0.846846 0.193678
Si Si7 0.500000 0.750000 0.879734
O O1 0.000000 0.168829 0.343705
O O2 0.137612 0.032452 0.365634
O O3 0.000000 0.037207 0.275039
O O4 0.184616 0.923118 0.088532
O O5 0.359921 0.884974 0.165765
O O6 0.139241 0.984478 0.185913
O O7 0.000000 0.885314 0.246814
O O8 0.743360 0.832882 0.004381
O O9 0.000000 0.898989 0.010956
O O10 0.787435 0.000000 0.000000
O O11 0.000000 0.250000 0.510128
O O12 0.132116 0.250000 0.422085
O O13 0.500000 0.750000 0.192304
#
# Coordination Sequence:
#
# PCOD9538498 Si02
#       7
#     8  16   8  16   8   8   4
#     4  10  20  37  65  83 120 152 204 246 306 357
#     4  10  21  37  59  85 117 156 195 243 297 351
#     4  10  20  40  56  87 117 159 192 248 288 356
#     4  11  23  40  62  88 121 163 205 249 311 370
#     4  10  25  39  60  90 130 151 206 260 303 367
#     4  10  22  35  55  81 120 150 195 234 284 345
#     4  10  22  40  64  92 114 158 196 260 312 350
#
# _framework density 18.037855
#
# number of rings (size 3 to 8) (size 9 to 14) (size 15 to 20)
#    0.353    1.647    1.176    4.588    4.941    2.353 
#    0.000    2.353    0.000    0.000    0.000    0.000 
#    0.000    0.000    0.000    0.000    0.000    0.000 
#
# Total GULP energy -189609.625108 kJ/mol
# GULP energy per Si atom -5576.753680 kJ/mol
# Density = 1.799680 g / cm^3
# Si number density = 18.037855 Si / 1000 Ang^3
#
#
#
# Elastic Constant Matrix: (Units=GPa)
#
#
# Indices 1 2 3 4 5 6 
#
# 1 94.8018 62.5187 21.3868 0.0000 0.0000 0.0000
# 2 62.5187 173.8888 30.2684 0.0000 0.0000 0.0000
# 3 21.3868 30.2684 67.4470 0.0000 0.0000 0.0000
# 4 0.0000 0.0000 0.0000 11.8161 0.0000 0.0000
# 5 0.0000 0.0000 0.0000 0.0000 -1.3709 0.0000
# 6 0.0000 0.0000 0.0000 0.0000 0.0000 13.3841
#
#
#
# Elastic Compliance Matrix: (Units=1/GPa)
#
#
# Indices 1 2 3 4 5 6 
#
# 1 0.014174 -0.004679 -0.002395 0.000000 0.000000 0.000000
# 2 -0.004679 0.007783 -0.002009 0.000000 0.000000 0.000000
# 3 -0.002395 -0.002009 0.016487 0.000000 0.000000 0.000000
# 4 0.000000 0.000000 0.000000 0.084631 0.000000 0.000000
# 5 0.000000 0.000000 0.000000 0.000000 -0.729430 0.000000
# 6 0.000000 0.000000 0.000000 0.000000 0.000000 0.074715
#
#
# Mechanical properties :
#
#
# Convention : Reuss Voigt Hill
#
# Bulk Modulus (GPa) = 49.31262 62.72058 56.01660
# Shear Modulus (GPa) = -9.86751 19.56344 4.84797
#
# Velocity S-wave (km/s) = -2.34144 3.29686 1.64119
# Velocity P-wave (km/s) = 4.48196 7.02421 5.89184
#
# Compressibility (1/GPa) = 0.02027879
#
# Stress axis : x y z
#
# Youngs Moduli (GPa) = 70.54967 128.48729 60.65265
#
# Poissons Ratio (x) = 0.60124 0.14524
# Poissons Ratio (y) = 0.33013 0.12185
# Poissons Ratio (z) = 0.16894 0.25813
#
# Static dielectric constant tensor:
#      x y z
#    x 1.649530 0.000000 0.000000 
#    y 0.000000 1.592170 0.000000 
#    z 0.000000 0.000000 1.631030 
# 
# From -- ./inp_files/63579.got.cif
#   From: 2010.05.17/outbox.cif.g08.bks.cpg/sg74_32_cif.got.tgz:63579.got - 2010.06.03 17:57:02.
