data_PCOD9538847
_publ_section_title
;
Structure prediction by ZEFSAII (Michael W. Deem and Ramdas Pophale) SiO2 
 PCOD9538847
Probable space group: I M M A
;
_chemical_formula_sum "Si O2"
_cell_formula_units_Z 96
_cell_length_a 21.046979
_cell_length_b 16.716659
_cell_length_c 15.308967
_cell_angle_alpha 90.000000
_cell_angle_beta 90.000000
_cell_angle_gamma 90.000000
_cell_volume 5386.233021
_symmetry_space_group_name_H-M "I M M A"
_symmetry_group_IT_number 74
_symmetry_cell_setting 'orthorhombic'
loop_
_space_group_symop_operation_xyz
x,y,z
-x,1/2-y,z
x,-y,-z
-x,1/2+y,-z
-x,-y,-z
x,1/2+y,-z
-x,y,z
x,1/2-y,z
1/2+x,1/2+y,1/2+z
1/2-x,-y,1/2+z
1/2+x,1/2-y,1/2-z
1/2-x,y,1/2-z
1/2-x,1/2-y,1/2-z
1/2+x,y,1/2-z
1/2-x,1/2+y,1/2+z
1/2+x,-y,1/2+z
loop_
_atom_site_type_symbol
_atom_site_label
_atom_site_fract_x
_atom_site_fract_y
_atom_site_fract_z
Si Si1 0.930779 0.594127 0.215740
Si Si2 0.570275 0.915287 0.640212
Si Si3 0.791605 0.654938 0.829056
Si Si4 0.601256 0.341566 0.538236
Si Si5 0.808429 0.653653 0.316540
Si Si6 0.760174 0.594685 0.015962
O O1 0.924613 0.506724 0.171082
O O2 0.929700 0.652425 0.132354
O O3 0.872348 0.615356 0.277717
O O4 0.000000 0.598397 0.259415
O O5 0.500000 0.885966 0.669685
O O6 0.635599 0.874722 0.671816
O O7 0.572822 0.899016 0.536011
O O8 0.793715 0.750000 0.822384
O O9 0.750000 0.620876 0.750000
O O10 0.757466 0.632650 0.919770
O O11 0.599569 0.250000 0.505778
O O12 0.673315 0.370618 0.551820
O O13 0.814640 0.750000 0.320849
O O14 0.750000 0.635918 0.250000
O O15 0.791201 0.619369 0.412055
O O16 0.763569 0.500000 0.000000
#
# Coordination Sequence:
#
# PCOD9538847 Si02
#       6
#    16  16  16  16  16  16
#     4  11  23  36  55  83 118 157 195 239 289 344
#     4  10  21  35  54  80 116 155 192 233 285 350
#     4  10  22  38  59  85 115 149 192 243 292 341
#     4  11  20  33  53  82 119 155 192 231 287 353
#     4  11  23  38  59  86 117 153 194 234 281 344
#     4  11  22  35  59  86 114 152 188 238 285 343
#
# _framework density 17.823217
#
# number of rings (size 3 to 8) (size 9 to 14) (size 15 to 20)
#    0.000    1.333    1.667    6.500    2.333    4.667 
#    0.000    0.000    0.000    1.500    0.000    2.333 
#    0.000    0.000    0.000    0.000    0.000    0.000 
#
# Total GULP energy -267838.888144 kJ/mol
# GULP energy per Si atom -5579.976836 kJ/mol
# Density = 1.778265 g / cm^3
# Si number density = 17.823217 Si / 1000 Ang^3
#
#
#
# Elastic Constant Matrix: (Units=GPa)
#
#
# Indices 1 2 3 4 5 6 
#
# 1 138.8698 41.6446 84.1355 0.0000 0.0000 0.0000
# 2 41.6446 83.2913 29.1975 0.0000 0.0000 0.0000
# 3 84.1355 29.1975 96.7890 0.0000 0.0000 0.0000
# 4 0.0000 0.0000 0.0000 -0.3068 0.0000 0.0000
# 5 0.0000 0.0000 0.0000 0.0000 27.3047 0.0000
# 6 0.0000 0.0000 0.0000 0.0000 0.0000 2.0643
#
#
#
# Elastic Compliance Matrix: (Units=1/GPa)
#
#
# Indices 1 2 3 4 5 6 
#
# 1 0.016082 -0.003512 -0.012920 0.000000 0.000000 0.000000
# 2 -0.003512 0.014193 -0.001229 0.000000 0.000000 0.000000
# 3 -0.012920 -0.001229 0.021933 0.000000 0.000000 0.000000
# 4 0.000000 0.000000 0.000000 -3.259828 0.000000 0.000000
# 5 0.000000 0.000000 0.000000 0.000000 0.036624 0.000000
# 6 0.000000 0.000000 0.000000 0.000000 0.000000 0.484428
#
#
# Mechanical properties :
#
#
# Convention : Reuss Voigt Hill
#
# Bulk Modulus (GPa) = 59.21785 69.87837 64.54811
# Shear Modulus (GPa) = -1.88992 16.74396 7.42702
#
# Velocity S-wave (km/s) = -1.03086 3.06836 2.04355
# Velocity P-wave (km/s) = 5.64627 7.20032 6.47012
#
# Compressibility (1/GPa) = 0.01688680
#
# Stress axis : x y z
#
# Youngs Moduli (GPa) = 62.18224 70.45938 45.59258
#
# Poissons Ratio (x) = 0.24742 0.58906
# Poissons Ratio (y) = 0.21836 0.05603
# Poissons Ratio (z) = 0.80340 0.08658
#
# Static dielectric constant tensor:
#      x y z
#    x 1.635230 0.000000 0.000000 
#    y 0.000000 1.636880 0.000000 
#    z 0.000000 0.000000 1.607970 
# 
# From -- ./inp_files/35280.got.cif
#   From: 2010.05.17/outbox.cif.g08.bks.cpg/sg74_18_cif.got.tgz:35280.got - 2010.06.03 17:57:02.
