data_PCOD9538456
_publ_section_title
;
Structure prediction by ZEFSAII (Michael W. Deem and Ramdas Pophale) SiO2 
 PCOD9538456
Probable space group: I M M A
;
_chemical_formula_sum "Si O2"
_cell_formula_units_Z 68
_cell_length_a 20.220299
_cell_length_b 9.471879
_cell_length_c 18.604593
_cell_angle_alpha 90.000000
_cell_angle_beta 90.000000
_cell_angle_gamma 90.000000
_cell_volume 3563.230265
_symmetry_space_group_name_H-M "I M M A"
_symmetry_group_IT_number 74
_symmetry_cell_setting 'orthorhombic'
loop_
_space_group_symop_operation_xyz
x,y,z
-x,1/2-y,z
x,-y,-z
-x,1/2+y,-z
-x,-y,-z
x,1/2+y,-z
-x,y,z
x,1/2-y,z
1/2+x,1/2+y,1/2+z
1/2-x,-y,1/2+z
1/2+x,1/2-y,1/2-z
1/2-x,y,1/2-z
1/2-x,1/2-y,1/2-z
1/2+x,y,1/2-z
1/2-x,1/2+y,1/2+z
1/2+x,-y,1/2+z
loop_
_atom_site_type_symbol
_atom_site_label
_atom_site_fract_x
_atom_site_fract_y
_atom_site_fract_z
Si Si1 0.129646 0.581238 0.307332
Si Si2 0.500000 0.420967 0.423120
Si Si3 0.235175 0.582688 0.428420
Si Si4 0.500000 0.750000 0.002285
Si Si5 0.500000 0.505231 0.883329
Si Si6 0.376101 0.917418 0.359858
O O1 0.118139 0.750000 0.315404
O O2 0.189632 0.544056 0.360491
O O3 0.064738 0.500989 0.333650
O O4 0.142784 0.558266 0.223346
O O5 0.500000 0.250000 0.429313
O O6 0.500000 0.500000 0.500000
O O7 0.564553 0.480947 0.382529
O O8 0.215635 0.500000 0.500000
O O9 0.226709 0.750000 0.440836
O O10 0.311481 0.557244 0.408257
O O11 0.500000 0.629907 0.065405
O O12 0.500000 0.630964 0.938845
O O13 0.394585 0.750000 0.367140
#
# Coordination Sequence:
#
# PCOD9538456 Si02
#       6
#    16   8  16   4   8  16
#     4  10  20  37  62  87 118 160 199 239 292 352
#     4  12  25  41  66  91 119 153 197 248 300 354
#     4  10  22  37  60  88 119 155 201 245 292 350
#     4  10  24  34  56  80 122 150 198 244 292 340
#     4  11  21  37  56  84 116 155 196 244 291 349
#     4  10  21  41  63  88 119 156 199 245 296 354
#
# _framework density 19.083808000000001
#
# number of rings (size 3 to 8) (size 9 to 14) (size 15 to 20)
#    0.000    1.647    1.176    3.176    3.294    7.529 
#    4.235    0.000    0.000    2.824    0.000    0.000 
#    0.000    0.000    0.000    0.000    0.000    0.000 
#
# Total GULP energy -189359.598541 kJ/mol
# GULP energy per Si atom -5569.399957 kJ/mol
# Density = 1.904037 g / cm^3
# Si number density = 19.083808 Si / 1000 Ang^3
#
#
#
# Elastic Constant Matrix: (Units=GPa)
#
#
# Indices 1 2 3 4 5 6 
#
# 1 86.9743 37.9007 27.5682 0.0000 0.0000 0.0000
# 2 37.9007 94.2670 39.8033 0.0000 0.0000 0.0000
# 3 27.5682 39.8033 117.9502 0.0000 0.0000 0.0000
# 4 0.0000 0.0000 0.0000 45.8514 0.0000 0.0000
# 5 0.0000 0.0000 0.0000 0.0000 -6.9572 0.0000
# 6 0.0000 0.0000 0.0000 0.0000 0.0000 9.6285
#
#
#
# Elastic Compliance Matrix: (Units=1/GPa)
#
#
# Indices 1 2 3 4 5 6 
#
# 1 0.014202 -0.005024 -0.001624 0.000000 0.000000 0.000000
# 2 -0.005024 0.014148 -0.003600 0.000000 0.000000 0.000000
# 3 -0.001624 -0.003600 0.010073 0.000000 0.000000 0.000000
# 4 0.000000 0.000000 0.000000 0.021810 0.000000 0.000000
# 5 0.000000 0.000000 0.000000 0.000000 -0.143736 0.000000
# 6 0.000000 0.000000 0.000000 0.000000 0.000000 0.103858
#
#
# Mechanical properties :
#
#
# Convention : Reuss Voigt Hill
#
# Bulk Modulus (GPa) = 55.78449 56.63732 56.21091
# Shear Modulus (GPa) = 106.77769 22.63249 64.70509
#
# Velocity S-wave (km/s) = 7.48822 3.44750 5.82918
# Velocity P-wave (km/s) = 10.20095 6.75201 8.65012
#
# Compressibility (1/GPa) = 0.01792613
#
# Stress axis : x y z
#
# Youngs Moduli (GPa) = 70.41368 70.67970 99.27922
#
# Poissons Ratio (x) = 0.35511 0.16122
# Poissons Ratio (y) = 0.35378 0.35742
# Poissons Ratio (z) = 0.11434 0.25446
#
# Static dielectric constant tensor:
#      x y z
#    x 1.677410 0.000000 0.000000 
#    y 0.000000 1.634530 0.000000 
#    z 0.000000 0.000000 1.647320 
# 
# From -- ./inp_files/44877.got.cif
#   From: 2010.05.17/outbox.cif.g08.bks.cpg/sg74_23_cif.got.tgz:44877.got - 2010.06.03 17:57:02.
