data_PCOD9538610
_publ_section_title
;
Structure prediction by ZEFSAII (Michael W. Deem and Ramdas Pophale) SiO2 
 PCOD9538610
Probable space group: I M M A
;
_chemical_formula_sum "Si O2"
_cell_formula_units_Z 52
_cell_length_a 10.673981
_cell_length_b 7.622335
_cell_length_c 30.108120
_cell_angle_alpha 90.000000
_cell_angle_beta 90.000000
_cell_angle_gamma 90.000000
_cell_volume 2449.616483
_symmetry_space_group_name_H-M "I M M A"
_symmetry_group_IT_number 74
_symmetry_cell_setting 'orthorhombic'
loop_
_space_group_symop_operation_xyz
x,y,z
-x,1/2-y,z
x,-y,-z
-x,1/2+y,-z
-x,-y,-z
x,1/2+y,-z
-x,y,z
x,1/2-y,z
1/2+x,1/2+y,1/2+z
1/2-x,-y,1/2+z
1/2+x,1/2-y,1/2-z
1/2-x,y,1/2-z
1/2-x,1/2-y,1/2-z
1/2+x,y,1/2-z
1/2-x,1/2+y,1/2+z
1/2+x,-y,1/2+z
loop_
_atom_site_type_symbol
_atom_site_label
_atom_site_fract_x
_atom_site_fract_y
_atom_site_fract_z
Si Si1 0.500000 0.750000 0.352149
Si Si2 0.708729 0.445757 0.363871
Si Si3 0.861340 0.462621 0.718032
Si Si4 0.143435 0.540564 0.448990
O O1 0.609185 0.596230 0.353252
O O2 0.659575 0.250000 0.356650
O O3 0.826103 0.476916 0.331070
O O4 0.760323 0.463063 0.413835
O O5 0.861339 0.250000 0.719219
O O6 0.750000 0.523799 0.750000
O O7 0.000000 0.520142 0.731844
O O8 0.176172 0.500000 0.500000
O O9 0.144291 0.750000 0.442903
O O10 0.000000 0.477989 0.441867
#
# Coordination Sequence:
#
# PCOD9538610 Si02
#       4
#     4  16  16  16
#     4  12  26  48  66  94 132 188 218 288 322 424
#     4  12  25  43  70  96 133 176 227 277 340 398
#     4  10  22  40  68 102 140 184 225 278 339 397
#     4  10  20  38  67 100 134 170 216 277 339 397
#
# _framework density 21.227813999999999
#
# number of rings (size 3 to 8) (size 9 to 14) (size 15 to 20)
#    0.000    1.231    3.077    2.308    2.154    6.769 
#    0.000    0.769    0.000    0.000    0.000    0.000 
#    0.000    0.000    0.000    0.000    0.000    0.000 
#
# Total GULP energy -144892.669075 kJ/mol
# GULP energy per Si atom -5572.794964 kJ/mol
# Density = 2.117950 g / cm^3
# Si number density = 21.227814 Si / 1000 Ang^3
#
#
#
# Elastic Constant Matrix: (Units=GPa)
#
#
# Indices 1 2 3 4 5 6 
#
# 1 135.4555 48.3087 39.3412 0.0000 0.0000 0.0000
# 2 48.3087 142.1640 -0.6068 0.0000 0.0000 0.0000
# 3 39.3412 -0.6068 61.9775 0.0000 0.0000 0.0000
# 4 0.0000 0.0000 0.0000 14.4388 0.0000 0.0000
# 5 0.0000 0.0000 0.0000 0.0000 -4.1349 0.0000
# 6 0.0000 0.0000 0.0000 0.0000 0.0000 -48.8293
#
#
#
# Elastic Compliance Matrix: (Units=1/GPa)
#
#
# Indices 1 2 3 4 5 6 
#
# 1 0.010661 -0.003652 -0.006803 0.000000 0.000000 0.000000
# 2 -0.003652 0.008285 0.002399 0.000000 0.000000 0.000000
# 3 -0.006803 0.002399 0.020476 0.000000 0.000000 0.000000
# 4 0.000000 0.000000 0.000000 0.069258 0.000000 0.000000
# 5 0.000000 0.000000 0.000000 0.000000 -0.241846 0.000000
# 6 0.000000 0.000000 0.000000 0.000000 0.000000 -0.020479
#
#
# Mechanical properties :
#
#
# Convention : Reuss Voigt Hill
#
# Bulk Modulus (GPa) = 42.89691 57.07592 49.98642
# Shear Modulus (GPa) = -38.53153 9.13185 -14.69984
#
# Velocity S-wave (km/s) = -4.26507 2.07634 -2.63436
# Velocity P-wave (km/s) = 2.00068 5.71786 3.78756
#
# Compressibility (1/GPa) = 0.02331170
#
# Stress axis : x y z
#
# Youngs Moduli (GPa) = 93.80385 120.69697 48.83653
#
# Poissons Ratio (x) = 0.44074 0.33222
# Poissons Ratio (y) = 0.34253 -0.11716
# Poissons Ratio (z) = 0.63812 -0.28955
#
# Static dielectric constant tensor:
#      x y z
#    x 1.762630 0.000000 0.000000 
#    y 0.000000 1.771870 0.000000 
#    z 0.000000 0.000000 1.771010 
# 
# From -- ./inp_files/63160.got.cif
#   From: 2010.05.17/outbox.cif.g08.bks.cpg/sg74_32_cif.got.tgz:63160.got - 2010.06.03 17:57:02.
