data_PCOD9538988
_publ_section_title
;
Structure prediction by ZEFSAII (Michael W. Deem and Ramdas Pophale) SiO2 
 PCOD9538988
Probable space group: I M M A
;
_chemical_formula_sum "Si O2"
_cell_formula_units_Z 96
_cell_length_a 13.766709
_cell_length_b 14.739228
_cell_length_c 20.917024
_cell_angle_alpha 90.000000
_cell_angle_beta 90.000000
_cell_angle_gamma 90.000000
_cell_volume 4244.287203
_symmetry_space_group_name_H-M "I M M A"
_symmetry_group_IT_number 74
_symmetry_cell_setting 'orthorhombic'
loop_
_space_group_symop_operation_xyz
x,y,z
-x,1/2-y,z
x,-y,-z
-x,1/2+y,-z
-x,-y,-z
x,1/2+y,-z
-x,y,z
x,1/2-y,z
1/2+x,1/2+y,1/2+z
1/2-x,-y,1/2+z
1/2+x,1/2-y,1/2-z
1/2-x,y,1/2-z
1/2-x,1/2-y,1/2-z
1/2+x,y,1/2-z
1/2-x,1/2+y,1/2+z
1/2+x,-y,1/2+z
loop_
_atom_site_type_symbol
_atom_site_label
_atom_site_fract_x
_atom_site_fract_y
_atom_site_fract_z
Si Si1 0.618234 0.451796 0.208088
Si Si2 0.117608 0.850664 0.836204
Si Si3 0.614791 0.650556 0.185856
Si Si4 0.614811 0.640654 0.925199
Si Si5 0.783625 0.855060 0.444523
Si Si6 0.608902 0.517401 0.424732
O O1 0.500000 0.452457 0.207912
O O2 0.647490 0.390907 0.268055
O O3 0.650916 0.556042 0.215137
O O4 0.645988 0.408489 0.140104
O O5 0.156783 0.750000 0.848297
O O6 0.000000 0.843829 0.834639
O O7 0.137490 0.924565 0.890060
O O8 0.500000 0.653273 0.197734
O O9 0.654843 0.750000 0.204953
O O10 0.634202 0.641146 0.109924
O O11 0.500000 0.621209 0.935652
O O12 0.622824 0.750000 0.918095
O O13 0.675237 0.611599 0.987593
O O14 0.756584 0.750000 0.453644
O O15 0.691561 0.908227 0.417239
O O16 0.602579 0.500000 0.500000
O O17 0.500000 0.543709 0.401614
#
# Coordination Sequence:
#
# PCOD9538988 Si02
#       6
#    16  16  16  16  16  16
#     4   9  17  30  56  91 124 160 193 231 292 365
#     4   9  18  37  65  92 118 150 191 245 310 368
#     4   9  18  33  54  84 123 165 204 237 281 348
#     4   9  17  30  53  90 130 163 197 236 286 357
#     4  10  21  36  57  83 117 160 201 250 303 347
#     4  10  23  41  62  85 109 147 201 257 308 355
#
# _framework density 22.618639999999999
#
# number of rings (size 3 to 8) (size 9 to 14) (size 15 to 20)
#    0.000    2.667    0.000    1.000    2.333    5.000 
#    0.000    5.833    0.000    6.000    0.000    0.000 
#    0.000    1.333    0.000    0.000    0.000    0.000 
#
# Total GULP energy -268320.716548 kJ/mol
# GULP energy per Si atom -5590.014928 kJ/mol
# Density = 2.256716 g / cm^3
# Si number density = 22.618640 Si / 1000 Ang^3
#
#
#
# Elastic Constant Matrix: (Units=GPa)
#
#
# Indices 1 2 3 4 5 6 
#
# 1 88.0721 46.2622 44.8310 0.0000 0.0000 0.0000
# 2 46.2622 157.6462 70.0599 0.0000 0.0000 0.0000
# 3 44.8310 70.0599 81.5390 0.0000 0.0000 0.0000
# 4 0.0000 0.0000 0.0000 15.5142 0.0000 0.0000
# 5 0.0000 0.0000 0.0000 0.0000 -4.6436 0.0000
# 6 0.0000 0.0000 0.0000 0.0000 0.0000 19.1504
#
#
#
# Elastic Compliance Matrix: (Units=1/GPa)
#
#
# Indices 1 2 3 4 5 6 
#
# 1 0.015921 -0.001265 -0.007667 0.000000 0.000000 0.000000
# 2 -0.001265 0.010362 -0.008208 0.000000 0.000000 0.000000
# 3 -0.007667 -0.008208 0.023532 0.000000 0.000000 0.000000
# 4 0.000000 0.000000 0.000000 0.064457 0.000000 0.000000
# 5 0.000000 0.000000 0.000000 0.000000 -0.215351 0.000000
# 6 0.000000 0.000000 0.000000 0.000000 0.000000 0.052218
#
#
# Mechanical properties :
#
#
# Convention : Reuss Voigt Hill
#
# Bulk Modulus (GPa) = 64.36701 72.17372 68.27037
# Shear Modulus (GPa) = -531.81016 17.07781 -257.36617
#
# Velocity S-wave (km/s) = -15.35027 2.75077 -10.67858
# Velocity P-wave (km/s) = 16.90133 6.48592 11.03603
#
# Compressibility (1/GPa) = 0.01553591
#
# Stress axis : x y z
#
# Youngs Moduli (GPa) = 62.80842 96.50415 42.49564
#
# Poissons Ratio (x) = 0.12208 0.32581
# Poissons Ratio (y) = 0.07945 0.34880
# Poissons Ratio (z) = 0.48154 0.79210
#
# Static dielectric constant tensor:
#      x y z
#    x 1.885420 0.000000 0.000000 
#    y 0.000000 1.839190 0.000000 
#    z 0.000000 0.000000 1.787280 
# 
# From -- ./inp_files/51916.got.cif
#   From: 2010.05.17/outbox.cif.g08.bks.cpg/sg74_26_cif.got.tgz:51916.got - 2010.06.03 17:57:02.
