data_PCOD9538359
_publ_section_title
;
Structure prediction by ZEFSAII (Michael W. Deem and Ramdas Pophale) SiO2 
 PCOD9538359
Probable space group: I M M A
;
_chemical_formula_sum "Si O2"
_cell_formula_units_Z 116
_cell_length_a 19.052517
_cell_length_b 28.494952
_cell_length_c 11.648963
_cell_angle_alpha 90.000000
_cell_angle_beta 90.000000
_cell_angle_gamma 90.000000
_cell_volume 6324.228506
_symmetry_space_group_name_H-M "I M M A"
_symmetry_group_IT_number 74
_symmetry_cell_setting 'orthorhombic'
loop_
_space_group_symop_operation_xyz
x,y,z
-x,1/2-y,z
x,-y,-z
-x,1/2+y,-z
-x,-y,-z
x,1/2+y,-z
-x,y,z
x,1/2-y,z
1/2+x,1/2+y,1/2+z
1/2-x,-y,1/2+z
1/2+x,1/2-y,1/2-z
1/2-x,y,1/2-z
1/2-x,1/2-y,1/2-z
1/2+x,y,1/2-z
1/2-x,1/2+y,1/2+z
1/2+x,-y,1/2+z
loop_
_atom_site_type_symbol
_atom_site_label
_atom_site_fract_x
_atom_site_fract_y
_atom_site_fract_z
Si Si1 0.272474 0.196954 0.880228
Si Si2 0.421930 0.536447 0.896905
Si Si3 0.171887 0.622655 0.532607
Si Si4 0.000000 0.250000 0.955696
Si Si5 0.333420 0.198158 0.231273
Si Si6 0.173812 0.502311 0.807881
Si Si7 0.674282 0.077528 0.507519
Si Si8 0.374057 0.321522 0.489956
O O1 0.300231 0.250000 0.889448
O O2 0.250000 0.187959 0.750000
O O3 0.326611 0.157977 0.924615
O O4 0.201235 0.194039 0.956226
O O5 0.500000 0.549620 0.858829
O O6 0.382218 0.581147 0.949038
O O7 0.380795 0.511675 0.793308
O O8 0.425429 0.500000 0.000000
O O9 0.159409 0.656973 0.640151
O O10 0.248497 0.598253 0.522741
O O11 0.062425 0.290992 0.961508
O O12 0.356966 0.250000 0.191295
O O13 0.250000 0.200726 0.250000
O O14 0.368969 0.187231 0.353081
O O15 0.250000 0.508619 0.750000
O O16 0.173364 0.452614 0.875134
O O17 0.159527 0.541611 0.904453
O O18 0.623777 0.122573 0.511547
#
# Coordination Sequence:
#
# PCOD9538359 Si02
#       8
#    16  16  16   4  16  16  16  16
#     4  10  20  36  63  93 126 155 211 267 313 361
#     4  11  25  43  61  83 124 166 207 256 322 385
#     4  11  21  36  63  94 120 159 200 259 312 379
#     4  12  24  44  60  82 138 172 216 262 316 412
#     4  11  19  33  60  89 122 151 190 248 312 371
#     4  11  21  40  64  93 124 158 208 267 315 374
#     4  10  22  36  62  96 120 152 213 262 310 369
#     4  11  22  39  59  92 123 168 207 254 319 381
#
# _framework density 18.342158000000001
#
# number of rings (size 3 to 8) (size 9 to 14) (size 15 to 20)
#    0.000    1.241    5.517    2.069    0.000    4.414 
#    6.207    0.690    1.517    1.241    0.000    0.000 
#    0.000    0.000    0.000    0.000    0.000    0.000 
#
# Total GULP energy -322969.816147 kJ/mol
# GULP energy per Si atom -5568.445106 kJ/mol
# Density = 1.830041 g / cm^3
# Si number density = 18.342158 Si / 1000 Ang^3
#
#
#
# Elastic Constant Matrix: (Units=GPa)
#
#
# Indices 1 2 3 4 5 6 
#
# 1 84.4444 43.3191 24.6485 0.0000 0.0000 0.0000
# 2 43.3191 154.9103 49.2349 0.0000 0.0000 0.0000
# 3 24.6485 49.2349 92.6935 0.0000 -0.0001 0.0000
# 4 0.0000 0.0000 0.0000 34.4321 0.0000 0.0000
# 5 0.0000 0.0000 -0.0001 0.0000 34.6861 0.0000
# 6 0.0000 0.0000 0.0000 0.0000 0.0000 6.4044
#
#
#
# Elastic Compliance Matrix: (Units=1/GPa)
#
#
# Indices 1 2 3 4 5 6 
#
# 1 0.014125 -0.003316 -0.001995 0.000000 0.000000 0.000000
# 2 -0.003316 0.008545 -0.003657 0.000000 0.000000 0.000000
# 3 -0.001995 -0.003657 0.013261 0.000000 0.000000 0.000000
# 4 0.000000 0.000000 0.000000 0.029043 0.000000 0.000000
# 5 0.000000 0.000000 0.000000 0.000000 0.028830 0.000000
# 6 0.000000 0.000000 0.000000 0.000000 0.000000 0.156143
#
#
# Mechanical properties :
#
#
# Convention : Reuss Voigt Hill
#
# Bulk Modulus (GPa) = 55.56812 62.93924 59.25368
# Shear Modulus (GPa) = 18.25607 29.42756 23.84182
#
# Velocity S-wave (km/s) = 3.15827 4.00980 3.60924
# Velocity P-wave (km/s) = 6.60762 7.47171 7.05291
#
# Compressibility (1/GPa) = 0.01799593
#
# Stress axis : x y z
#
# Youngs Moduli (GPa) = 70.79407 117.02865 75.40860
#
# Poissons Ratio (x) = 0.38807 0.15043
# Poissons Ratio (y) = 0.23476 0.27576
# Poissons Ratio (z) = 0.14122 0.42796
#
# Static dielectric constant tensor:
#      x y z
#    x 1.613290 0.000000 0.000000 
#    y 0.000000 1.679100 0.000000 
#    z 0.000000 0.000000 1.642330 
# 
# From -- ./inp_files/22946.got.cif
#   From: 2010.05.17/outbox.cif.g08.bks.cpg/sg74_12_cif.got.tgz:22946.got - 2010.06.03 17:57:02.
