data_PCOD9538599
_publ_section_title
;
Structure prediction by ZEFSAII (Michael W. Deem and Ramdas Pophale) SiO2 
 PCOD9538599
Probable space group: I M M A
;
_chemical_formula_sum "Si O2"
_cell_formula_units_Z 112
_cell_length_a 29.320484
_cell_length_b 17.285276
_cell_length_c 11.768412
_cell_angle_alpha 90.000000
_cell_angle_beta 90.000000
_cell_angle_gamma 90.000000
_cell_volume 5964.380171
_symmetry_space_group_name_H-M "I M M A"
_symmetry_group_IT_number 74
_symmetry_cell_setting 'orthorhombic'
loop_
_space_group_symop_operation_xyz
x,y,z
-x,1/2-y,z
x,-y,-z
-x,1/2+y,-z
-x,-y,-z
x,1/2+y,-z
-x,y,z
x,1/2-y,z
1/2+x,1/2+y,1/2+z
1/2-x,-y,1/2+z
1/2+x,1/2-y,1/2-z
1/2-x,y,1/2-z
1/2-x,1/2-y,1/2-z
1/2+x,y,1/2-z
1/2-x,1/2+y,1/2+z
1/2+x,-y,1/2+z
loop_
_atom_site_type_symbol
_atom_site_label
_atom_site_fract_x
_atom_site_fract_y
_atom_site_fract_z
Si Si1 0.140506 0.585269 0.053101
Si Si2 0.630598 0.044475 0.807809
Si Si3 0.606285 0.661439 0.992981
Si Si4 0.786379 0.341676 0.104431
Si Si5 0.947574 0.417769 0.298664
Si Si6 0.689047 0.100300 0.145927
Si Si7 0.947903 0.658019 0.945523
O O1 0.145072 0.580250 0.188127
O O2 0.146474 0.500000 0.000000
O O3 0.178167 0.639082 0.994303
O O4 0.090472 0.615292 0.018012
O O5 0.615505 0.107593 0.898980
O O6 0.587477 0.988240 0.786886
O O7 0.670063 0.987213 0.854449
O O8 0.597971 0.750000 0.023188
O O9 0.566615 0.627789 0.912344
O O10 0.651724 0.652266 0.916830
O O11 0.777903 0.250000 0.112992
O O12 0.738436 0.386104 0.091639
O O13 0.807108 0.372052 0.223455
O O14 0.941791 0.364928 0.186750
O O15 0.000000 0.442784 0.304112
O O16 0.942891 0.750000 0.957618
O O17 0.000000 0.636507 0.977156
#
# Coordination Sequence:
#
# PCOD9538599 Si02
#       7
#    16  16  16  16  16  16  16
#     4  12  22  39  58  88 125 163 202 243 301 364
#     4  11  24  40  59  88 123 166 205 243 303 372
#     4  11  23  39  59  84 122 162 198 245 305 369
#     4  11  22  37  65  94 117 150 198 260 313 356
#     4  10  20  38  65  92 118 154 207 262 305 355
#     4  10  20  41  62  88 116 150 205 255 308 363
#     4  10  21  37  62  92 120 156 203 257 310 357
#
# _framework density 18.778147000000001
#
# number of rings (size 3 to 8) (size 9 to 14) (size 15 to 20)
#    0.000    1.286    2.857    5.143    0.000    5.143 
#    0.000    0.000    0.000    1.714    0.000    0.000 
#    0.000    0.000    0.000    0.000    0.000    0.000 
#
# Total GULP energy -312977.353295 kJ/mol
# GULP energy per Si atom -5588.881309 kJ/mol
# Density = 1.873541 g / cm^3
# Si number density = 18.778147 Si / 1000 Ang^3
#
#
#
# Elastic Constant Matrix: (Units=GPa)
#
#
# Indices 1 2 3 4 5 6 
#
# 1 76.4359 14.9779 16.5904 0.0000 0.0000 0.0000
# 2 14.9779 55.3952 18.0685 0.0000 0.0000 0.0000
# 3 16.5904 18.0685 51.8857 0.0000 0.0000 0.0000
# 4 0.0000 0.0000 0.0000 26.6865 0.0000 0.0000
# 5 0.0000 0.0000 0.0000 0.0000 6.7637 0.0000
# 6 0.0000 0.0000 0.0000 0.0000 0.0000 12.4652
#
#
#
# Elastic Compliance Matrix: (Units=1/GPa)
#
#
# Indices 1 2 3 4 5 6 
#
# 1 0.014408 -0.002700 -0.003667 0.000000 0.000000 0.000000
# 2 -0.002700 0.020871 -0.006405 0.000000 0.000000 0.000000
# 3 -0.003667 -0.006405 0.022676 0.000000 0.000000 0.000000
# 4 0.000000 0.000000 0.000000 0.037472 0.000000 0.000000
# 5 0.000000 0.000000 0.000000 0.000000 0.147847 0.000000
# 6 0.000000 0.000000 0.000000 0.000000 0.000000 0.080223
#
#
# Mechanical properties :
#
#
# Convention : Reuss Voigt Hill
#
# Bulk Modulus (GPa) = 30.85243 31.44338 31.14791
# Shear Modulus (GPa) = 13.89490 18.12176 16.00833
#
# Velocity S-wave (km/s) = 2.72315 3.10989 2.92292
# Velocity P-wave (km/s) = 5.13352 5.44759 5.29289
#
# Compressibility (1/GPa) = 0.03241235
#
# Stress axis : x y z
#
# Youngs Moduli (GPa) = 69.40719 47.91307 44.09954
#
# Poissons Ratio (x) = 0.12935 0.16170
# Poissons Ratio (y) = 0.18737 0.28245
# Poissons Ratio (z) = 0.25450 0.30688
#
# Static dielectric constant tensor:
#      x y z
#    x 1.653450 0.000000 0.000000 
#    y 0.000000 1.633270 0.000000 
#    z 0.000000 0.000000 1.635340 
# 
# From -- ./inp_files/21163.got.cif
#   From: 2010.05.17/outbox.cif.g08.bks.cpg/sg74_11_cif.got.tgz:21163.got - 2010.06.03 17:57:02.
