data_PCOD9538889
_publ_section_title
;
Structure prediction by ZEFSAII (Michael W. Deem and Ramdas Pophale) SiO2 
 PCOD9538889
Probable space group: I M M A
;
_chemical_formula_sum "Si O2"
_cell_formula_units_Z 64
_cell_length_a 14.406798
_cell_length_b 24.965748
_cell_length_c 9.275517
_cell_angle_alpha 90.000000
_cell_angle_beta 90.000000
_cell_angle_gamma 90.000000
_cell_volume 3336.185382
_symmetry_space_group_name_H-M "I M M A"
_symmetry_group_IT_number 74
_symmetry_cell_setting 'orthorhombic'
loop_
_space_group_symop_operation_xyz
x,y,z
-x,1/2-y,z
x,-y,-z
-x,1/2+y,-z
-x,-y,-z
x,1/2+y,-z
-x,y,z
x,1/2-y,z
1/2+x,1/2+y,1/2+z
1/2-x,-y,1/2+z
1/2+x,1/2-y,1/2-z
1/2-x,y,1/2-z
1/2-x,1/2-y,1/2-z
1/2+x,y,1/2-z
1/2-x,1/2+y,1/2+z
1/2+x,-y,1/2+z
loop_
_atom_site_type_symbol
_atom_site_label
_atom_site_fract_x
_atom_site_fract_y
_atom_site_fract_z
Si Si1 0.500000 0.162886 0.540876
Si Si2 0.361721 0.750000 0.076609
Si Si3 0.850019 0.500929 0.175386
Si Si4 0.645180 0.250000 0.574718
Si Si5 0.000000 0.914855 0.279771
Si Si6 0.000000 0.660000 0.528032
Si Si7 0.000000 0.587625 0.788918
O O1 0.590429 0.198655 0.515700
O O2 0.500000 0.142889 0.704106
O O3 0.500000 0.109146 0.450838
O O4 0.368687 0.750000 0.251132
O O5 0.253121 0.750000 0.041402
O O6 0.412912 0.802456 0.013734
O O7 0.750000 0.501547 0.250000
O O8 0.909870 0.449685 0.227302
O O9 0.910535 0.551592 0.229877
O O10 0.844693 0.500000 0.000000
O O11 0.000000 0.897167 0.445244
O O12 0.000000 0.640588 0.692042
#
# Coordination Sequence:
#
# PCOD9538889 Si02
#       7
#     8   8  16   8   8   8   8
#     4  11  19  41  61  87 112 170 202 241 299 369
#     4  10  21  39  57  96 125 149 201 267 298 355
#     4  11  25  42  63  93 125 158 207 258 304 366
#     4  10  21  35  65  90 119 157 212 250 300 365
#     4  11  21  41  67  84 125 167 203 244 307 369
#     4  11  23  39  63  90 124 162 204 253 306 359
#     4  11  25  43  61  87 133 163 200 253 314 368
#
# _framework density 19.183585999999998
#
# number of rings (size 3 to 8) (size 9 to 14) (size 15 to 20)
#    0.000    1.250    5.000    1.500    3.500    7.000 
#    0.000    1.250    0.000    0.000    0.000    0.000 
#    0.000    0.000    0.000    0.000    0.000    0.000 
#
# Total GULP energy -178602.678030 kJ/mol
# GULP energy per Si atom -5581.333688 kJ/mol
# Density = 1.913992 g / cm^3
# Si number density = 19.183586 Si / 1000 Ang^3
#
#
#
# Elastic Constant Matrix: (Units=GPa)
#
#
# Indices 1 2 3 4 5 6 
#
# 1 195.3025 65.3678 29.0996 -0.0001 0.0000 0.0000
# 2 65.3678 90.6531 4.9010 -0.0003 0.0000 0.0000
# 3 29.0996 4.9010 43.9388 -0.0005 -0.0001 -0.0001
# 4 -0.0001 -0.0003 -0.0005 37.9176 0.0000 0.0000
# 5 0.0000 0.0000 -0.0001 0.0000 21.2496 0.0000
# 6 0.0000 0.0000 -0.0001 0.0000 0.0000 1.1212
#
#
#
# Elastic Compliance Matrix: (Units=1/GPa)
#
#
# Indices 1 2 3 4 5 6 
#
# 1 0.007507 -0.005176 -0.004395 0.000000 0.000000 -0.000001
# 2 -0.005176 0.014666 0.001792 0.000000 0.000000 0.000001
# 3 -0.004395 0.001792 0.025470 0.000000 0.000000 0.000002
# 4 0.000000 0.000000 0.000000 0.026373 0.000000 0.000000
# 5 0.000000 0.000000 0.000000 0.000000 0.047060 0.000002
# 6 -0.000001 0.000001 0.000002 0.000000 0.000002 0.891865
#
#
# Mechanical properties :
#
#
# Convention : Reuss Voigt Hill
#
# Bulk Modulus (GPa) = 31.16608 58.73680 44.95144
# Shear Modulus (GPa) = 4.81142 27.42610 16.11876
#
# Velocity S-wave (km/s) = 1.58541 3.78519 2.90183
# Velocity P-wave (km/s) = 4.43090 7.05608 5.89157
#
# Compressibility (1/GPa) = 0.03208616
#
# Stress axis : x y z
#
# Youngs Moduli (GPa) = 133.20184 68.18328 39.26261
#
# Poissons Ratio (x) = 0.35290 0.17255
# Poissons Ratio (y) = 0.68943 -0.07036
# Poissons Ratio (z) = 0.58538 -0.12218
#
# Static dielectric constant tensor:
#      x y z
#    x 1.628870 0.000000 0.000000 
#    y 0.000000 1.634200 0.000000 
#    z 0.000000 0.000000 1.644350 
# 
# From -- ./inp_files/8942.got.cif
#   From: 2010.05.17/outbox.cif.g08.bks.cpg/sg74_5_cif.got.tgz:8942.got - 2010.06.03 17:57:02.
