data_PCOD9538258
_publ_section_title
;
Structure prediction by ZEFSAII (Michael W. Deem and Ramdas Pophale) SiO2 
 PCOD9538258
Probable space group: I M M A
;
_chemical_formula_sum "Si O2"
_cell_formula_units_Z 104
_cell_length_a 9.325419
_cell_length_b 25.790720
_cell_length_c 22.028892
_cell_angle_alpha 90.000000
_cell_angle_beta 90.000000
_cell_angle_gamma 90.000000
_cell_volume 5298.152741
_symmetry_space_group_name_H-M "I M M A"
_symmetry_group_IT_number 74
_symmetry_cell_setting 'orthorhombic'
loop_
_space_group_symop_operation_xyz
x,y,z
-x,1/2-y,z
x,-y,-z
-x,1/2+y,-z
-x,-y,-z
x,1/2+y,-z
-x,y,z
x,1/2-y,z
1/2+x,1/2+y,1/2+z
1/2-x,-y,1/2+z
1/2+x,1/2-y,1/2-z
1/2-x,y,1/2-z
1/2-x,1/2-y,1/2-z
1/2+x,y,1/2-z
1/2-x,1/2+y,1/2+z
1/2+x,-y,1/2+z
loop_
_atom_site_type_symbol
_atom_site_label
_atom_site_fract_x
_atom_site_fract_y
_atom_site_fract_z
Si Si1 0.831625 0.750000 0.812828
Si Si2 0.159783 0.189204 0.491410
Si Si3 0.162960 0.864922 0.090758
Si Si4 0.828127 0.537734 0.685364
Si Si5 0.838374 0.345539 0.359163
Si Si6 0.168008 0.012886 0.930886
Si Si7 0.832242 0.807402 0.313082
O O1 0.750000 0.750000 0.750000
O O2 0.777554 0.697653 0.844138
O O3 0.000000 0.750000 0.806462
O O4 0.174960 0.250000 0.474453
O O5 0.282232 0.170253 0.535713
O O6 0.161350 0.153153 0.432087
O O7 0.000000 0.184183 0.519941
O O8 0.171459 0.925041 0.074330
O O9 0.267477 0.851456 0.145446
O O10 0.000000 0.851983 0.107299
O O11 0.750000 0.525400 0.750000
O O12 0.811908 0.599383 0.671828
O O13 0.757103 0.510294 0.626061
O O14 0.000000 0.526818 0.688965
O O15 0.000000 0.327864 0.341224
O O16 0.000000 0.995856 0.925700
O O17 0.217113 0.000000 0.000000
O O18 0.810021 0.750000 0.341938
O O19 0.750000 0.807447 0.250000
O O20 0.000000 0.813928 0.303031
#
# Coordination Sequence:
#
# PCOD9538258 Si02
#       7
#     8  16  16  16  16  16  16
#     4  12  24  36  56  84 116 156 199 240 287 344
#     4  10  20  36  59  86 122 163 198 244 301 355
#     4  11  23  37  58  88 119 154 198 248 299 360
#     4  11  24  41  66  94 123 163 209 259 314 373
#     4  10  21  40  61  86 121 159 200 247 299 352
#     4  10  23  44  66  89 122 162 205 260 319 369
#     4  10  21  38  60  86 118 156 195 238 296 360
#
# _framework density 19.629484000000001
#
# number of rings (size 3 to 8) (size 9 to 14) (size 15 to 20)
#    0.000    1.538    0.769    3.923    0.000    8.308 
#    0.000    0.000    0.000    0.000    0.000    0.000 
#    0.000    0.000    0.000    0.000    0.000    0.000 
#
# Total GULP energy -290264.062891 kJ/mol
# GULP energy per Si atom -5582.001209 kJ/mol
# Density = 1.958481 g / cm^3
# Si number density = 19.629484 Si / 1000 Ang^3
#
#
#
# Elastic Constant Matrix: (Units=GPa)
#
#
# Indices 1 2 3 4 5 6 
#
# 1 125.3669 39.2725 58.3996 0.0000 0.0000 0.0000
# 2 39.2725 42.9981 31.9423 0.0000 0.0000 0.0000
# 3 58.3996 31.9423 108.5547 0.0000 0.0000 0.0000
# 4 0.0000 0.0000 0.0000 30.1033 0.0000 0.0000
# 5 0.0000 0.0000 0.0000 0.0000 34.8469 0.0000
# 6 0.0000 0.0000 0.0000 0.0000 0.0000 26.9674
#
#
#
# Elastic Compliance Matrix: (Units=1/GPa)
#
#
# Indices 1 2 3 4 5 6 
#
# 1 0.012590 -0.008277 -0.004338 0.000000 0.000000 0.000000
# 2 -0.008277 0.035204 -0.005906 0.000000 0.000000 0.000000
# 3 -0.004338 -0.005906 0.013283 0.000000 0.000000 0.000000
# 4 0.000000 0.000000 0.000000 0.033219 0.000000 0.000000
# 5 0.000000 0.000000 0.000000 0.000000 0.028697 0.000000
# 6 0.000000 0.000000 0.000000 0.000000 0.000000 0.037082
#
#
# Mechanical properties :
#
#
# Convention : Reuss Voigt Hill
#
# Bulk Modulus (GPa) = 41.60376 59.57205 50.58790
# Shear Modulus (GPa) = 24.37500 28.20387 26.28943
#
# Velocity S-wave (km/s) = 3.52768 3.79464 3.66359
# Velocity P-wave (km/s) = 6.15087 7.04366 6.61235
#
# Compressibility (1/GPa) = 0.02403629
#
# Stress axis : x y z
#
# Youngs Moduli (GPa) = 79.42835 28.40585 75.28229
#
# Poissons Ratio (x) = 0.23511 0.32655
# Poissons Ratio (y) = 0.65741 0.44463
# Poissons Ratio (z) = 0.34453 0.16777
#
# Static dielectric constant tensor:
#      x y z
#    x 1.638590 0.000000 0.000000 
#    y 0.000000 1.703230 0.000000 
#    z 0.000000 0.000000 1.727520 
# 
# From -- ./inp_files/49313.got.cif
#   From: 2010.05.17/outbox.cif.g08.bks.cpg/sg74_25_cif.got.tgz:49313.got - 2010.06.03 17:57:02.
