data_PCOD9538386
_publ_section_title
;
Structure prediction by ZEFSAII (Michael W. Deem and Ramdas Pophale) SiO2 
 PCOD9538386
Probable space group: I M M A
;
_chemical_formula_sum "Si O2"
_cell_formula_units_Z 112
_cell_length_a 13.586549
_cell_length_b 27.762502
_cell_length_c 14.335324
_cell_angle_alpha 90.000000
_cell_angle_beta 90.000000
_cell_angle_gamma 90.000000
_cell_volume 5407.235384
_symmetry_space_group_name_H-M "I M M A"
_symmetry_group_IT_number 74
_symmetry_cell_setting 'orthorhombic'
loop_
_space_group_symop_operation_xyz
x,y,z
-x,1/2-y,z
x,-y,-z
-x,1/2+y,-z
-x,-y,-z
x,1/2+y,-z
-x,y,z
x,1/2-y,z
1/2+x,1/2+y,1/2+z
1/2-x,-y,1/2+z
1/2+x,1/2-y,1/2-z
1/2-x,y,1/2-z
1/2-x,1/2-y,1/2-z
1/2+x,y,1/2-z
1/2-x,1/2+y,1/2+z
1/2+x,-y,1/2+z
loop_
_atom_site_type_symbol
_atom_site_label
_atom_site_fract_x
_atom_site_fract_y
_atom_site_fract_z
Si Si1 0.116191 0.444173 0.978254
Si Si2 0.113735 0.377769 0.309654
Si Si3 0.882624 0.611348 0.198983
Si Si4 0.886148 0.131933 0.593919
Si Si5 0.312976 0.860475 0.606080
Si Si6 0.801805 0.193879 0.929097
Si Si7 0.386368 0.955015 0.945267
O O1 0.176595 0.410272 0.048174
O O2 0.000000 0.430991 0.988665
O O3 0.123832 0.500000 0.000000
O O4 0.148315 0.430075 0.873644
O O5 0.201564 0.349105 0.360368
O O6 0.125843 0.368086 0.200330
O O7 0.140587 0.432179 0.344694
O O8 0.000000 0.368492 0.337337
O O9 0.850780 0.611059 0.306126
O O10 0.854482 0.661511 0.149282
O O11 0.000000 0.607573 0.203838
O O12 0.810444 0.174240 0.570140
O O13 0.883857 0.089802 0.517160
O O14 0.000000 0.147883 0.601392
O O15 0.344831 0.820893 0.530445
O O16 0.808458 0.250000 0.911004
O O17 0.500000 0.969530 0.929012
O O18 0.339069 0.000000 0.000000
#
# Coordination Sequence:
#
# PCOD9538386 Si02
#       7
#    16  16  16  16  16  16  16
#     4   9  18  34  57  85 120 159 197 239 285 341
#     4  10  20  37  59  82 116 152 188 235 289 345
#     4   9  20  37  57  84 119 155 192 239 291 343
#     4  10  20  37  58  84 120 154 190 236 291 354
#     4  10  21  37  58  84 112 150 196 241 295 350
#     4  11  23  40  61  84 111 146 195 249 302 355
#     4   9  18  33  57  86 117 154 190 226 273 333
#
# _framework density 20.712986999999998
#
# number of rings (size 3 to 8) (size 9 to 14) (size 15 to 20)
#    0.000    2.286    1.429    0.857    0.000    4.000 
#    0.000    7.143    0.000    0.857    0.000    0.000 
#    0.000    0.000    0.000    0.000    0.000    0.000 
#
# Total GULP energy -312150.357148 kJ/mol
# GULP energy per Si atom -5574.113521 kJ/mol
# Density = 2.066584 g / cm^3
# Si number density = 20.712987 Si / 1000 Ang^3
#
#
#
# Elastic Constant Matrix: (Units=GPa)
#
#
# Indices 1 2 3 4 5 6 
#
# 1 58.3058 -12.9796 25.6491 0.0000 0.0000 0.0000
# 2 -12.9796 74.5373 19.8101 0.0000 0.0000 0.0000
# 3 25.6491 19.8101 116.8652 0.0002 0.0001 0.0000
# 4 0.0000 0.0000 0.0002 8.6409 0.0000 0.0000
# 5 0.0000 0.0000 0.0001 0.0000 28.1223 0.0000
# 6 0.0000 0.0000 0.0000 0.0000 0.0000 18.3365
#
#
#
# Elastic Compliance Matrix: (Units=1/GPa)
#
#
# Indices 1 2 3 4 5 6 
#
# 1 0.020636 0.005024 -0.005381 0.000000 0.000000 0.000000
# 2 0.005024 0.015272 -0.003691 0.000000 0.000000 0.000000
# 3 -0.005381 -0.003691 0.010364 0.000000 0.000000 0.000000
# 4 0.000000 0.000000 0.000000 0.115728 0.000000 0.000000
# 5 0.000000 0.000000 0.000000 0.000000 0.035559 0.000000
# 6 0.000000 0.000000 0.000000 0.000000 0.000000 0.054536
#
#
# Mechanical properties :
#
#
# Convention : Reuss Voigt Hill
#
# Bulk Modulus (GPa) = 26.19530 34.96306 30.57918
# Shear Modulus (GPa) = 18.32061 25.50187 21.91124
#
# Velocity S-wave (km/s) = 2.97728 3.51266 3.25599
# Velocity P-wave (km/s) = 4.94906 5.77651 5.37872
#
# Compressibility (1/GPa) = 0.03817479
#
# Stress axis : x y z
#
# Youngs Moduli (GPa) = 48.45831 65.47954 96.49220
#
# Poissons Ratio (x) = -0.32894 0.51920
# Poissons Ratio (y) = -0.24343 0.35619
# Poissons Ratio (z) = 0.26074 0.24171
#
# Static dielectric constant tensor:
#      x y z
#    x 1.834970 0.000000 0.000000 
#    y 0.000000 1.704340 0.000000 
#    z 0.000000 0.000000 1.778140 
# 
# From -- ./inp_files/32949.got.cif
#   From: 2010.05.17/outbox.cif.g08.bks.cpg/sg74_17_cif.got.tgz:32949.got - 2010.06.03 17:57:02.
