data_PCOD9538959
_publ_section_title
;
Structure prediction by ZEFSAII (Michael W. Deem and Ramdas Pophale) SiO2 
 PCOD9538959
Probable space group: I M M A
;
_chemical_formula_sum "Si O2"
_cell_formula_units_Z 88
_cell_length_a 34.210304
_cell_length_b 12.151784
_cell_length_c 11.115088
_cell_angle_alpha 90.000000
_cell_angle_beta 90.000000
_cell_angle_gamma 90.000000
_cell_volume 4620.722421
_symmetry_space_group_name_H-M "I M M A"
_symmetry_group_IT_number 74
_symmetry_cell_setting 'orthorhombic'
loop_
_space_group_symop_operation_xyz
x,y,z
-x,1/2-y,z
x,-y,-z
-x,1/2+y,-z
-x,-y,-z
x,1/2+y,-z
-x,y,z
x,1/2-y,z
1/2+x,1/2+y,1/2+z
1/2-x,-y,1/2+z
1/2+x,1/2-y,1/2-z
1/2-x,y,1/2-z
1/2-x,1/2-y,1/2-z
1/2+x,y,1/2-z
1/2-x,1/2+y,1/2+z
1/2+x,-y,1/2+z
loop_
_atom_site_type_symbol
_atom_site_label
_atom_site_fract_x
_atom_site_fract_y
_atom_site_fract_z
Si Si1 0.724496 0.378273 0.636292
Si Si2 0.348289 0.876454 0.854956
Si Si3 0.930423 0.876570 0.269268
Si Si4 0.000000 0.383956 0.921098
Si Si5 0.360118 0.013374 0.635563
Si Si6 0.913526 0.000000 0.500000
Si Si7 0.215365 0.000000 0.500000
O O1 0.716250 0.250000 0.649634
O O2 0.750000 0.416525 0.750000
O O3 0.683556 0.439248 0.625364
O O4 0.754786 0.401933 0.529647
O O5 0.337793 0.750000 0.872081
O O6 0.313577 0.957745 0.896236
O O7 0.358311 0.903532 0.716514
O O8 0.384762 0.909079 0.940139
O O9 0.930685 0.750000 0.305510
O O10 0.962347 0.892329 0.165449
O O11 0.888477 0.908445 0.212697
O O12 0.936780 0.949135 0.388407
O O13 0.000000 0.250000 0.966699
O O14 0.000000 0.500000 0.000000
O O15 0.375308 0.000000 0.500000
#
# Coordination Sequence:
#
# PCOD9538959 Si02
#       7
#    16  16  16   8  16   8   8
#     4  11  22  36  53  75 107 148 190 235 289 347
#     4  10  21  36  56  80 112 152 191 242 294 344
#     4  10  21  39  64  90 120 159 197 244 300 359
#     4  10  22  43  68  98 132 167 207 246 299 366
#     4  11  22  38  55  80 114 148 199 241 291 354
#     4   9  20  37  60  89 120 150 196 241 288 357
#     4  11  20  38  54  79 106 144 192 243 292 356
#
# _framework density 19.044640999999999
#
# number of rings (size 3 to 8) (size 9 to 14) (size 15 to 20)
#    0.000    1.636    2.727    2.182    0.000    1.818 
#    0.000    7.273    0.000    0.000    0.000    0.000 
#    0.000    0.000    0.000    0.000    0.000    0.000 
#
# Total GULP energy -245142.135122 kJ/mol
# GULP energy per Si atom -5571.412162 kJ/mol
# Density = 1.900129 g / cm^3
# Si number density = 19.044641 Si / 1000 Ang^3
#
#
#
# Elastic Constant Matrix: (Units=GPa)
#
#
# Indices 1 2 3 4 5 6 
#
# 1 51.9495 23.3900 6.5200 0.0000 0.0000 0.0000
# 2 23.3900 93.1179 32.2628 0.0000 0.0000 0.0000
# 3 6.5200 32.2628 92.6386 0.0000 0.0000 0.0000
# 4 0.0000 0.0000 0.0000 22.8812 0.0000 0.0000
# 5 0.0000 0.0000 0.0000 0.0000 21.5089 0.0000
# 6 0.0000 0.0000 0.0000 0.0000 0.0000 19.5915
#
#
#
# Elastic Compliance Matrix: (Units=1/GPa)
#
#
# Indices 1 2 3 4 5 6 
#
# 1 0.021719 -0.005602 0.000422 0.000000 0.000000 0.000000
# 2 -0.005602 0.013658 -0.004362 0.000000 0.000000 0.000000
# 3 0.000422 -0.004362 0.012284 0.000000 0.000000 0.000000
# 4 0.000000 0.000000 0.000000 0.043704 0.000000 0.000000
# 5 0.000000 0.000000 0.000000 0.000000 0.046492 0.000000
# 6 0.000000 0.000000 0.000000 0.000000 0.000000 0.051043
#
#
# Mechanical properties :
#
#
# Convention : Reuss Voigt Hill
#
# Bulk Modulus (GPa) = 34.99314 40.22794 37.61054
# Shear Modulus (GPa) = 22.98763 24.49852 23.74308
#
# Velocity S-wave (km/s) = 3.47802 3.59050 3.53470
# Velocity P-wave (km/s) = 5.87733 6.19336 6.03741
#
# Compressibility (1/GPa) = 0.02857703
#
# Stress axis : x y z
#
# Youngs Moduli (GPa) = 46.04343 73.21960 81.40603
#
# Poissons Ratio (x) = 0.41016 -0.03438
# Poissons Ratio (y) = 0.25792 0.35511
# Poissons Ratio (z) = -0.01945 0.31940
#
# Static dielectric constant tensor:
#      x y z
#    x 1.642450 0.000000 0.000000 
#    y 0.000000 1.661000 0.000000 
#    z 0.000000 0.000000 1.723080 
# 
# From -- ./inp_files/27017.got.cif
#   From: 2010.05.17/outbox.cif.g08.bks.cpg/sg74_14_cif.got.tgz:27017.got - 2010.06.03 17:57:02.
