data_PCOD9538783
_publ_section_title
;
Structure prediction by ZEFSAII (Michael W. Deem and Ramdas Pophale) SiO2 
 PCOD9538783
Probable space group: I M M A
;
_chemical_formula_sum "Si O2"
_cell_formula_units_Z 96
_cell_length_a 22.391818
_cell_length_b 25.307848
_cell_length_c 9.099301
_cell_angle_alpha 90.000000
_cell_angle_beta 90.000000
_cell_angle_gamma 90.000000
_cell_volume 5156.471295
_symmetry_space_group_name_H-M "I M M A"
_symmetry_group_IT_number 74
_symmetry_cell_setting 'orthorhombic'
loop_
_space_group_symop_operation_xyz
x,y,z
-x,1/2-y,z
x,-y,-z
-x,1/2+y,-z
-x,-y,-z
x,1/2+y,-z
-x,y,z
x,1/2-y,z
1/2+x,1/2+y,1/2+z
1/2-x,-y,1/2+z
1/2+x,1/2-y,1/2-z
1/2-x,y,1/2-z
1/2-x,1/2-y,1/2-z
1/2+x,y,1/2-z
1/2-x,1/2+y,1/2+z
1/2+x,-y,1/2+z
loop_
_atom_site_type_symbol
_atom_site_label
_atom_site_fract_x
_atom_site_fract_y
_atom_site_fract_z
Si Si1 0.618668 0.130960 0.279641
Si Si2 0.000000 0.687400 0.818566
Si Si3 0.500000 0.812981 0.339489
Si Si4 0.673888 0.813329 0.446416
Si Si5 0.883149 0.652306 0.336662
Si Si6 0.194783 0.806472 0.579684
Si Si7 0.071855 0.060159 0.453162
O O1 0.559938 0.165993 0.243912
O O2 0.634948 0.150175 0.443319
O O3 0.677581 0.148394 0.192281
O O4 0.598695 0.075329 0.208047
O O5 0.000000 0.750000 0.816527
O O6 0.000000 0.668719 0.990073
O O7 0.500000 0.750000 0.345475
O O8 0.442531 0.831333 0.249238
O O9 0.655001 0.750000 0.441540
O O10 0.666707 0.841668 0.289923
O O11 0.741838 0.812687 0.502233
O O12 0.857831 0.691115 0.460488
O O13 0.897544 0.598714 0.425954
O O14 0.192738 0.750000 0.658624
O O15 0.000000 0.068871 0.451881
O O16 0.082520 0.000000 0.500000
#
# Coordination Sequence:
#
# PCOD9538783 Si02
#       7
#    16   8   8  16  16  16  16
#     4  11  21  35  57  82 112 150 190 231 278 335
#     4  11  20  31  51  84 124 154 173 219 287 348
#     4  11  20  31  51  84 124 154 173 219 287 348
#     4  11  21  36  57  84 123 158 182 218 271 341
#     4  11  21  35  57  82 112 150 190 231 278 335
#     4  10  21  34  53  83 118 158 194 219 262 334
#     4  10  22  42  60  79 109 146 192 244 291 330
#
# _framework density 18.617381999999999
#
# number of rings (size 3 to 8) (size 9 to 14) (size 15 to 20)
#    0.000    1.333    3.333    4.000    0.000    2.667 
#    0.000    3.333    0.000   19.000    0.000    0.000 
#    0.000    0.000    0.000    0.000    0.000    0.000 
#
# Total GULP energy -267294.705608 kJ/mol
# GULP energy per Si atom -5568.639700 kJ/mol
# Density = 1.857501 g / cm^3
# Si number density = 18.617382 Si / 1000 Ang^3
#
#
#
# Elastic Constant Matrix: (Units=GPa)
#
#
# Indices 1 2 3 4 5 6 
#
# 1 74.2169 23.7603 9.2941 0.0000 0.0000 0.0000
# 2 23.7603 100.1692 31.1980 0.0000 0.0000 0.0000
# 3 9.2941 31.1980 79.7276 0.0000 0.0000 0.0000
# 4 0.0000 0.0000 0.0000 20.9219 0.0000 0.0000
# 5 0.0000 0.0000 0.0000 0.0000 38.0529 0.0000
# 6 0.0000 0.0000 0.0000 0.0000 0.0000 19.0304
#
#
#
# Elastic Compliance Matrix: (Units=1/GPa)
#
#
# Indices 1 2 3 4 5 6 
#
# 1 0.014592 -0.003338 -0.000395 0.000000 0.000000 0.000000
# 2 -0.003338 0.012132 -0.004358 0.000000 0.000000 0.000000
# 3 -0.000395 -0.004358 0.014294 0.000000 0.000000 0.000000
# 4 0.000000 0.000000 0.000000 0.047797 0.000000 0.000000
# 5 0.000000 0.000000 0.000000 0.000000 0.026279 0.000000
# 6 0.000000 0.000000 0.000000 0.000000 0.000000 0.052548
#
#
# Mechanical properties :
#
#
# Convention : Reuss Voigt Hill
#
# Bulk Modulus (GPa) = 40.26422 42.51315 41.38869
# Shear Modulus (GPa) = 26.02760 28.25846 27.14303
#
# Velocity S-wave (km/s) = 3.74308 3.90019 3.82244
# Velocity P-wave (km/s) = 6.35256 6.57014 6.46227
#
# Compressibility (1/GPa) = 0.02483594
#
# Stress axis : x y z
#
# Youngs Moduli (GPa) = 68.52965 82.42400 69.95857
#
# Poissons Ratio (x) = 0.27516 0.02761
# Poissons Ratio (y) = 0.22878 0.30490
# Poissons Ratio (z) = 0.02705 0.35923
#
# Static dielectric constant tensor:
#      x y z
#    x 1.680780 0.000000 0.000000 
#    y 0.000000 1.613780 0.000000 
#    z 0.000000 0.000000 1.719380 
# 
# From -- ./inp_files/13961.got.cif
#   From: 2010.05.17/outbox.cif.g08.bks.cpg/sg74_7_cif.got.tgz:13961.got - 2010.06.03 17:57:02.
