data_PCOD9538481
_publ_section_title
;
Structure prediction by ZEFSAII (Michael W. Deem and Ramdas Pophale) SiO2 
 PCOD9538481
Probable space group: I M M A
;
_chemical_formula_sum "Si O2"
_cell_formula_units_Z 104
_cell_length_a 20.382998
_cell_length_b 27.543631
_cell_length_c 9.517391
_cell_angle_alpha 90.000000
_cell_angle_beta 90.000000
_cell_angle_gamma 90.000000
_cell_volume 5343.270554
_symmetry_space_group_name_H-M "I M M A"
_symmetry_group_IT_number 74
_symmetry_cell_setting 'orthorhombic'
loop_
_space_group_symop_operation_xyz
x,y,z
-x,1/2-y,z
x,-y,-z
-x,1/2+y,-z
-x,-y,-z
x,1/2+y,-z
-x,y,z
x,1/2-y,z
1/2+x,1/2+y,1/2+z
1/2-x,-y,1/2+z
1/2+x,1/2-y,1/2-z
1/2-x,y,1/2-z
1/2-x,1/2-y,1/2-z
1/2+x,y,1/2-z
1/2-x,1/2+y,1/2+z
1/2+x,-y,1/2+z
loop_
_atom_site_type_symbol
_atom_site_label
_atom_site_fract_x
_atom_site_fract_y
_atom_site_fract_z
Si Si1 0.273648 0.619964 0.403832
Si Si2 0.116193 0.954100 0.099599
Si Si3 0.389660 0.693388 0.396486
Si Si4 0.816051 0.377735 0.341490
Si Si5 0.074756 0.306729 0.225716
Si Si6 0.181736 0.488626 0.334975
Si Si7 0.500000 0.877174 0.342622
O O1 0.250000 0.606716 0.250000
O O2 0.320748 0.576403 0.456568
O O3 0.319206 0.667459 0.395671
O O4 0.211127 0.627157 0.501414
O O5 0.057233 0.916607 0.111313
O O6 0.133291 0.975226 0.253813
O O7 0.104020 0.000000 0.000000
O O8 0.386142 0.750000 0.360403
O O9 0.416706 0.689123 0.557009
O O10 0.441759 0.663020 0.307446
O O11 0.750000 0.370091 0.250000
O O12 0.871533 0.340170 0.298191
O O13 0.840363 0.432730 0.321069
O O14 0.084111 0.250000 0.261072
O O15 0.000000 0.320832 0.259978
O O16 0.189396 0.500000 0.500000
O O17 0.250000 0.491833 0.250000
#
# Coordination Sequence:
#
# PCOD9538481 Si02
#       7
#    16  16  16  16  16  16   8
#     4  11  23  38  60  90 126 160 201 252 307 366
#     4  11  22  38  59  91 124 164 206 254 305 362
#     4  10  20  37  63  91 118 155 205 260 312 366
#     4  11  21  36  62  96 120 156 206 255 307 362
#     4  10  21  38  62  91 123 156 198 258 317 366
#     4  11  22  37  60  88 122 162 206 253 308 367
#     4  10  22  36  61  88 123 160 207 256 305 368
#
# _framework density 19.463733999999999
#
# number of rings (size 3 to 8) (size 9 to 14) (size 15 to 20)
#    0.000    1.385    2.308    5.077    2.154    1.231 
#    1.385    0.385   13.538    0.000    0.000    0.000 
#    0.000    0.000    0.000    0.000    0.000    0.000 
#
# Total GULP energy -289560.219854 kJ/mol
# GULP energy per Si atom -5568.465766 kJ/mol
# Density = 1.941943 g / cm^3
# Si number density = 19.463734 Si / 1000 Ang^3
#
#
#
# Elastic Constant Matrix: (Units=GPa)
#
#
# Indices 1 2 3 4 5 6 
#
# 1 76.2322 48.9102 -1.5850 0.0000 0.0000 0.0000
# 2 48.9102 122.8489 -2.2408 0.0000 0.0000 0.0000
# 3 -1.5850 -2.2408 57.4109 0.0000 0.0000 0.0000
# 4 0.0000 0.0000 0.0000 16.9170 0.0000 0.0000
# 5 0.0000 0.0000 0.0000 0.0000 -0.8282 0.0000
# 6 0.0000 0.0000 0.0000 0.0000 0.0000 -5.1344
#
#
#
# Elastic Compliance Matrix: (Units=1/GPa)
#
#
# Indices 1 2 3 4 5 6 
#
# 1 0.017621 -0.007012 0.000213 0.000000 0.000000 0.000000
# 2 -0.007012 0.010936 0.000233 0.000000 0.000000 0.000000
# 3 0.000213 0.000233 0.017433 0.000000 0.000000 0.000000
# 4 0.000000 0.000000 0.000000 0.059112 0.000000 0.000000
# 5 0.000000 0.000000 0.000000 0.000000 -1.207381 0.000000
# 6 0.000000 0.000000 0.000000 0.000000 0.000000 -0.194766
#
#
# Mechanical properties :
#
#
# Convention : Reuss Voigt Hill
#
# Bulk Modulus (GPa) = 30.43307 38.51787 34.47547
# Shear Modulus (GPa) = -3.92785 16.28472 6.17843
#
# Velocity S-wave (km/s) = -1.42212 2.89566 1.78360
# Velocity P-wave (km/s) = 3.60183 5.56887 4.68964
#
# Compressibility (1/GPa) = 0.03285899
#
# Stress axis : x y z
#
# Youngs Moduli (GPa) = 56.75109 91.44228 57.36157
#
# Poissons Ratio (x) = 0.64115 -0.01221
# Poissons Ratio (y) = 0.39791 -0.01338
# Poissons Ratio (z) = -0.01208 -0.02133
#
# Static dielectric constant tensor:
#      x y z
#    x 1.723460 0.000000 0.000000 
#    y 0.000000 1.693180 0.000000 
#    z 0.000000 0.000000 1.756760 
# 
# From -- ./inp_files/12777.got.cif
#   From: 2010.05.17/outbox.cif.g08.bks.cpg/sg74_7_cif.got.tgz:12777.got - 2010.06.03 17:57:02.
