data_PCOD9538933
_publ_section_title
;
Structure prediction by ZEFSAII (Michael W. Deem and Ramdas Pophale) SiO2 
 PCOD9538933
Probable space group: I M M A
;
_chemical_formula_sum "Si O2"
_cell_formula_units_Z 104
_cell_length_a 20.843400
_cell_length_b 8.925402
_cell_length_c 29.339160
_cell_angle_alpha 90.000000
_cell_angle_beta 90.000000
_cell_angle_gamma 90.000000
_cell_volume 5458.131874
_symmetry_space_group_name_H-M "I M M A"
_symmetry_group_IT_number 74
_symmetry_cell_setting 'orthorhombic'
loop_
_space_group_symop_operation_xyz
x,y,z
-x,1/2-y,z
x,-y,-z
-x,1/2+y,-z
-x,-y,-z
x,1/2+y,-z
-x,y,z
x,1/2-y,z
1/2+x,1/2+y,1/2+z
1/2-x,-y,1/2+z
1/2+x,1/2-y,1/2-z
1/2-x,y,1/2-z
1/2-x,1/2-y,1/2-z
1/2+x,y,1/2-z
1/2-x,1/2+y,1/2+z
1/2+x,-y,1/2+z
loop_
_atom_site_type_symbol
_atom_site_label
_atom_site_fract_x
_atom_site_fract_y
_atom_site_fract_z
Si Si1 0.282439 0.413341 0.201948
Si Si2 0.751131 0.926076 0.604693
Si Si3 0.376580 0.067946 0.449349
Si Si4 0.500000 0.427796 0.048919
Si Si5 0.000000 0.432081 0.111934
Si Si6 0.592608 0.923158 0.211007
Si Si7 0.891947 0.429871 0.609001
Si Si8 0.000000 0.928903 0.781922
O O1 0.315498 0.250000 0.192621
O O2 0.250000 0.400092 0.250000
O O3 0.235935 0.435996 0.158965
O O4 0.331891 0.546646 0.208582
O O5 0.761623 0.750000 0.593996
O O6 0.691325 0.977376 0.574087
O O7 0.818979 0.012110 0.602266
O O8 0.377104 0.250000 0.452325
O O9 0.436291 0.023594 0.416589
O O10 0.382758 0.000000 0.500000
O O11 0.500000 0.250000 0.047645
O O12 0.562840 0.489185 0.073703
O O13 0.500000 0.500000 0.000000
O O14 0.000000 0.481942 0.165173
O O15 0.000000 0.250000 0.113215
O O16 0.576981 0.750000 0.217616
O O17 0.577655 0.966668 0.158794
O O18 0.559804 0.014562 0.251417
O O19 0.892852 0.250000 0.604726
O O20 0.000000 0.750000 0.782922
#
# Coordination Sequence:
#
# PCOD9538933 Si02
#       8
#    16  16  16   8   8  16  16   8
#     4   9  18  32  55  82 110 147 193 233 272 333
#     4   9  19  35  57  85 116 151 194 244 292 342
#     4  10  21  39  62  86 114 150 193 245 305 360
#     4  12  25  40  61  87 116 150 193 240 292 343
#     4   9  21  39  61  86 114 148 193 252 308 356
#     4  10  21  36  54  80 117 155 188 228 285 341
#     4  10  21  39  60  84 120 160 198 238 285 344
#     4  11  22  35  58  85 113 150 199 244 289 349
#
# _framework density 19.054137999999998
#
# number of rings (size 3 to 8) (size 9 to 14) (size 15 to 20)
#    0.000    2.154    0.000    2.538    2.154    5.231 
#    0.000    3.077    0.000    0.000    0.000    0.000 
#    0.000    0.000    0.000    0.000    0.000    0.000 
#
# Total GULP energy -289683.389459 kJ/mol
# GULP energy per Si atom -5570.834413 kJ/mol
# Density = 1.901077 g / cm^3
# Si number density = 19.054138 Si / 1000 Ang^3
#
#
#
# Elastic Constant Matrix: (Units=GPa)
#
#
# Indices 1 2 3 4 5 6 
#
# 1 107.2349 37.7510 80.2245 0.0000 0.0000 0.0000
# 2 37.7510 46.5160 60.2063 0.0000 0.0000 0.0000
# 3 80.2245 60.2063 184.3035 0.0000 0.0000 0.0000
# 4 0.0000 0.0000 0.0000 27.9222 0.0000 0.0000
# 5 0.0000 0.0000 0.0000 0.0000 20.2257 0.0000
# 6 0.0000 0.0000 0.0000 0.0000 0.0000 8.1580
#
#
#
# Elastic Compliance Matrix: (Units=1/GPa)
#
#
# Indices 1 2 3 4 5 6 
#
# 1 0.014848 -0.006384 -0.004377 0.000000 0.000000 0.000000
# 2 -0.006384 0.039991 -0.010285 0.000000 0.000000 0.000000
# 3 -0.004377 -0.010285 0.010691 0.000000 0.000000 0.000000
# 4 0.000000 0.000000 0.000000 0.035814 0.000000 0.000000
# 5 0.000000 0.000000 0.000000 0.000000 0.049442 0.000000
# 6 0.000000 0.000000 0.000000 0.000000 0.000000 0.122579
#
#
# Mechanical properties :
#
#
# Convention : Reuss Voigt Hill
#
# Bulk Modulus (GPa) = 42.66799 77.15756 59.91277
# Shear Modulus (GPa) = 15.46694 21.91935 18.69314
#
# Velocity S-wave (km/s) = 2.85219 3.39539 3.13558
# Velocity P-wave (km/s) = 5.76960 7.48020 6.67988
#
# Compressibility (1/GPa) = 0.02343677
#
# Stress axis : x y z
#
# Youngs Moduli (GPa) = 67.35076 25.00551 93.53603
#
# Poissons Ratio (x) = 0.15964 0.40945
# Poissons Ratio (y) = 0.42997 0.96202
# Poissons Ratio (z) = 0.29482 0.25718
#
# Static dielectric constant tensor:
#      x y z
#    x 1.679410 0.000000 0.000000 
#    y 0.000000 1.682880 0.000000 
#    z 0.000000 0.000000 1.663870 
# 
# From -- ./inp_files/68306.got.cif
#   From: 2010.05.17/outbox.cif.g08.bks.cpg/sg74_35_cif.got.tgz:68306.got - 2010.06.03 17:57:02.
