data_PCOD9538556
_publ_section_title
;
Structure prediction by ZEFSAII (Michael W. Deem and Ramdas Pophale) SiO2 
 PCOD9538556
Probable space group: I M M A
;
_chemical_formula_sum "Si O2"
_cell_formula_units_Z 104
_cell_length_a 8.851431
_cell_length_b 24.247367
_cell_length_c 25.415316
_cell_angle_alpha 90.000000
_cell_angle_beta 90.000000
_cell_angle_gamma 90.000000
_cell_volume 5454.734136
_symmetry_space_group_name_H-M "I M M A"
_symmetry_group_IT_number 74
_symmetry_cell_setting 'orthorhombic'
loop_
_space_group_symop_operation_xyz
x,y,z
-x,1/2-y,z
x,-y,-z
-x,1/2+y,-z
-x,-y,-z
x,1/2+y,-z
-x,y,z
x,1/2-y,z
1/2+x,1/2+y,1/2+z
1/2-x,-y,1/2+z
1/2+x,1/2-y,1/2-z
1/2-x,y,1/2-z
1/2-x,1/2-y,1/2-z
1/2+x,y,1/2-z
1/2-x,1/2+y,1/2+z
1/2+x,-y,1/2+z
loop_
_atom_site_type_symbol
_atom_site_label
_atom_site_fract_x
_atom_site_fract_y
_atom_site_fract_z
Si Si1 0.318751 0.629167 0.308411
Si Si2 0.821425 0.440796 0.601294
Si Si3 0.817936 0.750000 0.970332
Si Si4 0.179841 0.130114 0.991138
Si Si5 0.179448 0.559759 0.903953
Si Si6 0.681564 0.361848 0.306501
Si Si7 0.318602 0.250000 0.691544
Si Si8 0.181049 0.750000 0.646390
O O1 0.500000 0.625921 0.305472
O O2 0.250000 0.625237 0.250000
O O3 0.255427 0.582393 0.346012
O O4 0.276519 0.690260 0.331431
O O5 0.767858 0.401527 0.554033
O O6 0.767161 0.502852 0.590699
O O7 0.000000 0.438991 0.606791
O O8 0.781391 0.694293 0.001659
O O9 0.736220 0.750000 0.914088
O O10 0.000000 0.750000 0.960485
O O11 0.208043 0.099854 0.046719
O O12 0.000000 0.126284 0.979962
O O13 0.217083 0.592313 0.850549
O O14 0.000000 0.547735 0.903563
O O15 0.500000 0.356420 0.303499
O O16 0.750000 0.376315 0.250000
O O17 0.752143 0.304178 0.325698
O O18 0.500000 0.250000 0.695240
O O19 0.250000 0.250000 0.750000
O O20 0.000000 0.750000 0.649377
#
# Coordination Sequence:
#
# PCOD9538556 Si02
#       8
#    16  16   8  16  16  16   8   8
#     4  10  20  38  62  88 119 154 196 243 300 362
#     4  12  26  40  58  88 125 162 203 251 302 362
#     4  10  20  40  68  96 124 162 204 255 314 373
#     4  10  21  41  67  91 118 156 203 251 307 366
#     4  10  22  42  66  86 115 160 208 258 308 362
#     4  11  23  41  64  93 126 163 210 259 309 370
#     4   8  16  31  56  85 110 142 184 230 281 341
#     4  12  23  37  61  93 130 168 204 251 310 372
#
# _framework density 19.066006999999999
#
# number of rings (size 3 to 8) (size 9 to 14) (size 15 to 20)
#    0.000    1.538    1.538    3.692    0.000    6.154 
#    0.000    4.615    0.000    0.000    0.000    0.000 
#    0.000    0.000    0.000    0.000    0.000    0.000 
#
# Total GULP energy -290604.473364 kJ/mol
# GULP energy per Si atom -5588.547565 kJ/mol
# Density = 1.902261 g / cm^3
# Si number density = 19.066007 Si / 1000 Ang^3
#
#
#
# Elastic Constant Matrix: (Units=GPa)
#
#
# Indices 1 2 3 4 5 6 
#
# 1 77.3741 68.2187 56.4735 0.0000 0.0000 0.0000
# 2 68.2187 131.2552 46.5266 0.0000 0.0000 0.0000
# 3 56.4735 46.5266 91.3685 0.0000 0.0000 0.0000
# 4 0.0000 0.0000 0.0000 0.9848 0.0000 0.0000
# 5 0.0000 0.0000 0.0000 0.0000 33.7199 0.0000
# 6 0.0000 0.0000 0.0000 0.0000 0.0000 14.5556
#
#
#
# Elastic Compliance Matrix: (Units=1/GPa)
#
#
# Indices 1 2 3 4 5 6 
#
# 1 0.035725 -0.013106 -0.015407 0.000000 0.000000 0.000000
# 2 -0.013106 0.014105 0.000918 0.000000 0.000000 0.000000
# 3 -0.015407 0.000918 0.020000 0.000000 0.000000 0.000000
# 4 0.000000 0.000000 0.000000 1.015447 0.000000 0.000000
# 5 0.000000 0.000000 0.000000 0.000000 0.029656 0.000000
# 6 0.000000 0.000000 0.000000 0.000000 0.000000 0.068702
#
#
# Mechanical properties :
#
#
# Convention : Reuss Voigt Hill
#
# Bulk Modulus (GPa) = 68.30720 71.38173 69.84446
# Shear Modulus (GPa) = 4.02024 18.43732 11.22878
#
# Velocity S-wave (km/s) = 1.45367 3.11308 2.42945
# Velocity P-wave (km/s) = 6.22270 7.10227 6.67698
#
# Compressibility (1/GPa) = 0.01463975
#
# Stress axis : x y z
#
# Youngs Moduli (GPa) = 27.99165 70.89604 50.00006
#
# Poissons Ratio (x) = 0.92919 0.77035
# Poissons Ratio (y) = 0.36687 -0.04591
# Poissons Ratio (z) = 0.43127 -0.06510
#
# Static dielectric constant tensor:
#      x y z
#    x 1.635690 0.000000 0.000000 
#    y 0.000000 1.664180 0.000000 
#    z 0.000000 0.000000 1.636150 
# 
# From -- ./inp_files/64578.got.cif
#   From: 2010.05.17/outbox.cif.g08.bks.cpg/sg74_33_cif.got.tgz:64578.got - 2010.06.03 17:57:02.
