data_PCOD9538281
_publ_section_title
;
Structure prediction by ZEFSAII (Michael W. Deem and Ramdas Pophale) SiO2 
 PCOD9538281
Probable space group: I M M A
;
_chemical_formula_sum "Si O2"
_cell_formula_units_Z 116
_cell_length_a 25.035318
_cell_length_b 10.328795
_cell_length_c 24.952259
_cell_angle_alpha 90.000000
_cell_angle_beta 90.000000
_cell_angle_gamma 90.000000
_cell_volume 6452.271594
_symmetry_space_group_name_H-M "I M M A"
_symmetry_group_IT_number 74
_symmetry_cell_setting 'orthorhombic'
loop_
_space_group_symop_operation_xyz
x,y,z
-x,1/2-y,z
x,-y,-z
-x,1/2+y,-z
-x,-y,-z
x,1/2+y,-z
-x,y,z
x,1/2-y,z
1/2+x,1/2+y,1/2+z
1/2-x,-y,1/2+z
1/2+x,1/2-y,1/2-z
1/2-x,y,1/2-z
1/2-x,1/2-y,1/2-z
1/2+x,y,1/2-z
1/2-x,1/2+y,1/2+z
1/2+x,-y,1/2+z
loop_
_atom_site_type_symbol
_atom_site_label
_atom_site_fract_x
_atom_site_fract_y
_atom_site_fract_z
Si Si1 0.361453 0.598345 0.547860
Si Si2 0.755627 0.101024 0.113081
Si Si3 0.500000 0.750000 0.255123
Si Si4 0.907645 0.530032 0.246905
Si Si5 0.792009 0.395153 0.798234
Si Si6 0.145215 0.404259 0.449308
Si Si7 0.441375 0.597156 0.640768
Si Si8 0.437650 0.595101 0.856817
O O1 0.371199 0.500000 0.500000
O O2 0.373492 0.750000 0.535108
O O3 0.300186 0.593296 0.566709
O O4 0.397299 0.553400 0.598342
O O5 0.756179 0.250000 0.133551
O O6 0.697906 0.075246 0.087319
O O7 0.773851 0.001444 0.158636
O O8 0.452899 0.861230 0.254869
O O9 0.849876 0.578425 0.227650
O O10 0.924679 0.428013 0.201444
O O11 0.908947 0.470679 0.306238
O O12 0.792088 0.250000 0.822154
O O13 0.750000 0.398370 0.750000
O O14 0.146299 0.500000 0.500000
O O15 0.144456 0.250000 0.464023
O O16 0.094161 0.432125 0.411518
O O17 0.500000 0.538603 0.630694
O O18 0.444776 0.750000 0.633100
O O19 0.500000 0.554799 0.858820
O O20 0.436257 0.750000 0.849084
#
# Coordination Sequence:
#
# PCOD9538281 Si02
#       8
#    16  16   4  16  16  16  16  16
#     4  10  21  37  55  82 111 146 191 238 286 342
#     4  10  21  39  61  84 115 150 198 246 287 351
#     4  12  24  36  56  88 128 164 192 244 284 366
#     4  12  21  39  59  85 123 157 195 239 299 351
#     4  11  24  38  56  87 123 155 189 237 295 354
#     4  10  22  41  62  90 120 156 201 251 300 355
#     4  10  20  36  60  83 110 148 198 243 288 347
#     4  10  21  38  62  88 118 155 203 248 293 353
#
# _framework density 17.978165000000001
#
# number of rings (size 3 to 8) (size 9 to 14) (size 15 to 20)
#    0.000    1.517    3.448    1.655    0.000    3.586 
#    2.483    0.000    0.000    0.000    0.000    0.000 
#    0.000    0.000    0.000    0.000    0.000    0.000 
#
# Total GULP energy -323017.816141 kJ/mol
# GULP energy per Si atom -5569.272692 kJ/mol
# Density = 1.793725 g / cm^3
# Si number density = 17.978165 Si / 1000 Ang^3
#
#
#
# Elastic Constant Matrix: (Units=GPa)
#
#
# Indices 1 2 3 4 5 6 
#
# 1 90.8487 42.6723 48.8281 0.0000 0.0000 0.0000
# 2 42.6723 90.1488 71.4557 0.0000 0.0000 0.0000
# 3 48.8281 71.4557 101.7306 0.0000 0.0000 0.0000
# 4 0.0000 0.0000 0.0000 -35.0369 0.0000 0.0000
# 5 0.0000 0.0000 0.0000 0.0000 12.6034 0.0000
# 6 0.0000 0.0000 0.0000 0.0000 0.0000 24.4538
#
#
#
# Elastic Compliance Matrix: (Units=1/GPa)
#
#
# Indices 1 2 3 4 5 6 
#
# 1 0.015231 -0.003192 -0.005068 0.000000 0.000000 0.000000
# 2 -0.003192 0.025695 -0.016516 0.000000 0.000000 0.000000
# 3 -0.005068 -0.016516 0.023863 0.000000 0.000000 0.000000
# 4 0.000000 0.000000 0.000000 -0.028541 0.000000 0.000000
# 5 0.000000 0.000000 0.000000 0.000000 0.079344 0.000000
# 6 0.000000 0.000000 0.000000 0.000000 0.000000 0.040893
#
#
# Mechanical properties :
#
#
# Convention : Reuss Voigt Hill
#
# Bulk Modulus (GPa) = 65.63290 67.62670 66.62980
# Shear Modulus (GPa) = 23.68355 8.38885 16.03620
#
# Velocity S-wave (km/s) = 3.63347 2.16247 2.98985
# Velocity P-wave (km/s) = 7.36132 6.62817 7.00435
#
# Compressibility (1/GPa) = 0.01523626
#
# Stress axis : x y z
#
# Youngs Moduli (GPa) = 65.65699 38.91761 41.90522
#
# Poissons Ratio (x) = 0.12424 0.21238
# Poissons Ratio (y) = 0.20960 0.69211
# Poissons Ratio (z) = 0.33275 0.64277
#
# Static dielectric constant tensor:
#      x y z
#    x 1.641420 0.000000 0.000000 
#    y 0.000000 1.622170 0.000000 
#    z 0.000000 0.000000 1.580560 
# 
# From -- ./inp_files/64867.got.cif
#   From: 2010.05.17/outbox.cif.g08.bks.cpg/sg74_33_cif.got.tgz:64867.got - 2010.06.03 17:57:02.
