data_PCOD9538299
_publ_section_title
;
Structure prediction by ZEFSAII (Michael W. Deem and Ramdas Pophale) SiO2 
 PCOD9538299
Probable space group: I M M A
;
_chemical_formula_sum "Si O2"
_cell_formula_units_Z 88
_cell_length_a 9.718274
_cell_length_b 21.560790
_cell_length_c 21.826881
_cell_angle_alpha 90.000000
_cell_angle_beta 90.000000
_cell_angle_gamma 90.000000
_cell_volume 4573.466369
_symmetry_space_group_name_H-M "I M M A"
_symmetry_group_IT_number 74
_symmetry_cell_setting 'orthorhombic'
loop_
_space_group_symop_operation_xyz
x,y,z
-x,1/2-y,z
x,-y,-z
-x,1/2+y,-z
-x,-y,-z
x,1/2+y,-z
-x,y,z
x,1/2-y,z
1/2+x,1/2+y,1/2+z
1/2-x,-y,1/2+z
1/2+x,1/2-y,1/2-z
1/2-x,y,1/2-z
1/2-x,1/2-y,1/2-z
1/2+x,y,1/2-z
1/2-x,1/2+y,1/2+z
1/2+x,-y,1/2+z
loop_
_atom_site_type_symbol
_atom_site_label
_atom_site_fract_x
_atom_site_fract_y
_atom_site_fract_z
Si Si1 0.340965 0.540165 0.131692
Si Si2 0.847162 0.055674 0.064017
Si Si3 0.841450 0.873635 0.060358
Si Si4 0.351170 0.857167 0.673802
Si Si5 0.665938 0.750000 0.516547
Si Si6 0.335181 0.250000 0.144832
Si Si7 0.250000 0.529676 0.750000
O O1 0.500000 0.548894 0.117630
O O2 0.273516 0.486042 0.090320
O O3 0.255368 0.601550 0.114249
O O4 0.322623 0.514104 0.200424
O O5 0.847103 0.118508 0.103959
O O6 0.000000 0.027688 0.074538
O O7 0.833501 0.075319 0.994101
O O8 0.000000 0.869247 0.080629
O O9 0.805263 0.809759 0.026183
O O10 0.500000 0.827477 0.685469
O O11 0.224380 0.810475 0.679683
O O12 0.341365 0.920750 0.712333
O O13 0.500000 0.750000 0.531527
O O14 0.758775 0.750000 0.578086
O O15 0.500000 0.250000 0.140125
#
# Coordination Sequence:
#
# PCOD9538299 Si02
#       7
#    16  16  16  16   8   8   8
#     4  11  23  37  57  86 118 149 189 245 301 346
#     4   9  18  34  57  84 115 153 195 235 281 347
#     4  10  20  36  60  87 116 153 194 233 282 349
#     4  10  20  38  61  80 110 159 206 241 281 342
#     4  10  20  40  63  86 119 160 200 231 274 351
#     4  12  24  35  55  88 123 154 190 243 298 340
#     4  10  24  43  60  81 110 154 204 252 290 340
#
# _framework density 19.241423000000001
#
# number of rings (size 3 to 8) (size 9 to 14) (size 15 to 20)
#    0.000    1.818    1.818    2.455    0.000    9.818 
#    0.000    0.000    0.000    0.545    0.000    0.000 
#    0.000    0.000    0.000    0.000    0.000    0.000 
#
# Total GULP energy -245517.703328 kJ/mol
# GULP energy per Si atom -5579.947803 kJ/mol
# Density = 1.919763 g / cm^3
# Si number density = 19.241423 Si / 1000 Ang^3
#
#
#
# Elastic Constant Matrix: (Units=GPa)
#
#
# Indices 1 2 3 4 5 6 
#
# 1 142.4421 51.9564 46.3462 0.0000 0.0000 0.0000
# 2 51.9564 80.8600 41.1016 0.0000 0.0000 0.0000
# 3 46.3462 41.1016 76.4350 0.0000 0.0000 0.0000
# 4 0.0000 0.0000 0.0000 29.6211 0.0000 0.0000
# 5 0.0000 0.0000 0.0000 0.0000 12.9213 0.0000
# 6 0.0000 0.0000 0.0000 0.0000 0.0000 22.6847
#
#
#
# Elastic Compliance Matrix: (Units=1/GPa)
#
#
# Indices 1 2 3 4 5 6 
#
# 1 0.009813 -0.004515 -0.003522 0.000000 0.000000 0.000000
# 2 -0.004515 0.019096 -0.007531 0.000000 0.000000 0.000000
# 3 -0.003522 -0.007531 0.019268 0.000000 0.000000 0.000000
# 4 0.000000 0.000000 0.000000 0.033760 0.000000 0.000000
# 5 0.000000 0.000000 0.000000 0.000000 0.077392 0.000000
# 6 0.000000 0.000000 0.000000 0.000000 0.000000 0.044083
#
#
# Mechanical properties :
#
#
# Convention : Reuss Voigt Hill
#
# Bulk Modulus (GPa) = 58.68144 64.28282 61.48213
# Shear Modulus (GPa) = 20.81346 23.73430 22.27388
#
# Velocity S-wave (km/s) = 3.29249 3.51593 3.40604
# Velocity P-wave (km/s) = 6.70952 7.06848 6.89134
#
# Compressibility (1/GPa) = 0.01704116
#
# Stress axis : x y z
#
# Youngs Moduli (GPa) = 101.90171 52.36634 51.89832
#
# Poissons Ratio (x) = 0.23644 0.18281
# Poissons Ratio (y) = 0.46010 0.39084
# Poissons Ratio (z) = 0.35894 0.39437
#
# Static dielectric constant tensor:
#      x y z
#    x 1.661290 0.000000 0.000000 
#    y 0.000000 1.711830 0.000000 
#    z 0.000000 0.000000 1.708300 
# 
# From -- ./inp_files/57055.got.cif
#   From: 2010.05.17/outbox.cif.g08.bks.cpg/sg74_29_cif.got.tgz:57055.got - 2010.06.03 17:57:02.
