data_PCOD9538669
_publ_section_title
;
Structure prediction by ZEFSAII (Michael W. Deem and Ramdas Pophale) SiO2 
 PCOD9538669
Probable space group: I M M A
;
_chemical_formula_sum "Si O2"
_cell_formula_units_Z 48
_cell_length_a 16.064649
_cell_length_b 16.184634
_cell_length_c 8.834182
_cell_angle_alpha 90.000000
_cell_angle_beta 90.000000
_cell_angle_gamma 90.000000
_cell_volume 2296.891423
_symmetry_space_group_name_H-M "I M M A"
_symmetry_group_IT_number 74
_symmetry_cell_setting 'orthorhombic'
loop_
_space_group_symop_operation_xyz
x,y,z
-x,1/2-y,z
x,-y,-z
-x,1/2+y,-z
-x,-y,-z
x,1/2+y,-z
-x,y,z
x,1/2-y,z
1/2+x,1/2+y,1/2+z
1/2-x,-y,1/2+z
1/2+x,1/2-y,1/2-z
1/2-x,y,1/2-z
1/2-x,1/2-y,1/2-z
1/2+x,y,1/2-z
1/2-x,1/2+y,1/2+z
1/2+x,-y,1/2+z
loop_
_atom_site_type_symbol
_atom_site_label
_atom_site_fract_x
_atom_site_fract_y
_atom_site_fract_z
Si Si1 0.595107 0.093656 0.858281
Si Si2 0.843492 0.416943 0.312738
Si Si3 0.343417 0.750000 0.677621
Si Si4 0.157727 0.250000 0.818003
O O1 0.500000 0.098433 0.912211
O O2 0.613659 0.168102 0.745823
O O3 0.610644 0.003640 0.787056
O O4 0.653700 0.098731 0.006497
O O5 0.750000 0.426498 0.250000
O O6 0.881996 0.335556 0.236146
O O7 0.250000 0.750000 0.750000
O O8 0.339295 0.750000 0.498073
O O9 0.250000 0.250000 0.750000
#
# Coordination Sequence:
#
# PCOD9538669 Si02
#       4
#    16  16   8   8
#     4  11  24  43  64  94 133 172 211 268 332 381
#     4  10  20  39  66  94 123 166 219 266 316 383
#     4  10  22  38  61  93 123 156 208 266 312 360
#     4  12  23  40  67  95 124 168 219 262 312 386
#
# _framework density 20.897808999999999
#
# number of rings (size 3 to 8) (size 9 to 14) (size 15 to 20)
#    0.000    1.333    0.000    8.500    0.000    6.667 
#    0.000   10.833    0.000    0.000    0.000    0.000 
#    0.000    0.000    0.000    0.000    0.000    0.000 
#
# Total GULP energy -134138.640820 kJ/mol
# GULP energy per Si atom -5589.110034 kJ/mol
# Density = 2.085024 g / cm^3
# Si number density = 20.897809 Si / 1000 Ang^3
#
#
#
# Elastic Constant Matrix: (Units=GPa)
#
#
# Indices 1 2 3 4 5 6 
#
# 1 71.9283 13.1335 33.3767 0.0000 0.0000 0.0000
# 2 13.1335 208.7823 97.2507 0.0000 0.0000 0.0000
# 3 33.3767 97.2507 137.1233 0.0000 0.0000 0.0000
# 4 0.0000 0.0000 0.0000 19.9679 0.0000 0.0000
# 5 0.0000 0.0000 0.0000 0.0000 16.3305 0.0000
# 6 0.0000 0.0000 0.0000 0.0000 0.0000 -108.4553
#
#
#
# Elastic Compliance Matrix: (Units=1/GPa)
#
#
# Indices 1 2 3 4 5 6 
#
# 1 0.015871 0.001196 -0.004711 0.000000 0.000000 0.000000
# 2 0.001196 0.007243 -0.005428 0.000000 0.000000 0.000000
# 3 -0.004711 -0.005428 0.012289 0.000000 0.000000 0.000000
# 4 0.000000 0.000000 0.000000 0.050080 0.000000 0.000000
# 5 0.000000 0.000000 0.000000 0.000000 0.061235 0.000000
# 6 0.000000 0.000000 0.000000 0.000000 0.000000 -0.009220
#
#
# Mechanical properties :
#
#
# Convention : Reuss Voigt Hill
#
# Bulk Modulus (GPa) = 57.08982 78.37284 67.73133
# Shear Modulus (GPa) = 31.01309 3.84016 17.42662
#
# Velocity S-wave (km/s) = 3.85650 1.35705 2.89086
# Velocity P-wave (km/s) = 6.87081 6.32770 6.60484
#
# Compressibility (1/GPa) = 0.01751626
#
# Stress axis : x y z
#
# Youngs Moduli (GPa) = 63.00992 138.06961 81.37335
#
# Poissons Ratio (x) = -0.16516 0.38338
# Poissons Ratio (y) = -0.07537 0.44168
# Poissons Ratio (z) = 0.29686 0.74942
#
# Static dielectric constant tensor:
#      x y z
#    x 1.741720 0.000000 0.000000 
#    y 0.000000 1.789920 0.000000 
#    z 0.000000 0.000000 1.715540 
# 
# From -- ./inp_files/8109.got.cif
#   From: 2010.05.17/outbox.cif.g08.bks.cpg/sg74_5_cif.got.tgz:8109.got - 2010.06.03 17:57:02.
