data_PCOD9538433
_publ_section_title
;
Structure prediction by ZEFSAII (Michael W. Deem and Ramdas Pophale) SiO2 
 PCOD9538433
Probable space group: I M M A
;
_chemical_formula_sum "Si O2"
_cell_formula_units_Z 84
_cell_length_a 20.624367
_cell_length_b 7.496977
_cell_length_c 25.473849
_cell_angle_alpha 90.000000
_cell_angle_beta 90.000000
_cell_angle_gamma 90.000000
_cell_volume 3938.776850
_symmetry_space_group_name_H-M "I M M A"
_symmetry_group_IT_number 74
_symmetry_cell_setting 'orthorhombic'
loop_
_space_group_symop_operation_xyz
x,y,z
-x,1/2-y,z
x,-y,-z
-x,1/2+y,-z
-x,-y,-z
x,1/2+y,-z
-x,y,z
x,1/2-y,z
1/2+x,1/2+y,1/2+z
1/2-x,-y,1/2+z
1/2+x,1/2-y,1/2-z
1/2-x,y,1/2-z
1/2-x,1/2-y,1/2-z
1/2+x,y,1/2-z
1/2-x,1/2+y,1/2+z
1/2+x,-y,1/2+z
loop_
_atom_site_type_symbol
_atom_site_label
_atom_site_fract_x
_atom_site_fract_y
_atom_site_fract_z
Si Si1 0.875734 0.038053 0.940710
Si Si2 0.228610 0.037708 0.559459
Si Si3 0.500000 0.750000 0.871867
Si Si4 0.570372 0.458154 0.330866
Si Si5 0.675678 0.033248 0.250106
Si Si6 0.115615 0.459496 0.637792
O O1 0.874132 0.250000 0.934914
O O2 0.801893 0.965692 0.935038
O O3 0.918112 0.968602 0.892952
O O4 0.897948 0.000000 0.000000
O O5 0.233674 0.250000 0.565563
O O6 0.176011 0.978631 0.601472
O O7 0.206987 0.000000 0.500000
O O8 0.443516 0.592740 0.870692
O O9 0.500000 0.537364 0.317211
O O10 0.567318 0.250000 0.316312
O O11 0.632493 0.529685 0.299499
O O12 0.677889 0.250000 0.250392
O O13 0.750000 0.970503 0.250000
O O14 0.639427 0.973527 0.197661
O O15 0.101136 0.250000 0.625904
#
# Coordination Sequence:
#
# PCOD9538433 Si02
#       6
#    16  16   4  16  16  16
#     4  10  20  37  60  89 121 156 203 256 309 371
#     4   9  20  37  63  93 120 153 203 258 315 374
#     4  12  26  44  64  90 126 176 210 262 324 392
#     4  10  22  37  56  84 124 165 205 249 304 375
#     4  10  21  38  64  96 127 165 212 262 320 383
#     4  11  24  42  66  93 126 167 215 264 319 385
#
# _framework density 21.326416999999999
#
# number of rings (size 3 to 8) (size 9 to 14) (size 15 to 20)
#    0.000    1.905    0.952    2.000    2.667    2.667 
#    0.000    0.476    0.000    0.000    0.000    0.000 
#    0.000    0.000    0.000    0.000    0.000    0.000 
#
# Total GULP energy -234060.789729 kJ/mol
# GULP energy per Si atom -5572.875946 kJ/mol
# Density = 2.127788 g / cm^3
# Si number density = 21.326417 Si / 1000 Ang^3
#
#
#
# Elastic Constant Matrix: (Units=GPa)
#
#
# Indices 1 2 3 4 5 6 
#
# 1 117.2333 22.1847 47.7707 0.0000 0.0000 0.0000
# 2 22.1847 91.0895 -10.9247 0.0000 0.0000 0.0000
# 3 47.7707 -10.9247 86.0953 0.0000 0.0000 0.0000
# 4 0.0000 0.0000 0.0000 19.9820 0.0000 0.0000
# 5 0.0000 0.0000 0.0000 0.0000 -3.6024 0.0000
# 6 0.0000 0.0000 0.0000 0.0000 0.0000 27.1665
#
#
#
# Elastic Compliance Matrix: (Units=1/GPa)
#
#
# Indices 1 2 3 4 5 6 
#
# 1 0.012220 -0.003848 -0.007269 0.000000 0.000000 0.000000
# 2 -0.003848 0.012360 0.003703 0.000000 0.000000 0.000000
# 3 -0.007269 0.003703 0.016118 0.000000 0.000000 0.000000
# 4 0.000000 0.000000 0.000000 0.050045 0.000000 0.000000
# 5 0.000000 0.000000 0.000000 0.000000 -0.277589 0.000000
# 6 0.000000 0.000000 0.000000 0.000000 0.000000 0.036810
#
#
# Mechanical properties :
#
#
# Convention : Reuss Voigt Hill
#
# Bulk Modulus (GPa) = 38.65307 45.83106 42.24207
# Shear Modulus (GPa) = -39.49877 24.40170 -7.54854
#
# Velocity S-wave (km/s) = -4.30828 3.38627 -1.88340
# Velocity P-wave (km/s) = 2.56603 6.06845 3.88854
#
# Compressibility (1/GPa) = 0.02587116
#
# Stress axis : x y z
#
# Youngs Moduli (GPa) = 81.83288 80.90923 62.04229
#
# Poissons Ratio (x) = 0.31133 0.45096
# Poissons Ratio (y) = 0.31489 -0.22977
# Poissons Ratio (z) = 0.59482 -0.29964
#
# Static dielectric constant tensor:
#      x y z
#    x 1.770640 0.000000 0.000000 
#    y 0.000000 1.773940 0.000000 
#    z 0.000000 0.000000 1.845460 
# 
# From -- ./inp_files/61337.got.cif
#   From: 2010.05.17/outbox.cif.g08.bks.cpg/sg74_31_cif.got.tgz:61337.got - 2010.06.03 17:57:02.
