data_PCOD9538449
_publ_section_title
;
Structure prediction by ZEFSAII (Michael W. Deem and Ramdas Pophale) SiO2 
 PCOD9538449
Probable space group: I M M A
;
_chemical_formula_sum "Si O2"
_cell_formula_units_Z 80
_cell_length_a 13.611772
_cell_length_b 27.772844
_cell_length_c 9.726447
_cell_angle_alpha 90.000000
_cell_angle_beta 90.000000
_cell_angle_gamma 90.000000
_cell_volume 3676.962878
_symmetry_space_group_name_H-M "I M M A"
_symmetry_group_IT_number 74
_symmetry_cell_setting 'orthorhombic'
loop_
_space_group_symop_operation_xyz
x,y,z
-x,1/2-y,z
x,-y,-z
-x,1/2+y,-z
-x,-y,-z
x,1/2+y,-z
-x,y,z
x,1/2-y,z
1/2+x,1/2+y,1/2+z
1/2-x,-y,1/2+z
1/2+x,1/2-y,1/2-z
1/2-x,y,1/2-z
1/2-x,1/2-y,1/2-z
1/2+x,y,1/2-z
1/2-x,1/2+y,1/2+z
1/2+x,-y,1/2+z
loop_
_atom_site_type_symbol
_atom_site_label
_atom_site_fract_x
_atom_site_fract_y
_atom_site_fract_z
Si Si1 0.270289 0.863677 0.069478
Si Si2 0.883855 0.918490 0.191669
Si Si3 0.383451 0.624056 0.796392
Si Si4 0.381620 0.015528 0.151614
Si Si5 0.385424 0.305549 0.459775
O O1 0.187098 0.905871 0.065682
O O2 0.344032 0.881829 0.189379
O O3 0.334582 0.857241 0.935148
O O4 0.196345 0.818095 0.074532
O O5 0.000000 0.913123 0.167262
O O6 0.863508 0.971965 0.244712
O O7 0.500000 0.624836 0.812489
O O8 0.353017 0.567849 0.792739
O O9 0.363421 0.658492 0.667209
O O10 0.500000 0.017951 0.137270
O O11 0.344160 0.000000 0.000000
O O12 0.500000 0.313453 0.502257
O O13 0.377228 0.250000 0.417825
#
# Coordination Sequence:
#
# PCOD9538449 Si02
#       5
#    16  16  16  16  16
#     4  11  21  36  59  93 118 156 205 257 301 370
#     4  10  21  38  58  86 128 170 203 247 309 370
#     4  10  20  37  61  90 123 164 210 251 304 368
#     4   9  16  33  58  82 119 166 203 242 295 358
#     4  10  23  44  66  88 121 162 204 262 328 371
#
# _framework density 21.757088
#
# number of rings (size 3 to 8) (size 9 to 14) (size 15 to 20)
#    0.000    2.000    2.000    1.800    0.000    1.600 
#   10.800    2.000    0.000    7.800    0.000    2.800 
#    0.000    0.000    0.000    0.000    0.000    0.000 
#
# Total GULP energy -222979.360771 kJ/mol
# GULP energy per Si atom -5574.484019 kJ/mol
# Density = 2.170757 g / cm^3
# Si number density = 21.757088 Si / 1000 Ang^3
#
#
#
# Elastic Constant Matrix: (Units=GPa)
#
#
# Indices 1 2 3 4 5 6 
#
# 1 76.8363 5.0210 9.1766 0.0004 0.0000 -0.0003
# 2 5.0210 131.0856 35.5344 0.0009 0.0000 -0.0007
# 3 9.1766 35.5344 20.1454 0.0034 -0.0005 -0.0024
# 4 0.0004 0.0009 0.0034 26.8199 -0.0001 -0.0009
# 5 0.0000 0.0000 -0.0005 -0.0001 30.6594 -0.0001
# 6 -0.0003 -0.0007 -0.0024 -0.0009 -0.0001 57.1567
#
#
#
# Elastic Compliance Matrix: (Units=1/GPa)
#
#
# Indices 1 2 3 4 5 6 
#
# 1 0.014118 0.002304 -0.010495 0.000001 0.000000 0.000000
# 2 0.002304 0.014995 -0.027499 0.000003 0.000000 -0.000001
# 3 -0.010495 -0.027499 0.102924 -0.000012 0.000002 0.000004
# 4 0.000001 0.000003 -0.000012 0.037286 0.000000 0.000001
# 5 0.000000 0.000000 0.000002 0.000000 0.032616 0.000000
# 6 0.000000 -0.000001 0.000004 0.000001 0.000000 0.017496
#
#
# Mechanical properties :
#
#
# Convention : Reuss Voigt Hill
#
# Bulk Modulus (GPa) = 16.48602 36.39238 26.43920
# Shear Modulus (GPa) = 16.07547 34.81623 25.44585
#
# Velocity S-wave (km/s) = 2.72115 4.00462 3.42357
# Velocity P-wave (km/s) = 4.17931 6.17622 5.27315
#
# Compressibility (1/GPa) = 0.06065745
#
# Stress axis : x y z
#
# Youngs Moduli (GPa) = 70.83376 66.69075 9.71586
#
# Poissons Ratio (x) = -0.15368 0.10197
# Poissons Ratio (y) = -0.16322 0.26717
# Poissons Ratio (z) = 0.74343 1.83390
#
# Static dielectric constant tensor:
#      x y z
#    x 1.827270 0.000000 0.000000 
#    y 0.000000 1.811480 0.000000 
#    z 0.000000 0.000000 1.854560 
# 
# From -- ./inp_files/20485.got.cif
#   From: 2010.05.17/outbox.cif.g08.bks.cpg/sg74_11_cif.got.tgz:20485.got - 2010.06.03 17:57:02.
