data_PCOD9538561
_publ_section_title
;
Structure prediction by ZEFSAII (Michael W. Deem and Ramdas Pophale) SiO2 
 PCOD9538561
Probable space group: I M M A
;
_chemical_formula_sum "Si O2"
_cell_formula_units_Z 128
_cell_length_a 24.759417
_cell_length_b 22.790705
_cell_length_c 10.917090
_cell_angle_alpha 90.000000
_cell_angle_beta 90.000000
_cell_angle_gamma 90.000000
_cell_volume 6160.345423
_symmetry_space_group_name_H-M "I M M A"
_symmetry_group_IT_number 74
_symmetry_cell_setting 'orthorhombic'
loop_
_space_group_symop_operation_xyz
x,y,z
-x,1/2-y,z
x,-y,-z
-x,1/2+y,-z
-x,-y,-z
x,1/2+y,-z
-x,y,z
x,1/2-y,z
1/2+x,1/2+y,1/2+z
1/2-x,-y,1/2+z
1/2+x,1/2-y,1/2-z
1/2-x,y,1/2-z
1/2-x,1/2-y,1/2-z
1/2+x,y,1/2-z
1/2-x,1/2+y,1/2+z
1/2+x,-y,1/2+z
loop_
_atom_site_type_symbol
_atom_site_label
_atom_site_fract_x
_atom_site_fract_y
_atom_site_fract_z
Si Si1 0.063058 0.179505 0.329403
Si Si2 0.938861 0.125722 0.855985
Si Si3 0.666301 0.003048 0.144348
Si Si4 0.940011 0.989116 0.792626
Si Si5 0.229508 0.561930 0.931565
Si Si6 0.598870 0.180871 0.899668
Si Si7 0.612827 0.114298 0.400264
Si Si8 0.210478 0.624140 0.353339
O O1 0.069288 0.250000 0.328954
O O2 0.079028 0.158544 0.466824
O O3 0.097264 0.153171 0.217332
O O4 0.000000 0.165692 0.308905
O O5 0.926750 0.152586 0.722078
O O6 0.000000 0.141986 0.891700
O O7 0.935777 0.055739 0.836248
O O8 0.898365 0.142681 0.966346
O O9 0.610364 0.021149 0.203146
O O10 0.718418 0.045067 0.151464
O O11 0.684359 0.938478 0.190745
O O12 0.656568 0.000000 0.000000
O O13 0.928647 0.940746 0.895328
O O14 0.000000 0.980763 0.740298
O O15 0.173407 0.589422 0.888915
O O16 0.216104 0.500000 0.000000
O O17 0.254069 0.606143 0.030769
O O18 0.587988 0.250000 0.896145
O O19 0.662096 0.166272 0.889202
O O20 0.250000 0.647623 0.250000
#
# Coordination Sequence:
#
# PCOD9538561 Si02
#       8
#    16  16  16  16  16  16  16  16
#     4  10  24  47  70  94 130 175 222 277 338 393
#     4  11  23  40  64  96 132 172 216 271 330 397
#     4   9  21  37  58  93 131 175 219 262 319 395
#     4  11  23  36  59  95 137 174 208 264 332 393
#     4   9  21  37  60  94 130 178 219 265 318 397
#     4  11  24  44  69  94 124 169 226 283 335 390
#     4  12  24  40  66  99 135 174 220 264 328 394
#     4  10  20  38  62  89 126 166 218 272 327 387
#
# _framework density 20.778055999999999
#
# number of rings (size 3 to 8) (size 9 to 14) (size 15 to 20)
#    0.000    1.875    1.250    3.375    7.000    2.750 
#    0.000    0.625    0.000    1.500    0.000    0.000 
#    0.000    0.000    0.000    0.000    0.000    0.000 
#
# Total GULP energy -357329.873422 kJ/mol
# GULP energy per Si atom -5583.279272 kJ/mol
# Density = 2.073076 g / cm^3
# Si number density = 20.778056 Si / 1000 Ang^3
#
#
#
# Elastic Constant Matrix: (Units=GPa)
#
#
# Indices 1 2 3 4 5 6 
#
# 1 169.0579 14.3349 78.2412 0.0000 0.0000 0.0000
# 2 14.3349 46.4425 32.2775 0.0000 0.0000 0.0000
# 3 78.2412 32.2775 127.7200 0.0000 0.0000 0.0000
# 4 0.0000 0.0000 0.0000 20.1190 0.0000 0.0000
# 5 0.0000 0.0000 0.0000 0.0000 26.2146 0.0000
# 6 0.0000 0.0000 0.0000 0.0000 0.0000 33.3226
#
#
#
# Elastic Compliance Matrix: (Units=1/GPa)
#
#
# Indices 1 2 3 4 5 6 
#
# 1 0.008309 0.001180 -0.005388 0.000000 0.000000 0.000000
# 2 0.001180 0.026287 -0.007366 0.000000 0.000000 0.000000
# 3 -0.005388 -0.007366 0.012992 0.000000 0.000000 0.000000
# 4 0.000000 0.000000 0.000000 0.049704 0.000000 0.000000
# 5 0.000000 0.000000 0.000000 0.000000 0.038147 0.000000
# 6 0.000000 0.000000 0.000000 0.000000 0.000000 0.030010
#
#
# Mechanical properties :
#
#
# Convention : Reuss Voigt Hill
#
# Bulk Modulus (GPa) = 40.91745 65.88084 53.39914
# Shear Modulus (GPa) = 25.41374 30.48902 27.95138
#
# Velocity S-wave (km/s) = 3.50109 3.83478 3.67172
# Velocity P-wave (km/s) = 6.00657 7.16820 6.61294
#
# Compressibility (1/GPa) = 0.02443945
#
# Stress axis : x y z
#
# Youngs Moduli (GPa) = 120.35493 38.04119 76.97004
#
# Poissons Ratio (x) = -0.04490 0.41473
# Poissons Ratio (y) = -0.14205 0.56699
# Poissons Ratio (z) = 0.64850 0.28022
#
# Static dielectric constant tensor:
#      x y z
#    x 1.733240 0.000000 0.000000 
#    y 0.000000 1.741260 0.000000 
#    z 0.000000 0.000000 2.129120 
# 
# From -- ./inp_files/25575.got.cif
#   From: 2010.05.17/outbox.cif.g08.bks.cpg/sg74_13_cif.got.tgz:25575.got - 2010.06.03 17:57:02.
