data_PCOD9538785
_publ_section_title
;
Structure prediction by ZEFSAII (Michael W. Deem and Ramdas Pophale) SiO2 
 PCOD9538785
Probable space group: I M M A
;
_chemical_formula_sum "Si O2"
_cell_formula_units_Z 104
_cell_length_a 30.478356
_cell_length_b 19.941420
_cell_length_c 9.530465
_cell_angle_alpha 90.000000
_cell_angle_beta 90.000000
_cell_angle_gamma 90.000000
_cell_volume 5792.442200
_symmetry_space_group_name_H-M "I M M A"
_symmetry_group_IT_number 74
_symmetry_cell_setting 'orthorhombic'
loop_
_space_group_symop_operation_xyz
x,y,z
-x,1/2-y,z
x,-y,-z
-x,1/2+y,-z
-x,-y,-z
x,1/2+y,-z
-x,y,z
x,1/2-y,z
1/2+x,1/2+y,1/2+z
1/2-x,-y,1/2+z
1/2+x,1/2-y,1/2-z
1/2-x,y,1/2-z
1/2-x,1/2-y,1/2-z
1/2+x,y,1/2-z
1/2-x,1/2+y,1/2+z
1/2+x,-y,1/2+z
loop_
_atom_site_type_symbol
_atom_site_label
_atom_site_fract_x
_atom_site_fract_y
_atom_site_fract_z
Si Si1 0.571870 0.095798 0.741692
Si Si2 0.000000 0.826340 0.391417
Si Si3 0.000000 0.855091 0.693954
Si Si4 0.000000 0.006573 0.163971
Si Si5 0.127517 0.671770 0.030304
Si Si6 0.603623 0.325881 0.208658
Si Si7 0.854924 0.077849 0.527249
Si Si8 0.301750 0.171949 0.771954
O O1 0.542354 0.156218 0.801514
O O2 0.592773 0.121464 0.598476
O O3 0.607786 0.077483 0.854626
O O4 0.541636 0.032128 0.722505
O O5 0.000000 0.872197 0.528845
O O6 0.000000 0.750000 0.441339
O O7 0.000000 0.917965 0.792885
O O8 0.049744 0.825949 0.716202
O O9 0.000000 0.000000 0.000000
O O10 0.115548 0.750000 0.055219
O O11 0.171371 0.660178 0.125261
O O12 0.125154 0.663289 0.862701
O O13 0.615312 0.250000 0.160774
O O14 0.623580 0.381784 0.103989
O O15 0.817959 0.123134 0.603855
O O16 0.842358 0.000000 0.500000
O O17 0.310671 0.250000 0.809863
O O18 0.250000 0.164040 0.750000
#
# Coordination Sequence:
#
# PCOD9538785 Si02
#       8
#    16   8   8   8  16  16  16  16
#     4  10  21  34  54  73 108 150 190 233 279 336
#     4  11  21  32  50  77 104 141 198 246 277 313
#     4  12  22  33  52  76 114 150 195 235 277 318
#     4  11  23  36  50  73 109 153 198 238 284 336
#     4   9  19  36  58  84 110 143 187 236 287 338
#     4  11  22  37  57  83 116 152 194 241 287 330
#     4  11  22  37  57  85 116 149 187 230 286 348
#     4   9  19  40  67  89 111 145 189 234 287 349
#
# _framework density 17.954429999999999
#
# number of rings (size 3 to 8) (size 9 to 14) (size 15 to 20)
#    0.000    1.692    1.538    3.462    0.000    2.462 
#    0.000    6.154    0.000    3.692    0.000    0.000 
#    0.000    0.000    0.000    0.000    0.000    0.000 
#
# Total GULP energy -289695.435260 kJ/mol
# GULP energy per Si atom -5571.066063 kJ/mol
# Density = 1.791356 g / cm^3
# Si number density = 17.954430 Si / 1000 Ang^3
#
#
#
# Elastic Constant Matrix: (Units=GPa)
#
#
# Indices 1 2 3 4 5 6 
#
# 1 73.6985 37.4399 23.1651 0.0000 0.0000 0.0000
# 2 37.4399 102.6251 51.4686 0.0000 0.0000 0.0000
# 3 23.1651 51.4686 82.8128 0.0000 0.0000 0.0000
# 4 0.0000 0.0000 0.0000 21.2980 0.0000 0.0000
# 5 0.0000 0.0000 0.0000 0.0000 11.9925 0.0000
# 6 0.0000 0.0000 0.0000 0.0000 0.0000 31.4071
#
#
#
# Elastic Compliance Matrix: (Units=1/GPa)
#
#
# Indices 1 2 3 4 5 6 
#
# 1 0.016750 -0.005464 -0.001289 0.000000 0.000000 0.000000
# 2 -0.005464 0.015939 -0.008378 0.000000 0.000000 0.000000
# 3 -0.001289 -0.008378 0.017643 0.000000 0.000000 0.000000
# 4 0.000000 0.000000 0.000000 0.046953 0.000000 0.000000
# 5 0.000000 0.000000 0.000000 0.000000 0.083386 0.000000
# 6 0.000000 0.000000 0.000000 0.000000 0.000000 0.031840
#
#
# Mechanical properties :
#
#
# Convention : Reuss Voigt Hill
#
# Bulk Modulus (GPa) = 49.82715 53.69819 51.76267
# Shear Modulus (GPa) = 20.04301 22.74369 21.39335
#
# Velocity S-wave (km/s) = 3.34477 3.56300 3.45561
# Velocity P-wave (km/s) = 6.53674 6.84833 6.69434
#
# Compressibility (1/GPa) = 0.02006938
#
# Stress axis : x y z
#
# Youngs Moduli (GPa) = 59.70177 62.73799 56.67950
#
# Poissons Ratio (x) = 0.34280 0.07309
# Poissons Ratio (y) = 0.32621 0.47486
# Poissons Ratio (z) = 0.07699 0.52561
#
# Static dielectric constant tensor:
#      x y z
#    x 1.607200 0.000000 0.000000 
#    y 0.000000 1.593250 0.000000 
#    z 0.000000 0.000000 1.596420 
# 
# From -- ./inp_files/16242.got.cif
#   From: 2010.05.17/outbox.cif.g08.bks.cpg/sg74_9_cif.got.tgz:16242.got - 2010.06.03 17:57:02.
