data_PCOD9538257
_publ_section_title
;
Structure prediction by ZEFSAII (Michael W. Deem and Ramdas Pophale) SiO2 
 PCOD9538257
Probable space group: I M M A
;
_chemical_formula_sum "Si O2"
_cell_formula_units_Z 80
_cell_length_a 17.363714
_cell_length_b 31.034670
_cell_length_c 7.310394
_cell_angle_alpha 90.000000
_cell_angle_beta 90.000000
_cell_angle_gamma 90.000000
_cell_volume 3939.404167
_symmetry_space_group_name_H-M "I M M A"
_symmetry_group_IT_number 74
_symmetry_cell_setting 'orthorhombic'
loop_
_space_group_symop_operation_xyz
x,y,z
-x,1/2-y,z
x,-y,-z
-x,1/2+y,-z
-x,-y,-z
x,1/2+y,-z
-x,y,z
x,1/2-y,z
1/2+x,1/2+y,1/2+z
1/2-x,-y,1/2+z
1/2+x,1/2-y,1/2-z
1/2-x,y,1/2-z
1/2-x,1/2-y,1/2-z
1/2+x,y,1/2-z
1/2-x,1/2+y,1/2+z
1/2+x,-y,1/2+z
loop_
_atom_site_type_symbol
_atom_site_label
_atom_site_fract_x
_atom_site_fract_y
_atom_site_fract_z
Si Si1 0.415360 0.650210 0.322169
Si Si2 0.585764 0.922382 0.609021
Si Si3 0.274382 0.799032 0.465143
Si Si4 0.742868 0.546972 0.467072
Si Si5 0.841828 0.370158 0.432002
O O1 0.500000 0.670089 0.321388
O O2 0.417901 0.604471 0.422162
O O3 0.356806 0.678380 0.442712
O O4 0.388776 0.640493 0.116190
O O5 0.500000 0.941236 0.644646
O O6 0.659427 0.952776 0.569280
O O7 0.605308 0.886993 0.766426
O O8 0.277458 0.750000 0.530077
O O9 0.250000 0.798458 0.250000
O O10 0.214025 0.828528 0.575634
O O11 0.778842 0.500000 0.500000
O O12 0.750000 0.553308 0.250000
O O13 0.786373 0.588725 0.541649
#
# Coordination Sequence:
#
# PCOD9538257 Si02
#       5
#    16  16  16  16  16
#     4  10  20  36  59  86 122 160 202 252 306 363
#     4  11  23  39  61  88 121 158 200 252 309 361
#     4   9  18  34  59  88 118 158 207 253 302 364
#     4  12  23  41  65  93 123 161 204 254 305 370
#     4  11  20  40  62  87 120 162 209 252 307 367
#
# _framework density 20.307639999999999
#
# number of rings (size 3 to 8) (size 9 to 14) (size 15 to 20)
#    0.000    1.400    4.000    3.000    0.000    0.800 
#    0.000    2.000    0.000    6.000    0.000    0.000 
#    0.000    0.000    0.000    0.000    0.000    0.000 
#
# Total GULP energy -222898.234525 kJ/mol
# GULP energy per Si atom -5572.455863 kJ/mol
# Density = 2.026142 g / cm^3
# Si number density = 20.307640 Si / 1000 Ang^3
#
#
#
# Elastic Constant Matrix: (Units=GPa)
#
#
# Indices 1 2 3 4 5 6 
#
# 1 65.1808 -7.6655 -15.9905 0.0004 0.0071 -0.0003
# 2 -7.6655 75.1624 -25.6441 -0.0056 -0.0113 -0.0025
# 3 -15.9905 -25.6441 74.8611 -0.0075 0.0628 0.0100
# 4 0.0004 -0.0056 -0.0075 16.4860 -0.0679 -0.0040
# 5 0.0071 -0.0113 0.0628 -0.0679 -95.0856 0.0193
# 6 -0.0003 -0.0025 0.0100 -0.0040 0.0193 -7.2000
#
#
#
# Elastic Compliance Matrix: (Units=1/GPa)
#
#
# Indices 1 2 3 4 5 6 
#
# 1 0.016903 0.003347 0.004757 0.000003 0.000004 0.000005
# 2 0.003347 0.015728 0.006103 0.000008 0.000002 0.000003
# 3 0.004757 0.006103 0.016465 0.000009 0.000010 0.000021
# 4 0.000003 0.000008 0.000009 0.060657 -0.000043 -0.000034
# 5 0.000004 0.000002 0.000010 -0.000043 -0.010517 -0.000028
# 6 0.000005 0.000003 0.000021 -0.000034 -0.000028 -0.138889
#
#
# Mechanical properties :
#
#
# Convention : Reuss Voigt Hill
#
# Bulk Modulus (GPa) = 12.90197 12.95601 12.92899
# Shear Modulus (GPa) = -118.39819 0.47370 -58.96224
#
# Velocity S-wave (km/s) = -7.64388 0.48349 -5.39421
# Velocity P-wave (km/s) = 8.45802 2.58948 5.69354
#
# Compressibility (1/GPa) = 0.07750756
#
# Stress axis : x y z
#
# Youngs Moduli (GPa) = 59.16278 63.58110 60.73627
#
# Poissons Ratio (x) = -0.21279 -0.28891
# Poissons Ratio (y) = -0.19800 -0.37065
# Poissons Ratio (z) = -0.28143 -0.38801
#
# Static dielectric constant tensor:
#      x y z
#    x 1.819590 0.000000 0.000000 
#    y 0.000000 1.690770 -0.000010 
#    z 0.000000 -0.000010 1.765740 
# 
# From -- ./inp_files/11176.got.cif
#   From: 2010.05.17/outbox.cif.g08.bks.cpg/sg74_6_cif.got.tgz:11176.got - 2010.06.03 17:57:02.
