data_PCOD9538047
_publ_section_title
;
Structure prediction by ZEFSAII (Michael W. Deem and Ramdas Pophale) SiO2 
 PCOD9538047
Probable space group: I M M A
;
_chemical_formula_sum "Si O2"
_cell_formula_units_Z 72
_cell_length_a 15.040809
_cell_length_b 15.619387
_cell_length_c 15.687049
_cell_angle_alpha 90.000000
_cell_angle_beta 90.000000
_cell_angle_gamma 90.000000
_cell_volume 3685.330445
_symmetry_space_group_name_H-M "I M M A"
_symmetry_group_IT_number 74
_symmetry_cell_setting 'orthorhombic'
loop_
_space_group_symop_operation_xyz
x,y,z
-x,1/2-y,z
x,-y,-z
-x,1/2+y,-z
-x,-y,-z
x,1/2+y,-z
-x,y,z
x,1/2-y,z
1/2+x,1/2+y,1/2+z
1/2-x,-y,1/2+z
1/2+x,1/2-y,1/2-z
1/2-x,y,1/2-z
1/2-x,1/2-y,1/2-z
1/2+x,y,1/2-z
1/2-x,1/2+y,1/2+z
1/2+x,-y,1/2+z
loop_
_atom_site_type_symbol
_atom_site_label
_atom_site_fract_x
_atom_site_fract_y
_atom_site_fract_z
Si Si1 0.392313 0.250000 0.690619
Si Si2 0.603112 0.095831 0.808490
Si Si3 0.211810 0.086047 0.063516
Si Si4 0.606867 0.750000 0.502518
Si Si5 0.750000 0.468019 0.250000
Si Si6 0.096670 0.396221 0.497376
O O1 0.500000 0.250000 0.690195
O O2 0.366204 0.333425 0.741849
O O3 0.360561 0.250000 0.595217
O O4 0.500000 0.071850 0.792531
O O5 0.605680 0.131395 0.904343
O O6 0.670932 0.019691 0.796104
O O7 0.143901 0.161161 0.039592
O O8 0.204396 0.071432 0.165286
O O9 0.311791 0.122679 0.049107
O O10 0.202554 0.000000 0.000000
O O11 0.500000 0.750000 0.505551
O O12 0.092322 0.500000 0.500000
O O13 0.000000 0.366518 0.464014
#
# Coordination Sequence:
#
# PCOD9538047 Si02
#       6
#     8  16  16   8   8  16
#     4   9  20  36  57  89 123 158 204 257 321 380
#     4  10  20  35  58  91 125 161 207 260 320 380
#     4  11  23  42  65  95 126 167 216 262 321 379
#     4  11  26  46  63  86 132 174 213 269 310 367
#     4  12  22  36  64  90 120 166 218 261 306 375
#     4   9  17  35  59  86 127 163 195 252 320 379
#
# _framework density 19.536918
#
# number of rings (size 3 to 8) (size 9 to 14) (size 15 to 20)
#    0.000    1.778    4.444    1.333    0.000    3.111 
#    0.000    1.667    0.000    0.000    0.000    0.000 
#    0.000    0.000    0.000    0.000    0.000    0.000 
#
# Total GULP energy -200505.971343 kJ/mol
# GULP energy per Si atom -5569.610315 kJ/mol
# Density = 1.949245 g / cm^3
# Si number density = 19.536918 Si / 1000 Ang^3
#
#
#
# Elastic Constant Matrix: (Units=GPa)
#
#
# Indices 1 2 3 4 5 6 
#
# 1 87.4136 17.2493 -7.5664 0.0000 0.0000 0.0000
# 2 17.2493 66.8395 32.6685 0.0000 0.0000 0.0000
# 3 -7.5664 32.6685 89.7520 0.0000 0.0000 0.0000
# 4 0.0000 0.0000 0.0000 41.7864 0.0000 0.0000
# 5 0.0000 0.0000 0.0000 0.0000 29.0827 0.0000
# 6 0.0000 0.0000 0.0000 0.0000 0.0000 56.7136
#
#
#
# Elastic Compliance Matrix: (Units=1/GPa)
#
#
# Indices 1 2 3 4 5 6 
#
# 1 0.012580 -0.004579 0.002727 0.000000 0.000000 0.000000
# 2 -0.004579 0.019866 -0.007617 0.000000 0.000000 0.000000
# 3 0.002727 -0.007617 0.014144 0.000000 0.000000 0.000000
# 4 0.000000 0.000000 0.000000 0.023931 0.000000 0.000000
# 5 0.000000 0.000000 0.000000 0.000000 0.034385 0.000000
# 6 0.000000 0.000000 0.000000 0.000000 0.000000 0.017632
#
#
# Mechanical properties :
#
#
# Convention : Reuss Voigt Hill
#
# Bulk Modulus (GPa) = 36.16429 36.52310 36.34369
# Shear Modulus (GPa) = 33.17994 38.96013 36.07003
#
# Velocity S-wave (km/s) = 4.12554 4.47047 4.30146
# Velocity P-wave (km/s) = 6.42218 6.73660 6.58127
#
# Compressibility (1/GPa) = 0.02765159
#
# Stress axis : x y z
#
# Youngs Moduli (GPa) = 79.49378 50.33744 70.70024
#
# Poissons Ratio (x) = 0.23052 -0.19283
# Poissons Ratio (y) = 0.36404 0.53852
# Poissons Ratio (z) = -0.21681 0.38342
#
# Static dielectric constant tensor:
#      x y z
#    x 1.692030 0.000000 0.000000 
#    y 0.000000 1.689130 0.000000 
#    z 0.000000 0.000000 1.724610 
# 
# From -- ./inp_files/31979.got.cif
#   From: 2010.05.17/outbox.cif.g08.bks.cpg/sg74_16_cif.got.tgz:31979.got - 2010.06.03 17:57:02.
