data_PCOD9538292
_publ_section_title
;
Structure prediction by ZEFSAII (Michael W. Deem and Ramdas Pophale) SiO2 
 PCOD9538292
Probable space group: I M M A
;
_chemical_formula_sum "Si O2"
_cell_formula_units_Z 72
_cell_length_a 8.606103
_cell_length_b 17.290680
_cell_length_c 25.335596
_cell_angle_alpha 90.000000
_cell_angle_beta 90.000000
_cell_angle_gamma 90.000000
_cell_volume 3770.072813
_symmetry_space_group_name_H-M "I M M A"
_symmetry_group_IT_number 74
_symmetry_cell_setting 'orthorhombic'
loop_
_space_group_symop_operation_xyz
x,y,z
-x,1/2-y,z
x,-y,-z
-x,1/2+y,-z
-x,-y,-z
x,1/2+y,-z
-x,y,z
x,1/2-y,z
1/2+x,1/2+y,1/2+z
1/2-x,-y,1/2+z
1/2+x,1/2-y,1/2-z
1/2-x,y,1/2-z
1/2-x,1/2-y,1/2-z
1/2+x,y,1/2-z
1/2-x,1/2+y,1/2+z
1/2+x,-y,1/2+z
loop_
_atom_site_type_symbol
_atom_site_label
_atom_site_fract_x
_atom_site_fract_y
_atom_site_fract_z
Si Si1 0.687120 0.664384 0.993191
Si Si2 0.814115 0.877980 0.106415
Si Si3 0.312013 0.750000 0.309566
Si Si4 0.188181 0.449498 0.401825
Si Si5 0.187294 0.838557 0.693188
O O1 0.500000 0.659352 0.997175
O O2 0.723482 0.750000 0.970838
O O3 0.756632 0.657544 0.051252
O O4 0.738734 0.594631 0.955245
O O5 0.762570 0.824882 0.155783
O O6 0.000000 0.878418 0.106719
O O7 0.752206 0.965200 0.106566
O O8 0.500000 0.750000 0.307421
O O9 0.250000 0.750000 0.250000
O O10 0.236190 0.394944 0.353375
O O11 0.000000 0.453550 0.403272
O O12 0.238739 0.750000 0.683928
O O13 0.250000 0.863341 0.750000
O O14 0.000000 0.838497 0.694480
#
# Coordination Sequence:
#
# PCOD9538292 Si02
#       5
#    16  16   8  16  16
#     4  10  20  36  60  86 114 151 192 231 277 338
#     4  11  23  40  58  82 116 148 183 235 293 342
#     4  10  24  44  64  84 110 148 195 242 289 346
#     4  10  21  36  56  85 116 148 191 235 279 336
#     4   9  18  34  55  78 110 149 186 229 278 330
#
# _framework density 19.097774000000001
#
# number of rings (size 3 to 8) (size 9 to 14) (size 15 to 20)
#    0.000    2.000    1.111    2.000    0.000    9.778 
#    0.000    4.444    0.000    4.000    0.000    0.000 
#    0.000    0.000    0.000    0.000    0.000    0.000 
#
# Total GULP energy -200997.171328 kJ/mol
# GULP energy per Si atom -5583.254759 kJ/mol
# Density = 1.905431 g / cm^3
# Si number density = 19.097774 Si / 1000 Ang^3
#
#
#
# Elastic Constant Matrix: (Units=GPa)
#
#
# Indices 1 2 3 4 5 6 
#
# 1 12.0328 32.0408 27.8110 0.0000 0.0000 0.0000
# 2 32.0408 142.1255 96.8452 0.0000 0.0000 0.0000
# 3 27.8110 96.8452 157.6371 0.0000 0.0000 0.0000
# 4 0.0000 0.0000 0.0000 5.7337 0.0000 0.0000
# 5 0.0000 0.0000 0.0000 0.0000 31.4104 0.0000
# 6 0.0000 0.0000 0.0000 0.0000 0.0000 22.6590
#
#
#
# Elastic Compliance Matrix: (Units=1/GPa)
#
#
# Indices 1 2 3 4 5 6 
#
# 1 0.226264 -0.040952 -0.014760 0.000000 0.000000 0.000000
# 2 -0.040952 0.019514 -0.004764 0.000000 0.000000 0.000000
# 3 -0.014760 -0.004764 0.011874 0.000000 0.000000 0.000000
# 4 0.000000 0.000000 0.000000 0.174408 0.000000 0.000000
# 5 0.000000 0.000000 0.000000 0.000000 0.031837 0.000000
# 6 0.000000 0.000000 0.000000 0.000000 0.000000 0.044133
#
#
# Mechanical properties :
#
#
# Convention : Reuss Voigt Hill
#
# Bulk Modulus (GPa) = 7.31515 69.46549 38.39032
# Shear Modulus (GPa) = 7.41237 22.30050 14.85643
#
# Velocity S-wave (km/s) = 1.97223 3.42087 2.79214
# Velocity P-wave (km/s) = 3.00415 7.21497 5.52633
#
# Compressibility (1/GPa) = 0.13670262
#
# Stress axis : x y z
#
# Youngs Moduli (GPa) = 4.41961 51.24437 84.21539
#
# Poissons Ratio (x) = 2.09855 1.24298
# Poissons Ratio (y) = 0.18099 0.40119
# Poissons Ratio (z) = 0.06523 0.24412
#
# Static dielectric constant tensor:
#      x y z
#    x 1.652090 0.000000 0.000000 
#    y 0.000000 1.675600 0.000000 
#    z 0.000000 0.000000 1.643320 
# 
# From -- ./inp_files/56683.got.cif
#   From: 2010.05.17/outbox.cif.g08.bks.cpg/sg74_29_cif.got.tgz:56683.got - 2010.06.03 17:57:02.
