data_PCOD9538439
_publ_section_title
;
Structure prediction by ZEFSAII (Michael W. Deem and Ramdas Pophale) SiO2 
 PCOD9538439
Probable space group: I M M A
;
_chemical_formula_sum "Si O2"
_cell_formula_units_Z 88
_cell_length_a 9.441712
_cell_length_b 21.664166
_cell_length_c 23.226170
_cell_angle_alpha 90.000000
_cell_angle_beta 90.000000
_cell_angle_gamma 90.000000
_cell_volume 4750.839124
_symmetry_space_group_name_H-M "I M M A"
_symmetry_group_IT_number 74
_symmetry_cell_setting 'orthorhombic'
loop_
_space_group_symop_operation_xyz
x,y,z
-x,1/2-y,z
x,-y,-z
-x,1/2+y,-z
-x,-y,-z
x,1/2+y,-z
-x,y,z
x,1/2-y,z
1/2+x,1/2+y,1/2+z
1/2-x,-y,1/2+z
1/2+x,1/2-y,1/2-z
1/2-x,y,1/2-z
1/2-x,1/2-y,1/2-z
1/2+x,y,1/2-z
1/2-x,1/2+y,1/2+z
1/2+x,-y,1/2+z
loop_
_atom_site_type_symbol
_atom_site_label
_atom_site_fract_x
_atom_site_fract_y
_atom_site_fract_z
Si Si1 0.659395 0.823868 0.695152
Si Si2 0.334086 0.106228 0.104901
Si Si3 0.337394 0.425653 0.504690
Si Si4 0.167365 0.493413 0.692780
Si Si5 0.168862 0.750000 0.189153
Si Si6 0.832168 0.617072 0.135851
O O1 0.500000 0.849305 0.696964
O O2 0.651051 0.750000 0.697546
O O3 0.750000 0.844479 0.750000
O O4 0.742163 0.844017 0.638818
O O5 0.500000 0.121011 0.105536
O O6 0.314010 0.042921 0.141368
O O7 0.273262 0.099419 0.041299
O O8 0.329200 0.500000 0.500000
O O9 0.500000 0.408620 0.489264
O O10 0.310151 0.400341 0.568794
O O11 0.250000 0.513491 0.750000
O O12 0.236760 0.429284 0.672738
O O13 0.000000 0.487371 0.704012
O O14 0.250000 0.750000 0.250000
O O15 0.200140 0.812345 0.153120
O O16 0.000000 0.750000 0.200461
O O17 0.000000 0.606229 0.147656
#
# Coordination Sequence:
#
# PCOD9538439 Si02
#       6
#    16  16  16  16   8  16
#     4  10  21  38  60  85 115 152 193 238 289 348
#     4  11  23  37  57  85 118 154 193 241 292 351
#     4  10  20  37  61  85 113 153 196 239 291 354
#     4  11  23  36  55  85 117 150 189 238 292 349
#     4  10  22  40  62  88 118 154 197 246 299 354
#     4  10  21  39  61  85 116 154 195 242 296 354
#
# _framework density 18.523043999999999
#
# number of rings (size 3 to 8) (size 9 to 14) (size 15 to 20)
#    0.000    1.636    1.818    2.727    0.000    8.000 
#    1.636    0.000    0.000    0.000    0.000    0.000 
#    0.000    0.000    0.000    0.000    0.000    0.000 
#
# Total GULP energy -245764.381048 kJ/mol
# GULP energy per Si atom -5585.554115 kJ/mol
# Density = 1.848088 g / cm^3
# Si number density = 18.523044 Si / 1000 Ang^3
#
#
#
# Elastic Constant Matrix: (Units=GPa)
#
#
# Indices 1 2 3 4 5 6 
#
# 1 116.8151 43.4884 66.1215 0.0000 0.0000 0.0000
# 2 43.4884 77.7522 42.5236 0.0000 0.0000 0.0000
# 3 66.1215 42.5236 101.0812 0.0000 0.0000 0.0000
# 4 0.0000 0.0000 0.0000 31.7879 0.0000 0.0000
# 5 0.0000 0.0000 0.0000 0.0000 40.2381 0.0000
# 6 0.0000 0.0000 0.0000 0.0000 0.0000 25.3660
#
#
#
# Elastic Compliance Matrix: (Units=1/GPa)
#
#
# Indices 1 2 3 4 5 6 
#
# 1 0.014397 -0.003769 -0.007832 0.000000 0.000000 0.000000
# 2 -0.003769 0.017692 -0.004977 0.000000 0.000000 0.000000
# 3 -0.007832 -0.004977 0.017110 0.000000 0.000000 0.000000
# 4 0.000000 0.000000 0.000000 0.031459 0.000000 0.000000
# 5 0.000000 0.000000 0.000000 0.000000 0.024852 0.000000
# 6 0.000000 0.000000 0.000000 0.000000 0.000000 0.039423
#
#
# Mechanical properties :
#
#
# Convention : Reuss Voigt Hill
#
# Bulk Modulus (GPa) = 62.33578 66.65729 64.49653
# Shear Modulus (GPa) = 27.25750 29.04606 28.15178
#
# Velocity S-wave (km/s) = 3.84023 3.96423 3.90272
# Velocity P-wave (km/s) = 7.30680 7.55101 7.42991
#
# Compressibility (1/GPa) = 0.01604215
#
# Stress axis : x y z
#
# Youngs Moduli (GPa) = 69.45927 56.52429 58.44499
#
# Poissons Ratio (x) = 0.21304 0.45774
# Poissons Ratio (y) = 0.26180 0.29089
# Poissons Ratio (z) = 0.54401 0.28133
#
# Static dielectric constant tensor:
#      x y z
#    x 1.623880 0.000000 0.000000 
#    y 0.000000 1.644130 0.000000 
#    z 0.000000 0.000000 1.636830 
# 
# From -- ./inp_files/48784.got.cif
#   From: 2010.05.17/outbox.cif.g08.bks.cpg/sg74_25_cif.got.tgz:48784.got - 2010.06.03 17:57:02.
