data_PCOD9538705
_publ_section_title
;
Structure prediction by ZEFSAII (Michael W. Deem and Ramdas Pophale) SiO2 
 PCOD9538705
Probable space group: I M M A
;
_chemical_formula_sum "Si O2"
_cell_formula_units_Z 56
_cell_length_a 19.184530
_cell_length_b 15.200997
_cell_length_c 8.892029
_cell_angle_alpha 90.000000
_cell_angle_beta 90.000000
_cell_angle_gamma 90.000000
_cell_volume 2593.128914
_symmetry_space_group_name_H-M "I M M A"
_symmetry_group_IT_number 74
_symmetry_cell_setting 'orthorhombic'
loop_
_space_group_symop_operation_xyz
x,y,z
-x,1/2-y,z
x,-y,-z
-x,1/2+y,-z
-x,-y,-z
x,1/2+y,-z
-x,y,z
x,1/2-y,z
1/2+x,1/2+y,1/2+z
1/2-x,-y,1/2+z
1/2+x,1/2-y,1/2-z
1/2-x,y,1/2-z
1/2-x,1/2-y,1/2-z
1/2+x,y,1/2-z
1/2-x,1/2+y,1/2+z
1/2+x,-y,1/2+z
loop_
_atom_site_type_symbol
_atom_site_label
_atom_site_fract_x
_atom_site_fract_y
_atom_site_fract_z
Si Si1 0.647577 0.351057 0.768687
Si Si2 0.130224 0.409497 0.062691
Si Si3 0.250000 0.498880 0.750000
Si Si4 0.000000 0.853015 0.741040
Si Si5 0.000000 0.356878 0.593254
O O1 0.663002 0.250000 0.816615
O O2 0.648514 0.354633 0.586472
O O3 0.698835 0.427190 0.829074
O O4 0.570583 0.378362 0.820310
O O5 0.199798 0.440180 0.150466
O O6 0.070822 0.371715 0.168853
O O7 0.098924 0.500000 0.000000
O O8 0.000000 0.750000 0.715420
O O9 0.000000 0.894713 0.575148
O O10 0.000000 0.250000 0.589922
#
# Coordination Sequence:
#
# PCOD9538705 Si02
#       5
#    16  16   8   8   8
#     4  10  20  40  65  89 119 164 209 247 295 365
#     4  10  22  40  61  89 122 158 201 249 306 364
#     4  10  23  38  57  88 124 158 198 250 305 354
#     4  11  22  39  63  92 121 157 202 255 305 357
#     4   9  21  37  60  90 118 149 198 253 298 343
#
# _framework density 21.595531999999999
#
# number of rings (size 3 to 8) (size 9 to 14) (size 15 to 20)
#    0.000    2.000    0.000    2.571    0.000   11.429 
#    0.000   15.714    0.000    0.000    0.000    0.000 
#    0.000    0.000    0.000    0.000    0.000    0.000 
#
# Total GULP energy -156204.886878 kJ/mol
# GULP energy per Si atom -5578.745960 kJ/mol
# Density = 2.154638 g / cm^3
# Si number density = 21.595532 Si / 1000 Ang^3
#
#
#
# Elastic Constant Matrix: (Units=GPa)
#
#
# Indices 1 2 3 4 5 6 
#
# 1 180.1650 27.3171 68.9098 0.0000 0.0000 0.0000
# 2 27.3171 47.9064 15.8536 0.0000 0.0000 0.0000
# 3 68.9098 15.8536 102.4883 0.0000 0.0000 0.0000
# 4 0.0000 0.0000 0.0000 28.7117 0.0000 0.0000
# 5 0.0000 0.0000 0.0000 0.0000 -172.6417 0.0000
# 6 0.0000 0.0000 0.0000 0.0000 0.0000 68.3668
#
#
#
# Elastic Compliance Matrix: (Units=1/GPa)
#
#
# Indices 1 2 3 4 5 6 
#
# 1 0.007829 -0.002869 -0.004820 0.000000 0.000000 0.000000
# 2 -0.002869 0.023052 -0.001637 0.000000 0.000000 0.000000
# 3 -0.004820 -0.001637 0.013251 0.000000 0.000000 0.000000
# 4 0.000000 0.000000 0.000000 0.034829 0.000000 0.000000
# 5 0.000000 0.000000 0.000000 0.000000 -0.005792 0.000000
# 6 0.000000 0.000000 0.000000 0.000000 0.000000 0.014627
#
#
# Mechanical properties :
#
#
# Convention : Reuss Voigt Hill
#
# Bulk Modulus (GPa) = 39.24637 61.63564 50.44100
# Shear Modulus (GPa) = 43.50043 -0.54737 21.47653
#
# Velocity S-wave (km/s) = 4.49299 -0.50400 3.15697
# Velocity P-wave (km/s) = 6.71780 5.31641 6.05776
#
# Compressibility (1/GPa) = 0.02548007
#
# Stress axis : x y z
#
# Youngs Moduli (GPa) = 127.72758 43.38076 75.46393
#
# Poissons Ratio (x) = 0.12447 0.36376
# Poissons Ratio (y) = 0.36647 0.12351
# Poissons Ratio (z) = 0.61568 0.07100
#
# Static dielectric constant tensor:
#      x y z
#    x 1.783480 0.000000 0.000000 
#    y 0.000000 1.808180 0.000000 
#    z 0.000000 0.000000 1.859380 
# 
# From -- ./inp_files/10035.got.cif
#   From: 2010.05.17/outbox.cif.g08.bks.cpg/sg74_6_cif.got.tgz:10035.got - 2010.06.03 17:57:02.
