data_PCOD9538142
_publ_section_title
;
Structure prediction by ZEFSAII (Michael W. Deem and Ramdas Pophale) SiO2 
 PCOD9538142
Probable space group: I M M A
;
_chemical_formula_sum "Si O2"
_cell_formula_units_Z 72
_cell_length_a 20.325098
_cell_length_b 9.409778
_cell_length_c 21.182178
_cell_angle_alpha 90.000000
_cell_angle_beta 90.000000
_cell_angle_gamma 90.000000
_cell_volume 4051.190252
_symmetry_space_group_name_H-M "I M M A"
_symmetry_group_IT_number 74
_symmetry_cell_setting 'orthorhombic'
loop_
_space_group_symop_operation_xyz
x,y,z
-x,1/2-y,z
x,-y,-z
-x,1/2+y,-z
-x,-y,-z
x,1/2+y,-z
-x,y,z
x,1/2-y,z
1/2+x,1/2+y,1/2+z
1/2-x,-y,1/2+z
1/2+x,1/2-y,1/2-z
1/2-x,y,1/2-z
1/2-x,1/2-y,1/2-z
1/2+x,y,1/2-z
1/2-x,1/2+y,1/2+z
1/2+x,-y,1/2+z
loop_
_atom_site_type_symbol
_atom_site_label
_atom_site_fract_x
_atom_site_fract_y
_atom_site_fract_z
Si Si1 0.000000 0.587787 0.437072
Si Si2 0.891932 0.095939 0.385242
Si Si3 0.300943 0.420343 0.691483
Si Si4 0.245205 0.916639 0.934606
Si Si5 0.578759 0.589312 0.739683
O O1 0.000000 0.500000 0.500000
O O2 0.936158 0.537503 0.400564
O O3 0.000000 0.750000 0.449746
O O4 0.921680 0.250000 0.403728
O O5 0.823420 0.084849 0.420925
O O6 0.890543 0.097864 0.309835
O O7 0.298571 0.250000 0.683367
O O8 0.250000 0.454512 0.750000
O O9 0.281730 0.501481 0.627055
O O10 0.374640 0.475094 0.706568
O O11 0.224212 0.750000 0.937434
O O12 0.231402 0.000000 0.000000
O O13 0.500000 0.558112 0.742901
O O14 0.585135 0.750000 0.712383
#
# Coordination Sequence:
#
# PCOD9538142 Si02
#       5
#     8  16  16  16  16
#     4  12  24  34  48  70 106 154 199 240 285 344
#     4  10  20  36  56  80 112 152 195 239 288 347
#     4  11  23  38  60  90 123 157 201 250 298 355
#     4  11  23  39  61  86 118 156 198 247 300 355
#     4  10  20  37  61  87 118 156 199 244 296 354
#
# _framework density 17.772555000000001
#
# number of rings (size 3 to 8) (size 9 to 14) (size 15 to 20)
#    0.000    1.333    3.333    3.000    0.000    5.778 
#    0.000    0.000    0.000    0.667    0.000    0.000 
#    0.000    0.000    0.000    0.000    0.000    0.000 
#
# Total GULP energy -200615.420132 kJ/mol
# GULP energy per Si atom -5572.650559 kJ/mol
# Density = 1.773210 g / cm^3
# Si number density = 17.772555 Si / 1000 Ang^3
#
#
#
# Elastic Constant Matrix: (Units=GPa)
#
#
# Indices 1 2 3 4 5 6 
#
# 1 48.1245 38.2558 27.7880 0.0000 0.0000 0.0000
# 2 38.2558 152.1056 71.5575 0.0000 0.0000 0.0000
# 3 27.7880 71.5575 114.5965 0.0000 0.0000 0.0000
# 4 0.0000 0.0000 0.0000 32.3898 0.0000 0.0000
# 5 0.0000 0.0000 0.0000 0.0000 24.0035 0.0000
# 6 0.0000 0.0000 0.0000 0.0000 0.0000 13.5742
#
#
#
# Elastic Compliance Matrix: (Units=1/GPa)
#
#
# Indices 1 2 3 4 5 6 
#
# 1 0.026796 -0.005215 -0.003242 0.000000 0.000000 0.000000
# 2 -0.005215 0.010324 -0.005182 0.000000 0.000000 0.000000
# 3 -0.003242 -0.005182 0.012748 0.000000 0.000000 0.000000
# 4 0.000000 0.000000 0.000000 0.030874 0.000000 0.000000
# 5 0.000000 0.000000 0.000000 0.000000 0.041661 0.000000
# 6 0.000000 0.000000 0.000000 0.000000 0.000000 0.073669
#
#
# Mechanical properties :
#
#
# Convention : Reuss Voigt Hill
#
# Bulk Modulus (GPa) = 44.26356 65.55881 54.91118
# Shear Modulus (GPa) = 21.65637 25.80852 23.73245
#
# Velocity S-wave (km/s) = 3.49453 3.81485 3.65820
# Velocity P-wave (km/s) = 6.42199 7.50812 6.98619
#
# Compressibility (1/GPa) = 0.02259195
#
# Stress axis : x y z
#
# Youngs Moduli (GPa) = 37.31844 96.86430 78.44297
#
# Poissons Ratio (x) = 0.50510 0.25428
# Poissons Ratio (y) = 0.19460 0.40649
# Poissons Ratio (z) = 0.12097 0.50195
#
# Static dielectric constant tensor:
#      x y z
#    x 1.611690 0.000000 0.000000 
#    y 0.000000 1.609140 0.000000 
#    z 0.000000 0.000000 1.653270 
# 
# From -- ./inp_files/48350.got.cif
#   From: 2010.05.17/outbox.cif.g08.bks.cpg/sg74_25_cif.got.tgz:48350.got - 2010.06.03 17:57:02.
