data_PCOD9538469
_publ_section_title
;
Structure prediction by ZEFSAII (Michael W. Deem and Ramdas Pophale) SiO2 
 PCOD9538469
Probable space group: I M M A
;
_chemical_formula_sum "Si O2"
_cell_formula_units_Z 72
_cell_length_a 23.607621
_cell_length_b 9.755305
_cell_length_c 13.913858
_cell_angle_alpha 90.000000
_cell_angle_beta 90.000000
_cell_angle_gamma 90.000000
_cell_volume 3204.355141
_symmetry_space_group_name_H-M "I M M A"
_symmetry_group_IT_number 74
_symmetry_cell_setting 'orthorhombic'
loop_
_space_group_symop_operation_xyz
x,y,z
-x,1/2-y,z
x,-y,-z
-x,1/2+y,-z
-x,-y,-z
x,1/2+y,-z
-x,y,z
x,1/2-y,z
1/2+x,1/2+y,1/2+z
1/2-x,-y,1/2+z
1/2+x,1/2-y,1/2-z
1/2-x,y,1/2-z
1/2-x,1/2-y,1/2-z
1/2+x,y,1/2-z
1/2-x,1/2+y,1/2+z
1/2+x,-y,1/2+z
loop_
_atom_site_type_symbol
_atom_site_label
_atom_site_fract_x
_atom_site_fract_y
_atom_site_fract_z
Si Si1 0.697539 0.500000 0.000000
Si Si2 0.282994 0.904629 0.349145
Si Si3 0.901378 0.601880 0.627453
Si Si4 0.000000 0.097529 0.633979
Si Si5 0.609437 0.091240 0.358602
Si Si6 0.500000 0.590482 0.367382
O O1 0.737050 0.407950 0.933299
O O2 0.656848 0.582382 0.928379
O O3 0.306332 0.750000 0.336338
O O4 0.250000 0.941104 0.250000
O O5 0.332335 0.010441 0.376861
O O6 0.926400 0.750000 0.604593
O O7 0.893061 0.597185 0.742225
O O8 0.944123 0.481408 0.603712
O O9 0.000000 0.250000 0.598303
O O10 0.000000 0.098775 0.750673
O O11 0.608059 0.250000 0.393422
O O12 0.555855 0.999349 0.391473
O O13 0.500000 0.750000 0.402091
#
# Coordination Sequence:
#
# PCOD9538469 Si02
#       6
#     8  16  16   8  16   8
#     4  12  24  41  62  91 122 168 214 264 310 374
#     4  11  24  42  64  91 126 169 215 264 316 373
#     4  10  21  37  58  86 121 163 207 255 306 367
#     4   9  19  34  56  85 120 162 204 250 303 366
#     4  10  20  37  62  91 125 163 207 258 314 373
#     4   9  17  33  60  93 124 158 204 255 313 375
#
# _framework density 22.469418999999998
#
# number of rings (size 3 to 8) (size 9 to 14) (size 15 to 20)
#    0.000    1.778    2.222    2.000    0.000    8.000 
#    0.000    0.000    0.000    0.667    0.000    0.000 
#    0.000    0.000    0.000    0.000    0.000    0.000 
#
# Total GULP energy -201299.663543 kJ/mol
# GULP energy per Si atom -5591.657321 kJ/mol
# Density = 2.241828 g / cm^3
# Si number density = 22.469419 Si / 1000 Ang^3
#
#
#
# Elastic Constant Matrix: (Units=GPa)
#
#
# Indices 1 2 3 4 5 6 
#
# 1 158.2754 104.6324 25.1708 0.0000 0.0000 0.0000
# 2 104.6324 205.8491 22.5926 0.0000 0.0000 0.0000
# 3 25.1708 22.5926 84.1831 0.0000 0.0000 0.0000
# 4 0.0000 0.0000 0.0000 -2.8431 0.0000 0.0000
# 5 0.0000 0.0000 0.0000 0.0000 26.1158 0.0000
# 6 0.0000 0.0000 0.0000 0.0000 0.0000 27.2066
#
#
#
# Elastic Compliance Matrix: (Units=1/GPa)
#
#
# Indices 1 2 3 4 5 6 
#
# 1 0.009728 -0.004766 -0.001630 0.000000 0.000000 0.000000
# 2 -0.004766 0.007340 -0.000545 0.000000 0.000000 0.000000
# 3 -0.001630 -0.000545 0.012512 0.000000 0.000000 0.000000
# 4 0.000000 0.000000 0.000000 -0.351734 0.000000 0.000000
# 5 0.000000 0.000000 0.000000 0.000000 0.038291 0.000000
# 6 0.000000 0.000000 0.000000 0.000000 0.000000 0.036756
#
#
# Mechanical properties :
#
#
# Convention : Reuss Voigt Hill
#
# Bulk Modulus (GPa) = 63.69549 83.67769 73.68659
# Shear Modulus (GPa) = -21.93050 29.82334 3.94642
#
# Velocity S-wave (km/s) = -3.12751 3.64715 1.32671
# Velocity P-wave (km/s) = 3.92013 7.42005 5.93399
#
# Compressibility (1/GPa) = 0.01569970
#
# Stress axis : x y z
#
# Youngs Moduli (GPa) = 102.79827 136.23697 79.92092
#
# Poissons Ratio (x) = 0.64927 0.13024
# Poissons Ratio (y) = 0.48991 0.04355
# Poissons Ratio (z) = 0.16752 0.07424
#
# Static dielectric constant tensor:
#      x y z
#    x 1.782380 0.000000 0.000000 
#    y 0.000000 1.816580 0.000000 
#    z 0.000000 0.000000 1.854880 
# 
# From -- ./inp_files/45836.got.cif
#   From: 2010.05.17/outbox.cif.g08.bks.cpg/sg74_23_cif.got.tgz:45836.got - 2010.06.03 17:57:02.
