data_PCOD9538645
_publ_section_title
;
Structure prediction by ZEFSAII (Michael W. Deem and Ramdas Pophale) SiO2 
 PCOD9538645
Probable space group: I M M A
;
_chemical_formula_sum "Si O2"
_cell_formula_units_Z 92
_cell_length_a 29.747132
_cell_length_b 7.965561
_cell_length_c 17.215932
_cell_angle_alpha 90.000000
_cell_angle_beta 90.000000
_cell_angle_gamma 90.000000
_cell_volume 4079.359754
_symmetry_space_group_name_H-M "I M M A"
_symmetry_group_IT_number 74
_symmetry_cell_setting 'orthorhombic'
loop_
_space_group_symop_operation_xyz
x,y,z
-x,1/2-y,z
x,-y,-z
-x,1/2+y,-z
-x,-y,-z
x,1/2+y,-z
-x,y,z
x,1/2-y,z
1/2+x,1/2+y,1/2+z
1/2-x,-y,1/2+z
1/2+x,1/2-y,1/2-z
1/2-x,y,1/2-z
1/2-x,1/2-y,1/2-z
1/2+x,y,1/2-z
1/2-x,1/2+y,1/2+z
1/2+x,-y,1/2+z
loop_
_atom_site_type_symbol
_atom_site_label
_atom_site_fract_x
_atom_site_fract_y
_atom_site_fract_z
Si Si1 0.662568 0.944234 0.877992
Si Si2 0.821938 0.557011 0.793300
Si Si3 0.500000 0.949909 0.590583
Si Si4 0.000000 0.250000 0.427118
Si Si5 0.255666 0.942241 0.422843
Si Si6 0.918586 0.945745 0.200155
Si Si7 0.933304 0.055143 0.615785
O O1 0.648631 0.750000 0.868737
O O2 0.675194 0.016121 0.793095
O O3 0.709769 0.952863 0.920561
O O4 0.619054 0.040906 0.908004
O O5 0.807290 0.750000 0.787608
O O6 0.787169 0.469366 0.849314
O O7 0.873590 0.546619 0.819949
O O8 0.500000 0.750000 0.595250
O O9 0.500000 0.000000 0.500000
O O10 0.542727 0.016402 0.638712
O O11 0.038649 0.402722 0.420992
O O12 0.242749 0.750000 0.427456
O O13 0.281515 0.000000 0.500000
O O14 0.906768 0.750000 0.197045
O O15 0.934071 0.976835 0.289832
O O16 0.948508 0.250000 0.601816
#
# Coordination Sequence:
#
# PCOD9538645 Si02
#       7
#    16  16   8   4  16  16  16
#     4  10  20  39  63  90 126 163 204 252 312 377
#     4  10  21  38  62  89 119 159 201 252 309 370
#     4  12  25  38  54  73 104 150 200 246 298 363
#     4  12  20  32  56  88 126 156 192 252 296 360
#     4  12  25  40  60  88 123 160 208 257 309 373
#     4  10  21  37  56  80 111 148 197 249 300 356
#     4  10  21  35  57  90 124 158 198 247 306 367
#
# _framework density 22.55256
#
# number of rings (size 3 to 8) (size 9 to 14) (size 15 to 20)
#    0.000    1.391    0.870    5.217    3.652    6.261 
#    0.000    3.478    0.000    0.000    0.000    0.609 
#    0.000    0.000    0.000    0.000    0.000    0.000 
#
# Total GULP energy -256718.279159 kJ/mol
# GULP energy per Si atom -5580.832156 kJ/mol
# Density = 2.250123 g / cm^3
# Si number density = 22.552560 Si / 1000 Ang^3
#
#
#
# Elastic Constant Matrix: (Units=GPa)
#
#
# Indices 1 2 3 4 5 6 
#
# 1 105.5899 24.0379 35.2849 0.0000 0.0000 0.0000
# 2 24.0379 133.5100 11.4258 0.0000 0.0000 0.0000
# 3 35.2849 11.4258 80.0420 0.0000 0.0000 0.0000
# 4 0.0000 0.0000 0.0000 21.9971 0.0000 0.0000
# 5 0.0000 0.0000 0.0000 0.0000 26.0698 0.0000
# 6 0.0000 0.0000 0.0000 0.0000 0.0000 22.9651
#
#
#
# Elastic Compliance Matrix: (Units=1/GPa)
#
#
# Indices 1 2 3 4 5 6 
#
# 1 0.011455 -0.001650 -0.004814 0.000000 0.000000 0.000000
# 2 -0.001650 0.007821 -0.000389 0.000000 0.000000 0.000000
# 3 -0.004814 -0.000389 0.014671 0.000000 0.000000 0.000000
# 4 0.000000 0.000000 0.000000 0.045461 0.000000 0.000000
# 5 0.000000 0.000000 0.000000 0.000000 0.038359 0.000000
# 6 0.000000 0.000000 0.000000 0.000000 0.000000 0.043544
#
#
# Mechanical properties :
#
#
# Convention : Reuss Voigt Hill
#
# Bulk Modulus (GPa) = 49.40719 51.18214 50.29466
# Shear Modulus (GPa) = 27.50826 30.76596 29.13711
#
# Velocity S-wave (km/s) = 3.49627 3.69750 3.59829
# Velocity P-wave (km/s) = 6.18495 6.40098 6.29389
#
# Compressibility (1/GPa) = 0.02023997
#
# Stress axis : x y z
#
# Youngs Moduli (GPa) = 87.29761 127.86903 68.16095
#
# Poissons Ratio (x) = 0.21104 0.32814
# Poissons Ratio (y) = 0.14408 0.02650
# Poissons Ratio (z) = 0.42026 0.04972
#
# Static dielectric constant tensor:
#      x y z
#    x 1.835830 0.000000 0.000000 
#    y 0.000000 1.803920 0.000000 
#    z 0.000000 0.000000 1.878500 
# 
# From -- ./inp_files/55154.got.cif
#   From: 2010.05.17/outbox.cif.g08.bks.cpg/sg74_28_cif.got.tgz:55154.got - 2010.06.03 17:57:02.
