data_PCOD9538091
_publ_section_title
;
Structure prediction by ZEFSAII (Michael W. Deem and Ramdas Pophale) SiO2 
 PCOD9538091
Probable space group: I M M A
;
_chemical_formula_sum "Si O2"
_cell_formula_units_Z 116
_cell_length_a 8.794097
_cell_length_b 26.962879
_cell_length_c 25.657005
_cell_angle_alpha 90.000000
_cell_angle_beta 90.000000
_cell_angle_gamma 90.000000
_cell_volume 6083.639531
_symmetry_space_group_name_H-M "I M M A"
_symmetry_group_IT_number 74
_symmetry_cell_setting 'orthorhombic'
loop_
_space_group_symop_operation_xyz
x,y,z
-x,1/2-y,z
x,-y,-z
-x,1/2+y,-z
-x,-y,-z
x,1/2+y,-z
-x,y,z
x,1/2-y,z
1/2+x,1/2+y,1/2+z
1/2-x,-y,1/2+z
1/2+x,1/2-y,1/2-z
1/2-x,y,1/2-z
1/2-x,1/2-y,1/2-z
1/2+x,y,1/2-z
1/2-x,1/2+y,1/2+z
1/2+x,-y,1/2+z
loop_
_atom_site_type_symbol
_atom_site_label
_atom_site_fract_x
_atom_site_fract_y
_atom_site_fract_z
Si Si1 0.168432 0.852574 0.101838
Si Si2 0.176936 0.529121 0.554020
Si Si3 0.500000 0.250000 0.609425
Si Si4 0.320015 0.093153 0.803338
Si Si5 0.179909 0.990826 0.839382
Si Si6 0.682165 0.630525 0.516929
Si Si7 0.317777 0.806601 0.614047
Si Si8 0.181481 0.114771 0.305843
O O1 0.272456 0.874331 0.146857
O O2 0.225609 0.862200 0.043224
O O3 0.000000 0.877693 0.106833
O O4 0.129826 0.794521 0.108011
O O5 0.192042 0.500000 0.500000
O O6 0.277998 0.505934 0.599507
O O7 0.231636 0.584653 0.542637
O O8 0.000000 0.528220 0.570292
O O9 0.500000 0.089918 0.798852
O O10 0.250000 0.114284 0.750000
O O11 0.250816 0.038468 0.811756
O O12 0.253315 0.939464 0.819977
O O13 0.000000 0.989086 0.831404
O O14 0.500000 0.621074 0.518080
O O15 0.709123 0.677703 0.554001
O O16 0.500000 0.810561 0.622791
O O17 0.271378 0.750000 0.623610
O O18 0.235541 0.845665 0.651257
O O19 0.250000 0.129280 0.250000
O O20 0.000000 0.112627 0.303682
#
# Coordination Sequence:
#
# PCOD9538091 Si02
#       8
#    16  16   4  16  16  16  16  16
#     4   9  20  39  66  97 129 170 214 263 319 383
#     4  11  23  37  56  88 133 173 212 258 315 376
#     4   8  20  40  72  96 136 168 224 260 328 390
#     4  12  25  43  67  95 131 169 217 270 328 392
#     4  12  24  41  64  93 128 170 217 261 319 388
#     4  10  20  35  62  94 127 168 211 261 315 379
#     4  10  22  39  63  94 126 166 216 266 319 377
#     4  12  25  43  65  90 126 166 215 268 324 381
#
# _framework density 19.067533000000001
#
# number of rings (size 3 to 8) (size 9 to 14) (size 15 to 20)
#    0.414    0.828    1.379    5.379    0.966    4.414 
#    0.000    0.690    0.000    0.000    0.000    0.000 
#    0.000    0.000    0.000    0.000    0.000    0.000 
#
# Total GULP energy -323571.866277 kJ/mol
# GULP energy per Si atom -5578.825281 kJ/mol
# Density = 1.902413 g / cm^3
# Si number density = 19.067533 Si / 1000 Ang^3
#
#
#
# Elastic Constant Matrix: (Units=GPa)
#
#
# Indices 1 2 3 4 5 6 
#
# 1 98.4084 15.7560 48.7500 0.0000 0.0000 0.0000
# 2 15.7560 50.8204 15.1441 0.0000 0.0000 0.0000
# 3 48.7500 15.1441 114.1988 0.0000 0.0000 0.0000
# 4 0.0000 0.0000 0.0000 -6.6340 0.0000 0.0000
# 5 0.0000 0.0000 0.0000 0.0000 28.0952 0.0000
# 6 0.0000 0.0000 0.0000 0.0000 0.0000 19.1923
#
#
#
# Elastic Compliance Matrix: (Units=1/GPa)
#
#
# Indices 1 2 3 4 5 6 
#
# 1 0.013188 -0.002510 -0.005297 0.000000 0.000000 0.000000
# 2 -0.002510 0.020965 -0.001709 0.000000 0.000000 0.000000
# 3 -0.005297 -0.001709 0.011244 0.000000 0.000000 0.000000
# 4 0.000000 0.000000 0.000000 -0.150738 0.000000 0.000000
# 5 0.000000 0.000000 0.000000 0.000000 0.035593 0.000000
# 6 0.000000 0.000000 0.000000 0.000000 0.000000 0.052104
#
#
# Mechanical properties :
#
#
# Convention : Reuss Voigt Hill
#
# Bulk Modulus (GPa) = 37.92843 46.96974 42.44908
# Shear Modulus (GPa) = 491.40022 20.38253 255.89138
#
# Velocity S-wave (km/s) = 16.07094 3.27305 11.59716
# Velocity P-wave (km/s) = 19.08669 6.24265 14.19987
#
# Compressibility (1/GPa) = 0.02636545
#
# Stress axis : x y z
#
# Youngs Moduli (GPa) = 75.82909 47.69966 88.93368
#
# Poissons Ratio (x) = 0.11974 0.47106
# Poissons Ratio (y) = 0.19035 0.15195
# Poissons Ratio (z) = 0.40165 0.08150
#
# Static dielectric constant tensor:
#      x y z
#    x 1.649240 0.000000 0.000000 
#    y 0.000000 1.638280 0.000000 
#    z 0.000000 0.000000 1.679120 
# 
# From -- ./inp_files/57694.got.cif
#   From: 2010.05.17/outbox.cif.g08.bks.cpg/sg74_29_cif.got.tgz:57694.got - 2010.06.03 17:57:02.
