data_PCOD9538834
_publ_section_title
;
Structure prediction by ZEFSAII (Michael W. Deem and Ramdas Pophale) SiO2 
 PCOD9538834
Probable space group: I M M A
;
_chemical_formula_sum "Si O2"
_cell_formula_units_Z 112
_cell_length_a 18.401538
_cell_length_b 28.791708
_cell_length_c 11.192276
_cell_angle_alpha 90.000000
_cell_angle_beta 90.000000
_cell_angle_gamma 90.000000
_cell_volume 5929.798873
_symmetry_space_group_name_H-M "I M M A"
_symmetry_group_IT_number 74
_symmetry_cell_setting 'orthorhombic'
loop_
_space_group_symop_operation_xyz
x,y,z
-x,1/2-y,z
x,-y,-z
-x,1/2+y,-z
-x,-y,-z
x,1/2+y,-z
-x,y,z
x,1/2-y,z
1/2+x,1/2+y,1/2+z
1/2-x,-y,1/2+z
1/2+x,1/2-y,1/2-z
1/2-x,y,1/2-z
1/2-x,1/2-y,1/2-z
1/2+x,y,1/2-z
1/2-x,1/2+y,1/2+z
1/2+x,-y,1/2+z
loop_
_atom_site_type_symbol
_atom_site_label
_atom_site_fract_x
_atom_site_fract_y
_atom_site_fract_z
Si Si1 0.718400 0.525564 0.614626
Si Si2 0.085375 0.695337 0.978140
Si Si3 0.915792 0.984052 0.226088
Si Si4 0.415551 0.575369 0.867618
Si Si5 0.816602 0.873929 0.827240
Si Si6 0.587780 0.801235 0.239179
Si Si7 0.588795 0.895980 0.129633
O O1 0.752979 0.500000 0.500000
O O2 0.750000 0.518049 0.750000
O O3 0.637904 0.504347 0.628629
O O4 0.713550 0.581206 0.600068
O O5 0.093542 0.750000 0.947779
O O6 0.139507 0.662704 0.905410
O O7 0.000000 0.683016 0.958148
O O8 0.099976 0.690941 0.119970
O O9 0.890752 0.934038 0.272014
O O10 0.000000 0.981965 0.187982
O O11 0.912078 0.020904 0.335619
O O12 0.500000 0.588839 0.859979
O O13 0.371280 0.602858 0.768161
O O14 0.388399 0.587484 0.999034
O O15 0.750000 0.853715 0.750000
O O16 0.500000 0.800064 0.225029
O O17 0.615682 0.750000 0.205697
O O18 0.614988 0.844760 0.163581
O O19 0.500000 0.896033 0.129779
#
# Coordination Sequence:
#
# PCOD9538834 Si02
#       7
#    16  16  16  16  16  16  16
#     4  10  23  39  55  77 111 151 188 228 275 329
#     4   9  18  34  57  80 104 138 179 224 274 326
#     4   9  18  31  50  79 107 136 175 222 272 324
#     4   9  17  31  49  74 107 140 169 213 269 322
#     4  10  21  35  53  75 107 140 180 223 272 320
#     4   8  15  28  47  74 104 133 168 217 269 311
#     4   9  16  27  49  77 103 134 173 213 266 330
#
# _framework density 18.887657000000001
#
# number of rings (size 3 to 8) (size 9 to 14) (size 15 to 20)
#    0.000    2.857    0.000    1.714    2.000    6.286 
#    0.000    0.714    0.000    2.571    0.000    2.000 
#    0.000    0.000    0.000    0.000    0.000    0.000 
#
# Total GULP energy -312156.621414 kJ/mol
# GULP energy per Si atom -5574.225382 kJ/mol
# Density = 1.884467 g / cm^3
# Si number density = 18.887657 Si / 1000 Ang^3
#
#
#
# Elastic Constant Matrix: (Units=GPa)
#
#
# Indices 1 2 3 4 5 6 
#
# 1 50.5505 22.5032 22.0170 0.0000 0.0000 0.0000
# 2 22.5032 91.6126 39.4086 0.0001 0.0000 0.0000
# 3 22.0170 39.4086 55.9219 0.0000 -0.0002 0.0000
# 4 0.0000 0.0001 0.0000 22.2250 -0.0001 0.0000
# 5 0.0000 0.0000 -0.0002 -0.0001 11.8437 0.0000
# 6 0.0000 0.0000 0.0000 0.0000 0.0000 15.0406
#
#
#
# Elastic Compliance Matrix: (Units=1/GPa)
#
#
# Indices 1 2 3 4 5 6 
#
# 1 0.024321 -0.002662 -0.007699 0.000000 0.000000 0.000000
# 2 -0.002662 0.015955 -0.010196 0.000000 0.000000 0.000000
# 3 -0.007699 -0.010196 0.028098 0.000000 0.000001 0.000000
# 4 0.000000 0.000000 0.000000 0.044994 0.000000 0.000000
# 5 0.000000 0.000000 0.000001 0.000000 0.084433 0.000000
# 6 0.000000 0.000000 0.000000 0.000000 0.000000 0.066487
#
#
# Mechanical properties :
#
#
# Convention : Reuss Voigt Hill
#
# Bulk Modulus (GPa) = 36.68361 40.66030 38.67195
# Shear Modulus (GPa) = 15.89879 17.43227 16.66553
#
# Velocity S-wave (km/s) = 2.90445 3.04130 2.97366
# Velocity P-wave (km/s) = 5.54183 5.82296 5.68413
#
# Compressibility (1/GPa) = 0.02726013
#
# Stress axis : x y z
#
# Youngs Moduli (GPa) = 41.11729 62.67523 35.58922
#
# Poissons Ratio (x) = 0.16684 0.27401
# Poissons Ratio (y) = 0.10945 0.36286
# Poissons Ratio (z) = 0.31658 0.63902
#
# Static dielectric constant tensor:
#      x y z
#    x 1.695050 0.000000 0.000000 
#    y 0.000000 1.653920 0.000000 
#    z 0.000000 0.000000 1.649340 
# 
# From -- ./inp_files/24342.got.cif
#   From: 2010.05.17/outbox.cif.g08.bks.cpg/sg74_13_cif.got.tgz:24342.got - 2010.06.03 17:57:02.
