data_PCOD9538734
_publ_section_title
;
Structure prediction by ZEFSAII (Michael W. Deem and Ramdas Pophale) SiO2 
 PCOD9538734
Probable space group: I M M A
;
_chemical_formula_sum "Si O2"
_cell_formula_units_Z 84
_cell_length_a 14.644573
_cell_length_b 21.044544
_cell_length_c 13.844384
_cell_angle_alpha 90.000000
_cell_angle_beta 90.000000
_cell_angle_gamma 90.000000
_cell_volume 4266.678012
_symmetry_space_group_name_H-M "I M M A"
_symmetry_group_IT_number 74
_symmetry_cell_setting 'orthorhombic'
loop_
_space_group_symop_operation_xyz
x,y,z
-x,1/2-y,z
x,-y,-z
-x,1/2+y,-z
-x,-y,-z
x,1/2+y,-z
-x,y,z
x,1/2-y,z
1/2+x,1/2+y,1/2+z
1/2-x,-y,1/2+z
1/2+x,1/2-y,1/2-z
1/2-x,y,1/2-z
1/2-x,1/2-y,1/2-z
1/2+x,y,1/2-z
1/2-x,1/2+y,1/2+z
1/2+x,-y,1/2+z
loop_
_atom_site_type_symbol
_atom_site_label
_atom_site_fract_x
_atom_site_fract_y
_atom_site_fract_z
Si Si1 0.656093 0.869537 0.112715
Si Si2 0.605708 0.750000 0.232397
Si Si3 0.000000 0.372909 0.055083
Si Si4 0.000000 0.901192 0.729270
Si Si5 0.500000 0.750000 0.421112
Si Si6 0.141274 0.987277 0.252873
Si Si7 0.833979 0.563206 0.047856
Si Si8 0.500000 0.825947 0.968298
O O1 0.653202 0.812514 0.190548
O O2 0.623557 0.933433 0.167107
O O3 0.756246 0.885916 0.072816
O O4 0.588112 0.849703 0.027884
O O5 0.500000 0.750000 0.193603
O O6 0.586488 0.750000 0.347041
O O7 0.000000 0.363738 0.169591
O O8 0.000000 0.310747 0.988942
O O9 0.089819 0.411665 0.024494
O O10 0.000000 0.856514 0.637161
O O11 0.085962 0.949167 0.728445
O O12 0.250000 0.998847 0.250000
O O13 0.119105 0.957314 0.148399
O O14 0.791005 0.500000 0.000000
O O15 0.500000 0.750000 0.962798
#
# Coordination Sequence:
#
# PCOD9538734 Si02
#       8
#    16   8   8   8   4  16  16   8
#     4  11  22  41  70  98 133 164 220 276 335 394
#     4  10  20  43  67  98 135 167 209 274 334 387
#     4  12  24  45  63  95 135 180 222 262 321 393
#     4  12  26  39  69  85 134 180 217 267 324 378
#     4  10  24  40  74  98 130 176 230 260 330 408
#     4  10  23  40  63 105 130 161 214 271 331 398
#     4  11  23  41  68  99 138 174 212 268 334 400
#     4  12  26  46  67  94 126 178 227 274 336 386
#
# _framework density 19.687446999999999
#
# number of rings (size 3 to 8) (size 9 to 14) (size 15 to 20)
#    0.286    0.762    3.810    2.571    6.000    1.524 
#    0.000    5.238    0.000    1.714    0.000    0.000 
#    0.000    0.000    0.000    0.000    0.000    0.000 
#
# Total GULP energy -234850.885812 kJ/mol
# GULP energy per Si atom -5591.687757 kJ/mol
# Density = 1.964264 g / cm^3
# Si number density = 19.687447 Si / 1000 Ang^3
#
#
#
# Elastic Constant Matrix: (Units=GPa)
#
#
# Indices 1 2 3 4 5 6 
#
# 1 88.0869 65.3012 48.2913 0.0000 0.0000 0.0000
# 2 65.3012 122.2161 76.4795 0.0000 0.0001 0.0000
# 3 48.2913 76.4795 175.5379 0.0001 0.0001 -0.0001
# 4 0.0000 0.0000 0.0001 49.0278 0.0000 0.0000
# 5 0.0000 0.0001 0.0001 0.0000 -127.1122 0.0001
# 6 0.0000 0.0000 -0.0001 0.0000 0.0001 -6.6018
#
#
#
# Elastic Compliance Matrix: (Units=1/GPa)
#
#
# Indices 1 2 3 4 5 6 
#
# 1 0.018952 -0.009436 -0.001103 0.000000 0.000000 0.000000
# 2 -0.009436 0.015948 -0.004352 0.000000 0.000000 0.000000
# 3 -0.001103 -0.004352 0.007896 0.000000 0.000000 0.000000
# 4 0.000000 0.000000 0.000000 0.020397 0.000000 0.000000
# 5 0.000000 0.000000 0.000000 0.000000 -0.007867 0.000000
# 6 0.000000 0.000000 0.000000 0.000000 0.000000 -0.151474
#
#
# Mechanical properties :
#
#
# Convention : Reuss Voigt Hill
#
# Bulk Modulus (GPa) = 76.84063 85.10942 80.97503
# Shear Modulus (GPa) = -80.60948 -3.88597 -42.24772
#
# Velocity S-wave (km/s) = -6.40574 -1.40645 -4.63744
# Velocity P-wave (km/s) = 3.94922 6.37861 3.54192
#
# Compressibility (1/GPa) = 0.01301395
#
# Stress axis : x y z
#
# Youngs Moduli (GPa) = 52.76386 62.70501 126.64206
#
# Poissons Ratio (x) = 0.59171 0.13963
# Poissons Ratio (y) = 0.49791 0.55117
# Poissons Ratio (z) = 0.05817 0.27290
#
# Static dielectric constant tensor:
#      x y z
#    x 1.695700 0.000000 0.000000 
#    y 0.000000 1.678040 0.000000 
#    z 0.000000 0.000000 1.694210 
# 
# From -- ./inp_files/32291.got.cif
#   From: 2010.05.17/outbox.cif.g08.bks.cpg/sg74_17_cif.got.tgz:32291.got - 2010.06.03 17:57:02.
