data_PCOD9538125
_publ_section_title
;
Structure prediction by ZEFSAII (Michael W. Deem and Ramdas Pophale) SiO2 
 PCOD9538125
Probable space group: I M M A
;
_chemical_formula_sum "Si O2"
_cell_formula_units_Z 112
_cell_length_a 24.043903
_cell_length_b 17.896342
_cell_length_c 13.530934
_cell_angle_alpha 90.000000
_cell_angle_beta 90.000000
_cell_angle_gamma 90.000000
_cell_volume 5822.332635
_symmetry_space_group_name_H-M "I M M A"
_symmetry_group_IT_number 74
_symmetry_cell_setting 'orthorhombic'
loop_
_space_group_symop_operation_xyz
x,y,z
-x,1/2-y,z
x,-y,-z
-x,1/2+y,-z
-x,-y,-z
x,1/2+y,-z
-x,y,z
x,1/2-y,z
1/2+x,1/2+y,1/2+z
1/2-x,-y,1/2+z
1/2+x,1/2-y,1/2-z
1/2-x,y,1/2-z
1/2-x,1/2-y,1/2-z
1/2+x,y,1/2-z
1/2-x,1/2+y,1/2+z
1/2+x,-y,1/2+z
loop_
_atom_site_type_symbol
_atom_site_label
_atom_site_fract_x
_atom_site_fract_y
_atom_site_fract_z
Si Si1 0.060502 0.038120 0.605236
Si Si2 0.645085 0.838539 0.108730
Si Si3 0.286596 0.661350 0.905914
Si Si4 0.325712 0.160719 0.505405
Si Si5 0.435665 0.660302 0.610813
Si Si6 0.634506 0.069536 0.238072
Si Si7 0.808892 0.429211 0.796139
O O1 0.087206 0.119311 0.591373
O O2 0.000000 0.042675 0.653746
O O3 0.055459 0.000000 0.500000
O O4 0.101358 0.983843 0.663428
O O5 0.640572 0.750000 0.119157
O O6 0.666648 0.875357 0.210266
O O7 0.684229 0.853361 0.013033
O O8 0.292618 0.750000 0.884784
O O9 0.221015 0.645354 0.921373
O O10 0.318506 0.614303 0.822771
O O11 0.322204 0.250000 0.524298
O O12 0.388759 0.143093 0.472187
O O13 0.308570 0.116107 0.602669
O O14 0.500000 0.636943 0.592911
O O15 0.435815 0.750000 0.621280
O O16 0.408927 0.623472 0.707995
O O17 0.659420 0.007154 0.311159
O O18 0.750000 0.450181 0.750000
#
# Coordination Sequence:
#
# PCOD9538125 Si02
#       7
#    16  16  16  16  16  16  16
#     4  10  20  36  55  80 119 161 198 249 305 357
#     4  10  20  36  59  87 118 158 205 252 303 365
#     4  10  20  36  61  89 125 160 198 255 311 368
#     4  10  22  41  64  91 122 162 211 260 310 368
#     4  10  23  45  69  91 121 164 214 262 307 363
#     4  11  23  38  59  92 124 164 202 253 308 377
#     4  11  23  37  59  92 124 164 200 247 311 378
#
# _framework density 19.236276
#
# number of rings (size 3 to 8) (size 9 to 14) (size 15 to 20)
#    0.000    1.714    2.857    1.286    2.000    1.429 
#    0.000    6.429    0.000    3.429    0.000    0.000 
#    0.000    0.000    0.000    0.000    0.000    0.000 
#
# Total GULP energy -312386.728163 kJ/mol
# GULP energy per Si atom -5578.334431 kJ/mol
# Density = 1.919249 g / cm^3
# Si number density = 19.236276 Si / 1000 Ang^3
#
#
#
# Elastic Constant Matrix: (Units=GPa)
#
#
# Indices 1 2 3 4 5 6 
#
# 1 127.2327 36.2789 18.1427 0.0000 0.0000 0.0000
# 2 36.2789 54.4790 19.7568 0.0000 0.0000 0.0000
# 3 18.1427 19.7568 39.3314 0.0000 0.0000 0.0000
# 4 0.0000 0.0000 0.0000 22.3615 0.0000 0.0000
# 5 0.0000 0.0000 0.0000 0.0000 20.7822 0.0000
# 6 0.0000 0.0000 0.0000 0.0000 0.0000 28.2605
#
#
#
# Elastic Compliance Matrix: (Units=1/GPa)
#
#
# Indices 1 2 3 4 5 6 
#
# 1 0.009775 -0.005960 -0.001515 0.000000 0.000000 0.000000
# 2 -0.005960 0.026078 -0.010350 0.000000 0.000000 0.000000
# 3 -0.001515 -0.010350 0.031323 0.000000 0.000000 0.000000
# 4 0.000000 0.000000 0.000000 0.044720 0.000000 0.000000
# 5 0.000000 0.000000 0.000000 0.000000 0.048118 0.000000
# 6 0.000000 0.000000 0.000000 0.000000 0.000000 0.035385
#
#
# Mechanical properties :
#
#
# Convention : Reuss Voigt Hill
#
# Bulk Modulus (GPa) = 31.72058 41.04444 36.38251
# Shear Modulus (GPa) = 20.69893 24.07182 22.38537
#
# Velocity S-wave (km/s) = 3.28386 3.54132 3.41501
# Velocity P-wave (km/s) = 5.55914 6.17289 5.87404
#
# Compressibility (1/GPa) = 0.03152528
#
# Stress axis : x y z
#
# Youngs Moduli (GPa) = 102.30080 38.34639 31.92544
#
# Poissons Ratio (x) = 0.22854 0.04837
# Poissons Ratio (y) = 0.60971 0.33044
# Poissons Ratio (z) = 0.15501 0.39689
#
# Static dielectric constant tensor:
#      x y z
#    x 1.763640 0.000000 0.000000 
#    y 0.000000 1.634210 0.000000 
#    z 0.000000 0.000000 1.654540 
# 
# From -- ./inp_files/36523.got.cif
#   From: 2010.05.17/outbox.cif.g08.bks.cpg/sg74_19_cif.got.tgz:36523.got - 2010.06.03 17:57:02.
