data_PCOD9538929
_publ_section_title
;
Structure prediction by ZEFSAII (Michael W. Deem and Ramdas Pophale) SiO2 
 PCOD9538929
Probable space group: I M M A
;
_chemical_formula_sum "Si O2"
_cell_formula_units_Z 96
_cell_length_a 8.758255
_cell_length_b 20.692315
_cell_length_c 28.735588
_cell_angle_alpha 90.000000
_cell_angle_beta 90.000000
_cell_angle_gamma 90.000000
_cell_volume 5207.709559
_symmetry_space_group_name_H-M "I M M A"
_symmetry_group_IT_number 74
_symmetry_cell_setting 'orthorhombic'
loop_
_space_group_symop_operation_xyz
x,y,z
-x,1/2-y,z
x,-y,-z
-x,1/2+y,-z
-x,-y,-z
x,1/2+y,-z
-x,y,z
x,1/2-y,z
1/2+x,1/2+y,1/2+z
1/2-x,-y,1/2+z
1/2+x,1/2-y,1/2-z
1/2-x,y,1/2-z
1/2-x,1/2-y,1/2-z
1/2+x,y,1/2-z
1/2-x,1/2+y,1/2+z
1/2+x,-y,1/2+z
loop_
_atom_site_type_symbol
_atom_site_label
_atom_site_fract_x
_atom_site_fract_y
_atom_site_fract_z
Si Si1 0.316084 0.324560 0.627879
Si Si2 0.182711 0.675086 0.699273
Si Si3 0.315599 0.938333 0.639222
Si Si4 0.817316 0.824674 0.473354
Si Si5 0.315675 0.063826 0.698413
Si Si6 0.184422 0.560244 0.968095
O O1 0.500000 0.328726 0.623113
O O2 0.276590 0.250000 0.638648
O O3 0.243683 0.341482 0.578151
O O4 0.268530 0.374089 0.667910
O O5 0.223847 0.750000 0.689747
O O6 0.250000 0.658161 0.750000
O O7 0.247915 0.626436 0.661261
O O8 0.000000 0.670287 0.701096
O O9 0.500000 0.934702 0.640518
O O10 0.269440 0.947752 0.585605
O O11 0.268588 0.999339 0.670674
O O12 0.772299 0.750000 0.482485
O O13 0.748621 0.874149 0.510170
O O14 0.000000 0.828324 0.473796
O O15 0.500000 0.063959 0.700992
O O16 0.250000 0.064949 0.750000
O O17 0.000000 0.562429 0.969673
O O18 0.234409 0.500000 0.000000
#
# Coordination Sequence:
#
# PCOD9538929 Si02
#       6
#    16  16  16  16  16  16
#     4   9  18  35  58  80 106 144 185 221 261 313
#     4  10  21  37  57  80 107 139 175 217 264 315
#     4  10  21  36  55  79 107 139 177 221 265 314
#     4  10  21  36  55  82 114 144 177 221 271 322
#     4  10  21  36  54  79 109 140 177 221 267 315
#     4  10  21  38  59  81 107 142 184 227 269 318
#
# _framework density 18.434208000000002
#
# number of rings (size 3 to 8) (size 9 to 14) (size 15 to 20)
#    0.000    2.167    0.000    2.500    0.000    9.333 
#    0.000    5.000    0.000    0.000    0.000    0.000 
#    0.000    0.000    0.000    0.000    0.000    0.000 
#
# Total GULP energy -268078.171172 kJ/mol
# GULP energy per Si atom -5584.961899 kJ/mol
# Density = 1.839225 g / cm^3
# Si number density = 18.434208 Si / 1000 Ang^3
#
#
#
# Elastic Constant Matrix: (Units=GPa)
#
#
# Indices 1 2 3 4 5 6 
#
# 1 6.8402 14.6715 16.3835 0.0000 0.0000 0.0000
# 2 14.6715 55.4907 29.1453 0.0000 0.0000 0.0000
# 3 16.3835 29.1453 65.4343 0.0000 0.0000 0.0000
# 4 0.0000 0.0000 0.0000 42.4775 0.0000 0.0000
# 5 0.0000 0.0000 0.0000 0.0000 33.0124 0.0000
# 6 0.0000 0.0000 0.0000 0.0000 0.0000 22.5702
#
#
#
# Elastic Compliance Matrix: (Units=1/GPa)
#
#
# Indices 1 2 3 4 5 6 
#
# 1 0.685461 -0.118907 -0.118663 0.000000 0.000000 0.000000
# 2 -0.118907 0.044151 0.010106 0.000000 0.000000 0.000000
# 3 -0.118663 0.010106 0.040492 0.000000 0.000000 0.000000
# 4 0.000000 0.000000 0.000000 0.023542 0.000000 0.000000
# 5 0.000000 0.000000 0.000000 0.000000 0.030292 0.000000
# 6 0.000000 0.000000 0.000000 0.000000 0.000000 0.044306
#
#
# Mechanical properties :
#
#
# Convention : Reuss Voigt Hill
#
# Bulk Modulus (GPa) = 3.17283 27.57395 15.37339
# Shear Modulus (GPa) = 3.50084 24.11633 13.80858
#
# Velocity S-wave (km/s) = 1.37957 3.62088 2.73989
# Velocity P-wave (km/s) = 2.06459 5.69838 4.28568
#
# Compressibility (1/GPa) = 0.31517607
#
# Stress axis : x y z
#
# Youngs Moduli (GPa) = 1.45887 22.64943 24.69623
#
# Poissons Ratio (x) = 2.69317 2.93054
# Poissons Ratio (y) = 0.17347 -0.24959
# Poissons Ratio (z) = 0.17311 -0.22891
#
# Static dielectric constant tensor:
#      x y z
#    x 1.624100 0.000000 0.000000 
#    y 0.000000 1.629580 0.000000 
#    z 0.000000 0.000000 1.599410 
# 
# From -- ./inp_files/64272.got.cif
#   From: 2010.05.17/outbox.cif.g08.bks.cpg/sg74_33_cif.got.tgz:64272.got - 2010.06.03 17:57:02.
