data_PCOD9538531
_publ_section_title
;
Structure prediction by ZEFSAII (Michael W. Deem and Ramdas Pophale) SiO2 
 PCOD9538531
Probable space group: I M M A
;
_chemical_formula_sum "Si O2"
_cell_formula_units_Z 96
_cell_length_a 10.143170
_cell_length_b 22.588207
_cell_length_c 23.995633
_cell_angle_alpha 90.000000
_cell_angle_beta 90.000000
_cell_angle_gamma 90.000000
_cell_volume 5497.784017
_symmetry_space_group_name_H-M "I M M A"
_symmetry_group_IT_number 74
_symmetry_cell_setting 'orthorhombic'
loop_
_space_group_symop_operation_xyz
x,y,z
-x,1/2-y,z
x,-y,-z
-x,1/2+y,-z
-x,-y,-z
x,1/2+y,-z
-x,y,z
x,1/2-y,z
1/2+x,1/2+y,1/2+z
1/2-x,-y,1/2+z
1/2+x,1/2-y,1/2-z
1/2-x,y,1/2-z
1/2-x,1/2-y,1/2-z
1/2+x,y,1/2-z
1/2-x,1/2+y,1/2+z
1/2+x,-y,1/2+z
loop_
_atom_site_type_symbol
_atom_site_label
_atom_site_fract_x
_atom_site_fract_y
_atom_site_fract_z
Si Si1 0.237452 0.634598 0.616329
Si Si2 0.500000 0.677846 0.808461
Si Si3 0.344770 0.181286 0.998294
Si Si4 0.000000 0.820626 0.824196
Si Si5 0.653110 0.884255 0.414190
Si Si6 0.348781 0.179285 0.702486
Si Si7 0.155581 0.983152 0.935912
O O1 0.124905 0.647907 0.661543
O O2 0.200191 0.672840 0.561956
O O3 0.372543 0.653763 0.645267
O O4 0.258614 0.568282 0.592039
O O5 0.500000 0.750000 0.816985
O O6 0.500000 0.666995 0.742114
O O7 0.500000 0.166113 0.993704
O O8 0.328668 0.250000 0.982002
O O9 0.252734 0.140615 0.960050
O O10 0.000000 0.750000 0.830269
O O11 0.500000 0.874614 0.432051
O O12 0.675656 0.850385 0.356730
O O13 0.668735 0.954222 0.405069
O O14 0.500000 0.167455 0.718688
O O15 0.333527 0.250000 0.696299
O O16 0.250000 0.158423 0.750000
O O17 0.000000 0.965332 0.935943
O O18 0.189623 0.000000 0.000000
#
# Coordination Sequence:
#
# PCOD9538531 Si02
#       7
#    16   8  16   8  16  16  16
#     4  12  22  40  62  89 119 160 203 242 304 367
#     4  11  24  44  63  88 128 158 191 260 320 357
#     4  11  23  37  55  88 128 155 188 247 308 358
#     4  11  24  40  65  92 116 158 211 254 304 369
#     4  10  21  38  61  86 115 156 202 246 292 348
#     4   9  18  34  57  84 114 149 189 236 289 345
#     4  10  20  38  60  86 118 156 195 244 291 342
#
# _framework density 17.461580000000001
#
# number of rings (size 3 to 8) (size 9 to 14) (size 15 to 20)
#    0.000    1.500    3.333    2.500    1.167    3.000 
#    1.500    4.583    0.000    0.000    0.000    0.000 
#    0.000    0.000    0.000    0.000    0.000    0.000 
#
# Total GULP energy -267901.462069 kJ/mol
# GULP energy per Si atom -5581.280460 kJ/mol
# Density = 1.742184 g / cm^3
# Si number density = 17.461580 Si / 1000 Ang^3
#
#
#
# Elastic Constant Matrix: (Units=GPa)
#
#
# Indices 1 2 3 4 5 6 
#
# 1 115.8090 52.8154 64.2578 0.0000 0.0000 0.0000
# 2 52.8154 68.8852 53.6206 0.0000 0.0000 0.0000
# 3 64.2578 53.6206 89.7067 0.0000 0.0000 0.0000
# 4 0.0000 0.0000 0.0000 13.4771 0.0000 0.0000
# 5 0.0000 0.0000 0.0000 0.0000 36.7633 0.0000
# 6 0.0000 0.0000 0.0000 0.0000 0.0000 19.0964
#
#
#
# Elastic Compliance Matrix: (Units=1/GPa)
#
#
# Indices 1 2 3 4 5 6 
#
# 1 0.015589 -0.006097 -0.007522 0.000000 0.000000 0.000000
# 2 -0.006097 0.029533 -0.013286 0.000000 0.000000 0.000000
# 3 -0.007522 -0.013286 0.024477 0.000000 0.000000 0.000000
# 4 0.000000 0.000000 0.000000 0.074200 0.000000 0.000000
# 5 0.000000 0.000000 0.000000 0.000000 0.027201 0.000000
# 6 0.000000 0.000000 0.000000 0.000000 0.000000 0.052366
#
#
# Mechanical properties :
#
#
# Convention : Reuss Voigt Hill
#
# Bulk Modulus (GPa) = 63.33325 68.42093 65.87709
# Shear Modulus (GPa) = 17.70288 20.78117 19.24202
#
# Velocity S-wave (km/s) = 3.18751 3.45354 3.32318
# Velocity P-wave (km/s) = 7.06369 7.42774 7.24800
#
# Compressibility (1/GPa) = 0.01578949
#
# Stress axis : x y z
#
# Youngs Moduli (GPa) = 64.14598 33.86012 40.85474
#
# Poissons Ratio (x) = 0.20645 0.30732
# Poissons Ratio (y) = 0.39111 0.54278
# Poissons Ratio (z) = 0.48253 0.44985
#
# Static dielectric constant tensor:
#      x y z
#    x 1.602580 0.000000 0.000000 
#    y 0.000000 1.593520 0.000000 
#    z 0.000000 0.000000 1.575560 
# 
# From -- ./inp_files/57353.got.cif
#   From: 2010.05.17/outbox.cif.g08.bks.cpg/sg74_29_cif.got.tgz:57353.got - 2010.06.03 17:57:02.
