data_PCOD9538718
_publ_section_title
;
Structure prediction by ZEFSAII (Michael W. Deem and Ramdas Pophale) SiO2 
 PCOD9538718
Probable space group: I M M A
;
_chemical_formula_sum "Si O2"
_cell_formula_units_Z 96
_cell_length_a 15.608592
_cell_length_b 15.685891
_cell_length_c 21.008954
_cell_angle_alpha 90.000000
_cell_angle_beta 90.000000
_cell_angle_gamma 90.000000
_cell_volume 5143.720378
_symmetry_space_group_name_H-M "I M M A"
_symmetry_group_IT_number 74
_symmetry_cell_setting 'orthorhombic'
loop_
_space_group_symop_operation_xyz
x,y,z
-x,1/2-y,z
x,-y,-z
-x,1/2+y,-z
-x,-y,-z
x,1/2+y,-z
-x,y,z
x,1/2-y,z
1/2+x,1/2+y,1/2+z
1/2-x,-y,1/2+z
1/2+x,1/2-y,1/2-z
1/2-x,y,1/2-z
1/2-x,1/2-y,1/2-z
1/2+x,y,1/2-z
1/2-x,1/2+y,1/2+z
1/2+x,-y,1/2+z
loop_
_atom_site_type_symbol
_atom_site_label
_atom_site_fract_x
_atom_site_fract_y
_atom_site_fract_z
Si Si1 0.841208 0.151264 0.393620
Si Si2 0.832515 0.552233 0.865033
Si Si3 0.500000 0.848827 0.824628
Si Si4 0.677094 0.650859 0.033935
Si Si5 0.401910 0.852708 0.170820
Si Si6 0.750000 0.058030 0.750000
Si Si7 0.000000 0.153945 0.174193
Si Si8 0.809080 0.500000 0.000000
O O1 0.828318 0.250000 0.375962
O O2 0.751328 0.106735 0.382987
O O3 0.872161 0.148016 0.466656
O O4 0.913788 0.110018 0.350243
O O5 0.798465 0.493913 0.806697
O O6 0.913214 0.606865 0.844133
O O7 0.858574 0.514288 0.934051
O O8 0.500000 0.750000 0.849527
O O9 0.500000 0.843730 0.750142
O O10 0.707836 0.750000 0.040383
O O11 0.624149 0.629515 0.097139
O O12 0.750022 0.580685 0.021127
O O13 0.500000 0.882301 0.183848
O O14 0.401740 0.750000 0.177801
O O15 0.326664 0.890138 0.215129
O O16 0.000000 0.250000 0.148460
#
# Coordination Sequence:
#
# PCOD9538718 Si02
#       8
#    16  16   8  16  16   8   8   8
#     4   9  18  34  57  86 122 157 195 240 300 376
#     4  11  23  38  61  85 119 160 203 259 315 364
#     4   9  18  32  53  85 119 153 190 238 296 368
#     4   9  18  35  60  90 125 162 198 247 308 376
#     4  10  22  40  64  92 125 165 210 254 303 371
#     4  12  23  40  61  94 126 166 202 256 317 372
#     4  11  24  41  61  84 117 165 219 263 307 372
#     4  10  20  41  59  92 122 156 210 261 321 374
#
# _framework density 18.663535
#
# number of rings (size 3 to 8) (size 9 to 14) (size 15 to 20)
#    0.000    2.000    1.667    1.750    2.333    1.000 
#    1.500    3.750    0.000    0.000    0.000    0.000 
#    0.000    0.000    0.000    0.000    0.000    0.000 
#
# Total GULP energy -267285.520486 kJ/mol
# GULP energy per Si atom -5568.448343 kJ/mol
# Density = 1.862106 g / cm^3
# Si number density = 18.663535 Si / 1000 Ang^3
#
#
#
# Elastic Constant Matrix: (Units=GPa)
#
#
# Indices 1 2 3 4 5 6 
#
# 1 131.7385 40.8549 67.0296 0.0000 0.0000 0.0000
# 2 40.8549 51.0595 44.6331 0.0000 0.0000 0.0000
# 3 67.0296 44.6331 124.3349 0.0000 0.0000 0.0000
# 4 0.0000 0.0000 0.0000 33.7796 0.0000 0.0000
# 5 0.0000 0.0000 0.0000 0.0000 32.7178 0.0000
# 6 0.0000 0.0000 0.0000 0.0000 0.0000 28.0241
#
#
#
# Elastic Compliance Matrix: (Units=1/GPa)
#
#
# Indices 1 2 3 4 5 6 
#
# 1 0.011422 -0.005474 -0.004192 0.000000 0.000000 0.000000
# 2 -0.005474 0.031165 -0.008236 0.000000 0.000000 0.000000
# 3 -0.004192 -0.008236 0.013259 0.000000 0.000000 0.000000
# 4 0.000000 0.000000 0.000000 0.029604 0.000000 0.000000
# 5 0.000000 0.000000 0.000000 0.000000 0.030564 0.000000
# 6 0.000000 0.000000 0.000000 0.000000 0.000000 0.035684
#
#
# Mechanical properties :
#
#
# Convention : Reuss Voigt Hill
#
# Bulk Modulus (GPa) = 49.89939 68.01869 58.95904
# Shear Modulus (GPa) = 25.74895 29.21200 27.48047
#
# Velocity S-wave (km/s) = 3.71838 3.96054 3.84137
# Velocity P-wave (km/s) = 6.72529 7.57881 7.16477
#
# Compressibility (1/GPa) = 0.02004032
#
# Stress axis : x y z
#
# Youngs Moduli (GPa) = 87.55380 32.08763 75.41782
#
# Poissons Ratio (x) = 0.17565 0.31618
# Poissons Ratio (y) = 0.47929 0.62115
# Poissons Ratio (z) = 0.36705 0.26428
#
# Static dielectric constant tensor:
#      x y z
#    x 1.640220 0.000000 0.000000 
#    y 0.000000 1.712900 0.000000 
#    z 0.000000 0.000000 1.681150 
# 
# From -- ./inp_files/51987.got.cif
#   From: 2010.05.17/outbox.cif.g08.bks.cpg/sg74_26_cif.got.tgz:51987.got - 2010.06.03 17:57:02.
