data_PCOD9538846
_publ_section_title
;
Structure prediction by ZEFSAII (Michael W. Deem and Ramdas Pophale) SiO2 
 PCOD9538846
Probable space group: I M M A
;
_chemical_formula_sum "Si O2"
_cell_formula_units_Z 96
_cell_length_a 25.843106
_cell_length_b 8.736145
_cell_length_c 24.207998
_cell_angle_alpha 90.000000
_cell_angle_beta 90.000000
_cell_angle_gamma 90.000000
_cell_volume 5465.418436
_symmetry_space_group_name_H-M "I M M A"
_symmetry_group_IT_number 74
_symmetry_cell_setting 'orthorhombic'
loop_
_space_group_symop_operation_xyz
x,y,z
-x,1/2-y,z
x,-y,-z
-x,1/2+y,-z
-x,-y,-z
x,1/2+y,-z
-x,y,z
x,1/2-y,z
1/2+x,1/2+y,1/2+z
1/2-x,-y,1/2+z
1/2+x,1/2-y,1/2-z
1/2-x,y,1/2-z
1/2-x,1/2-y,1/2-z
1/2+x,y,1/2-z
1/2-x,1/2+y,1/2+z
1/2+x,-y,1/2+z
loop_
_atom_site_type_symbol
_atom_site_label
_atom_site_fract_x
_atom_site_fract_y
_atom_site_fract_z
Si Si1 0.750057 0.066176 0.561118
Si Si2 0.059460 0.565212 0.439866
Si Si3 0.652321 0.065617 0.862120
Si Si4 0.652952 0.566185 0.627084
Si Si5 0.060315 0.067008 0.939604
Si Si6 0.310089 0.065540 0.251498
O O1 0.747248 0.250000 0.558523
O O2 0.798545 0.022699 0.599852
O O3 0.756783 0.000000 0.500000
O O4 0.698168 0.000995 0.588594
O O5 0.073661 0.500000 0.500000
O O6 0.061233 0.750000 0.442907
O O7 0.100269 0.515446 0.393594
O O8 0.000000 0.519774 0.428123
O O9 0.651484 0.250000 0.858288
O O10 0.660477 0.998437 0.801554
O O11 0.654133 0.750000 0.623786
O O12 0.598668 0.504325 0.604898
O O13 0.665007 0.520056 0.690143
O O14 0.066142 0.250000 0.940940
O O15 0.000000 0.030709 0.928729
O O16 0.073390 0.000000 0.000000
O O17 0.310227 0.250000 0.248648
O O18 0.250000 0.014560 0.250000
#
# Coordination Sequence:
#
# PCOD9538846 Si02
#       6
#    16  16  16  16  16  16
#     4  11  22  34  51  78 110 141 177 222 274 329
#     4   9  18  34  55  80 110 143 180 222 270 322
#     4  10  21  35  54  80 108 142 182 225 273 324
#     4  11  22  37  57  80 109 144 182 225 272 323
#     4  10  21  38  60  85 113 145 181 223 272 325
#     4  10  21  38  57  78 106 144 185 225 272 322
#
# _framework density 17.564986999999999
#
# number of rings (size 3 to 8) (size 9 to 14) (size 15 to 20)
#    0.000    1.833    1.667    2.500    0.000    4.000 
#    0.000    0.833    0.000    3.000    0.000    0.000 
#    0.000    0.000    0.000    0.000    0.000    0.000 
#
# Total GULP energy -268105.549754 kJ/mol
# GULP energy per Si atom -5585.532287 kJ/mol
# Density = 1.752501 g / cm^3
# Si number density = 17.564987 Si / 1000 Ang^3
#
#
#
# Elastic Constant Matrix: (Units=GPa)
#
#
# Indices 1 2 3 4 5 6 
#
# 1 103.0679 32.2749 77.1010 0.0000 0.0000 0.0000
# 2 32.2749 30.5039 38.3111 0.0000 0.0000 0.0000
# 3 77.1010 38.3111 147.4769 0.0000 0.0000 0.0000
# 4 0.0000 0.0000 0.0000 35.1555 0.0000 0.0000
# 5 0.0000 0.0000 0.0000 0.0000 23.9567 0.0000
# 6 0.0000 0.0000 0.0000 0.0000 0.0000 10.1437
#
#
#
# Elastic Compliance Matrix: (Units=1/GPa)
#
#
# Indices 1 2 3 4 5 6 
#
# 1 0.018030 -0.010743 -0.006635 0.000000 0.000000 0.000000
# 2 -0.010743 0.055060 -0.008687 0.000000 0.000000 0.000000
# 3 -0.006635 -0.008687 0.012506 0.000000 0.000000 0.000000
# 4 0.000000 0.000000 0.000000 0.028445 0.000000 0.000000
# 5 0.000000 0.000000 0.000000 0.000000 0.041742 0.000000
# 6 0.000000 0.000000 0.000000 0.000000 0.000000 0.098584
#
#
# Mechanical properties :
#
#
# Convention : Reuss Voigt Hill
#
# Bulk Modulus (GPa) = 29.88148 64.04698 46.96423
# Shear Modulus (GPa) = 15.74045 22.74195 19.24120
#
# Velocity S-wave (km/s) = 2.99678 3.60214 3.31332
# Velocity P-wave (km/s) = 5.38732 7.33775 6.43684
#
# Compressibility (1/GPa) = 0.03346554
#
# Stress axis : x y z
#
# Youngs Moduli (GPa) = 55.46263 18.16206 79.96026
#
# Poissons Ratio (x) = 0.19512 0.53056
# Poissons Ratio (y) = 0.59586 0.69458
# Poissons Ratio (z) = 0.36801 0.15777
#
# Static dielectric constant tensor:
#      x y z
#    x 1.594300 0.000000 0.000000 
#    y 0.000000 1.591690 0.000000 
#    z 0.000000 0.000000 1.563520 
# 
# From -- ./inp_files/49108.got.cif
#   From: 2010.05.17/outbox.cif.g08.bks.cpg/sg74_25_cif.got.tgz:49108.got - 2010.06.03 17:57:02.
