data_PCOD9538836
_publ_section_title
;
Structure prediction by ZEFSAII (Michael W. Deem and Ramdas Pophale) SiO2 
 PCOD9538836
Probable space group: I M M A
;
_chemical_formula_sum "Si O2"
_cell_formula_units_Z 112
_cell_length_a 13.688519
_cell_length_b 15.522965
_cell_length_c 24.745196
_cell_angle_alpha 90.000000
_cell_angle_beta 90.000000
_cell_angle_gamma 90.000000
_cell_volume 5258.017648
_symmetry_space_group_name_H-M "I M M A"
_symmetry_group_IT_number 74
_symmetry_cell_setting 'orthorhombic'
loop_
_space_group_symop_operation_xyz
x,y,z
-x,1/2-y,z
x,-y,-z
-x,1/2+y,-z
-x,-y,-z
x,1/2+y,-z
-x,y,z
x,1/2-y,z
1/2+x,1/2+y,1/2+z
1/2-x,-y,1/2+z
1/2+x,1/2-y,1/2-z
1/2-x,y,1/2-z
1/2-x,1/2-y,1/2-z
1/2+x,y,1/2-z
1/2-x,1/2+y,1/2+z
1/2+x,-y,1/2+z
loop_
_atom_site_type_symbol
_atom_site_label
_atom_site_fract_x
_atom_site_fract_y
_atom_site_fract_z
Si Si1 0.278850 0.532019 0.807045
Si Si2 0.108401 0.346326 0.380763
Si Si3 0.612808 0.970412 0.598541
Si Si4 0.607248 0.342910 0.621088
Si Si5 0.107726 0.648524 0.442096
Si Si6 0.233748 0.149299 0.024026
Si Si7 0.188071 0.344267 0.678110
O O1 0.250000 0.571765 0.750000
O O2 0.362752 0.584289 0.836848
O O3 0.187213 0.534201 0.849671
O O4 0.320416 0.436172 0.793981
O O5 0.113750 0.250000 0.357397
O O6 0.184025 0.350542 0.429242
O O7 0.000000 0.360324 0.402216
O O8 0.500000 0.948556 0.612240
O O9 0.651063 0.911037 0.549912
O O10 0.613908 0.072442 0.584789
O O11 0.500000 0.347754 0.647794
O O12 0.612176 0.250000 0.592532
O O13 0.697443 0.342144 0.661747
O O14 0.104449 0.750000 0.457401
O O15 0.202810 0.614558 0.473244
O O16 0.129827 0.646822 0.378356
O O17 0.000000 0.611229 0.453310
O O18 0.203885 0.250000 0.016675
O O19 0.163249 0.250000 0.702278
#
# Coordination Sequence:
#
# PCOD9538836 Si02
#       7
#    16  16  16  16  16  16  16
#     4  10  21  35  53  77 106 143 186 230 275 322
#     4   9  18  34  55  77 103 137 179 227 274 320
#     4   9  18  33  51  74 106 139 175 222 271 319
#     4   8  14  28  50  69  88 123 170 217 263 307
#     4   9  17  31  53  80 111 146 179 213 257 312
#     4   9  17  31  53  80 109 141 176 213 262 326
#     4   9  18  33  53  79 110 141 177 220 265 318
#
# _framework density 21.300805
#
# number of rings (size 3 to 8) (size 9 to 14) (size 15 to 20)
#    0.000    3.000    0.000    0.429    0.000    3.714 
#    0.000    7.143    0.000   15.429    0.000    6.000 
#    0.000    0.000    0.000    3.857    0.000    0.000 
#
# Total GULP energy -311981.751190 kJ/mol
# GULP energy per Si atom -5571.102700 kJ/mol
# Density = 2.125232 g / cm^3
# Si number density = 21.300805 Si / 1000 Ang^3
#
#
#
# Elastic Constant Matrix: (Units=GPa)
#
#
# Indices 1 2 3 4 5 6 
#
# 1 70.9004 21.9632 -10.4019 0.0000 0.0000 0.0000
# 2 21.9632 58.1149 -0.6038 0.0000 0.0000 0.0000
# 3 -10.4019 -0.6038 38.9551 0.0000 0.0000 0.0000
# 4 0.0000 0.0000 0.0000 -4.2214 0.0000 0.0000
# 5 0.0000 0.0000 0.0000 0.0000 -15.4266 0.0000
# 6 0.0000 0.0000 0.0000 0.0000 0.0000 27.5641
#
#
#
# Elastic Compliance Matrix: (Units=1/GPa)
#
#
# Indices 1 2 3 4 5 6 
#
# 1 0.016683 -0.006260 0.004358 0.000000 0.000000 0.000000
# 2 -0.006260 0.019559 -0.001368 0.000000 0.000000 0.000000
# 3 0.004358 -0.001368 0.026813 0.000000 0.000000 0.000000
# 4 0.000000 0.000000 0.000000 -0.236891 0.000000 0.000000
# 5 0.000000 0.000000 0.000000 0.000000 -0.064823 0.000000
# 6 0.000000 0.000000 0.000000 0.000000 0.000000 0.036279
#
#
# Mechanical properties :
#
#
# Convention : Reuss Voigt Hill
#
# Bulk Modulus (GPa) = 17.69475 21.09838 19.39657
# Shear Modulus (GPa) = -28.24822 12.05076 -8.09873
#
# Velocity S-wave (km/s) = -3.64560 2.38111 -1.95201
# Velocity P-wave (km/s) = 3.06519 4.18164 2.01131
#
# Compressibility (1/GPa) = 0.05651393
#
# Stress axis : x y z
#
# Youngs Moduli (GPa) = 59.94248 51.12806 37.29538
#
# Poissons Ratio (x) = 0.32004 -0.16252
# Poissons Ratio (y) = 0.37521 0.05103
# Poissons Ratio (z) = -0.26121 0.06996
#
# Static dielectric constant tensor:
#      x y z
#    x 1.780730 0.000000 0.000000 
#    y 0.000000 1.823780 0.000000 
#    z 0.000000 0.000000 1.755440 
# 
# From -- ./inp_files/67213.got.cif
#   From: 2010.05.17/outbox.cif.g08.bks.cpg/sg74_34_cif.got.tgz:67213.got - 2010.06.03 17:57:02.
