data_PCOD9538225
_publ_section_title
;
Structure prediction by ZEFSAII (Michael W. Deem and Ramdas Pophale) SiO2 
 PCOD9538225
Probable space group: I M M A
;
_chemical_formula_sum "Si O2"
_cell_formula_units_Z 72
_cell_length_a 27.163030
_cell_length_b 8.960212
_cell_length_c 14.801010
_cell_angle_alpha 90.000000
_cell_angle_beta 90.000000
_cell_angle_gamma 90.000000
_cell_volume 3602.366129
_symmetry_space_group_name_H-M "I M M A"
_symmetry_group_IT_number 74
_symmetry_cell_setting 'orthorhombic'
loop_
_space_group_symop_operation_xyz
x,y,z
-x,1/2-y,z
x,-y,-z
-x,1/2+y,-z
-x,-y,-z
x,1/2+y,-z
-x,y,z
x,1/2-y,z
1/2+x,1/2+y,1/2+z
1/2-x,-y,1/2+z
1/2+x,1/2-y,1/2-z
1/2-x,y,1/2-z
1/2-x,1/2-y,1/2-z
1/2+x,y,1/2-z
1/2-x,1/2+y,1/2+z
1/2+x,-y,1/2+z
loop_
_atom_site_type_symbol
_atom_site_label
_atom_site_fract_x
_atom_site_fract_y
_atom_site_fract_z
Si Si1 0.500000 0.930472 0.101022
Si Si2 0.764729 0.421379 0.855433
Si Si3 0.621748 0.570555 0.402121
Si Si4 0.168812 0.075805 0.412308
Si Si5 0.414642 0.570540 0.775844
O O1 0.500000 0.750000 0.095872
O O2 0.546091 0.991761 0.159073
O O3 0.500000 0.000000 0.000000
O O4 0.757674 0.250000 0.885658
O O5 0.750000 0.427127 0.750000
O O6 0.820968 0.462352 0.876298
O O7 0.724720 0.524554 0.902253
O O8 0.611867 0.500000 0.500000
O O9 0.616089 0.750000 0.403362
O O10 0.588215 0.498176 0.324015
O O11 0.166323 0.250000 0.425835
O O12 0.137946 0.039166 0.323227
O O13 0.145831 0.000000 0.500000
O O14 0.422500 0.750000 0.773275
#
# Coordination Sequence:
#
# PCOD9538225 Si02
#       5
#     8  16  16  16  16
#     4  12  26  46  73 102 131 164 202 252 316 380
#     4  10  20  36  58  86 123 167 212 260 310 364
#     4  11  23  40  63  91 127 171 217 264 316 373
#     4  11  23  36  57  87 122 163 207 255 308 369
#     4  11  24  43  66  94 126 163 208 260 316 377
#
# _framework density 19.986864000000001
#
# number of rings (size 3 to 8) (size 9 to 14) (size 15 to 20)
#    0.000    1.111    2.222    4.333    0.000    8.444 
#    0.000    0.556    0.000    0.000    0.000    0.000 
#    0.000    0.000    0.000    0.000    0.000    0.000 
#
# Total GULP energy -201202.497186 kJ/mol
# GULP energy per Si atom -5588.958255 kJ/mol
# Density = 1.994137 g / cm^3
# Si number density = 19.986864 Si / 1000 Ang^3
#
#
#
# Elastic Constant Matrix: (Units=GPa)
#
#
# Indices 1 2 3 4 5 6 
#
# 1 73.6386 52.9540 49.8321 0.0000 0.0000 0.0000
# 2 52.9540 85.2346 86.0550 0.0000 0.0000 0.0000
# 3 49.8321 86.0550 183.4737 0.0000 0.0000 0.0000
# 4 0.0000 0.0000 0.0000 38.1467 0.0000 0.0000
# 5 0.0000 0.0000 0.0000 0.0000 31.8500 0.0000
# 6 0.0000 0.0000 0.0000 0.0000 0.0000 21.5640
#
#
#
# Elastic Compliance Matrix: (Units=1/GPa)
#
#
# Indices 1 2 3 4 5 6 
#
# 1 0.024629 -0.016236 0.000926 0.000000 0.000000 0.000000
# 2 -0.016236 0.032989 -0.011063 0.000000 0.000000 0.000000
# 3 0.000926 -0.011063 0.010388 0.000000 0.000000 0.000000
# 4 0.000000 0.000000 0.000000 0.026215 0.000000 0.000000
# 5 0.000000 0.000000 0.000000 0.000000 0.031397 0.000000
# 6 0.000000 0.000000 0.000000 0.000000 0.000000 0.046374
#
#
# Mechanical properties :
#
#
# Convention : Reuss Voigt Hill
#
# Bulk Modulus (GPa) = 65.53462 80.00326 72.76894
# Shear Modulus (GPa) = 21.75586 28.54586 25.15086
#
# Velocity S-wave (km/s) = 3.30283 3.78329 3.55120
# Velocity P-wave (km/s) = 6.88513 7.69410 7.30083
#
# Compressibility (1/GPa) = 0.01525911
#
# Stress axis : x y z
#
# Youngs Moduli (GPa) = 40.60322 30.31327 96.26667
#
# Poissons Ratio (x) = 0.49217 -0.08914
# Poissons Ratio (y) = 0.65923 1.06501
# Poissons Ratio (z) = -0.03760 0.33536
#
# Static dielectric constant tensor:
#      x y z
#    x 1.710810 0.000000 0.000000 
#    y 0.000000 1.671100 0.000000 
#    z 0.000000 0.000000 1.736770 
# 
# From -- ./inp_files/37054.got.cif
#   From: 2010.05.17/outbox.cif.g08.bks.cpg/sg74_19_cif.got.tgz:37054.got - 2010.06.03 17:57:02.
