data_PCOD9538485
_publ_section_title
;
Structure prediction by ZEFSAII (Michael W. Deem and Ramdas Pophale) SiO2 
 PCOD9538485
Probable space group: I M M A
;
_chemical_formula_sum "Si O2"
_cell_formula_units_Z 72
_cell_length_a 14.203474
_cell_length_b 29.445167
_cell_length_c 9.221980
_cell_angle_alpha 90.000000
_cell_angle_beta 90.000000
_cell_angle_gamma 90.000000
_cell_volume 3856.850264
_symmetry_space_group_name_H-M "I M M A"
_symmetry_group_IT_number 74
_symmetry_cell_setting 'orthorhombic'
loop_
_space_group_symop_operation_xyz
x,y,z
-x,1/2-y,z
x,-y,-z
-x,1/2+y,-z
-x,-y,-z
x,1/2+y,-z
-x,y,z
x,1/2-y,z
1/2+x,1/2+y,1/2+z
1/2-x,-y,1/2+z
1/2+x,1/2-y,1/2-z
1/2-x,y,1/2-z
1/2-x,1/2-y,1/2-z
1/2+x,y,1/2-z
1/2-x,1/2+y,1/2+z
1/2+x,-y,1/2+z
loop_
_atom_site_type_symbol
_atom_site_label
_atom_site_fract_x
_atom_site_fract_y
_atom_site_fract_z
Si Si1 0.500000 0.554427 0.985049
Si Si2 0.500000 0.621571 0.257200
Si Si3 0.000000 0.696125 0.490699
Si Si4 0.291723 0.804133 0.906525
Si Si5 0.698459 0.878150 0.401691
Si Si6 0.706816 0.953801 0.907018
O O1 0.400949 0.564912 0.906444
O O2 0.500000 0.500000 0.000000
O O3 0.500000 0.579952 0.140744
O O4 0.409851 0.621407 0.359565
O O5 0.500000 0.665834 0.153706
O O6 0.096736 0.686054 0.576526
O O7 0.000000 0.750000 0.457891
O O8 0.279454 0.750000 0.923334
O O9 0.250000 0.817291 0.750000
O O10 0.235960 0.831492 0.029189
O O11 0.750000 0.886591 0.250000
O O12 0.729173 0.917086 0.512149
O O13 0.750000 0.962522 0.750000
O O14 0.706650 0.000000 0.000000
#
# Coordination Sequence:
#
# PCOD9538485 Si02
#       6
#     8   8   8  16  16  16
#     4  10  22  39  64  87 126 168 200 254 327 373
#     4  12  24  40  63  96 127 167 215 263 313 383
#     4  10  20  37  63  92 128 172 209 256 323 379
#     4  10  22  40  64  94 131 170 212 262 317 376
#     4  12  23  40  64  91 126 164 211 261 309 376
#     4  11  24  42  66  93 125 163 208 259 316 380
#
# _framework density 18.668084
#
# number of rings (size 3 to 8) (size 9 to 14) (size 15 to 20)
#    0.000    1.111    4.444    1.333    3.111    3.111 
#    0.000    2.222    0.000    0.000    0.000    0.000 
#    0.000    0.000    0.000    0.000    0.000    0.000 
#
# Total GULP energy -201074.000458 kJ/mol
# GULP energy per Si atom -5585.388902 kJ/mol
# Density = 1.862559 g / cm^3
# Si number density = 18.668084 Si / 1000 Ang^3
#
#
#
# Elastic Constant Matrix: (Units=GPa)
#
#
# Indices 1 2 3 4 5 6 
#
# 1 212.5968 47.7358 80.1748 0.0002 0.0000 -0.0010
# 2 47.7358 72.9428 42.9068 -0.0006 0.0001 0.0007
# 3 80.1748 42.9068 127.2628 -0.0001 -0.0002 0.0006
# 4 0.0002 -0.0006 -0.0001 39.9006 0.0000 0.0027
# 5 0.0000 0.0001 -0.0002 0.0000 32.2286 0.0005
# 6 -0.0010 0.0007 0.0006 0.0027 0.0005 43.6912
#
#
#
# Elastic Compliance Matrix: (Units=1/GPa)
#
#
# Indices 1 2 3 4 5 6 
#
# 1 0.006462 -0.002288 -0.003300 0.000000 0.000000 0.000000
# 2 -0.002288 0.017911 -0.004597 0.000000 0.000000 0.000000
# 3 -0.003300 -0.004597 0.011486 0.000000 0.000000 0.000000
# 4 0.000000 0.000000 0.000000 0.025062 0.000000 -0.000002
# 5 0.000000 0.000000 0.000000 0.000000 0.031028 0.000000
# 6 0.000000 0.000000 0.000000 -0.000002 0.000000 0.022888
#
#
# Mechanical properties :
#
#
# Convention : Reuss Voigt Hill
#
# Bulk Modulus (GPa) = 64.55930 83.82635 74.19283
# Shear Modulus (GPa) = 35.62007 39.29641 37.45824
#
# Velocity S-wave (km/s) = 4.37289 4.59301 4.48430
# Velocity P-wave (km/s) = 7.75590 8.55153 8.16342
#
# Compressibility (1/GPa) = 0.01548963
#
# Stress axis : x y z
#
# Youngs Moduli (GPa) = 154.75625 55.83186 87.05935
#
# Poissons Ratio (x) = 0.12774 0.28725
# Poissons Ratio (y) = 0.35407 0.40024
# Poissons Ratio (z) = 0.51062 0.25668
#
# Static dielectric constant tensor:
#      x y z
#    x 1.644050 0.000000 0.000000 
#    y 0.000000 1.664010 0.000000 
#    z 0.000000 0.000000 1.634210 
# 
# From -- ./inp_files/9202.got.cif
#   From: 2010.05.17/outbox.cif.g08.bks.cpg/sg74_5_cif.got.tgz:9202.got - 2010.06.03 17:57:02.
