data_PCOD9538199
_publ_section_title
;
Structure prediction by ZEFSAII (Michael W. Deem and Ramdas Pophale) SiO2 
 PCOD9538199
Probable space group: I M M A
;
_chemical_formula_sum "Si O2"
_cell_formula_units_Z 72
_cell_length_a 20.384193
_cell_length_b 8.525444
_cell_length_c 20.588687
_cell_angle_alpha 90.000000
_cell_angle_beta 90.000000
_cell_angle_gamma 90.000000
_cell_volume 3577.990474
_symmetry_space_group_name_H-M "I M M A"
_symmetry_group_IT_number 74
_symmetry_cell_setting 'orthorhombic'
loop_
_space_group_symop_operation_xyz
x,y,z
-x,1/2-y,z
x,-y,-z
-x,1/2+y,-z
-x,-y,-z
x,1/2+y,-z
-x,y,z
x,1/2-y,z
1/2+x,1/2+y,1/2+z
1/2-x,-y,1/2+z
1/2+x,1/2-y,1/2-z
1/2-x,y,1/2-z
1/2-x,1/2-y,1/2-z
1/2+x,y,1/2-z
1/2-x,1/2+y,1/2+z
1/2+x,-y,1/2+z
loop_
_atom_site_type_symbol
_atom_site_label
_atom_site_fract_x
_atom_site_fract_y
_atom_site_fract_z
Si Si1 0.925059 0.442190 0.710185
Si Si2 0.419995 0.570638 0.067858
Si Si3 0.307027 0.439173 0.700432
Si Si4 0.645103 0.437640 0.426896
Si Si5 0.500000 0.938970 0.573480
O O1 0.925230 0.250000 0.707621
O O2 0.903162 0.498819 0.638302
O O3 0.874260 0.490786 0.764626
O O4 0.000000 0.491427 0.722535
O O5 0.500000 0.568008 0.066925
O O6 0.398357 0.750000 0.068332
O O7 0.397001 0.500000 0.000000
O O8 0.306166 0.250000 0.696386
O O9 0.250000 0.486932 0.750000
O O10 0.304835 0.504468 0.627745
O O11 0.655939 0.500000 0.500000
O O12 0.645321 0.250000 0.429751
O O13 0.571792 0.492115 0.403017
O O14 0.500000 0.750000 0.575975
O O15 0.500000 0.000000 0.500000
#
# Coordination Sequence:
#
# PCOD9538199 Si02
#       5
#    16  16  16  16   8
#     4   8  15  29  49  72  98 134 177 218 265 322
#     4   8  13  23  41  64  90 119 155 200 248 296
#     4  10  21  36  54  78 110 146 184 226 275 331
#     4  10  20  36  58  83 112 145 184 229 282 337
#     4   8  16  30  50  80 112 138 171 222 277 330
#
# _framework density 20.123027
#
# number of rings (size 3 to 8) (size 9 to 14) (size 15 to 20)
#    0.000    3.111    0.000    2.000    1.556    1.333 
#    0.000    2.222    0.000    4.000    0.000    0.000 
#    0.000    0.000    0.000    0.000    0.000    0.000 
#
# Total GULP energy -200457.115636 kJ/mol
# GULP energy per Si atom -5568.253212 kJ/mol
# Density = 2.007723 g / cm^3
# Si number density = 20.123027 Si / 1000 Ang^3
#
#
#
# Elastic Constant Matrix: (Units=GPa)
#
#
# Indices 1 2 3 4 5 6 
#
# 1 55.2987 15.5853 64.0479 0.0000 0.0000 0.0000
# 2 15.5853 10.1619 26.3576 0.0000 0.0000 0.0000
# 3 64.0479 26.3576 170.1538 0.0000 0.0000 0.0000
# 4 0.0000 0.0000 0.0000 26.8290 0.0000 0.0000
# 5 0.0000 0.0000 0.0000 0.0000 27.2253 0.0000
# 6 0.0000 0.0000 0.0000 0.0000 0.0000 9.3256
#
#
#
# Elastic Compliance Matrix: (Units=1/GPa)
#
#
# Indices 1 2 3 4 5 6 
#
# 1 0.038591 -0.035956 -0.008956 0.000000 0.000000 0.000000
# 2 -0.035956 0.198002 -0.017137 0.000000 0.000000 0.000000
# 3 -0.008956 -0.017137 0.011903 0.000000 0.000000 0.000000
# 4 0.000000 0.000000 0.000000 0.037273 0.000000 0.000000
# 5 0.000000 0.000000 0.000000 0.000000 0.036730 0.000000
# 6 0.000000 0.000000 0.000000 0.000000 0.000000 0.107232
#
#
# Mechanical properties :
#
#
# Convention : Reuss Voigt Hill
#
# Bulk Modulus (GPa) = 8.03880 49.73290 28.88585
# Shear Modulus (GPa) = 8.39918 21.31756 14.85837
#
# Velocity S-wave (km/s) = 2.04523 3.25831 2.72026
# Velocity P-wave (km/s) = 3.09529 6.23887 4.92465
#
# Compressibility (1/GPa) = 0.12439666
#
# Stress axis : x y z
#
# Youngs Moduli (GPa) = 25.91294 5.05045 84.01327
#
# Poissons Ratio (x) = 0.18160 0.75244
# Poissons Ratio (y) = 0.93173 1.43974
# Poissons Ratio (z) = 0.23208 0.08655
#
# Static dielectric constant tensor:
#      x y z
#    x 1.762810 0.000000 0.000000 
#    y 0.000000 1.645360 0.000000 
#    z 0.000000 0.000000 1.726710 
# 
# From -- ./inp_files/45813.got.cif
#   From: 2010.05.17/outbox.cif.g08.bks.cpg/sg74_23_cif.got.tgz:45813.got - 2010.06.03 17:57:02.
