data_PCOD9538906
_publ_section_title
;
Structure prediction by ZEFSAII (Michael W. Deem and Ramdas Pophale) SiO2 
 PCOD9538906
Probable space group: I M M A
;
_chemical_formula_sum "Si O2"
_cell_formula_units_Z 80
_cell_length_a 9.385933
_cell_length_b 14.364155
_cell_length_c 30.380754
_cell_angle_alpha 90.000000
_cell_angle_beta 90.000000
_cell_angle_gamma 90.000000
_cell_volume 4095.963527
_symmetry_space_group_name_H-M "I M M A"
_symmetry_group_IT_number 74
_symmetry_cell_setting 'orthorhombic'
loop_
_space_group_symop_operation_xyz
x,y,z
-x,1/2-y,z
x,-y,-z
-x,1/2+y,-z
-x,-y,-z
x,1/2+y,-z
-x,y,z
x,1/2-y,z
1/2+x,1/2+y,1/2+z
1/2-x,-y,1/2+z
1/2+x,1/2-y,1/2-z
1/2-x,y,1/2-z
1/2-x,1/2-y,1/2-z
1/2+x,y,1/2-z
1/2-x,1/2+y,1/2+z
1/2+x,-y,1/2+z
loop_
_atom_site_type_symbol
_atom_site_label
_atom_site_fract_x
_atom_site_fract_y
_atom_site_fract_z
Si Si1 0.837000 0.636173 0.563413
Si Si2 0.673364 0.142254 0.618707
Si Si3 0.334749 0.636031 0.477576
Si Si4 0.170184 0.968766 0.205723
Si Si5 0.668734 0.858010 0.651276
O O1 0.836914 0.750000 0.562317
O O2 0.755548 0.605496 0.519454
O O3 0.754257 0.611617 0.607997
O O4 0.000000 0.604795 0.564150
O O5 0.500000 0.139049 0.616978
O O6 0.715548 0.250000 0.622735
O O7 0.720139 0.106192 0.570649
O O8 0.716454 0.088090 0.662355
O O9 0.500000 0.608919 0.482908
O O10 0.333037 0.750000 0.476525
O O11 0.250000 0.941898 0.250000
O O12 0.000000 0.956666 0.211115
O O13 0.199454 0.075598 0.192236
O O14 0.500000 0.866958 0.641381
O O15 0.699663 0.750000 0.660242
#
# Coordination Sequence:
#
# PCOD9538906 Si02
#       5
#    16  16  16  16  16
#     4   9  16  26  44  72 102 129 158 195 239 283
#     4   8  15  30  52  75  98 126 161 198 235 281
#     4   8  13  24  45  70  95 126 160 191 228 278
#     4  10  21  36  53  73  96 123 159 204 249 290
#     4   9  18  33  51  70  95 129 166 199 233 281
#
# _framework density 19.531421999999999
#
# number of rings (size 3 to 8) (size 9 to 14) (size 15 to 20)
#    0.000    3.200    0.000    1.800    0.000    4.000 
#    0.000    2.000    0.000    7.200    0.000    0.000 
#    0.000    0.000    0.000    0.000    0.000    0.000 
#
# Total GULP energy -223131.233362 kJ/mol
# GULP energy per Si atom -5578.280834 kJ/mol
# Density = 1.948697 g / cm^3
# Si number density = 19.531422 Si / 1000 Ang^3
#
#
#
# Elastic Constant Matrix: (Units=GPa)
#
#
# Indices 1 2 3 4 5 6 
#
# 1 16.7137 1.0826 20.2307 0.0000 0.0000 0.0000
# 2 1.0826 35.7111 8.1802 0.0000 0.0000 0.0000
# 3 20.2307 8.1802 97.4391 0.0000 0.0000 0.0000
# 4 0.0000 0.0000 0.0000 28.9766 0.0000 0.0000
# 5 0.0000 0.0000 0.0000 0.0000 29.9555 0.0000
# 6 0.0000 0.0000 0.0000 0.0000 0.0000 6.1400
#
#
#
# Elastic Compliance Matrix: (Units=1/GPa)
#
#
# Indices 1 2 3 4 5 6 
#
# 1 0.079984 0.001406 -0.016725 0.000000 0.000000 0.000000
# 2 0.001406 0.028576 -0.002691 0.000000 0.000000 0.000000
# 3 -0.016725 -0.002691 0.013961 0.000000 0.000000 0.000000
# 4 0.000000 0.000000 0.000000 0.034511 0.000000 0.000000
# 5 0.000000 0.000000 0.000000 0.000000 0.033383 0.000000
# 6 0.000000 0.000000 0.000000 0.000000 0.000000 0.162867
#
#
# Mechanical properties :
#
#
# Convention : Reuss Voigt Hill
#
# Bulk Modulus (GPa) = 11.56036 23.20565 17.38301
# Shear Modulus (GPa) = 11.95787 21.03911 16.49849
#
# Velocity S-wave (km/s) = 2.47703 3.28562 2.90955
# Velocity P-wave (km/s) = 3.75667 5.12842 4.49518
#
# Compressibility (1/GPa) = 0.08650252
#
# Stress axis : x y z
#
# Youngs Moduli (GPa) = 12.50253 34.99407 71.62720
#
# Poissons Ratio (x) = -0.04921 1.19794
# Poissons Ratio (y) = -0.01758 0.19275
# Poissons Ratio (z) = 0.20910 0.09417
#
# Static dielectric constant tensor:
#      x y z
#    x 1.656130 0.000000 0.000000 
#    y 0.000000 1.741120 0.000000 
#    z 0.000000 0.000000 1.655340 
# 
# From -- ./inp_files/63933.got.cif
#   From: 2010.05.17/outbox.cif.g08.bks.cpg/sg74_32_cif.got.tgz:63933.got - 2010.06.03 17:57:02.
