data_PCOD9538590
_publ_section_title
;
Structure prediction by ZEFSAII (Michael W. Deem and Ramdas Pophale) SiO2 
 PCOD9538590
Probable space group: I M M A
;
_chemical_formula_sum "Si O2"
_cell_formula_units_Z 96
_cell_length_a 14.538768
_cell_length_b 21.497225
_cell_length_c 14.866668
_cell_angle_alpha 90.000000
_cell_angle_beta 90.000000
_cell_angle_gamma 90.000000
_cell_volume 4646.475498
_symmetry_space_group_name_H-M "I M M A"
_symmetry_group_IT_number 74
_symmetry_cell_setting 'orthorhombic'
loop_
_space_group_symop_operation_xyz
x,y,z
-x,1/2-y,z
x,-y,-z
-x,1/2+y,-z
-x,-y,-z
x,1/2+y,-z
-x,y,z
x,1/2-y,z
1/2+x,1/2+y,1/2+z
1/2-x,-y,1/2+z
1/2+x,1/2-y,1/2-z
1/2-x,y,1/2-z
1/2-x,1/2-y,1/2-z
1/2+x,y,1/2-z
1/2-x,1/2+y,1/2+z
1/2+x,-y,1/2+z
loop_
_atom_site_type_symbol
_atom_site_label
_atom_site_fract_x
_atom_site_fract_y
_atom_site_fract_z
Si Si1 0.287636 0.927362 0.499058
Si Si2 0.353099 0.817819 0.789465
Si Si3 0.611390 0.074720 0.681902
Si Si4 0.389602 0.683073 0.185973
Si Si5 0.891751 0.359288 0.487153
Si Si6 0.103647 0.431103 0.170573
O O1 0.336858 0.903865 0.408835
O O2 0.179331 0.915930 0.503643
O O3 0.333112 0.904220 0.591259
O O4 0.308699 0.000000 0.500000
O O5 0.392304 0.750000 0.762790
O O6 0.250000 0.818373 0.750000
O O7 0.363276 0.823481 0.896822
O O8 0.395898 0.880823 0.749618
O O9 0.500000 0.078437 0.670701
O O10 0.640507 0.121324 0.761350
O O11 0.632806 0.001275 0.699027
O O12 0.500000 0.683723 0.197614
O O13 0.354488 0.750000 0.219339
O O14 0.374647 0.677713 0.079423
O O15 0.000000 0.374991 0.482805
O O16 0.000000 0.437297 0.134586
#
# Coordination Sequence:
#
# PCOD9538590 Si02
#       6
#    16  16  16  16  16  16
#     4  10  21  38  60  89 123 163 203 252 301 358
#     4  11  23  41  64  89 118 156 202 252 307 372
#     4   9  19  38  64  92 121 158 204 252 302 358
#     4   9  19  38  62  88 121 161 203 247 299 359
#     4  11  23  39  59  86 122 164 204 246 303 363
#     4  10  20  38  64  91 120 156 199 251 311 365
#
# _framework density 20.660822
#
# number of rings (size 3 to 8) (size 9 to 14) (size 15 to 20)
#    0.000    2.000    1.667    1.500    0.000    6.333 
#    0.000    5.000    0.000    2.000    0.000    0.000 
#    0.000    0.000    0.000    0.000    0.000    0.000 
#
# Total GULP energy -267601.116106 kJ/mol
# GULP energy per Si atom -5575.023252 kJ/mol
# Density = 2.061380 g / cm^3
# Si number density = 20.660822 Si / 1000 Ang^3
#
#
#
# Elastic Constant Matrix: (Units=GPa)
#
#
# Indices 1 2 3 4 5 6 
#
# 1 93.6950 19.2955 37.4843 0.0000 0.0000 0.0000
# 2 19.2955 105.4586 74.8917 -0.0009 0.0000 -0.0001
# 3 37.4843 74.8917 134.0627 -0.0023 -0.0001 -0.0003
# 4 0.0000 -0.0009 -0.0023 -20.5978 -0.0003 -0.0005
# 5 0.0000 0.0000 -0.0001 -0.0003 23.1665 0.0000
# 6 0.0000 -0.0001 -0.0003 -0.0005 0.0000 5.3813
#
#
#
# Elastic Compliance Matrix: (Units=1/GPa)
#
#
# Indices 1 2 3 4 5 6 
#
# 1 0.012023 0.000311 -0.003535 0.000000 0.000000 0.000000
# 2 0.000311 0.015726 -0.008872 0.000000 0.000000 0.000000
# 3 -0.003535 -0.008872 0.013404 -0.000001 0.000000 0.000000
# 4 0.000000 0.000000 -0.000001 -0.048549 -0.000001 -0.000004
# 5 0.000000 0.000000 0.000000 -0.000001 0.043166 0.000000
# 6 0.000000 0.000000 0.000000 -0.000004 0.000000 0.185830
#
#
# Mechanical properties :
#
#
# Convention : Reuss Voigt Hill
#
# Bulk Modulus (GPa) = 58.96200 66.28439 62.62319
# Shear Modulus (GPa) = 19.88494 15.02631 17.45562
#
# Velocity S-wave (km/s) = 3.10570 2.69975 2.90981
# Velocity P-wave (km/s) = 6.43898 6.47070 6.45486
#
# Compressibility (1/GPa) = 0.01696008
#
# Stress axis : x y z
#
# Youngs Moduli (GPa) = 83.17181 63.58925 74.60564
#
# Poissons Ratio (x) = -0.01976 0.26376
# Poissons Ratio (y) = -0.02585 0.66189
# Poissons Ratio (z) = 0.29404 0.56416
#
# Static dielectric constant tensor:
#      x y z
#    x 1.766060 0.000000 0.000000 
#    y 0.000000 1.741760 0.000000 
#    z 0.000000 0.000000 1.758780 
# 
# From -- ./inp_files/32390.got.cif
#   From: 2010.05.17/outbox.cif.g08.bks.cpg/sg74_17_cif.got.tgz:32390.got - 2010.06.03 17:57:02.
