data_PCOD9538414
_publ_section_title
;
Structure prediction by ZEFSAII (Michael W. Deem and Ramdas Pophale) SiO2 
 PCOD9538414
Probable space group: I M M A
;
_chemical_formula_sum "Si O2"
_cell_formula_units_Z 100
_cell_length_a 7.946434
_cell_length_b 28.515492
_cell_length_c 21.410458
_cell_angle_alpha 90.000000
_cell_angle_beta 90.000000
_cell_angle_gamma 90.000000
_cell_volume 4851.534314
_symmetry_space_group_name_H-M "I M M A"
_symmetry_group_IT_number 74
_symmetry_cell_setting 'orthorhombic'
loop_
_space_group_symop_operation_xyz
x,y,z
-x,1/2-y,z
x,-y,-z
-x,1/2+y,-z
-x,-y,-z
x,1/2+y,-z
-x,y,z
x,1/2-y,z
1/2+x,1/2+y,1/2+z
1/2-x,-y,1/2+z
1/2+x,1/2-y,1/2-z
1/2-x,y,1/2-z
1/2-x,1/2-y,1/2-z
1/2+x,y,1/2-z
1/2-x,1/2+y,1/2+z
1/2+x,-y,1/2+z
loop_
_atom_site_type_symbol
_atom_site_label
_atom_site_fract_x
_atom_site_fract_y
_atom_site_fract_z
Si Si1 0.702533 0.374948 0.820521
Si Si2 0.685867 0.201055 0.344772
Si Si3 0.699498 0.035870 0.446039
Si Si4 0.804725 0.140676 0.449271
Si Si5 0.500000 0.250000 0.207684
Si Si6 0.293963 0.695977 0.072795
Si Si7 0.201728 0.982264 0.321349
O O1 0.500000 0.376476 0.825103
O O2 0.750000 0.362328 0.750000
O O3 0.763517 0.336526 0.869778
O O4 0.762984 0.428438 0.831962
O O5 0.500000 0.202330 0.314225
O O6 0.689687 0.250000 0.384780
O O7 0.704544 0.157180 0.388655
O O8 0.849048 0.209995 0.303461
O O9 0.500000 0.043044 0.453185
O O10 0.787735 0.085441 0.456832
O O11 0.755932 0.000000 0.500000
O O12 0.732792 0.014847 0.377181
O O13 0.744271 0.169419 0.509420
O O14 0.000000 0.153545 0.439328
O O15 0.500000 0.696438 0.073798
O O16 0.238502 0.750000 0.075746
O O17 0.250000 0.995447 0.250000
O O18 0.000000 0.982566 0.324799
#
# Coordination Sequence:
#
# PCOD9538414 Si02
#       7
#    16  16  16  16   4  16  16
#     4   9  18  33  52  74  98 133 179 227 279 337
#     4   9  16  27  45  69  97 131 172 215 257 318
#     4  11  24  38  53  79 114 148 188 244 301 356
#     4  11  19  32  51  72 102 141 182 226 284 346
#     4   8  14  28  44  66  94 136 170 212 256 318
#     4   9  18  30  49  74 104 142 183 226 276 337
#     4  10  20  37  60  83 109 146 193 241 294 359
#
# _framework density 20.612034999999999
#
# number of rings (size 3 to 8) (size 9 to 14) (size 15 to 20)
#    0.480    1.760    0.800    2.880    0.000    4.160 
#    0.000    1.600    0.000    1.920    0.000    0.000 
#    0.000    2.560    0.000   13.440    0.000   17.760 
#
# Total GULP energy -278346.432955 kJ/mol
# GULP energy per Si atom -5566.928659 kJ/mol
# Density = 2.056512 g / cm^3
# Si number density = 20.612035 Si / 1000 Ang^3
#
#
#
# Elastic Constant Matrix: (Units=GPa)
#
#
# Indices 1 2 3 4 5 6 
#
# 1 74.4662 -2.0395 6.7122 0.0000 0.0000 0.0000
# 2 -2.0395 67.7594 26.7867 -0.0001 0.0000 0.0000
# 3 6.7122 26.7867 71.6696 -0.0001 0.0000 0.0000
# 4 0.0000 -0.0001 -0.0001 65.3921 0.0000 0.0000
# 5 0.0000 0.0000 0.0000 0.0000 24.9285 0.0000
# 6 0.0000 0.0000 0.0000 0.0000 0.0000 20.6153
#
#
#
# Elastic Compliance Matrix: (Units=1/GPa)
#
#
# Indices 1 2 3 4 5 6 
#
# 1 0.013609 0.001072 -0.001675 0.000000 0.000000 0.000000
# 2 0.001072 0.017401 -0.006604 0.000000 0.000000 0.000000
# 3 -0.001675 -0.006604 0.016578 0.000000 0.000000 0.000000
# 4 0.000000 0.000000 0.000000 0.015292 0.000000 0.000000
# 5 0.000000 0.000000 0.000000 0.000000 0.040115 0.000000
# 6 0.000000 0.000000 0.000000 0.000000 0.000000 0.048508
#
#
# Mechanical properties :
#
#
# Convention : Reuss Voigt Hill
#
# Bulk Modulus (GPa) = 30.14443 30.75712 30.45077
# Shear Modulus (GPa) = 28.25242 34.34955 31.30098
#
# Velocity S-wave (km/s) = 3.70628 4.08668 3.90112
# Velocity P-wave (km/s) = 5.74211 6.10101 5.92427
#
# Compressibility (1/GPa) = 0.03317363
#
# Stress axis : x y z
#
# Youngs Moduli (GPa) = 73.47936 57.46761 60.32050
#
# Poissons Ratio (x) = -0.06160 0.10105
# Poissons Ratio (y) = -0.07876 0.39836
# Poissons Ratio (z) = 0.12309 0.37952
#
# Static dielectric constant tensor:
#      x y z
#    x 1.759280 0.000000 0.000000 
#    y 0.000000 1.820950 0.000000 
#    z 0.000000 0.000000 1.756970 
# 
# From -- ./inp_files/49349.got.cif
#   From: 2010.05.17/outbox.cif.g08.bks.cpg/sg74_25_cif.got.tgz:49349.got - 2010.06.03 17:57:02.
