data_PCOD9538869
_publ_section_title
;
Structure prediction by ZEFSAII (Michael W. Deem and Ramdas Pophale) SiO2 
 PCOD9538869
Probable space group: I M M A
;
_chemical_formula_sum "Si O2"
_cell_formula_units_Z 68
_cell_length_a 20.844155
_cell_length_b 7.707989
_cell_length_c 21.346025
_cell_angle_alpha 90.000000
_cell_angle_beta 90.000000
_cell_angle_gamma 90.000000
_cell_volume 3429.591498
_symmetry_space_group_name_H-M "I M M A"
_symmetry_group_IT_number 74
_symmetry_cell_setting 'orthorhombic'
loop_
_space_group_symop_operation_xyz
x,y,z
-x,1/2-y,z
x,-y,-z
-x,1/2+y,-z
-x,-y,-z
x,1/2+y,-z
-x,y,z
x,1/2-y,z
1/2+x,1/2+y,1/2+z
1/2-x,-y,1/2+z
1/2+x,1/2-y,1/2-z
1/2-x,y,1/2-z
1/2-x,1/2-y,1/2-z
1/2+x,y,1/2-z
1/2-x,1/2+y,1/2+z
1/2+x,-y,1/2+z
loop_
_atom_site_type_symbol
_atom_site_label
_atom_site_fract_x
_atom_site_fract_y
_atom_site_fract_z
Si Si1 0.259084 0.457548 0.932058
Si Si2 0.928540 0.042724 0.263676
Si Si3 0.595657 0.449847 0.089541
Si Si4 0.201319 0.955946 0.197268
Si Si5 0.500000 0.250000 0.951416
O O1 0.266785 0.250000 0.928226
O O2 0.329843 0.538855 0.927440
O O3 0.218681 0.520466 0.872038
O O4 0.230770 0.500000 0.000000
O O5 0.930872 0.250000 0.258030
O O6 0.912169 0.007378 0.336377
O O7 0.000000 0.973173 0.250340
O O8 0.871094 0.981809 0.219886
O O9 0.572908 0.250000 0.079656
O O10 0.555371 0.597114 0.055576
O O11 0.212614 0.750000 0.195253
O O12 0.250000 0.029128 0.250000
#
# Coordination Sequence:
#
# PCOD9538869 Si02
#       5
#    16  16  16  16   4
#     4  11  23  41  62  87 122 162 206 259 308 362
#     4  10  21  35  56  89 127 158 197 250 315 368
#     4  11  22  37  60  88 121 164 209 252 305 367
#     4  10  21  36  61  91 119 155 206 257 305 362
#     4  12  22  36  62  84 130 168 206 248 312 368
#
# _framework density 19.827434
#
# number of rings (size 3 to 8) (size 9 to 14) (size 15 to 20)
#    0.000    1.412    4.706    1.059    1.647    2.824 
#    0.000    0.588    0.000    0.706    0.000    0.000 
#    0.000    0.000    0.000    0.000    0.000    0.000 
#
# Total GULP energy -189603.267092 kJ/mol
# GULP energy per Si atom -5576.566679 kJ/mol
# Density = 1.978231 g / cm^3
# Si number density = 19.827434 Si / 1000 Ang^3
#
#
#
# Elastic Constant Matrix: (Units=GPa)
#
#
# Indices 1 2 3 4 5 6 
#
# 1 103.1933 13.3909 84.8048 0.0000 0.0000 0.0000
# 2 13.3909 93.4154 35.8611 0.0000 0.0000 0.0000
# 3 84.8048 35.8611 163.7031 0.0000 0.0000 0.0000
# 4 0.0000 0.0000 0.0000 22.0759 0.0000 0.0000
# 5 0.0000 0.0000 0.0000 0.0000 7.4595 0.0000
# 6 0.0000 0.0000 0.0000 0.0000 0.0000 56.1544
#
#
#
# Elastic Compliance Matrix: (Units=1/GPa)
#
#
# Indices 1 2 3 4 5 6 
#
# 1 0.016965 0.001028 -0.009014 0.000000 0.000000 0.000000
# 2 0.001028 0.011750 -0.003107 0.000000 0.000000 0.000000
# 3 -0.009014 -0.003107 0.011459 0.000000 0.000000 0.000000
# 4 0.000000 0.000000 0.000000 0.045298 0.000000 0.000000
# 5 0.000000 0.000000 0.000000 0.000000 0.134057 0.000000
# 6 0.000000 0.000000 0.000000 0.000000 0.000000 0.017808
#
#
# Mechanical properties :
#
#
# Convention : Reuss Voigt Hill
#
# Bulk Modulus (GPa) = 55.58851 69.82504 62.70678
# Shear Modulus (GPa) = 18.83123 32.22164 25.52643
#
# Velocity S-wave (km/s) = 3.08515 4.03563 3.59197
# Velocity P-wave (km/s) = 6.38654 7.55036 6.99271
#
# Compressibility (1/GPa) = 0.01798933
#
# Stress axis : x y z
#
# Youngs Moduli (GPa) = 58.94655 85.10563 87.27077
#
# Poissons Ratio (x) = -0.08752 0.78662
# Poissons Ratio (y) = -0.06062 0.27113
# Poissons Ratio (z) = 0.53132 0.26440
#
# Static dielectric constant tensor:
#      x y z
#    x 1.674990 0.000000 0.000000 
#    y 0.000000 1.724280 0.000000 
#    z 0.000000 0.000000 1.749100 
# 
# From -- ./inp_files/52613.got.cif
#   From: 2010.05.17/outbox.cif.g08.bks.cpg/sg74_27_cif.got.tgz:52613.got - 2010.06.03 17:57:02.
