data_PCOD9538308
_publ_section_title
;
Structure prediction by ZEFSAII (Michael W. Deem and Ramdas Pophale) SiO2 
 PCOD9538308
Probable space group: I M M A
;
_chemical_formula_sum "Si O2"
_cell_formula_units_Z 104
_cell_length_a 30.205218
_cell_length_b 15.724761
_cell_length_c 11.452634
_cell_angle_alpha 90.000000
_cell_angle_beta 90.000000
_cell_angle_gamma 90.000000
_cell_volume 5439.655670
_symmetry_space_group_name_H-M "I M M A"
_symmetry_group_IT_number 74
_symmetry_cell_setting 'orthorhombic'
loop_
_space_group_symop_operation_xyz
x,y,z
-x,1/2-y,z
x,-y,-z
-x,1/2+y,-z
-x,-y,-z
x,1/2+y,-z
-x,y,z
x,1/2-y,z
1/2+x,1/2+y,1/2+z
1/2-x,-y,1/2+z
1/2+x,1/2-y,1/2-z
1/2-x,y,1/2-z
1/2-x,1/2-y,1/2-z
1/2+x,y,1/2-z
1/2-x,1/2+y,1/2+z
1/2+x,-y,1/2+z
loop_
_atom_site_type_symbol
_atom_site_label
_atom_site_fract_x
_atom_site_fract_y
_atom_site_fract_z
Si Si1 0.868761 0.582910 0.918652
Si Si2 0.847639 0.000000 0.500000
Si Si3 0.582136 0.849826 0.991748
Si Si4 0.047581 0.648522 0.254499
Si Si5 0.450223 0.352031 0.269170
Si Si6 0.858340 0.346138 0.843406
Si Si7 0.697533 0.502240 0.247900
O O1 0.912245 0.604419 0.844997
O O2 0.828454 0.564502 0.830508
O O3 0.874750 0.500000 0.000000
O O4 0.858401 0.652815 0.016459
O O5 0.878196 0.083844 0.505353
O O6 0.819083 0.993609 0.616260
O O7 0.595837 0.750000 0.991179
O O8 0.558490 0.867323 0.868496
O O9 0.552021 0.861709 0.106144
O O10 0.046836 0.750000 0.230055
O O11 0.093579 0.618061 0.198538
O O12 0.000000 0.613013 0.214619
O O13 0.500000 0.379190 0.299741
O O14 0.447310 0.250000 0.286749
O O15 0.854108 0.250000 0.798692
O O16 0.820207 0.406962 0.795276
O O17 0.750000 0.494578 0.250000
#
# Coordination Sequence:
#
# PCOD9538308 Si02
#       7
#    16   8  16  16  16  16  16
#     4  10  22  40  58  84 120 160 197 246 298 355
#     4  12  22  40  69  92 116 162 197 252 316 362
#     4  10  20  37  60  90 127 159 199 249 299 356
#     4   9  17  32  56  87 123 159 195 241 295 349
#     4  10  20  36  60  88 120 161 202 242 294 354
#     4  10  21  39  62  88 120 158 202 251 300 353
#     4  11  25  42  65  88 117 154 200 251 312 371
#
# _framework density 19.118856999999998
#
# number of rings (size 3 to 8) (size 9 to 14) (size 15 to 20)
#    0.000    1.846    3.077    0.923    3.231    3.077 
#    0.000    8.462    0.000    2.308    0.000    0.000 
#    0.000    0.000    0.000    0.000    0.000    0.000 
#
# Total GULP energy -290214.723323 kJ/mol
# GULP energy per Si atom -5581.052372 kJ/mol
# Density = 1.907534 g / cm^3
# Si number density = 19.118857 Si / 1000 Ang^3
#
#
#
# Elastic Constant Matrix: (Units=GPa)
#
#
# Indices 1 2 3 4 5 6 
#
# 1 185.2029 39.8469 64.8727 0.0000 0.0000 0.0000
# 2 39.8469 40.5495 20.5250 0.0000 0.0000 0.0000
# 3 64.8727 20.5250 110.4048 0.0000 0.0000 0.0000
# 4 0.0000 0.0000 0.0000 20.8181 0.0000 0.0000
# 5 0.0000 0.0000 0.0000 0.0000 107.0710 0.0000
# 6 0.0000 0.0000 0.0000 0.0000 0.0000 3.9804
#
#
#
# Elastic Compliance Matrix: (Units=1/GPa)
#
#
# Indices 1 2 3 4 5 6 
#
# 1 0.007932 -0.006000 -0.003545 0.000000 0.000000 0.000000
# 2 -0.006000 0.031762 -0.002379 0.000000 0.000000 0.000000
# 3 -0.003545 -0.002379 0.011583 0.000000 0.000000 0.000000
# 4 0.000000 0.000000 0.000000 0.048035 0.000000 0.000000
# 5 0.000000 0.000000 0.000000 0.000000 0.009340 0.000000
# 6 0.000000 0.000000 0.000000 0.000000 0.000000 0.251229
#
#
# Mechanical properties :
#
#
# Convention : Reuss Voigt Hill
#
# Bulk Modulus (GPa) = 36.45952 65.18292 50.82122
# Shear Modulus (GPa) = 12.72676 40.43475 26.58075
#
# Velocity S-wave (km/s) = 2.58285 4.60381 3.73270
# Velocity P-wave (km/s) = 5.29208 7.90111 6.72435
#
# Compressibility (1/GPa) = 0.02742768
#
# Stress axis : x y z
#
# Youngs Moduli (GPa) = 126.06566 31.48442 86.33239
#
# Poissons Ratio (x) = 0.18892 0.30609
# Poissons Ratio (y) = 0.75643 0.20538
# Poissons Ratio (z) = 0.44696 0.07490
#
# Static dielectric constant tensor:
#      x y z
#    x 1.646970 0.000000 0.000000 
#    y 0.000000 1.704460 0.000000 
#    z 0.000000 0.000000 1.673450 
# 
# From -- ./inp_files/26335.got.cif
#   From: 2010.05.17/outbox.cif.g08.bks.cpg/sg74_14_cif.got.tgz:26335.got - 2010.06.03 17:57:02.
