data_PCOD9538120
_publ_section_title
;
Structure prediction by ZEFSAII (Michael W. Deem and Ramdas Pophale) SiO2 
 PCOD9538120
Probable space group: I M M A
;
_chemical_formula_sum "Si O2"
_cell_formula_units_Z 80
_cell_length_a 8.426308
_cell_length_b 16.195744
_cell_length_c 30.080650
_cell_angle_alpha 90.000000
_cell_angle_beta 90.000000
_cell_angle_gamma 90.000000
_cell_volume 4105.116149
_symmetry_space_group_name_H-M "I M M A"
_symmetry_group_IT_number 74
_symmetry_cell_setting 'orthorhombic'
loop_
_space_group_symop_operation_xyz
x,y,z
-x,1/2-y,z
x,-y,-z
-x,1/2+y,-z
-x,-y,-z
x,1/2+y,-z
-x,y,z
x,1/2-y,z
1/2+x,1/2+y,1/2+z
1/2-x,-y,1/2+z
1/2+x,1/2-y,1/2-z
1/2-x,y,1/2-z
1/2-x,1/2-y,1/2-z
1/2+x,y,1/2-z
1/2-x,1/2+y,1/2+z
1/2+x,-y,1/2+z
loop_
_atom_site_type_symbol
_atom_site_label
_atom_site_fract_x
_atom_site_fract_y
_atom_site_fract_z
Si Si1 0.806143 0.250000 0.467574
Si Si2 0.810060 0.114532 0.201846
Si Si3 0.689725 0.750000 0.865289
Si Si4 0.308877 0.923391 0.297720
Si Si5 0.308419 0.413541 0.979139
Si Si6 0.191891 0.156161 0.889458
O O1 0.754007 0.250000 0.416275
O O2 0.754150 0.166869 0.492964
O O3 0.000000 0.250000 0.467948
O O4 0.750000 0.144353 0.250000
O O5 0.747288 0.170766 0.162264
O O6 0.000000 0.117220 0.201799
O O7 0.757702 0.019107 0.197357
O O8 0.500000 0.750000 0.865893
O O9 0.500000 0.922213 0.297025
O O10 0.250000 0.892426 0.250000
O O11 0.255125 0.872962 0.340716
O O12 0.500000 0.413684 0.980090
O O13 0.253459 0.401596 0.928672
O O14 0.253049 0.500000 0.000000
O O15 0.244790 0.250000 0.898152
O O16 0.000000 0.154667 0.889956
#
# Coordination Sequence:
#
# PCOD9538120 Si02
#       6
#     8  16   8  16  16  16
#     4   9  20  38  54  81 118 143 180 234 278 325
#     4  10  20  36  55  77 108 145 185 226 270 325
#     4  11  22  34  53  79 110 145 181 226 277 325
#     4   9  20  37  56  81 112 144 182 227 273 327
#     4  10  21  38  61  85 111 148 191 234 279 332
#     4  10  21  38  59  84 115 148 181 225 280 334
#
# _framework density 19.487877999999998
#
# number of rings (size 3 to 8) (size 9 to 14) (size 15 to 20)
#    0.000    2.200    1.000    1.200    2.800    2.400 
#    0.000    2.000    0.000    0.000    0.000    0.000 
#    0.000    0.000    0.000    0.000    0.000    0.000 
#
# Total GULP energy -223365.143239 kJ/mol
# GULP energy per Si atom -5584.128581 kJ/mol
# Density = 1.944352 g / cm^3
# Si number density = 19.487878 Si / 1000 Ang^3
#
#
#
# Elastic Constant Matrix: (Units=GPa)
#
#
# Indices 1 2 3 4 5 6 
#
# 1 11.1230 13.5433 13.9628 0.0000 0.0000 0.0000
# 2 13.5433 109.1308 73.0779 0.0000 0.0000 0.0000
# 3 13.9628 73.0779 174.7762 0.0000 0.0000 0.0000
# 4 0.0000 0.0000 0.0000 39.4078 0.0000 0.0000
# 5 0.0000 0.0000 0.0000 0.0000 26.8213 0.0000
# 6 0.0000 0.0000 0.0000 0.0000 0.0000 37.4788
#
#
#
# Elastic Compliance Matrix: (Units=1/GPa)
#
#
# Indices 1 2 3 4 5 6 
#
# 1 0.108085 -0.010599 -0.004203 0.000000 0.000000 0.000000
# 2 -0.010599 0.013766 -0.004909 0.000000 0.000000 0.000000
# 3 -0.004203 -0.004909 0.008110 0.000000 0.000000 0.000000
# 4 0.000000 0.000000 0.000000 0.025376 0.000000 0.000000
# 5 0.000000 0.000000 0.000000 0.000000 0.037284 0.000000
# 6 0.000000 0.000000 0.000000 0.000000 0.000000 0.026682
#
#
# Mechanical properties :
#
#
# Convention : Reuss Voigt Hill
#
# Bulk Modulus (GPa) = 11.04504 55.13311 33.08907
# Shear Modulus (GPa) = 17.30680 33.70467 25.50574
#
# Velocity S-wave (km/s) = 2.98330 4.16326 3.62166
# Velocity P-wave (km/s) = 4.18888 7.17375 5.87407
#
# Compressibility (1/GPa) = 0.09053836
#
# Stress axis : x y z
#
# Youngs Moduli (GPa) = 9.25200 72.64291 123.30440
#
# Poissons Ratio (x) = 0.76993 0.51827
# Poissons Ratio (y) = 0.09806 0.60532
# Poissons Ratio (z) = 0.03889 0.35661
#
# Static dielectric constant tensor:
#      x y z
#    x 1.665960 0.000000 0.000000 
#    y 0.000000 1.688870 0.000000 
#    z 0.000000 0.000000 1.656410 
# 
# From -- ./inp_files/64018.got.cif
#   From: 2010.05.17/outbox.cif.g08.bks.cpg/sg74_33_cif.got.tgz:64018.got - 2010.06.03 17:57:02.
