data_PCOD9538068
_publ_section_title
;
Structure prediction by ZEFSAII (Michael W. Deem and Ramdas Pophale) SiO2 
 PCOD9538068
Probable space group: I M M A
;
_chemical_formula_sum "Si O2"
_cell_formula_units_Z 112
_cell_length_a 17.343806
_cell_length_b 18.228063
_cell_length_c 18.369098
_cell_angle_alpha 90.000000
_cell_angle_beta 90.000000
_cell_angle_gamma 90.000000
_cell_volume 5807.279906
_symmetry_space_group_name_H-M "I M M A"
_symmetry_group_IT_number 74
_symmetry_cell_setting 'orthorhombic'
loop_
_space_group_symop_operation_xyz
x,y,z
-x,1/2-y,z
x,-y,-z
-x,1/2+y,-z
-x,-y,-z
x,1/2+y,-z
-x,y,z
x,1/2-y,z
1/2+x,1/2+y,1/2+z
1/2-x,-y,1/2+z
1/2+x,1/2-y,1/2-z
1/2-x,y,1/2-z
1/2-x,1/2-y,1/2-z
1/2+x,y,1/2-z
1/2-x,1/2+y,1/2+z
1/2+x,-y,1/2+z
loop_
_atom_site_type_symbol
_atom_site_label
_atom_site_fract_x
_atom_site_fract_y
_atom_site_fract_z
Si Si1 0.330838 0.933180 0.046537
Si Si2 0.646952 0.668037 0.543168
Si Si3 0.167098 0.044359 0.785586
Si Si4 0.172471 0.163623 0.414745
Si Si5 0.085981 0.022838 0.083193
Si Si6 0.911772 0.963962 0.657522
Si Si7 0.797982 0.335600 0.881342
O O1 0.275136 0.887395 0.099700
O O2 0.392144 0.978481 0.093147
O O3 0.361056 0.873472 0.988643
O O4 0.291124 0.000000 0.000000
O O5 0.622396 0.750000 0.558693
O O6 0.735187 0.658741 0.571577
O O7 0.593073 0.609855 0.580804
O O8 0.651158 0.658742 0.455250
O O9 0.250000 0.029665 0.750000
O O10 0.163968 0.129741 0.809366
O O11 0.150325 0.006219 0.862619
O O12 0.106893 0.009136 0.730257
O O13 0.153819 0.250000 0.405753
O O14 0.142374 0.107843 0.353065
O O15 0.000000 0.997989 0.104464
O O16 0.099389 0.000000 0.000000
O O17 0.000000 0.940744 0.654735
O O18 0.777864 0.250000 0.873407
#
# Coordination Sequence:
#
# PCOD9538068 Si02
#       7
#    16  16  16  16  16  16  16
#     4   9  18  33  59  90 119 153 193 242 296 353
#     4   9  18  35  61  91 120 146 194 258 303 346
#     4  12  23  39  62  89 115 162 205 255 301 363
#     4   9  19  36  62  91 120 157 204 256 300 351
#     4  11  23  38  61  88 122 163 208 253 303 368
#     4  11  23  38  55  84 126 162 201 246 300 368
#     4  10  20  35  59  90 117 149 199 256 300 351
#
# _framework density 19.286137
#
# number of rings (size 3 to 8) (size 9 to 14) (size 15 to 20)
#    0.000    1.857    2.857    2.571    4.000    3.429 
#    0.000    0.714    0.000    9.000    0.000    0.000 
#    0.000    0.000    0.000    0.000    0.000    0.000 
#
# Total GULP energy -312078.326199 kJ/mol
# GULP energy per Si atom -5572.827254 kJ/mol
# Density = 1.924224 g / cm^3
# Si number density = 19.286137 Si / 1000 Ang^3
#
#
#
# Elastic Constant Matrix: (Units=GPa)
#
#
# Indices 1 2 3 4 5 6 
#
# 1 36.7667 27.8576 32.1248 0.0000 0.0000 0.0000
# 2 27.8576 131.0256 40.7657 0.0000 0.0000 0.0000
# 3 32.1248 40.7657 68.1981 0.0000 0.0000 0.0000
# 4 0.0000 0.0000 0.0000 26.5848 0.0000 0.0000
# 5 0.0000 0.0000 0.0000 0.0000 6.0293 0.0000
# 6 0.0000 0.0000 0.0000 0.0000 0.0000 9.4215
#
#
#
# Elastic Compliance Matrix: (Units=1/GPa)
#
#
# Indices 1 2 3 4 5 6 
#
# 1 0.047774 -0.003877 -0.020187 0.000000 0.000000 0.000000
# 2 -0.003877 0.009690 -0.003966 0.000000 0.000000 0.000000
# 3 -0.020187 -0.003966 0.026543 0.000000 0.000000 0.000000
# 4 0.000000 0.000000 0.000000 0.037615 0.000000 0.000000
# 5 0.000000 0.000000 0.000000 0.000000 0.165856 0.000000
# 6 0.000000 0.000000 0.000000 0.000000 0.000000 0.106140
#
#
# Mechanical properties :
#
#
# Convention : Reuss Voigt Hill
#
# Bulk Modulus (GPa) = 35.78084 48.60962 42.19523
# Shear Modulus (GPa) = 10.89339 17.42329 14.15834
#
# Velocity S-wave (km/s) = 2.37919 3.00894 2.71240
# Velocity P-wave (km/s) = 5.11276 6.10989 5.63343
#
# Compressibility (1/GPa) = 0.02794792
#
# Stress axis : x y z
#
# Youngs Moduli (GPa) = 20.93191 103.19542 37.67463
#
# Poissons Ratio (x) = 0.40005 0.76053
# Poissons Ratio (y) = 0.08115 0.14943
# Poissons Ratio (z) = 0.42255 0.40931
#
# Static dielectric constant tensor:
#      x y z
#    x 1.685110 0.000000 0.000000 
#    y 0.000000 1.689230 0.000000 
#    z 0.000000 0.000000 1.729510 
# 
# From -- ./inp_files/45440.got.cif
#   From: 2010.05.17/outbox.cif.g08.bks.cpg/sg74_23_cif.got.tgz:45440.got - 2010.06.03 17:57:02.
