data_PCOD9538580
_publ_section_title
;
Structure prediction by ZEFSAII (Michael W. Deem and Ramdas Pophale) SiO2 
 PCOD9538580
Probable space group: I M M A
;
_chemical_formula_sum "Si O2"
_cell_formula_units_Z 56
_cell_length_a 20.645135
_cell_length_b 22.742886
_cell_length_c 4.962360
_cell_angle_alpha 90.000000
_cell_angle_beta 90.000000
_cell_angle_gamma 90.000000
_cell_volume 2329.976651
_symmetry_space_group_name_H-M "I M M A"
_symmetry_group_IT_number 74
_symmetry_cell_setting 'orthorhombic'
loop_
_space_group_symop_operation_xyz
x,y,z
-x,1/2-y,z
x,-y,-z
-x,1/2+y,-z
-x,-y,-z
x,1/2+y,-z
-x,y,z
x,1/2-y,z
1/2+x,1/2+y,1/2+z
1/2-x,-y,1/2+z
1/2+x,1/2-y,1/2-z
1/2-x,y,1/2-z
1/2-x,1/2-y,1/2-z
1/2+x,y,1/2-z
1/2-x,1/2+y,1/2+z
1/2+x,-y,1/2+z
loop_
_atom_site_type_symbol
_atom_site_label
_atom_site_fract_x
_atom_site_fract_y
_atom_site_fract_z
Si Si1 0.862558 0.611547 0.265023
Si Si2 0.359160 0.685072 0.708951
Si Si3 0.500000 0.566341 0.121831
Si Si4 0.500000 0.185462 0.232425
Si Si5 0.250000 0.466786 0.750000
O O1 0.866576 0.663680 0.485321
O O2 0.809081 0.568239 0.381870
O O3 0.931331 0.578244 0.229284
O O4 0.830913 0.637503 0.992658
O O5 0.330604 0.750000 0.692208
O O6 0.433701 0.687262 0.603190
O O7 0.500000 0.500000 0.000000
O O8 0.500000 0.622243 0.914980
O O9 0.500000 0.250000 0.081161
O O10 0.281335 0.500000 0.500000
#
# Coordination Sequence:
#
# PCOD9538580 Si02
#       5
#    16  16   8   8   8
#     4  11  23  41  63  93 125 164 211 260 315 380
#     4  10  20  38  63  93 126 164 207 260 317 379
#     4  10  21  38  63  96 128 162 212 272 317 362
#     4   8  17  34  58  88 127 168 206 250 314 382
#     4  12  26  46  65  86 123 172 210 250 316 396
#
# _framework density 24.034578
#
# number of rings (size 3 to 8) (size 9 to 14) (size 15 to 20)
#    0.000    1.714    0.000    4.286    0.000    3.429 
#    0.000   15.000    0.000    0.000    0.000    0.000 
#    0.000    0.000    0.000    0.000    0.000    0.000 
#
# Total GULP energy -156026.685643 kJ/mol
# GULP energy per Si atom -5572.381630 kJ/mol
# Density = 2.397987 g / cm^3
# Si number density = 24.034578 Si / 1000 Ang^3
#
#
#
# Elastic Constant Matrix: (Units=GPa)
#
#
# Indices 1 2 3 4 5 6 
#
# 1 67.2027 17.2901 -4.1455 0.0000 0.0000 0.0000
# 2 17.2901 145.3829 26.8928 0.0000 0.0000 0.0000
# 3 -4.1455 26.8928 79.3524 0.0000 0.0000 0.0000
# 4 0.0000 0.0000 0.0000 34.7033 0.0000 0.0000
# 5 0.0000 0.0000 0.0000 0.0000 18.4005 0.0000
# 6 0.0000 0.0000 0.0000 0.0000 0.0000 14.2295
#
#
#
# Elastic Compliance Matrix: (Units=1/GPa)
#
#
# Indices 1 2 3 4 5 6 
#
# 1 0.015523 -0.002130 0.001533 0.000000 0.000000 0.000000
# 2 -0.002130 0.007631 -0.002697 0.000000 0.000000 0.000000
# 3 0.001533 -0.002697 0.013596 0.000000 0.000000 0.000000
# 4 0.000000 0.000000 0.000000 0.028816 0.000000 0.000000
# 5 0.000000 0.000000 0.000000 0.000000 0.054346 0.000000
# 6 0.000000 0.000000 0.000000 0.000000 0.000000 0.070276
#
#
# Mechanical properties :
#
#
# Convention : Reuss Voigt Hill
#
# Bulk Modulus (GPa) = 33.15524 41.33476 37.24500
# Shear Modulus (GPa) = 24.17443 30.26005 27.21724
#
# Velocity S-wave (km/s) = 3.17491 3.55212 3.36880
# Velocity P-wave (km/s) = 5.22157 5.83599 5.53731
#
# Compressibility (1/GPa) = 0.03016114
#
# Stress axis : x y z
#
# Youngs Moduli (GPa) = 64.42131 131.05133 73.54998
#
# Poissons Ratio (x) = 0.27909 -0.11273
# Poissons Ratio (y) = 0.13719 0.19839
# Poissons Ratio (z) = -0.09874 0.35348
#
# Static dielectric constant tensor:
#      x y z
#    x 1.918360 0.000000 0.000000 
#    y 0.000000 2.000910 0.000000 
#    z 0.000000 0.000000 1.864320 
# 
# From -- ./inp_files/3521.got.cif
#   From: 2010.05.17/outbox.cif.g08.bks.cpg/sg74_2_cif.got.tgz:3521.got - 2010.06.03 17:57:02.
