data_PCOD9538707
_publ_section_title
;
Structure prediction by ZEFSAII (Michael W. Deem and Ramdas Pophale) SiO2 
 PCOD9538707
Probable space group: I M M A
;
_chemical_formula_sum "Si O2"
_cell_formula_units_Z 72
_cell_length_a 27.695376
_cell_length_b 8.235868
_cell_length_c 15.231898
_cell_angle_alpha 90.000000
_cell_angle_beta 90.000000
_cell_angle_gamma 90.000000
_cell_volume 3474.326795
_symmetry_space_group_name_H-M "I M M A"
_symmetry_group_IT_number 74
_symmetry_cell_setting 'orthorhombic'
loop_
_space_group_symop_operation_xyz
x,y,z
-x,1/2-y,z
x,-y,-z
-x,1/2+y,-z
-x,-y,-z
x,1/2+y,-z
-x,y,z
x,1/2-y,z
1/2+x,1/2+y,1/2+z
1/2-x,-y,1/2+z
1/2+x,1/2-y,1/2-z
1/2-x,y,1/2-z
1/2-x,1/2-y,1/2-z
1/2+x,y,1/2-z
1/2-x,1/2+y,1/2+z
1/2+x,-y,1/2+z
loop_
_atom_site_type_symbol
_atom_site_label
_atom_site_fract_x
_atom_site_fract_y
_atom_site_fract_z
Si Si1 0.826293 0.944023 0.909987
Si Si2 0.229326 0.940960 0.342248
Si Si3 0.875100 0.058085 0.402105
Si Si4 0.500000 0.553305 0.601425
Si Si5 0.909646 0.051940 0.219474
O O1 0.820246 0.750000 0.908951
O O2 0.859689 0.992779 0.828412
O O3 0.774838 0.030905 0.904873
O O4 0.851073 0.000000 0.000000
O O5 0.219682 0.750000 0.331659
O O6 0.250000 0.008992 0.250000
O O7 0.180628 0.019705 0.377813
O O8 0.880761 0.250000 0.402706
O O9 0.906940 0.993741 0.320122
O O10 0.886219 0.000000 0.500000
O O11 0.500000 0.750000 0.600898
O O12 0.500000 0.500000 0.500000
O O13 0.453426 0.498031 0.657614
O O14 0.911540 0.250000 0.220883
#
# Coordination Sequence:
#
# PCOD9538707 Si02
#       5
#    16  16  16   8  16
#     4  11  21  35  54  81 113 151 190 231 281 339
#     4  11  22  36  55  82 113 151 194 239 283 332
#     4  11  22  39  59  83 114 155 197 238 285 338
#     4  10  20  40  65  92 118 148 185 230 287 348
#     4   9  20  37  60  84 114 150 188 231 287 345
#
# _framework density 20.723438000000002
#
# number of rings (size 3 to 8) (size 9 to 14) (size 15 to 20)
#    0.000    1.556    2.222    3.333    0.000    0.889 
#    0.000    3.889    0.000    0.000    0.000    0.000 
#    0.000    0.000    0.000    0.000    0.000    0.000 
#
# Total GULP energy -201028.255145 kJ/mol
# GULP energy per Si atom -5584.118198 kJ/mol
# Density = 2.067627 g / cm^3
# Si number density = 20.723438 Si / 1000 Ang^3
#
#
#
# Elastic Constant Matrix: (Units=GPa)
#
#
# Indices 1 2 3 4 5 6 
#
# 1 88.5948 -1.7491 54.6554 0.0000 0.0000 0.0000
# 2 -1.7491 20.6788 12.4029 0.0000 0.0000 0.0000
# 3 54.6554 12.4029 203.4485 0.0000 0.0000 0.0000
# 4 0.0000 0.0000 0.0000 23.7326 0.0000 0.0000
# 5 0.0000 0.0000 0.0000 0.0000 30.8678 0.0000
# 6 0.0000 0.0000 0.0000 0.0000 0.0000 3.2394
#
#
#
# Elastic Compliance Matrix: (Units=1/GPa)
#
#
# Indices 1 2 3 4 5 6 
#
# 1 0.013771 0.003512 -0.003914 0.000000 0.000000 0.000000
# 2 0.003512 0.051090 -0.004058 0.000000 0.000000 0.000000
# 3 -0.003914 -0.004058 0.006214 0.000000 0.000000 0.000000
# 4 0.000000 0.000000 0.000000 0.042136 0.000000 0.000000
# 5 0.000000 0.000000 0.000000 0.000000 0.032396 0.000000
# 6 0.000000 0.000000 0.000000 0.000000 0.000000 0.308703
#
#
# Mechanical properties :
#
#
# Convention : Reuss Voigt Hill
#
# Bulk Modulus (GPa) = 16.08863 49.26005 32.67434
# Shear Modulus (GPa) = 10.33168 28.06215 19.19692
#
# Velocity S-wave (km/s) = 2.23525 3.68384 3.04688
# Velocity P-wave (km/s) = 3.80028 6.47426 5.30840
#
# Compressibility (1/GPa) = 0.06215569
#
# Stress axis : x y z
#
# Youngs Moduli (GPa) = 72.61605 19.57339 160.92627
#
# Poissons Ratio (x) = -0.06875 0.62981
# Poissons Ratio (y) = -0.25504 0.65306
# Poissons Ratio (z) = 0.28419 0.07943
#
# Static dielectric constant tensor:
#      x y z
#    x 1.723590 0.000000 0.000000 
#    y 0.000000 1.730730 0.000000 
#    z 0.000000 0.000000 1.827330 
# 
# From -- ./inp_files/29151.got.cif
#   From: 2010.05.17/outbox.cif.g08.bks.cpg/sg74_15_cif.got.tgz:29151.got - 2010.06.03 17:57:02.
