data_PCOD9538820
_publ_section_title
;
Structure prediction by ZEFSAII (Michael W. Deem and Ramdas Pophale) SiO2 
 PCOD9538820
Probable space group: I M M A
;
_chemical_formula_sum "Si O2"
_cell_formula_units_Z 64
_cell_length_a 8.405458
_cell_length_b 13.743470
_cell_length_c 23.100651
_cell_angle_alpha 90.000000
_cell_angle_beta 90.000000
_cell_angle_gamma 90.000000
_cell_volume 2668.590896
_symmetry_space_group_name_H-M "I M M A"
_symmetry_group_IT_number 74
_symmetry_cell_setting 'orthorhombic'
loop_
_space_group_symop_operation_xyz
x,y,z
-x,1/2-y,z
x,-y,-z
-x,1/2+y,-z
-x,-y,-z
x,1/2+y,-z
-x,y,z
x,1/2-y,z
1/2+x,1/2+y,1/2+z
1/2-x,-y,1/2+z
1/2+x,1/2-y,1/2-z
1/2-x,y,1/2-z
1/2-x,1/2-y,1/2-z
1/2+x,y,1/2-z
1/2-x,1/2+y,1/2+z
1/2+x,-y,1/2+z
loop_
_atom_site_type_symbol
_atom_site_label
_atom_site_fract_x
_atom_site_fract_y
_atom_site_fract_z
Si Si1 0.689108 0.640180 0.308769
Si Si2 0.500000 0.134115 0.000867
Si Si3 0.328910 0.865271 0.625024
Si Si4 0.683518 0.058570 0.564242
Si Si5 0.500000 0.135428 0.140668
O O1 0.500000 0.645583 0.303476
O O2 0.757115 0.750000 0.310983
O O3 0.750000 0.592346 0.250000
O O4 0.718587 0.593432 0.370578
O O5 0.500000 0.250000 0.993567
O O6 0.661079 0.093363 0.970877
O O7 0.500000 0.116594 0.070665
O O8 0.500000 0.876625 0.654728
O O9 0.315915 0.750000 0.608001
O O10 0.173582 0.894524 0.661376
O O11 0.330377 0.941349 0.571933
O O12 0.500000 0.091996 0.549305
O O13 0.500000 0.250000 0.150075
#
# Coordination Sequence:
#
# PCOD9538820 Si02
#       5
#    16   8  16  16   8
#     4   9  18  32  50  72  99 131 165 204 252 308
#     4  11  23  35  52  76 107 143 173 211 262 309
#     4   9  18  34  55  75  99 135 176 215 258 303
#     4  10  21  35  52  77 104 133 173 217 256 304
#     4   9  19  35  51  74 105 137 176 217 257 306
#
# _framework density 23.982695
#
# number of rings (size 3 to 8) (size 9 to 14) (size 15 to 20)
#    0.000    2.500    0.000    1.500    1.750    4.500 
#    0.000    5.000    0.000    0.750    0.000    0.000 
#    0.000    0.000    0.000    0.000    0.000    0.000 
#
# Total GULP energy -178232.993648 kJ/mol
# GULP energy per Si atom -5569.781052 kJ/mol
# Density = 2.392811 g / cm^3
# Si number density = 23.982695 Si / 1000 Ang^3
#
#
#
# Elastic Constant Matrix: (Units=GPa)
#
#
# Indices 1 2 3 4 5 6 
#
# 1 170.1927 17.1358 10.8487 0.0000 0.0000 0.0000
# 2 17.1358 92.5830 20.4429 0.0000 0.0000 0.0000
# 3 10.8487 20.4429 102.4262 0.0000 0.0000 0.0000
# 4 0.0000 0.0000 0.0000 20.4675 0.0000 0.0000
# 5 0.0000 0.0000 0.0000 0.0000 15.1878 0.0000
# 6 0.0000 0.0000 0.0000 0.0000 0.0000 28.9192
#
#
#
# Elastic Compliance Matrix: (Units=1/GPa)
#
#
# Indices 1 2 3 4 5 6 
#
# 1 0.006006 -0.001016 -0.000433 0.000000 0.000000 0.000000
# 2 -0.001016 0.011471 -0.002182 0.000000 0.000000 0.000000
# 3 -0.000433 -0.002182 0.010244 0.000000 0.000000 0.000000
# 4 0.000000 0.000000 0.000000 0.048858 0.000000 0.000000
# 5 0.000000 0.000000 0.000000 0.000000 0.065842 0.000000
# 6 0.000000 0.000000 0.000000 0.000000 0.000000 0.034579
#
#
# Mechanical properties :
#
#
# Convention : Reuss Voigt Hill
#
# Bulk Modulus (GPa) = 48.87849 51.33963 50.10906
# Shear Modulus (GPa) = 26.16678 34.03320 30.09999
#
# Velocity S-wave (km/s) = 3.30672 3.77115 3.54654
# Velocity P-wave (km/s) = 5.91643 6.35732 6.14083
#
# Compressibility (1/GPa) = 0.02045890
#
# Stress axis : x y z
#
# Youngs Moduli (GPa) = 166.51127 87.17704 97.61345
#
# Poissons Ratio (x) = 0.08856 0.04230
# Poissons Ratio (y) = 0.16915 0.21298
# Poissons Ratio (z) = 0.07216 0.19021
#
# Static dielectric constant tensor:
#      x y z
#    x 2.013180 0.000000 0.000000 
#    y 0.000000 1.992330 0.000000 
#    z 0.000000 0.000000 1.891000 
# 
# From -- ./inp_files/56472.got.cif
#   From: 2010.05.17/outbox.cif.g08.bks.cpg/sg74_29_cif.got.tgz:56472.got - 2010.06.03 17:57:02.
