data_PCOD9538605
_publ_section_title
;
Structure prediction by ZEFSAII (Michael W. Deem and Ramdas Pophale) SiO2 
 PCOD9538605
Probable space group: I M M A
;
_chemical_formula_sum "Si O2"
_cell_formula_units_Z 88
_cell_length_a 20.984127
_cell_length_b 16.215722
_cell_length_c 11.936540
_cell_angle_alpha 90.000000
_cell_angle_beta 90.000000
_cell_angle_gamma 90.000000
_cell_volume 4061.679528
_symmetry_space_group_name_H-M "I M M A"
_symmetry_group_IT_number 74
_symmetry_cell_setting 'orthorhombic'
loop_
_space_group_symop_operation_xyz
x,y,z
-x,1/2-y,z
x,-y,-z
-x,1/2+y,-z
-x,-y,-z
x,1/2+y,-z
-x,y,z
x,1/2-y,z
1/2+x,1/2+y,1/2+z
1/2-x,-y,1/2+z
1/2+x,1/2-y,1/2-z
1/2-x,y,1/2-z
1/2-x,1/2-y,1/2-z
1/2+x,y,1/2-z
1/2-x,1/2+y,1/2+z
1/2+x,-y,1/2+z
loop_
_atom_site_type_symbol
_atom_site_label
_atom_site_fract_x
_atom_site_fract_y
_atom_site_fract_z
Si Si1 0.649489 0.406965 0.020508
Si Si2 0.674597 0.845738 0.227198
Si Si3 0.627648 0.584702 0.442105
Si Si4 0.105094 0.653544 0.746740
Si Si5 0.277527 0.342935 0.400402
Si Si6 0.500000 0.404658 0.418993
O O1 0.605969 0.365700 0.115643
O O2 0.720689 0.404201 0.072790
O O3 0.629016 0.500000 0.000000
O O4 0.656553 0.362234 0.901462
O O5 0.660277 0.750000 0.252894
O O6 0.750000 0.858943 0.250000
O O7 0.637019 0.906868 0.310176
O O8 0.650242 0.500000 0.500000
O O9 0.673223 0.653426 0.496193
O O10 0.555679 0.594188 0.483213
O O11 0.089922 0.750000 0.767228
O O12 0.176414 0.639696 0.795840
O O13 0.056088 0.602690 0.822167
O O14 0.250859 0.250000 0.391033
#
# Coordination Sequence:
#
# PCOD9538605 Si02
#       6
#    16  16  16  16  16   8
#     4  12  25  38  62  98 138 177 216 266 333 403
#     4  11  24  41  65  97 141 180 212 262 336 413
#     4  11  23  41  68  99 133 172 222 272 328 394
#     4  10  22  41  67  95 127 170 224 277 329 387
#     4  10  20  38  65  95 132 171 214 269 325 392
#     4  10  24  44  71  94 125 165 230 284 334 375
#
# _framework density 21.665913
#
# number of rings (size 3 to 8) (size 9 to 14) (size 15 to 20)
#    0.000    1.273    1.818    3.818    5.091    3.636 
#    0.000    1.364    0.000    0.000    0.000    0.000 
#    0.000    0.000    0.000    0.000    0.000    0.000 
#
# Total GULP energy -244939.661303 kJ/mol
# GULP energy per Si atom -5566.810484 kJ/mol
# Density = 2.161660 g / cm^3
# Si number density = 21.665913 Si / 1000 Ang^3
#
#
#
# Elastic Constant Matrix: (Units=GPa)
#
#
# Indices 1 2 3 4 5 6 
#
# 1 66.4981 10.0902 27.3650 0.0000 0.0000 0.0000
# 2 10.0902 58.4750 26.5571 0.0000 0.0000 0.0000
# 3 27.3650 26.5571 162.1085 0.0000 0.0000 0.0000
# 4 0.0000 0.0000 0.0000 28.5289 0.0000 0.0000
# 5 0.0000 0.0000 0.0000 0.0000 24.7006 0.0000
# 6 0.0000 0.0000 0.0000 0.0000 0.0000 -23.8437
#
#
#
# Elastic Compliance Matrix: (Units=1/GPa)
#
#
# Indices 1 2 3 4 5 6 
#
# 1 0.016314 -0.001690 -0.002477 0.000000 0.000000 0.000000
# 2 -0.001690 0.018651 -0.002770 0.000000 0.000000 0.000000
# 3 -0.002477 -0.002770 0.007041 0.000000 0.000000 0.000000
# 4 0.000000 0.000000 0.000000 0.035052 0.000000 0.000000
# 5 0.000000 0.000000 0.000000 0.000000 0.040485 0.000000
# 6 0.000000 0.000000 0.000000 0.000000 0.000000 -0.041940
#
#
# Mechanical properties :
#
#
# Convention : Reuss Voigt Hill
#
# Bulk Modulus (GPa) = 35.54799 46.12293 40.83546
# Shear Modulus (GPa) = 50.57953 20.74846 35.66399
#
# Velocity S-wave (km/s) = 4.83693 3.09796 4.06160
# Velocity P-wave (km/s) = 6.90199 5.84217 6.39407
#
# Compressibility (1/GPa) = 0.02813098
#
# Stress axis : x y z
#
# Youngs Moduli (GPa) = 61.29785 53.61623 142.03217
#
# Poissons Ratio (x) = 0.09062 0.35181
# Poissons Ratio (y) = 0.10360 0.39345
# Poissons Ratio (z) = 0.15183 0.14853
#
# Static dielectric constant tensor:
#      x y z
#    x 1.770960 0.000000 0.000000 
#    y 0.000000 1.916180 0.000000 
#    z 0.000000 0.000000 1.836500 
# 
# From -- ./inp_files/23687.got.cif
#   From: 2010.05.17/outbox.cif.g08.bks.cpg/sg74_12_cif.got.tgz:23687.got - 2010.06.03 17:57:02.
