data_PCOD9538363
_publ_section_title
;
Structure prediction by ZEFSAII (Michael W. Deem and Ramdas Pophale) SiO2 
 PCOD9538363
Probable space group: I M M A
;
_chemical_formula_sum "Si O2"
_cell_formula_units_Z 44
_cell_length_a 12.942349
_cell_length_b 10.286250
_cell_length_c 14.236645
_cell_angle_alpha 90.000000
_cell_angle_beta 90.000000
_cell_angle_gamma 90.000000
_cell_volume 1895.299455
_symmetry_space_group_name_H-M "I M M A"
_symmetry_group_IT_number 74
_symmetry_cell_setting 'orthorhombic'
loop_
_space_group_symop_operation_xyz
x,y,z
-x,1/2-y,z
x,-y,-z
-x,1/2+y,-z
-x,-y,-z
x,1/2+y,-z
-x,y,z
x,1/2-y,z
1/2+x,1/2+y,1/2+z
1/2-x,-y,1/2+z
1/2+x,1/2-y,1/2-z
1/2-x,y,1/2-z
1/2-x,1/2-y,1/2-z
1/2+x,y,1/2-z
1/2-x,1/2+y,1/2+z
1/2+x,-y,1/2+z
loop_
_atom_site_type_symbol
_atom_site_label
_atom_site_fract_x
_atom_site_fract_y
_atom_site_fract_z
Si Si1 0.000000 0.017168 0.612750
Si Si2 0.000000 0.250000 0.274615
Si Si3 0.188844 0.750000 0.867434
Si Si4 0.223725 0.474789 0.611546
Si Si5 0.877013 0.250000 0.910955
O O1 0.000000 0.876061 0.660080
O O2 0.000000 0.000000 0.500000
O O3 0.889341 0.078176 0.639349
O O4 0.095737 0.250000 0.204282
O O5 0.253458 0.618974 0.852678
O O6 0.145832 0.750000 0.975643
O O7 0.220197 0.500000 0.500000
O O8 0.317165 0.375887 0.629179
O O9 0.000000 0.250000 0.895653
#
# Coordination Sequence:
#
# PCOD9538363 Si02
#       5
#     8   4   8  16   8
#     4  10  22  40  58  86 122 169 219 256 313 374
#     4  12  24  38  70  96 132 162 200 284 316 372
#     4  10  21  36  62 106 128 157 210 261 328 372
#     4   9  20  36  61  91 130 171 210 257 302 376
#     4  10  20  36  63  96 131 169 205 258 317 373
#
# _framework density 23.215329000000001
#
# number of rings (size 3 to 8) (size 9 to 14) (size 15 to 20)
#    0.000    2.182    0.909    1.091    2.545   10.182 
#    0.000    0.000    0.000    8.727    0.000    0.000 
#    0.000    0.000    0.000    0.000    0.000    0.000 
#
# Total GULP energy -122956.679172 kJ/mol
# GULP energy per Si atom -5588.939962 kJ/mol
# Density = 2.316249 g / cm^3
# Si number density = 23.215329 Si / 1000 Ang^3
#
#
#
# Elastic Constant Matrix: (Units=GPa)
#
#
# Indices 1 2 3 4 5 6 
#
# 1 266.8433 89.0227 19.4232 0.0000 0.0000 0.0000
# 2 89.0227 135.9376 20.2445 0.0000 0.0000 0.0000
# 3 19.4232 20.2445 89.9106 0.0000 0.0000 0.0000
# 4 0.0000 0.0000 0.0000 -8.7697 0.0000 0.0000
# 5 0.0000 0.0000 0.0000 0.0000 26.4326 0.0000
# 6 0.0000 0.0000 0.0000 0.0000 0.0000 40.9267
#
#
#
# Elastic Compliance Matrix: (Units=1/GPa)
#
#
# Indices 1 2 3 4 5 6 
#
# 1 0.004805 -0.003096 -0.000341 0.000000 0.000000 0.000000
# 2 -0.003096 0.009606 -0.001494 0.000000 0.000000 0.000000
# 3 -0.000341 -0.001494 0.011532 0.000000 0.000000 0.000000
# 4 0.000000 0.000000 0.000000 -0.114030 0.000000 0.000000
# 5 0.000000 0.000000 0.000000 0.000000 0.037832 0.000000
# 6 0.000000 0.000000 0.000000 0.000000 0.000000 0.024434
#
#
# Mechanical properties :
#
#
# Convention : Reuss Voigt Hill
#
# Bulk Modulus (GPa) = 62.18323 83.34137 72.76230
# Shear Modulus (GPa) = -471.83660 35.98467 -217.92596
#
# Velocity S-wave (km/s) = -14.27182 3.94132 -9.69925
# Velocity P-wave (km/s) = 15.64404 7.52923 9.69657
#
# Compressibility (1/GPa) = 0.01608151
#
# Stress axis : x y z
#
# Youngs Moduli (GPa) = 208.10667 104.09742 86.71342
#
# Poissons Ratio (x) = 0.32229 0.02956
# Poissons Ratio (y) = 0.64431 0.12956
# Poissons Ratio (z) = 0.07095 0.15554
#
# Static dielectric constant tensor:
#      x y z
#    x 1.887850 0.000000 0.000000 
#    y 0.000000 1.830970 0.000000 
#    z 0.000000 0.000000 1.862850 
# 
# From -- ./inp_files/40420.got.cif
#   From: 2010.05.17/outbox.cif.g08.bks.cpg/sg74_21_cif.got.tgz:40420.got - 2010.06.03 17:57:02.
