data_PCOD9538980
_publ_section_title
;
Structure prediction by ZEFSAII (Michael W. Deem and Ramdas Pophale) SiO2 
 PCOD9538980
Probable space group: I M M A
;
_chemical_formula_sum "Si O2"
_cell_formula_units_Z 116
_cell_length_a 19.378219
_cell_length_b 27.401177
_cell_length_c 12.621441
_cell_angle_alpha 90.000000
_cell_angle_beta 90.000000
_cell_angle_gamma 90.000000
_cell_volume 6701.808581
_symmetry_space_group_name_H-M "I M M A"
_symmetry_group_IT_number 74
_symmetry_cell_setting 'orthorhombic'
loop_
_space_group_symop_operation_xyz
x,y,z
-x,1/2-y,z
x,-y,-z
-x,1/2+y,-z
-x,-y,-z
x,1/2+y,-z
-x,y,z
x,1/2-y,z
1/2+x,1/2+y,1/2+z
1/2-x,-y,1/2+z
1/2+x,1/2-y,1/2-z
1/2-x,y,1/2-z
1/2-x,1/2-y,1/2-z
1/2+x,y,1/2-z
1/2-x,1/2+y,1/2+z
1/2+x,-y,1/2+z
loop_
_atom_site_type_symbol
_atom_site_label
_atom_site_fract_x
_atom_site_fract_y
_atom_site_fract_z
Si Si1 0.921701 0.304188 0.567267
Si Si2 0.500000 0.000000 0.000000
Si Si3 0.823530 0.441735 0.695530
Si Si4 0.919414 0.048910 0.061266
Si Si5 0.080498 0.114992 0.857168
Si Si6 0.329243 0.443526 0.229502
Si Si7 0.887515 0.589792 0.513763
Si Si8 0.173118 0.694499 0.225753
O O1 0.911667 0.250000 0.515203
O O2 0.914251 0.354906 0.504189
O O3 0.868996 0.306460 0.664583
O O4 0.000000 0.304041 0.609045
O O5 0.440661 0.044387 0.999708
O O6 0.750000 0.431810 0.750000
O O7 0.884875 0.419784 0.768101
O O8 0.831451 0.499866 0.693975
O O9 0.830949 0.419917 0.578363
O O10 0.874033 0.059763 0.163637
O O11 0.000000 0.041297 0.092385
O O12 0.916260 0.090053 0.971597
O O13 0.895684 0.000000 0.000000
O O14 0.128326 0.162325 0.853203
O O15 0.000000 0.123638 0.831692
O O16 0.250000 0.430527 0.250000
O O17 0.359265 0.413496 0.132223
O O18 0.179239 0.750000 0.188198
O O19 0.250000 0.676283 0.250000
#
# Coordination Sequence:
#
# PCOD9538980 Si02
#       8
#    16   4  16  16  16  16  16  16
#     4  10  21  36  57  86 119 157 196 240 297 359
#     4  12  24  36  58  96 122 156 186 250 300 366
#     4  11  23  36  56  85 121 158 190 240 299 366
#     4  10  22  38  56  77 110 156 200 237 285 354
#     4  11  22  35  58  83 111 155 193 237 291 346
#     4  11  25  38  57  82 119 158 200 246 291 359
#     4  12  24  38  60  90 124 157 194 247 306 355
#     4  10  21  36  56  86 119 153 191 241 299 355
#
# _framework density 17.308761000000001
#
# number of rings (size 3 to 8) (size 9 to 14) (size 15 to 20)
#    0.000    1.241    4.828    0.828    3.862    0.828 
#    0.000    0.000    0.000    1.241    0.000    0.000 
#    0.000    0.000    0.000    0.000    0.000    0.000 
#
# Total GULP energy -322998.698592 kJ/mol
# GULP energy per Si atom -5568.943079 kJ/mol
# Density = 1.726937 g / cm^3
# Si number density = 17.308761 Si / 1000 Ang^3
#
#
#
# Elastic Constant Matrix: (Units=GPa)
#
#
# Indices 1 2 3 4 5 6 
#
# 1 124.4175 36.8064 56.3548 0.0000 0.0000 0.0000
# 2 36.8064 122.2594 25.5953 0.0000 0.0000 0.0000
# 3 56.3548 25.5953 104.2788 0.0000 0.0000 0.0000
# 4 0.0000 0.0000 0.0000 18.2922 0.0000 0.0000
# 5 0.0000 0.0000 0.0000 0.0000 15.7347 0.0000
# 6 0.0000 0.0000 0.0000 0.0000 0.0000 18.5489
#
#
#
# Elastic Compliance Matrix: (Units=1/GPa)
#
#
# Indices 1 2 3 4 5 6 
#
# 1 0.011184 -0.002216 -0.005500 0.000000 0.000000 0.000000
# 2 -0.002216 0.009061 -0.001027 0.000000 0.000000 0.000000
# 3 -0.005500 -0.001027 0.012814 0.000000 0.000000 0.000000
# 4 0.000000 0.000000 0.000000 0.054668 0.000000 0.000000
# 5 0.000000 0.000000 0.000000 0.000000 0.063554 0.000000
# 6 0.000000 0.000000 0.000000 0.000000 0.000000 0.053911
#
#
# Mechanical properties :
#
#
# Convention : Reuss Voigt Hill
#
# Bulk Modulus (GPa) = 64.20819 65.38542 64.79681
# Shear Modulus (GPa) = 21.94230 25.99510 23.96870
#
# Velocity S-wave (km/s) = 3.56434 3.87957 3.72529
# Velocity P-wave (km/s) = 7.35633 7.61091 7.48471
#
# Compressibility (1/GPa) = 0.01557434
#
# Stress axis : x y z
#
# Youngs Moduli (GPa) = 89.41109 110.35970 78.03790
#
# Poissons Ratio (x) = 0.24450 0.42924
# Poissons Ratio (y) = 0.19809 0.08013
# Poissons Ratio (z) = 0.49180 0.11332
#
# Static dielectric constant tensor:
#      x y z
#    x 1.606460 0.000000 0.000000 
#    y 0.000000 1.636170 0.000000 
#    z 0.000000 0.000000 1.598410 
# 
# From -- ./inp_files/22832.got.cif
#   From: 2010.05.17/outbox.cif.g08.bks.cpg/sg74_12_cif.got.tgz:22832.got - 2010.06.03 17:57:02.
