data_PCOD9538306
_publ_section_title
;
Structure prediction by ZEFSAII (Michael W. Deem and Ramdas Pophale) SiO2 
 PCOD9538306
Probable space group: I M M A
;
_chemical_formula_sum "Si O2"
_cell_formula_units_Z 104
_cell_length_a 29.338841
_cell_length_b 8.491443
_cell_length_c 20.381737
_cell_angle_alpha 90.000000
_cell_angle_beta 90.000000
_cell_angle_gamma 90.000000
_cell_volume 5077.683714
_symmetry_space_group_name_H-M "I M M A"
_symmetry_group_IT_number 74
_symmetry_cell_setting 'orthorhombic'
loop_
_space_group_symop_operation_xyz
x,y,z
-x,1/2-y,z
x,-y,-z
-x,1/2+y,-z
-x,-y,-z
x,1/2+y,-z
-x,y,z
x,1/2-y,z
1/2+x,1/2+y,1/2+z
1/2-x,-y,1/2+z
1/2+x,1/2-y,1/2-z
1/2-x,y,1/2-z
1/2-x,1/2-y,1/2-z
1/2+x,y,1/2-z
1/2-x,1/2+y,1/2+z
1/2+x,-y,1/2+z
loop_
_atom_site_type_symbol
_atom_site_label
_atom_site_fract_x
_atom_site_fract_y
_atom_site_fract_z
Si Si1 0.711076 0.927945 0.803989
Si Si2 0.232224 0.060527 0.925987
Si Si3 0.621778 0.062541 0.791595
Si Si4 0.446974 0.442839 0.682314
Si Si5 0.099552 0.061046 0.572445
Si Si6 0.373012 0.559950 0.426863
Si Si7 0.000000 0.061468 0.573823
O O1 0.695293 0.750000 0.817439
O O2 0.750000 0.921375 0.750000
O O3 0.733311 0.999768 0.870192
O O4 0.671260 0.022736 0.765952
O O5 0.234064 0.250000 0.926755
O O6 0.179378 0.010925 0.911310
O O7 0.242917 0.000000 0.000000
O O8 0.615329 0.250000 0.795042
O O9 0.579707 0.003834 0.748250
O O10 0.628606 0.005569 0.866646
O O11 0.500000 0.493815 0.678070
O O12 0.447983 0.250000 0.682852
O O13 0.412791 0.490821 0.623452
O O14 0.100899 0.250000 0.566980
O O15 0.049034 0.011603 0.598157
O O16 0.108567 0.000000 0.500000
O O17 0.383058 0.500000 0.500000
O O18 0.373096 0.750000 0.426436
O O19 0.000000 0.250000 0.576048
O O20 0.000000 0.000000 0.500000
#
# Coordination Sequence:
#
# PCOD9538306 Si02
#       7
#    16  16  16  16  16  16   8
#     4  11  24  40  58  81 111 148 189 235 288 343
#     4  10  20  36  60  88 119 151 188 234 285 344
#     4  10  21  36  56  81 107 142 186 233 282 330
#     4   9  18  33  55  82 111 144 187 235 278 326
#     4   9  18  31  50  75 103 135 174 216 261 310
#     4   9  18  33  55  84 114 145 180 222 274 333
#     4   8  14  26  44  68  96 126 163 204 246 294
#
# _framework density 20.481781000000002
#
# number of rings (size 3 to 8) (size 9 to 14) (size 15 to 20)
#    0.000    2.462    0.000    1.846    1.077    4.615 
#    0.000    2.308    0.000    1.385    0.000    0.000 
#    0.000    0.000    0.000    0.000    0.000    0.000 
#
# Total GULP energy -289476.114341 kJ/mol
# GULP energy per Si atom -5566.848353 kJ/mol
# Density = 2.043516 g / cm^3
# Si number density = 20.481781 Si / 1000 Ang^3
#
#
#
# Elastic Constant Matrix: (Units=GPa)
#
#
# Indices 1 2 3 4 5 6 
#
# 1 90.3628 2.4983 43.0989 0.0000 0.0000 0.0000
# 2 2.4983 8.6940 18.2643 0.0000 0.0000 0.0000
# 3 43.0989 18.2643 104.9868 0.0000 0.0000 0.0000
# 4 0.0000 0.0000 0.0000 19.4387 0.0000 0.0000
# 5 0.0000 0.0000 0.0000 0.0000 34.9229 0.0000
# 6 0.0000 0.0000 0.0000 0.0000 0.0000 21.1557
#
#
#
# Elastic Compliance Matrix: (Units=1/GPa)
#
#
# Indices 1 2 3 4 5 6 
#
# 1 0.014676 0.013300 -0.008339 0.000000 0.000000 0.000000
# 2 0.013300 0.193325 -0.039092 0.000000 0.000000 0.000000
# 3 -0.008339 -0.039092 0.019749 0.000000 0.000000 0.000000
# 4 0.000000 0.000000 0.000000 0.051444 0.000000 0.000000
# 5 0.000000 0.000000 0.000000 0.000000 0.028635 0.000000
# 6 0.000000 0.000000 0.000000 0.000000 0.000000 0.047269
#
#
# Mechanical properties :
#
#
# Convention : Reuss Voigt Hill
#
# Bulk Modulus (GPa) = 6.27003 36.86295 21.56649
# Shear Modulus (GPa) = 10.49273 24.44892 17.47083
#
# Velocity S-wave (km/s) = 2.26585 3.45873 2.92377
# Velocity P-wave (km/s) = 3.14855 5.82987 4.68513
#
# Compressibility (1/GPa) = 0.15948875
#
# Stress axis : x y z
#
# Youngs Moduli (GPa) = 68.13905 5.17264 50.63585
#
# Poissons Ratio (x) = -0.06880 0.42223
# Poissons Ratio (y) = -0.90626 1.97946
# Poissons Ratio (z) = 0.56818 0.20221
#
# Static dielectric constant tensor:
#      x y z
#    x 1.981220 0.000000 0.000000 
#    y 0.000000 1.722110 0.000000 
#    z 0.000000 0.000000 1.743820 
# 
# From -- ./inp_files/55215.got.cif
#   From: 2010.05.17/outbox.cif.g08.bks.cpg/sg74_28_cif.got.tgz:55215.got - 2010.06.03 17:57:02.
