data_PCOD9538640
_publ_section_title
;
Structure prediction by ZEFSAII (Michael W. Deem and Ramdas Pophale) SiO2 
 PCOD9538640
Probable space group: I M M A
;
_chemical_formula_sum "Si O2"
_cell_formula_units_Z 96
_cell_length_a 25.002450
_cell_length_b 8.489795
_cell_length_c 23.179596
_cell_angle_alpha 90.000000
_cell_angle_beta 90.000000
_cell_angle_gamma 90.000000
_cell_volume 4920.232591
_symmetry_space_group_name_H-M "I M M A"
_symmetry_group_IT_number 74
_symmetry_cell_setting 'orthorhombic'
loop_
_space_group_symop_operation_xyz
x,y,z
-x,1/2-y,z
x,-y,-z
-x,1/2+y,-z
-x,-y,-z
x,1/2+y,-z
-x,y,z
x,1/2-y,z
1/2+x,1/2+y,1/2+z
1/2-x,-y,1/2+z
1/2+x,1/2-y,1/2-z
1/2-x,y,1/2-z
1/2-x,1/2-y,1/2-z
1/2+x,y,1/2-z
1/2-x,1/2+y,1/2+z
1/2+x,-y,1/2+z
loop_
_atom_site_type_symbol
_atom_site_label
_atom_site_fract_x
_atom_site_fract_y
_atom_site_fract_z
Si Si1 0.500000 0.940358 0.287096
Si Si2 0.885498 0.441032 0.831856
Si Si3 0.196379 0.060663 0.598115
Si Si4 0.084869 0.561819 0.560311
Si Si5 0.186275 0.062459 0.063367
Si Si6 0.500000 0.059622 0.155435
Si Si7 0.808411 0.941468 0.270573
O O1 0.500000 0.750000 0.285342
O O2 0.446474 0.990614 0.320750
O O3 0.500000 0.995828 0.220462
O O4 0.883716 0.250000 0.834508
O O5 0.855132 0.504015 0.888006
O O6 0.852322 0.493118 0.775239
O O7 0.198111 0.250000 0.595580
O O8 0.185309 0.008158 0.663882
O O9 0.145437 0.998708 0.564079
O O10 0.253982 0.998812 0.578219
O O11 0.061784 0.500000 0.500000
O O12 0.084003 0.750000 0.559466
O O13 0.050986 0.509524 0.616442
O O14 0.187304 0.250000 0.062861
O O15 0.171679 0.000000 0.000000
O O16 0.500000 0.250000 0.158626
O O17 0.809156 0.750000 0.270449
O O18 0.750000 0.992213 0.250000
#
# Coordination Sequence:
#
# PCOD9538640 Si02
#       7
#     8  16  16  16  16   8  16
#     4  10  22  39  66  95 121 156 196 242 297 364
#     4  10  20  39  62  90 123 155 197 243 292 352
#     4  11  21  37  61  89 122 160 198 245 298 357
#     4  11  23  39  57  83 118 161 209 255 299 351
#     4  12  25  41  61  87 118 157 198 244 299 358
#     4  10  23  41  61  85 121 160 201 254 304 348
#     4   9  16  30  56  86 116 152 189 231 285 344
#
# _framework density 19.511272999999999
#
# number of rings (size 3 to 8) (size 9 to 14) (size 15 to 20)
#    0.000    1.500    1.667    4.250    0.000    3.333 
#    0.000    2.917    0.000    0.000    0.000    0.000 
#    0.000    0.000    0.000    0.000    0.000    0.000 
#
# Total GULP energy -268212.732504 kJ/mol
# GULP energy per Si atom -5587.765260 kJ/mol
# Density = 1.946686 g / cm^3
# Si number density = 19.511273 Si / 1000 Ang^3
#
#
#
# Elastic Constant Matrix: (Units=GPa)
#
#
# Indices 1 2 3 4 5 6 
#
# 1 165.7215 33.4482 76.7369 0.0000 0.0000 0.0000
# 2 33.4482 55.2101 32.3483 0.0000 0.0000 0.0000
# 3 76.7369 32.3483 154.3385 0.0000 0.0000 0.0000
# 4 0.0000 0.0000 0.0000 32.7320 0.0000 0.0000
# 5 0.0000 0.0000 0.0000 0.0000 21.5006 0.0000
# 6 0.0000 0.0000 0.0000 0.0000 0.0000 16.1889
#
#
#
# Elastic Compliance Matrix: (Units=1/GPa)
#
#
# Indices 1 2 3 4 5 6 
#
# 1 0.008241 -0.002955 -0.003478 0.000000 0.000000 0.000000
# 2 -0.002955 0.021708 -0.003081 0.000000 0.000000 0.000000
# 3 -0.003478 -0.003081 0.008854 0.000000 0.000000 0.000000
# 4 0.000000 0.000000 0.000000 0.030551 0.000000 0.000000
# 5 0.000000 0.000000 0.000000 0.000000 0.046510 0.000000
# 6 0.000000 0.000000 0.000000 0.000000 0.000000 0.061771
#
#
# Mechanical properties :
#
#
# Convention : Reuss Voigt Hill
#
# Bulk Modulus (GPa) = 50.56672 73.37077 61.96875
# Shear Modulus (GPa) = 24.59964 29.60006 27.09985
#
# Velocity S-wave (km/s) = 3.55461 3.89919 3.73088
# Velocity P-wave (km/s) = 6.54370 7.61298 7.09850
#
# Compressibility (1/GPa) = 0.01977585
#
# Stress axis : x y z
#
# Youngs Moduli (GPa) = 121.34186 46.06639 112.93955
#
# Poissons Ratio (x) = 0.13612 0.39282
# Poissons Ratio (y) = 0.35855 0.34793
# Poissons Ratio (z) = 0.42205 0.14191
#
# Static dielectric constant tensor:
#      x y z
#    x 1.681670 0.000000 0.000000 
#    y 0.000000 1.664440 0.000000 
#    z 0.000000 0.000000 1.698270 
# 
# From -- ./inp_files/61959.got.cif
#   From: 2010.05.17/outbox.cif.g08.bks.cpg/sg74_31_cif.got.tgz:61959.got - 2010.06.03 17:57:02.
