data_PCOD9538476
_publ_section_title
;
Structure prediction by ZEFSAII (Michael W. Deem and Ramdas Pophale) SiO2 
 PCOD9538476
Probable space group: I M M A
;
_chemical_formula_sum "Si O2"
_cell_formula_units_Z 68
_cell_length_a 27.931352
_cell_length_b 7.656896
_cell_length_c 13.354862
_cell_angle_alpha 90.000000
_cell_angle_beta 90.000000
_cell_angle_gamma 90.000000
_cell_volume 2856.170380
_symmetry_space_group_name_H-M "I M M A"
_symmetry_group_IT_number 74
_symmetry_cell_setting 'orthorhombic'
loop_
_space_group_symop_operation_xyz
x,y,z
-x,1/2-y,z
x,-y,-z
-x,1/2+y,-z
-x,-y,-z
x,1/2+y,-z
-x,y,z
x,1/2-y,z
1/2+x,1/2+y,1/2+z
1/2-x,-y,1/2+z
1/2+x,1/2-y,1/2-z
1/2-x,y,1/2-z
1/2-x,1/2-y,1/2-z
1/2+x,y,1/2-z
1/2-x,1/2+y,1/2+z
1/2+x,-y,1/2+z
loop_
_atom_site_type_symbol
_atom_site_label
_atom_site_fract_x
_atom_site_fract_y
_atom_site_fract_z
Si Si1 0.929166 0.547580 0.187715
Si Si2 0.825748 0.959301 0.882481
Si Si3 0.000000 0.750000 0.881542
Si Si4 0.386416 0.044715 0.883323
Si Si5 0.277888 0.543573 0.881440
O O1 0.946096 0.750000 0.180992
O O2 0.873967 0.546099 0.155068
O O3 0.958801 0.406485 0.125773
O O4 0.925452 0.479300 0.303379
O O5 0.829335 0.750000 0.866123
O O6 0.773748 0.023967 0.843128
O O7 0.824116 0.000000 0.000000
O O8 0.390406 0.250000 0.876413
O O9 0.331933 0.001229 0.850250
O O10 0.392952 0.000000 0.000000
O O11 0.274443 0.750000 0.869048
O O12 0.278636 0.500000 0.000000
#
# Coordination Sequence:
#
# PCOD9538476 Si02
#       5
#    16  16   4  16  16
#     4  11  25  44  68  93 121 163 206 267 320 379
#     4  10  20  37  62  94 131 170 206 250 306 369
#     4  12  26  48  72  84 124 154 216 270 348 346
#     4  10  21  36  61  92 129 166 207 248 306 371
#     4   9  17  29  53  89 130 168 203 241 291 364
#
# _framework density 23.808102000000002
#
# number of rings (size 3 to 8) (size 9 to 14) (size 15 to 20)
#    0.000    1.882    1.176    3.882    3.294    3.765 
#    0.000    5.882    0.000    0.000    0.000    0.000 
#    0.000    0.000    0.000    0.000    0.000    0.000 
#
# Total GULP energy -189317.200164 kJ/mol
# GULP energy per Si atom -5568.152946 kJ/mol
# Density = 2.375391 g / cm^3
# Si number density = 23.808102 Si / 1000 Ang^3
#
#
#
# Elastic Constant Matrix: (Units=GPa)
#
#
# Indices 1 2 3 4 5 6 
#
# 1 76.3135 17.8062 14.3372 0.0000 0.0000 0.0000
# 2 17.8062 102.0726 2.0497 0.0000 0.0000 0.0000
# 3 14.3372 2.0497 43.1156 0.0000 0.0000 0.0000
# 4 0.0000 0.0000 0.0000 9.1734 0.0000 0.0000
# 5 0.0000 0.0000 0.0000 0.0000 -47.7459 0.0000
# 6 0.0000 0.0000 0.0000 0.0000 0.0000 -10.4417
#
#
#
# Elastic Compliance Matrix: (Units=1/GPa)
#
#
# Indices 1 2 3 4 5 6 
#
# 1 0.014562 -0.002445 -0.004726 0.000000 0.000000 0.000000
# 2 -0.002445 0.010217 0.000327 0.000000 0.000000 0.000000
# 3 -0.004726 0.000327 0.024749 0.000000 0.000000 0.000000
# 4 0.000000 0.000000 0.000000 0.109011 0.000000 0.000000
# 5 0.000000 0.000000 0.000000 0.000000 -0.020944 0.000000
# 6 0.000000 0.000000 0.000000 0.000000 0.000000 -0.095770
#
#
# Mechanical properties :
#
#
# Convention : Reuss Voigt Hill
#
# Bulk Modulus (GPa) = 27.90138 32.20978 30.05558
# Shear Modulus (GPa) = 74.11702 2.68440 38.40071
#
# Velocity S-wave (km/s) = 5.58557 1.06300 4.02048
# Velocity P-wave (km/s) = 7.30362 3.88135 5.84841
#
# Compressibility (1/GPa) = 0.03584053
#
# Stress axis : x y z
#
# Youngs Moduli (GPa) = 68.67026 97.87638 40.40492
#
# Poissons Ratio (x) = 0.23935 0.19096
# Poissons Ratio (y) = 0.16793 -0.01323
# Poissons Ratio (z) = 0.32455 -0.03205
#
# Static dielectric constant tensor:
#      x y z
#    x 1.916510 0.000000 0.000000 
#    y 0.000000 1.896520 0.000000 
#    z 0.000000 0.000000 2.125780 
# 
# From -- ./inp_files/36964.got.cif
#   From: 2010.05.17/outbox.cif.g08.bks.cpg/sg74_19_cif.got.tgz:36964.got - 2010.06.03 17:57:02.
