data_PCOD9538943
_publ_section_title
;
Structure prediction by ZEFSAII (Michael W. Deem and Ramdas Pophale) SiO2 
 PCOD9538943
Probable space group: I M M A
;
_chemical_formula_sum "Si O2"
_cell_formula_units_Z 100
_cell_length_a 23.386536
_cell_length_b 9.163380
_cell_length_c 24.493921
_cell_angle_alpha 90.000000
_cell_angle_beta 90.000000
_cell_angle_gamma 90.000000
_cell_volume 5249.040320
_symmetry_space_group_name_H-M "I M M A"
_symmetry_group_IT_number 74
_symmetry_cell_setting 'orthorhombic'
loop_
_space_group_symop_operation_xyz
x,y,z
-x,1/2-y,z
x,-y,-z
-x,1/2+y,-z
-x,-y,-z
x,1/2+y,-z
-x,y,z
x,1/2-y,z
1/2+x,1/2+y,1/2+z
1/2-x,-y,1/2+z
1/2+x,1/2-y,1/2-z
1/2-x,y,1/2-z
1/2-x,1/2-y,1/2-z
1/2+x,y,1/2-z
1/2-x,1/2+y,1/2+z
1/2+x,-y,1/2+z
loop_
_atom_site_type_symbol
_atom_site_label
_atom_site_fract_x
_atom_site_fract_y
_atom_site_fract_z
Si Si1 0.935083 0.424117 0.108154
Si Si2 0.265087 0.079347 0.667499
Si Si3 0.328071 0.579846 0.446106
Si Si4 0.353753 0.577117 0.837198
Si Si5 0.000000 0.250000 0.543610
Si Si6 0.118313 0.909857 0.447556
Si Si7 0.627231 0.422960 0.281037
O O1 0.929995 0.250000 0.098663
O O2 0.887640 0.506973 0.073059
O O3 0.919690 0.449132 0.172094
O O4 0.000000 0.468971 0.096477
O O5 0.254270 0.250000 0.679233
O O6 0.285074 0.065344 0.604615
O O7 0.209645 0.981298 0.675597
O O8 0.318088 0.018732 0.702315
O O9 0.306847 0.500000 0.500000
O O10 0.337156 0.750000 0.456976
O O11 0.353642 0.750000 0.846834
O O12 0.373769 0.494868 0.891225
O O13 0.389226 0.546848 0.781615
O O14 0.948642 0.373383 0.544960
O O15 0.147574 0.750000 0.444206
O O16 0.138689 0.000000 0.500000
O O17 0.642382 0.250000 0.283871
#
# Coordination Sequence:
#
# PCOD9538943 Si02
#       7
#    16  16  16  16   4  16  16
#     4   9  18  35  57  78 107 145 184 228 274 318
#     4  10  21  36  56  80 112 151 186 231 282 330
#     4  10  21  36  55  80 108 141 185 225 274 331
#     4  11  22  36  56  87 118 146 185 229 274 330
#     4   8  22  40  66  80 108 148 184 224 278 334
#     4  10  21  39  61  84 110 142 184 227 277 329
#     4   9  19  36  56  80 112 149 190 228 274 333
#
# _framework density 19.051102
#
# number of rings (size 3 to 8) (size 9 to 14) (size 15 to 20)
#    0.480    1.760    0.000    2.640    0.000    6.400 
#    1.440    1.600    0.000    0.000    0.000    0.000 
#    0.000    0.000    0.000    0.000    0.000    0.000 
#
# Total GULP energy -278424.081497 kJ/mol
# GULP energy per Si atom -5568.481630 kJ/mol
# Density = 1.900774 g / cm^3
# Si number density = 19.051102 Si / 1000 Ang^3
#
#
#
# Elastic Constant Matrix: (Units=GPa)
#
#
# Indices 1 2 3 4 5 6 
#
# 1 14.3626 -4.0648 -19.0734 0.0000 0.0000 0.0000
# 2 -4.0648 72.5627 43.6120 0.0000 0.0000 0.0000
# 3 -19.0734 43.6120 108.9516 0.0000 0.0000 0.0000
# 4 0.0000 0.0000 0.0000 18.8904 0.0000 0.0000
# 5 0.0000 0.0000 0.0000 0.0000 -0.1739 0.0000
# 6 0.0000 0.0000 0.0000 0.0000 0.0000 30.0094
#
#
#
# Elastic Compliance Matrix: (Units=1/GPa)
#
#
# Indices 1 2 3 4 5 6 
#
# 1 0.092659 -0.006003 0.018624 0.000000 0.000000 0.000000
# 2 -0.006003 0.018536 -0.008471 0.000000 0.000000 0.000000
# 3 0.018624 -0.008471 0.015829 0.000000 0.000000 0.000000
# 4 0.000000 0.000000 0.000000 0.052937 0.000000 0.000000
# 5 0.000000 0.000000 0.000000 0.000000 -5.749766 0.000000
# 6 0.000000 0.000000 0.000000 0.000000 0.000000 0.033323
#
#
# Mechanical properties :
#
#
# Convention : Reuss Voigt Hill
#
# Bulk Modulus (GPa) = 7.38958 26.31384 16.85171
# Shear Modulus (GPa) = -0.90914 21.43873 10.26479
#
# Velocity S-wave (km/s) = -0.69156 3.35823 2.32373
# Velocity P-wave (km/s) = 1.80266 5.37393 4.00804
#
# Compressibility (1/GPa) = 0.13532576
#
# Stress axis : x y z
#
# Youngs Moduli (GPa) = 10.79221 53.94915 63.17325
#
# Poissons Ratio (x) = 0.32386 -1.17655
# Poissons Ratio (y) = 0.06479 0.53512
# Poissons Ratio (z) = -0.20100 0.45698
#
# Static dielectric constant tensor:
#      x y z
#    x 1.635340 0.000000 0.000000 
#    y 0.000000 1.659600 0.000000 
#    z 0.000000 0.000000 1.687220 
# 
# From -- ./inp_files/55218.got.cif
#   From: 2010.05.17/outbox.cif.g08.bks.cpg/sg74_28_cif.got.tgz:55218.got - 2010.06.03 17:57:02.
