data_PCOD9538709
_publ_section_title
;
Structure prediction by ZEFSAII (Michael W. Deem and Ramdas Pophale) SiO2 
 PCOD9538709
Probable space group: I M M A
;
_chemical_formula_sum "Si O2"
_cell_formula_units_Z 72
_cell_length_a 17.739913
_cell_length_b 9.090578
_cell_length_c 23.795888
_cell_angle_alpha 90.000000
_cell_angle_beta 90.000000
_cell_angle_gamma 90.000000
_cell_volume 3837.469170
_symmetry_space_group_name_H-M "I M M A"
_symmetry_group_IT_number 74
_symmetry_cell_setting 'orthorhombic'
loop_
_space_group_symop_operation_xyz
x,y,z
-x,1/2-y,z
x,-y,-z
-x,1/2+y,-z
-x,-y,-z
x,1/2+y,-z
-x,y,z
x,1/2-y,z
1/2+x,1/2+y,1/2+z
1/2-x,-y,1/2+z
1/2+x,1/2-y,1/2-z
1/2-x,y,1/2-z
1/2-x,1/2-y,1/2-z
1/2+x,y,1/2-z
1/2-x,1/2+y,1/2+z
1/2+x,-y,1/2+z
loop_
_atom_site_type_symbol
_atom_site_label
_atom_site_fract_x
_atom_site_fract_y
_atom_site_fract_z
Si Si1 0.866833 0.922375 0.875813
Si Si2 0.000000 0.076659 0.939938
Si Si3 0.290085 0.574672 0.939560
Si Si4 0.661481 0.575752 0.753638
Si Si5 0.088698 0.074365 0.639199
O O1 0.884144 0.750000 0.886741
O O2 0.783222 0.949568 0.900148
O O3 0.869738 0.945447 0.809011
O O4 0.926658 0.023038 0.906655
O O5 0.000000 0.250000 0.946736
O O6 0.000000 0.000000 0.000000
O O7 0.299560 0.750000 0.945945
O O8 0.361632 0.504521 0.908369
O O9 0.278297 0.500000 0.000000
O O10 0.656640 0.750000 0.767934
O O11 0.750000 0.538049 0.750000
O O12 0.619089 0.484479 0.801046
O O13 0.098872 0.250000 0.635693
O O14 0.000000 0.041406 0.633605
#
# Coordination Sequence:
#
# PCOD9538709 Si02
#       5
#    16   8  16  16  16
#     4  10  22  41  65  93 125 162 207 255 309 372
#     4  12  26  42  62  90 128 168 211 256 309 368
#     4  11  23  42  67  93 121 160 209 258 313 374
#     4  10  20  40  66  93 122 158 204 251 306 368
#     4  11  25  42  61  92 130 166 208 257 309 367
#
# _framework density 18.762364999999999
#
# number of rings (size 3 to 8) (size 9 to 14) (size 15 to 20)
#    0.000    1.333    2.222    3.000    1.556    7.111 
#    0.000    0.000    0.000    0.000    0.000    0.000 
#    0.000    0.000    0.000    0.000    0.000    0.000 
#
# Total GULP energy -201314.087515 kJ/mol
# GULP energy per Si atom -5592.057987 kJ/mol
# Density = 1.871966 g / cm^3
# Si number density = 18.762365 Si / 1000 Ang^3
#
#
#
# Elastic Constant Matrix: (Units=GPa)
#
#
# Indices 1 2 3 4 5 6 
#
# 1 74.4768 48.9836 7.2411 0.0000 0.0000 0.0000
# 2 48.9836 78.3579 35.4939 0.0000 0.0000 0.0000
# 3 7.2411 35.4939 61.9780 0.0000 0.0000 0.0000
# 4 0.0000 0.0000 0.0000 36.9297 0.0000 0.0000
# 5 0.0000 0.0000 0.0000 0.0000 12.2857 0.0000
# 6 0.0000 0.0000 0.0000 0.0000 0.0000 44.9348
#
#
#
# Elastic Compliance Matrix: (Units=1/GPa)
#
#
# Indices 1 2 3 4 5 6 
#
# 1 0.025649 -0.019817 0.008352 0.000000 0.000000 0.000000
# 2 -0.019817 0.032543 -0.016322 0.000000 0.000000 0.000000
# 3 0.008352 -0.016322 0.024506 0.000000 0.000000 0.000000
# 4 0.000000 0.000000 0.000000 0.027078 0.000000 0.000000
# 5 0.000000 0.000000 0.000000 0.000000 0.081395 0.000000
# 6 0.000000 0.000000 0.000000 0.000000 0.000000 0.022254
#
#
# Mechanical properties :
#
#
# Convention : Reuss Voigt Hill
#
# Bulk Modulus (GPa) = 36.86616 44.24999 40.55808
# Shear Modulus (GPa) = 17.98295 27.03633 22.50964
#
# Velocity S-wave (km/s) = 3.09926 3.80015 3.46746
# Velocity P-wave (km/s) = 5.70078 6.54909 6.13960
#
# Compressibility (1/GPa) = 0.02712514
#
# Stress axis : x y z
#
# Youngs Moduli (GPa) = 38.98851 30.72820 40.80596
#
# Poissons Ratio (x) = 0.60894 -0.34082
# Poissons Ratio (y) = 0.77263 0.66603
# Poissons Ratio (z) = -0.32564 0.50154
#
# Static dielectric constant tensor:
#      x y z
#    x 1.628560 0.000000 0.000000 
#    y 0.000000 1.623510 0.000000 
#    z 0.000000 0.000000 1.635590 
# 
# From -- ./inp_files/60587.got.cif
#   From: 2010.05.17/outbox.cif.g08.bks.cpg/sg74_31_cif.got.tgz:60587.got - 2010.06.03 17:57:02.
