data_PCOD9538957
_publ_section_title
;
Structure prediction by ZEFSAII (Michael W. Deem and Ramdas Pophale) SiO2 
 PCOD9538957
Probable space group: I M M A
;
_chemical_formula_sum "Si O2"
_cell_formula_units_Z 88
_cell_length_a 20.748834
_cell_length_b 13.877817
_cell_length_c 15.224930
_cell_angle_alpha 90.000000
_cell_angle_beta 90.000000
_cell_angle_gamma 90.000000
_cell_volume 4383.996079
_symmetry_space_group_name_H-M "I M M A"
_symmetry_group_IT_number 74
_symmetry_cell_setting 'orthorhombic'
loop_
_space_group_symop_operation_xyz
x,y,z
-x,1/2-y,z
x,-y,-z
-x,1/2+y,-z
-x,-y,-z
x,1/2+y,-z
-x,y,z
x,1/2-y,z
1/2+x,1/2+y,1/2+z
1/2-x,-y,1/2+z
1/2+x,1/2-y,1/2-z
1/2-x,y,1/2-z
1/2-x,1/2-y,1/2-z
1/2+x,y,1/2-z
1/2-x,1/2+y,1/2+z
1/2+x,-y,1/2+z
loop_
_atom_site_type_symbol
_atom_site_label
_atom_site_fract_x
_atom_site_fract_y
_atom_site_fract_z
Si Si1 0.198927 0.548692 0.683841
Si Si2 0.927146 0.863584 0.751731
Si Si3 0.178672 0.500000 0.500000
Si Si4 0.071253 0.861684 0.420800
Si Si5 0.361459 0.140712 0.742559
Si Si6 0.924171 0.477956 0.902019
O O1 0.250000 0.595607 0.750000
O O2 0.130006 0.602324 0.688185
O O3 0.218724 0.538535 0.582819
O O4 0.185718 0.441963 0.722375
O O5 0.921944 0.750000 0.769235
O O6 0.000000 0.882318 0.717750
O O7 0.918884 0.928167 0.839162
O O8 0.129910 0.419274 0.537008
O O9 0.075012 0.750000 0.447608
O O10 0.081474 0.864193 0.315291
O O11 0.000000 0.898488 0.442761
O O12 0.336882 0.250000 0.742213
O O13 0.386706 0.106121 0.648552
O O14 0.000000 0.452837 0.907049
O O15 0.901172 0.500000 0.000000
#
# Coordination Sequence:
#
# PCOD9538957 Si02
#       6
#    16  16   8  16  16  16
#     4  10  22  40  58  84 113 153 192 238 286 349
#     4   9  19  37  59  83 116 154 190 234 290 348
#     4  10  21  36  56  76 109 150 188 230 280 334
#     4   9  17  30  52  84 116 143 178 225 280 347
#     4   9  18  33  53  77 108 146 188 236 291 344
#     4   9  17  29  48  77 113 151 193 239 285 337
#
# _framework density 20.07301
#
# number of rings (size 3 to 8) (size 9 to 14) (size 15 to 20)
#    0.000    2.727    0.000    0.818    0.000    8.364 
#    6.545    3.636    0.000    0.000    0.000    0.000 
#    0.000    0.000    0.000    0.000    0.000    0.000 
#
# Total GULP energy -245357.259736 kJ/mol
# GULP energy per Si atom -5576.301358 kJ/mol
# Density = 2.002732 g / cm^3
# Si number density = 20.073010 Si / 1000 Ang^3
#
#
#
# Elastic Constant Matrix: (Units=GPa)
#
#
# Indices 1 2 3 4 5 6 
#
# 1 49.2549 10.4421 19.9035 0.0000 0.0000 0.0000
# 2 10.4421 63.5961 -7.1460 0.0000 0.0000 0.0000
# 3 19.9035 -7.1460 109.3525 0.0000 0.0000 0.0000
# 4 0.0000 0.0000 0.0000 16.6063 0.0000 0.0000
# 5 0.0000 0.0000 0.0000 0.0000 16.0212 0.0000
# 6 0.0000 0.0000 0.0000 0.0000 0.0000 5.5737
#
#
#
# Elastic Compliance Matrix: (Units=1/GPa)
#
#
# Indices 1 2 3 4 5 6 
#
# 1 0.023016 -0.004281 -0.004469 0.000000 0.000000 0.000000
# 2 -0.004281 0.016637 0.001866 0.000000 0.000000 0.000000
# 3 -0.004469 0.001866 0.010080 0.000000 0.000000 0.000000
# 4 0.000000 0.000000 0.000000 0.060218 0.000000 0.000000
# 5 0.000000 0.000000 0.000000 0.000000 0.062417 0.000000
# 6 0.000000 0.000000 0.000000 0.000000 0.000000 0.179413
#
#
# Mechanical properties :
#
#
# Convention : Reuss Voigt Hill
#
# Bulk Modulus (GPa) = 27.80442 29.84474 28.82458
# Shear Modulus (GPa) = 13.24372 20.90718 17.07545
#
# Velocity S-wave (km/s) = 2.57140 3.23082 2.91978
# Velocity P-wave (km/s) = 4.76423 5.36823 5.07522
#
# Compressibility (1/GPa) = 0.03596550
#
# Stress axis : x y z
#
# Youngs Moduli (GPa) = 43.44795 60.10729 99.20521
#
# Poissons Ratio (x) = 0.25733 0.44335
# Poissons Ratio (y) = 0.18601 -0.18516
# Poissons Ratio (z) = 0.19417 -0.11219
#
# Static dielectric constant tensor:
#      x y z
#    x 1.742990 0.000000 0.000000 
#    y 0.000000 1.705900 0.000000 
#    z 0.000000 0.000000 1.735760 
# 
# From -- ./inp_files/36359.got.cif
#   From: 2010.05.17/outbox.cif.g08.bks.cpg/sg74_19_cif.got.tgz:36359.got - 2010.06.03 17:57:02.
