data_PCOD9538944
_publ_section_title
;
Structure prediction by ZEFSAII (Michael W. Deem and Ramdas Pophale) SiO2 
 PCOD9538944
Probable space group: I M M A
;
_chemical_formula_sum "Si O2"
_cell_formula_units_Z 88
_cell_length_a 8.929338
_cell_length_b 31.355558
_cell_length_c 17.766958
_cell_angle_alpha 90.000000
_cell_angle_beta 90.000000
_cell_angle_gamma 90.000000
_cell_volume 4974.470641
_symmetry_space_group_name_H-M "I M M A"
_symmetry_group_IT_number 74
_symmetry_cell_setting 'orthorhombic'
loop_
_space_group_symop_operation_xyz
x,y,z
-x,1/2-y,z
x,-y,-z
-x,1/2+y,-z
-x,-y,-z
x,1/2+y,-z
-x,y,z
x,1/2-y,z
1/2+x,1/2+y,1/2+z
1/2-x,-y,1/2+z
1/2+x,1/2-y,1/2-z
1/2-x,y,1/2-z
1/2-x,1/2-y,1/2-z
1/2+x,y,1/2-z
1/2-x,1/2+y,1/2+z
1/2+x,-y,1/2+z
loop_
_atom_site_type_symbol
_atom_site_label
_atom_site_fract_x
_atom_site_fract_y
_atom_site_fract_z
Si Si1 0.178324 0.918601 0.673766
Si Si2 0.179400 0.298732 0.667103
Si Si3 0.826350 0.165474 0.114023
Si Si4 0.177627 0.250000 0.332282
Si Si5 0.673045 0.132741 0.557310
Si Si6 0.677853 0.951032 0.522654
O O1 0.250000 0.936793 0.750000
O O2 0.247524 0.871618 0.661389
O O3 0.231093 0.942856 0.598769
O O4 0.000000 0.917092 0.679348
O O5 0.219536 0.250000 0.641357
O O6 0.250000 0.304065 0.750000
O O7 0.236920 0.336148 0.612390
O O8 0.000000 0.300709 0.672205
O O9 0.737636 0.208581 0.125756
O O10 0.000000 0.169844 0.136961
O O11 0.822316 0.152336 0.026653
O O12 0.250000 0.250000 0.250000
O O13 0.000000 0.250000 0.326973
O O14 0.500000 0.131915 0.583034
O O15 0.723066 0.083715 0.541287
O O16 0.500000 0.942508 0.537259
O O17 0.694096 0.000000 0.500000
#
# Coordination Sequence:
#
# PCOD9538944 Si02
#       6
#    16  16  16   8  16  16
#     4  11  21  35  56  81 109 142 182 226 272 325
#     4  10  21  36  55  80 110 146 186 231 279 332
#     4  10  21  37  54  76 106 143 183 222 269 320
#     4  12  24  36  50  72 105 142 181 224 268 312
#     4   9  19  35  57  82 108 141 178 221 273 329
#     4   9  19  38  61  84 112 145 182 228 282 338
#
# _framework density 17.690324
#
# number of rings (size 3 to 8) (size 9 to 14) (size 15 to 20)
#    0.000    2.000    0.000    5.182    1.273    5.091 
#    0.000    0.909    0.000    0.000    0.000    0.000 
#    0.000    0.000    0.000    0.000    0.000    0.000 
#
# Total GULP energy -245532.477684 kJ/mol
# GULP energy per Si atom -5580.283584 kJ/mol
# Density = 1.765006 g / cm^3
# Si number density = 17.690324 Si / 1000 Ang^3
#
#
#
# Elastic Constant Matrix: (Units=GPa)
#
#
# Indices 1 2 3 4 5 6 
#
# 1 128.8736 58.6650 47.4158 0.0000 0.0000 0.0000
# 2 58.6650 122.4056 47.5030 0.0000 0.0000 0.0000
# 3 47.4158 47.5030 72.0997 0.0003 0.0000 0.0000
# 4 0.0000 0.0000 0.0003 4.7918 0.0000 0.0000
# 5 0.0000 0.0000 0.0000 0.0000 34.1729 0.0000
# 6 0.0000 0.0000 0.0000 0.0000 0.0000 24.3857
#
#
#
# Elastic Compliance Matrix: (Units=1/GPa)
#
#
# Indices 1 2 3 4 5 6 
#
# 1 0.011181 -0.003366 -0.005136 0.000000 0.000000 0.000000
# 2 -0.003366 0.011989 -0.005686 0.000000 0.000000 0.000000
# 3 -0.005136 -0.005686 0.020993 -0.000001 0.000000 0.000000
# 4 0.000000 0.000000 -0.000001 0.208690 0.000000 0.000000
# 5 0.000000 0.000000 0.000000 0.000000 0.029263 0.000000
# 6 0.000000 0.000000 0.000000 0.000000 0.000000 0.041008
#
#
# Mechanical properties :
#
#
# Convention : Reuss Voigt Hill
#
# Bulk Modulus (GPa) = 63.33386 70.06073 66.69729
# Shear Modulus (GPa) = 14.01499 23.98976 19.00238
#
# Velocity S-wave (km/s) = 2.81773 3.68651 3.28101
# Velocity P-wave (km/s) = 6.81654 7.60332 7.22066
#
# Compressibility (1/GPa) = 0.01578934
#
# Stress axis : x y z
#
# Youngs Moduli (GPa) = 89.43561 83.40914 47.63463
#
# Poissons Ratio (x) = 0.28073 0.24464
# Poissons Ratio (y) = 0.30102 0.27083
# Poissons Ratio (z) = 0.45932 0.47423
#
# Static dielectric constant tensor:
#      x y z
#    x 1.593860 0.000000 0.000000 
#    y 0.000000 1.634190 0.000000 
#    z 0.000000 0.000000 1.580870 
# 
# From -- ./inp_files/40062.got.cif
#   From: 2010.05.17/outbox.cif.g08.bks.cpg/sg74_21_cif.got.tgz:40062.got - 2010.06.03 17:57:02.
