data_PCOD9538844
_publ_section_title
;
Structure prediction by ZEFSAII (Michael W. Deem and Ramdas Pophale) SiO2 
 PCOD9538844
Probable space group: I M M A
;
_chemical_formula_sum "Si O2"
_cell_formula_units_Z 112
_cell_length_a 30.308609
_cell_length_b 14.632621
_cell_length_c 12.017639
_cell_angle_alpha 90.000000
_cell_angle_beta 90.000000
_cell_angle_gamma 90.000000
_cell_volume 5329.755460
_symmetry_space_group_name_H-M "I M M A"
_symmetry_group_IT_number 74
_symmetry_cell_setting 'orthorhombic'
loop_
_space_group_symop_operation_xyz
x,y,z
-x,1/2-y,z
x,-y,-z
-x,1/2+y,-z
-x,-y,-z
x,1/2+y,-z
-x,y,z
x,1/2-y,z
1/2+x,1/2+y,1/2+z
1/2-x,-y,1/2+z
1/2+x,1/2-y,1/2-z
1/2-x,y,1/2-z
1/2-x,1/2-y,1/2-z
1/2+x,y,1/2-z
1/2-x,1/2+y,1/2+z
1/2+x,-y,1/2+z
loop_
_atom_site_type_symbol
_atom_site_label
_atom_site_fract_x
_atom_site_fract_y
_atom_site_fract_z
Si Si1 0.952460 0.897290 0.854325
Si Si2 0.586878 0.148839 0.564355
Si Si3 0.451020 0.587729 0.223235
Si Si4 0.294546 0.040617 0.318497
Si Si5 0.550940 0.360295 0.025568
Si Si6 0.190187 0.641672 0.046527
Si Si7 0.874577 0.147176 0.291204
O O1 0.909412 0.847196 0.809592
O O2 0.000000 0.853577 0.835128
O O3 0.952234 0.989290 0.781383
O O4 0.944457 0.909195 0.985117
O O5 0.572928 0.250000 0.535260
O O6 0.582134 0.138887 0.696240
O O7 0.637434 0.133368 0.536280
O O8 0.500000 0.628833 0.234988
O O9 0.441304 0.591690 0.093093
O O10 0.250000 0.051223 0.250000
O O11 0.292102 0.104535 0.428551
O O12 0.336609 0.076196 0.245691
O O13 0.297955 0.935141 0.361039
O O14 0.500000 0.384960 0.062211
O O15 0.550383 0.250000 0.010189
O O16 0.592276 0.378340 0.107042
O O17 0.200577 0.750000 0.066524
O O18 0.856402 0.250000 0.310743
#
# Coordination Sequence:
#
# PCOD9538844 Si02
#       7
#    16  16  16  16  16  16  16
#     4  11  22  34  54  89 130 172 221 270 323 394
#     4  11  21  35  59  90 124 168 215 265 331 400
#     4  10  21  35  53  82 126 178 226 274 328 391
#     4  11  24  44  73 103 133 174 224 277 345 415
#     4   9  19  37  60  88 127 177 231 281 333 398
#     4  10  23  45  72 102 138 173 212 273 347 414
#     4  11  22  39  64  94 130 175 225 280 336 391
#
# _framework density 21.014095999999999
#
# number of rings (size 3 to 8) (size 9 to 14) (size 15 to 20)
#    0.000    1.571    1.429    3.429    2.000    6.286 
#    0.000    7.857    0.000    0.000    0.000    1.000 
#    0.000    1.143    0.000    0.000    0.000    0.000 
#
# Total GULP energy -312307.832122 kJ/mol
# GULP energy per Si atom -5576.925574 kJ/mol
# Density = 2.096627 g / cm^3
# Si number density = 21.014096 Si / 1000 Ang^3
#
#
#
# Elastic Constant Matrix: (Units=GPa)
#
#
# Indices 1 2 3 4 5 6 
#
# 1 117.4018 70.5810 71.6619 0.0000 0.0000 0.0000
# 2 70.5810 119.1475 49.8922 0.0000 0.0000 0.0000
# 3 71.6619 49.8922 135.1624 0.0000 0.0000 0.0000
# 4 0.0000 0.0000 0.0000 23.6800 0.0000 0.0000
# 5 0.0000 0.0000 0.0000 0.0000 55.7537 0.0000
# 6 0.0000 0.0000 0.0000 0.0000 0.0000-2040.1217
#
#
#
# Elastic Compliance Matrix: (Units=1/GPa)
#
#
# Indices 1 2 3 4 5 6 
#
# 1 0.016646 -0.007292 -0.006134 0.000000 0.000000 0.000000
# 2 -0.007292 0.013122 -0.000977 0.000000 0.000000 0.000000
# 3 -0.006134 -0.000977 0.011011 0.000000 0.000000 0.000000
# 4 0.000000 0.000000 0.000000 0.042230 0.000000 0.000000
# 5 0.000000 0.000000 0.000000 0.000000 0.017936 0.000000
# 6 0.000000 0.000000 0.000000 0.000000 0.000000 -0.000490
#
#
# Mechanical properties :
#
#
# Convention : Reuss Voigt Hill
#
# Bulk Modulus (GPa) = 83.52505 83.99799 83.76152
# Shear Modulus (GPa) = 37.52285 -380.16581 -171.32148
#
# Velocity S-wave (km/s) = 4.23022 -13.46487 -9.03902
# Velocity P-wave (km/s) = 7.98080 14.20133 8.30616
#
# Compressibility (1/GPa) = 0.01197246
#
# Stress axis : x y z
#
# Youngs Moduli (GPa) = 60.07530 76.20759 90.81562
#
# Poissons Ratio (x) = 0.55572 0.55703
# Poissons Ratio (y) = 0.43808 0.08877
# Poissons Ratio (z) = 0.36848 0.07449
#
# Static dielectric constant tensor:
#      x y z
#    x 1.712410 0.000000 0.000000 
#    y 0.000000 1.958550 0.000000 
#    z 0.000000 0.000000 1.803100 
# 
# From -- ./inp_files/27190.got.cif
#   From: 2010.05.17/outbox.cif.g08.bks.cpg/sg74_14_cif.got.tgz:27190.got - 2010.06.03 17:57:02.
