data_PCOD9538873
_publ_section_title
;
Structure prediction by ZEFSAII (Michael W. Deem and Ramdas Pophale) SiO2 
 PCOD9538873
Probable space group: I M M A
;
_chemical_formula_sum "Si O2"
_cell_formula_units_Z 80
_cell_length_a 14.761966
_cell_length_b 22.101924
_cell_length_c 12.023938
_cell_angle_alpha 90.000000
_cell_angle_beta 90.000000
_cell_angle_gamma 90.000000
_cell_volume 3923.024407
_symmetry_space_group_name_H-M "I M M A"
_symmetry_group_IT_number 74
_symmetry_cell_setting 'orthorhombic'
loop_
_space_group_symop_operation_xyz
x,y,z
-x,1/2-y,z
x,-y,-z
-x,1/2+y,-z
-x,-y,-z
x,1/2+y,-z
-x,y,z
x,1/2-y,z
1/2+x,1/2+y,1/2+z
1/2-x,-y,1/2+z
1/2+x,1/2-y,1/2-z
1/2-x,y,1/2-z
1/2-x,1/2-y,1/2-z
1/2+x,y,1/2-z
1/2-x,1/2+y,1/2+z
1/2+x,-y,1/2+z
loop_
_atom_site_type_symbol
_atom_site_label
_atom_site_fract_x
_atom_site_fract_y
_atom_site_fract_z
Si Si1 0.653354 0.990527 0.811132
Si Si2 0.758349 0.180673 0.628498
Si Si3 0.107563 0.593873 0.488716
Si Si4 0.100699 0.548964 0.917909
Si Si5 0.391115 0.183192 0.453569
O O1 0.750000 0.997047 0.750000
O O2 0.593804 0.979792 0.702740
O O3 0.623268 0.045618 0.889068
O O4 0.644691 0.934541 0.896541
O O5 0.787198 0.250000 0.643202
O O6 0.750000 0.151480 0.750000
O O7 0.830772 0.149373 0.548937
O O8 0.660038 0.180104 0.571311
O O9 0.000000 0.605423 0.499372
O O10 0.136421 0.617724 0.902783
O O11 0.000000 0.557655 0.967315
O O12 0.149016 0.500000 0.000000
O O13 0.500000 0.184567 0.459955
O O14 0.364401 0.250000 0.404927
#
# Coordination Sequence:
#
# PCOD9538873 Si02
#       5
#    16  16  16  16  16
#     4  11  23  38  61  86 122 159 204 256 316 374
#     4  10  22  39  59  87 121 161 213 262 308 373
#     4  11  24  41  61  88 128 171 208 257 321 387
#     4  10  21  35  57  87 117 151 198 251 304 369
#     4   9  19  37  60  87 121 156 197 255 319 374
#
# _framework density 20.392429
#
# number of rings (size 3 to 8) (size 9 to 14) (size 15 to 20)
#    0.000    1.800    0.000    4.200    8.400    1.200 
#    0.000    3.000    0.000    6.000    0.000    0.000 
#    0.000    0.000    0.000    0.000    0.000    0.000 
#
# Total GULP energy -222693.099231 kJ/mol
# GULP energy per Si atom -5567.327481 kJ/mol
# Density = 2.034602 g / cm^3
# Si number density = 20.392429 Si / 1000 Ang^3
#
#
#
# Elastic Constant Matrix: (Units=GPa)
#
#
# Indices 1 2 3 4 5 6 
#
# 1 69.0407 8.6783 3.8437 0.0000 0.0001 0.0000
# 2 8.6783 104.3633 37.8678 0.0000 0.0002 0.0000
# 3 3.8437 37.8678 108.0582 -0.0002 0.0007 0.0001
# 4 0.0000 0.0000 -0.0002 22.3315 0.0004 0.0000
# 5 0.0001 0.0002 0.0007 0.0004 91.0807 0.0000
# 6 0.0000 0.0000 0.0001 0.0000 0.0000 4.7759
#
#
#
# Elastic Compliance Matrix: (Units=1/GPa)
#
#
# Indices 1 2 3 4 5 6 
#
# 1 0.014638 -0.001178 -0.000108 0.000000 0.000000 0.000000
# 2 -0.001178 0.011073 -0.003838 0.000000 0.000000 0.000000
# 3 -0.000108 -0.003838 0.010603 0.000000 0.000000 0.000000
# 4 0.000000 0.000000 0.000000 0.044780 0.000000 0.000000
# 5 0.000000 0.000000 0.000000 0.000000 0.010979 0.000000
# 6 0.000000 0.000000 0.000000 0.000000 0.000000 0.209384
#
#
# Mechanical properties :
#
#
# Convention : Reuss Voigt Hill
#
# Bulk Modulus (GPa) = 38.36490 42.47132 40.41811
# Shear Modulus (GPa) = 15.60574 39.04245 27.32410
#
# Velocity S-wave (km/s) = 2.76936 4.38031 3.66445
# Velocity P-wave (km/s) = 5.39258 6.81579 6.14553
#
# Compressibility (1/GPa) = 0.02606549
#
# Stress axis : x y z
#
# Youngs Moduli (GPa) = 68.31394 90.31292 94.31089
#
# Poissons Ratio (x) = 0.10640 0.01017
# Poissons Ratio (y) = 0.08048 0.36200
# Poissons Ratio (z) = 0.00737 0.34665
#
# Static dielectric constant tensor:
#      x y z
#    x 1.822880 0.000000 0.000000 
#    y 0.000000 1.815240 0.000000 
#    z 0.000000 0.000000 1.699690 
# 
# From -- ./inp_files/20497.got.cif
#   From: 2010.05.17/outbox.cif.g08.bks.cpg/sg74_11_cif.got.tgz:20497.got - 2010.06.03 17:57:02.
