data_PCOD9538518
_publ_section_title
;
Structure prediction by ZEFSAII (Michael W. Deem and Ramdas Pophale) SiO2 
 PCOD9538518
Probable space group: I M M A
;
_chemical_formula_sum "Si O2"
_cell_formula_units_Z 88
_cell_length_a 27.734452
_cell_length_b 8.726391
_cell_length_c 19.670824
_cell_angle_alpha 90.000000
_cell_angle_beta 90.000000
_cell_angle_gamma 90.000000
_cell_volume 4760.765720
_symmetry_space_group_name_H-M "I M M A"
_symmetry_group_IT_number 74
_symmetry_cell_setting 'orthorhombic'
loop_
_space_group_symop_operation_xyz
x,y,z
-x,1/2-y,z
x,-y,-z
-x,1/2+y,-z
-x,-y,-z
x,1/2+y,-z
-x,y,z
x,1/2-y,z
1/2+x,1/2+y,1/2+z
1/2-x,-y,1/2+z
1/2+x,1/2-y,1/2-z
1/2-x,y,1/2-z
1/2-x,1/2-y,1/2-z
1/2+x,y,1/2-z
1/2-x,1/2+y,1/2+z
1/2+x,-y,1/2+z
loop_
_atom_site_type_symbol
_atom_site_label
_atom_site_fract_x
_atom_site_fract_y
_atom_site_fract_z
Si Si1 0.379939 0.066086 0.806946
Si Si2 0.500000 0.936050 0.423676
Si Si3 0.273707 0.567601 0.823546
Si Si4 0.402659 0.063759 0.653632
Si Si5 0.305173 0.065829 0.575570
Si Si6 0.057252 0.431915 0.427577
O O1 0.378173 0.250000 0.806677
O O2 0.397272 0.014188 0.731915
O O3 0.326968 0.001614 0.822101
O O4 0.415488 0.008605 0.865224
O O5 0.500000 0.750000 0.426666
O O6 0.451828 0.985567 0.383264
O O7 0.500000 0.000000 0.500000
O O8 0.276073 0.750000 0.833912
O O9 0.250000 0.537539 0.750000
O O10 0.239538 0.493726 0.880194
O O11 0.403263 0.250000 0.653935
O O12 0.355036 0.016324 0.612184
O O13 0.304357 0.250000 0.573680
O O14 0.303459 0.000000 0.500000
O O15 0.073353 0.500000 0.500000
O O16 0.065277 0.250000 0.427120
O O17 0.000000 0.460750 0.421532
#
# Coordination Sequence:
#
# PCOD9538518 Si02
#       6
#    16   8  16  16  16  16
#     4  11  22  38  63  92 121 159 201 247 299 360
#     4  10  20  38  58  84 119 158 199 242 289 346
#     4  11  23  40  61  87 119 156 197 248 303 357
#     4   9  20  36  59  87 120 158 198 241 293 351
#     4  11  22  39  61  89 121 158 202 246 296 356
#     4  10  22  41  63  90 124 160 199 246 299 357
#
# _framework density 18.484421999999999
#
# number of rings (size 3 to 8) (size 9 to 14) (size 15 to 20)
#    0.000    1.636    1.818    2.727    1.273    2.545 
#    0.000    6.364    0.000    0.000    0.000    0.000 
#    0.000    0.000    0.000    0.000    0.000    0.000 
#
# Total GULP energy -245889.467444 kJ/mol
# GULP energy per Si atom -5588.396987 kJ/mol
# Density = 1.844235 g / cm^3
# Si number density = 18.484422 Si / 1000 Ang^3
#
#
#
# Elastic Constant Matrix: (Units=GPa)
#
#
# Indices 1 2 3 4 5 6 
#
# 1 104.7443 43.4938 95.8779 0.0000 0.0000 0.0000
# 2 43.4938 49.6323 64.4468 0.0000 0.0000 0.0000
# 3 95.8779 64.4468 204.9024 0.0000 0.0000 0.0000
# 4 0.0000 0.0000 0.0000 29.8544 0.0000 0.0000
# 5 0.0000 0.0000 0.0000 0.0000 3.7967 0.0000
# 6 0.0000 0.0000 0.0000 0.0000 0.0000 8.4820
#
#
#
# Elastic Compliance Matrix: (Units=1/GPa)
#
#
# Indices 1 2 3 4 5 6 
#
# 1 0.018580 -0.008440 -0.006039 0.000000 0.000000 0.000000
# 2 -0.008440 0.037891 -0.007969 0.000000 0.000000 0.000000
# 3 -0.006039 -0.007969 0.010213 0.000000 0.000000 0.000000
# 4 0.000000 0.000000 0.000000 0.033496 0.000000 0.000000
# 5 0.000000 0.000000 0.000000 0.000000 0.263387 0.000000
# 6 0.000000 0.000000 0.000000 0.000000 0.000000 0.117896
#
#
# Mechanical properties :
#
#
# Convention : Reuss Voigt Hill
#
# Bulk Modulus (GPa) = 45.89650 85.21288 65.55469
# Shear Modulus (GPa) = 9.36995 18.79066 14.08031
#
# Velocity S-wave (km/s) = 2.25391 3.19182 2.76296
# Velocity P-wave (km/s) = 5.62647 7.73198 6.76169
#
# Compressibility (1/GPa) = 0.02178815
#
# Stress axis : x y z
#
# Youngs Moduli (GPa) = 53.82232 26.39134 97.91861
#
# Poissons Ratio (x) = 0.22274 0.59136
# Poissons Ratio (y) = 0.45425 0.78027
# Poissons Ratio (z) = 0.32505 0.21030
#
# Static dielectric constant tensor:
#      x y z
#    x 1.621410 0.000000 0.000000 
#    y 0.000000 1.623340 0.000000 
#    z 0.000000 0.000000 1.605990 
# 
# From -- ./inp_files/47030.got.cif
#   From: 2010.05.17/outbox.cif.g08.bks.cpg/sg74_24_cif.got.tgz:47030.got - 2010.06.03 17:57:02.
