data_PCOD9538250
_publ_section_title
;
Structure prediction by ZEFSAII (Michael W. Deem and Ramdas Pophale) SiO2 
 PCOD9538250
Probable space group: I M M A
;
_chemical_formula_sum "Si O2"
_cell_formula_units_Z 104
_cell_length_a 22.724271
_cell_length_b 8.647169
_cell_length_c 27.737989
_cell_angle_alpha 90.000000
_cell_angle_beta 90.000000
_cell_angle_gamma 90.000000
_cell_volume 5450.531807
_symmetry_space_group_name_H-M "I M M A"
_symmetry_group_IT_number 74
_symmetry_cell_setting 'orthorhombic'
loop_
_space_group_symop_operation_xyz
x,y,z
-x,1/2-y,z
x,-y,-z
-x,1/2+y,-z
-x,-y,-z
x,1/2+y,-z
-x,y,z
x,1/2-y,z
1/2+x,1/2+y,1/2+z
1/2-x,-y,1/2+z
1/2+x,1/2-y,1/2-z
1/2-x,y,1/2-z
1/2-x,1/2-y,1/2-z
1/2+x,y,1/2-z
1/2-x,1/2+y,1/2+z
1/2+x,-y,1/2+z
loop_
_atom_site_type_symbol
_atom_site_label
_atom_site_fract_x
_atom_site_fract_y
_atom_site_fract_z
Si Si1 0.933214 0.438099 0.180092
Si Si2 0.182858 0.063645 0.125422
Si Si3 0.603408 0.429411 0.211347
Si Si4 0.718304 0.935336 0.945908
Si Si5 0.276288 0.422213 0.802253
Si Si6 0.606737 0.431788 0.889594
Si Si7 0.000000 0.931694 0.552284
O O1 0.933502 0.250000 0.180475
O O2 0.883374 0.484170 0.141029
O O3 0.915598 0.483380 0.235202
O O4 0.000000 0.490089 0.169819
O O5 0.185496 0.250000 0.131250
O O6 0.215806 0.029408 0.074753
O O7 0.225490 0.981844 0.163411
O O8 0.585929 0.250000 0.206190
O O9 0.673243 0.451356 0.205167
O O10 0.585350 0.527059 0.164701
O O11 0.711073 0.750000 0.946760
O O12 0.670124 0.002799 0.907909
O O13 0.709814 0.000000 0.000000
O O14 0.298572 0.250000 0.817780
O O15 0.250000 0.403385 0.750000
O O16 0.606774 0.250000 0.896995
O O17 0.558419 0.510369 0.922351
O O18 0.000000 0.750000 0.551378
O O19 0.000000 0.000000 0.500000
#
# Coordination Sequence:
#
# PCOD9538250 Si02
#       7
#    16  16  16  16  16  16   8
#     4   9  19  35  57  86 117 154 200 247 291 347
#     4  10  20  36  59  84 113 151 197 244 297 361
#     4  11  21  34  56  84 116 156 197 238 286 347
#     4  11  23  39  61  88 116 151 195 248 307 364
#     4  11  21  32  51  81 116 151 186 231 286 343
#     4  12  25  41  60  87 122 159 198 247 299 352
#     4  12  26  46  66  84 112 156 208 256 299 352
#
# _framework density 19.080707
#
# number of rings (size 3 to 8) (size 9 to 14) (size 15 to 20)
#    0.000    1.231    3.077    3.923    1.077    1.231 
#    0.000    0.000    0.000    2.769    0.000    0.000 
#    0.000    0.000    0.000    0.000    0.000    0.154 
#
# Total GULP energy -289937.252627 kJ/mol
# GULP energy per Si atom -5575.716397 kJ/mol
# Density = 1.903728 g / cm^3
# Si number density = 19.080707 Si / 1000 Ang^3
#
#
#
# Elastic Constant Matrix: (Units=GPa)
#
#
# Indices 1 2 3 4 5 6 
#
# 1 121.9203 26.0772 31.9709 0.0000 0.0000 0.0000
# 2 26.0772 73.9850 27.9540 0.0000 0.0000 0.0000
# 3 31.9709 27.9540 66.7771 0.0000 0.0000 0.0000
# 4 0.0000 0.0000 0.0000 53.9135 0.0000 0.0000
# 5 0.0000 0.0000 0.0000 0.0000 82.0510 0.0000
# 6 0.0000 0.0000 0.0000 0.0000 0.0000 6.5524
#
#
#
# Elastic Compliance Matrix: (Units=1/GPa)
#
#
# Indices 1 2 3 4 5 6 
#
# 1 0.009613 -0.001959 -0.003782 0.000000 0.000000 0.000000
# 2 -0.001959 0.016455 -0.005950 0.000000 0.000000 0.000000
# 3 -0.003782 -0.005950 0.019277 0.000000 0.000000 0.000000
# 4 0.000000 0.000000 0.000000 0.018548 0.000000 0.000000
# 5 0.000000 0.000000 0.000000 0.000000 0.012188 0.000000
# 6 0.000000 0.000000 0.000000 0.000000 0.000000 0.152616
#
#
# Mechanical properties :
#
#
# Convention : Reuss Voigt Hill
#
# Bulk Modulus (GPa) = 45.53452 48.29850 46.91651
# Shear Modulus (GPa) = 19.27519 40.28206 29.77862
#
# Velocity S-wave (km/s) = 3.18180 4.59970 3.95481
# Velocity P-wave (km/s) = 6.11673 7.31965 6.74506
#
# Compressibility (1/GPa) = 0.02196136
#
# Stress axis : x y z
#
# Youngs Moduli (GPa) = 104.02656 60.77170 51.87550
#
# Poissons Ratio (x) = 0.11906 0.19621
# Poissons Ratio (y) = 0.20381 0.30868
# Poissons Ratio (z) = 0.39345 0.36161
#
# Static dielectric constant tensor:
#      x y z
#    x 1.689930 0.000000 0.000000 
#    y 0.000000 1.642990 0.000000 
#    z 0.000000 0.000000 1.886370 
# 
# From -- ./inp_files/68227.got.cif
#   From: 2010.05.17/outbox.cif.g08.bks.cpg/sg74_35_cif.got.tgz:68227.got - 2010.06.03 17:57:02.
