data_PCOD9538596
_publ_section_title
;
Structure prediction by ZEFSAII (Michael W. Deem and Ramdas Pophale) SiO2 
 PCOD9538596
Probable space group: I M M A
;
_chemical_formula_sum "Si O2"
_cell_formula_units_Z 96
_cell_length_a 24.665760
_cell_length_b 21.489989
_cell_length_c 8.735064
_cell_angle_alpha 90.000000
_cell_angle_beta 90.000000
_cell_angle_gamma 90.000000
_cell_volume 4630.168393
_symmetry_space_group_name_H-M "I M M A"
_symmetry_group_IT_number 74
_symmetry_cell_setting 'orthorhombic'
loop_
_space_group_symop_operation_xyz
x,y,z
-x,1/2-y,z
x,-y,-z
-x,1/2+y,-z
-x,-y,-z
x,1/2+y,-z
-x,y,z
x,1/2-y,z
1/2+x,1/2+y,1/2+z
1/2-x,-y,1/2+z
1/2+x,1/2-y,1/2-z
1/2-x,y,1/2-z
1/2-x,1/2-y,1/2-z
1/2+x,y,1/2-z
1/2-x,1/2+y,1/2+z
1/2+x,-y,1/2+z
loop_
_atom_site_type_symbol
_atom_site_label
_atom_site_fract_x
_atom_site_fract_y
_atom_site_fract_z
Si Si1 0.799661 0.250000 0.956875
Si Si2 0.197774 0.377723 0.137397
Si Si3 0.309410 0.941597 0.321439
Si Si4 0.881377 0.552652 0.687364
Si Si5 0.000000 0.825556 0.452701
Si Si6 0.000000 0.548555 0.643079
Si Si7 0.173772 0.250000 0.616306
Si Si8 0.115622 0.870012 0.388558
O O1 0.834645 0.250000 0.800765
O O2 0.737063 0.250000 0.907887
O O3 0.805173 0.188497 0.056670
O O4 0.250000 0.383030 0.250000
O O5 0.142200 0.387311 0.228595
O O6 0.199507 0.429094 0.000856
O O7 0.250000 0.934493 0.250000
O O8 0.338460 0.001957 0.247739
O O9 0.351126 0.889591 0.260269
O O10 0.882880 0.572430 0.508448
O O11 0.943225 0.536595 0.728012
O O12 0.054799 0.845643 0.365479
O O13 0.000000 0.750000 0.483796
O O14 0.000000 0.878086 0.590330
O O15 0.000000 0.500000 0.500000
O O16 0.147943 0.188646 0.545315
#
# Coordination Sequence:
#
# PCOD9538596 Si02
#       8
#     8  16  16  16   8   8   8  16
#     4  11  23  40  62  91 135 179 227 274 344 406
#     4  12  25  41  62  95 135 179 226 277 341 412
#     4  12  24  41  65  97 137 177 223 282 344 418
#     4  11  24  41  65  97 129 173 224 281 345 409
#     4  10  20  38  65 103 135 176 235 290 338 412
#     4  10  22  44  70  97 134 176 232 287 352 419
#     4  11  20  37  66  95 129 178 224 280 331 410
#     4  11  22  40  67  97 135 176 230 282 345 404
#
# _framework density 20.733587
#
# number of rings (size 3 to 8) (size 9 to 14) (size 15 to 20)
#    0.000    0.833    2.500    6.750    0.000    2.000 
#    1.500    2.500    0.000    0.000    0.000    0.000 
#    0.000    0.000    0.000    0.000    0.000    0.000 
#
# Total GULP energy -267714.802710 kJ/mol
# GULP energy per Si atom -5577.391723 kJ/mol
# Density = 2.068640 g / cm^3
# Si number density = 20.733587 Si / 1000 Ang^3
#
#
#
# Elastic Constant Matrix: (Units=GPa)
#
#
# Indices 1 2 3 4 5 6 
#
# 1 120.5624 16.5604 44.9874 0.0000 0.0000 0.0000
# 2 16.5604 117.5605 31.8314 0.0000 0.0000 0.0000
# 3 44.9874 31.8314 97.7903 0.0000 0.0000 0.0000
# 4 0.0000 0.0000 0.0000 1797.1255 0.0000 0.0000
# 5 0.0000 0.0000 0.0000 0.0000 20.7657 0.0000
# 6 0.0000 0.0000 0.0000 0.0000 0.0000 35.7272
#
#
#
# Elastic Compliance Matrix: (Units=1/GPa)
#
#
# Indices 1 2 3 4 5 6 
#
# 1 0.010017 -0.000179 -0.004550 0.000000 0.000000 0.000000
# 2 -0.000179 0.009332 -0.002955 0.000000 0.000000 0.000000
# 3 -0.004550 -0.002955 0.013281 0.000000 0.000000 0.000000
# 4 0.000000 0.000000 0.000000 0.000556 0.000000 0.000000
# 5 0.000000 0.000000 0.000000 0.000000 0.048156 0.000000
# 6 0.000000 0.000000 0.000000 0.000000 0.000000 0.027990
#
#
# Mechanical properties :
#
#
# Convention : Reuss Voigt Hill
#
# Bulk Modulus (GPa) = 57.93297 58.07462 58.00380
# Shear Modulus (GPa) = 38.32773 386.89263 212.61018
#
# Velocity S-wave (km/s) = 4.30418 13.67505 10.13738
# Velocity P-wave (km/s) = 7.25972 16.65573 12.84751
#
# Compressibility (1/GPa) = 0.01726133
#
# Stress axis : x y z
#
# Youngs Moduli (GPa) = 99.83209 107.16243 75.29570
#
# Poissons Ratio (x) = 0.01919 0.34258
# Poissons Ratio (y) = 0.01788 0.22251
# Poissons Ratio (z) = 0.45422 0.31668
#
# Static dielectric constant tensor:
#      x y z
#    x 1.724110 0.000000 0.000000 
#    y 0.000000 1.650610 0.000000 
#    z 0.000000 0.000000 1.785350 
# 
# From -- ./inp_files/14010.got.cif
#   From: 2010.05.17/outbox.cif.g08.bks.cpg/sg74_8_cif.got.tgz:14010.got - 2010.06.03 17:57:02.
