data_PCOD9538781
_publ_section_title
;
Structure prediction by ZEFSAII (Michael W. Deem and Ramdas Pophale) SiO2 
 PCOD9538781
Probable space group: I M M A
;
_chemical_formula_sum "Si O2"
_cell_formula_units_Z 80
_cell_length_a 17.772288
_cell_length_b 20.112488
_cell_length_c 9.650071
_cell_angle_alpha 90.000000
_cell_angle_beta 90.000000
_cell_angle_gamma 90.000000
_cell_volume 3449.368945
_symmetry_space_group_name_H-M "I M M A"
_symmetry_group_IT_number 74
_symmetry_cell_setting 'orthorhombic'
loop_
_space_group_symop_operation_xyz
x,y,z
-x,1/2-y,z
x,-y,-z
-x,1/2+y,-z
-x,-y,-z
x,1/2+y,-z
-x,y,z
x,1/2-y,z
1/2+x,1/2+y,1/2+z
1/2-x,-y,1/2+z
1/2+x,1/2-y,1/2-z
1/2-x,y,1/2-z
1/2-x,1/2-y,1/2-z
1/2+x,y,1/2-z
1/2-x,1/2+y,1/2+z
1/2+x,-y,1/2+z
loop_
_atom_site_type_symbol
_atom_site_label
_atom_site_fract_x
_atom_site_fract_y
_atom_site_fract_z
Si Si1 0.279679 0.674880 0.591262
Si Si2 0.086466 0.591773 0.814865
Si Si3 0.869587 0.889144 0.497874
Si Si4 0.338588 0.542216 0.263073
Si Si5 0.413264 0.675110 0.266847
O O1 0.276751 0.750000 0.537319
O O2 0.250000 0.676425 0.750000
O O3 0.362810 0.645863 0.608036
O O4 0.218565 0.628758 0.515928
O O5 0.095095 0.604213 0.648633
O O6 0.122819 0.519212 0.837787
O O7 0.000000 0.593637 0.854712
O O8 0.872995 0.951073 0.392124
O O9 0.906015 0.832371 0.400813
O O10 0.250000 0.530781 0.250000
O O11 0.359653 0.615560 0.318682
O O12 0.500000 0.662104 0.304741
O O13 0.393227 0.750000 0.306407
#
# Coordination Sequence:
#
# PCOD9538781 Si02
#       5
#    16  16  16  16  16
#     4   9  18  34  53  78 110 143 182 224 274 334
#     4  11  21  33  53  81 111 144 182 228 280 327
#     4   9  19  32  56  78 107 141 179 221 274 328
#     4  10  21  34  53  78 109 146 184 224 272 328
#     4   9  18  31  50  78 106 133 170 220 273 319
#
# _framework density 23.19265
#
# number of rings (size 3 to 8) (size 9 to 14) (size 15 to 20)
#    1.200    1.200    0.000    4.200    0.000    2.400 
#    0.000    0.000    0.000    3.600    0.000    0.000 
#    0.000    0.000    0.000    0.000    0.000    0.000 
#
# Total GULP energy -223300.639360 kJ/mol
# GULP energy per Si atom -5582.515984 kJ/mol
# Density = 2.313986 g / cm^3
# Si number density = 23.192650 Si / 1000 Ang^3
#
#
#
# Elastic Constant Matrix: (Units=GPa)
#
#
# Indices 1 2 3 4 5 6 
#
# 1 161.9825 38.0475 -13.6193 0.0000 0.0000 0.0000
# 2 38.0475 84.9730 -21.1904 0.0000 0.0000 0.0000
# 3 -13.6193 -21.1904 74.4668 0.0000 0.0000 0.0000
# 4 0.0000 0.0000 0.0000 -10.8272 0.0000 0.0000
# 5 0.0000 0.0000 0.0000 0.0000 20.6699 0.0000
# 6 0.0000 0.0000 0.0000 0.0000 0.0000 31.1304
#
#
#
# Elastic Compliance Matrix: (Units=1/GPa)
#
#
# Indices 1 2 3 4 5 6 
#
# 1 0.006911 -0.002991 0.000413 0.000000 0.000000 0.000000
# 2 -0.002991 0.013962 0.003426 0.000000 0.000000 0.000000
# 3 0.000413 0.003426 0.014479 0.000000 0.000000 0.000000
# 4 0.000000 0.000000 0.000000 -0.092360 0.000000 0.000000
# 5 0.000000 0.000000 0.000000 0.000000 0.048380 0.000000
# 6 0.000000 0.000000 0.000000 0.000000 0.000000 0.032123
#
#
# Mechanical properties :
#
#
# Convention : Reuss Voigt Hill
#
# Bulk Modulus (GPa) = 26.99294 36.43309 31.71302
# Shear Modulus (GPa) = 146.41566 29.40693 87.91130
#
# Velocity S-wave (km/s) = 7.95407 3.56468 6.16337
# Velocity P-wave (km/s) = 9.79899 5.71713 8.02202
#
# Compressibility (1/GPa) = 0.03704672
#
# Stress axis : x y z
#
# Youngs Moduli (GPa) = 144.69967 71.62148 69.06465
#
# Poissons Ratio (x) = 0.21426 -0.02850
# Poissons Ratio (y) = 0.43287 -0.23662
# Poissons Ratio (z) = -0.05971 -0.24538
#
# Static dielectric constant tensor:
#      x y z
#    x 1.818360 0.000000 0.000000 
#    y 0.000000 1.894240 0.000000 
#    z 0.000000 0.000000 1.936220 
# 
# From -- ./inp_files/20513.got.cif
#   From: 2010.05.17/outbox.cif.g08.bks.cpg/sg74_11_cif.got.tgz:20513.got - 2010.06.03 17:57:02.
