data_PCOD9538903
_publ_section_title
;
Structure prediction by ZEFSAII (Michael W. Deem and Ramdas Pophale) SiO2 
 PCOD9538903
Probable space group: I M M A
;
_chemical_formula_sum "Si O2"
_cell_formula_units_Z 56
_cell_length_a 18.607444
_cell_length_b 8.089041
_cell_length_c 18.646829
_cell_angle_alpha 90.000000
_cell_angle_beta 90.000000
_cell_angle_gamma 90.000000
_cell_volume 2806.653151
_symmetry_space_group_name_H-M "I M M A"
_symmetry_group_IT_number 74
_symmetry_cell_setting 'orthorhombic'
loop_
_space_group_symop_operation_xyz
x,y,z
-x,1/2-y,z
x,-y,-z
-x,1/2+y,-z
-x,-y,-z
x,1/2+y,-z
-x,y,z
x,1/2-y,z
1/2+x,1/2+y,1/2+z
1/2-x,-y,1/2+z
1/2+x,1/2-y,1/2-z
1/2-x,y,1/2-z
1/2-x,1/2-y,1/2-z
1/2+x,y,1/2-z
1/2-x,1/2+y,1/2+z
1/2+x,-y,1/2+z
loop_
_atom_site_type_symbol
_atom_site_label
_atom_site_fract_x
_atom_site_fract_y
_atom_site_fract_z
Si Si1 0.582198 0.447227 0.919035
Si Si2 0.000000 0.050491 0.083954
Si Si3 0.215440 0.949859 0.674139
Si Si4 0.153024 0.550678 0.917824
O O1 0.500000 0.510310 0.908147
O O2 0.579859 0.250000 0.918986
O O3 0.638067 0.499435 0.857135
O O4 0.605122 0.500000 0.000000
O O5 0.076414 0.992648 0.114642
O O6 0.000000 0.250000 0.087021
O O7 0.000000 0.000000 0.000000
O O8 0.214049 0.750000 0.676082
O O9 0.250000 0.003604 0.750000
O O10 0.275278 0.011739 0.618394
O O11 0.153905 0.750000 0.912644
O O12 0.153265 0.500000 0.000000
#
# Coordination Sequence:
#
# PCOD9538903 Si02
#       4
#    16   8  16  16
#     4  10  21  38  61  86 111 144 190 241 291 341
#     4   8  14  26  44  66  92 122 157 200 245 292
#     4  10  21  36  52  79 114 146 183 225 276 337
#     4   9  17  30  49  72  99 131 172 215 256 308
#
# _framework density 19.952590000000001
#
# number of rings (size 3 to 8) (size 9 to 14) (size 15 to 20)
#    0.000    2.571    0.000    1.714    0.000    5.714 
#    2.571    0.000    0.000    0.000    0.000    0.000 
#    0.000    0.000    0.000    0.000    0.000    0.000 
#
# Total GULP energy -155882.813719 kJ/mol
# GULP energy per Si atom -5567.243347 kJ/mol
# Density = 1.990718 g / cm^3
# Si number density = 19.952590 Si / 1000 Ang^3
#
#
#
# Elastic Constant Matrix: (Units=GPa)
#
#
# Indices 1 2 3 4 5 6 
#
# 1 154.0589 15.2250 71.2137 0.0000 0.0000 0.0000
# 2 15.2250 21.9141 11.4288 0.0000 0.0000 0.0000
# 3 71.2137 11.4288 86.1960 0.0000 0.0000 0.0000
# 4 0.0000 0.0000 0.0000 19.7023 0.0000 0.0000
# 5 0.0000 0.0000 0.0000 0.0000 20.9465 0.0000
# 6 0.0000 0.0000 0.0000 0.0000 0.0000 28.9864
#
#
#
# Elastic Compliance Matrix: (Units=1/GPa)
#
#
# Indices 1 2 3 4 5 6 
#
# 1 0.010686 -0.003029 -0.008427 0.000000 0.000000 0.000000
# 2 -0.003029 0.049881 -0.004111 0.000000 0.000000 0.000000
# 3 -0.008427 -0.004111 0.019108 0.000000 0.000000 0.000000
# 4 0.000000 0.000000 0.000000 0.050756 0.000000 0.000000
# 5 0.000000 0.000000 0.000000 0.000000 0.047741 0.000000
# 6 0.000000 0.000000 0.000000 0.000000 0.000000 0.034499
#
#
# Mechanical properties :
#
#
# Convention : Reuss Voigt Hill
#
# Bulk Modulus (GPa) = 20.60089 50.87822 35.73956
# Shear Modulus (GPa) = 19.23187 24.88047 22.05617
#
# Velocity S-wave (km/s) = 3.10801 3.53509 3.32841
# Velocity P-wave (km/s) = 4.81943 6.49749 5.72033
#
# Compressibility (1/GPa) = 0.04854159
#
# Stress axis : x y z
#
# Youngs Moduli (GPa) = 93.58403 20.04754 52.33277
#
# Poissons Ratio (x) = 0.06073 0.44099
# Poissons Ratio (y) = 0.28349 0.21515
# Poissons Ratio (z) = 0.78860 0.08242
#
# Static dielectric constant tensor:
#      x y z
#    x 1.782130 0.000000 0.000000 
#    y 0.000000 1.711110 0.000000 
#    z 0.000000 0.000000 1.701690 
# 
# From -- ./inp_files/38835.got.cif
#   From: 2010.05.17/outbox.cif.g08.bks.cpg/sg74_20_cif.got.tgz:38835.got - 2010.06.03 17:57:02.
