data_PCOD9538974
_publ_section_title
;
Structure prediction by ZEFSAII (Michael W. Deem and Ramdas Pophale) SiO2 
 PCOD9538974
Probable space group: I M M A
;
_chemical_formula_sum "Si O2"
_cell_formula_units_Z 104
_cell_length_a 8.752803
_cell_length_b 18.383504
_cell_length_c 29.595625
_cell_angle_alpha 90.000000
_cell_angle_beta 90.000000
_cell_angle_gamma 90.000000
_cell_volume 4762.148824
_symmetry_space_group_name_H-M "I M M A"
_symmetry_group_IT_number 74
_symmetry_cell_setting 'orthorhombic'
loop_
_space_group_symop_operation_xyz
x,y,z
-x,1/2-y,z
x,-y,-z
-x,1/2+y,-z
-x,-y,-z
x,1/2+y,-z
-x,y,z
x,1/2-y,z
1/2+x,1/2+y,1/2+z
1/2-x,-y,1/2+z
1/2+x,1/2-y,1/2-z
1/2-x,y,1/2-z
1/2-x,1/2-y,1/2-z
1/2+x,y,1/2-z
1/2-x,1/2+y,1/2+z
1/2+x,-y,1/2+z
loop_
_atom_site_type_symbol
_atom_site_label
_atom_site_fract_x
_atom_site_fract_y
_atom_site_fract_z
Si Si1 0.180143 0.382458 0.133735
Si Si2 0.685317 0.250000 0.196556
Si Si3 0.176737 0.063020 0.034998
Si Si4 0.832669 0.336996 0.526626
Si Si5 0.828349 0.141721 0.705011
Si Si6 0.172760 0.031371 0.294965
Si Si7 0.667308 0.663837 0.388077
O O1 0.258633 0.318529 0.164621
O O2 0.238152 0.409279 0.084050
O O3 0.214009 0.452071 0.164496
O O4 0.000000 0.364977 0.129800
O O5 0.500000 0.250000 0.199759
O O6 0.750000 0.250000 0.250000
O O7 0.000000 0.043400 0.042983
O O8 0.199537 0.134588 0.004949
O O9 0.238903 0.000000 0.000000
O O10 0.838075 0.250000 0.525855
O O11 0.792133 0.364328 0.576781
O O12 0.000000 0.363821 0.512107
O O13 0.750000 0.170171 0.750000
O O14 0.723549 0.156295 0.662388
O O15 0.000000 0.169076 0.698184
O O16 0.839210 0.054840 0.709951
O O17 0.250000 0.062710 0.250000
O O18 0.000000 0.059534 0.301803
O O19 0.500000 0.630724 0.395222
O O20 0.655943 0.750000 0.397041
#
# Coordination Sequence:
#
# PCOD9538974 Si02
#       7
#    16   8  16  16  16  16  16
#     4  11  24  42  66  96 132 171 214 265 326 389
#     4  12  26  46  72 102 140 180 228 280 341 412
#     4  10  24  44  65  95 130 171 219 268 326 394
#     4  10  22  40  63  91 123 161 206 260 318 379
#     4  10  21  36  56  84 117 155 198 248 304 366
#     4  10  21  38  60  88 121 158 203 249 307 375
#     4  10  21  37  58  83 112 153 200 247 304 366
#
# _framework density 21.83888
#
# number of rings (size 3 to 8) (size 9 to 14) (size 15 to 20)
#    0.000    1.692    0.000    3.462    3.231    5.538 
#    0.000    0.000    0.000    0.000    0.000    0.000 
#    0.000    0.000    0.000    0.000    0.000    0.000 
#
# Total GULP energy -289646.540230 kJ/mol
# GULP energy per Si atom -5570.125774 kJ/mol
# Density = 2.178917 g / cm^3
# Si number density = 21.838880 Si / 1000 Ang^3
#
#
#
# Elastic Constant Matrix: (Units=GPa)
#
#
# Indices 1 2 3 4 5 6 
#
# 1 69.4144 25.4678 12.1860 0.0000 0.0000 0.0000
# 2 25.4678 64.1886 31.4617 0.0000 0.0000 0.0000
# 3 12.1860 31.4617 153.5053 0.0000 0.0000 0.0000
# 4 0.0000 0.0000 0.0000 29.4803 0.0000 0.0000
# 5 0.0000 0.0000 0.0000 0.0000 22.7017 0.0000
# 6 0.0000 0.0000 0.0000 0.0000 0.0000 18.3654
#
#
#
# Elastic Compliance Matrix: (Units=1/GPa)
#
#
# Indices 1 2 3 4 5 6 
#
# 1 0.016861 -0.006708 0.000036 0.000000 0.000000 0.000000
# 2 -0.006708 0.019987 -0.003564 0.000000 0.000000 0.000000
# 3 0.000036 -0.003564 0.007242 0.000000 0.000000 0.000000
# 4 0.000000 0.000000 0.000000 0.033921 0.000000 0.000000
# 5 0.000000 0.000000 0.000000 0.000000 0.044050 0.000000
# 6 0.000000 0.000000 0.000000 0.000000 0.000000 0.054450
#
#
# Mechanical properties :
#
#
# Convention : Reuss Voigt Hill
#
# Bulk Modulus (GPa) = 42.33791 47.25993 44.79892
# Shear Modulus (GPa) = 24.40753 28.64232 26.52492
#
# Velocity S-wave (km/s) = 3.34671 3.62543 3.48885
# Velocity P-wave (km/s) = 5.86195 6.26197 6.06526
#
# Compressibility (1/GPa) = 0.02361950
#
# Stress axis : x y z
#
# Youngs Moduli (GPa) = 59.30902 50.03172 138.08300
#
# Poissons Ratio (x) = 0.33559 -0.00501
# Poissons Ratio (y) = 0.39782 0.49213
# Poissons Ratio (z) = -0.00215 0.17831
#
# Static dielectric constant tensor:
#      x y z
#    x 1.835980 0.000000 0.000000 
#    y 0.000000 1.867620 0.000000 
#    z 0.000000 0.000000 1.820300 
# 
# From -- ./inp_files/64521.got.cif
#   From: 2010.05.17/outbox.cif.g08.bks.cpg/sg74_33_cif.got.tgz:64521.got - 2010.06.03 17:57:02.
