data_PCOD9538406
_publ_section_title
;
Structure prediction by ZEFSAII (Michael W. Deem and Ramdas Pophale) SiO2 
 PCOD9538406
Probable space group: I M M A
;
_chemical_formula_sum "Si O2"
_cell_formula_units_Z 104
_cell_length_a 15.859983
_cell_length_b 29.186745
_cell_length_c 11.611346
_cell_angle_alpha 90.000000
_cell_angle_beta 90.000000
_cell_angle_gamma 90.000000
_cell_volume 5374.906920
_symmetry_space_group_name_H-M "I M M A"
_symmetry_group_IT_number 74
_symmetry_cell_setting 'orthorhombic'
loop_
_space_group_symop_operation_xyz
x,y,z
-x,1/2-y,z
x,-y,-z
-x,1/2+y,-z
-x,-y,-z
x,1/2+y,-z
-x,y,z
x,1/2-y,z
1/2+x,1/2+y,1/2+z
1/2-x,-y,1/2+z
1/2+x,1/2-y,1/2-z
1/2-x,y,1/2-z
1/2-x,1/2-y,1/2-z
1/2+x,y,1/2-z
1/2-x,1/2+y,1/2+z
1/2+x,-y,1/2+z
loop_
_atom_site_type_symbol
_atom_site_label
_atom_site_fract_x
_atom_site_fract_y
_atom_site_fract_z
Si Si1 0.905350 0.361162 0.084827
Si Si2 0.312589 0.579437 0.040183
Si Si3 0.100209 0.984469 0.286582
Si Si4 0.635513 0.547829 0.458728
Si Si5 0.750000 0.856718 0.250000
Si Si6 0.102591 0.909001 0.689734
Si Si7 0.600283 0.195373 0.627436
O O1 0.866077 0.377296 0.205272
O O2 0.000000 0.346303 0.113505
O O3 0.908631 0.407257 0.006873
O O4 0.871438 0.322682 0.999215
O O5 0.372389 0.542124 0.099614
O O6 0.230062 0.553235 0.995061
O O7 0.278443 0.613427 0.139117
O O8 0.359064 0.603021 0.933797
O O9 0.137855 0.957044 0.178436
O O10 0.000000 0.982994 0.274631
O O11 0.125772 0.037722 0.285943
O O12 0.597309 0.500000 0.500000
O O13 0.667245 0.827665 0.286407
O O14 0.000000 0.907519 0.686512
O O15 0.500000 0.182189 0.643701
O O16 0.604401 0.250000 0.634788
#
# Coordination Sequence:
#
# PCOD9538406 Si02
#       7
#    16  16  16  16   8  16  16
#     4  10  20  37  59  87 113 148 201 244 299 368
#     4  12  23  37  52  81 123 159 201 247 296 353
#     4  11  21  35  53  75 112 165 215 252 296 351
#     4  12  21  33  53  80 117 158 197 245 290 346
#     4  12  23  40  62  96 122 158 206 256 309 374
#     4  10  22  37  56  81 115 162 209 253 302 361
#     4  10  22  43  70  95 122 157 199 258 321 375
#
# _framework density 19.349171999999999
#
# number of rings (size 3 to 8) (size 9 to 14) (size 15 to 20)
#    0.000    1.077    4.615    2.538    0.000    4.923 
#    0.000    0.000    0.000    2.769    0.000    2.154 
#    0.000    0.000    0.000    0.000    0.000    0.000 
#
# Total GULP energy -290236.681846 kJ/mol
# GULP energy per Si atom -5581.474651 kJ/mol
# Density = 1.930513 g / cm^3
# Si number density = 19.349172 Si / 1000 Ang^3
#
#
#
# Elastic Constant Matrix: (Units=GPa)
#
#
# Indices 1 2 3 4 5 6 
#
# 1 69.8207 28.2297 35.1765 0.0000 0.0001 0.0000
# 2 28.2297 69.0834 26.0253 0.0000 -0.0002 0.0000
# 3 35.1765 26.0253 103.4803 0.0000 -0.0008 0.0000
# 4 0.0000 0.0000 0.0000 22.7047 -0.0004 0.0000
# 5 0.0001 -0.0002 -0.0008 -0.0004 1.2778 0.0000
# 6 0.0000 0.0000 0.0000 0.0000 0.0000 19.1353
#
#
#
# Elastic Compliance Matrix: (Units=1/GPa)
#
#
# Indices 1 2 3 4 5 6 
#
# 1 0.019284 -0.005977 -0.005052 0.000000 -0.000005 0.000000
# 2 -0.005977 0.017843 -0.002456 0.000000 0.000001 0.000000
# 3 -0.005052 -0.002456 0.011999 0.000000 0.000007 0.000000
# 4 0.000000 0.000000 0.000000 0.044044 0.000015 0.000000
# 5 -0.000005 0.000001 0.000007 0.000015 0.782587 0.000000
# 6 0.000000 0.000000 0.000000 0.000000 0.000000 0.052259
#
#
# Mechanical properties :
#
#
# Convention : Reuss Voigt Hill
#
# Bulk Modulus (GPa) = 45.13424 46.80528 45.96976
# Shear Modulus (GPa) = 5.19550 18.82043 12.00797
#
# Velocity S-wave (km/s) = 1.64041 3.12216 2.49387
# Velocity P-wave (km/s) = 5.19276 6.10241 5.66587
#
# Compressibility (1/GPa) = 0.02215613
#
# Stress axis : x y z
#
# Youngs Moduli (GPa) = 51.85553 56.04523 83.34238
#
# Poissons Ratio (x) = 0.33498 0.42106
# Poissons Ratio (y) = 0.30994 0.20466
# Poissons Ratio (z) = 0.26198 0.13763
#
# Static dielectric constant tensor:
#      x y z
#    x 1.702120 0.000000 0.000000 
#    y 0.000000 1.660470 0.000000 
#    z 0.000000 0.000000 1.719970 
# 
# From -- ./inp_files/22746.got.cif
#   From: 2010.05.17/outbox.cif.g08.bks.cpg/sg74_12_cif.got.tgz:22746.got - 2010.06.03 17:57:02.
