data_PCOD9538426
_publ_section_title
;
Structure prediction by ZEFSAII (Michael W. Deem and Ramdas Pophale) SiO2 
 PCOD9538426
Probable space group: I M M A
;
_chemical_formula_sum "Si O2"
_cell_formula_units_Z 88
_cell_length_a 27.671981
_cell_length_b 8.662297
_cell_length_c 19.738781
_cell_angle_alpha 90.000000
_cell_angle_beta 90.000000
_cell_angle_gamma 90.000000
_cell_volume 4731.443403
_symmetry_space_group_name_H-M "I M M A"
_symmetry_group_IT_number 74
_symmetry_cell_setting 'orthorhombic'
loop_
_space_group_symop_operation_xyz
x,y,z
-x,1/2-y,z
x,-y,-z
-x,1/2+y,-z
-x,-y,-z
x,1/2+y,-z
-x,y,z
x,1/2-y,z
1/2+x,1/2+y,1/2+z
1/2-x,-y,1/2+z
1/2+x,1/2-y,1/2-z
1/2-x,y,1/2-z
1/2-x,1/2-y,1/2-z
1/2+x,y,1/2-z
1/2-x,1/2+y,1/2+z
1/2+x,-y,1/2+z
loop_
_atom_site_type_symbol
_atom_site_label
_atom_site_fract_x
_atom_site_fract_y
_atom_site_fract_z
Si Si1 0.693684 0.434521 0.424564
Si Si2 0.500000 0.434958 0.576588
Si Si3 0.905238 0.435570 0.151833
Si Si4 0.617325 0.062994 0.799942
Si Si5 0.728028 0.564448 0.177075
Si Si6 0.444194 0.564208 0.070439
O O1 0.695140 0.500000 0.500000
O O2 0.693960 0.250000 0.427061
O O3 0.643807 0.483250 0.387586
O O4 0.739306 0.491057 0.380983
O O5 0.500000 0.250000 0.574304
O O6 0.500000 0.500000 0.500000
O O7 0.547758 0.493207 0.615928
O O8 0.908955 0.250000 0.149596
O O9 0.899213 0.490873 0.229130
O O10 0.615722 0.250000 0.792884
O O11 0.672010 0.019317 0.819636
O O12 0.583664 0.015867 0.862392
O O13 0.730546 0.750000 0.169664
O O14 0.750000 0.522860 0.250000
O O15 0.500000 0.514001 0.075077
O O16 0.442949 0.750000 0.067487
O O17 0.423702 0.500000 0.000000
#
# Coordination Sequence:
#
# PCOD9538426 Si02
#       6
#    16   8  16  16  16  16
#     4  11  24  40  62  89 121 159 203 250 301 361
#     4  12  26  44  66  90 123 162 201 250 304 362
#     4  11  24  41  62  92 124 159 203 250 301 362
#     4  10  21  37  60  90 122 159 201 249 303 360
#     4  10  20  37  60  86 120 158 198 244 298 356
#     4   9  19  36  57  82 114 151 194 239 294 354
#
# _framework density 18.598976
#
# number of rings (size 3 to 8) (size 9 to 14) (size 15 to 20)
#    0.000    1.636    1.818    2.455    1.273    6.182 
#    0.000    1.818    0.000    0.000    0.000    0.000 
#    0.000    0.000    0.000    0.000    0.000    0.000 
#
# Total GULP energy -245844.595929 kJ/mol
# GULP energy per Si atom -5587.377180 kJ/mol
# Density = 1.855664 g / cm^3
# Si number density = 18.598976 Si / 1000 Ang^3
#
#
#
# Elastic Constant Matrix: (Units=GPa)
#
#
# Indices 1 2 3 4 5 6 
#
# 1 143.9743 45.5029 112.5077 0.0000 0.0000 0.0000
# 2 45.5029 44.3304 55.5917 0.0000 0.0000 0.0000
# 3 112.5077 55.5917 216.0161 0.0000 0.0000 0.0000
# 4 0.0000 0.0000 0.0000 36.0153 0.0000 0.0000
# 5 0.0000 0.0000 0.0000 0.0000 37.1734 0.0000
# 6 0.0000 0.0000 0.0000 0.0000 0.0000 -8.5344
#
#
#
# Elastic Compliance Matrix: (Units=1/GPa)
#
#
# Indices 1 2 3 4 5 6 
#
# 1 0.013114 -0.007228 -0.004970 0.000000 0.000000 0.000000
# 2 -0.007228 0.037291 -0.005832 0.000000 0.000000 0.000000
# 3 -0.004970 -0.005832 0.008719 0.000000 0.000000 0.000000
# 4 0.000000 0.000000 0.000000 0.027766 0.000000 0.000000
# 5 0.000000 0.000000 0.000000 0.000000 0.026901 0.000000
# 6 0.000000 0.000000 0.000000 0.000000 0.000000 -0.117173
#
#
# Mechanical properties :
#
#
# Convention : Reuss Voigt Hill
#
# Bulk Modulus (GPa) = 43.35969 92.39171 67.87570
# Shear Modulus (GPa) = 123.86704 25.64544 74.75624
#
# Velocity S-wave (km/s) = 8.16966 3.71733 6.34673
# Velocity P-wave (km/s) = 10.59975 8.25883 9.50166
#
# Compressibility (1/GPa) = 0.02306290
#
# Stress axis : x y z
#
# Youngs Moduli (GPa) = 76.25514 26.81611 114.69665
#
# Poissons Ratio (x) = 0.19384 0.57003
# Poissons Ratio (y) = 0.55120 0.66892
# Poissons Ratio (z) = 0.37898 0.15639
#
# Static dielectric constant tensor:
#      x y z
#    x 1.683310 0.000000 0.000000 
#    y 0.000000 1.630720 0.000000 
#    z 0.000000 0.000000 1.602470 
# 
# From -- ./inp_files/54507.got.cif
#   From: 2010.05.17/outbox.cif.g08.bks.cpg/sg74_28_cif.got.tgz:54507.got - 2010.06.03 17:57:02.
