data_PCOD9538788
_publ_section_title
;
Structure prediction by ZEFSAII (Michael W. Deem and Ramdas Pophale) SiO2 
 PCOD9538788
Probable space group: I M M A
;
_chemical_formula_sum "Si O2"
_cell_formula_units_Z 88
_cell_length_a 22.198002
_cell_length_b 8.628496
_cell_length_c 23.652106
_cell_angle_alpha 90.000000
_cell_angle_beta 90.000000
_cell_angle_gamma 90.000000
_cell_volume 4530.214909
_symmetry_space_group_name_H-M "I M M A"
_symmetry_group_IT_number 74
_symmetry_cell_setting 'orthorhombic'
loop_
_space_group_symop_operation_xyz
x,y,z
-x,1/2-y,z
x,-y,-z
-x,1/2+y,-z
-x,-y,-z
x,1/2+y,-z
-x,y,z
x,1/2-y,z
1/2+x,1/2+y,1/2+z
1/2-x,-y,1/2+z
1/2+x,1/2-y,1/2-z
1/2-x,y,1/2-z
1/2-x,1/2-y,1/2-z
1/2+x,y,1/2-z
1/2-x,1/2+y,1/2+z
1/2+x,-y,1/2+z
loop_
_atom_site_type_symbol
_atom_site_label
_atom_site_fract_x
_atom_site_fract_y
_atom_site_fract_z
Si Si1 0.000000 0.061751 0.064368
Si Si2 0.626130 0.563120 0.620140
Si Si3 0.927854 0.073005 0.559348
Si Si4 0.317957 0.433543 0.735361
Si Si5 0.746400 0.563753 0.560828
Si Si6 0.152204 0.567482 0.649727
O O1 0.060567 0.012105 0.097995
O O2 0.000000 0.250000 0.062007
O O3 0.000000 0.000000 0.000000
O O4 0.625325 0.750000 0.622093
O O5 0.649360 0.505875 0.681106
O O6 0.678553 0.515045 0.576358
O O7 0.905876 0.250000 0.564807
O O8 0.000000 0.075839 0.559596
O O9 0.908120 0.000000 0.500000
O O10 0.903631 0.968120 0.609508
O O11 0.314001 0.250000 0.726345
O O12 0.250000 0.492693 0.750000
O O13 0.353050 0.474785 0.792455
O O14 0.764265 0.500000 0.500000
O O15 0.749214 0.750000 0.558769
O O16 0.790349 0.515081 0.611937
O O17 0.158307 0.750000 0.661613
#
# Coordination Sequence:
#
# PCOD9538788 Si02
#       6
#     8  16  16  16  16  16
#     4  10  22  40  66  94 124 164 207 252 303 362
#     4  10  21  40  61  86 120 159 202 245 298 361
#     4  10  21  38  59  84 117 154 193 239 290 347
#     4  11  23  39  61  88 116 152 196 246 302 360
#     4  10  21  34  54  84 117 150 188 238 293 350
#     4  11  22  37  59  85 115 155 197 242 297 356
#
# _framework density 19.425127
#
# number of rings (size 3 to 8) (size 9 to 14) (size 15 to 20)
#    0.000    1.636    1.818    2.727    0.000    6.182 
#    1.636    0.000    0.000    0.000    0.000    0.000 
#    0.000    0.000    0.000    0.000    0.000    0.000 
#
# Total GULP energy -245719.413672 kJ/mol
# GULP energy per Si atom -5584.532129 kJ/mol
# Density = 1.938091 g / cm^3
# Si number density = 19.425127 Si / 1000 Ang^3
#
#
#
# Elastic Constant Matrix: (Units=GPa)
#
#
# Indices 1 2 3 4 5 6 
#
# 1 95.2553 23.7710 48.8470 0.0000 0.0000 0.0000
# 2 23.7710 13.7346 4.7022 0.0000 0.0000 0.0000
# 3 48.8470 4.7022 125.8230 0.0000 0.0000 0.0000
# 4 0.0000 0.0000 0.0000 36.7701 0.0000 0.0000
# 5 0.0000 0.0000 0.0000 0.0000 21.0103 0.0000
# 6 0.0000 0.0000 0.0000 0.0000 0.0000 24.5703
#
#
#
# Elastic Compliance Matrix: (Units=1/GPa)
#
#
# Indices 1 2 3 4 5 6 
#
# 1 0.024526 -0.039697 -0.008038 0.000000 0.000000 0.000000
# 2 -0.039697 0.138003 0.010254 0.000000 0.000000 0.000000
# 3 -0.008038 0.010254 0.010685 0.000000 0.000000 0.000000
# 4 0.000000 0.000000 0.000000 0.027196 0.000000 0.000000
# 5 0.000000 0.000000 0.000000 0.000000 0.047596 0.000000
# 6 0.000000 0.000000 0.000000 0.000000 0.000000 0.040700
#
#
# Mechanical properties :
#
#
# Convention : Reuss Voigt Hill
#
# Bulk Modulus (GPa) = 10.17791 43.27258 26.72524
# Shear Modulus (GPa) = 12.61293 26.96965 19.79129
#
# Velocity S-wave (km/s) = 2.55092 3.73015 3.19541
# Velocity P-wave (km/s) = 3.73192 6.39351 5.23470
#
# Compressibility (1/GPa) = 0.09825200
#
# Stress axis : x y z
#
# Youngs Moduli (GPa) = 40.77246 7.24623 93.58896
#
# Poissons Ratio (x) = 0.28765 0.75228
# Poissons Ratio (y) = 1.61853 -0.95963
# Poissons Ratio (z) = 0.32773 -0.07430
#
# Static dielectric constant tensor:
#      x y z
#    x 1.717710 0.000000 0.000000 
#    y 0.000000 1.673520 0.000000 
#    z 0.000000 0.000000 1.648410 
# 
# From -- ./inp_files/48721.got.cif
#   From: 2010.05.17/outbox.cif.g08.bks.cpg/sg74_25_cif.got.tgz:48721.got - 2010.06.03 17:57:02.
