data_PCOD9538416
_publ_section_title
;
Structure prediction by ZEFSAII (Michael W. Deem and Ramdas Pophale) SiO2 
 PCOD9538416
Probable space group: I M M A
;
_chemical_formula_sum "Si O2"
_cell_formula_units_Z 96
_cell_length_a 29.231669
_cell_length_b 9.351075
_cell_length_c 19.379727
_cell_angle_alpha 90.000000
_cell_angle_beta 90.000000
_cell_angle_gamma 90.000000
_cell_volume 5297.400492
_symmetry_space_group_name_H-M "I M M A"
_symmetry_group_IT_number 74
_symmetry_cell_setting 'orthorhombic'
loop_
_space_group_symop_operation_xyz
x,y,z
-x,1/2-y,z
x,-y,-z
-x,1/2+y,-z
-x,-y,-z
x,1/2+y,-z
-x,y,z
x,1/2-y,z
1/2+x,1/2+y,1/2+z
1/2-x,-y,1/2+z
1/2+x,1/2-y,1/2-z
1/2-x,y,1/2-z
1/2-x,1/2-y,1/2-z
1/2+x,y,1/2-z
1/2-x,1/2+y,1/2+z
1/2+x,-y,1/2+z
loop_
_atom_site_type_symbol
_atom_site_label
_atom_site_fract_x
_atom_site_fract_y
_atom_site_fract_z
Si Si1 0.554795 0.911728 0.566432
Si Si2 0.302182 0.581551 0.427802
Si Si3 0.947460 0.578959 0.572236
Si Si4 0.765721 0.081265 0.328365
Si Si5 0.372743 0.080636 0.187746
Si Si6 0.109597 0.082387 0.828980
O O1 0.500000 0.904685 0.562544
O O2 0.573081 0.750000 0.565557
O O3 0.571260 0.000000 0.500000
O O4 0.569429 0.995458 0.634196
O O5 0.307501 0.500000 0.500000
O O6 0.294607 0.750000 0.439869
O O7 0.261295 0.512187 0.383599
O O8 0.346961 0.565961 0.379783
O O9 0.939033 0.500000 0.500000
O O10 0.944781 0.750000 0.561569
O O11 0.909741 0.541381 0.629432
O O12 0.000000 0.545911 0.594014
O O13 0.754954 0.250000 0.338142
O O14 0.750000 0.044526 0.250000
O O15 0.820176 0.062286 0.335227
O O16 0.378771 0.250000 0.203843
O O17 0.379967 0.987373 0.255705
O O18 0.099174 0.250000 0.822935
#
# Coordination Sequence:
#
# PCOD9538416 Si02
#       6
#    16  16  16  16  16  16
#     4  10  21  37  57  80 109 147 189 235 286 338
#     4  11  24  39  58  84 115 151 194 240 287 345
#     4   9  19  37  60  85 115 150 188 234 290 349
#     4  10  20  37  60  83 112 153 193 237 294 349
#     4  10  21  37  59  86 116 151 192 236 287 349
#     4  11  23  37  56  84 115 151 191 235 286 341
#
# _framework density 18.122097
#
# number of rings (size 3 to 8) (size 9 to 14) (size 15 to 20)
#    0.000    1.833    1.667    2.000    0.000    7.333 
#    0.000    3.333    0.000    0.000    0.000    0.000 
#    0.000    0.000    0.000    0.000    0.000    0.000 
#
# Total GULP energy -268062.782621 kJ/mol
# GULP energy per Si atom -5584.641305 kJ/mol
# Density = 1.808085 g / cm^3
# Si number density = 18.122097 Si / 1000 Ang^3
#
#
#
# Elastic Constant Matrix: (Units=GPa)
#
#
# Indices 1 2 3 4 5 6 
#
# 1 76.6075 53.6931 56.8618 0.0000 0.0000 0.0000
# 2 53.6931 108.1801 79.2340 0.0000 0.0000 0.0000
# 3 56.8618 79.2340 119.8863 0.0000 0.0000 0.0000
# 4 0.0000 0.0000 0.0000 38.3506 0.0000 0.0000
# 5 0.0000 0.0000 0.0000 0.0000 31.2483 0.0000
# 6 0.0000 0.0000 0.0000 0.0000 0.0000 11.7842
#
#
#
# Elastic Compliance Matrix: (Units=1/GPa)
#
#
# Indices 1 2 3 4 5 6 
#
# 1 0.022229 -0.006417 -0.006302 0.000000 0.000000 0.000000
# 2 -0.006417 0.019769 -0.010022 0.000000 0.000000 0.000000
# 3 -0.006302 -0.010022 0.017954 0.000000 0.000000 0.000000
# 4 0.000000 0.000000 0.000000 0.026075 0.000000 0.000000
# 5 0.000000 0.000000 0.000000 0.000000 0.032002 0.000000
# 6 0.000000 0.000000 0.000000 0.000000 0.000000 0.084860
#
#
# Mechanical properties :
#
#
# Convention : Reuss Voigt Hill
#
# Bulk Modulus (GPa) = 69.10974 76.02795 72.56885
# Shear Modulus (GPa) = 19.74767 23.93561 21.84164
#
# Velocity S-wave (km/s) = 3.30464 3.63822 3.47544
# Velocity P-wave (km/s) = 7.26494 7.72613 7.49908
#
# Compressibility (1/GPa) = 0.01446974
#
# Stress axis : x y z
#
# Youngs Moduli (GPa) = 44.98655 50.58342 55.69805
#
# Poissons Ratio (x) = 0.32460 0.35101
# Poissons Ratio (y) = 0.28869 0.55821
# Poissons Ratio (z) = 0.28350 0.50695
#
# Static dielectric constant tensor:
#      x y z
#    x 1.628850 0.000000 0.000000 
#    y 0.000000 1.612840 0.000000 
#    z 0.000000 0.000000 1.586300 
# 
# From -- ./inp_files/55022.got.cif
#   From: 2010.05.17/outbox.cif.g08.bks.cpg/sg74_28_cif.got.tgz:55022.got - 2010.06.03 17:57:02.
