data_PCOD9538996
_publ_section_title
;
Structure prediction by ZEFSAII (Michael W. Deem and Ramdas Pophale) SiO2 
 PCOD9538996
Probable space group: I M M A
;
_chemical_formula_sum "Si O2"
_cell_formula_units_Z 96
_cell_length_a 27.582072
_cell_length_b 15.043398
_cell_length_c 10.057693
_cell_angle_alpha 90.000000
_cell_angle_beta 90.000000
_cell_angle_gamma 90.000000
_cell_volume 4173.219314
_symmetry_space_group_name_H-M "I M M A"
_symmetry_group_IT_number 74
_symmetry_cell_setting 'orthorhombic'
loop_
_space_group_symop_operation_xyz
x,y,z
-x,1/2-y,z
x,-y,-z
-x,1/2+y,-z
-x,-y,-z
x,1/2+y,-z
-x,y,z
x,1/2-y,z
1/2+x,1/2+y,1/2+z
1/2-x,-y,1/2+z
1/2+x,1/2-y,1/2-z
1/2-x,y,1/2-z
1/2-x,1/2-y,1/2-z
1/2+x,y,1/2-z
1/2-x,1/2+y,1/2+z
1/2+x,-y,1/2+z
loop_
_atom_site_type_symbol
_atom_site_label
_atom_site_fract_x
_atom_site_fract_y
_atom_site_fract_z
Si Si1 0.793570 0.357999 0.345415
Si Si2 0.616997 0.151621 0.328278
Si Si3 0.596618 0.592090 0.167886
Si Si4 0.443191 0.395438 0.102150
Si Si5 0.946043 0.643684 0.054930
Si Si6 0.794611 0.641801 0.346827
O O1 0.794800 0.250000 0.351362
O O2 0.750000 0.385092 0.250000
O O3 0.841774 0.387798 0.267170
O O4 0.787866 0.386211 0.498493
O O5 0.635633 0.250000 0.366238
O O6 0.570572 0.157992 0.232801
O O7 0.596215 0.106072 0.459634
O O8 0.575950 0.493953 0.139194
O O9 0.567551 0.628730 0.292718
O O10 0.653608 0.601774 0.195069
O O11 0.585012 0.639444 0.027413
O O12 0.500000 0.396682 0.074723
O O13 0.946723 0.750000 0.031302
O O14 0.000000 0.608925 0.026121
O O15 0.798482 0.750000 0.342180
O O16 0.750000 0.617206 0.250000
#
# Coordination Sequence:
#
# PCOD9538996 Si02
#       6
#    16  16  16  16  16  16
#     4   9  18  34  57  85 116 151 193 243 303 366
#     4  10  21  38  60  88 120 156 202 258 313 366
#     4  11  22  39  59  84 124 160 202 247 307 369
#     4  11  23  40  63  86 118 165 211 256 305 368
#     4  10  21  36  57  87 120 155 200 254 307 363
#     4  10  21  37  62  93 121 155 200 253 309 365
#
# _framework density 23.003823000000001
#
# number of rings (size 3 to 8) (size 9 to 14) (size 15 to 20)
#    0.000    1.833    1.667    3.000    2.333    2.333 
#    0.000    2.500    0.000    0.000    0.000    0.000 
#    0.000    0.000    0.000    0.000    0.000    0.000 
#
# Total GULP energy -268068.807798 kJ/mol
# GULP energy per Si atom -5584.766829 kJ/mol
# Density = 2.295147 g / cm^3
# Si number density = 23.003823 Si / 1000 Ang^3
#
#
#
# Elastic Constant Matrix: (Units=GPa)
#
#
# Indices 1 2 3 4 5 6 
#
# 1 165.0391 7.6230 49.1389 0.0000 0.0000 0.0000
# 2 7.6230 59.0538 8.2265 0.0000 0.0000 0.0000
# 3 49.1389 8.2265 130.8702 0.0000 0.0000 0.0000
# 4 0.0000 0.0000 0.0000 17.6297 0.0000 0.0000
# 5 0.0000 0.0000 0.0000 0.0000 47.5061 0.0000
# 6 0.0000 0.0000 0.0000 0.0000 0.0000 6.9301
#
#
#
# Elastic Compliance Matrix: (Units=1/GPa)
#
#
# Indices 1 2 3 4 5 6 
#
# 1 0.006838 -0.000530 -0.002534 0.000000 0.000000 0.000000
# 2 -0.000530 0.017124 -0.000878 0.000000 0.000000 0.000000
# 3 -0.002534 -0.000878 0.008648 0.000000 0.000000 0.000000
# 4 0.000000 0.000000 0.000000 0.056722 0.000000 0.000000
# 5 0.000000 0.000000 0.000000 0.000000 0.021050 0.000000
# 6 0.000000 0.000000 0.000000 0.000000 0.000000 0.144298
#
#
# Mechanical properties :
#
#
# Convention : Reuss Voigt Hill
#
# Bulk Modulus (GPa) = 40.44100 53.88222 47.16161
# Shear Modulus (GPa) = 18.46336 33.74483 26.10409
#
# Velocity S-wave (km/s) = 2.83613 3.83420 3.37229
# Velocity P-wave (km/s) = 5.32383 6.56319 5.97572
#
# Compressibility (1/GPa) = 0.02472738
#
# Stress axis : x y z
#
# Youngs Moduli (GPa) = 146.23732 58.39643 115.63506
#
# Poissons Ratio (x) = 0.03093 0.29305
# Poissons Ratio (y) = 0.07746 0.10148
# Poissons Ratio (z) = 0.37061 0.05125
#
# Static dielectric constant tensor:
#      x y z
#    x 1.858820 0.000000 0.000000 
#    y 0.000000 1.906170 0.000000 
#    z 0.000000 0.000000 1.853330 
# 
# From -- ./inp_files/15321.got.cif
#   From: 2010.05.17/outbox.cif.g08.bks.cpg/sg74_8_cif.got.tgz:15321.got - 2010.06.03 17:57:02.
