data_PCOD9538544
_publ_section_title
;
Structure prediction by ZEFSAII (Michael W. Deem and Ramdas Pophale) SiO2 
 PCOD9538544
Probable space group: I M M A
;
_chemical_formula_sum "Si O2"
_cell_formula_units_Z 104
_cell_length_a 25.994111
_cell_length_b 22.542981
_cell_length_c 8.757269
_cell_angle_alpha 90.000000
_cell_angle_beta 90.000000
_cell_angle_gamma 90.000000
_cell_volume 5131.626089
_symmetry_space_group_name_H-M "I M M A"
_symmetry_group_IT_number 74
_symmetry_cell_setting 'orthorhombic'
loop_
_space_group_symop_operation_xyz
x,y,z
-x,1/2-y,z
x,-y,-z
-x,1/2+y,-z
-x,-y,-z
x,1/2+y,-z
-x,y,z
x,1/2-y,z
1/2+x,1/2+y,1/2+z
1/2-x,-y,1/2+z
1/2+x,1/2-y,1/2-z
1/2-x,y,1/2-z
1/2-x,1/2-y,1/2-z
1/2+x,y,1/2-z
1/2-x,1/2+y,1/2+z
1/2+x,-y,1/2+z
loop_
_atom_site_type_symbol
_atom_site_label
_atom_site_fract_x
_atom_site_fract_y
_atom_site_fract_z
Si Si1 0.409068 0.596489 0.326651
Si Si2 0.302646 0.930826 0.499710
Si Si3 0.556657 0.683344 0.580896
Si Si4 0.250000 0.145821 0.750000
Si Si5 0.147431 0.681771 0.401286
Si Si6 0.556544 0.978272 0.826138
Si Si7 0.858631 0.877546 0.724380
O O1 0.357064 0.575739 0.411665
O O2 0.440024 0.635704 0.446474
O O3 0.392685 0.639015 0.186530
O O4 0.436789 0.537161 0.273895
O O5 0.263254 0.894706 0.395818
O O6 0.313498 0.901265 0.664654
O O7 0.288590 0.000000 0.500000
O O8 0.500000 0.680013 0.654979
O O9 0.562331 0.750000 0.518926
O O10 0.604674 0.669481 0.689376
O O11 0.199110 0.180976 0.701644
O O12 0.130161 0.750000 0.418061
O O13 0.157841 0.651640 0.565391
O O14 0.500000 0.951635 0.796474
O O15 0.602949 0.933158 0.799946
O O16 0.558472 0.000000 0.000000
#
# Coordination Sequence:
#
# PCOD9538544 Si02
#       7
#    16  16  16   8  16  16  16
#     4  10  20  38  61  88 117 161 202 242 298 353
#     4  10  21  39  61  89 121 153 191 244 302 365
#     4  10  21  37  56  84 123 164 208 248 286 344
#     4  10  25  42  62  90 116 154 199 248 306 358
#     4  11  23  42  64  86 118 156 201 251 301 364
#     4  11  21  35  59  92 128 159 199 249 291 350
#     4  11  22  38  62  89 122 159 200 244 308 352
#
# _framework density 20.266480999999999
#
# number of rings (size 3 to 8) (size 9 to 14) (size 15 to 20)
#    0.000    1.538    3.077    2.077    0.000    1.846 
#    0.000    5.385    0.000    3.692    0.000    0.000 
#    0.000    0.000    0.000    0.000    0.000    0.000 
#
# Total GULP energy -290416.373613 kJ/mol
# GULP energy per Si atom -5584.930262 kJ/mol
# Density = 2.022035 g / cm^3
# Si number density = 20.266481 Si / 1000 Ang^3
#
#
#
# Elastic Constant Matrix: (Units=GPa)
#
#
# Indices 1 2 3 4 5 6 
#
# 1 40.8053 1.8764 -2.5549 0.0000 0.0000 0.0000
# 2 1.8764 107.6199 16.6924 0.0000 0.0000 0.0000
# 3 -2.5549 16.6924 79.9027 0.0000 0.0000 0.0000
# 4 0.0000 0.0000 0.0000 27.1000 0.0000 0.0000
# 5 0.0000 0.0000 0.0000 0.0000 6.4796 0.0000
# 6 0.0000 0.0000 0.0000 0.0000 0.0000 32.7486
#
#
#
# Elastic Compliance Matrix: (Units=1/GPa)
#
#
# Indices 1 2 3 4 5 6 
#
# 1 0.024589 -0.000569 0.000905 0.000000 0.000000 0.000000
# 2 -0.000569 0.009616 -0.002027 0.000000 0.000000 0.000000
# 3 0.000905 -0.002027 0.012968 0.000000 0.000000 0.000000
# 4 0.000000 0.000000 0.000000 0.036900 0.000000 0.000000
# 5 0.000000 0.000000 0.000000 0.000000 0.154330 0.000000
# 6 0.000000 0.000000 0.000000 0.000000 0.000000 0.030536
#
#
# Mechanical properties :
#
#
# Convention : Reuss Voigt Hill
#
# Bulk Modulus (GPa) = 22.83565 28.92842 25.88204
# Shear Modulus (GPa) = 17.42655 27.41991 22.42323
#
# Velocity S-wave (km/s) = 2.93554 3.68226 3.32990
# Velocity P-wave (km/s) = 4.77305 5.69067 5.25194
#
# Compressibility (1/GPa) = 0.04379117
#
# Stress axis : x y z
#
# Youngs Moduli (GPa) = 40.66786 103.99011 77.11500
#
# Poissons Ratio (x) = 0.05918 -0.06980
# Poissons Ratio (y) = 0.02314 0.15632
# Poissons Ratio (z) = -0.03681 0.21080
#
# Static dielectric constant tensor:
#      x y z
#    x 1.722670 0.000000 0.000000 
#    y 0.000000 1.698910 0.000000 
#    z 0.000000 0.000000 1.720950 
# 
# From -- ./inp_files/15234.got.cif
#   From: 2010.05.17/outbox.cif.g08.bks.cpg/sg74_8_cif.got.tgz:15234.got - 2010.06.03 17:57:02.
