data_PCOD9538961
_publ_section_title
;
Structure prediction by ZEFSAII (Michael W. Deem and Ramdas Pophale) SiO2 
 PCOD9538961
Probable space group: I M M A
;
_chemical_formula_sum "Si O2"
_cell_formula_units_Z 104
_cell_length_a 25.769670
_cell_length_b 18.255575
_cell_length_c 12.892633
_cell_angle_alpha 90.000000
_cell_angle_beta 90.000000
_cell_angle_gamma 90.000000
_cell_volume 6065.212117
_symmetry_space_group_name_H-M "I M M A"
_symmetry_group_IT_number 74
_symmetry_cell_setting 'orthorhombic'
loop_
_space_group_symop_operation_xyz
x,y,z
-x,1/2-y,z
x,-y,-z
-x,1/2+y,-z
-x,-y,-z
x,1/2+y,-z
-x,y,z
x,1/2-y,z
1/2+x,1/2+y,1/2+z
1/2-x,-y,1/2+z
1/2+x,1/2-y,1/2-z
1/2-x,y,1/2-z
1/2-x,1/2-y,1/2-z
1/2+x,y,1/2-z
1/2-x,1/2+y,1/2+z
1/2+x,-y,1/2+z
loop_
_atom_site_type_symbol
_atom_site_label
_atom_site_fract_x
_atom_site_fract_y
_atom_site_fract_z
Si Si1 0.250000 0.085403 0.250000
Si Si2 0.106224 0.469020 0.208958
Si Si3 0.671204 0.516834 0.119619
Si Si4 0.879838 0.881709 0.105021
Si Si5 0.834904 0.337344 0.120335
Si Si6 0.190923 0.670416 0.290420
Si Si7 0.000000 0.337294 0.936444
Si Si8 0.500000 0.551799 0.602116
O O1 0.220836 0.134880 0.163422
O O2 0.288648 0.031747 0.187289
O O3 0.117192 0.497284 0.323908
O O4 0.129723 0.532387 0.132805
O O5 0.128649 0.388294 0.191381
O O6 0.048418 0.464596 0.171774
O O7 0.682639 0.601899 0.136017
O O8 0.673281 0.500000 0.000000
O O9 0.849344 0.838946 0.195260
O O10 0.942569 0.865277 0.104309
O O11 0.853257 0.859709 0.996021
O O12 0.839684 0.250000 0.130827
O O13 0.183256 0.750000 0.339436
O O14 0.250000 0.666773 0.250000
O O15 0.000000 0.250000 0.927702
O O16 0.000000 0.367157 0.054179
O O17 0.500000 0.500000 0.500000
#
# Coordination Sequence:
#
# PCOD9538961 Si02
#       8
#     8  16  16  16  16  16   8   8
#     4  10  23  36  53  76 106 150 192 230 281 344
#     4  10  21  36  56  81 110 149 188 228 283 351
#     4  10  22  39  57  78 108 150 196 236 284 344
#     4  11  21  36  57  83 118 152 183 230 293 355
#     4  11  21  34  51  79 114 147 183 229 281 340
#     4  10  21  37  56  85 114 145 191 242 290 339
#     4  12  22  32  54  90 120 148 183 230 293 351
#     4  12  18  34  57  84 115 152 181 226 291 351
#
# _framework density 17.146968999999999
#
# number of rings (size 3 to 8) (size 9 to 14) (size 15 to 20)
#    0.000    1.385    3.846    2.077    2.154    0.000 
#    0.000    3.462    0.000    0.000    0.000    0.000 
#    0.000    0.000    0.000    0.000    0.000    0.000 
#
# Total GULP energy -289614.098772 kJ/mol
# GULP energy per Si atom -5569.501899 kJ/mol
# Density = 1.710794 g / cm^3
# Si number density = 17.146969 Si / 1000 Ang^3
#
#
#
# Elastic Constant Matrix: (Units=GPa)
#
#
# Indices 1 2 3 4 5 6 
#
# 1 94.3959 25.0781 38.7757 0.0000 0.0000 0.0000
# 2 25.0781 134.5152 48.3664 0.0000 0.0000 0.0000
# 3 38.7757 48.3664 103.9486 0.0000 0.0000 0.0000
# 4 0.0000 0.0000 0.0000 10.8650 0.0000 0.0000
# 5 0.0000 0.0000 0.0000 0.0000 10.0273 0.0000
# 6 0.0000 0.0000 0.0000 0.0000 0.0000 11.3925
#
#
#
# Elastic Compliance Matrix: (Units=1/GPa)
#
#
# Indices 1 2 3 4 5 6 
#
# 1 0.012580 -0.000790 -0.004325 0.000000 0.000000 0.000000
# 2 -0.000790 0.008977 -0.003882 0.000000 0.000000 0.000000
# 3 -0.004325 -0.003882 0.013040 0.000000 0.000000 0.000000
# 4 0.000000 0.000000 0.000000 0.092039 0.000000 0.000000
# 5 0.000000 0.000000 0.000000 0.000000 0.099728 0.000000
# 6 0.000000 0.000000 0.000000 0.000000 0.000000 0.087777
#
#
# Mechanical properties :
#
#
# Convention : Reuss Voigt Hill
#
# Bulk Modulus (GPa) = 60.23277 61.92225 61.07751
# Shear Modulus (GPa) = 14.80734 21.16626 17.98680
#
# Velocity S-wave (km/s) = 2.94182 3.51722 3.24231
# Velocity P-wave (km/s) = 6.83686 7.25848 7.05082
#
# Compressibility (1/GPa) = 0.01660226
#
# Stress axis : x y z
#
# Youngs Moduli (GPa) = 79.48946 111.39141 76.68758
#
# Poissons Ratio (x) = 0.08803 0.33168
# Poissons Ratio (y) = 0.06282 0.29772
# Poissons Ratio (z) = 0.34380 0.43246
#
# Static dielectric constant tensor:
#      x y z
#    x 1.629970 0.000000 0.000000 
#    y 0.000000 1.615130 0.000000 
#    z 0.000000 0.000000 1.559610 
# 
# From -- ./inp_files/26385.got.cif
#   From: 2010.05.17/outbox.cif.g08.bks.cpg/sg74_14_cif.got.tgz:26385.got - 2010.06.03 17:57:02.
