data_PCOD9538810
_publ_section_title
;
Structure prediction by ZEFSAII (Michael W. Deem and Ramdas Pophale) SiO2 
 PCOD9538810
Probable space group: I M M A
;
_chemical_formula_sum "Si O2"
_cell_formula_units_Z 64
_cell_length_a 32.771133
_cell_length_b 10.886813
_cell_length_c 8.953451
_cell_angle_alpha 90.000000
_cell_angle_beta 90.000000
_cell_angle_gamma 90.000000
_cell_volume 3194.351335
_symmetry_space_group_name_H-M "I M M A"
_symmetry_group_IT_number 74
_symmetry_cell_setting 'orthorhombic'
loop_
_space_group_symop_operation_xyz
x,y,z
-x,1/2-y,z
x,-y,-z
-x,1/2+y,-z
-x,-y,-z
x,1/2+y,-z
-x,y,z
x,1/2-y,z
1/2+x,1/2+y,1/2+z
1/2-x,-y,1/2+z
1/2+x,1/2-y,1/2-z
1/2-x,y,1/2-z
1/2-x,1/2-y,1/2-z
1/2+x,y,1/2-z
1/2-x,1/2+y,1/2+z
1/2+x,-y,1/2+z
loop_
_atom_site_type_symbol
_atom_site_label
_atom_site_fract_x
_atom_site_fract_y
_atom_site_fract_z
Si Si1 0.438544 0.617208 0.089621
Si Si2 0.547297 0.879460 0.437436
Si Si3 0.785327 0.107181 0.876272
Si Si4 0.659626 0.611547 0.105221
O O1 0.450260 0.750000 0.024534
O O2 0.453116 0.613137 0.259443
O O3 0.389302 0.612541 0.095703
O O4 0.453142 0.500000 0.000000
O O5 0.500000 0.877225 0.489419
O O6 0.566690 0.750000 0.481664
O O7 0.568036 0.000000 0.500000
O O8 0.783780 0.250000 0.932567
O O9 0.750000 0.095110 0.750000
O O10 0.825936 0.092723 0.775084
O O11 0.782290 0.000000 0.000000
O O12 0.673956 0.750000 0.060793
O O13 0.674546 0.500000 0.000000
#
# Coordination Sequence:
#
# PCOD9538810 Si02
#       4
#    16  16  16  16
#     4   9  18  32  49  70  96 124 155 193 235 278
#     4   9  18  32  48  67  93 124 157 194 235 278
#     4  10  21  35  51  73  99 126 158 195 234 277
#     4   9  18  33  51  71  96 125 157 193 233 278
#
# _framework density 20.035367000000001
#
# number of rings (size 3 to 8) (size 9 to 14) (size 15 to 20)
#    0.000    2.750    0.000    0.750    0.000    4.000 
#    0.000    0.000    0.000    0.000    0.000    0.000 
#    0.000    0.000    0.000    0.000    0.000    0.000 
#
# Total GULP energy -178257.588814 kJ/mol
# GULP energy per Si atom -5570.549650 kJ/mol
# Density = 1.998977 g / cm^3
# Si number density = 20.035367 Si / 1000 Ang^3
#
#
#
# Elastic Constant Matrix: (Units=GPa)
#
#
# Indices 1 2 3 4 5 6 
#
# 1 36.9579 26.0378 8.0504 0.0000 0.0000 0.0000
# 2 26.0378 257.8573 95.3777 0.0000 0.0000 0.0000
# 3 8.0504 95.3777 57.2008 0.0000 0.0000 0.0000
# 4 0.0000 0.0000 0.0000 46.3653 0.0000 0.0000
# 5 0.0000 0.0000 0.0000 0.0000 23.6927 0.0000
# 6 0.0000 0.0000 0.0000 0.0000 0.0000 33.1920
#
#
#
# Elastic Compliance Matrix: (Units=1/GPa)
#
#
# Indices 1 2 3 4 5 6 
#
# 1 0.029227 -0.003731 0.002107 0.000000 0.000000 0.000000
# 2 -0.003731 0.010595 -0.017142 0.000000 0.000000 0.000000
# 3 0.002107 -0.017142 0.045768 0.000000 0.000000 0.000000
# 4 0.000000 0.000000 0.000000 0.021568 0.000000 0.000000
# 5 0.000000 0.000000 0.000000 0.000000 0.042207 0.000000
# 6 0.000000 0.000000 0.000000 0.000000 0.000000 0.030128
#
#
# Mechanical properties :
#
#
# Convention : Reuss Voigt Hill
#
# Bulk Modulus (GPa) = 20.80718 67.88309 44.34513
# Shear Modulus (GPa) = 21.45518 35.48668 28.47093
#
# Velocity S-wave (km/s) = 3.27596 4.21313 3.77375
# Velocity P-wave (km/s) = 4.97162 7.59095 6.41636
#
# Compressibility (1/GPa) = 0.04806034
#
# Stress axis : x y z
#
# Youngs Moduli (GPa) = 34.21470 94.38110 21.84922
#
# Poissons Ratio (x) = 0.35211 -0.04604
# Poissons Ratio (y) = 0.12765 0.37453
# Poissons Ratio (z) = -0.07210 1.61786
#
# Static dielectric constant tensor:
#      x y z
#    x 1.773960 0.000000 0.000000 
#    y 0.000000 1.782260 0.000000 
#    z 0.000000 0.000000 1.655350 
# 
# From -- ./inp_files/15826.got.cif
#   From: 2010.05.17/outbox.cif.g08.bks.cpg/sg74_8_cif.got.tgz:15826.got - 2010.06.03 17:57:02.
