data_PCOD9538740
_publ_section_title
;
Structure prediction by ZEFSAII (Michael W. Deem and Ramdas Pophale) SiO2 
 PCOD9538740
Probable space group: I M M A
;
_chemical_formula_sum "Si O2"
_cell_formula_units_Z 112
_cell_length_a 14.987827
_cell_length_b 28.914171
_cell_length_c 13.999195
_cell_angle_alpha 90.000000
_cell_angle_beta 90.000000
_cell_angle_gamma 90.000000
_cell_volume 6066.699444
_symmetry_space_group_name_H-M "I M M A"
_symmetry_group_IT_number 74
_symmetry_cell_setting 'orthorhombic'
loop_
_space_group_symop_operation_xyz
x,y,z
-x,1/2-y,z
x,-y,-z
-x,1/2+y,-z
-x,-y,-z
x,1/2+y,-z
-x,y,z
x,1/2-y,z
1/2+x,1/2+y,1/2+z
1/2-x,-y,1/2+z
1/2+x,1/2-y,1/2-z
1/2-x,y,1/2-z
1/2-x,1/2-y,1/2-z
1/2+x,y,1/2-z
1/2-x,1/2+y,1/2+z
1/2+x,-y,1/2+z
loop_
_atom_site_type_symbol
_atom_site_label
_atom_site_fract_x
_atom_site_fract_y
_atom_site_fract_z
Si Si1 0.104638 0.380870 0.160247
Si Si2 0.786330 0.985949 0.386182
Si Si3 0.402328 0.487626 0.388712
Si Si4 0.895940 0.398532 0.575037
Si Si5 0.104634 0.924763 0.646376
Si Si6 0.896011 0.697534 0.488879
Si Si7 0.735855 0.801366 0.636071
O O1 0.115208 0.432634 0.119120
O O2 0.128462 0.388089 0.272141
O O3 0.168496 0.343095 0.114158
O O4 0.000000 0.368290 0.152905
O O5 0.834729 0.936960 0.376459
O O6 0.785924 0.000000 0.500000
O O7 0.684413 0.985749 0.352142
O O8 0.839928 0.028563 0.340797
O O9 0.408383 0.500000 0.500000
O O10 0.500000 0.497341 0.345187
O O11 0.884136 0.406863 0.460815
O O12 0.876395 0.344033 0.584863
O O13 0.000000 0.407311 0.597778
O O14 0.000000 0.935076 0.658747
O O15 0.888907 0.750000 0.450872
O O16 0.827411 0.694248 0.576809
O O17 0.000000 0.690785 0.519478
O O18 0.699076 0.750000 0.612248
O O19 0.750000 0.801691 0.750000
#
# Coordination Sequence:
#
# PCOD9538740 Si02
#       7
#    16  16  16  16  16  16  16
#     4  10  21  33  47  62  84 118 151 188 226 256
#     4   9  17  26  43  63  81 111 135 179 215 254
#     4   9  19  32  43  59  80 109 147 181 217 262
#     4   9  16  27  44  65  87 110 139 172 215 266
#     4   9  17  28  41  63  87 111 142 177 217 260
#     4   9  18  31  45  62  85 112 141 178 221 264
#     4  10  21  31  44  62  83 113 150 188 221 256
#
# _framework density 18.461438999999999
#
# number of rings (size 3 to 8) (size 9 to 14) (size 15 to 20)
#    0.000    2.714    0.000    1.286    8.000    3.714 
#    0.000    1.429    0.000    0.000    0.000    0.000 
#    0.000    0.000    0.000    3.857    0.000   38.286 
#
# Total GULP energy -312269.717638 kJ/mol
# GULP energy per Si atom -5576.244958 kJ/mol
# Density = 1.841942 g / cm^3
# Si number density = 18.461439 Si / 1000 Ang^3
#
#
#
# Elastic Constant Matrix: (Units=GPa)
#
#
# Indices 1 2 3 4 5 6 
#
# 1 111.2727 90.3993 2.3159 0.0000 0.0000 0.0000
# 2 90.3993 133.2571 4.8289 -0.0001 0.0000 0.0000
# 3 2.3159 4.8289 14.4372 0.0000 0.0000 0.0000
# 4 0.0000 -0.0001 0.0000 22.2624 0.0000 0.0000
# 5 0.0000 0.0000 0.0000 0.0000 11.1160 0.0000
# 6 0.0000 0.0000 0.0000 0.0000 0.0000 35.5115
#
#
#
# Elastic Compliance Matrix: (Units=1/GPa)
#
#
# Indices 1 2 3 4 5 6 
#
# 1 0.020047 -0.013648 0.001349 0.000000 0.000000 0.000000
# 2 -0.013648 0.016888 -0.003459 0.000000 0.000000 0.000000
# 3 0.001349 -0.003459 0.070206 0.000000 0.000000 0.000000
# 4 0.000000 0.000000 0.000000 0.044919 0.000000 0.000000
# 5 0.000000 0.000000 0.000000 0.000000 0.089961 0.000000
# 6 0.000000 0.000000 0.000000 0.000000 0.000000 0.028160
#
#
# Mechanical properties :
#
#
# Convention : Reuss Voigt Hill
#
# Bulk Modulus (GPa) = 13.22323 50.45058 31.83690
# Shear Modulus (GPa) = 15.29490 24.53950 19.91720
#
# Velocity S-wave (km/s) = 2.88145 3.64982 3.28815
# Velocity P-wave (km/s) = 4.27183 6.71926 5.63014
#
# Compressibility (1/GPa) = 0.07562451
#
# Stress axis : x y z
#
# Youngs Moduli (GPa) = 49.88279 59.21189 14.24377
#
# Poissons Ratio (x) = 0.80815 -0.01922
# Poissons Ratio (y) = 0.68082 0.04928
# Poissons Ratio (z) = -0.06731 0.20484
#
# Static dielectric constant tensor:
#      x y z
#    x 1.670270 0.000000 0.000000 
#    y 0.000000 1.674530 0.000000 
#    z 0.000000 0.000000 1.636030 
# 
# From -- ./inp_files/33131.got.cif
#   From: 2010.05.17/outbox.cif.g08.bks.cpg/sg74_17_cif.got.tgz:33131.got - 2010.06.03 17:57:02.
