data_PCOD9538719
_publ_section_title
;
Structure prediction by ZEFSAII (Michael W. Deem and Ramdas Pophale) SiO2 
 PCOD9538719
Probable space group: I M M A
;
_chemical_formula_sum "Si O2"
_cell_formula_units_Z 68
_cell_length_a 10.129140
_cell_length_b 14.626181
_cell_length_c 19.165665
_cell_angle_alpha 90.000000
_cell_angle_beta 90.000000
_cell_angle_gamma 90.000000
_cell_volume 2839.405440
_symmetry_space_group_name_H-M "I M M A"
_symmetry_group_IT_number 74
_symmetry_cell_setting 'orthorhombic'
loop_
_space_group_symop_operation_xyz
x,y,z
-x,1/2-y,z
x,-y,-z
-x,1/2+y,-z
-x,-y,-z
x,1/2+y,-z
-x,y,z
x,1/2-y,z
1/2+x,1/2+y,1/2+z
1/2-x,-y,1/2+z
1/2+x,1/2-y,1/2-z
1/2-x,y,1/2-z
1/2-x,1/2-y,1/2-z
1/2+x,y,1/2-z
1/2-x,1/2+y,1/2+z
1/2+x,-y,1/2+z
loop_
_atom_site_type_symbol
_atom_site_label
_atom_site_fract_x
_atom_site_fract_y
_atom_site_fract_z
Si Si1 0.851586 0.643681 0.194719
Si Si2 0.500000 0.143396 0.427043
Si Si3 0.857698 0.388536 0.581161
Si Si4 0.828017 0.750000 0.689525
Si Si5 0.000000 0.750000 0.795160
Si Si6 0.793318 0.099381 0.428847
O O1 0.866532 0.750000 0.215034
O O2 0.750000 0.598760 0.250000
O O3 0.770361 0.642976 0.122960
O O4 0.000000 0.604320 0.190890
O O5 0.500000 0.250000 0.453645
O O6 0.500000 0.158976 0.343722
O O7 0.636240 0.095417 0.444165
O O8 0.848790 0.498613 0.582322
O O9 0.851911 0.361030 0.500329
O O10 0.000000 0.360181 0.611887
O O11 0.664189 0.750000 0.720145
O O12 0.818567 0.838044 0.638180
O O13 0.000000 0.750000 0.705629
#
# Coordination Sequence:
#
# PCOD9538719 Si02
#       6
#    16   8  16   8   4  16
#     4  10  23  46  73 100 128 169 222 282 344 407
#     4  10  20  41  61 100 135 172 226 304 332 418
#     4  11  27  46  63  99 139 183 231 284 333 412
#     4  12  22  42  66 100 131 188 220 280 342 413
#     4  10  22  38  64 100 142 166 240 276 340 408
#     4  11  24  42  65  93 141 183 230 277 341 408
#
# _framework density 23.948674
#
# number of rings (size 3 to 8) (size 9 to 14) (size 15 to 20)
#    0.353    0.941    3.529    2.118    8.235    3.294 
#    0.000    0.000    0.000    0.000    0.000    0.000 
#    0.000    0.000    0.000    0.000    0.000    0.000 
#
# Total GULP energy -189828.903257 kJ/mol
# GULP energy per Si atom -5583.203037 kJ/mol
# Density = 2.389417 g / cm^3
# Si number density = 23.948674 Si / 1000 Ang^3
#
#
#
# Elastic Constant Matrix: (Units=GPa)
#
#
# Indices 1 2 3 4 5 6 
#
# 1 264.7042 15.6282 55.9651 0.0000 0.0000 0.0000
# 2 15.6282 78.5212 24.0375 0.0000 0.0000 0.0000
# 3 55.9651 24.0375 128.1163 0.0000 0.0000 0.0000
# 4 0.0000 0.0000 0.0000 -101.1497 0.0000 0.0000
# 5 0.0000 0.0000 0.0000 0.0000 41.5995 0.0000
# 6 0.0000 0.0000 0.0000 0.0000 0.0000 15.7152
#
#
#
# Elastic Compliance Matrix: (Units=1/GPa)
#
#
# Indices 1 2 3 4 5 6 
#
# 1 0.004168 -0.000289 -0.001767 0.000000 0.000000 0.000000
# 2 -0.000289 0.013531 -0.002413 0.000000 0.000000 0.000000
# 3 -0.001767 -0.002413 0.009030 0.000000 0.000000 0.000000
# 4 0.000000 0.000000 0.000000 -0.009886 0.000000 0.000000
# 5 0.000000 0.000000 0.000000 0.000000 0.024039 0.000000
# 6 0.000000 0.000000 0.000000 0.000000 0.000000 0.063633
#
#
# Mechanical properties :
#
#
# Convention : Reuss Voigt Hill
#
# Bulk Modulus (GPa) = 56.20067 73.62258 64.91162
# Shear Modulus (GPa) = 41.88232 16.28038 29.08135
#
# Velocity S-wave (km/s) = 4.18645 2.61013 3.48849
# Velocity P-wave (km/s) = 6.84737 6.31603 6.58706
#
# Compressibility (1/GPa) = 0.01779338
#
# Stress axis : x y z
#
# Youngs Moduli (GPa) = 239.90164 73.90172 110.74422
#
# Poissons Ratio (x) = 0.02134 0.19565
# Poissons Ratio (y) = 0.06928 0.26719
# Poissons Ratio (z) = 0.42383 0.17830
#
# Static dielectric constant tensor:
#      x y z
#    x 2.021860 0.000000 0.000000 
#    y 0.000000 1.871160 0.000000 
#    z 0.000000 0.000000 1.916770 
# 
# From -- ./inp_files/48168.got.cif
#   From: 2010.05.17/outbox.cif.g08.bks.cpg/sg74_25_cif.got.tgz:48168.got - 2010.06.03 17:57:02.
