data_PCOD9538642
_publ_section_title
;
Structure prediction by ZEFSAII (Michael W. Deem and Ramdas Pophale) SiO2 
 PCOD9538642
Probable space group: I M M A
;
_chemical_formula_sum "Si O2"
_cell_formula_units_Z 52
_cell_length_a 14.911172
_cell_length_b 14.267453
_cell_length_c 13.293957
_cell_angle_alpha 90.000000
_cell_angle_beta 90.000000
_cell_angle_gamma 90.000000
_cell_volume 2828.215513
_symmetry_space_group_name_H-M "I M M A"
_symmetry_group_IT_number 74
_symmetry_cell_setting 'orthorhombic'
loop_
_space_group_symop_operation_xyz
x,y,z
-x,1/2-y,z
x,-y,-z
-x,1/2+y,-z
-x,-y,-z
x,1/2+y,-z
-x,y,z
x,1/2-y,z
1/2+x,1/2+y,1/2+z
1/2-x,-y,1/2+z
1/2+x,1/2-y,1/2-z
1/2-x,y,1/2-z
1/2-x,1/2-y,1/2-z
1/2+x,y,1/2-z
1/2-x,1/2+y,1/2+z
1/2+x,-y,1/2+z
loop_
_atom_site_type_symbol
_atom_site_label
_atom_site_fract_x
_atom_site_fract_y
_atom_site_fract_z
Si Si1 0.350249 0.250000 0.862633
Si Si2 0.164540 0.750000 0.680744
Si Si3 0.134842 0.250000 0.874508
Si Si4 0.000000 0.750000 0.831796
Si Si5 0.604546 0.602665 0.977296
Si Si6 0.000000 0.612642 0.015665
O O1 0.242764 0.250000 0.884365
O O2 0.375917 0.250000 0.746068
O O3 0.389699 0.160987 0.920220
O O4 0.250000 0.750000 0.750000
O O5 0.156582 0.839397 0.607359
O O6 0.083443 0.750000 0.758246
O O7 0.085400 0.340297 0.925237
O O8 0.000000 0.838953 0.906114
O O9 0.500000 0.596777 0.945846
O O10 0.640071 0.500000 0.000000
O O11 0.000000 0.500000 0.000000
#
# Coordination Sequence:
#
# PCOD9538642 Si02
#       6
#     8   8   8   4  16   8
#     4  10  20  39  63  84 125 151 193 255 294 359
#     4  11  22  41  63  88 128 166 195 256 313 363
#     4   9  22  40  58  90 113 159 201 235 307 353
#     4  10  22  42  56  90 122 162 214 238 306 382
#     4  10  22  39  63  92 117 155 203 254 301 354
#     4  10  24  40  61  82 122 162 201 248 289 366
#
# _framework density 18.386151999999999
#
# number of rings (size 3 to 8) (size 9 to 14) (size 15 to 20)
#    0.000    2.154    1.538    1.385   12.923    3.692 
#    5.538    0.000    0.000    0.000    0.000    0.000 
#    0.000    0.000    0.000    0.000    0.000    0.000 
#
# Total GULP energy -144998.491385 kJ/mol
# GULP energy per Si atom -5576.865053 kJ/mol
# Density = 1.834430 g / cm^3
# Si number density = 18.386152 Si / 1000 Ang^3
#
#
#
# Elastic Constant Matrix: (Units=GPa)
#
#
# Indices 1 2 3 4 5 6 
#
# 1 94.8316 32.7945 44.3139 0.0000 0.0000 0.0000
# 2 32.7945 194.4864 76.0463 0.0000 0.0000 0.0000
# 3 44.3139 76.0463 146.2987 0.0000 0.0000 0.0000
# 4 0.0000 0.0000 0.0000 -8.4429 0.0000 0.0000
# 5 0.0000 0.0000 0.0000 0.0000 41.0881 0.0000
# 6 0.0000 0.0000 0.0000 0.0000 0.0000 19.4235
#
#
#
# Elastic Compliance Matrix: (Units=1/GPa)
#
#
# Indices 1 2 3 4 5 6 
#
# 1 0.012377 -0.000780 -0.003344 0.000000 0.000000 0.000000
# 2 -0.000780 0.006502 -0.003144 0.000000 0.000000 0.000000
# 3 -0.003344 -0.003144 0.009482 0.000000 0.000000 0.000000
# 4 0.000000 0.000000 0.000000 -0.118443 0.000000 0.000000
# 5 0.000000 0.000000 0.000000 0.000000 0.024338 0.000000
# 6 0.000000 0.000000 0.000000 0.000000 0.000000 0.051484
#
#
# Mechanical properties :
#
#
# Convention : Reuss Voigt Hill
#
# Bulk Modulus (GPa) = 72.31984 82.43623 77.37803
# Shear Modulus (GPa) = 1023.70468 29.24456 526.47462
#
# Velocity S-wave (km/s) = 23.62179 3.99253 16.94003
# Velocity P-wave (km/s) = 27.98937 8.13554 20.61058
#
# Compressibility (1/GPa) = 0.01382746
#
# Stress axis : x y z
#
# Youngs Moduli (GPa) = 80.79423 153.78731 105.45898
#
# Poissons Ratio (x) = 0.11989 0.35263
# Poissons Ratio (y) = 0.06299 0.33155
# Poissons Ratio (z) = 0.27016 0.48349
#
# Static dielectric constant tensor:
#      x y z
#    x 1.656670 0.000000 0.000000 
#    y 0.000000 0.410640 0.000000 
#    z 0.000000 0.000000 1.600640 
# 
# From -- ./inp_files/21496.got.cif
#   From: 2010.05.17/outbox.cif.g08.bks.cpg/sg74_11_cif.got.tgz:21496.got - 2010.06.03 17:57:02.
