data_PCOD9538152
_publ_section_title
;
Structure prediction by ZEFSAII (Michael W. Deem and Ramdas Pophale) SiO2 
 PCOD9538152
Probable space group: I M M A
;
_chemical_formula_sum "Si O2"
_cell_formula_units_Z 72
_cell_length_a 9.872945
_cell_length_b 23.114994
_cell_length_c 16.876170
_cell_angle_alpha 90.000000
_cell_angle_beta 90.000000
_cell_angle_gamma 90.000000
_cell_volume 3851.362472
_symmetry_space_group_name_H-M "I M M A"
_symmetry_group_IT_number 74
_symmetry_cell_setting 'orthorhombic'
loop_
_space_group_symop_operation_xyz
x,y,z
-x,1/2-y,z
x,-y,-z
-x,1/2+y,-z
-x,-y,-z
x,1/2+y,-z
-x,y,z
x,1/2-y,z
1/2+x,1/2+y,1/2+z
1/2-x,-y,1/2+z
1/2+x,1/2-y,1/2-z
1/2-x,y,1/2-z
1/2-x,1/2-y,1/2-z
1/2+x,y,1/2-z
1/2-x,1/2+y,1/2+z
1/2+x,-y,1/2+z
loop_
_atom_site_type_symbol
_atom_site_label
_atom_site_fract_x
_atom_site_fract_y
_atom_site_fract_z
Si Si1 0.749540 0.496729 0.086778
Si Si2 0.000000 0.073513 0.134720
Si Si3 0.500000 0.819543 0.538832
Si Si4 0.500000 0.501092 0.799308
Si Si5 0.000000 0.870774 0.358179
Si Si6 0.298014 0.127420 0.588207
Si Si7 0.000000 0.315098 0.798841
O O1 0.636500 0.485067 0.152231
O O2 0.821723 0.558775 0.096124
O O3 0.866050 0.449535 0.091264
O O4 0.683835 0.500000 0.000000
O O5 0.000000 0.142736 0.120153
O O6 0.000000 0.038997 0.219006
O O7 0.500000 0.750000 0.548022
O O8 0.372536 0.841469 0.485060
O O9 0.500000 0.430251 0.804497
O O10 0.863927 0.868028 0.409204
O O11 0.000000 0.820046 0.294712
O O12 0.367298 0.155073 0.665176
O O13 0.000000 0.250000 0.827694
#
# Coordination Sequence:
#
# PCOD9538152 Si02
#       7
#    16   8   8   8   8  16   8
#     4  11  20  36  62  92 120 149 184 237 302 367
#     4  12  21  37  61  89 116 161 199 240 287 359
#     4  11  23  40  58  81 112 158 214 253 279 330
#     4  10  23  37  58  92 129 145 179 238 314 355
#     4  10  21  35  55  86 119 151 182 234 303 370
#     4  10  20  36  56  83 116 148 189 241 296 352
#     4  11  22  34  50  76 115 158 197 232 275 343
#
# _framework density 18.694682
#
# number of rings (size 3 to 8) (size 9 to 14) (size 15 to 20)
#    0.000    1.333    2.222    6.000    0.000    6.222 
#    0.000    0.000    0.000    2.667    0.000    0.000 
#    0.000    0.000    0.000    0.000    0.000    0.000 
#
# Total GULP energy -200760.902500 kJ/mol
# GULP energy per Si atom -5576.691736 kJ/mol
# Density = 1.865213 g / cm^3
# Si number density = 18.694682 Si / 1000 Ang^3
#
#
#
# Elastic Constant Matrix: (Units=GPa)
#
#
# Indices 1 2 3 4 5 6 
#
# 1 113.7319 43.4927 27.5727 0.0000 0.0000 0.0000
# 2 43.4927 135.7011 32.3912 0.0000 0.0000 0.0000
# 3 27.5727 32.3912 88.3448 0.0000 0.0000 0.0000
# 4 0.0000 0.0000 0.0000 23.3672 0.0000 0.0000
# 5 0.0000 0.0000 0.0000 0.0000 19.1024 0.0000
# 6 0.0000 0.0000 0.0000 0.0000 0.0000 -68.0449
#
#
#
# Elastic Compliance Matrix: (Units=1/GPa)
#
#
# Indices 1 2 3 4 5 6 
#
# 1 0.010403 -0.002805 -0.002218 0.000000 0.000000 0.000000
# 2 -0.002805 0.008832 -0.002363 0.000000 0.000000 0.000000
# 3 -0.002218 -0.002363 0.012878 0.000000 0.000000 0.000000
# 4 0.000000 0.000000 0.000000 0.042795 0.000000 0.000000
# 5 0.000000 0.000000 0.000000 0.000000 0.052350 0.000000
# 6 0.000000 0.000000 0.000000 0.000000 0.000000 -0.014696
#
#
# Mechanical properties :
#
#
# Convention : Reuss Voigt Hill
#
# Bulk Modulus (GPa) = 57.66684 60.52124 59.09404
# Shear Modulus (GPa) = 37.56180 10.50634 24.03407
#
# Velocity S-wave (km/s) = 4.48730 2.37322 3.58943
# Velocity P-wave (km/s) = 7.60009 6.32087 6.98981
#
# Compressibility (1/GPa) = 0.01734099
#
# Stress axis : x y z
#
# Youngs Moduli (GPa) = 96.12617 113.22398 77.65166
#
# Poissons Ratio (x) = 0.31755 0.17227
# Poissons Ratio (y) = 0.26960 0.18348
# Poissons Ratio (z) = 0.21326 0.26754
#
# Static dielectric constant tensor:
#      x y z
#    x 1.674980 0.000000 0.000000 
#    y 0.000000 1.653930 0.000000 
#    z 0.000000 0.000000 1.684830 
# 
# From -- ./inp_files/39545.got.cif
#   From: 2010.05.17/outbox.cif.g08.bks.cpg/sg74_20_cif.got.tgz:39545.got - 2010.06.03 17:57:02.
