data_PCOD9538067
_publ_section_title
;
Structure prediction by ZEFSAII (Michael W. Deem and Ramdas Pophale) SiO2 
 PCOD9538067
Probable space group: I M M A
;
_chemical_formula_sum "Si O2"
_cell_formula_units_Z 116
_cell_length_a 7.765019
_cell_length_b 24.851673
_cell_length_c 29.399301
_cell_angle_alpha 90.000000
_cell_angle_beta 90.000000
_cell_angle_gamma 90.000000
_cell_volume 5673.292274
_symmetry_space_group_name_H-M "I M M A"
_symmetry_group_IT_number 74
_symmetry_cell_setting 'orthorhombic'
loop_
_space_group_symop_operation_xyz
x,y,z
-x,1/2-y,z
x,-y,-z
-x,1/2+y,-z
-x,-y,-z
x,1/2+y,-z
-x,y,z
x,1/2-y,z
1/2+x,1/2+y,1/2+z
1/2-x,-y,1/2+z
1/2+x,1/2-y,1/2-z
1/2-x,y,1/2-z
1/2-x,1/2-y,1/2-z
1/2+x,y,1/2-z
1/2-x,1/2+y,1/2+z
1/2+x,-y,1/2+z
loop_
_atom_site_type_symbol
_atom_site_label
_atom_site_fract_x
_atom_site_fract_y
_atom_site_fract_z
Si Si1 0.198556 0.448959 0.897180
Si Si2 0.803795 0.659326 0.958623
Si Si3 0.709428 0.667383 0.437125
Si Si4 0.800061 0.191809 0.362097
Si Si5 0.698049 0.961740 0.959868
Si Si6 0.792920 0.596329 0.698911
Si Si7 0.500000 0.250000 0.907825
Si Si8 0.205238 0.473764 0.699198
O O1 0.242620 0.394872 0.924255
O O2 0.298106 0.501263 0.915116
O O3 0.224512 0.441081 0.843525
O O4 0.000000 0.460822 0.906403
O O5 0.703707 0.682971 0.916105
O O6 0.792914 0.594530 0.955884
O O7 0.000000 0.676716 0.952759
O O8 0.750488 0.675796 0.009328
O O9 0.500000 0.676843 0.430582
O O10 0.844830 0.703682 0.410313
O O11 0.721615 0.250000 0.351028
O O12 0.724443 0.139669 0.337007
O O13 0.000000 0.193669 0.347960
O O14 0.500000 0.948355 0.971055
O O15 0.767467 0.000000 0.000000
O O16 0.750000 0.614397 0.750000
O O17 0.726310 0.535245 0.694287
O O18 0.000000 0.592509 0.694079
O O19 0.250000 0.454949 0.750000
O O20 0.000000 0.474361 0.695527
#
# Coordination Sequence:
#
# PCOD9538067 Si02
#       8
#    16  16  16  16  16  16   4  16
#     4  11  22  38  60  88 129 160 196 251 304 358
#     4  11  23  38  55  79 118 156 199 252 310 358
#     4  10  25  42  61  93 122 158 211 259 298 366
#     4  10  22  37  55  78 107 148 204 258 303 352
#     4  11  22  34  56  84 117 156 202 243 293 377
#     4   9  19  36  55  79 110 147 190 246 299 361
#     4  12  26  40  72  80 122 168 210 244 326 346
#     4  10  20  35  59  89 124 157 197 239 299 372
#
# _framework density 20.446681999999999
#
# number of rings (size 3 to 8) (size 9 to 14) (size 15 to 20)
#    0.000    1.655    1.379    2.690    4.828    3.310 
#    0.000    0.000    0.000    0.000    0.000    0.483 
#    0.000    0.000    0.000    0.000    0.000    0.000 
#
# Total GULP energy -323373.142193 kJ/mol
# GULP energy per Si atom -5575.399003 kJ/mol
# Density = 2.040014 g / cm^3
# Si number density = 20.446682 Si / 1000 Ang^3
#
#
#
# Elastic Constant Matrix: (Units=GPa)
#
#
# Indices 1 2 3 4 5 6 
#
# 1 51.3894 8.2646 -7.6390 0.0000 0.0000 0.0000
# 2 8.2646 37.6108 -4.1201 0.0000 0.0000 0.0000
# 3 -7.6390 -4.1201 71.7530 0.0000 0.0000 0.0000
# 4 0.0000 0.0000 0.0000 -81.0214 0.0000 0.0000
# 5 0.0000 0.0000 0.0000 0.0000 21.8086 0.0000
# 6 0.0000 0.0000 0.0000 0.0000 0.0000 30.8010
#
#
#
# Elastic Compliance Matrix: (Units=1/GPa)
#
#
# Indices 1 2 3 4 5 6 
#
# 1 0.020434 -0.004279 0.001930 0.000000 0.000000 0.000000
# 2 -0.004279 0.027652 0.001132 0.000000 0.000000 0.000000
# 3 0.001930 0.001132 0.014207 0.000000 0.000000 0.000000
# 4 0.000000 0.000000 0.000000 -0.012342 0.000000 0.000000
# 5 0.000000 0.000000 0.000000 0.000000 0.045853 0.000000
# 6 0.000000 0.000000 0.000000 0.000000 0.000000 0.032466
#
#
# Mechanical properties :
#
#
# Convention : Reuss Voigt Hill
#
# Bulk Modulus (GPa) = 16.70555 17.08490 16.89523
# Shear Modulus (GPa) = 33.18768 5.26749 19.22758
#
# Velocity S-wave (km/s) = 4.03318 1.60680 3.06988
# Velocity P-wave (km/s) = 5.46597 3.43749 4.56581
#
# Compressibility (1/GPa) = 0.05986034
#
# Stress axis : x y z
#
# Youngs Moduli (GPa) = 48.93739 36.16321 70.38702
#
# Poissons Ratio (x) = 0.15474 -0.13583
# Poissons Ratio (y) = 0.20940 -0.07970
# Poissons Ratio (z) = -0.09444 -0.04095
#
# Static dielectric constant tensor:
#      x y z
#    x 1.750640 0.000000 0.000000 
#    y 0.000000 1.740610 0.000000 
#    z 0.000000 0.000000 1.742990 
# 
# From -- ./inp_files/68733.got.cif
#   From: 2010.05.17/outbox.cif.g08.bks.cpg/sg74_35_cif.got.tgz:68733.got - 2010.06.03 17:57:02.
