data_PCOD9538326
_publ_section_title
;
Structure prediction by ZEFSAII (Michael W. Deem and Ramdas Pophale) SiO2 
 PCOD9538326
Probable space group: I M M A
;
_chemical_formula_sum "Si O2"
_cell_formula_units_Z 96
_cell_length_a 19.368313
_cell_length_b 13.109436
_cell_length_c 19.160033
_cell_angle_alpha 90.000000
_cell_angle_beta 90.000000
_cell_angle_gamma 90.000000
_cell_volume 4864.879139
_symmetry_space_group_name_H-M "I M M A"
_symmetry_group_IT_number 74
_symmetry_cell_setting 'orthorhombic'
loop_
_space_group_symop_operation_xyz
x,y,z
-x,1/2-y,z
x,-y,-z
-x,1/2+y,-z
-x,-y,-z
x,1/2+y,-z
-x,y,z
x,1/2-y,z
1/2+x,1/2+y,1/2+z
1/2-x,-y,1/2+z
1/2+x,1/2-y,1/2-z
1/2-x,y,1/2-z
1/2-x,1/2-y,1/2-z
1/2+x,y,1/2-z
1/2-x,1/2+y,1/2+z
1/2+x,-y,1/2+z
loop_
_atom_site_type_symbol
_atom_site_label
_atom_site_fract_x
_atom_site_fract_y
_atom_site_fract_z
Si Si1 0.784714 0.517689 0.921871
Si Si2 0.082622 0.364643 0.543243
Si Si3 0.423764 0.869350 0.602619
Si Si4 0.139599 0.569943 0.604322
Si Si5 0.421523 0.462348 0.247000
Si Si6 0.183497 0.367618 0.800068
O O1 0.857646 0.574323 0.927865
O O2 0.721901 0.580995 0.888167
O O3 0.796876 0.418312 0.874375
O O4 0.759102 0.500000 0.000000
O O5 0.095677 0.250000 0.568866
O O6 0.121400 0.450877 0.587537
O O7 0.108844 0.373807 0.463263
O O8 0.000000 0.383843 0.544709
O O9 0.500000 0.907389 0.580085
O O10 0.420097 0.750000 0.587555
O O11 0.419401 0.889657 0.685613
O O12 0.104181 0.593018 0.677462
O O13 0.500000 0.496465 0.236156
O O14 0.373785 0.558856 0.266026
O O15 0.161691 0.250000 0.807440
O O16 0.250000 0.371194 0.750000
#
# Coordination Sequence:
#
# PCOD9538326 Si02
#       6
#    16  16  16  16  16  16
#     4  11  22  38  60  88 119 156 195 239 293 353
#     4  10  21  35  51  76 115 161 203 238 277 334
#     4   9  21  41  62  85 113 147 191 245 300 349
#     4  11  20  36  55  83 118 155 189 238 288 341
#     4  10  20  36  61  86 115 152 192 238 290 348
#     4  10  21  38  59  82 116 155 194 242 295 345
#
# _framework density 19.733276
#
# number of rings (size 3 to 8) (size 9 to 14) (size 15 to 20)
#    0.000    1.833    3.333    2.000    0.000    4.000 
#    0.000    2.500    0.000    0.000    0.000    0.000 
#    0.000    0.000    0.000    0.000    0.000    0.000 
#
# Total GULP energy -267911.152897 kJ/mol
# GULP energy per Si atom -5581.482352 kJ/mol
# Density = 1.968836 g / cm^3
# Si number density = 19.733276 Si / 1000 Ang^3
#
#
#
# Elastic Constant Matrix: (Units=GPa)
#
#
# Indices 1 2 3 4 5 6 
#
# 1 100.7360 7.7419 -8.0059 0.0000 0.0000 0.0000
# 2 7.7419 48.8007 -15.5849 0.0000 0.0000 0.0000
# 3 -8.0059 -15.5849 42.6208 0.0000 0.0000 0.0000
# 4 0.0000 0.0000 0.0000 2.0089 0.0000 0.0000
# 5 0.0000 0.0000 0.0000 0.0000 30.2018 0.0000
# 6 0.0000 0.0000 0.0000 0.0000 0.0000 -190.8376
#
#
#
# Elastic Compliance Matrix: (Units=1/GPa)
#
#
# Indices 1 2 3 4 5 6 
#
# 1 0.010132 -0.001132 0.001489 0.000000 0.000000 0.000000
# 2 -0.001132 0.023327 0.008317 0.000000 0.000000 0.000000
# 3 0.001489 0.008317 0.026784 0.000000 0.000000 0.000000
# 4 0.000000 0.000000 0.000000 0.497776 0.000000 0.000000
# 5 0.000000 0.000000 0.000000 0.000000 0.033111 0.000000
# 6 0.000000 0.000000 0.000000 0.000000 0.000000 -0.005240
#
#
# Mechanical properties :
#
#
# Convention : Reuss Voigt Hill
#
# Bulk Modulus (GPa) = 12.88771 17.82887 15.35829
# Shear Modulus (GPa) = 8.41178 -17.85828 -4.72325
#
# Velocity S-wave (km/s) = 2.06688 -3.01156 -1.54879
# Velocity P-wave (km/s) = 3.49873 1.74301 2.14511
#
# Compressibility (1/GPa) = 0.07759333
#
# Stress axis : x y z
#
# Youngs Moduli (GPa) = 98.69440 42.86826 37.33596
#
# Poissons Ratio (x) = 0.04852 -0.05561
# Poissons Ratio (y) = 0.11170 -0.31054
# Poissons Ratio (z) = -0.14700 -0.35655
#
# Static dielectric constant tensor:
#      x y z
#    x 1.705130 0.000000 0.000000 
#    y 0.000000 1.676110 0.000000 
#    z 0.000000 0.000000 1.683200 
# 
# From -- ./inp_files/51908.got.cif
#   From: 2010.05.17/outbox.cif.g08.bks.cpg/sg74_26_cif.got.tgz:51908.got - 2010.06.03 17:57:02.
