data_PCOD9538162
_publ_section_title
;
Structure prediction by ZEFSAII (Michael W. Deem and Ramdas Pophale) SiO2 
 PCOD9538162
Probable space group: I M M A
;
_chemical_formula_sum "Si O2"
_cell_formula_units_Z 112
_cell_length_a 20.791848
_cell_length_b 13.649026
_cell_length_c 17.433452
_cell_angle_alpha 90.000000
_cell_angle_beta 90.000000
_cell_angle_gamma 90.000000
_cell_volume 4947.412739
_symmetry_space_group_name_H-M "I M M A"
_symmetry_group_IT_number 74
_symmetry_cell_setting 'orthorhombic'
loop_
_space_group_symop_operation_xyz
x,y,z
-x,1/2-y,z
x,-y,-z
-x,1/2+y,-z
-x,-y,-z
x,1/2+y,-z
-x,y,z
x,1/2-y,z
1/2+x,1/2+y,1/2+z
1/2-x,-y,1/2+z
1/2+x,1/2-y,1/2-z
1/2-x,y,1/2-z
1/2-x,1/2-y,1/2-z
1/2+x,y,1/2-z
1/2-x,1/2+y,1/2+z
1/2+x,-y,1/2+z
loop_
_atom_site_type_symbol
_atom_site_label
_atom_site_fract_x
_atom_site_fract_y
_atom_site_fract_z
Si Si1 0.279016 0.133452 0.366835
Si Si2 0.164598 0.630998 0.445286
Si Si3 0.928266 0.053457 0.859803
Si Si4 0.901319 0.365446 0.223397
Si Si5 0.813589 0.868194 0.036079
Si Si6 0.365109 0.869645 0.884028
Si Si7 0.426941 0.868133 0.189916
O O1 0.270909 0.250000 0.373393
O O2 0.325700 0.119068 0.295820
O O3 0.313902 0.105445 0.446066
O O4 0.207137 0.095301 0.364318
O O5 0.164816 0.750000 0.444905
O O6 0.240162 0.604351 0.440429
O O7 0.130720 0.603716 0.526234
O O8 0.123430 0.595755 0.373264
O O9 0.871966 0.085186 0.916893
O O10 0.912863 0.101049 0.776832
O O11 0.000000 0.085332 0.884825
O O12 0.931718 0.938621 0.837630
O O13 0.916155 0.250000 0.212723
O O14 0.911248 0.394689 0.312336
O O15 0.819121 0.750000 0.043646
O O16 0.366757 0.750000 0.882204
O O17 0.500000 0.898544 0.171526
O O18 0.425269 0.750000 0.187414
#
# Coordination Sequence:
#
# PCOD9538162 Si02
#       7
#    16  16  16  16  16  16  16
#     4   8  15  31  56  83 110 140 177 228 288 345
#     4   8  15  31  57  88 118 145 178 227 285 346
#     4  11  24  39  54  77 112 153 199 241 283 341
#     4  10  20  36  57  78 107 148 193 239 284 334
#     4   9  18  35  59  86 116 145 180 233 293 346
#     4   8  14  29  55  83 111 143 180 229 286 335
#     4   9  18  35  58  83 115 151 183 222 278 344
#
# _framework density 22.638095
#
# number of rings (size 3 to 8) (size 9 to 14) (size 15 to 20)
#    0.000    3.000    0.000    2.571    0.000    4.000 
#    5.143    5.000    0.000    6.857    0.000    0.000 
#    0.000    0.000    0.000    0.000    0.000    0.000 
#
# Total GULP energy -312466.796931 kJ/mol
# GULP energy per Si atom -5579.764231 kJ/mol
# Density = 2.258657 g / cm^3
# Si number density = 22.638095 Si / 1000 Ang^3
#
#
#
# Elastic Constant Matrix: (Units=GPa)
#
#
# Indices 1 2 3 4 5 6 
#
# 1 61.9438 27.3559 54.2536 0.0000 0.0000 0.0000
# 2 27.3559 83.4015 33.8915 0.0000 0.0000 0.0000
# 3 54.2536 33.8915 112.9473 0.0000 0.0000 0.0000
# 4 0.0000 0.0000 0.0000 31.5484 0.0000 0.0000
# 5 0.0000 0.0000 0.0000 0.0000 -12.9516 0.0000
# 6 0.0000 0.0000 0.0000 0.0000 0.0000 17.8333
#
#
#
# Elastic Compliance Matrix: (Units=1/GPa)
#
#
# Indices 1 2 3 4 5 6 
#
# 1 0.029233 -0.004421 -0.012715 0.000000 0.000000 0.000000
# 2 -0.004421 0.014324 -0.002174 0.000000 0.000000 0.000000
# 3 -0.012715 -0.002174 0.015614 0.000000 0.000000 0.000000
# 4 0.000000 0.000000 0.000000 0.031697 0.000000 0.000000
# 5 0.000000 0.000000 0.000000 0.000000 -0.077211 0.000000
# 6 0.000000 0.000000 0.000000 0.000000 0.000000 0.056075
#
#
# Mechanical properties :
#
#
# Convention : Reuss Voigt Hill
#
# Bulk Modulus (GPa) = 48.66455 54.36608 51.51532
# Shear Modulus (GPa) = 43.40148 16.80547 30.10347
#
# Velocity S-wave (km/s) = 4.38332 2.72757 3.65056
# Velocity P-wave (km/s) = 6.86742 5.82984 6.36979
#
# Compressibility (1/GPa) = 0.02054884
#
# Stress axis : x y z
#
# Youngs Moduli (GPa) = 34.20811 69.81287 64.04611
#
# Poissons Ratio (x) = 0.30868 0.81435
# Poissons Ratio (y) = 0.15125 0.13926
# Poissons Ratio (z) = 0.43496 0.15179
#
# Static dielectric constant tensor:
#      x y z
#    x 1.844100 0.000000 0.000000 
#    y 0.000000 1.932620 0.000000 
#    z 0.000000 0.000000 1.832610 
# 
# From -- ./inp_files/36542.got.cif
#   From: 2010.05.17/outbox.cif.g08.bks.cpg/sg74_19_cif.got.tgz:36542.got - 2010.06.03 17:57:02.
