data_PCOD9538144
_publ_section_title
;
Structure prediction by ZEFSAII (Michael W. Deem and Ramdas Pophale) SiO2 
 PCOD9538144
Probable space group: I M M A
;
_chemical_formula_sum "Si O2"
_cell_formula_units_Z 104
_cell_length_a 8.370457
_cell_length_b 29.706273
_cell_length_c 20.221287
_cell_angle_alpha 90.000000
_cell_angle_beta 90.000000
_cell_angle_gamma 90.000000
_cell_volume 5028.125752
_symmetry_space_group_name_H-M "I M M A"
_symmetry_group_IT_number 74
_symmetry_cell_setting 'orthorhombic'
loop_
_space_group_symop_operation_xyz
x,y,z
-x,1/2-y,z
x,-y,-z
-x,1/2+y,-z
-x,-y,-z
x,1/2+y,-z
-x,y,z
x,1/2-y,z
1/2+x,1/2+y,1/2+z
1/2-x,-y,1/2+z
1/2+x,1/2-y,1/2-z
1/2-x,y,1/2-z
1/2-x,1/2-y,1/2-z
1/2+x,y,1/2-z
1/2-x,1/2+y,1/2+z
1/2+x,-y,1/2+z
loop_
_atom_site_type_symbol
_atom_site_label
_atom_site_fract_x
_atom_site_fract_y
_atom_site_fract_z
Si Si1 0.693166 0.373977 0.825029
Si Si2 0.692818 0.151683 0.325158
Si Si3 0.688170 0.031765 0.445300
Si Si4 0.813313 0.124646 0.457915
Si Si5 0.809682 0.250000 0.175333
Si Si6 0.305391 0.697704 0.062942
Si Si7 0.190500 0.976799 0.324396
O O1 0.500000 0.373759 0.826010
O O2 0.750000 0.365249 0.750000
O O3 0.745214 0.334706 0.875993
O O4 0.745355 0.425393 0.842712
O O5 0.500000 0.146535 0.328327
O O6 0.750000 0.145766 0.250000
O O7 0.783297 0.123247 0.379162
O O8 0.741097 0.201987 0.350084
O O9 0.500000 0.024596 0.439598
O O10 0.715923 0.080778 0.476173
O O11 0.764901 0.000000 0.500000
O O12 0.755675 0.015289 0.375125
O O13 0.760278 0.169465 0.496902
O O14 0.000000 0.118658 0.472230
O O15 0.750000 0.250000 0.250000
O O16 0.000000 0.250000 0.175182
O O17 0.500000 0.699742 0.064123
O O18 0.249530 0.750000 0.064483
O O19 0.250000 0.985673 0.250000
O O20 0.000000 0.975866 0.323744
#
# Coordination Sequence:
#
# PCOD9538144 Si02
#       7
#    16  16  16  16   8  16  16
#     4   9  18  34  58  87 119 153 189 232 281 337
#     4  10  20  36  56  81 112 147 188 235 284 335
#     4  11  24  41  61  85 115 151 191 239 294 353
#     4  11  23  38  59  85 113 151 195 241 291 344
#     4   8  16  30  50  74 102 138 177 220 269 320
#     4   9  19  36  57  83 116 154 195 238 284 337
#     4  10  20  36  60  90 122 156 194 239 290 350
#
# _framework density 20.683651000000001
#
# number of rings (size 3 to 8) (size 9 to 14) (size 15 to 20)
#    0.000    2.154    0.000    2.769    1.077    4.615 
#    0.000    4.615    0.000    1.846    0.000    0.000 
#    0.000    0.000    0.000    0.000    0.000    0.000 
#
# Total GULP energy -289656.807354 kJ/mol
# GULP energy per Si atom -5570.323218 kJ/mol
# Density = 2.063657 g / cm^3
# Si number density = 20.683651 Si / 1000 Ang^3
#
#
#
# Elastic Constant Matrix: (Units=GPa)
#
#
# Indices 1 2 3 4 5 6 
#
# 1 19.7269 13.3428 15.0010 0.0000 0.0000 0.0000
# 2 13.3428 102.9728 44.5483 0.0000 0.0000 0.0000
# 3 15.0010 44.5483 101.1380 -0.0001 0.0000 0.0000
# 4 0.0000 0.0000 -0.0001 30.9226 0.0000 0.0000
# 5 0.0000 0.0000 0.0000 0.0000 9.6250 0.0000
# 6 0.0000 0.0000 0.0000 0.0000 0.0000 29.1565
#
#
#
# Elastic Compliance Matrix: (Units=1/GPa)
#
#
# Indices 1 2 3 4 5 6 
#
# 1 0.058970 -0.004765 -0.006648 0.000000 0.000000 0.000000
# 2 -0.004765 0.012383 -0.004747 0.000000 0.000000 0.000000
# 3 -0.006648 -0.004747 0.012965 0.000000 0.000000 0.000000
# 4 0.000000 0.000000 0.000000 0.032339 0.000000 0.000000
# 5 0.000000 0.000000 0.000000 0.000000 0.103897 0.000000
# 6 0.000000 0.000000 0.000000 0.000000 0.000000 0.034298
#
#
# Mechanical properties :
#
#
# Convention : Reuss Voigt Hill
#
# Bulk Modulus (GPa) = 19.23187 41.06909 30.15048
# Shear Modulus (GPa) = 16.42017 24.00385 20.21201
#
# Velocity S-wave (km/s) = 2.82063 3.41034 3.12941
# Velocity P-wave (km/s) = 4.46388 5.95031 5.25987
#
# Compressibility (1/GPa) = 0.05199702
#
# Stress axis : x y z
#
# Youngs Moduli (GPa) = 16.95765 80.75874 77.13339
#
# Poissons Ratio (x) = 0.38483 0.51276
# Poissons Ratio (y) = 0.08081 0.36618
# Poissons Ratio (z) = 0.11273 0.38339
#
# Static dielectric constant tensor:
#      x y z
#    x 1.674200 0.000000 0.000000 
#    y 0.000000 2.123730 0.000000 
#    z 0.000000 0.000000 1.532750 
# 
# From -- ./inp_files/49347.got.cif
#   From: 2010.05.17/outbox.cif.g08.bks.cpg/sg74_25_cif.got.tgz:49347.got - 2010.06.03 17:57:02.
