data_PCOD9538322
_publ_section_title
;
Structure prediction by ZEFSAII (Michael W. Deem and Ramdas Pophale) SiO2 
 PCOD9538322
Probable space group: I M M A
;
_chemical_formula_sum "Si O2"
_cell_formula_units_Z 112
_cell_length_a 28.769614
_cell_length_b 13.820457
_cell_length_c 11.978391
_cell_angle_alpha 90.000000
_cell_angle_beta 90.000000
_cell_angle_gamma 90.000000
_cell_volume 4762.718621
_symmetry_space_group_name_H-M "I M M A"
_symmetry_group_IT_number 74
_symmetry_cell_setting 'orthorhombic'
loop_
_space_group_symop_operation_xyz
x,y,z
-x,1/2-y,z
x,-y,-z
-x,1/2+y,-z
-x,-y,-z
x,1/2+y,-z
-x,y,z
x,1/2-y,z
1/2+x,1/2+y,1/2+z
1/2-x,-y,1/2+z
1/2+x,1/2-y,1/2-z
1/2-x,y,1/2-z
1/2-x,1/2-y,1/2-z
1/2+x,y,1/2-z
1/2-x,1/2+y,1/2+z
1/2+x,-y,1/2+z
loop_
_atom_site_type_symbol
_atom_site_label
_atom_site_fract_x
_atom_site_fract_y
_atom_site_fract_z
Si Si1 0.131782 0.644112 0.937684
Si Si2 0.050068 0.867583 0.578759
Si Si3 0.311264 0.562792 0.160522
Si Si4 0.715688 0.407940 0.580939
Si Si5 0.585161 0.866314 0.156400
Si Si6 0.947347 0.368427 0.899266
Si Si7 0.149641 0.366803 0.312580
O O1 0.114064 0.750000 0.905188
O O2 0.175900 0.651862 0.019140
O O3 0.090197 0.600634 0.009311
O O4 0.147331 0.605230 0.818536
O O5 0.049193 0.750000 0.579347
O O6 0.055562 0.898681 0.449861
O O7 0.098314 0.890133 0.640143
O O8 0.000000 0.899586 0.625165
O O9 0.300701 0.576673 0.291974
O O10 0.269879 0.616944 0.095809
O O11 0.361559 0.605761 0.136054
O O12 0.314673 0.446503 0.137846
O O13 0.715700 0.500000 0.500000
O O14 0.582189 0.750000 0.159945
O O15 0.567647 0.902595 0.276058
O O16 0.945986 0.250000 0.895980
O O17 0.000000 0.396939 0.924163
O O18 0.159582 0.250000 0.326550
#
# Coordination Sequence:
#
# PCOD9538322 Si02
#       7
#    16  16  16  16  16  16  16
#     4  10  20  38  63  90 123 160 201 254 307 365
#     4   9  19  37  61  89 125 168 209 253 303 358
#     4  11  24  39  63  90 119 161 202 256 311 367
#     4  11  23  41  60  84 119 156 197 249 314 364
#     4  10  20  36  60  91 127 163 202 252 306 362
#     4   9  17  31  56  90 124 160 200 244 303 365
#     4  10  22  41  63  87 120 164 209 252 302 364
#
# _framework density 23.515982000000001
#
# number of rings (size 3 to 8) (size 9 to 14) (size 15 to 20)
#    0.000    2.000    2.857    0.429    2.000    2.857 
#    0.000    8.571    0.000    1.286    0.000    0.000 
#    0.000    0.000    0.000    0.000    0.000    0.000 
#
# Total GULP energy -312586.183206 kJ/mol
# GULP energy per Si atom -5581.896129 kJ/mol
# Density = 2.346246 g / cm^3
# Si number density = 23.515982 Si / 1000 Ang^3
#
#
#
# Elastic Constant Matrix: (Units=GPa)
#
#
# Indices 1 2 3 4 5 6 
#
# 1 128.4552 11.8323 14.0358 0.0000 0.0000 0.0000
# 2 11.8323 46.7573 0.7130 0.0000 0.0000 0.0000
# 3 14.0358 0.7130 39.9499 0.0000 0.0000 0.0000
# 4 0.0000 0.0000 0.0000 16.3436 0.0000 0.0000
# 5 0.0000 0.0000 0.0000 0.0000 22.9190 0.0000
# 6 0.0000 0.0000 0.0000 0.0000 0.0000 -21.6022
#
#
#
# Elastic Compliance Matrix: (Units=1/GPa)
#
#
# Indices 1 2 3 4 5 6 
#
# 1 0.008288 -0.002054 -0.002875 0.000000 0.000000 0.000000
# 2 -0.002054 0.021902 0.000331 0.000000 0.000000 0.000000
# 3 -0.002875 0.000331 0.026036 0.000000 0.000000 0.000000
# 4 0.000000 0.000000 0.000000 0.061186 0.000000 0.000000
# 5 0.000000 0.000000 0.000000 0.000000 0.043632 0.000000
# 6 0.000000 0.000000 0.000000 0.000000 0.000000 -0.046292
#
#
# Mechanical properties :
#
#
# Convention : Reuss Voigt Hill
#
# Bulk Modulus (GPa) = 21.26351 29.81386 25.53868
# Shear Modulus (GPa) = 35.81030 16.10416 25.95723
#
# Velocity S-wave (km/s) = 3.90655 2.61974 3.32597
# Velocity P-wave (km/s) = 5.42309 4.67508 5.06292
#
# Compressibility (1/GPa) = 0.04702893
#
# Stress axis : x y z
#
# Youngs Moduli (GPa) = 120.65432 45.65869 38.40895
#
# Poissons Ratio (x) = 0.09376 0.11044
# Poissons Ratio (y) = 0.24777 -0.01270
# Poissons Ratio (z) = 0.34691 -0.01509
#
# Static dielectric constant tensor:
#      x y z
#    x 1.877710 0.000000 0.000000 
#    y 0.000000 3.134130 0.000000 
#    z 0.000000 0.000000 1.878550 
# 
# From -- ./inp_files/27194.got.cif
#   From: 2010.05.17/outbox.cif.g08.bks.cpg/sg74_14_cif.got.tgz:27194.got - 2010.06.03 17:57:02.
