data_PCOD9538501
_publ_section_title
;
Structure prediction by ZEFSAII (Michael W. Deem and Ramdas Pophale) SiO2 
 PCOD9538501
Probable space group: I M M A
;
_chemical_formula_sum "Si O2"
_cell_formula_units_Z 72
_cell_length_a 18.593211
_cell_length_b 14.040405
_cell_length_c 13.909764
_cell_angle_alpha 90.000000
_cell_angle_beta 90.000000
_cell_angle_gamma 90.000000
_cell_volume 3631.230309
_symmetry_space_group_name_H-M "I M M A"
_symmetry_group_IT_number 74
_symmetry_cell_setting 'orthorhombic'
loop_
_space_group_symop_operation_xyz
x,y,z
-x,1/2-y,z
x,-y,-z
-x,1/2+y,-z
-x,-y,-z
x,1/2+y,-z
-x,y,z
x,1/2-y,z
1/2+x,1/2+y,1/2+z
1/2-x,-y,1/2+z
1/2+x,1/2-y,1/2-z
1/2-x,y,1/2-z
1/2-x,1/2-y,1/2-z
1/2+x,y,1/2-z
1/2-x,1/2+y,1/2+z
1/2+x,-y,1/2+z
loop_
_atom_site_type_symbol
_atom_site_label
_atom_site_fract_x
_atom_site_fract_y
_atom_site_fract_z
Si Si1 0.277714 0.551774 0.647010
Si Si2 0.650993 0.140725 0.649976
Si Si3 0.419232 0.136484 0.444290
Si Si4 0.414252 0.141438 0.860692
Si Si5 0.831007 0.000000 0.500000
O O1 0.250000 0.585475 0.750000
O O2 0.286726 0.437171 0.649166
O O3 0.355639 0.591266 0.618245
O O4 0.220159 0.568607 0.563548
O O5 0.676593 0.250000 0.644295
O O6 0.601630 0.122460 0.556337
O O7 0.608690 0.128427 0.749598
O O8 0.500000 0.100767 0.424815
O O9 0.418850 0.250000 0.427941
O O10 0.500000 0.134087 0.867640
O O11 0.393301 0.250000 0.887727
O O12 0.377817 0.063180 0.927806
#
# Coordination Sequence:
#
# PCOD9538501 Si02
#       5
#    16  16  16  16   8
#     4  12  24  40  59  92 125 163 203 247 306 361
#     4  10  20  37  65  95 123 151 194 254 311 358
#     4  10  22  41  65  91 121 160 204 252 306 362
#     4  10  22  40  64  93 123 158 203 253 303 360
#     4  12  23  40  61  90 126 166 200 244 307 364
#
# _framework density 19.827991000000001
#
# number of rings (size 3 to 8) (size 9 to 14) (size 15 to 20)
#    0.000    1.333    4.444    1.000    0.000    8.000 
#    0.000    0.000    0.000    2.667    0.000    0.000 
#    0.000    0.000    0.000    0.000    0.000    0.000 
#
# Total GULP energy -201204.283374 kJ/mol
# GULP energy per Si atom -5589.007871 kJ/mol
# Density = 1.978286 g / cm^3
# Si number density = 19.827991 Si / 1000 Ang^3
#
#
#
# Elastic Constant Matrix: (Units=GPa)
#
#
# Indices 1 2 3 4 5 6 
#
# 1 89.6344 44.2208 64.8931 0.0000 0.0000 0.0000
# 2 44.2208 52.3232 37.3479 0.0000 0.0000 0.0000
# 3 64.8931 37.3479 137.3324 0.0000 0.0000 0.0000
# 4 0.0000 0.0000 0.0000 27.9988 0.0000 0.0000
# 5 0.0000 0.0000 0.0000 0.0000 29.8171 0.0000
# 6 0.0000 0.0000 0.0000 0.0000 0.0000 23.4472
#
#
#
# Elastic Compliance Matrix: (Units=1/GPa)
#
#
# Indices 1 2 3 4 5 6 
#
# 1 0.023683 -0.014925 -0.007132 0.000000 0.000000 0.000000
# 2 -0.014925 0.033121 -0.001955 0.000000 0.000000 0.000000
# 3 -0.007132 -0.001955 0.011183 0.000000 0.000000 0.000000
# 4 0.000000 0.000000 0.000000 0.035716 0.000000 0.000000
# 5 0.000000 0.000000 0.000000 0.000000 0.033538 0.000000
# 6 0.000000 0.000000 0.000000 0.000000 0.000000 0.042649
#
#
# Mechanical properties :
#
#
# Convention : Reuss Voigt Hill
#
# Bulk Modulus (GPa) = 50.09071 63.57929 56.83500
# Shear Modulus (GPa) = 21.31581 25.10784 23.21182
#
# Velocity S-wave (km/s) = 3.28233 3.56235 3.42520
# Velocity P-wave (km/s) = 6.29940 7.00396 6.66100
#
# Compressibility (1/GPa) = 0.01996378
#
# Stress axis : x y z
#
# Youngs Moduli (GPa) = 42.22472 30.19229 89.41913
#
# Poissons Ratio (x) = 0.45061 0.63773
# Poissons Ratio (y) = 0.63019 0.17482
# Poissons Ratio (z) = 0.30114 0.05903
#
# Static dielectric constant tensor:
#      x y z
#    x 1.690270 0.000000 0.000000 
#    y 0.000000 1.724860 0.000000 
#    z 0.000000 0.000000 1.696230 
# 
# From -- ./inp_files/33835.got.cif
#   From: 2010.05.17/outbox.cif.g08.bks.cpg/sg74_17_cif.got.tgz:33835.got - 2010.06.03 17:57:02.
