data_PCOD9538494
_publ_section_title
;
Structure prediction by ZEFSAII (Michael W. Deem and Ramdas Pophale) SiO2 
 PCOD9538494
Probable space group: I M M A
;
_chemical_formula_sum "Si O2"
_cell_formula_units_Z 80
_cell_length_a 21.826742
_cell_length_b 14.249933
_cell_length_c 12.193113
_cell_angle_alpha 90.000000
_cell_angle_beta 90.000000
_cell_angle_gamma 90.000000
_cell_volume 3792.419195
_symmetry_space_group_name_H-M "I M M A"
_symmetry_group_IT_number 74
_symmetry_cell_setting 'orthorhombic'
loop_
_space_group_symop_operation_xyz
x,y,z
-x,1/2-y,z
x,-y,-z
-x,1/2+y,-z
-x,-y,-z
x,1/2+y,-z
-x,y,z
x,1/2-y,z
1/2+x,1/2+y,1/2+z
1/2-x,-y,1/2+z
1/2+x,1/2-y,1/2-z
1/2-x,y,1/2-z
1/2-x,1/2-y,1/2-z
1/2+x,y,1/2-z
1/2-x,1/2+y,1/2+z
1/2+x,-y,1/2+z
loop_
_atom_site_type_symbol
_atom_site_label
_atom_site_fract_x
_atom_site_fract_y
_atom_site_fract_z
Si Si1 0.102983 0.513344 0.621883
Si Si2 0.072576 0.137262 0.793813
Si Si3 0.223772 0.361306 0.374899
Si Si4 0.345227 0.863226 0.503086
Si Si5 0.066363 0.141795 0.191080
O O1 0.079274 0.500000 0.500000
O O2 0.098494 0.415740 0.687373
O O3 0.168657 0.565404 0.615108
O O4 0.066005 0.584060 0.698703
O O5 0.074804 0.250000 0.782244
O O6 0.000000 0.112548 0.811786
O O7 0.117875 0.110008 0.894077
O O8 0.206880 0.250000 0.389358
O O9 0.250000 0.367829 0.250000
O O10 0.275377 0.385632 0.466145
O O11 0.347986 0.750000 0.504341
O O12 0.383944 0.896136 0.607664
O O13 0.080597 0.250000 0.215882
O O14 0.000000 0.138782 0.135939
#
# Coordination Sequence:
#
# PCOD9538494 Si02
#       5
#    16  16  16  16  16
#     4  12  26  40  59  90 132 177 225 263 314 386
#     4  10  23  44  68  96 133 174 219 277 338 393
#     4  10  20  40  68  95 128 167 211 269 329 388
#     4   9  18  38  68  98 125 159 208 269 337 395
#     4  10  20  37  64  95 123 155 204 267 329 388
#
# _framework density 21.094715000000001
#
# number of rings (size 3 to 8) (size 9 to 14) (size 15 to 20)
#    0.000    1.800    2.000    1.800    0.000    8.000 
#    0.000    4.000    0.000    4.200    0.000    0.000 
#    0.000    0.000    0.000    0.000    0.000    0.000 
#
# Total GULP energy -223226.782649 kJ/mol
# GULP energy per Si atom -5580.669566 kJ/mol
# Density = 2.104670 g / cm^3
# Si number density = 21.094715 Si / 1000 Ang^3
#
#
#
# Elastic Constant Matrix: (Units=GPa)
#
#
# Indices 1 2 3 4 5 6 
#
# 1 130.3476 37.7282 44.3540 0.0000 0.0000 0.0000
# 2 37.7282 108.0608 33.7039 0.0000 0.0000 0.0000
# 3 44.3540 33.7039 122.1793 0.0000 0.0000 0.0000
# 4 0.0000 0.0000 0.0000 35.5197 0.0000 0.0000
# 5 0.0000 0.0000 0.0000 0.0000 1.3501 0.0000
# 6 0.0000 0.0000 0.0000 0.0000 0.0000 -22.5067
#
#
#
# Elastic Compliance Matrix: (Units=1/GPa)
#
#
# Indices 1 2 3 4 5 6 
#
# 1 0.009288 -0.002397 -0.002710 0.000000 0.000000 0.000000
# 2 -0.002397 0.010744 -0.002093 0.000000 0.000000 0.000000
# 3 -0.002710 -0.002093 0.009746 0.000000 0.000000 0.000000
# 4 0.000000 0.000000 0.000000 0.028153 0.000000 0.000000
# 5 0.000000 0.000000 0.000000 0.000000 0.740698 0.000000
# 6 0.000000 0.000000 0.000000 0.000000 0.000000 -0.044431
#
#
# Mechanical properties :
#
#
# Convention : Reuss Voigt Hill
#
# Bulk Modulus (GPa) = 65.03848 65.79554 65.41701
# Shear Modulus (GPa) = 6.46223 19.19274 12.82749
#
# Velocity S-wave (km/s) = 1.75217 3.01962 2.46862
# Velocity P-wave (km/s) = 5.91541 6.58906 6.26130
#
# Compressibility (1/GPa) = 0.01537551
#
# Stress axis : x y z
#
# Youngs Moduli (GPa) = 107.66584 93.07492 102.60472
#
# Poissons Ratio (x) = 0.22314 0.27810
# Poissons Ratio (y) = 0.25812 0.21480
# Poissons Ratio (z) = 0.29182 0.19485
#
# Static dielectric constant tensor:
#      x y z
#    x 1.775580 0.000000 0.000000 
#    y 0.000000 1.794620 0.000000 
#    z 0.000000 0.000000 1.721150 
# 
# From -- ./inp_files/24876.got.cif
#   From: 2010.05.17/outbox.cif.g08.bks.cpg/sg74_13_cif.got.tgz:24876.got - 2010.06.03 17:57:02.
