data_PCOD9538537
_publ_section_title
;
Structure prediction by ZEFSAII (Michael W. Deem and Ramdas Pophale) SiO2 
 PCOD9538537
Probable space group: I M M A
;
_chemical_formula_sum "Si O2"
_cell_formula_units_Z 112
_cell_length_a 16.233361
_cell_length_b 29.660814
_cell_length_c 12.423196
_cell_angle_alpha 90.000000
_cell_angle_beta 90.000000
_cell_angle_gamma 90.000000
_cell_volume 5981.703046
_symmetry_space_group_name_H-M "I M M A"
_symmetry_group_IT_number 74
_symmetry_cell_setting 'orthorhombic'
loop_
_space_group_symop_operation_xyz
x,y,z
-x,1/2-y,z
x,-y,-z
-x,1/2+y,-z
-x,-y,-z
x,1/2+y,-z
-x,y,z
x,1/2-y,z
1/2+x,1/2+y,1/2+z
1/2-x,-y,1/2+z
1/2+x,1/2-y,1/2-z
1/2-x,y,1/2-z
1/2-x,1/2-y,1/2-z
1/2+x,y,1/2-z
1/2-x,1/2+y,1/2+z
1/2+x,-y,1/2+z
loop_
_atom_site_type_symbol
_atom_site_label
_atom_site_fract_x
_atom_site_fract_y
_atom_site_fract_z
Si Si1 0.836945 0.608185 0.101422
Si Si2 0.099397 0.454322 0.305323
Si Si3 0.158892 0.606769 0.504835
Si Si4 0.900710 0.301602 0.801276
Si Si5 0.099177 0.699287 0.452029
Si Si6 0.906260 0.940980 0.303310
Si Si7 0.904350 0.456865 0.063015
O O1 0.748350 0.602567 0.047968
O O2 0.857281 0.659655 0.130688
O O3 0.849167 0.580112 0.211377
O O4 0.897215 0.585808 0.014168
O O5 0.145075 0.422469 0.389224
O O6 0.113263 0.507213 0.329046
O O7 0.128795 0.447978 0.182199
O O8 0.000000 0.445976 0.313821
O O9 0.138285 0.659232 0.519549
O O10 0.099175 0.587564 0.411851
O O11 0.879678 0.250000 0.830990
O O12 0.879845 0.307506 0.674659
O O13 0.000000 0.306642 0.810092
O O14 0.124585 0.750000 0.481929
O O15 0.000000 0.697024 0.459379
O O16 0.000000 0.939299 0.260756
O O17 0.000000 0.468420 0.082278
O O18 0.866873 0.500000 0.000000
#
# Coordination Sequence:
#
# PCOD9538537 Si02
#       7
#    16  16  16  16  16  16  16
#     4  12  23  35  55  87 121 154 185 239 308 352
#     4  10  22  40  61  80 108 156 206 242 281 339
#     4  12  24  35  52  89 124 154 187 234 304 360
#     4   9  18  34  58  85 112 150 198 244 290 345
#     4   9  18  34  58  84 113 153 197 242 288 344
#     4  11  21  38  59  79 110 154 204 243 278 337
#     4  10  20  38  61  82 105 149 205 247 283 338
#
# _framework density 18.723765
#
# number of rings (size 3 to 8) (size 9 to 14) (size 15 to 20)
#    0.000    1.571    2.857    4.286    0.000    3.429 
#    2.571    1.429    0.000    0.857    0.000    6.000 
#    0.000    0.000    0.000    0.000    0.000    0.000 
#
# Total GULP energy -312799.410261 kJ/mol
# GULP energy per Si atom -5585.703755 kJ/mol
# Density = 1.868115 g / cm^3
# Si number density = 18.723765 Si / 1000 Ang^3
#
#
#
# Elastic Constant Matrix: (Units=GPa)
#
#
# Indices 1 2 3 4 5 6 
#
# 1 49.6655 39.5767 35.2696 0.0000 0.0000 0.0000
# 2 39.5767 147.3382 76.8473 0.0001 0.0000 0.0000
# 3 35.2696 76.8473 104.8891 0.0008 0.0001 -0.0003
# 4 0.0000 0.0001 0.0008 23.7760 0.0000 -0.0001
# 5 0.0000 0.0000 0.0001 0.0000 37.0254 0.0000
# 6 0.0000 0.0000 -0.0003 -0.0001 0.0000 -103.1707
#
#
#
# Elastic Compliance Matrix: (Units=1/GPa)
#
#
# Indices 1 2 3 4 5 6 
#
# 1 0.027985 -0.004223 -0.006316 0.000000 0.000000 0.000000
# 2 -0.004223 0.011622 -0.007095 0.000000 0.000000 0.000000
# 3 -0.006316 -0.007095 0.016856 -0.000001 0.000000 0.000000
# 4 0.000000 0.000000 -0.000001 0.042059 0.000000 0.000000
# 5 0.000000 0.000000 0.000000 0.000000 0.027008 0.000000
# 6 0.000000 0.000000 0.000000 0.000000 0.000000 -0.009693
#
#
# Mechanical properties :
#
#
# Convention : Reuss Voigt Hill
#
# Bulk Modulus (GPa) = 47.18105 67.25332 57.21719
# Shear Modulus (GPa) = 31.61142 1.53945 16.57544
#
# Velocity S-wave (km/s) = 4.11336 0.90773 2.97856
# Velocity P-wave (km/s) = 6.91468 6.09059 6.51568
#
# Compressibility (1/GPa) = 0.02119495
#
# Stress axis : x y z
#
# Youngs Moduli (GPa) = 35.73325 86.04494 59.32645
#
# Poissons Ratio (x) = 0.36334 0.37473
# Poissons Ratio (y) = 0.15089 0.42091
# Poissons Ratio (z) = 0.22571 0.61048
#
# Static dielectric constant tensor:
#      x y z
#    x 1.702820 0.000000 0.000000 
#    y 0.000000 1.649050 0.000000 
#    z 0.000000 0.000000 1.629010 
# 
# From -- ./inp_files/21097.got.cif
#   From: 2010.05.17/outbox.cif.g08.bks.cpg/sg74_11_cif.got.tgz:21097.got - 2010.06.03 17:57:02.
