data_PCOD9538044
_publ_section_title
;
Structure prediction by ZEFSAII (Michael W. Deem and Ramdas Pophale) SiO2 
 PCOD9538044
Probable space group: I M M A
;
_chemical_formula_sum "Si O2"
_cell_formula_units_Z 112
_cell_length_a 14.016729
_cell_length_b 24.514583
_cell_length_c 16.159522
_cell_angle_alpha 90.000000
_cell_angle_beta 90.000000
_cell_angle_gamma 90.000000
_cell_volume 5552.642298
_symmetry_space_group_name_H-M "I M M A"
_symmetry_group_IT_number 74
_symmetry_cell_setting 'orthorhombic'
loop_
_space_group_symop_operation_xyz
x,y,z
-x,1/2-y,z
x,-y,-z
-x,1/2+y,-z
-x,-y,-z
x,1/2+y,-z
-x,y,z
x,1/2-y,z
1/2+x,1/2+y,1/2+z
1/2-x,-y,1/2+z
1/2+x,1/2-y,1/2-z
1/2-x,y,1/2-z
1/2-x,1/2-y,1/2-z
1/2+x,y,1/2-z
1/2-x,1/2+y,1/2+z
1/2+x,-y,1/2+z
loop_
_atom_site_type_symbol
_atom_site_label
_atom_site_fract_x
_atom_site_fract_y
_atom_site_fract_z
Si Si1 0.739823 0.188320 0.626962
Si Si2 0.107863 0.449998 0.938420
Si Si3 0.733250 0.364664 0.459170
Si Si4 0.113574 0.686424 0.809311
Si Si5 0.114312 0.596943 0.667214
Si Si6 0.385342 0.514096 0.258470
Si Si7 0.612511 0.864572 0.240975
O O1 0.709460 0.250000 0.642191
O O2 0.756727 0.178559 0.530576
O O3 0.661060 0.149585 0.670934
O O4 0.836014 0.174350 0.676105
O O5 0.147216 0.475350 0.852640
O O6 0.000000 0.427672 0.922153
O O7 0.097430 0.500000 0.000000
O O8 0.173243 0.408550 0.988637
O O9 0.669990 0.337382 0.387397
O O10 0.824167 0.391238 0.414187
O O11 0.137715 0.750000 0.793689
O O12 0.131292 0.646869 0.731166
O O13 0.000000 0.683599 0.826217
O O14 0.145963 0.540291 0.711351
O O15 0.000000 0.594160 0.651308
O O16 0.500000 0.508046 0.264117
O O17 0.365739 0.572544 0.216517
O O18 0.500000 0.857549 0.244364
#
# Coordination Sequence:
#
# PCOD9538044 Si02
#       7
#    16  16  16  16  16  16  16
#     4  11  25  41  60  93 128 160 208 265 312 378
#     4  10  20  35  58  90 124 155 197 258 322 377
#     4  12  23  38  61  94 127 164 208 266 319 384
#     4  10  22  41  63  88 123 169 220 271 321 376
#     4  10  23  42  63  91 129 175 219 260 312 379
#     4   9  18  38  64  87 117 158 206 256 310 374
#     4  10  21  42  67  88 121 169 209 254 317 384
#
# _framework density 20.170577000000002
#
# number of rings (size 3 to 8) (size 9 to 14) (size 15 to 20)
#    0.000    1.714    1.429    3.000    0.000    7.429 
#    5.143    0.000    0.000    3.000    0.000    2.000 
#    0.000    0.000    0.000    0.000    0.000    0.000 
#
# Total GULP energy -312690.033964 kJ/mol
# GULP energy per Si atom -5583.750607 kJ/mol
# Density = 2.012467 g / cm^3
# Si number density = 20.170577 Si / 1000 Ang^3
#
#
#
# Elastic Constant Matrix: (Units=GPa)
#
#
# Indices 1 2 3 4 5 6 
#
# 1 111.2933 34.9408 45.1373 0.0000 0.0000 0.0000
# 2 34.9408 111.5812 18.1872 0.0000 -0.0001 0.0000
# 3 45.1373 18.1872 76.8440 0.0000 -0.0002 0.0000
# 4 0.0000 0.0000 0.0000 31.0328 -0.0001 0.0000
# 5 0.0000 -0.0001 -0.0002 -0.0001 -5.7089 0.0000
# 6 0.0000 0.0000 0.0000 0.0000 0.0000 -9.4581
#
#
#
# Elastic Compliance Matrix: (Units=1/GPa)
#
#
# Indices 1 2 3 4 5 6 
#
# 1 0.012611 -0.002852 -0.006733 0.000000 0.000000 0.000000
# 2 -0.002852 0.009967 -0.000684 0.000000 0.000000 0.000000
# 3 -0.006733 -0.000684 0.017130 0.000000 -0.000001 0.000000
# 4 0.000000 0.000000 0.000000 0.032224 0.000000 0.000000
# 5 0.000000 0.000000 -0.000001 0.000000 -0.175165 0.000000
# 6 0.000000 0.000000 0.000000 0.000000 0.000000 -0.105730
#
#
# Mechanical properties :
#
#
# Convention : Reuss Voigt Hill
#
# Bulk Modulus (GPa) = 52.16154 55.13878 53.65016
# Shear Modulus (GPa) = -27.46715 16.60338 -5.43188
#
# Velocity S-wave (km/s) = -3.69418 2.87217 -1.64281
# Velocity P-wave (km/s) = 2.77855 6.19635 4.80183
#
# Compressibility (1/GPa) = 0.01917121
#
# Stress axis : x y z
#
# Youngs Moduli (GPa) = 79.29481 100.33592 58.37727
#
# Poissons Ratio (x) = 0.28613 0.39304
# Poissons Ratio (y) = 0.22612 0.03992
# Poissons Ratio (z) = 0.53387 0.06861
#
# Static dielectric constant tensor:
#      x y z
#    x 1.736440 0.000000 0.000000 
#    y 0.000000 1.732050 0.000000 
#    z 0.000000 0.000000 1.697630 
# 
# From -- ./inp_files/32707.got.cif
#   From: 2010.05.17/outbox.cif.g08.bks.cpg/sg74_17_cif.got.tgz:32707.got - 2010.06.03 17:57:02.
