data_PCOD9538490
_publ_section_title
;
Structure prediction by ZEFSAII (Michael W. Deem and Ramdas Pophale) SiO2 
 PCOD9538490
Probable space group: I M M A
;
_chemical_formula_sum "Si O2"
_cell_formula_units_Z 116
_cell_length_a 25.498324
_cell_length_b 8.903250
_cell_length_c 25.232421
_cell_angle_alpha 90.000000
_cell_angle_beta 90.000000
_cell_angle_gamma 90.000000
_cell_volume 5728.212569
_symmetry_space_group_name_H-M "I M M A"
_symmetry_group_IT_number 74
_symmetry_cell_setting 'orthorhombic'
loop_
_space_group_symop_operation_xyz
x,y,z
-x,1/2-y,z
x,-y,-z
-x,1/2+y,-z
-x,-y,-z
x,1/2+y,-z
-x,y,z
x,1/2-y,z
1/2+x,1/2+y,1/2+z
1/2-x,-y,1/2+z
1/2+x,1/2-y,1/2-z
1/2-x,y,1/2-z
1/2-x,1/2-y,1/2-z
1/2+x,y,1/2-z
1/2-x,1/2+y,1/2+z
1/2+x,-y,1/2+z
loop_
_atom_site_type_symbol
_atom_site_label
_atom_site_fract_x
_atom_site_fract_y
_atom_site_fract_z
Si Si1 0.761292 0.430234 0.104670
Si Si2 0.441322 0.077302 0.871756
Si Si3 0.358955 0.568147 0.446332
Si Si4 0.844105 0.432975 0.559132
Si Si5 0.056686 0.920699 0.136894
Si Si6 0.087588 0.489638 0.746463
Si Si7 0.198768 0.926583 0.213634
Si Si8 0.500000 0.750000 0.756504
O O1 0.758112 0.250000 0.104024
O O2 0.802667 0.492118 0.061953
O O3 0.705392 0.504120 0.091737
O O4 0.784578 0.491214 0.159953
O O5 0.500000 0.007600 0.873348
O O6 0.446738 0.250000 0.888289
O O7 0.397007 0.013766 0.910552
O O8 0.420325 0.080644 0.811452
O O9 0.382290 0.500000 0.500000
O O10 0.354037 0.750000 0.447727
O O11 0.395749 0.516688 0.397357
O O12 0.842562 0.500000 0.500000
O O13 0.841983 0.250000 0.557895
O O14 0.052366 0.750000 0.117590
O O15 0.069426 0.912815 0.198857
O O16 0.000000 0.997023 0.129801
O O17 0.149715 0.506221 0.757390
O O18 0.046705 0.624080 0.743956
O O19 0.184614 0.750000 0.203344
O O20 0.250000 0.926774 0.250000
#
# Coordination Sequence:
#
# PCOD9538490 Si02
#       8
#    16  16  16  16  16  16  16   4
#     4  12  25  42  65  96 131 172 216 275 337 401
#     4  10  21  41  70  98 128 170 225 276 328 399
#     4  11  23  41  63  91 125 168 219 274 329 394
#     4  11  24  45  69  98 132 174 224 281 338 406
#     4  10  20  37  64  90 119 162 219 269 319 387
#     4  12  22  42  63  96 137 181 223 272 340 400
#     4  11  24  43  69 101 136 179 227 279 340 411
#     4  12  28  40  60 100 148 192 222 282 336 412
#
# _framework density 20.250644999999999
#
# number of rings (size 3 to 8) (size 9 to 14) (size 15 to 20)
#    0.000    0.966    2.759    4.552    0.966    4.138 
#    6.207    0.000    0.000    0.000    0.000    0.000 
#    0.000    0.000    0.000    0.000    0.000    0.000 
#
# Total GULP energy -322941.317860 kJ/mol
# GULP energy per Si atom -5567.953756 kJ/mol
# Density = 2.020455 g / cm^3
# Si number density = 20.250645 Si / 1000 Ang^3
#
#
#
# Elastic Constant Matrix: (Units=GPa)
#
#
# Indices 1 2 3 4 5 6 
#
# 1 187.0174 42.7814 45.5039 0.0000 0.0000 0.0000
# 2 42.7814 91.4359 30.0958 0.0000 0.0000 0.0000
# 3 45.5039 30.0958 54.4208 0.0000 0.0000 0.0000
# 4 0.0000 0.0000 0.0000 30.4160 0.0000 0.0000
# 5 0.0000 0.0000 0.0000 0.0000 22.2804 0.0000
# 6 0.0000 0.0000 0.0000 0.0000 0.0000 18.4947
#
#
#
# Elastic Compliance Matrix: (Units=1/GPa)
#
#
# Indices 1 2 3 4 5 6 
#
# 1 0.006905 -0.001626 -0.004874 0.000000 0.000000 0.000000
# 2 -0.001626 0.013753 -0.006246 0.000000 0.000000 0.000000
# 3 -0.004874 -0.006246 0.025905 0.000000 0.000000 0.000000
# 4 0.000000 0.000000 0.000000 0.032877 0.000000 0.000000
# 5 0.000000 0.000000 0.000000 0.000000 0.044882 0.000000
# 6 0.000000 0.000000 0.000000 0.000000 0.000000 0.054069
#
#
# Mechanical properties :
#
#
# Convention : Reuss Voigt Hill
#
# Bulk Modulus (GPa) = 47.46017 63.29292 55.37654
# Shear Modulus (GPa) = 23.70681 28.53777 26.12229
#
# Velocity S-wave (km/s) = 3.42522 3.75804 3.59548
# Velocity P-wave (km/s) = 6.25540 7.08189 6.68144
#
# Compressibility (1/GPa) = 0.02107030
#
# Stress axis : x y z
#
# Youngs Moduli (GPa) = 144.81987 72.70895 38.60241
#
# Poissons Ratio (x) = 0.11826 0.18816
# Poissons Ratio (y) = 0.23554 0.24111
# Poissons Ratio (z) = 0.70589 0.45414
#
# Static dielectric constant tensor:
#      x y z
#    x 1.766640 0.000000 0.000000 
#    y 0.000000 1.703770 0.000000 
#    z 0.000000 0.000000 1.727510 
# 
# From -- ./inp_files/68772.got.cif
#   From: 2010.05.17/outbox.cif.g08.bks.cpg/sg74_35_cif.got.tgz:68772.got - 2010.06.03 17:57:02.
