data_PCOD9538330
_publ_section_title
;
Structure prediction by ZEFSAII (Michael W. Deem and Ramdas Pophale) SiO2 
 PCOD9538330
Probable space group: I M M A
;
_chemical_formula_sum "Si O2"
_cell_formula_units_Z 72
_cell_length_a 8.600357
_cell_length_b 23.290432
_cell_length_c 19.504277
_cell_angle_alpha 90.000000
_cell_angle_beta 90.000000
_cell_angle_gamma 90.000000
_cell_volume 3906.824292
_symmetry_space_group_name_H-M "I M M A"
_symmetry_group_IT_number 74
_symmetry_cell_setting 'orthorhombic'
loop_
_space_group_symop_operation_xyz
x,y,z
-x,1/2-y,z
x,-y,-z
-x,1/2+y,-z
-x,-y,-z
x,1/2+y,-z
-x,y,z
x,1/2-y,z
1/2+x,1/2+y,1/2+z
1/2-x,-y,1/2+z
1/2+x,1/2-y,1/2-z
1/2-x,y,1/2-z
1/2-x,1/2-y,1/2-z
1/2+x,y,1/2-z
1/2-x,1/2+y,1/2+z
1/2+x,-y,1/2+z
loop_
_atom_site_type_symbol
_atom_site_label
_atom_site_fract_x
_atom_site_fract_y
_atom_site_fract_z
Si Si1 0.187657 0.481493 0.923431
Si Si2 0.687665 0.144589 0.922604
Si Si3 0.188142 0.750000 0.326862
Si Si4 0.312044 0.316220 0.075346
Si Si5 0.313653 0.413926 0.326657
O O1 0.249867 0.418484 0.906850
O O2 0.238110 0.529917 0.869528
O O3 0.000000 0.479714 0.923655
O O4 0.238786 0.500000 0.000000
O O5 0.500000 0.143334 0.922009
O O6 0.738128 0.193462 0.869097
O O7 0.736397 0.162679 0.999520
O O8 0.250000 0.750000 0.250000
O O9 0.000000 0.750000 0.325627
O O10 0.500000 0.318681 0.077944
O O11 0.265529 0.250000 0.084884
O O12 0.244042 0.358365 0.132041
O O13 0.500000 0.413733 0.325101
O O14 0.250000 0.414846 0.250000
#
# Coordination Sequence:
#
# PCOD9538330 Si02
#       5
#    16  16   8  16  16
#     4  10  21  38  59  86 118 150 191 242 289 339
#     4  10  20  36  61  88 116 152 196 240 286 343
#     4  10  22  40  58  86 123 156 193 240 291 342
#     4  10  20  37  62  89 116 150 193 241 289 343
#     4  11  24  41  60  85 120 155 191 239 292 346
#
# _framework density 18.429290999999999
#
# number of rings (size 3 to 8) (size 9 to 14) (size 15 to 20)
#    0.000    1.778    3.333    0.667    0.000    4.889 
#    0.000    4.444    0.000    0.000    0.000    0.000 
#    0.000    0.000    0.000    0.000    0.000    0.000 
#
# Total GULP energy -201106.988266 kJ/mol
# GULP energy per Si atom -5586.305230 kJ/mol
# Density = 1.838734 g / cm^3
# Si number density = 18.429291 Si / 1000 Ang^3
#
#
#
# Elastic Constant Matrix: (Units=GPa)
#
#
# Indices 1 2 3 4 5 6 
#
# 1 13.9877 34.2830 32.7568 0.0000 0.0000 0.0000
# 2 34.2830 206.3957 108.1755 0.0000 0.0000 0.0000
# 3 32.7568 108.1755 182.5668 0.0000 0.0000 0.0000
# 4 0.0000 0.0000 0.0000 33.8435 0.0000 0.0000
# 5 0.0000 0.0000 0.0000 0.0000 25.0866 0.0000
# 6 0.0000 0.0000 0.0000 0.0000 0.0000 68.0212
#
#
#
# Elastic Compliance Matrix: (Units=1/GPa)
#
#
# Indices 1 2 3 4 5 6 
#
# 1 0.152539 -0.015944 -0.017922 0.000000 0.000000 0.000000
# 2 -0.015944 0.008694 -0.002291 0.000000 0.000000 0.000000
# 3 -0.017922 -0.002291 0.010050 0.000000 0.000000 0.000000
# 4 0.000000 0.000000 0.000000 0.029548 0.000000 0.000000
# 5 0.000000 0.000000 0.000000 0.000000 0.039862 0.000000
# 6 0.000000 0.000000 0.000000 0.000000 0.000000 0.014701
#
#
# Mechanical properties :
#
#
# Convention : Reuss Voigt Hill
#
# Bulk Modulus (GPa) = 10.10402 83.70897 46.90649
# Shear Modulus (GPa) = 13.86200 40.57258 27.21729
#
# Velocity S-wave (km/s) = 2.74555 4.69713 3.84715
# Velocity P-wave (km/s) = 3.94274 8.65666 6.72618
#
# Compressibility (1/GPa) = 0.09897048
#
# Stress axis : x y z
#
# Youngs Moduli (GPa) = 6.55568 115.02172 99.49914
#
# Poissons Ratio (x) = 1.83392 1.78321
# Poissons Ratio (y) = 0.10452 0.22792
# Poissons Ratio (z) = 0.11749 0.26348
#
# Static dielectric constant tensor:
#      x y z
#    x 1.628160 0.000000 0.000000 
#    y 0.000000 1.610260 0.000000 
#    z 0.000000 0.000000 1.607230 
# 
# From -- ./inp_files/39449.got.cif
#   From: 2010.05.17/outbox.cif.g08.bks.cpg/sg74_20_cif.got.tgz:39449.got - 2010.06.03 17:57:02.
