data_PCOD9538430
_publ_section_title
;
Structure prediction by ZEFSAII (Michael W. Deem and Ramdas Pophale) SiO2 
 PCOD9538430
Probable space group: I M M A
;
_chemical_formula_sum "Si O2"
_cell_formula_units_Z 104
_cell_length_a 23.278953
_cell_length_b 25.684725
_cell_length_c 8.987796
_cell_angle_alpha 90.000000
_cell_angle_beta 90.000000
_cell_angle_gamma 90.000000
_cell_volume 5373.924618
_symmetry_space_group_name_H-M "I M M A"
_symmetry_group_IT_number 74
_symmetry_cell_setting 'orthorhombic'
loop_
_space_group_symop_operation_xyz
x,y,z
-x,1/2-y,z
x,-y,-z
-x,1/2+y,-z
-x,-y,-z
x,1/2+y,-z
-x,y,z
x,1/2-y,z
1/2+x,1/2+y,1/2+z
1/2-x,-y,1/2+z
1/2+x,1/2-y,1/2-z
1/2-x,y,1/2-z
1/2-x,1/2-y,1/2-z
1/2+x,y,1/2-z
1/2-x,1/2+y,1/2+z
1/2+x,-y,1/2+z
loop_
_atom_site_type_symbol
_atom_site_label
_atom_site_fract_x
_atom_site_fract_y
_atom_site_fract_z
Si Si1 0.845220 0.065989 0.371943
Si Si2 0.568681 0.250000 0.271587
Si Si3 0.738226 0.659145 0.903086
Si Si4 0.864524 0.750000 0.074218
Si Si5 0.181914 0.545065 0.282442
Si Si6 0.735258 0.750000 0.077118
Si Si7 0.568583 0.135210 0.273535
Si Si8 0.643182 0.365099 0.569516
O O1 0.800134 0.111912 0.347047
O O2 0.835094 0.054586 0.545891
O O3 0.906330 0.090515 0.331543
O O4 0.832499 0.016231 0.267978
O O5 0.500000 0.250000 0.263359
O O6 0.589647 0.250000 0.442357
O O7 0.587278 0.193020 0.215155
O O8 0.750000 0.689027 0.750000
O O9 0.707242 0.697480 0.019464
O O10 0.794732 0.639335 0.988640
O O11 0.799841 0.750000 0.007692
O O12 0.868093 0.692092 0.145248
O O13 0.250000 0.552203 0.250000
O O14 0.148115 0.586281 0.180260
O O15 0.750000 0.750000 0.250000
O O16 0.500000 0.133698 0.283908
O O17 0.597379 0.128399 0.436524
#
# Coordination Sequence:
#
# PCOD9538430 Si02
#       8
#    16   8  16   8  16   8  16  16
#     4  11  24  38  58  88 118 159 207 248 311 356
#     4   8  16  35  62  87 113 152 197 243 296 348
#     4  11  20  36  56  88 121 156 199 251 303 373
#     4   8  18  31  53  84 115 147 184 240 295 356
#     4  11  24  40  60  86 122 166 202 253 306 375
#     4  10  23  32  53  86 127 162 189 238 320 380
#     4  10  21  40  64  90 120 157 203 255 303 364
#     4  10  20  37  60  87 121 153 205 244 307 364
#
# _framework density 19.352709000000001
#
# number of rings (size 3 to 8) (size 9 to 14) (size 15 to 20)
#    0.000    1.846    3.077    0.692    4.308    1.231 
#    0.000    4.615    0.000    0.000    0.000    3.231 
#    0.000    0.000    0.000    0.000    0.000    0.000 
#
# Total GULP energy -289553.146038 kJ/mol
# GULP energy per Si atom -5568.329732 kJ/mol
# Density = 1.930866 g / cm^3
# Si number density = 19.352709 Si / 1000 Ang^3
#
#
#
# Elastic Constant Matrix: (Units=GPa)
#
#
# Indices 1 2 3 4 5 6 
#
# 1 60.1794 38.9824 18.2979 0.0000 0.0000 0.0000
# 2 38.9824 152.1255 53.2578 0.0000 0.0000 0.0000
# 3 18.2979 53.2578 78.6852 0.0000 0.0000 0.0000
# 4 0.0000 0.0000 0.0000 33.9913 0.0000 0.0000
# 5 0.0000 0.0000 0.0000 0.0000 15.5866 0.0000
# 6 0.0000 0.0000 0.0000 0.0000 0.0000 48.1116
#
#
#
# Elastic Compliance Matrix: (Units=1/GPa)
#
#
# Indices 1 2 3 4 5 6 
#
# 1 0.020068 -0.004598 -0.001554 0.000000 0.000000 0.000000
# 2 -0.004598 0.009669 -0.005475 0.000000 0.000000 0.000000
# 3 -0.001554 -0.005475 0.016776 0.000000 0.000000 0.000000
# 4 0.000000 0.000000 0.000000 0.029419 0.000000 0.000000
# 5 0.000000 0.000000 0.000000 0.000000 0.064158 0.000000
# 6 0.000000 0.000000 0.000000 0.000000 0.000000 0.020785
#
#
# Mechanical properties :
#
#
# Convention : Reuss Voigt Hill
#
# Bulk Modulus (GPa) = 42.99664 56.89628 49.94646
# Shear Modulus (GPa) = 26.05764 31.56803 28.81284
#
# Velocity S-wave (km/s) = 3.67339 4.04319 3.86272
# Velocity P-wave (km/s) = 6.34487 7.15961 6.76452
#
# Compressibility (1/GPa) = 0.02325763
#
# Stress axis : x y z
#
# Youngs Moduli (GPa) = 49.82993 103.42840 59.60917
#
# Poissons Ratio (x) = 0.47560 0.09266
# Poissons Ratio (y) = 0.22913 0.32635
# Poissons Ratio (z) = 0.07746 0.56625
#
# Static dielectric constant tensor:
#      x y z
#    x 1.670780 0.000000 0.000000 
#    y 0.000000 1.825480 0.000000 
#    z 0.000000 0.000000 1.798650 
# 
# From -- ./inp_files/15411.got.cif
#   From: 2010.05.17/outbox.cif.g08.bks.cpg/sg74_8_cif.got.tgz:15411.got - 2010.06.03 17:57:02.
