data_PCOD9538473
_publ_section_title
;
Structure prediction by ZEFSAII (Michael W. Deem and Ramdas Pophale) SiO2 
 PCOD9538473
Probable space group: I M M A
;
_chemical_formula_sum "Si O2"
_cell_formula_units_Z 80
_cell_length_a 18.004848
_cell_length_b 25.075071
_cell_length_c 9.235570
_cell_angle_alpha 90.000000
_cell_angle_beta 90.000000
_cell_angle_gamma 90.000000
_cell_volume 4169.609035
_symmetry_space_group_name_H-M "I M M A"
_symmetry_group_IT_number 74
_symmetry_cell_setting 'orthorhombic'
loop_
_space_group_symop_operation_xyz
x,y,z
-x,1/2-y,z
x,-y,-z
-x,1/2+y,-z
-x,-y,-z
x,1/2+y,-z
-x,y,z
x,1/2-y,z
1/2+x,1/2+y,1/2+z
1/2-x,-y,1/2+z
1/2+x,1/2-y,1/2-z
1/2-x,y,1/2-z
1/2-x,1/2-y,1/2-z
1/2+x,y,1/2-z
1/2-x,1/2+y,1/2+z
1/2+x,-y,1/2+z
loop_
_atom_site_type_symbol
_atom_site_label
_atom_site_fract_x
_atom_site_fract_y
_atom_site_fract_z
Si Si1 0.411329 0.532559 0.642514
Si Si2 0.590189 0.354331 0.468732
Si Si3 0.090229 0.750000 0.452064
Si Si4 0.163392 0.849086 0.285306
Si Si5 0.181095 0.532831 0.358581
Si Si6 0.409913 0.750000 0.708656
O O1 0.388470 0.500000 0.500000
O O2 0.500000 0.533376 0.647120
O O3 0.385735 0.593044 0.618842
O O4 0.381988 0.501649 0.780479
O O5 0.500000 0.354388 0.479776
O O6 0.623127 0.355801 0.629927
O O7 0.613975 0.302143 0.380228
O O8 0.124422 0.801740 0.373279
O O9 0.111033 0.750000 0.622535
O O10 0.000000 0.750000 0.439698
O O11 0.250000 0.837577 0.250000
O O12 0.158632 0.905198 0.372157
O O13 0.201763 0.500000 0.500000
O O14 0.250000 0.533724 0.250000
O O15 0.500000 0.750000 0.707366
#
# Coordination Sequence:
#
# PCOD9538473 Si02
#       6
#    16  16   8  16  16   8
#     4  10  20  37  62  92 124 158 207 265 314 375
#     4  10  20  39  65  88 119 165 209 254 315 378
#     4  11  24  43  65  92 129 163 208 267 324 368
#     4  11  24  41  63  93 126 165 212 260 305 378
#     4  11  25  41  63  91 129 172 212 257 319 385
#     4   9  21  39  62  90 116 155 208 259 312 374
#
# _framework density 19.186451999999999
#
# number of rings (size 3 to 8) (size 9 to 14) (size 15 to 20)
#    0.000    1.600    2.000    2.100    5.600    2.000 
#    0.000    2.000    0.000    0.000    0.000    0.000 
#    0.000    0.000    0.000    0.000    0.000    0.000 
#
# Total GULP energy -223391.479133 kJ/mol
# GULP energy per Si atom -5584.786978 kJ/mol
# Density = 1.914278 g / cm^3
# Si number density = 19.186452 Si / 1000 Ang^3
#
#
#
# Elastic Constant Matrix: (Units=GPa)
#
#
# Indices 1 2 3 4 5 6 
#
# 1 47.2151 44.3216 22.0082 0.0000 0.0000 0.0000
# 2 44.3216 198.5377 55.9230 0.0000 0.0000 0.0000
# 3 22.0082 55.9230 58.6332 0.0000 0.0000 0.0000
# 4 0.0000 0.0000 0.0000 29.7132 0.0000 0.0000
# 5 0.0000 0.0000 0.0000 0.0000 15.0813 0.0000
# 6 0.0000 0.0000 0.0000 0.0000 0.0000 15.9404
#
#
#
# Elastic Compliance Matrix: (Units=1/GPa)
#
#
# Indices 1 2 3 4 5 6 
#
# 1 0.028405 -0.004564 -0.006309 0.000000 0.000000 0.000000
# 2 -0.004564 0.007620 -0.005555 0.000000 0.000000 0.000000
# 3 -0.006309 -0.005555 0.024721 0.000000 0.000000 0.000000
# 4 0.000000 0.000000 0.000000 0.033655 0.000000 0.000000
# 5 0.000000 0.000000 0.000000 0.000000 0.066307 0.000000
# 6 0.000000 0.000000 0.000000 0.000000 0.000000 0.062734
#
#
# Mechanical properties :
#
#
# Convention : Reuss Voigt Hill
#
# Bulk Modulus (GPa) = 35.85397 60.98796 48.42097
# Shear Modulus (GPa) = 18.82562 24.28917 21.55740
#
# Velocity S-wave (km/s) = 3.13580 3.56189 3.35561
# Velocity P-wave (km/s) = 5.64258 6.98370 6.34865
#
# Compressibility (1/GPa) = 0.02789091
#
# Stress axis : x y z
#
# Youngs Moduli (GPa) = 35.20544 131.22624 40.45063
#
# Poissons Ratio (x) = 0.59892 0.25519
# Poissons Ratio (y) = 0.16068 0.22471
# Poissons Ratio (z) = 0.22210 0.72897
#
# Static dielectric constant tensor:
#      x y z
#    x 1.675450 0.000000 0.000000 
#    y 0.000000 1.687110 0.000000 
#    z 0.000000 0.000000 1.686250 
# 
# From -- ./inp_files/12345.got.cif
#   From: 2010.05.17/outbox.cif.g08.bks.cpg/sg74_7_cif.got.tgz:12345.got - 2010.06.03 17:57:02.
