data_PCOD9538520
_publ_section_title
;
Structure prediction by ZEFSAII (Michael W. Deem and Ramdas Pophale) SiO2 
 PCOD9538520
Probable space group: I M M A
;
_chemical_formula_sum "Si O2"
_cell_formula_units_Z 104
_cell_length_a 12.070861
_cell_length_b 25.739060
_cell_length_c 18.631714
_cell_angle_alpha 90.000000
_cell_angle_beta 90.000000
_cell_angle_gamma 90.000000
_cell_volume 5788.735954
_symmetry_space_group_name_H-M "I M M A"
_symmetry_group_IT_number 74
_symmetry_cell_setting 'orthorhombic'
loop_
_space_group_symop_operation_xyz
x,y,z
-x,1/2-y,z
x,-y,-z
-x,1/2+y,-z
-x,-y,-z
x,1/2+y,-z
-x,y,z
x,1/2-y,z
1/2+x,1/2+y,1/2+z
1/2-x,-y,1/2+z
1/2+x,1/2-y,1/2-z
1/2-x,y,1/2-z
1/2-x,1/2-y,1/2-z
1/2+x,y,1/2-z
1/2-x,1/2+y,1/2+z
1/2+x,-y,1/2+z
loop_
_atom_site_type_symbol
_atom_site_label
_atom_site_fract_x
_atom_site_fract_y
_atom_site_fract_z
Si Si1 0.245051 0.551815 0.164726
Si Si2 0.132591 0.449110 0.394250
Si Si3 0.868565 0.392899 0.540970
Si Si4 0.000000 0.084587 0.149615
Si Si5 0.222888 0.638745 0.826244
Si Si6 0.287776 0.811060 0.520376
Si Si7 0.500000 0.873296 0.493246
Si Si8 0.500000 0.463010 0.614589
O O1 0.250000 0.556813 0.250000
O O2 0.300123 0.497883 0.136783
O O3 0.309126 0.593192 0.115259
O O4 0.115300 0.554018 0.148431
O O5 0.157305 0.435793 0.478232
O O6 0.178191 0.399345 0.351358
O O7 0.000000 0.456467 0.386801
O O8 0.821459 0.339347 0.509419
O O9 0.000000 0.392444 0.549718
O O10 0.885730 0.102234 0.186030
O O11 0.000000 0.117175 0.077258
O O12 0.000000 0.025004 0.124934
O O13 0.250000 0.664222 0.750000
O O14 0.204601 0.676359 0.894195
O O15 0.290526 0.750000 0.508633
O O16 0.389454 0.840195 0.480233
O O17 0.500000 0.930760 0.459453
#
# Coordination Sequence:
#
# PCOD9538520 Si02
#       8
#    16  16  16   8  16  16   8   8
#     4  12  25  36  56  87 122 153 187 230 283 345
#     4  10  21  36  58  81 116 160 199 226 270 335
#     4  10  22  41  60  83 113 153 191 240 289 338
#     4  10  21  33  55  80 120 158 191 227 273 338
#     4  10  21  34  53  82 119 159 191 232 283 335
#     4  10  21  39  62  85 107 143 198 250 296 341
#     4  10  20  38  58  86 114 145 186 244 295 337
#     4  12  23  35  57  88 115 156 194 226 279 338
#
# _framework density 17.965924999999999
#
# number of rings (size 3 to 8) (size 9 to 14) (size 15 to 20)
#    0.000    1.538    3.077    1.846    3.231    3.077 
#    0.000    0.000    0.000    0.462    0.000    0.000 
#    0.000    0.000    0.000    0.000    0.000    0.000 
#
# Total GULP energy -289871.832327 kJ/mol
# GULP energy per Si atom -5574.458314 kJ/mol
# Density = 1.792503 g / cm^3
# Si number density = 17.965925 Si / 1000 Ang^3
#
#
#
# Elastic Constant Matrix: (Units=GPa)
#
#
# Indices 1 2 3 4 5 6 
#
# 1 106.0585 8.7380 43.4867 0.0000 0.0000 0.0000
# 2 8.7380 37.7961 3.2797 0.0000 0.0000 0.0000
# 3 43.4867 3.2797 90.1596 0.0000 0.0000 0.0000
# 4 0.0000 0.0000 0.0000 10.8371 0.0000 0.0000
# 5 0.0000 0.0000 0.0000 0.0000 -9.6934 0.0000
# 6 0.0000 0.0000 0.0000 0.0000 0.0000 6.6758
#
#
#
# Elastic Compliance Matrix: (Units=1/GPa)
#
#
# Indices 1 2 3 4 5 6 
#
# 1 0.011944 -0.002269 -0.005678 0.000000 0.000000 0.000000
# 2 -0.002269 0.026972 0.000113 0.000000 0.000000 0.000000
# 3 -0.005678 0.000113 0.013826 0.000000 0.000000 0.000000
# 4 0.000000 0.000000 0.000000 0.092276 0.000000 0.000000
# 5 0.000000 0.000000 0.000000 0.000000 -0.103163 0.000000
# 6 0.000000 0.000000 0.000000 0.000000 0.000000 0.149794
#
#
# Mechanical properties :
#
#
# Convention : Reuss Voigt Hill
#
# Bulk Modulus (GPa) = 26.97260 38.33590 32.65425
# Shear Modulus (GPa) = 22.76087 13.46457 18.11272
#
# Velocity S-wave (km/s) = 3.56320 2.74058 3.17862
# Velocity P-wave (km/s) = 5.65459 5.60346 5.62908
#
# Compressibility (1/GPa) = 0.03707466
#
# Stress axis : x y z
#
# Youngs Moduli (GPa) = 83.72443 37.07497 72.32651
#
# Poissons Ratio (x) = 0.08411 0.41070
# Poissons Ratio (y) = 0.18993 -0.00818
# Poissons Ratio (z) = 0.47542 -0.00419
#
# Static dielectric constant tensor:
#      x y z
#    x 1.664570 0.000000 0.000000 
#    y 0.000000 1.596300 0.000000 
#    z 0.000000 0.000000 1.642150 
# 
# From -- ./inp_files/41727.got.cif
#   From: 2010.05.17/outbox.cif.g08.bks.cpg/sg74_21_cif.got.tgz:41727.got - 2010.06.03 17:57:02.
