data_PCOD9538636
_publ_section_title
;
Structure prediction by ZEFSAII (Michael W. Deem and Ramdas Pophale) SiO2 
 PCOD9538636
Probable space group: I M M A
;
_chemical_formula_sum "Si O2"
_cell_formula_units_Z 88
_cell_length_a 22.228899
_cell_length_b 8.682184
_cell_length_c 23.848124
_cell_angle_alpha 90.000000
_cell_angle_beta 90.000000
_cell_angle_gamma 90.000000
_cell_volume 4602.578022
_symmetry_space_group_name_H-M "I M M A"
_symmetry_group_IT_number 74
_symmetry_cell_setting 'orthorhombic'
loop_
_space_group_symop_operation_xyz
x,y,z
-x,1/2-y,z
x,-y,-z
-x,1/2+y,-z
-x,-y,-z
x,1/2+y,-z
-x,y,z
x,1/2-y,z
1/2+x,1/2+y,1/2+z
1/2-x,-y,1/2+z
1/2+x,1/2-y,1/2-z
1/2-x,y,1/2-z
1/2-x,1/2-y,1/2-z
1/2+x,y,1/2-z
1/2-x,1/2+y,1/2+z
1/2+x,-y,1/2+z
loop_
_atom_site_type_symbol
_atom_site_label
_atom_site_fract_x
_atom_site_fract_y
_atom_site_fract_z
Si Si1 0.428097 0.574565 0.558557
Si Si2 0.000000 0.563590 0.436432
Si Si3 0.256186 0.066896 0.059962
Si Si4 0.843078 0.568412 0.142279
Si Si5 0.681579 0.936708 0.235991
Si Si6 0.127924 0.436711 0.616493
O O1 0.409284 0.500000 0.500000
O O2 0.500000 0.577203 0.559948
O O3 0.405674 0.750000 0.562781
O O4 0.401850 0.472380 0.607635
O O5 0.000000 0.500000 0.500000
O O6 0.060976 0.517247 0.403238
O O7 0.000000 0.750000 0.439503
O O8 0.257648 0.250000 0.057205
O O9 0.211505 0.013137 0.109494
O O10 0.321977 0.000941 0.074294
O O11 0.236214 0.000000 0.000000
O O12 0.829777 0.750000 0.141502
O O13 0.851739 0.520929 0.206623
O O14 0.683676 0.750000 0.231492
O O15 0.750000 0.987209 0.250000
O O16 0.649951 0.989447 0.178681
O O17 0.130055 0.250000 0.615684
#
# Coordination Sequence:
#
# PCOD9538636 Si02
#       6
#    16   8  16  16  16  16
#     4  10  21  38  58  81 114 152 190 236 287 343
#     4  10  22  38  62  88 118 156 197 248 297 352
#     4  12  24  37  56  85 116 151 190 238 293 351
#     4  11  21  36  59  86 115 150 190 238 287 346
#     4   9  17  34  60  85 113 149 188 234 287 342
#     4  10  20  39  61  86 117 153 196 242 295 350
#
# _framework density 19.119719
#
# number of rings (size 3 to 8) (size 9 to 14) (size 15 to 20)
#    0.000    1.636    1.818    3.818    0.000    3.273 
#    1.636    2.727    0.000    0.000    0.000    0.000 
#    0.000    0.000    0.000    0.000    0.000    0.000 
#
# Total GULP energy -245626.725443 kJ/mol
# GULP energy per Si atom -5582.425578 kJ/mol
# Density = 1.907620 g / cm^3
# Si number density = 19.119719 Si / 1000 Ang^3
#
#
#
# Elastic Constant Matrix: (Units=GPa)
#
#
# Indices 1 2 3 4 5 6 
#
# 1 94.1314 21.1688 54.6592 0.0000 0.0000 0.0000
# 2 21.1688 43.0342 22.8095 0.0000 0.0000 0.0000
# 3 54.6592 22.8095 144.3076 0.0000 0.0000 0.0000
# 4 0.0000 0.0000 0.0000 22.6206 0.0000 0.0000
# 5 0.0000 0.0000 0.0000 0.0000 13.9220 0.0000
# 6 0.0000 0.0000 0.0000 0.0000 0.0000 19.9585
#
#
#
# Elastic Compliance Matrix: (Units=1/GPa)
#
#
# Indices 1 2 3 4 5 6 
#
# 1 0.014400 -0.004576 -0.004731 0.000000 0.000000 0.000000
# 2 -0.004576 0.026816 -0.002505 0.000000 0.000000 0.000000
# 3 -0.004731 -0.002505 0.009118 0.000000 0.000000 0.000000
# 4 0.000000 0.000000 0.000000 0.044208 0.000000 0.000000
# 5 0.000000 0.000000 0.000000 0.000000 0.071829 0.000000
# 6 0.000000 0.000000 0.000000 0.000000 0.000000 0.050104
#
#
# Mechanical properties :
#
#
# Convention : Reuss Voigt Hill
#
# Bulk Modulus (GPa) = 37.44037 53.19426 45.31731
# Shear Modulus (GPa) = 20.08025 23.48925 21.78475
#
# Velocity S-wave (km/s) = 3.24425 3.50885 3.37914
# Velocity P-wave (km/s) = 5.80156 6.65568 6.24325
#
# Compressibility (1/GPa) = 0.02670914
#
# Stress axis : x y z
#
# Youngs Moduli (GPa) = 69.44677 37.29101 109.67861
#
# Poissons Ratio (x) = 0.17063 0.51887
# Poissons Ratio (y) = 0.31777 0.27479
# Poissons Ratio (z) = 0.32854 0.09343
#
# Static dielectric constant tensor:
#      x y z
#    x 1.684160 0.000000 0.000000 
#    y 0.000000 1.659520 0.000000 
#    z 0.000000 0.000000 1.664690 
# 
# From -- ./inp_files/48785.got.cif
#   From: 2010.05.17/outbox.cif.g08.bks.cpg/sg74_25_cif.got.tgz:48785.got - 2010.06.03 17:57:02.
