data_PCOD9538514
_publ_section_title
;
Structure prediction by ZEFSAII (Michael W. Deem and Ramdas Pophale) SiO2 
 PCOD9538514
Probable space group: I M M A
;
_chemical_formula_sum "Si O2"
_cell_formula_units_Z 64
_cell_length_a 10.533036
_cell_length_b 7.909227
_cell_length_c 39.599762
_cell_angle_alpha 90.000000
_cell_angle_beta 90.000000
_cell_angle_gamma 90.000000
_cell_volume 3298.983812
_symmetry_space_group_name_H-M "I M M A"
_symmetry_group_IT_number 74
_symmetry_cell_setting 'orthorhombic'
loop_
_space_group_symop_operation_xyz
x,y,z
-x,1/2-y,z
x,-y,-z
-x,1/2+y,-z
-x,-y,-z
x,1/2+y,-z
-x,y,z
x,1/2-y,z
1/2+x,1/2+y,1/2+z
1/2-x,-y,1/2+z
1/2+x,1/2-y,1/2-z
1/2-x,y,1/2-z
1/2-x,1/2-y,1/2-z
1/2+x,y,1/2-z
1/2-x,1/2+y,1/2+z
1/2+x,-y,1/2+z
loop_
_atom_site_type_symbol
_atom_site_label
_atom_site_fract_x
_atom_site_fract_y
_atom_site_fract_z
Si Si1 0.000000 0.049192 0.039211
Si Si2 0.500000 0.454665 0.960732
Si Si3 0.144867 0.452722 0.223877
Si Si4 0.246675 0.451693 0.578623
Si Si5 0.146365 0.454451 0.852141
O O1 0.000000 0.250000 0.042013
O O2 0.125424 0.981377 0.057557
O O3 0.000000 0.000000 0.000000
O O4 0.500000 0.250000 0.959213
O O5 0.374454 0.518877 0.941574
O O6 0.500000 0.500000 0.000000
O O7 0.138923 0.250000 0.228004
O O8 0.250000 0.518866 0.250000
O O9 0.183355 0.488988 0.185265
O O10 0.000000 0.518197 0.228717
O O11 0.229013 0.250000 0.581573
O O12 0.269502 0.517132 0.616616
O O13 0.147188 0.250000 0.852555
O O14 0.000000 0.509066 0.857787
#
# Coordination Sequence:
#
# PCOD9538514 Si02
#       5
#     8   8  16  16  16
#     4  12  24  36  56  84 109 140 181 226 271 322
#     4  10  22  38  58  78 107 146 181 218 273 328
#     4   9  18  33  52  74 104 140 175 212 258 310
#     4  10  20  38  58  80 110 144 180 225 275 326
#     4   9  17  32  55  79 105 137 173 217 267 313
#
# _framework density 19.399913999999999
#
# number of rings (size 3 to 8) (size 9 to 14) (size 15 to 20)
#    0.000    2.250    1.250    1.875    0.000    4.500 
#    2.250    0.000    0.000    0.000    0.000    0.000 
#    0.000    0.000    0.000    0.000    0.000    0.000 
#
# Total GULP energy -178583.474746 kJ/mol
# GULP energy per Si atom -5580.733586 kJ/mol
# Density = 1.935576 g / cm^3
# Si number density = 19.399914 Si / 1000 Ang^3
#
#
#
# Elastic Constant Matrix: (Units=GPa)
#
#
# Indices 1 2 3 4 5 6 
#
# 1 154.3989 0.5398 120.0275 0.0000 0.0000 0.0000
# 2 0.5398 14.5474 1.1663 0.0000 0.0000 0.0000
# 3 120.0275 1.1663 202.7318 0.0000 0.0000 0.0000
# 4 0.0000 0.0000 0.0000 27.3985 0.0000 0.0000
# 5 0.0000 0.0000 0.0000 0.0000 59.8689 0.0000
# 6 0.0000 0.0000 0.0000 0.0000 0.0000 -18.0734
#
#
#
# Elastic Compliance Matrix: (Units=1/GPa)
#
#
# Indices 1 2 3 4 5 6 
#
# 1 0.012000 0.000124 -0.007105 0.000000 0.000000 0.000000
# 2 0.000124 0.068774 -0.000469 0.000000 0.000000 0.000000
# 3 -0.007105 -0.000469 0.009142 0.000000 0.000000 0.000000
# 4 0.000000 0.000000 0.000000 0.036498 0.000000 0.000000
# 5 0.000000 0.000000 0.000000 0.000000 0.016703 0.000000
# 6 0.000000 0.000000 0.000000 0.000000 0.000000 -0.055330
#
#
# Mechanical properties :
#
#
# Convention : Reuss Voigt Hill
#
# Bulk Modulus (GPa) = 13.33064 68.34950 40.84007
# Shear Modulus (GPa) = 39.15665 30.50176 34.82920
#
# Velocity S-wave (km/s) = 4.49753 3.96948 4.24173
# Velocity P-wave (km/s) = 5.81865 7.50449 6.71469
#
# Compressibility (1/GPa) = 0.07501514
#
# Stress axis : x y z
#
# Youngs Moduli (GPa) = 83.33498 14.54045 109.38582
#
# Poissons Ratio (x) = -0.00181 0.77721
# Poissons Ratio (y) = -0.01036 0.05133
# Poissons Ratio (z) = 0.59211 0.00682
#
# Static dielectric constant tensor:
#      x y z
#    x 1.676570 0.000000 0.000000 
#    y 0.000000 1.704300 0.000000 
#    z 0.000000 0.000000 1.662160 
# 
# From -- ./inp_files/71297.got.cif
#   From: 2010.05.17/outbox.cif.g08.bks.cpg/sg74_36_cif.got.tgz:71297.got - 2010.06.03 17:57:02.
