data_PCOD9538722
_publ_section_title
;
Structure prediction by ZEFSAII (Michael W. Deem and Ramdas Pophale) SiO2 
 PCOD9538722
Probable space group: I M M A
;
_chemical_formula_sum "Si O2"
_cell_formula_units_Z 116
_cell_length_a 16.937538
_cell_length_b 22.722670
_cell_length_c 15.494156
_cell_angle_alpha 90.000000
_cell_angle_beta 90.000000
_cell_angle_gamma 90.000000
_cell_volume 5963.175185
_symmetry_space_group_name_H-M "I M M A"
_symmetry_group_IT_number 74
_symmetry_cell_setting 'orthorhombic'
loop_
_space_group_symop_operation_xyz
x,y,z
-x,1/2-y,z
x,-y,-z
-x,1/2+y,-z
-x,-y,-z
x,1/2+y,-z
-x,y,z
x,1/2-y,z
1/2+x,1/2+y,1/2+z
1/2-x,-y,1/2+z
1/2+x,1/2-y,1/2-z
1/2-x,y,1/2-z
1/2-x,1/2-y,1/2-z
1/2+x,y,1/2-z
1/2-x,1/2+y,1/2+z
1/2+x,-y,1/2+z
loop_
_atom_site_type_symbol
_atom_site_label
_atom_site_fract_x
_atom_site_fract_y
_atom_site_fract_z
Si Si1 0.864615 0.653123 0.051970
Si Si2 0.335176 0.588150 0.277291
Si Si3 0.689113 0.448633 0.069420
Si Si4 0.689740 0.684977 0.995794
Si Si5 0.121964 0.949440 0.932121
Si Si6 0.590017 0.316057 0.831308
Si Si7 0.913760 0.025714 0.265311
Si Si8 0.000000 0.250000 0.909405
O O1 0.842480 0.603768 0.123239
O O2 0.930117 0.698268 0.085072
O O3 0.780794 0.682329 0.027851
O O4 0.895548 0.614495 0.971903
O O5 0.250000 0.564191 0.250000
O O6 0.350679 0.647585 0.226482
O O7 0.401699 0.543738 0.247096
O O8 0.675797 0.379684 0.045462
O O9 0.783272 0.456248 0.074072
O O10 0.649354 0.456774 0.162573
O O11 0.662092 0.500000 0.000000
O O12 0.680218 0.750000 0.951331
O O13 0.628187 0.685579 0.074670
O O14 0.094251 0.952516 0.833289
O O15 0.093802 0.000000 0.000000
O O16 0.500000 0.338528 0.831998
O O17 0.585965 0.250000 0.796235
O O18 0.000000 0.041277 0.298704
#
# Coordination Sequence:
#
# PCOD9538722 Si02
#       8
#    16  16  16  16  16  16  16   4
#     4  11  24  39  63  93 125 178 213 272 332 399
#     4  12  23  37  60  89 129 171 214 264 324 402
#     4  10  22  40  69  95 125 172 218 281 334 402
#     4  10  20  41  64  92 124 166 225 271 339 399
#     4  10  21  42  67  91 122 168 223 266 331 399
#     4  10  22  35  55  86 124 166 210 262 316 389
#     4  12  26  40  62  96 132 165 215 278 338 399
#     4  12  28  40  60  92 140 168 226 274 326 394
#
# _framework density 19.452722999999999
#
# number of rings (size 3 to 8) (size 9 to 14) (size 15 to 20)
#    0.000    1.241    3.448    2.483    5.793    1.379 
#    0.000    0.000    1.517    1.655    0.000    0.000 
#    0.000    0.000    0.000    0.000    0.000    0.000 
#
# Total GULP energy -322875.424777 kJ/mol
# GULP energy per Si atom -5566.817669 kJ/mol
# Density = 1.940845 g / cm^3
# Si number density = 19.452723 Si / 1000 Ang^3
#
#
#
# Elastic Constant Matrix: (Units=GPa)
#
#
# Indices 1 2 3 4 5 6 
#
# 1 60.4170 15.4683 21.3178 0.0000 0.0000 0.0000
# 2 15.4683 98.5740 32.3625 0.0000 0.0000 0.0000
# 3 21.3178 32.3625 71.7881 0.0000 0.0000 0.0000
# 4 0.0000 0.0000 0.0000 22.4537 0.0000 0.0000
# 5 0.0000 0.0000 0.0000 0.0000 -67.2388 0.0000
# 6 0.0000 0.0000 0.0000 0.0000 0.0000 26.0104
#
#
#
# Elastic Compliance Matrix: (Units=1/GPa)
#
#
# Indices 1 2 3 4 5 6 
#
# 1 0.018630 -0.001299 -0.004946 0.000000 0.000000 0.000000
# 2 -0.001299 0.011998 -0.005023 0.000000 0.000000 0.000000
# 3 -0.004946 -0.005023 0.017663 0.000000 0.000000 0.000000
# 4 0.000000 0.000000 0.000000 0.044536 0.000000 0.000000
# 5 0.000000 0.000000 0.000000 0.000000 -0.014872 0.000000
# 6 0.000000 0.000000 0.000000 0.000000 0.000000 0.038446
#
#
# Mechanical properties :
#
#
# Convention : Reuss Voigt Hill
#
# Bulk Modulus (GPa) = 38.83017 41.00848 39.91932
# Shear Modulus (GPa) = 33.89336 7.02041 20.45688
#
# Velocity S-wave (km/s) = 4.17867 1.90179 3.24639
# Velocity P-wave (km/s) = 6.57924 5.09404 5.88369
#
# Compressibility (1/GPa) = 0.02575317
#
# Stress axis : x y z
#
# Youngs Moduli (GPa) = 53.67797 83.35029 56.61558
#
# Poissons Ratio (x) = 0.10831 0.28004
# Poissons Ratio (y) = 0.06975 0.28436
# Poissons Ratio (z) = 0.26551 0.41864
#
# Static dielectric constant tensor:
#      x y z
#    x 1.680700 0.000000 0.000000 
#    y 0.000000 1.730140 0.000000 
#    z 0.000000 0.000000 1.717020 
# 
# From -- ./inp_files/34529.got.cif
#   From: 2010.05.17/outbox.cif.g08.bks.cpg/sg74_18_cif.got.tgz:34529.got - 2010.06.03 17:57:02.
