data_PCOD9538005
_publ_section_title
;
Structure prediction by ZEFSAII (Michael W. Deem and Ramdas Pophale) SiO2 
 PCOD9538005
Probable space group: I M M A
;
_chemical_formula_sum "Si O2"
_cell_formula_units_Z 112
_cell_length_a 27.757269
_cell_length_b 16.808245
_cell_length_c 12.236791
_cell_angle_alpha 90.000000
_cell_angle_beta 90.000000
_cell_angle_gamma 90.000000
_cell_volume 5709.086807
_symmetry_space_group_name_H-M "I M M A"
_symmetry_group_IT_number 74
_symmetry_cell_setting 'orthorhombic'
loop_
_space_group_symop_operation_xyz
x,y,z
-x,1/2-y,z
x,-y,-z
-x,1/2+y,-z
-x,-y,-z
x,1/2+y,-z
-x,y,z
x,1/2-y,z
1/2+x,1/2+y,1/2+z
1/2-x,-y,1/2+z
1/2+x,1/2-y,1/2-z
1/2-x,y,1/2-z
1/2-x,1/2-y,1/2-z
1/2+x,y,1/2-z
1/2-x,1/2+y,1/2+z
1/2+x,-y,1/2+z
loop_
_atom_site_type_symbol
_atom_site_label
_atom_site_fract_x
_atom_site_fract_y
_atom_site_fract_z
Si Si1 0.629529 0.156447 0.784005
Si Si2 0.697823 0.659756 0.805078
Si Si3 0.191016 0.844634 0.060888
Si Si4 0.055976 0.053764 0.828664
Si Si5 0.632023 0.412214 0.360297
Si Si6 0.295009 0.091297 0.958343
Si Si7 0.947925 0.165362 0.036526
O O1 0.624243 0.250000 0.811446
O O2 0.657486 0.152181 0.667480
O O3 0.578912 0.112085 0.762186
O O4 0.662860 0.112372 0.873225
O O5 0.682114 0.750000 0.782104
O O6 0.750000 0.650336 0.750000
O O7 0.663236 0.597484 0.746844
O O8 0.699727 0.644195 0.932837
O O9 0.195104 0.750000 0.028845
O O10 0.243006 0.881763 0.088140
O O11 0.167372 0.898228 0.964293
O O12 0.055124 0.099633 0.944054
O O13 0.000000 0.030267 0.806435
O O14 0.095922 0.985876 0.848226
O O15 0.594241 0.341474 0.378232
O O16 0.294681 0.000000 0.000000
O O17 0.944448 0.250000 0.977898
O O18 0.000000 0.159392 0.090261
#
# Coordination Sequence:
#
# PCOD9538005 Si02
#       7
#    16  16  16  16  16  16  16
#     4  11  24  43  67  93 128 173 221 274 332 389
#     4  11  23  41  64  88 124 172 218 260 311 386
#     4  11  23  40  63  93 130 175 219 264 322 396
#     4  11  24  40  62  96 132 167 215 273 336 393
#     4  12  22  37  62  92 131 167 209 263 327 384
#     4  12  26  41  63  93 133 172 220 271 318 385
#     4  10  20  35  57  87 124 165 208 253 309 380
#
# _framework density 19.617847999999999
#
# number of rings (size 3 to 8) (size 9 to 14) (size 15 to 20)
#    0.000    0.857    2.857    5.143    2.000    4.286 
#    0.000    0.000    0.000    4.714    0.000    0.000 
#    0.000    0.000    0.000    0.000    0.000    0.000 
#
# Total GULP energy -312674.958821 kJ/mol
# GULP energy per Si atom -5583.481408 kJ/mol
# Density = 1.957320 g / cm^3
# Si number density = 19.617848 Si / 1000 Ang^3
#
#
#
# Elastic Constant Matrix: (Units=GPa)
#
#
# Indices 1 2 3 4 5 6 
#
# 1 89.8201 43.2531 18.2819 0.0000 0.0000 0.0000
# 2 43.2531 119.8576 6.8850 0.0000 0.0000 0.0000
# 3 18.2819 6.8850 51.7500 0.0000 0.0000 0.0000
# 4 0.0000 0.0000 0.0000 23.0622 0.0000 0.0000
# 5 0.0000 0.0000 0.0000 0.0000 22.8803 0.0000
# 6 0.0000 0.0000 0.0000 0.0000 0.0000 30.6411
#
#
#
# Elastic Compliance Matrix: (Units=1/GPa)
#
#
# Indices 1 2 3 4 5 6 
#
# 1 0.014419 -0.004949 -0.004436 0.000000 0.000000 0.000000
# 2 -0.004949 0.010106 0.000404 0.000000 0.000000 0.000000
# 3 -0.004436 0.000404 0.020837 0.000000 0.000000 0.000000
# 4 0.000000 0.000000 0.000000 0.043361 0.000000 0.000000
# 5 0.000000 0.000000 0.000000 0.000000 0.043706 0.000000
# 6 0.000000 0.000000 0.000000 0.000000 0.000000 0.032636
#
#
# Mechanical properties :
#
#
# Convention : Reuss Voigt Hill
#
# Bulk Modulus (GPa) = 36.49499 44.25197 40.37348
# Shear Modulus (GPa) = 26.02006 28.18389 27.10198
#
# Velocity S-wave (km/s) = 3.64585 3.79442 3.72088
# Velocity P-wave (km/s) = 6.03045 6.46551 6.25177
#
# Compressibility (1/GPa) = 0.02740102
#
# Stress axis : x y z
#
# Youngs Moduli (GPa) = 69.35190 98.95235 47.99169
#
# Poissons Ratio (x) = 0.48968 0.21287
# Poissons Ratio (y) = 0.34320 -0.01938
# Poissons Ratio (z) = 0.30761 -0.03995
#
# Static dielectric constant tensor:
#      x y z
#    x 1.702870 0.000000 0.000000 
#    y 0.000000 1.774850 0.000000 
#    z 0.000000 0.000000 1.653040 
# 
# From -- ./inp_files/27232.got.cif
#   From: 2010.05.17/outbox.cif.g08.bks.cpg/sg74_14_cif.got.tgz:27232.got - 2010.06.03 17:57:02.
