data_PCOD9538437
_publ_section_title
;
Structure prediction by ZEFSAII (Michael W. Deem and Ramdas Pophale) SiO2 
 PCOD9538437
Probable space group: I M M A
;
_chemical_formula_sum "Si O2"
_cell_formula_units_Z 96
_cell_length_a 15.711800
_cell_length_b 31.629233
_cell_length_c 9.033253
_cell_angle_alpha 90.000000
_cell_angle_beta 90.000000
_cell_angle_gamma 90.000000
_cell_volume 4489.094798
_symmetry_space_group_name_H-M "I M M A"
_symmetry_group_IT_number 74
_symmetry_cell_setting 'orthorhombic'
loop_
_space_group_symop_operation_xyz
x,y,z
-x,1/2-y,z
x,-y,-z
-x,1/2+y,-z
-x,-y,-z
x,1/2+y,-z
-x,y,z
x,1/2-y,z
1/2+x,1/2+y,1/2+z
1/2-x,-y,1/2+z
1/2+x,1/2-y,1/2-z
1/2-x,y,1/2-z
1/2-x,1/2-y,1/2-z
1/2+x,y,1/2-z
1/2-x,1/2+y,1/2+z
1/2+x,-y,1/2+z
loop_
_atom_site_type_symbol
_atom_site_label
_atom_site_fract_x
_atom_site_fract_y
_atom_site_fract_z
Si Si1 0.164846 0.122064 0.853572
Si Si2 0.148615 0.542210 0.926069
Si Si3 0.603325 0.703667 0.877892
Si Si4 0.650117 0.960766 0.906204
Si Si5 0.897538 0.700812 0.970651
Si Si6 0.904695 0.376268 0.549892
O O1 0.250000 0.117649 0.750000
O O2 0.156062 0.165870 0.942269
O O3 0.094837 0.124441 0.725440
O O4 0.147291 0.083002 0.965868
O O5 0.248547 0.532739 0.899893
O O6 0.114187 0.546484 0.758793
O O7 0.111167 0.500000 0.000000
O O8 0.500000 0.705410 0.892205
O O9 0.636706 0.750000 0.919837
O O10 0.620752 0.696268 0.704847
O O11 0.635046 0.665887 0.980072
O O12 0.640703 0.917964 0.996133
O O13 0.613322 0.000000 0.000000
O O14 0.881033 0.750000 0.011204
O O15 0.000000 0.693744 0.990458
O O16 0.000000 0.379098 0.490500
#
# Coordination Sequence:
#
# PCOD9538437 Si02
#       6
#    16  16  16  16  16  16
#     4  12  23  37  56  87 122 156 199 246 295 352
#     4  10  21  37  62  85 113 153 197 242 295 358
#     4   8  16  34  59  83 108 147 197 239 282 346
#     4  10  20  37  61  85 111 148 196 244 294 350
#     4   9  19  38  62  85 116 159 201 244 300 360
#     4  11  22  36  57  85 118 153 191 241 297 353
#
# _framework density 21.385158000000001
#
# number of rings (size 3 to 8) (size 9 to 14) (size 15 to 20)
#    0.000    2.000    1.667    3.500    2.333    1.333 
#    0.000    2.500    0.000    5.500    0.000    0.000 
#    0.000    0.000    0.000    0.000    0.000    0.000 
#
# Total GULP energy -267667.663672 kJ/mol
# GULP energy per Si atom -5576.409660 kJ/mol
# Density = 2.133648 g / cm^3
# Si number density = 21.385158 Si / 1000 Ang^3
#
#
#
# Elastic Constant Matrix: (Units=GPa)
#
#
# Indices 1 2 3 4 5 6 
#
# 1 36.1140 15.5171 11.6151 -0.0001 -0.0001 0.0001
# 2 15.5171 190.3173 121.0538 -0.0015 0.0011 0.0003
# 3 11.6151 121.0538 148.2300 -0.0180 0.0042 -0.0018
# 4 -0.0001 -0.0015 -0.0180 38.7497 0.0016 -0.0003
# 5 -0.0001 0.0011 0.0042 0.0016 11.6218 -0.0003
# 6 0.0001 0.0003 -0.0018 -0.0003 -0.0003 2.5145
#
#
#
# Elastic Compliance Matrix: (Units=1/GPa)
#
#
# Indices 1 2 3 4 5 6 
#
# 1 0.028731 -0.001895 -0.000704 0.000000 0.000001 -0.000001
# 2 -0.001895 0.011059 -0.008883 -0.000004 0.000002 -0.000008
# 3 -0.000704 -0.008883 0.014056 0.000006 -0.000004 0.000011
# 4 0.000000 -0.000004 0.000006 0.025807 -0.000004 0.000003
# 5 0.000001 0.000002 -0.000004 -0.000004 0.086045 0.000011
# 6 -0.000001 -0.000008 0.000011 0.000003 0.000011 0.397696
#
#
# Mechanical properties :
#
#
# Convention : Reuss Voigt Hill
#
# Bulk Modulus (GPa) = 32.38118 74.55926 53.47022
# Shear Modulus (GPa) = 8.38011 25.67556 17.02783
#
# Velocity S-wave (km/s) = 1.98171 3.46876 2.82484
# Velocity P-wave (km/s) = 4.51785 7.14029 5.97473
#
# Compressibility (1/GPa) = 0.03088214
#
# Stress axis : x y z
#
# Youngs Moduli (GPa) = 34.80604 90.42398 71.14482
#
# Poissons Ratio (x) = 0.17133 0.05008
# Poissons Ratio (y) = 0.06595 0.63198
# Poissons Ratio (z) = 0.02450 0.80324
#
# Static dielectric constant tensor:
#      x y z
#    x 1.856850 0.000000 0.000000 
#    y 0.000000 1.758970 0.000000 
#    z 0.000000 0.000000 1.785340 
# 
# From -- ./inp_files/12653.got.cif
#   From: 2010.05.17/outbox.cif.g08.bks.cpg/sg74_7_cif.got.tgz:12653.got - 2010.06.03 17:57:02.
