data_PCOD9538156
_publ_section_title
;
Structure prediction by ZEFSAII (Michael W. Deem and Ramdas Pophale) SiO2 
 PCOD9538156
Probable space group: I M M A
;
_chemical_formula_sum "Si O2"
_cell_formula_units_Z 60
_cell_length_a 13.161299
_cell_length_b 20.842920
_cell_length_c 11.721763
_cell_angle_alpha 90.000000
_cell_angle_beta 90.000000
_cell_angle_gamma 90.000000
_cell_volume 3215.512879
_symmetry_space_group_name_H-M "I M M A"
_symmetry_group_IT_number 74
_symmetry_cell_setting 'orthorhombic'
loop_
_space_group_symop_operation_xyz
x,y,z
-x,1/2-y,z
x,-y,-z
-x,1/2+y,-z
-x,-y,-z
x,1/2+y,-z
-x,y,z
x,1/2-y,z
1/2+x,1/2+y,1/2+z
1/2-x,-y,1/2+z
1/2+x,1/2-y,1/2-z
1/2-x,y,1/2-z
1/2-x,1/2-y,1/2-z
1/2+x,y,1/2-z
1/2-x,1/2+y,1/2+z
1/2+x,-y,1/2+z
loop_
_atom_site_type_symbol
_atom_site_label
_atom_site_fract_x
_atom_site_fract_y
_atom_site_fract_z
Si Si1 0.786104 0.750000 0.380635
Si Si2 0.500000 0.521466 0.658725
Si Si3 0.500000 0.113644 0.751066
Si Si4 0.000000 0.250000 0.722378
Si Si5 0.321939 0.612270 0.062082
Si Si6 0.500000 0.435584 0.079970
Si Si7 0.324657 0.000000 0.500000
O O1 0.750000 0.750000 0.250000
O O2 0.906909 0.750000 0.364112
O O3 0.764626 0.819212 0.435807
O O4 0.500000 0.443797 0.664375
O O5 0.500000 0.545545 0.788082
O O6 0.601787 0.536414 0.589075
O O7 0.500000 0.185690 0.704660
O O8 0.600926 0.108421 0.829866
O O9 0.245919 0.552518 0.061225
O O10 0.399143 0.603027 0.956139
O O11 0.500000 0.500000 0.000000
#
# Coordination Sequence:
#
# PCOD9538156 Si02
#       7
#     8   8   8   4  16   8   8
#     4  10  22  34  58  91 117 148 187 241 301 342
#     4  11  23  36  52  82 117 152 195 232 291 344
#     4   9  17  33  56  78 116 142 183 227 277 355
#     4   8  18  30  48  86 110 146 168 224 302 336
#     4  10  20  36  56  87 114 147 190 232 296 342
#     4  11  19  36  59  83 109 152 199 236 279 342
#     4  11  24  35  54  84 122 155 182 245 288 342
#
# _framework density 18.659544
#
# number of rings (size 3 to 8) (size 9 to 14) (size 15 to 20)
#    0.000    1.867    4.000    0.800    7.467    3.200 
#    0.000    0.000    0.000    4.800    0.000    0.000 
#    0.000    0.000    0.000    0.000    0.000    0.000 
#
# Total GULP energy -167249.522753 kJ/mol
# GULP energy per Si atom -5574.984092 kJ/mol
# Density = 1.861707 g / cm^3
# Si number density = 18.659544 Si / 1000 Ang^3
#
#
#
# Elastic Constant Matrix: (Units=GPa)
#
#
# Indices 1 2 3 4 5 6 
#
# 1 83.6001 24.5438 25.7403 0.0000 0.0000 0.0000
# 2 24.5438 117.8117 17.6877 0.0000 0.0000 0.0000
# 3 25.7403 17.6877 80.9038 -0.0001 0.0001 0.0000
# 4 0.0000 0.0000 -0.0001 21.4313 0.0000 0.0000
# 5 0.0000 0.0000 0.0001 0.0000 -2.1783 0.0000
# 6 0.0000 0.0000 0.0000 0.0000 0.0000 2.5497
#
#
#
# Elastic Compliance Matrix: (Units=1/GPa)
#
#
# Indices 1 2 3 4 5 6 
#
# 1 0.013837 -0.002297 -0.003900 0.000000 0.000000 0.000000
# 2 -0.002297 0.009158 -0.001271 0.000000 0.000000 0.000000
# 3 -0.003900 -0.001271 0.013879 0.000000 0.000000 0.000000
# 4 0.000000 0.000000 0.000000 0.046661 0.000001 0.000000
# 5 0.000000 0.000000 0.000000 0.000001 -0.459074 0.000002
# 6 0.000000 0.000000 0.000000 0.000000 0.000002 0.392202
#
#
# Mechanical properties :
#
#
# Convention : Reuss Voigt Hill
#
# Bulk Modulus (GPa) = 45.58581 46.47326 46.02954
# Shear Modulus (GPa) = 128.49508 18.65013 73.57261
#
# Velocity S-wave (km/s) = 8.30737 3.16491 6.28606
# Velocity P-wave (km/s) = 10.79351 6.18995 8.79816
#
# Compressibility (1/GPa) = 0.02193665
#
# Stress axis : x y z
#
# Youngs Moduli (GPa) = 72.27029 109.19968 72.05052
#
# Poissons Ratio (x) = 0.25084 0.28101
# Poissons Ratio (y) = 0.16601 0.09159
# Poissons Ratio (z) = 0.28186 0.13882
#
# Static dielectric constant tensor:
#      x y z
#    x 1.672800 0.000000 0.000000 
#    y 0.000000 1.729130 0.000000 
#    z 0.000000 0.000000 1.622840 
# 
# From -- ./inp_files/18701.got.cif
#   From: 2010.05.17/outbox.cif.g08.bks.cpg/sg74_10_cif.got.tgz:18701.got - 2010.06.03 17:57:02.
