data_PCOD9538012
_publ_section_title
;
Structure prediction by ZEFSAII (Michael W. Deem and Ramdas Pophale) SiO2 
 PCOD9538012
Probable space group: I M M A
;
_chemical_formula_sum "Si O2"
_cell_formula_units_Z 64
_cell_length_a 15.385103
_cell_length_b 14.705770
_cell_length_c 14.729853
_cell_angle_alpha 90.000000
_cell_angle_beta 90.000000
_cell_angle_gamma 90.000000
_cell_volume 3332.626091
_symmetry_space_group_name_H-M "I M M A"
_symmetry_group_IT_number 74
_symmetry_cell_setting 'orthorhombic'
loop_
_space_group_symop_operation_xyz
x,y,z
-x,1/2-y,z
x,-y,-z
-x,1/2+y,-z
-x,-y,-z
x,1/2+y,-z
-x,y,z
x,1/2-y,z
1/2+x,1/2+y,1/2+z
1/2-x,-y,1/2+z
1/2+x,1/2-y,1/2-z
1/2-x,y,1/2-z
1/2-x,1/2-y,1/2-z
1/2+x,y,1/2-z
1/2-x,1/2+y,1/2+z
1/2+x,-y,1/2+z
loop_
_atom_site_type_symbol
_atom_site_label
_atom_site_fract_x
_atom_site_fract_y
_atom_site_fract_z
Si Si1 0.596384 0.561509 0.089985
Si Si2 0.344691 0.980671 0.726948
Si Si3 0.782955 0.355345 0.896048
Si Si4 0.596689 0.856965 0.565757
O O1 0.500000 0.604144 0.089568
O O2 0.605458 0.499504 0.180047
O O3 0.680214 0.626377 0.094488
O O4 0.604246 0.500000 0.000000
O O5 0.250000 0.939742 0.750000
O O6 0.322958 0.076801 0.678149
O O7 0.391335 0.917430 0.654464
O O8 0.799621 0.250000 0.874280
O O9 0.830754 0.377884 0.990779
O O10 0.500000 0.872454 0.526770
O O11 0.603803 0.750000 0.588073
#
# Coordination Sequence:
#
# PCOD9538012 Si02
#       4
#    16  16  16  16
#     4  10  21  37  56  79 110 150 192 229 269 322
#     4  10  20  35  58  83 111 147 183 226 277 327
#     4  10  21  37  57  84 115 145 182 228 277 330
#     4  10  21  37  59  87 114 141 179 228 282 337
#
# _framework density 19.204075
#
# number of rings (size 3 to 8) (size 9 to 14) (size 15 to 20)
#    0.000    2.000    0.000    4.500    0.000    8.500 
#    0.000    1.250    0.000    1.500    0.000    0.000 
#    0.000    0.000    0.000    0.000    0.000    0.000 
#
# Total GULP energy -178650.504149 kJ/mol
# GULP energy per Si atom -5582.828255 kJ/mol
# Density = 1.916037 g / cm^3
# Si number density = 19.204075 Si / 1000 Ang^3
#
#
#
# Elastic Constant Matrix: (Units=GPa)
#
#
# Indices 1 2 3 4 5 6 
#
# 1 116.1297 25.8630 43.9082 0.0000 0.0000 0.0000
# 2 25.8630 48.4782 41.6805 0.0000 0.0000 0.0000
# 3 43.9082 41.6805 126.9620 0.0000 0.0000 0.0000
# 4 0.0000 0.0000 0.0000 -1.0843 0.0000 0.0000
# 5 0.0000 0.0000 0.0000 0.0000 -47.7458 0.0000
# 6 0.0000 0.0000 0.0000 0.0000 0.0000 149.1524
#
#
#
# Elastic Compliance Matrix: (Units=1/GPa)
#
#
# Indices 1 2 3 4 5 6 
#
# 1 0.010290 -0.003386 -0.002447 0.000000 0.000000 0.000000
# 2 -0.003386 0.029854 -0.008630 0.000000 0.000000 0.000000
# 3 -0.002447 -0.008630 0.011556 0.000000 0.000000 0.000000
# 4 0.000000 0.000000 0.000000 -0.922230 0.000000 0.000000
# 5 0.000000 0.000000 0.000000 0.000000 -0.020944 0.000000
# 6 0.000000 0.000000 0.000000 0.000000 0.000000 0.006705
#
#
# Mechanical properties :
#
#
# Convention : Reuss Voigt Hill
#
# Bulk Modulus (GPa) = 43.90912 57.16370 50.53641
# Shear Modulus (GPa) = -5.89448 32.07232 13.08892
#
# Velocity S-wave (km/s) = -1.75387 4.09109 2.61352
# Velocity P-wave (km/s) = 4.33736 7.22130 5.95650
#
# Compressibility (1/GPa) = 0.02277431
#
# Stress axis : x y z
#
# Youngs Moduli (GPa) = 97.17787 33.49644 86.53630
#
# Poissons Ratio (x) = 0.11341 0.21178
# Poissons Ratio (y) = 0.32902 0.74680
# Poissons Ratio (z) = 0.23782 0.28907
#
# Static dielectric constant tensor:
#      x y z
#    x 1.695850 0.000000 0.000000 
#    y 0.000000 1.648040 0.000000 
#    z 0.000000 0.000000 1.657090 
# 
# From -- ./inp_files/19907.got.cif
#   From: 2010.05.17/outbox.cif.g08.bks.cpg/sg74_10_cif.got.tgz:19907.got - 2010.06.03 17:57:02.
