data_PCOD9538079
_publ_section_title
;
Structure prediction by ZEFSAII (Michael W. Deem and Ramdas Pophale) SiO2 
 PCOD9538079
Probable space group: I M M A
;
_chemical_formula_sum "Si O2"
_cell_formula_units_Z 88
_cell_length_a 11.990974
_cell_length_b 17.494739
_cell_length_c 20.827253
_cell_angle_alpha 90.000000
_cell_angle_beta 90.000000
_cell_angle_gamma 90.000000
_cell_volume 4369.119484
_symmetry_space_group_name_H-M "I M M A"
_symmetry_group_IT_number 74
_symmetry_cell_setting 'orthorhombic'
loop_
_space_group_symop_operation_xyz
x,y,z
-x,1/2-y,z
x,-y,-z
-x,1/2+y,-z
-x,-y,-z
x,1/2+y,-z
-x,y,z
x,1/2-y,z
1/2+x,1/2+y,1/2+z
1/2-x,-y,1/2+z
1/2+x,1/2-y,1/2-z
1/2-x,y,1/2-z
1/2-x,1/2-y,1/2-z
1/2+x,y,1/2-z
1/2-x,1/2+y,1/2+z
1/2+x,-y,1/2+z
loop_
_atom_site_type_symbol
_atom_site_label
_atom_site_fract_x
_atom_site_fract_y
_atom_site_fract_z
Si Si1 0.372909 0.665309 0.151878
Si Si2 0.372388 0.988904 0.630420
Si Si3 0.701696 0.573561 0.033614
Si Si4 0.627985 0.840965 0.782085
Si Si5 0.261658 0.839817 0.594286
Si Si6 0.250000 0.443530 0.750000
O O1 0.500000 0.673332 0.170232
O O2 0.320771 0.750000 0.148413
O O3 0.366169 0.622735 0.084105
O O4 0.318511 0.611174 0.203778
O O5 0.500000 0.010765 0.624488
O O6 0.355337 0.898537 0.619111
O O7 0.300712 0.034484 0.576397
O O8 0.326603 0.009423 0.700900
O O9 0.645728 0.500000 0.000000
O O10 0.738015 0.630995 0.977358
O O11 0.500000 0.871224 0.767756
O O12 0.620740 0.750000 0.769980
O O13 0.750000 0.861934 0.750000
O O14 0.656336 0.853202 0.857784
O O15 0.289357 0.750000 0.597336
#
# Coordination Sequence:
#
# PCOD9538079 Si02
#       6
#    16  16  16  16  16   8
#     4  10  20  35  60  90 115 145 190 243 296 351
#     4  10  22  40  60  83 117 160 204 251 305 370
#     4   9  20  38  59  84 119 154 194 239 300 363
#     4   9  19  36  56  81 116 158 203 253 307 363
#     4  10  21  37  58  87 119 155 198 250 307 363
#     4  10  21  40  59  82 116 156 196 242 301 360
#
# _framework density 20.141358
#
# number of rings (size 3 to 8) (size 9 to 14) (size 15 to 20)
#    0.000    2.364    0.000    1.364    1.273    5.455 
#    0.000   10.909    0.000   10.364    0.000    0.000 
#    0.000    0.000    0.000    0.000    0.000    0.000 
#
# Total GULP energy -245115.316875 kJ/mol
# GULP energy per Si atom -5570.802656 kJ/mol
# Density = 2.009552 g / cm^3
# Si number density = 20.141358 Si / 1000 Ang^3
#
#
#
# Elastic Constant Matrix: (Units=GPa)
#
#
# Indices 1 2 3 4 5 6 
#
# 1 106.3530 30.0544 32.7234 0.0000 0.0000 0.0000
# 2 30.0544 112.0414 39.4115 0.0000 0.0000 0.0000
# 3 32.7234 39.4115 121.0516 0.0000 0.0000 0.0000
# 4 0.0000 0.0000 0.0000 -7.0252 0.0000 0.0000
# 5 0.0000 0.0000 0.0000 0.0000 18.2204 0.0000
# 6 0.0000 0.0000 0.0000 0.0000 0.0000 18.9718
#
#
#
# Elastic Compliance Matrix: (Units=1/GPa)
#
#
# Indices 1 2 3 4 5 6 
#
# 1 0.010671 -0.002087 -0.002205 0.000000 0.000000 0.000000
# 2 -0.002087 0.010488 -0.002850 0.000000 0.000000 0.000000
# 3 -0.002205 -0.002850 0.009785 0.000000 0.000000 0.000000
# 4 0.000000 0.000000 0.000000 -0.142345 0.000000 0.000000
# 5 0.000000 0.000000 0.000000 0.000000 0.054883 0.000000
# 6 0.000000 0.000000 0.000000 0.000000 0.000000 0.052710
#
#
# Mechanical properties :
#
#
# Convention : Reuss Voigt Hill
#
# Bulk Modulus (GPa) = 60.02794 60.42494 60.22644
# Shear Modulus (GPa) = 311.91668 21.85052 166.88360
#
# Velocity S-wave (km/s) = 12.45793 3.29729 9.11241
# Velocity P-wave (km/s) = 15.38835 6.67546 11.86092
#
# Compressibility (1/GPa) = 0.01665891
#
# Stress axis : x y z
#
# Youngs Moduli (GPa) = 93.71324 95.34994 102.19608
#
# Poissons Ratio (x) = 0.19896 0.22537
# Poissons Ratio (y) = 0.19555 0.29130
# Poissons Ratio (z) = 0.20666 0.27179
#
# Static dielectric constant tensor:
#      x y z
#    x 1.710150 0.000000 0.000000 
#    y 0.000000 1.765840 0.000000 
#    z 0.000000 0.000000 1.813240 
# 
# From -- ./inp_files/50519.got.cif
#   From: 2010.05.17/outbox.cif.g08.bks.cpg/sg74_26_cif.got.tgz:50519.got - 2010.06.03 17:57:02.
