data_PCOD9538653
_publ_section_title
;
Structure prediction by ZEFSAII (Michael W. Deem and Ramdas Pophale) SiO2 
 PCOD9538653
Probable space group: I M M A
;
_chemical_formula_sum "Si O2"
_cell_formula_units_Z 100
_cell_length_a 7.786663
_cell_length_b 20.926827
_cell_length_c 29.738782
_cell_angle_alpha 90.000000
_cell_angle_beta 90.000000
_cell_angle_gamma 90.000000
_cell_volume 4845.938973
_symmetry_space_group_name_H-M "I M M A"
_symmetry_group_IT_number 74
_symmetry_cell_setting 'orthorhombic'
loop_
_space_group_symop_operation_xyz
x,y,z
-x,1/2-y,z
x,-y,-z
-x,1/2+y,-z
-x,-y,-z
x,1/2+y,-z
-x,y,z
x,1/2-y,z
1/2+x,1/2+y,1/2+z
1/2-x,-y,1/2+z
1/2+x,1/2-y,1/2-z
1/2-x,y,1/2-z
1/2-x,1/2-y,1/2-z
1/2+x,y,1/2-z
1/2-x,1/2+y,1/2+z
1/2+x,-y,1/2+z
loop_
_atom_site_type_symbol
_atom_site_label
_atom_site_fract_x
_atom_site_fract_y
_atom_site_fract_z
Si Si1 0.697117 0.992977 0.201407
Si Si2 0.196462 0.942861 0.946979
Si Si3 0.500000 0.750000 0.011406
Si Si4 0.806070 0.636466 0.800894
Si Si5 0.209284 0.858742 0.027237
Si Si6 0.793998 0.559773 0.110373
Si Si7 0.697457 0.179583 0.105722
O O1 0.500000 0.013212 0.204013
O O2 0.750000 0.966807 0.250000
O O3 0.722084 0.944904 0.160419
O O4 0.797162 0.059444 0.193410
O O5 0.205578 0.878029 0.917801
O O6 0.000000 0.963122 0.952753
O O7 0.278111 0.998481 0.917187
O O8 0.253306 0.920353 0.996042
O O9 0.344945 0.805080 0.013624
O O10 0.750000 0.650447 0.750000
O O11 0.700147 0.668021 0.840866
O O12 0.000000 0.658233 0.807205
O O13 0.236627 0.879219 0.079020
O O14 0.000000 0.845855 0.021128
O O15 0.000000 0.553496 0.115228
O O16 0.500000 0.177872 0.089865
O O17 0.766641 0.250000 0.095342
#
# Coordination Sequence:
#
# PCOD9538653 Si02
#       7
#    16  16   4  16  16  16  16
#     4  11  21  34  57  88 124 158 197 250 310 369
#     4  10  21  38  61  87 121 165 207 258 310 361
#     4  12  26  44  66  94 130 164 220 260 308 382
#     4  11  21  36  55  75 105 149 198 250 310 361
#     4  10  24  43  66  93 129 169 210 257 315 375
#     4  10  20  39  64  93 128 162 204 256 315 370
#     4  11  24  37  52  77 110 153 204 255 305 361
#
# _framework density 20.635836000000001
#
# number of rings (size 3 to 8) (size 9 to 14) (size 15 to 20)
#    0.000    1.440    1.600    5.040    3.360    3.520 
#    0.000    0.800    0.000    0.000    0.000    0.560 
#    0.000    0.000    0.000    0.000    0.000    0.000 
#
# Total GULP energy -278748.113145 kJ/mol
# GULP energy per Si atom -5574.962263 kJ/mol
# Density = 2.058887 g / cm^3
# Si number density = 20.635836 Si / 1000 Ang^3
#
#
#
# Elastic Constant Matrix: (Units=GPa)
#
#
# Indices 1 2 3 4 5 6 
#
# 1 83.4995 16.2193 10.1622 0.0000 0.0000 0.0000
# 2 16.2193 24.5020 16.6020 0.0000 0.0000 0.0000
# 3 10.1622 16.6020 115.6344 0.0000 0.0000 0.0000
# 4 0.0000 0.0000 0.0000 -6.1231 0.0000 0.0000
# 5 0.0000 0.0000 0.0000 0.0000 21.9907 0.0000
# 6 0.0000 0.0000 0.0000 0.0000 0.0000 24.4824
#
#
#
# Elastic Compliance Matrix: (Units=1/GPa)
#
#
# Indices 1 2 3 4 5 6 
#
# 1 0.013744 -0.009172 0.000109 0.000000 0.000000 0.000000
# 2 -0.009172 0.051332 -0.006564 0.000000 0.000000 0.000000
# 3 0.000109 -0.006564 0.009581 0.000000 0.000000 0.000000
# 4 0.000000 0.000000 0.000000 -0.163315 0.000000 0.000000
# 5 0.000000 0.000000 0.000000 0.000000 0.045474 0.000000
# 6 0.000000 0.000000 0.000000 0.000000 0.000000 0.040846
#
#
# Mechanical properties :
#
#
# Convention : Reuss Voigt Hill
#
# Bulk Modulus (GPa) = 23.03969 34.40032 28.72001
# Shear Modulus (GPa) = 115.25141 20.11348 67.68245
#
# Velocity S-wave (km/s) = 7.48140 3.12538 5.73321
# Velocity P-wave (km/s) = 9.26378 5.45256 7.60092
#
# Compressibility (1/GPa) = 0.04340335
#
# Stress axis : x y z
#
# Youngs Moduli (GPa) = 72.75651 19.48101 104.37585
#
# Poissons Ratio (x) = 0.17868 -0.01137
# Poissons Ratio (y) = 0.66733 0.68511
# Poissons Ratio (z) = -0.00793 0.12787
#
# Static dielectric constant tensor:
#      x y z
#    x 1.759770 0.000000 0.000000 
#    y 0.000000 1.722740 0.000000 
#    z 0.000000 0.000000 1.790740 
# 
# From -- ./inp_files/70636.got.cif
#   From: 2010.05.17/outbox.cif.g08.bks.cpg/sg74_36_cif.got.tgz:70636.got - 2010.06.03 17:57:02.
