data_PCOD9538034
_publ_section_title
;
Structure prediction by ZEFSAII (Michael W. Deem and Ramdas Pophale) SiO2 
 PCOD9538034
Probable space group: I M M A
;
_chemical_formula_sum "Si O2"
_cell_formula_units_Z 88
_cell_length_a 24.759565
_cell_length_b 10.078181
_cell_length_c 18.054196
_cell_angle_alpha 90.000000
_cell_angle_beta 90.000000
_cell_angle_gamma 90.000000
_cell_volume 4505.088398
_symmetry_space_group_name_H-M "I M M A"
_symmetry_group_IT_number 74
_symmetry_cell_setting 'orthorhombic'
loop_
_space_group_symop_operation_xyz
x,y,z
-x,1/2-y,z
x,-y,-z
-x,1/2+y,-z
-x,-y,-z
x,1/2+y,-z
-x,y,z
x,1/2-y,z
1/2+x,1/2+y,1/2+z
1/2-x,-y,1/2+z
1/2+x,1/2-y,1/2-z
1/2-x,y,1/2-z
1/2-x,1/2-y,1/2-z
1/2+x,y,1/2-z
1/2-x,1/2+y,1/2+z
1/2+x,-y,1/2+z
loop_
_atom_site_type_symbol
_atom_site_label
_atom_site_fract_x
_atom_site_fract_y
_atom_site_fract_z
Si Si1 0.560864 0.405424 0.312095
Si Si2 0.264878 0.250000 0.423394
Si Si3 0.363315 0.250000 0.090021
Si Si4 0.935945 0.250000 0.558870
Si Si5 0.197236 0.750000 0.303230
Si Si6 0.710889 0.250000 0.594964
Si Si7 0.159791 0.482650 0.089094
Si Si8 0.609521 0.970550 0.169465
O O1 0.500000 0.428947 0.338244
O O2 0.565651 0.250000 0.291297
O O3 0.604580 0.435146 0.375010
O O4 0.573451 0.494322 0.240570
O O5 0.200919 0.250000 0.424184
O O6 0.286949 0.250000 0.506855
O O7 0.292602 0.380204 0.390269
O O8 0.375027 0.387285 0.133826
O O9 0.399499 0.250000 0.015361
O O10 0.920206 0.121683 0.608702
O O11 0.000000 0.250000 0.542275
O O12 0.250000 0.750000 0.250000
O O13 0.227147 0.750000 0.382072
O O14 0.159969 0.619057 0.302181
O O15 0.678764 0.122340 0.620958
O O16 0.154901 0.500000 0.000000
#
# Coordination Sequence:
#
# PCOD9538034 Si02
#       8
#    16   8   8   8   8   8  16  16
#     4  11  23  42  66  89 122 165 209 262 321 379
#     4  10  20  37  60  89 127 163 202 252 310 376
#     4  12  24  40  66  99 127 169 220 270 318 385
#     4  11  26  45  66  91 130 172 221 279 328 392
#     4  11  22  39  62  91 134 177 210 261 323 392
#     4  10  20  35  58  88 123 165 200 248 314 373
#     4  10  21  39  64  93 126 162 205 253 311 379
#     4  11  24  42  63  95 130 167 219 269 329 385
#
# _framework density 19.533467000000002
#
# number of rings (size 3 to 8) (size 9 to 14) (size 15 to 20)
#    0.000    1.273    1.818    4.364    0.000    6.182 
#    0.000    3.636    0.000    0.000    0.000    0.000 
#    0.000    0.000    0.000    0.000    0.000    0.000 
#
# Total GULP energy -245618.779538 kJ/mol
# GULP energy per Si atom -5582.244990 kJ/mol
# Density = 1.948901 g / cm^3
# Si number density = 19.533467 Si / 1000 Ang^3
#
#
#
# Elastic Constant Matrix: (Units=GPa)
#
#
# Indices 1 2 3 4 5 6 
#
# 1 171.0232 68.0608 40.0050 0.0000 0.0000 0.0000
# 2 68.0608 153.0919 33.8347 0.0000 0.0000 0.0000
# 3 40.0050 33.8347 53.7977 0.0000 0.0000 0.0000
# 4 0.0000 0.0000 0.0000 -861.7046 0.0000 0.0000
# 5 0.0000 0.0000 0.0000 0.0000 30.1656 0.0000
# 6 0.0000 0.0000 0.0000 0.0000 0.0000 32.0046
#
#
#
# Elastic Compliance Matrix: (Units=1/GPa)
#
#
# Indices 1 2 3 4 5 6 
#
# 1 0.007855 -0.002556 -0.004233 0.000000 0.000000 0.000000
# 2 -0.002556 0.008419 -0.003394 0.000000 0.000000 0.000000
# 3 -0.004233 -0.003394 0.023870 0.000000 0.000000 0.000000
# 4 0.000000 0.000000 0.000000 -0.001160 0.000000 0.000000
# 5 0.000000 0.000000 0.000000 0.000000 0.033150 0.000000
# 6 0.000000 0.000000 0.000000 0.000000 0.000000 0.031246
#
#
# Mechanical properties :
#
#
# Convention : Reuss Voigt Hill
#
# Bulk Modulus (GPa) = 50.56317 73.52375 62.04346
# Shear Modulus (GPa) = 38.36185 -144.17273 -52.90544
#
# Velocity S-wave (km/s) = 4.43640 -8.60048 -5.20992
# Velocity P-wave (km/s) = 7.22384 7.80402 2.08794
#
# Compressibility (1/GPa) = 0.01977724
#
# Stress axis : x y z
#
# Youngs Moduli (GPa) = 127.31194 118.78482 41.89303
#
# Poissons Ratio (x) = 0.30367 0.17734
# Poissons Ratio (y) = 0.32547 0.14217
# Poissons Ratio (z) = 0.53892 0.40311
#
# Static dielectric constant tensor:
#      x y z
#    x 1.644540 0.000000 0.000000 
#    y 0.000000 1.692280 0.000000 
#    z 0.000000 0.000000 1.709950 
# 
# From -- ./inp_files/54592.got.cif
#   From: 2010.05.17/outbox.cif.g08.bks.cpg/sg74_28_cif.got.tgz:54592.got - 2010.06.03 17:57:02.
