data_PCOD9538910
_publ_section_title
;
Structure prediction by ZEFSAII (Michael W. Deem and Ramdas Pophale) SiO2 
 PCOD9538910
Probable space group: I M M A
;
_chemical_formula_sum "Si O2"
_cell_formula_units_Z 80
_cell_length_a 8.772269
_cell_length_b 30.012903
_cell_length_c 14.896794
_cell_angle_alpha 90.000000
_cell_angle_beta 90.000000
_cell_angle_gamma 90.000000
_cell_volume 3922.046673
_symmetry_space_group_name_H-M "I M M A"
_symmetry_group_IT_number 74
_symmetry_cell_setting 'orthorhombic'
loop_
_space_group_symop_operation_xyz
x,y,z
-x,1/2-y,z
x,-y,-z
-x,1/2+y,-z
-x,-y,-z
x,1/2+y,-z
-x,y,z
x,1/2-y,z
1/2+x,1/2+y,1/2+z
1/2-x,-y,1/2+z
1/2+x,1/2-y,1/2-z
1/2-x,y,1/2-z
1/2-x,1/2-y,1/2-z
1/2+x,y,1/2-z
1/2-x,1/2+y,1/2+z
1/2+x,-y,1/2+z
loop_
_atom_site_type_symbol
_atom_site_label
_atom_site_fract_x
_atom_site_fract_y
_atom_site_fract_z
Si Si1 0.319206 0.700010 0.030346
Si Si2 0.681393 0.891692 0.465901
Si Si3 0.682188 0.470537 0.848903
Si Si4 0.828946 0.197290 0.161866
Si Si5 0.817964 0.066332 0.151957
O O1 0.500000 0.696715 0.043056
O O2 0.269682 0.750000 0.059753
O O3 0.276707 0.696530 0.925153
O O4 0.236304 0.656528 0.068638
O O5 0.500000 0.895757 0.455261
O O6 0.763722 0.931141 0.413090
O O7 0.716797 0.899284 0.571924
O O8 0.500000 0.473180 0.845468
O O9 0.750000 0.462010 0.750000
O O10 0.749742 0.518457 0.876789
O O11 0.848943 0.250000 0.179533
O O12 0.750000 0.177726 0.250000
O O13 0.000000 0.179017 0.145182
O O14 0.750000 0.076336 0.250000
O O15 0.000000 0.062296 0.160300
#
# Coordination Sequence:
#
# PCOD9538910 Si02
#       5
#    16  16  16  16  16
#     4  10  21  36  53  75 105 143 189 239 289 341
#     4  11  23  38  58  85 117 154 196 240 287 342
#     4  11  22  38  62  89 118 151 188 234 288 347
#     4   9  16  27  44  65  91 127 172 221 272 325
#     4  10  21  37  58  86 121 157 192 233 281 338
#
# _framework density 20.397513
#
# number of rings (size 3 to 8) (size 9 to 14) (size 15 to 20)
#    0.000    1.800    0.000    6.000    0.000   10.000 
#    0.000    2.000    0.000    0.600    0.000    0.000 
#    0.000    0.000    0.000    0.000    0.000    0.000 
#
# Total GULP energy -223422.045653 kJ/mol
# GULP energy per Si atom -5585.551141 kJ/mol
# Density = 2.035109 g / cm^3
# Si number density = 20.397513 Si / 1000 Ang^3
#
#
#
# Elastic Constant Matrix: (Units=GPa)
#
#
# Indices 1 2 3 4 5 6 
#
# 1 107.9438 55.1349 21.4025 0.0000 0.0000 0.0331
# 2 55.1349 164.1779 32.2409 0.0000 0.0000 -0.0049
# 3 21.4025 32.2409 26.4198 -0.0004 0.0000 0.0146
# 4 0.0000 0.0000 -0.0004 -16.3344 0.0000 -0.0743
# 5 0.0000 0.0000 0.0000 0.0000 26.9425 0.0023
# 6 0.0331 -0.0049 0.0146 -0.0743 0.002326047.4253
#
#
#
# Elastic Compliance Matrix: (Units=1/GPa)
#
#
# Indices 1 2 3 4 5 6 
#
# 1 0.011924 -0.002772 -0.006277 0.000000 0.000000 0.000000
# 2 -0.002772 0.008655 -0.008317 0.000000 0.000000 0.000000
# 3 -0.006277 -0.008317 0.053085 -0.000001 0.000000 0.000000
# 4 0.000000 0.000000 -0.000001 -0.061220 0.000000 0.000000
# 5 0.000000 0.000000 0.000000 0.000000 0.037116 0.000000
# 6 0.000000 0.000000 0.000000 0.000000 0.000000 0.000038
#
#
# Mechanical properties :
#
#
# Convention : Reuss Voigt Hill
#
# Bulk Modulus (GPa) = 25.68540 57.34423 41.51481
# Shear Modulus (GPa) = 51.38357 5224.25756 2637.82057
#
# Velocity S-wave (km/s) = 5.02452 50.66343 36.00020
# Velocity P-wave (km/s) = 6.80300 58.74140 41.81407
#
# Compressibility (1/GPa) = 0.03893263
#
# Stress axis : x y z
#
# Youngs Moduli (GPa) = 83.86103 115.54057 18.83780
#
# Poissons Ratio (x) = 0.32025 0.11825
# Poissons Ratio (y) = 0.23244 0.15667
# Poissons Ratio (z) = 0.52644 0.96090
#
# Static dielectric constant tensor:
#      x y z
#    x 1.730290 0.000000 0.000000 
#    y 0.000000 1.794550 0.000000 
#    z 0.000000 0.000000 1.746050 
# 
# From -- ./inp_files/39952.got.cif
#   From: 2010.05.17/outbox.cif.g08.bks.cpg/sg74_20_cif.got.tgz:39952.got - 2010.06.03 17:57:02.
