data_PCOD9538524
_publ_section_title
;
Structure prediction by ZEFSAII (Michael W. Deem and Ramdas Pophale) SiO2 
 PCOD9538524
Probable space group: I M M A
;
_chemical_formula_sum "Si O2"
_cell_formula_units_Z 80
_cell_length_a 15.138770
_cell_length_b 26.762075
_cell_length_c 11.078423
_cell_angle_alpha 90.000000
_cell_angle_beta 90.000000
_cell_angle_gamma 90.000000
_cell_volume 4488.366558
_symmetry_space_group_name_H-M "I M M A"
_symmetry_group_IT_number 74
_symmetry_cell_setting 'orthorhombic'
loop_
_space_group_symop_operation_xyz
x,y,z
-x,1/2-y,z
x,-y,-z
-x,1/2+y,-z
-x,-y,-z
x,1/2+y,-z
-x,y,z
x,1/2-y,z
1/2+x,1/2+y,1/2+z
1/2-x,-y,1/2+z
1/2+x,1/2-y,1/2-z
1/2-x,y,1/2-z
1/2-x,1/2-y,1/2-z
1/2+x,y,1/2-z
1/2-x,1/2+y,1/2+z
1/2+x,-y,1/2+z
loop_
_atom_site_type_symbol
_atom_site_label
_atom_site_fract_x
_atom_site_fract_y
_atom_site_fract_z
Si Si1 0.600339 0.250000 0.096187
Si Si2 0.250000 0.829947 0.250000
Si Si3 0.602699 0.250000 0.806353
Si Si4 0.244360 0.089336 0.956146
Si Si5 0.338335 0.859650 0.828365
Si Si6 0.750000 0.509394 0.250000
Si Si7 0.900036 0.436784 0.150786
O O1 0.500000 0.250000 0.139421
O O2 0.640215 0.302784 0.137942
O O3 0.602023 0.250000 0.951312
O O4 0.337787 0.796786 0.234112
O O5 0.234844 0.864145 0.133568
O O6 0.500000 0.250000 0.765648
O O7 0.267677 0.043412 0.868005
O O8 0.317047 0.106354 0.054446
O O9 0.154854 0.077069 0.029915
O O10 0.250000 0.858350 0.750000
O O11 0.403536 0.888906 0.739605
O O12 0.835331 0.476083 0.217906
O O13 0.000000 0.454247 0.127607
#
# Coordination Sequence:
#
# PCOD9538524 Si02
#       7
#     8   8   8  16  16   8  16
#     4  11  20  34  57  86 121 154 198 246 292 355
#     4  10  20  39  60  82 120 161 198 244 310 348
#     4  10  21  34  56  87 119 156 199 246 295 361
#     4  10  21  38  62  84 116 160 198 246 296 366
#     4  10  20  38  59  86 118 156 198 243 296 355
#     4  11  22  39  62  86 122 153 198 249 308 358
#     4  11  23  40  63  88 120 158 200 252 303 357
#
# _framework density 17.823855999999999
#
# number of rings (size 3 to 8) (size 9 to 14) (size 15 to 20)
#    0.000    1.600    5.000    1.500    0.000    2.400 
#    0.000    6.000    0.000    4.800    0.000    0.000 
#    0.000    0.000    0.000    0.000    0.000    0.000 
#
# Total GULP energy -222939.536612 kJ/mol
# GULP energy per Si atom -5573.488415 kJ/mol
# Density = 1.778329 g / cm^3
# Si number density = 17.823856 Si / 1000 Ang^3
#
#
#
# Elastic Constant Matrix: (Units=GPa)
#
#
# Indices 1 2 3 4 5 6 
#
# 1 136.4681 56.1262 45.4715 -0.0001 0.0000 0.0000
# 2 56.1262 108.3421 49.2291 0.0000 0.0000 -0.0001
# 3 45.4715 49.2291 112.8951 0.0000 -0.0001 -0.0002
# 4 -0.0001 0.0000 0.0000 36.5683 0.0000 0.0000
# 5 0.0000 0.0000 -0.0001 0.0000 5.6504 0.0000
# 6 0.0000 -0.0001 -0.0002 0.0000 0.0000 2.9089
#
#
#
# Elastic Compliance Matrix: (Units=1/GPa)
#
#
# Indices 1 2 3 4 5 6 
#
# 1 0.009710 -0.004057 -0.002142 0.000000 0.000000 0.000000
# 2 -0.004057 0.013206 -0.004124 0.000000 0.000000 0.000000
# 3 -0.002142 -0.004124 0.011519 0.000000 0.000000 0.000001
# 4 0.000000 0.000000 0.000000 0.027346 0.000000 0.000000
# 5 0.000000 0.000000 0.000000 0.000000 0.176978 -0.000002
# 6 0.000000 0.000000 0.000001 0.000000 -0.000002 0.343778
#
#
# Mechanical properties :
#
#
# Convention : Reuss Voigt Hill
#
# Bulk Modulus (GPa) = 72.52609 73.26209 72.89409
# Shear Modulus (GPa) = 8.22668 22.81741 15.52204
#
# Velocity S-wave (km/s) = 2.15071 3.58182 2.95423
# Velocity P-wave (km/s) = 6.85173 7.63535 7.25413
#
# Compressibility (1/GPa) = 0.01378814
#
# Stress axis : x y z
#
# Youngs Moduli (GPa) = 102.98745 75.72416 86.81312
#
# Poissons Ratio (x) = 0.30721 0.18594
# Poissons Ratio (y) = 0.41782 0.35806
# Poissons Ratio (z) = 0.22058 0.31232
#
# Static dielectric constant tensor:
#      x y z
#    x 1.603760 0.000000 0.000000 
#    y 0.000000 1.662450 0.000000 
#    z 0.000000 0.000000 1.608330 
# 
# From -- ./inp_files/20846.got.cif
#   From: 2010.05.17/outbox.cif.g08.bks.cpg/sg74_11_cif.got.tgz:20846.got - 2010.06.03 17:57:02.
