data_PCOD9538666
_publ_section_title
;
Structure prediction by ZEFSAII (Michael W. Deem and Ramdas Pophale) SiO2 
 PCOD9538666
Probable space group: I M M A
;
_chemical_formula_sum "Si O2"
_cell_formula_units_Z 48
_cell_length_a 8.850920
_cell_length_b 7.586729
_cell_length_c 38.676354
_cell_angle_alpha 90.000000
_cell_angle_beta 90.000000
_cell_angle_gamma 90.000000
_cell_volume 2597.099049
_symmetry_space_group_name_H-M "I M M A"
_symmetry_group_IT_number 74
_symmetry_cell_setting 'orthorhombic'
loop_
_space_group_symop_operation_xyz
x,y,z
-x,1/2-y,z
x,-y,-z
-x,1/2+y,-z
-x,-y,-z
x,1/2+y,-z
-x,y,z
x,1/2-y,z
1/2+x,1/2+y,1/2+z
1/2-x,-y,1/2+z
1/2+x,1/2-y,1/2-z
1/2-x,y,1/2-z
1/2-x,1/2-y,1/2-z
1/2+x,y,1/2-z
1/2-x,1/2+y,1/2+z
1/2+x,-y,1/2+z
loop_
_atom_site_type_symbol
_atom_site_label
_atom_site_fract_x
_atom_site_fract_y
_atom_site_fract_z
Si Si1 0.179911 0.043610 0.039840
Si Si2 0.819691 0.750000 0.163672
Si Si3 0.321177 0.250000 0.912185
Si Si4 0.179900 0.042075 0.287529
O O1 0.206564 0.250000 0.046134
O O2 0.000000 0.008667 0.043773
O O3 0.269867 0.919063 0.065608
O O4 0.218364 0.000000 0.000000
O O5 0.761224 0.750000 0.124580
O O6 0.755725 0.580342 0.183923
O O7 0.000000 0.750000 0.164652
O O8 0.500000 0.250000 0.907016
O O9 0.206217 0.250000 0.294159
O O10 0.250000 0.000529 0.250000
O O11 0.000000 0.011631 0.286701
#
# Coordination Sequence:
#
# PCOD9538666 Si02
#       4
#    16   8   8  16
#     4  10  20  39  66  90 116 153 198 245 294 356
#     4  12  25  41  62  86 121 164 208 252 302 361
#     4  12  26  41  59  88 126 160 199 250 307 365
#     4  10  21  39  64  93 125 161 203 250 300 356
#
# _framework density 18.48216
#
# number of rings (size 3 to 8) (size 9 to 14) (size 15 to 20)
#    0.000    1.333    1.667    4.500    0.000    4.667 
#    0.000    0.000    0.000    0.000    0.000    0.000 
#    0.000    0.000    0.000    0.000    0.000    0.000 
#
# Total GULP energy -134236.375791 kJ/mol
# GULP energy per Si atom -5593.182325 kJ/mol
# Density = 1.844009 g / cm^3
# Si number density = 18.482160 Si / 1000 Ang^3
#
#
#
# Elastic Constant Matrix: (Units=GPa)
#
#
# Indices 1 2 3 4 5 6 
#
# 1 130.3577 74.3560 84.3242 0.0000 0.0000 0.0000
# 2 74.3560 97.5732 74.9605 0.0000 0.0000 0.0000
# 3 84.3242 74.9605 148.4425 0.0000 0.0000 0.0000
# 4 0.0000 0.0000 0.0000 168.3416 0.0000 0.0000
# 5 0.0000 0.0000 0.0000 0.0000 35.3199 0.0000
# 6 0.0000 0.0000 0.0000 0.0000 0.0000 44.8711
#
#
#
# Elastic Compliance Matrix: (Units=1/GPa)
#
#
# Indices 1 2 3 4 5 6 
#
# 1 0.015255 -0.008117 -0.004567 0.000000 0.000000 0.000000
# 2 -0.008117 0.021063 -0.006026 0.000000 0.000000 0.000000
# 3 -0.004567 -0.006026 0.012374 0.000000 0.000000 0.000000
# 4 0.000000 0.000000 0.000000 0.005940 0.000000 0.000000
# 5 0.000000 0.000000 0.000000 0.000000 0.028313 0.000000
# 6 0.000000 0.000000 0.000000 0.000000 0.000000 0.022286
#
#
# Mechanical properties :
#
#
# Convention : Reuss Voigt Hill
#
# Bulk Modulus (GPa) = 88.70495 93.73942 91.22218
# Shear Modulus (GPa) = 34.15095 59.22202 46.68649
#
# Velocity S-wave (km/s) = 4.30324 5.66678 5.03141
# Velocity P-wave (km/s) = 8.53168 9.67706 9.12237
#
# Compressibility (1/GPa) = 0.01127333
#
# Stress axis : x y z
#
# Youngs Moduli (GPa) = 65.55105 47.47571 80.81471
#
# Poissons Ratio (x) = 0.38534 0.36909
# Poissons Ratio (y) = 0.53205 0.48698
# Poissons Ratio (z) = 0.29938 0.28608
#
# Static dielectric constant tensor:
#      x y z
#    x 1.616680 0.000000 0.000000 
#    y 0.000000 1.628840 0.000000 
#    z 0.000000 0.000000 1.592700 
# 
# From -- ./inp_files/69527.got.cif
#   From: 2010.05.17/outbox.cif.g08.bks.cpg/sg74_35_cif.got.tgz:69527.got - 2010.06.03 17:57:02.
