data_PCOD9538865
_publ_section_title
;
Structure prediction by ZEFSAII (Michael W. Deem and Ramdas Pophale) SiO2 
 PCOD9538865
Probable space group: I M M A
;
_chemical_formula_sum "Si O2"
_cell_formula_units_Z 96
_cell_length_a 16.131757
_cell_length_b 12.098805
_cell_length_c 25.132237
_cell_angle_alpha 90.000000
_cell_angle_beta 90.000000
_cell_angle_gamma 90.000000
_cell_volume 4905.183910
_symmetry_space_group_name_H-M "I M M A"
_symmetry_group_IT_number 74
_symmetry_cell_setting 'orthorhombic'
loop_
_space_group_symop_operation_xyz
x,y,z
-x,1/2-y,z
x,-y,-z
-x,1/2+y,-z
-x,-y,-z
x,1/2+y,-z
-x,y,z
x,1/2-y,z
1/2+x,1/2+y,1/2+z
1/2-x,-y,1/2+z
1/2+x,1/2-y,1/2-z
1/2-x,y,1/2-z
1/2-x,1/2-y,1/2-z
1/2+x,y,1/2-z
1/2-x,1/2+y,1/2+z
1/2+x,-y,1/2+z
loop_
_atom_site_type_symbol
_atom_site_label
_atom_site_fract_x
_atom_site_fract_y
_atom_site_fract_z
Si Si1 0.100289 0.018515 0.939499
Si Si2 0.095408 0.489027 0.747135
Si Si3 0.671276 0.877042 0.655951
Si Si4 0.130717 0.126304 0.354025
Si Si5 0.899403 0.250000 0.891668
Si Si6 0.399366 0.750000 0.268015
Si Si7 0.403017 0.620833 0.978507
O O1 0.128831 0.138873 0.920043
O O2 0.000000 0.015960 0.938923
O O3 0.131691 0.931068 0.896470
O O4 0.127767 0.000000 0.000000
O O5 0.145437 0.557120 0.791192
O O6 0.097076 0.543072 0.689522
O O7 0.129162 0.364653 0.743467
O O8 0.000000 0.485385 0.766781
O O9 0.644684 0.750000 0.661457
O O10 0.769882 0.880249 0.648909
O O11 0.105362 0.250000 0.337869
O O12 0.103649 0.110242 0.414642
O O13 0.876266 0.250000 0.830034
O O14 0.000000 0.250000 0.893386
O O15 0.500000 0.750000 0.264093
O O16 0.500000 0.623338 0.994426
O O17 0.371233 0.750000 0.990727
O O18 0.369269 0.500000 0.000000
#
# Coordination Sequence:
#
# PCOD9538865 Si02
#       7
#    16  16  16  16   8   8  16
#     4  10  21  35  56  82 108 144 190 234 272 321
#     4  11  21  37  60  83 108 142 187 231 274 329
#     4  11  23  37  54  80 114 148 183 229 278 327
#     4  10  22  39  57  80 115 150 180 222 280 337
#     4   9  16  34  55  75 109 145 177 224 284 324
#     4   9  18  34  56  80 110 144 176 222 282 328
#     4   9  18  36  63  89 113 146 188 233 282 335
#
# _framework density 19.571131999999999
#
# number of rings (size 3 to 8) (size 9 to 14) (size 15 to 20)
#    0.000    2.000    1.667    2.000    1.167    5.000 
#    1.500    2.500    0.000    0.000    0.000    0.000 
#    0.000    0.000    0.000    0.000    0.000    0.000 
#
# Total GULP energy -267688.711127 kJ/mol
# GULP energy per Si atom -5576.848148 kJ/mol
# Density = 1.952659 g / cm^3
# Si number density = 19.571132 Si / 1000 Ang^3
#
#
#
# Elastic Constant Matrix: (Units=GPa)
#
#
# Indices 1 2 3 4 5 6 
#
# 1 23.1224 13.6182 -2.1046 0.0000 0.0000 0.0000
# 2 13.6182 198.8990 73.3289 0.0000 0.0000 0.0000
# 3 -2.1046 73.3289 80.2227 0.0000 0.0000 0.0000
# 4 0.0000 0.0000 0.0000 41.8055 0.0000 0.0000
# 5 0.0000 0.0000 0.0000 0.0000 -16.5669 0.0000
# 6 0.0000 0.0000 0.0000 0.0000 0.0000 21.4986
#
#
#
# Elastic Compliance Matrix: (Units=1/GPa)
#
#
# Indices 1 2 3 4 5 6 
#
# 1 0.047091 -0.005550 0.006308 0.000000 0.000000 0.000000
# 2 -0.005550 0.008237 -0.007675 0.000000 0.000000 0.000000
# 3 0.006308 -0.007675 0.019646 0.000000 0.000000 0.000000
# 4 0.000000 0.000000 0.000000 0.023920 0.000000 0.000000
# 5 0.000000 0.000000 0.000000 0.000000 -0.060361 0.000000
# 6 0.000000 0.000000 0.000000 0.000000 0.000000 0.046515
#
#
# Mechanical properties :
#
#
# Convention : Reuss Voigt Hill
#
# Bulk Modulus (GPa) = 16.35549 52.43656 34.39603
# Shear Modulus (GPa) = 41.92458 23.84087 32.88273
#
# Velocity S-wave (km/s) = 4.63337 3.49401 4.10343
# Velocity P-wave (km/s) = 6.08270 6.56722 6.32960
#
# Compressibility (1/GPa) = 0.06114154
#
# Stress axis : x y z
#
# Youngs Moduli (GPa) = 21.23543 121.39980 50.90028
#
# Poissons Ratio (x) = 0.67377 -0.32110
# Poissons Ratio (y) = 0.11786 0.39066
# Poissons Ratio (z) = -0.13396 0.93174
#
# Static dielectric constant tensor:
#      x y z
#    x 1.716940 0.000000 0.000000 
#    y 0.000000 1.724680 0.000000 
#    z 0.000000 0.000000 1.633800 
# 
# From -- ./inp_files/60855.got.cif
#   From: 2010.05.17/outbox.cif.g08.bks.cpg/sg74_31_cif.got.tgz:60855.got - 2010.06.03 17:57:02.
