data_PCOD9538100
_publ_section_title
;
Structure prediction by ZEFSAII (Michael W. Deem and Ramdas Pophale) SiO2 
 PCOD9538100
Probable space group: I M M A
;
_chemical_formula_sum "Si O2"
_cell_formula_units_Z 112
_cell_length_a 14.509392
_cell_length_b 28.436425
_cell_length_c 15.284146
_cell_angle_alpha 90.000000
_cell_angle_beta 90.000000
_cell_angle_gamma 90.000000
_cell_volume 6306.165847
_symmetry_space_group_name_H-M "I M M A"
_symmetry_group_IT_number 74
_symmetry_cell_setting 'orthorhombic'
loop_
_space_group_symop_operation_xyz
x,y,z
-x,1/2-y,z
x,-y,-z
-x,1/2+y,-z
-x,-y,-z
x,1/2+y,-z
-x,y,z
x,1/2-y,z
1/2+x,1/2+y,1/2+z
1/2-x,-y,1/2+z
1/2+x,1/2-y,1/2-z
1/2-x,y,1/2-z
1/2-x,1/2-y,1/2-z
1/2+x,y,1/2-z
1/2-x,1/2+y,1/2+z
1/2+x,-y,1/2+z
loop_
_atom_site_type_symbol
_atom_site_label
_atom_site_fract_x
_atom_site_fract_y
_atom_site_fract_z
Si Si1 0.394739 0.983962 0.234027
Si Si2 0.108134 0.800610 0.196299
Si Si3 0.388274 0.042119 0.070798
Si Si4 0.169625 0.612708 0.311682
Si Si5 0.393865 0.460073 0.573447
Si Si6 0.891516 0.305348 0.012720
Si Si7 0.247703 0.616953 0.003575
O O1 0.500000 0.998922 0.247318
O O2 0.357123 0.020814 0.164201
O O3 0.395094 0.932783 0.186729
O O4 0.358806 0.979129 0.333018
O O5 0.150057 0.750000 0.218685
O O6 0.138873 0.843233 0.255125
O O7 0.118873 0.808431 0.092810
O O8 0.000000 0.797476 0.210632
O O9 0.500000 0.051627 0.070308
O O10 0.324026 0.086759 0.048903
O O11 0.372946 0.000000 0.000000
O O12 0.250000 0.592745 0.250000
O O13 0.199800 0.630414 0.406413
O O14 0.393410 0.500000 0.500000
O O15 0.500000 0.443557 0.586203
O O16 0.330605 0.418645 0.538540
O O17 0.878679 0.250000 0.036420
O O18 0.810279 0.341019 0.042657
O O19 0.000000 0.317427 0.033101
#
# Coordination Sequence:
#
# PCOD9538100 Si02
#       7
#    16  16  16  16  16  16  16
#     4  10  20  36  52  67  96 135 179 222 261 311
#     4   9  18  31  44  62  92 129 173 223 266 308
#     4  10  21  35  50  71 100 140 184 224 260 301
#     4  12  20  26  43  70  94 131 176 214 257 303
#     4  10  21  35  52  77 105 132 166 214 273 325
#     4   9  18  33  51  71  99 136 176 219 273 332
#     4  12  21  31  50  74 102 135 178 227 261 311
#
# _framework density 17.760396
#
# number of rings (size 3 to 8) (size 9 to 14) (size 15 to 20)
#    0.000    1.714    4.286    2.143    0.000    3.714 
#    0.000    0.000    0.000    0.429    0.000    0.000 
#    0.000    2.286    0.000    7.429    0.000    7.143 
#
# Total GULP energy -311847.610283 kJ/mol
# GULP energy per Si atom -5568.707326 kJ/mol
# Density = 1.771997 g / cm^3
# Si number density = 17.760396 Si / 1000 Ang^3
#
#
#
# Elastic Constant Matrix: (Units=GPa)
#
#
# Indices 1 2 3 4 5 6 
#
# 1 80.6204 46.7718 19.1881 0.0000 0.0000 0.0000
# 2 46.7718 74.2868 21.0144 0.0002 0.0000 -0.0001
# 3 19.1881 21.0144 39.4706 0.0004 0.0000 -0.0001
# 4 0.0000 0.0002 0.0004 23.6681 0.0000 -0.0001
# 5 0.0000 0.0000 0.0000 0.0000 15.4437 0.0000
# 6 0.0000 -0.0001 -0.0001 -0.0001 0.0000 28.1859
#
#
#
# Elastic Compliance Matrix: (Units=1/GPa)
#
#
# Indices 1 2 3 4 5 6 
#
# 1 0.019955 -0.011561 -0.003546 0.000000 0.000000 0.000000
# 2 -0.011561 0.022546 -0.006383 0.000000 0.000000 0.000000
# 3 -0.003546 -0.006383 0.030458 0.000000 0.000000 0.000000
# 4 0.000000 0.000000 0.000000 0.042251 0.000000 0.000000
# 5 0.000000 0.000000 0.000000 0.000000 0.064751 0.000000
# 6 0.000000 0.000000 0.000000 0.000000 0.000000 0.035479
#
#
# Mechanical properties :
#
#
# Convention : Reuss Voigt Hill
#
# Bulk Modulus (GPa) = 33.35734 40.92515 37.14125
# Shear Modulus (GPa) = 18.62812 20.61978 19.62395
#
# Velocity S-wave (km/s) = 3.24212 3.41104 3.32765
# Velocity P-wave (km/s) = 5.73042 6.21342 5.97680
#
# Compressibility (1/GPa) = 0.02997841
#
# Stress axis : x y z
#
# Youngs Moduli (GPa) = 50.11384 44.35418 32.83248
#
# Poissons Ratio (x) = 0.51276 0.11641
# Poissons Ratio (y) = 0.57935 0.20959
# Poissons Ratio (z) = 0.17769 0.28313
#
# Static dielectric constant tensor:
#      x y z
#    x 1.727880 0.000000 0.000000 
#    y 0.000000 1.587560 0.000000 
#    z 0.000000 0.000000 1.612580 
# 
# From -- ./inp_files/32943.got.cif
#   From: 2010.05.17/outbox.cif.g08.bks.cpg/sg74_17_cif.got.tgz:32943.got - 2010.06.03 17:57:02.
