data_PCOD9538565
_publ_section_title
;
Structure prediction by ZEFSAII (Michael W. Deem and Ramdas Pophale) SiO2 
 PCOD9538565
Probable space group: I M M A
;
_chemical_formula_sum "Si O2"
_cell_formula_units_Z 88
_cell_length_a 26.085299
_cell_length_b 15.107253
_cell_length_c 11.179161
_cell_angle_alpha 90.000000
_cell_angle_beta 90.000000
_cell_angle_gamma 90.000000
_cell_volume 4405.452595
_symmetry_space_group_name_H-M "I M M A"
_symmetry_group_IT_number 74
_symmetry_cell_setting 'orthorhombic'
loop_
_space_group_symop_operation_xyz
x,y,z
-x,1/2-y,z
x,-y,-z
-x,1/2+y,-z
-x,-y,-z
x,1/2+y,-z
-x,y,z
x,1/2-y,z
1/2+x,1/2+y,1/2+z
1/2-x,-y,1/2+z
1/2+x,1/2-y,1/2-z
1/2-x,y,1/2-z
1/2-x,1/2-y,1/2-z
1/2+x,y,1/2-z
1/2-x,1/2+y,1/2+z
1/2+x,-y,1/2+z
loop_
_atom_site_type_symbol
_atom_site_label
_atom_site_fract_x
_atom_site_fract_y
_atom_site_fract_z
Si Si1 0.771699 0.250000 0.468464
Si Si2 0.943867 0.351447 0.257892
Si Si3 0.370301 0.250000 0.859357
Si Si4 0.439934 0.898384 0.029501
Si Si5 0.157434 0.750000 0.083107
Si Si6 0.251427 0.558092 0.613943
Si Si7 0.628989 0.583542 0.565504
O O1 0.821244 0.250000 0.552927
O O2 0.717687 0.250000 0.542849
O O3 0.771539 0.157862 0.393893
O O4 0.943039 0.250000 0.217650
O O5 0.937681 0.353206 0.399563
O O6 0.899613 0.399789 0.188404
O O7 0.000000 0.390061 0.231024
O O8 0.349749 0.250000 0.724454
O O9 0.404543 0.162070 0.886275
O O10 0.500000 0.899421 0.068841
O O11 0.424467 0.000000 0.000000
O O12 0.130139 0.833957 0.023399
O O13 0.231110 0.500000 0.500000
O O14 0.250000 0.521360 0.750000
O O15 0.311768 0.566372 0.591873
O O16 0.605338 0.500000 0.500000
#
# Coordination Sequence:
#
# PCOD9538565 Si02
#       7
#     8  16   8  16   8  16  16
#     4  10  24  41  61  90 126 168 210 257 305 370
#     4  10  20  38  63  87 118 155 202 256 302 366
#     4  12  24  38  65  93 119 169 210 250 314 387
#     4  10  23  42  62  92 126 157 200 263 314 359
#     4  10  23  43  56  89 132 160 198 266 311 360
#     4  10  23  41  63  92 126 165 211 263 310 367
#     4  10  22  39  62  86 121 163 201 251 312 368
#
# _framework density 19.975245999999999
#
# number of rings (size 3 to 8) (size 9 to 14) (size 15 to 20)
#    0.000    1.818    1.818    0.818    5.091    5.455 
#    0.000    1.818    0.000    0.000    0.000    0.000 
#    0.000    0.000    0.000    0.000    0.000    0.000 
#
# Total GULP energy -245423.840905 kJ/mol
# GULP energy per Si atom -5577.814566 kJ/mol
# Density = 1.992978 g / cm^3
# Si number density = 19.975246 Si / 1000 Ang^3
#
#
#
# Elastic Constant Matrix: (Units=GPa)
#
#
# Indices 1 2 3 4 5 6 
#
# 1 28.7417 17.0095 7.6609 0.0000 0.0000 0.0000
# 2 17.0095 95.9580 21.9218 0.0000 0.0000 0.0000
# 3 7.6609 21.9218 83.1318 0.0000 0.0000 0.0000
# 4 0.0000 0.0000 0.0000 23.4750 0.0000 0.0000
# 5 0.0000 0.0000 0.0000 0.0000 22.4790 0.0000
# 6 0.0000 0.0000 0.0000 0.0000 0.0000 45.0494
#
#
#
# Elastic Compliance Matrix: (Units=1/GPa)
#
#
# Indices 1 2 3 4 5 6 
#
# 1 0.039148 -0.006507 -0.001892 0.000000 0.000000 0.000000
# 2 -0.006507 0.012171 -0.002610 0.000000 0.000000 0.000000
# 3 -0.001892 -0.002610 0.012892 0.000000 0.000000 0.000000
# 4 0.000000 0.000000 0.000000 0.042599 0.000000 0.000000
# 5 0.000000 0.000000 0.000000 0.000000 0.044486 0.000000
# 6 0.000000 0.000000 0.000000 0.000000 0.000000 0.022198
#
#
# Mechanical properties :
#
#
# Convention : Reuss Voigt Hill
#
# Bulk Modulus (GPa) = 23.70058 33.44621 28.57340
# Shear Modulus (GPa) = 23.85788 28.94997 26.40392
#
# Velocity S-wave (km/s) = 3.45972 3.81109 3.63965
# Velocity P-wave (km/s) = 5.27734 6.01216 5.65669
#
# Compressibility (1/GPa) = 0.04219306
#
# Stress axis : x y z
#
# Youngs Moduli (GPa) = 25.54419 82.16313 77.56975
#
# Poissons Ratio (x) = 0.53465 0.14674
# Poissons Ratio (y) = 0.16622 0.20244
# Poissons Ratio (z) = 0.04832 0.21443
#
# Static dielectric constant tensor:
#      x y z
#    x 1.701850 0.000000 0.000000 
#    y 0.000000 1.781090 0.000000 
#    z 0.000000 0.000000 1.698050 
# 
# From -- ./inp_files/25041.got.cif
#   From: 2010.05.17/outbox.cif.g08.bks.cpg/sg74_13_cif.got.tgz:25041.got - 2010.06.03 17:57:02.
