data_PCOD9538077
_publ_section_title
;
Structure prediction by ZEFSAII (Michael W. Deem and Ramdas Pophale) SiO2 
 PCOD9538077
Probable space group: I M M A
;
_chemical_formula_sum "Si O2"
_cell_formula_units_Z 80
_cell_length_a 19.519565
_cell_length_b 10.881124
_cell_length_c 21.779483
_cell_angle_alpha 90.000000
_cell_angle_beta 90.000000
_cell_angle_gamma 90.000000
_cell_volume 4625.849093
_symmetry_space_group_name_H-M "I M M A"
_symmetry_group_IT_number 74
_symmetry_cell_setting 'orthorhombic'
loop_
_space_group_symop_operation_xyz
x,y,z
-x,1/2-y,z
x,-y,-z
-x,1/2+y,-z
-x,-y,-z
x,1/2+y,-z
-x,y,z
x,1/2-y,z
1/2+x,1/2+y,1/2+z
1/2-x,-y,1/2+z
1/2+x,1/2-y,1/2-z
1/2-x,y,1/2-z
1/2-x,1/2-y,1/2-z
1/2+x,y,1/2-z
1/2-x,1/2+y,1/2+z
1/2+x,-y,1/2+z
loop_
_atom_site_type_symbol
_atom_site_label
_atom_site_fract_x
_atom_site_fract_y
_atom_site_fract_z
Si Si1 0.845890 0.500000 0.000000
Si Si2 0.000000 0.100270 0.555802
Si Si3 0.921598 0.750000 0.968864
Si Si4 0.827525 0.531975 0.768033
Si Si5 0.080715 0.750000 0.821223
Si Si6 0.376876 0.390077 0.849887
Si Si7 0.279895 0.110501 0.614748
O O1 0.888552 0.624250 0.992276
O O2 0.802226 0.480643 0.938681
O O3 0.934183 0.078046 0.599835
O O4 0.000000 0.250000 0.539070
O O5 0.000000 0.000000 0.500000
O O6 0.917140 0.750000 0.894947
O O7 0.000000 0.750000 0.987931
O O8 0.750000 0.576526 0.750000
O O9 0.876856 0.634160 0.796191
O O10 0.866427 0.475442 0.709347
O O11 0.811750 0.430963 0.820426
O O12 0.000000 0.750000 0.803149
O O13 0.391533 0.250000 0.829364
O O14 0.301944 0.391308 0.880278
O O15 0.301188 0.250000 0.600933
#
# Coordination Sequence:
#
# PCOD9538077 Si02
#       7
#     8   8   8  16   8  16  16
#     4  12  21  38  60  83 118 154 200 242 282 357
#     4  10  22  42  62  86 126 159 198 243 294 353
#     4  11  24  41  59  81 116 159 193 237 298 342
#     4  10  20  38  61  85 115 149 195 240 295 348
#     4  11  23  37  55  83 123 152 184 242 294 351
#     4   9  20  38  61  85 116 154 191 243 293 346
#     4  10  20  35  60  88 113 149 199 243 289 346
#
# _framework density 17.294122000000002
#
# number of rings (size 3 to 8) (size 9 to 14) (size 15 to 20)
#    0.000    1.800    3.000    1.200    2.800    2.400 
#    1.800    0.000    0.000    0.000    0.000    0.000 
#    0.000    0.000    0.000    0.000    0.000    0.000 
#
# Total GULP energy -222927.264030 kJ/mol
# GULP energy per Si atom -5573.181601 kJ/mol
# Density = 1.725476 g / cm^3
# Si number density = 17.294122 Si / 1000 Ang^3
#
#
#
# Elastic Constant Matrix: (Units=GPa)
#
#
# Indices 1 2 3 4 5 6 
#
# 1 91.3294 56.2535 48.6134 0.0000 0.0000 0.0000
# 2 56.2535 91.7323 35.4513 0.0000 0.0000 0.0000
# 3 48.6134 35.4513 83.7066 0.0000 0.0000 0.0000
# 4 0.0000 0.0000 0.0000 30.2515 0.0000 0.0000
# 5 0.0000 0.0000 0.0000 0.0000 20.9342 0.0000
# 6 0.0000 0.0000 0.0000 0.0000 0.0000 41.8343
#
#
#
# Elastic Compliance Matrix: (Units=1/GPa)
#
#
# Indices 1 2 3 4 5 6 
#
# 1 0.021498 -0.009994 -0.008252 0.000000 0.000000 0.000000
# 2 -0.009994 0.017681 -0.001684 0.000000 0.000000 0.000000
# 3 -0.008252 -0.001684 0.017452 0.000000 0.000000 0.000000
# 4 0.000000 0.000000 0.000000 0.033056 0.000000 0.000000
# 5 0.000000 0.000000 0.000000 0.000000 0.047769 0.000000
# 6 0.000000 0.000000 0.000000 0.000000 0.000000 0.023904
#
#
# Mechanical properties :
#
#
# Convention : Reuss Voigt Hill
#
# Bulk Modulus (GPa) = 59.62995 60.82274 60.22635
# Shear Modulus (GPa) = 24.17676 27.03400 25.60538
#
# Velocity S-wave (km/s) = 3.74301 3.95801 3.85201
# Velocity P-wave (km/s) = 7.29622 7.49224 7.39488
#
# Compressibility (1/GPa) = 0.01677010
#
# Stress axis : x y z
#
# Youngs Moduli (GPa) = 46.51678 56.55883 57.29883
#
# Poissons Ratio (x) = 0.56524 0.47285
# Poissons Ratio (y) = 0.46488 0.09650
# Poissons Ratio (z) = 0.38387 0.09525
#
# Static dielectric constant tensor:
#      x y z
#    x 1.574400 0.000000 0.000000 
#    y 0.000000 1.602320 0.000000 
#    z 0.000000 0.000000 1.567470 
# 
# From -- ./inp_files/52825.got.cif
#   From: 2010.05.17/outbox.cif.g08.bks.cpg/sg74_27_cif.got.tgz:52825.got - 2010.06.03 17:57:02.
