data_PCOD9538755
_publ_section_title
;
Structure prediction by ZEFSAII (Michael W. Deem and Ramdas Pophale) SiO2 
 PCOD9538755
Probable space group: I M M A
;
_chemical_formula_sum "Si O2"
_cell_formula_units_Z 120
_cell_length_a 25.941939
_cell_length_b 19.619452
_cell_length_c 12.635647
_cell_angle_alpha 90.000000
_cell_angle_beta 90.000000
_cell_angle_gamma 90.000000
_cell_volume 6431.122634
_symmetry_space_group_name_H-M "I M M A"
_symmetry_group_IT_number 74
_symmetry_cell_setting 'orthorhombic'
loop_
_space_group_symop_operation_xyz
x,y,z
-x,1/2-y,z
x,-y,-z
-x,1/2+y,-z
-x,-y,-z
x,1/2+y,-z
-x,y,z
x,1/2-y,z
1/2+x,1/2+y,1/2+z
1/2-x,-y,1/2+z
1/2+x,1/2-y,1/2-z
1/2-x,y,1/2-z
1/2-x,1/2-y,1/2-z
1/2+x,y,1/2-z
1/2-x,1/2+y,1/2+z
1/2+x,-y,1/2+z
loop_
_atom_site_type_symbol
_atom_site_label
_atom_site_fract_x
_atom_site_fract_y
_atom_site_fract_z
Si Si1 0.789780 0.827789 0.457447
Si Si2 0.614292 0.077721 0.959107
Si Si3 0.784846 0.328265 0.155426
Si Si4 0.633211 0.052042 0.718068
Si Si5 0.441805 0.420173 0.533231
Si Si6 0.060310 0.172308 0.385657
Si Si7 0.392094 0.605495 0.678871
Si Si8 0.750000 0.598564 0.250000
O O1 0.808952 0.750000 0.445255
O O2 0.834110 0.880783 0.489088
O O3 0.747717 0.828237 0.549128
O O4 0.765150 0.854935 0.349433
O O5 0.613231 0.078004 0.831898
O O6 0.570621 0.120716 0.018024
O O7 0.615666 0.000000 0.000000
O O8 0.797685 0.250000 0.184325
O O9 0.750000 0.356973 0.250000
O O10 0.836536 0.369174 0.143374
O O11 0.603005 0.089112 0.621298
O O12 0.696097 0.059174 0.720419
O O13 0.615264 0.973783 0.707850
O O14 0.441018 0.500000 0.500000
O O15 0.500000 0.404230 0.571013
O O16 0.429222 0.384275 0.421771
O O17 0.076128 0.250000 0.411061
O O18 0.090060 0.145324 0.282733
O O19 0.000000 0.172119 0.360718
#
# Coordination Sequence:
#
# PCOD9538755 Si02
#       8
#    16  16  16  16  16  16  16   8
#     4  10  21  37  58  82 116 160 203 243 294 361
#     4  11  22  39  58  88 119 155 203 252 305 362
#     4  10  21  33  52  81 113 155 197 240 294 356
#     4  10  22  36  57  89 122 162 198 249 312 359
#     4   9  19  36  57  83 115 152 198 249 305 367
#     4  11  24  41  62  87 118 157 201 252 306 361
#     4  11  20  36  59  85 120 155 199 248 306 362
#     4  10  21  36  56  84 121 156 204 242 299 364
#
# _framework density 18.659261999999998
#
# number of rings (size 3 to 8) (size 9 to 14) (size 15 to 20)
#    0.000    1.733    1.333    3.000    0.933    3.467 
#    0.000    0.667    0.000    2.400    0.000    1.867 
#    0.000    0.000    0.000    0.000    0.000    0.000 
#
# Total GULP energy -334671.641429 kJ/mol
# GULP energy per Si atom -5577.860690 kJ/mol
# Density = 1.861679 g / cm^3
# Si number density = 18.659262 Si / 1000 Ang^3
#
#
#
# Elastic Constant Matrix: (Units=GPa)
#
#
# Indices 1 2 3 4 5 6 
#
# 1 80.2749 23.3796 36.2995 0.0000 0.0000 0.0000
# 2 23.3796 86.7199 22.9501 0.0000 0.0000 0.0000
# 3 36.2995 22.9501 84.5537 0.0000 0.0000 0.0000
# 4 0.0000 0.0000 0.0000 21.4789 0.0000 0.0000
# 5 0.0000 0.0000 0.0000 0.0000 29.4416 0.0000
# 6 0.0000 0.0000 0.0000 0.0000 0.0000 21.7918
#
#
#
# Elastic Compliance Matrix: (Units=1/GPa)
#
#
# Indices 1 2 3 4 5 6 
#
# 1 0.016021 -0.002692 -0.006147 0.000000 0.000000 0.000000
# 2 -0.002692 0.012876 -0.002339 0.000000 0.000000 0.000000
# 3 -0.006147 -0.002339 0.015101 0.000000 0.000000 0.000000
# 4 0.000000 0.000000 0.000000 0.046557 0.000000 0.000000
# 5 0.000000 0.000000 0.000000 0.000000 0.033965 0.000000
# 6 0.000000 0.000000 0.000000 0.000000 0.000000 0.045889
#
#
# Mechanical properties :
#
#
# Convention : Reuss Voigt Hill
#
# Bulk Modulus (GPa) = 46.20923 46.31188 46.26056
# Shear Modulus (GPa) = 25.00242 25.80374 25.40308
#
# Velocity S-wave (km/s) = 3.66450 3.72276 3.69374
# Velocity P-wave (km/s) = 6.53630 6.58424 6.56032
#
# Compressibility (1/GPa) = 0.02164070
#
# Stress axis : x y z
#
# Youngs Moduli (GPa) = 62.41796 77.66211 66.22203
#
# Poissons Ratio (x) = 0.20910 0.40708
# Poissons Ratio (y) = 0.16806 0.15490
# Poissons Ratio (z) = 0.38369 0.18166
#
# Static dielectric constant tensor:
#      x y z
#    x 1.655580 0.000000 0.000000 
#    y 0.000000 1.643500 0.000000 
#    z 0.000000 0.000000 1.647670 
# 
# From -- ./inp_files/25462.got.cif
#   From: 2010.05.17/outbox.cif.g08.bks.cpg/sg74_13_cif.got.tgz:25462.got - 2010.06.03 17:57:02.
