data_PCOD9538420
_publ_section_title
;
Structure prediction by ZEFSAII (Michael W. Deem and Ramdas Pophale) SiO2 
 PCOD9538420
Probable space group: I M M A
;
_chemical_formula_sum "Si O2"
_cell_formula_units_Z 88
_cell_length_a 10.314224
_cell_length_b 28.686382
_cell_length_c 15.807908
_cell_angle_alpha 90.000000
_cell_angle_beta 90.000000
_cell_angle_gamma 90.000000
_cell_volume 4677.208563
_symmetry_space_group_name_H-M "I M M A"
_symmetry_group_IT_number 74
_symmetry_cell_setting 'orthorhombic'
loop_
_space_group_symop_operation_xyz
x,y,z
-x,1/2-y,z
x,-y,-z
-x,1/2+y,-z
-x,-y,-z
x,1/2+y,-z
-x,y,z
x,1/2-y,z
1/2+x,1/2+y,1/2+z
1/2-x,-y,1/2+z
1/2+x,1/2-y,1/2-z
1/2-x,y,1/2-z
1/2-x,1/2-y,1/2-z
1/2+x,y,1/2-z
1/2-x,1/2+y,1/2+z
1/2+x,-y,1/2+z
loop_
_atom_site_type_symbol
_atom_site_label
_atom_site_fract_x
_atom_site_fract_y
_atom_site_fract_z
Si Si1 0.152809 0.989016 0.676810
Si Si2 0.652461 0.585139 0.096113
Si Si3 0.750000 0.852966 0.250000
Si Si4 0.000000 0.193841 0.837603
Si Si5 0.756873 0.803322 0.647921
Si Si6 0.850866 0.102398 0.414298
Si Si7 0.500000 0.694346 0.536622
O O1 0.250000 0.003930 0.750000
O O2 0.200596 0.938498 0.645288
O O3 0.000000 0.987133 0.702629
O O4 0.163056 0.029526 0.606959
O O5 0.500000 0.596645 0.098425
O O6 0.711185 0.613549 0.172976
O O7 0.710653 0.600722 0.006853
O O8 0.872209 0.823685 0.213353
O O9 0.000000 0.250000 0.838277
O O10 0.000000 0.177395 0.937943
O O11 0.794496 0.750000 0.624278
O O12 0.750000 0.803764 0.750000
O O13 0.847256 0.846041 0.622422
O O14 0.624993 0.815361 0.596156
O O15 0.000000 0.087773 0.425900
O O16 0.500000 0.750000 0.527233
#
# Coordination Sequence:
#
# PCOD9538420 Si02
#       7
#    16  16   8   8  16  16   8
#     4  10  20  37  60  85 117 154 192 240 295 358
#     4  10  20  37  60  87 115 154 199 244 299 359
#     4  12  21  38  64  88 118 160 203 254 298 366
#     4  11  24  40  62  90 125 163 207 254 310 362
#     4  10  21  37  59  85 116 156 201 244 294 363
#     4  10  21  36  57  85 117 150 193 244 301 353
#     4   9  20  40  60  82 118 161 196 244 310 362
#
# _framework density 18.814641000000002
#
# number of rings (size 3 to 8) (size 9 to 14) (size 15 to 20)
#    0.000    1.818    1.818    2.455    1.273    2.545 
#    1.636    0.909    0.000    1.091    0.000    0.000 
#    0.000    0.000    0.000    0.000    0.000    0.000 
#
# Total GULP energy -244960.884998 kJ/mol
# GULP energy per Si atom -5567.292841 kJ/mol
# Density = 1.877182 g / cm^3
# Si number density = 18.814641 Si / 1000 Ang^3
#
#
#
# Elastic Constant Matrix: (Units=GPa)
#
#
# Indices 1 2 3 4 5 6 
#
# 1 63.0240 23.4281 31.5709 0.0000 0.0000 0.0000
# 2 23.4281 92.3442 32.2656 -0.0001 0.0000 0.0000
# 3 31.5709 32.2656 103.0385 -0.0003 0.0000 0.0000
# 4 0.0000 -0.0001 -0.0003 22.9751 0.0000 0.0000
# 5 0.0000 0.0000 0.0000 0.0000 19.0639 0.0000
# 6 0.0000 0.0000 0.0000 0.0000 0.0000 22.7482
#
#
#
# Elastic Compliance Matrix: (Units=1/GPa)
#
#
# Indices 1 2 3 4 5 6 
#
# 1 0.019561 -0.003221 -0.004985 0.000000 0.000000 0.000000
# 2 -0.003221 0.012690 -0.002987 0.000000 0.000000 0.000000
# 3 -0.004985 -0.002987 0.012168 0.000000 0.000000 0.000000
# 4 0.000000 0.000000 0.000000 0.043525 0.000000 0.000000
# 5 0.000000 0.000000 0.000000 0.000000 0.052455 0.000000
# 6 0.000000 0.000000 0.000000 0.000000 0.000000 0.043960
#
#
# Mechanical properties :
#
#
# Convention : Reuss Voigt Hill
#
# Bulk Modulus (GPa) = 45.38544 48.10398 46.74471
# Shear Modulus (GPa) = 23.35474 24.36691 23.86082
#
# Velocity S-wave (km/s) = 3.52704 3.60266 3.56505
# Velocity P-wave (km/s) = 6.38447 6.55197 6.46876
#
# Compressibility (1/GPa) = 0.02203350
#
# Stress axis : x y z
#
# Youngs Moduli (GPa) = 51.12089 78.80324 82.18417
#
# Poissons Ratio (x) = 0.25383 0.40969
# Poissons Ratio (y) = 0.16466 0.24547
# Poissons Ratio (z) = 0.25484 0.23537
#
# Static dielectric constant tensor:
#      x y z
#    x 1.674850 0.000000 0.000000 
#    y 0.000000 1.635800 0.000000 
#    z 0.000000 0.000000 1.707020 
# 
# From -- ./inp_files/19103.got.cif
#   From: 2010.05.17/outbox.cif.g08.bks.cpg/sg74_10_cif.got.tgz:19103.got - 2010.06.03 17:57:02.
