data_PCOD9538904
_publ_section_title
;
Structure prediction by ZEFSAII (Michael W. Deem and Ramdas Pophale) SiO2 
 PCOD9538904
Probable space group: I M M A
;
_chemical_formula_sum "Si O2"
_cell_formula_units_Z 64
_cell_length_a 16.342608
_cell_length_b 14.345857
_cell_length_c 14.789131
_cell_angle_alpha 90.000000
_cell_angle_beta 90.000000
_cell_angle_gamma 90.000000
_cell_volume 3467.292794
_symmetry_space_group_name_H-M "I M M A"
_symmetry_group_IT_number 74
_symmetry_cell_setting 'orthorhombic'
loop_
_space_group_symop_operation_xyz
x,y,z
-x,1/2-y,z
x,-y,-z
-x,1/2+y,-z
-x,-y,-z
x,1/2+y,-z
-x,y,z
x,1/2-y,z
1/2+x,1/2+y,1/2+z
1/2-x,-y,1/2+z
1/2+x,1/2-y,1/2-z
1/2-x,y,1/2-z
1/2-x,1/2-y,1/2-z
1/2+x,y,1/2-z
1/2-x,1/2+y,1/2+z
1/2+x,-y,1/2+z
loop_
_atom_site_type_symbol
_atom_site_label
_atom_site_fract_x
_atom_site_fract_y
_atom_site_fract_z
Si Si1 0.737128 0.139018 0.038216
Si Si2 0.802786 0.859545 0.337776
Si Si3 0.838804 0.143168 0.199993
Si Si4 0.907669 0.966752 0.639987
O O1 0.724094 0.250000 0.055094
O O2 0.814797 0.111244 0.099283
O O3 0.657689 0.084116 0.074438
O O4 0.746527 0.126617 0.931426
O O5 0.823142 0.750000 0.330488
O O6 0.750000 0.886659 0.250000
O O7 0.879994 0.926778 0.347769
O O8 0.867769 0.250000 0.198217
O O9 0.750000 0.141933 0.250000
O O10 0.896363 0.081464 0.262047
O O11 0.000000 0.956907 0.607713
#
# Coordination Sequence:
#
# PCOD9538904 Si02
#       4
#    16  16  16  16
#     4   9  18  33  54  77  98 125 164 206 245 287
#     4  10  21  36  53  71  93 130 177 212 236 273
#     4   8  15  30  51  73  97 125 159 200 243 288
#     4  11  21  31  48  77 108 132 154 191 250 308
#
# _framework density 18.458205
#
# number of rings (size 3 to 8) (size 9 to 14) (size 15 to 20)
#    0.000    2.500    0.000    5.250    0.000    4.500 
#    0.000    2.500    0.000    3.000    0.000    7.000 
#    0.000    0.000    0.000    0.000    0.000    0.000 
#
# Total GULP energy -178450.082203 kJ/mol
# GULP energy per Si atom -5576.565069 kJ/mol
# Density = 1.841619 g / cm^3
# Si number density = 18.458205 Si / 1000 Ang^3
#
#
#
# Elastic Constant Matrix: (Units=GPa)
#
#
# Indices 1 2 3 4 5 6 
#
# 1 25.6308 12.2712 24.5655 0.0000 0.0000 0.0000
# 2 12.2712 58.0976 25.8816 0.0000 0.0000 0.0000
# 3 24.5655 25.8816 132.8873 0.0000 0.0000 0.0000
# 4 0.0000 0.0000 0.0000 20.6892 0.0000 0.0000
# 5 0.0000 0.0000 0.0000 0.0000 6.2463 0.0000
# 6 0.0000 0.0000 0.0000 0.0000 0.0000 -0.5073
#
#
#
# Elastic Compliance Matrix: (Units=1/GPa)
#
#
# Indices 1 2 3 4 5 6 
#
# 1 0.049917 -0.007044 -0.007856 0.000000 0.000000 0.000000
# 2 -0.007044 0.019842 -0.002562 0.000000 0.000000 0.000000
# 3 -0.007856 -0.002562 0.009476 0.000000 0.000000 0.000000
# 4 0.000000 0.000000 0.000000 0.048334 0.000000 0.000000
# 5 0.000000 0.000000 0.000000 0.000000 0.160095 0.000000
# 6 0.000000 0.000000 0.000000 0.000000 0.000000 -1.971326
#
#
# Mechanical properties :
#
#
# Convention : Reuss Voigt Hill
#
# Bulk Modulus (GPa) = 22.56749 38.00581 30.28665
# Shear Modulus (GPa) = -3.06004 15.54547 6.24272
#
# Velocity S-wave (km/s) = -1.28896 2.90521 1.84104
# Velocity P-wave (km/s) = 3.16821 5.64700 4.57855
#
# Compressibility (1/GPa) = 0.04431153
#
# Stress axis : x y z
#
# Youngs Moduli (GPa) = 20.03319 50.39903 105.52479
#
# Poissons Ratio (x) = 0.35500 0.82898
# Poissons Ratio (y) = 0.14111 0.27039
# Poissons Ratio (z) = 0.15738 0.12914
#
# Static dielectric constant tensor:
#      x y z
#    x 1.593770 0.000000 0.000000 
#    y 0.000000 1.672220 0.000000 
#    z 0.000000 0.000000 1.704620 
# 
# From -- ./inp_files/19926.got.cif
#   From: 2010.05.17/outbox.cif.g08.bks.cpg/sg74_10_cif.got.tgz:19926.got - 2010.06.03 17:57:02.
