data_PCOD9538240
_publ_section_title
;
Structure prediction by ZEFSAII (Michael W. Deem and Ramdas Pophale) SiO2 
 PCOD9538240
Probable space group: I M M A
;
_chemical_formula_sum "Si O2"
_cell_formula_units_Z 80
_cell_length_a 27.219788
_cell_length_b 17.184574
_cell_length_c 9.427051
_cell_angle_alpha 90.000000
_cell_angle_beta 90.000000
_cell_angle_gamma 90.000000
_cell_volume 4409.601723
_symmetry_space_group_name_H-M "I M M A"
_symmetry_group_IT_number 74
_symmetry_cell_setting 'orthorhombic'
loop_
_space_group_symop_operation_xyz
x,y,z
-x,1/2-y,z
x,-y,-z
-x,1/2+y,-z
-x,-y,-z
x,1/2+y,-z
-x,y,z
x,1/2-y,z
1/2+x,1/2+y,1/2+z
1/2-x,-y,1/2+z
1/2+x,1/2-y,1/2-z
1/2-x,y,1/2-z
1/2-x,1/2-y,1/2-z
1/2+x,y,1/2-z
1/2-x,1/2+y,1/2+z
1/2+x,-y,1/2+z
loop_
_atom_site_type_symbol
_atom_site_label
_atom_site_fract_x
_atom_site_fract_y
_atom_site_fract_z
Si Si1 0.120904 0.080004 0.586253
Si Si2 0.441365 0.839912 0.850770
Si Si3 0.104857 0.973844 0.843068
Si Si4 0.273695 0.659068 0.103074
Si Si5 0.218228 0.568066 0.890509
O O1 0.084179 0.135422 0.499217
O O2 0.174848 0.116355 0.582308
O O3 0.122690 0.000000 0.500000
O O4 0.105715 0.050540 0.742506
O O5 0.500000 0.844167 0.864816
O O6 0.428003 0.750000 0.815330
O O7 0.424449 0.904077 0.734329
O O8 0.160936 0.942374 0.857177
O O9 0.088245 0.000000 0.000000
O O10 0.283868 0.750000 0.115854
O O11 0.250000 0.631148 0.250000
O O12 0.235418 0.643749 0.976517
O O13 0.250000 0.562396 0.750000
O O14 0.231881 0.500000 0.000000
#
# Coordination Sequence:
#
# PCOD9538240 Si02
#       5
#    16  16  16  16  16
#     4  10  20  36  59  82 106 144 191 232 268 321
#     4  10  22  41  62  82 108 143 184 234 286 333
#     4  10  21  35  57  86 114 146 184 230 283 336
#     4  11  22  34  51  79 115 150 182 221 271 326
#     4  11  20  33  53  76 107 145 184 221 264 318
#
# _framework density 18.142227999999999
#
# number of rings (size 3 to 8) (size 9 to 14) (size 15 to 20)
#    0.000    1.600    0.000    7.800    0.000    5.200 
#    0.000    2.000    0.000    2.400    0.000    0.000 
#    0.000    0.000    0.000    0.000    0.000    0.000 
#
# Total GULP energy -223236.034221 kJ/mol
# GULP energy per Si atom -5580.900856 kJ/mol
# Density = 1.810094 g / cm^3
# Si number density = 18.142228 Si / 1000 Ang^3
#
#
#
# Elastic Constant Matrix: (Units=GPa)
#
#
# Indices 1 2 3 4 5 6 
#
# 1 82.8808 34.5438 40.9367 0.0000 0.0000 0.0000
# 2 34.5438 70.8412 25.6805 0.0000 0.0000 0.0000
# 3 40.9367 25.6805 118.8116 0.0000 0.0000 0.0000
# 4 0.0000 0.0000 0.0000 0.4615 0.0000 0.0000
# 5 0.0000 0.0000 0.0000 0.0000 16.0406 0.0000
# 6 0.0000 0.0000 0.0000 0.0000 0.0000 107.7364
#
#
#
# Elastic Compliance Matrix: (Units=1/GPa)
#
#
# Indices 1 2 3 4 5 6 
#
# 1 0.017046 -0.006709 -0.004423 0.000000 0.000000 0.000000
# 2 -0.006709 0.017956 -0.001570 0.000000 0.000000 0.000000
# 3 -0.004423 -0.001570 0.010280 0.000000 0.000000 0.000000
# 4 0.000000 0.000000 0.000000 2.166721 0.000000 0.000000
# 5 0.000000 0.000000 0.000000 0.000000 0.062342 0.000000
# 6 0.000000 0.000000 0.000000 0.000000 0.000000 0.009282
#
#
# Mechanical properties :
#
#
# Convention : Reuss Voigt Hill
#
# Bulk Modulus (GPa) = 50.30329 52.76173 51.53251
# Shear Modulus (GPa) = 2.15921 36.27254 19.21588
#
# Velocity S-wave (km/s) = 1.09213 4.47625 3.25803
# Velocity P-wave (km/s) = 5.42012 7.47403 6.52836
#
# Compressibility (1/GPa) = 0.01987942
#
# Stress axis : x y z
#
# Youngs Moduli (GPa) = 58.66331 55.69028 97.27602
#
# Poissons Ratio (x) = 0.37361 0.43028
# Poissons Ratio (y) = 0.39356 0.15269
# Poissons Ratio (z) = 0.25949 0.08742
#
# Static dielectric constant tensor:
#      x y z
#    x 1.594850 0.000000 0.000000 
#    y 0.000000 1.642750 0.000000 
#    z 0.000000 0.000000 1.658380 
# 
# From -- ./inp_files/10955.got.cif
#   From: 2010.05.17/outbox.cif.g08.bks.cpg/sg74_6_cif.got.tgz:10955.got - 2010.06.03 17:57:02.
