data_PCOD9538562
_publ_section_title
;
Structure prediction by ZEFSAII (Michael W. Deem and Ramdas Pophale) SiO2 
 PCOD9538562
Probable space group: I M M A
;
_chemical_formula_sum "Si O2"
_cell_formula_units_Z 116
_cell_length_a 18.167277
_cell_length_b 28.715112
_cell_length_c 12.377107
_cell_angle_alpha 90.000000
_cell_angle_beta 90.000000
_cell_angle_gamma 90.000000
_cell_volume 6456.832168
_symmetry_space_group_name_H-M "I M M A"
_symmetry_group_IT_number 74
_symmetry_cell_setting 'orthorhombic'
loop_
_space_group_symop_operation_xyz
x,y,z
-x,1/2-y,z
x,-y,-z
-x,1/2+y,-z
-x,-y,-z
x,1/2+y,-z
-x,y,z
x,1/2-y,z
1/2+x,1/2+y,1/2+z
1/2-x,-y,1/2+z
1/2+x,1/2-y,1/2-z
1/2-x,y,1/2-z
1/2-x,1/2-y,1/2-z
1/2+x,y,1/2-z
1/2-x,1/2+y,1/2+z
1/2+x,-y,1/2+z
loop_
_atom_site_type_symbol
_atom_site_label
_atom_site_fract_x
_atom_site_fract_y
_atom_site_fract_z
Si Si1 0.914216 0.392041 0.647818
Si Si2 0.750000 0.750000 0.750000
Si Si3 0.210995 0.299241 0.032688
Si Si4 0.674564 0.052931 0.037757
Si Si5 0.085317 0.547083 0.135362
Si Si6 0.411767 0.448464 0.261420
Si Si7 0.667710 0.400824 0.444676
Si Si8 0.183780 0.803116 0.333492
O O1 0.867911 0.419588 0.557253
O O2 0.909471 0.420642 0.759125
O O3 0.879029 0.341593 0.668551
O O4 0.000000 0.389281 0.616186
O O5 0.763388 0.789765 0.845001
O O6 0.172626 0.250000 0.000252
O O7 0.166558 0.346600 0.024140
O O8 0.279817 0.303850 0.952224
O O9 0.623339 0.050452 0.143313
O O10 0.748881 0.080794 0.065908
O O11 0.690886 0.000000 0.000000
O O12 0.108098 0.495937 0.174563
O O13 0.000000 0.544829 0.100693
O O14 0.131980 0.568523 0.039392
O O15 0.500000 0.445694 0.254753
O O16 0.376884 0.408350 0.334561
O O17 0.159726 0.750000 0.310522
O O18 0.250000 0.814545 0.250000
#
# Coordination Sequence:
#
# PCOD9538562 Si02
#       8
#    16   4  16  16  16  16  16  16
#     4  11  23  38  61  89 124 167 199 240 304 367
#     4   8  20  36  54  80 114 148 188 226 296 374
#     4   9  20  36  59  86 115 155 186 240 304 356
#     4  12  24  38  59  88 122 157 202 250 297 356
#     4  10  22  41  60  83 123 168 198 235 306 373
#     4  11  24  40  59  83 122 166 200 241 299 369
#     4  12  23  37  63  94 115 148 207 262 294 343
#     4  10  20  38  62  90 122 154 202 251 305 359
#
# _framework density 17.965467
#
# number of rings (size 3 to 8) (size 9 to 14) (size 15 to 20)
#    0.414    0.966    2.759    3.310    1.931    1.931 
#    0.000    0.000    0.000    2.483    0.000    0.000 
#    0.000    0.000    0.000    0.000    0.000    0.000 
#
# Total GULP energy -323208.039274 kJ/mol
# GULP energy per Si atom -5572.552401 kJ/mol
# Density = 1.792458 g / cm^3
# Si number density = 17.965467 Si / 1000 Ang^3
#
#
#
# Elastic Constant Matrix: (Units=GPa)
#
#
# Indices 1 2 3 4 5 6 
#
# 1 43.9478 29.1540 29.8621 0.0001 0.0000 0.0000
# 2 29.1540 106.2471 4.2273 0.0001 0.0000 0.0000
# 3 29.8621 4.2273 66.0411 -0.0004 0.0000 -0.0001
# 4 0.0001 0.0001 -0.0004 8.5983 0.0000 -0.0001
# 5 0.0000 0.0000 0.0000 0.0000 31.6112 0.0000
# 6 0.0000 0.0000 -0.0001 -0.0001 0.0000 26.9221
#
#
#
# Elastic Compliance Matrix: (Units=1/GPa)
#
#
# Indices 1 2 3 4 5 6 
#
# 1 0.042659 -0.010966 -0.018587 -0.000001 0.000000 0.000000
# 2 -0.010966 0.012255 0.004174 0.000000 0.000000 0.000000
# 3 -0.018587 0.004174 0.023280 0.000001 0.000000 0.000000
# 4 -0.000001 0.000000 0.000001 0.116302 0.000000 0.000000
# 5 0.000000 0.000000 0.000000 0.000000 0.031634 0.000000
# 6 0.000000 0.000000 0.000000 0.000000 0.000000 0.037144
#
#
# Mechanical properties :
#
#
# Convention : Reuss Voigt Hill
#
# Bulk Modulus (GPa) = 36.44974 38.08033 37.26504
# Shear Modulus (GPa) = 15.47142 23.62583 19.54863
#
# Velocity S-wave (km/s) = 2.93776 3.63032 3.30225
# Velocity P-wave (km/s) = 5.64270 6.23015 5.94369
#
# Compressibility (1/GPa) = 0.02743503
#
# Stress axis : x y z
#
# Youngs Moduli (GPa) = 23.44190 81.59958 42.95612
#
# Poissons Ratio (x) = 0.89481 0.79844
# Poissons Ratio (y) = 0.25706 -0.17930
# Poissons Ratio (z) = 0.43572 -0.34060
#
# Static dielectric constant tensor:
#      x y z
#    x 1.601550 0.000000 0.000000 
#    y 0.000000 1.641410 0.000000 
#    z 0.000000 0.000000 1.603060 
# 
# From -- ./inp_files/22929.got.cif
#   From: 2010.05.17/outbox.cif.g08.bks.cpg/sg74_12_cif.got.tgz:22929.got - 2010.06.03 17:57:02.
