data_PCOD9538496
_publ_section_title
;
Structure prediction by ZEFSAII (Michael W. Deem and Ramdas Pophale) SiO2 
 PCOD9538496
Probable space group: I M M A
;
_chemical_formula_sum "Si O2"
_cell_formula_units_Z 112
_cell_length_a 22.537688
_cell_length_b 20.348376
_cell_length_c 11.813015
_cell_angle_alpha 90.000000
_cell_angle_beta 90.000000
_cell_angle_gamma 90.000000
_cell_volume 5417.511874
_symmetry_space_group_name_H-M "I M M A"
_symmetry_group_IT_number 74
_symmetry_cell_setting 'orthorhombic'
loop_
_space_group_symop_operation_xyz
x,y,z
-x,1/2-y,z
x,-y,-z
-x,1/2+y,-z
-x,-y,-z
x,1/2+y,-z
-x,y,z
x,1/2-y,z
1/2+x,1/2+y,1/2+z
1/2-x,-y,1/2+z
1/2+x,1/2-y,1/2-z
1/2-x,y,1/2-z
1/2-x,1/2-y,1/2-z
1/2+x,y,1/2-z
1/2-x,1/2+y,1/2+z
1/2+x,-y,1/2+z
loop_
_atom_site_type_symbol
_atom_site_label
_atom_site_fract_x
_atom_site_fract_y
_atom_site_fract_z
Si Si1 0.649470 0.563793 0.253992
Si Si2 0.432668 0.175731 0.155805
Si Si3 0.732281 0.825913 0.622813
Si Si4 0.090825 0.674614 0.906722
Si Si5 0.751214 0.932974 0.434807
Si Si6 0.928376 0.463591 0.380702
Si Si7 0.431402 0.673504 0.342978
O O1 0.688002 0.558797 0.369580
O O2 0.698426 0.575438 0.158438
O O3 0.609364 0.501754 0.215127
O O4 0.607420 0.626743 0.265901
O O5 0.500000 0.181314 0.113234
O O6 0.406330 0.250000 0.150073
O O7 0.434875 0.153206 0.287288
O O8 0.405275 0.111242 0.100454
O O9 0.752131 0.750000 0.609145
O O10 0.750000 0.847223 0.750000
O O11 0.661159 0.826912 0.611068
O O12 0.753090 0.873803 0.524128
O O13 0.070535 0.750000 0.916094
O O14 0.073930 0.646182 0.027949
O O15 0.762695 0.000000 0.500000
O O16 0.921253 0.500000 0.500000
O O17 0.000000 0.462878 0.355571
O O18 0.500000 0.672234 0.309887
O O19 0.411043 0.750000 0.341495
#
# Coordination Sequence:
#
# PCOD9538496 Si02
#       7
#    16  16  16  16  16  16  16
#     4  11  24  41  62  90 124 175 220 262 328 395
#     4   9  18  34  60  91 118 156 209 262 318 378
#     4  10  22  40  64  91 122 163 214 273 328 381
#     4   9  17  32  55  88 127 159 194 252 320 373
#     4  11  26  42  62  91 126 172 223 274 325 389
#     4  10  22  40  62  89 127 170 212 269 333 395
#     4  10  20  37  64  97 132 168 209 263 324 391
#
# _framework density 20.673696
#
# number of rings (size 3 to 8) (size 9 to 14) (size 15 to 20)
#    0.000    2.000    1.429    1.286    4.000    3.429 
#    0.000    2.143    0.000    6.000    0.000    0.000 
#    0.000    0.000    0.000    0.000    0.000    0.000 
#
# Total GULP energy -312372.222454 kJ/mol
# GULP energy per Si atom -5578.075401 kJ/mol
# Density = 2.062664 g / cm^3
# Si number density = 20.673696 Si / 1000 Ang^3
#
#
#
# Elastic Constant Matrix: (Units=GPa)
#
#
# Indices 1 2 3 4 5 6 
#
# 1 81.1424 34.6161 27.5271 0.0000 0.0000 0.0000
# 2 34.6161 134.3838 63.9441 0.0000 0.0000 0.0000
# 3 27.5271 63.9441 88.2951 0.0000 0.0000 0.0000
# 4 0.0000 0.0000 0.0000 35.3139 0.0000 0.0000
# 5 0.0000 0.0000 0.0000 0.0000 25.5332 0.0000
# 6 0.0000 0.0000 0.0000 0.0000 0.0000 21.3776
#
#
#
# Elastic Compliance Matrix: (Units=1/GPa)
#
#
# Indices 1 2 3 4 5 6 
#
# 1 0.014263 -0.002377 -0.002725 0.000000 0.000000 0.000000
# 2 -0.002377 0.011750 -0.007768 0.000000 0.000000 0.000000
# 3 -0.002725 -0.007768 0.017801 0.000000 0.000000 0.000000
# 4 0.000000 0.000000 0.000000 0.028317 0.000000 0.000000
# 5 0.000000 0.000000 0.000000 0.000000 0.039165 0.000000
# 6 0.000000 0.000000 0.000000 0.000000 0.000000 0.046778
#
#
# Mechanical properties :
#
#
# Convention : Reuss Voigt Hill
#
# Bulk Modulus (GPa) = 55.33214 61.77732 58.55473
# Shear Modulus (GPa) = 26.33802 28.29387 27.31595
#
# Velocity S-wave (km/s) = 3.57317 3.70346 3.63890
# Velocity P-wave (km/s) = 6.62163 6.94510 6.78530
#
# Compressibility (1/GPa) = 0.01807268
#
# Stress axis : x y z
#
# Youngs Moduli (GPa) = 70.11341 85.10462 56.17608
#
# Poissons Ratio (x) = 0.20232 0.15307
# Poissons Ratio (y) = 0.16668 0.43640
# Poissons Ratio (z) = 0.19105 0.66113
#
# Static dielectric constant tensor:
#      x y z
#    x 1.758840 0.000000 0.000000 
#    y 0.000000 1.747600 0.000000 
#    z 0.000000 0.000000 1.780860 
# 
# From -- ./inp_files/25400.got.cif
#   From: 2010.05.17/outbox.cif.g08.bks.cpg/sg74_13_cif.got.tgz:25400.got - 2010.06.03 17:57:02.
