data_PCOD9538010
_publ_section_title
;
Structure prediction by ZEFSAII (Michael W. Deem and Ramdas Pophale) SiO2 
 PCOD9538010
Probable space group: I M M A
;
_chemical_formula_sum "Si O2"
_cell_formula_units_Z 112
_cell_length_a 30.895496
_cell_length_b 16.367325
_cell_length_c 11.218108
_cell_angle_alpha 90.000000
_cell_angle_beta 90.000000
_cell_angle_gamma 90.000000
_cell_volume 5672.734982
_symmetry_space_group_name_H-M "I M M A"
_symmetry_group_IT_number 74
_symmetry_cell_setting 'orthorhombic'
loop_
_space_group_symop_operation_xyz
x,y,z
-x,1/2-y,z
x,-y,-z
-x,1/2+y,-z
-x,-y,-z
x,1/2+y,-z
-x,y,z
x,1/2-y,z
1/2+x,1/2+y,1/2+z
1/2-x,-y,1/2+z
1/2+x,1/2-y,1/2-z
1/2-x,y,1/2-z
1/2-x,1/2-y,1/2-z
1/2+x,y,1/2-z
1/2-x,1/2+y,1/2+z
1/2+x,-y,1/2+z
loop_
_atom_site_type_symbol
_atom_site_label
_atom_site_fract_x
_atom_site_fract_y
_atom_site_fract_z
Si Si1 0.217802 0.906991 0.030075
Si Si2 0.083638 0.655389 0.211036
Si Si3 0.175972 0.410224 0.733005
Si Si4 0.366754 0.916076 0.777554
Si Si5 0.304840 0.343629 0.020830
Si Si6 0.047418 0.004190 0.642567
Si Si7 0.876997 0.845992 0.972466
O O1 0.213247 0.890819 0.171645
O O2 0.253231 0.853500 0.960938
O O3 0.168627 0.889727 0.994020
O O4 0.228804 0.000000 0.000000
O O5 0.069434 0.750000 0.220824
O O6 0.134175 0.647178 0.247751
O O7 0.058097 0.591975 0.295184
O O8 0.087068 0.628500 0.070884
O O9 0.159948 0.502427 0.758873
O O10 0.187712 0.400298 0.594992
O O11 0.383278 0.864064 0.665716
O O12 0.411023 0.949134 0.832554
O O13 0.335488 0.870107 0.870535
O O14 0.314307 0.250000 0.990077
O O15 0.000000 0.977720 0.688586
O O16 0.044674 0.000000 0.500000
O O17 0.871333 0.750000 0.992789
#
# Coordination Sequence:
#
# PCOD9538010 Si02
#       7
#    16  16  16  16  16  16  16
#     4  11  21  37  57  83 116 157 208 259 308 365
#     4   9  19  36  62  91 121 157 199 248 308 366
#     4  10  20  35  58  81 112 159 208 255 307 375
#     4  11  21  40  61  84 120 162 206 256 315 380
#     4  12  25  36  53  82 118 161 207 262 321 371
#     4  10  22  40  65  95 122 154 201 253 307 377
#     4  10  21  38  61  88 120 161 205 252 302 360
#
# _framework density 19.743562000000001
#
# number of rings (size 3 to 8) (size 9 to 14) (size 15 to 20)
#    0.000    1.571    1.429    4.714    0.000    3.143 
#    0.000    3.571    0.000    4.286    0.000    0.000 
#    0.000    0.000    0.000    0.000    0.000    0.000 
#
# Total GULP energy -312083.319675 kJ/mol
# GULP energy per Si atom -5572.916423 kJ/mol
# Density = 1.969863 g / cm^3
# Si number density = 19.743562 Si / 1000 Ang^3
#
#
#
# Elastic Constant Matrix: (Units=GPa)
#
#
# Indices 1 2 3 4 5 6 
#
# 1 80.9865 13.5536 28.5165 0.0000 0.0000 0.0000
# 2 13.5536 69.2770 26.8659 0.0000 0.0000 0.0000
# 3 28.5165 26.8659 107.3806 0.0000 0.0000 0.0000
# 4 0.0000 0.0000 0.0000 30.3101 0.0000 0.0000
# 5 0.0000 0.0000 0.0000 0.0000 -9.3838 0.0000
# 6 0.0000 0.0000 0.0000 0.0000 0.0000 -5.1658
#
#
#
# Elastic Compliance Matrix: (Units=1/GPa)
#
#
# Indices 1 2 3 4 5 6 
#
# 1 0.013745 -0.001410 -0.003297 0.000000 0.000000 0.000000
# 2 -0.001410 0.016131 -0.003661 0.000000 0.000000 0.000000
# 3 -0.003297 -0.003661 0.011104 0.000000 0.000000 0.000000
# 4 0.000000 0.000000 0.000000 0.032992 0.000000 0.000000
# 5 0.000000 0.000000 0.000000 0.000000 -0.106567 0.000000
# 6 0.000000 0.000000 0.000000 0.000000 0.000000 -0.193579
#
#
# Mechanical properties :
#
#
# Convention : Reuss Voigt Hill
#
# Bulk Modulus (GPa) = 41.25079 43.94623 42.59851
# Shear Modulus (GPa) = -24.83168 15.73263 -4.54952
#
# Velocity S-wave (km/s) = -3.55027 2.82591 -1.51964
# Velocity P-wave (km/s) = 2.03292 5.74061 4.30623
#
# Compressibility (1/GPa) = 0.02424196
#
# Stress axis : x y z
#
# Youngs Moduli (GPa) = 72.75486 61.99406 90.05509
#
# Poissons Ratio (x) = 0.08744 0.29694
# Poissons Ratio (y) = 0.10261 0.32971
# Poissons Ratio (z) = 0.23989 0.22697
#
# Static dielectric constant tensor:
#      x y z
#    x 1.727380 0.000000 0.000000 
#    y 0.000000 1.675200 0.000000 
#    z 0.000000 0.000000 1.804990 
# 
# From -- ./inp_files/27219.got.cif
#   From: 2010.05.17/outbox.cif.g08.bks.cpg/sg74_14_cif.got.tgz:27219.got - 2010.06.03 17:57:02.
