data_PCOD9538353
_publ_section_title
;
Structure prediction by ZEFSAII (Michael W. Deem and Ramdas Pophale) SiO2 
 PCOD9538353
Probable space group: I M M A
;
_chemical_formula_sum "Si O2"
_cell_formula_units_Z 112
_cell_length_a 22.358230
_cell_length_b 14.034660
_cell_length_c 15.675117
_cell_angle_alpha 90.000000
_cell_angle_beta 90.000000
_cell_angle_gamma 90.000000
_cell_volume 4918.697413
_symmetry_space_group_name_H-M "I M M A"
_symmetry_group_IT_number 74
_symmetry_cell_setting 'orthorhombic'
loop_
_space_group_symop_operation_xyz
x,y,z
-x,1/2-y,z
x,-y,-z
-x,1/2+y,-z
-x,-y,-z
x,1/2+y,-z
-x,y,z
x,1/2-y,z
1/2+x,1/2+y,1/2+z
1/2-x,-y,1/2+z
1/2+x,1/2-y,1/2-z
1/2-x,y,1/2-z
1/2-x,1/2-y,1/2-z
1/2+x,y,1/2-z
1/2-x,1/2+y,1/2+z
1/2+x,-y,1/2+z
loop_
_atom_site_type_symbol
_atom_site_label
_atom_site_fract_x
_atom_site_fract_y
_atom_site_fract_z
Si Si1 0.339977 0.888065 0.014710
Si Si2 0.642327 0.136055 0.610006
Si Si3 0.071309 0.645536 0.630588
Si Si4 0.747767 0.645969 0.625290
Si Si5 0.107604 0.140940 0.079586
Si Si6 0.732667 0.431547 0.841611
Si Si7 0.068622 0.000038 0.777772
O O1 0.323622 0.880414 0.113900
O O2 0.398111 0.856861 0.962454
O O3 0.283975 0.848975 0.962669
O O4 0.338721 0.000000 0.000000
O O5 0.647563 0.250000 0.618077
O O6 0.607968 0.116308 0.520874
O O7 0.707657 0.088709 0.603600
O O8 0.609295 0.086758 0.689851
O O9 0.086283 0.750000 0.668589
O O10 0.089423 0.560292 0.694506
O O11 0.000000 0.639524 0.621961
O O12 0.759918 0.750000 0.665156
O O13 0.677134 0.636859 0.609858
O O14 0.772187 0.547007 0.664624
O O15 0.087267 0.250000 0.088090
O O16 0.072100 0.073076 0.142708
O O17 0.750000 0.392269 0.750000
O O18 0.000000 0.029407 0.763375
#
# Coordination Sequence:
#
# PCOD9538353 Si02
#       7
#    16  16  16  16  16  16  16
#     4  10  22  38  66 100 135 182 217 261 328 409
#     4  11  24  41  61  88 131 181 228 282 335 399
#     4  10  23  45  72 103 138 174 223 287 344 399
#     4  10  20  36  62  98 135 169 210 269 335 405
#     4  10  20  36  62  93 131 173 216 273 340 408
#     4  11  24  41  66  98 136 174 221 271 334 399
#     4  11  24  41  66  96 131 175 224 280 341 405
#
# _framework density 22.770257999999998
#
# number of rings (size 3 to 8) (size 9 to 14) (size 15 to 20)
#    0.000    1.571    2.857    1.286    4.000    3.714 
#    0.000    1.429    0.000    0.000    0.000    0.000 
#    0.000    0.000    0.000    0.000    0.000    0.000 
#
# Total GULP energy -312554.929247 kJ/mol
# GULP energy per Si atom -5581.338022 kJ/mol
# Density = 2.271843 g / cm^3
# Si number density = 22.770258 Si / 1000 Ang^3
#
#
#
# Elastic Constant Matrix: (Units=GPa)
#
#
# Indices 1 2 3 4 5 6 
#
# 1 77.0414 22.4578 18.6284 0.0000 0.0000 0.0000
# 2 22.4578 113.5640 22.4955 0.0000 0.0000 0.0000
# 3 18.6284 22.4955 120.0798 0.0000 0.0000 0.0000
# 4 0.0000 0.0000 0.0000 37.0125 0.0000 0.0000
# 5 0.0000 0.0000 0.0000 0.0000 31.0470 0.0000
# 6 0.0000 0.0000 0.0000 0.0000 0.0000 -38.0819
#
#
#
# Elastic Compliance Matrix: (Units=1/GPa)
#
#
# Indices 1 2 3 4 5 6 
#
# 1 0.014112 -0.002448 -0.001731 0.000000 0.000000 0.000000
# 2 -0.002448 0.009570 -0.001413 0.000000 0.000000 0.000000
# 3 -0.001731 -0.001413 0.008861 0.000000 0.000000 0.000000
# 4 0.000000 0.000000 0.000000 0.027018 0.000000 0.000000
# 5 0.000000 0.000000 0.000000 0.000000 0.032209 0.000000
# 6 0.000000 0.000000 0.000000 0.000000 0.000000 -0.026259
#
#
# Mechanical properties :
#
#
# Convention : Reuss Voigt Hill
#
# Bulk Modulus (GPa) = 46.81755 48.64984 47.73370
# Shear Modulus (GPa) = 59.65624 22.46909 41.06267
#
# Velocity S-wave (km/s) = 5.12407 3.14470 4.25119
# Velocity P-wave (km/s) = 7.45745 5.88196 6.71606
#
# Compressibility (1/GPa) = 0.02135951
#
# Stress axis : x y z
#
# Youngs Moduli (GPa) = 70.86133 104.49777 112.85422
#
# Poissons Ratio (x) = 0.25580 0.19531
# Poissons Ratio (y) = 0.17346 0.15946
# Poissons Ratio (z) = 0.12264 0.14765
#
# Static dielectric constant tensor:
#      x y z
#    x 1.834390 0.000000 0.000000 
#    y 0.000000 1.865070 0.000000 
#    z 0.000000 0.000000 1.897390 
# 
# From -- ./inp_files/36510.got.cif
#   From: 2010.05.17/outbox.cif.g08.bks.cpg/sg74_19_cif.got.tgz:36510.got - 2010.06.03 17:57:02.
