data_PCOD9538951
_publ_section_title
;
Structure prediction by ZEFSAII (Michael W. Deem and Ramdas Pophale) SiO2 
 PCOD9538951
Probable space group: I M M A
;
_chemical_formula_sum "Si O2"
_cell_formula_units_Z 88
_cell_length_a 18.990216
_cell_length_b 11.374167
_cell_length_c 20.769845
_cell_angle_alpha 90.000000
_cell_angle_beta 90.000000
_cell_angle_gamma 90.000000
_cell_volume 4486.242657
_symmetry_space_group_name_H-M "I M M A"
_symmetry_group_IT_number 74
_symmetry_cell_setting 'orthorhombic'
loop_
_space_group_symop_operation_xyz
x,y,z
-x,1/2-y,z
x,-y,-z
-x,1/2+y,-z
-x,-y,-z
x,1/2+y,-z
-x,y,z
x,1/2-y,z
1/2+x,1/2+y,1/2+z
1/2-x,-y,1/2+z
1/2+x,1/2-y,1/2-z
1/2-x,y,1/2-z
1/2-x,1/2-y,1/2-z
1/2+x,y,1/2-z
1/2-x,1/2+y,1/2+z
1/2+x,-y,1/2+z
loop_
_atom_site_type_symbol
_atom_site_label
_atom_site_fract_x
_atom_site_fract_y
_atom_site_fract_z
Si Si1 0.150264 0.968638 0.576137
Si Si2 0.791737 0.124088 0.037794
Si Si3 0.758106 0.610230 0.324336
Si Si4 0.500000 0.882759 0.456461
Si Si5 0.000000 0.889862 0.630365
Si Si6 0.000000 0.608134 0.780833
Si Si7 0.885723 0.498671 0.872875
O O1 0.216646 0.878644 0.574610
O O2 0.072892 0.931753 0.598539
O O3 0.143583 0.000000 0.500000
O O4 0.180122 0.061839 0.628829
O O5 0.795889 0.250000 0.002756
O O6 0.858843 0.107595 0.083663
O O7 0.792432 0.000000 0.000000
O O8 0.764118 0.750000 0.323249
O O9 0.750000 0.568568 0.250000
O O10 0.685022 0.566997 0.353877
O O11 0.500000 0.750000 0.483481
O O12 0.500000 0.000000 0.500000
O O13 0.432217 0.905976 0.412296
O O14 0.000000 0.750000 0.626178
O O15 0.000000 0.922262 0.705665
O O16 0.932491 0.551102 0.815742
O O17 0.000000 0.750000 0.787899
#
# Coordination Sequence:
#
# PCOD9538951 Si02
#       7
#    16  16  16   8   8   8  16
#     4  10  22  38  59  87 119 152 195 245 299 356
#     4  10  21  36  57  85 117 152 193 242 296 355
#     4  10  21  39  63  89 118 155 199 248 303 361
#     4  11  24  38  55  83 118 157 198 241 291 351
#     4  11  22  38  59  80 111 151 193 241 295 356
#     4  10  21  36  55  81 111 150 195 240 292 347
#     4  10  21  36  57  81 115 151 192 242 292 352
#
# _framework density 19.615524000000001
#
# number of rings (size 3 to 8) (size 9 to 14) (size 15 to 20)
#    0.000    1.818    0.000    3.545    0.000   12.364 
#    0.000    0.455    0.000   12.000    0.000    0.000 
#    0.000    0.000    0.000    0.000    0.000    0.000 
#
# Total GULP energy -245084.139418 kJ/mol
# GULP energy per Si atom -5570.094078 kJ/mol
# Density = 1.957088 g / cm^3
# Si number density = 19.615524 Si / 1000 Ang^3
#
#
#
# Elastic Constant Matrix: (Units=GPa)
#
#
# Indices 1 2 3 4 5 6 
#
# 1 156.2322 37.8391 64.0913 0.0000 0.0000 0.0000
# 2 37.8391 109.5410 57.5873 0.0000 0.0000 0.0000
# 3 64.0913 57.5873 125.1296 0.0000 0.0000 0.0000
# 4 0.0000 0.0000 0.0000 22.3599 0.0000 0.0000
# 5 0.0000 0.0000 0.0000 0.0000 172.7431 0.0000
# 6 0.0000 0.0000 0.0000 0.0000 0.0000 9.9205
#
#
#
# Elastic Compliance Matrix: (Units=1/GPa)
#
#
# Indices 1 2 3 4 5 6 
#
# 1 0.008159 -0.000820 -0.003802 0.000000 0.000000 0.000000
# 2 -0.000820 0.012125 -0.005160 0.000000 0.000000 0.000000
# 3 -0.003802 -0.005160 0.012314 0.000000 0.000000 0.000000
# 4 0.000000 0.000000 0.000000 0.044723 0.000000 0.000000
# 5 0.000000 0.000000 0.000000 0.000000 0.005789 0.000000
# 6 0.000000 0.000000 0.000000 0.000000 0.000000 0.100801
#
#
# Mechanical properties :
#
#
# Convention : Reuss Voigt Hill
#
# Bulk Modulus (GPa) = 76.72127 78.88199 77.80163
# Shear Modulus (GPa) = 24.05942 56.43039 40.24490
#
# Velocity S-wave (km/s) = 3.50601 5.36942 4.53447
# Velocity P-wave (km/s) = 7.45566 8.87368 8.19540
#
# Compressibility (1/GPa) = 0.01303420
#
# Stress axis : x y z
#
# Youngs Moduli (GPa) = 122.56644 82.47410 81.20948
#
# Poissons Ratio (x) = 0.06761 0.30873
# Poissons Ratio (y) = 0.10047 0.41907
# Poissons Ratio (z) = 0.46596 0.42559
#
# Static dielectric constant tensor:
#      x y z
#    x 1.668750 0.000000 0.000000 
#    y 0.000000 1.699230 0.000000 
#    z 0.000000 0.000000 1.811630 
# 
# From -- ./inp_files/52916.got.cif
#   From: 2010.05.17/outbox.cif.g08.bks.cpg/sg74_27_cif.got.tgz:52916.got - 2010.06.03 17:57:02.
