data_PCOD9538385
_publ_section_title
;
Structure prediction by ZEFSAII (Michael W. Deem and Ramdas Pophale) SiO2 
 PCOD9538385
Probable space group: I M M A
;
_chemical_formula_sum "Si O2"
_cell_formula_units_Z 64
_cell_length_a 11.056460
_cell_length_b 13.562785
_cell_length_c 24.047797
_cell_angle_alpha 90.000000
_cell_angle_beta 90.000000
_cell_angle_gamma 90.000000
_cell_volume 3606.120822
_symmetry_space_group_name_H-M "I M M A"
_symmetry_group_IT_number 74
_symmetry_cell_setting 'orthorhombic'
loop_
_space_group_symop_operation_xyz
x,y,z
-x,1/2-y,z
x,-y,-z
-x,1/2+y,-z
-x,-y,-z
x,1/2+y,-z
-x,y,z
x,1/2-y,z
1/2+x,1/2+y,1/2+z
1/2-x,-y,1/2+z
1/2+x,1/2-y,1/2-z
1/2-x,y,1/2-z
1/2-x,1/2-y,1/2-z
1/2+x,y,1/2-z
1/2-x,1/2+y,1/2+z
1/2+x,-y,1/2+z
loop_
_atom_site_type_symbol
_atom_site_label
_atom_site_fract_x
_atom_site_fract_y
_atom_site_fract_z
Si Si1 0.500000 0.055999 0.057749
Si Si2 0.741243 0.138103 0.465775
Si Si3 0.500000 0.857444 0.129375
Si Si4 0.743841 0.637742 0.311778
Si Si5 0.638278 0.440161 0.576106
O O1 0.623262 0.118594 0.056851
O O2 0.500000 0.963308 0.099352
O O3 0.500000 0.000000 0.000000
O O4 0.705324 0.250000 0.455686
O O5 0.726758 0.115370 0.532137
O O6 0.658916 0.055121 0.437078
O O7 0.500000 0.750000 0.097346
O O8 0.380060 0.856590 0.166018
O O9 0.695268 0.750000 0.306892
O O10 0.750000 0.593634 0.250000
O O11 0.670740 0.583941 0.360537
O O12 0.500000 0.411864 0.564092
#
# Coordination Sequence:
#
# PCOD9538385 Si02
#       5
#     8  16   8  16  16
#     4  12  19  35  56  84 115 146 185 226 277 329
#     4  11  22  37  57  83 113 147 187 229 278 333
#     4  10  20  37  58  83 117 148 181 227 282 330
#     4  10  21  36  58  86 114 147 184 226 278 337
#     4  11  23  38  56  82 114 149 185 229 279 330
#
# _framework density 17.747603000000002
#
# number of rings (size 3 to 8) (size 9 to 14) (size 15 to 20)
#    0.000    1.250    5.000    2.625    1.750    6.500 
#    0.000    0.000    0.000    0.750    0.000    0.000 
#    0.000    0.000    0.000    0.000    0.000    0.000 
#
# Total GULP energy -178434.778332 kJ/mol
# GULP energy per Si atom -5576.086823 kJ/mol
# Density = 1.770721 g / cm^3
# Si number density = 17.747603 Si / 1000 Ang^3
#
#
#
# Elastic Constant Matrix: (Units=GPa)
#
#
# Indices 1 2 3 4 5 6 
#
# 1 78.8010 7.9682 14.5746 0.0000 0.0000 0.0000
# 2 7.9682 96.6091 40.8014 0.0000 0.0000 0.0000
# 3 14.5746 40.8014 113.7205 0.0000 0.0000 0.0000
# 4 0.0000 0.0000 0.0000 20.0035 0.0000 0.0000
# 5 0.0000 0.0000 0.0000 0.0000 -2.2222 0.0000
# 6 0.0000 0.0000 0.0000 0.0000 0.0000 26.8990
#
#
#
# Elastic Compliance Matrix: (Units=1/GPa)
#
#
# Indices 1 2 3 4 5 6 
#
# 1 0.013014 -0.000435 -0.001512 0.000000 0.000000 0.000000
# 2 -0.000435 0.012214 -0.004327 0.000000 0.000000 0.000000
# 3 -0.001512 -0.004327 0.010540 0.000000 0.000000 0.000000
# 4 0.000000 0.000000 0.000000 0.049991 0.000000 0.000000
# 5 0.000000 0.000000 0.000000 0.000000 -0.450004 0.000000
# 6 0.000000 0.000000 0.000000 0.000000 0.000000 0.037176
#
#
# Mechanical properties :
#
#
# Convention : Reuss Voigt Hill
#
# Bulk Modulus (GPa) = 43.06447 46.20208 44.63328
# Shear Modulus (GPa) = -16.29820 23.98849 3.84514
#
# Velocity S-wave (km/s) = -3.03369 3.68046 1.47352
# Velocity P-wave (km/s) = 3.47082 6.64458 5.30080
#
# Compressibility (1/GPa) = 0.02322100
#
# Stress axis : x y z
#
# Youngs Moduli (GPa) = 76.84160 81.87257 94.88070
#
# Poissons Ratio (x) = 0.03560 0.14345
# Poissons Ratio (y) = 0.03341 0.41050
# Poissons Ratio (z) = 0.11617 0.35422
#
# Static dielectric constant tensor:
#      x y z
#    x 1.762990 0.000000 0.000000 
#    y 0.000000 1.743960 0.000000 
#    z 0.000000 0.000000 1.583230 
# 
# From -- ./inp_files/58266.got.cif
#   From: 2010.05.17/outbox.cif.g08.bks.cpg/sg74_30_cif.got.tgz:58266.got - 2010.06.03 17:57:02.
