data_PCOD9538736
_publ_section_title
;
Structure prediction by ZEFSAII (Michael W. Deem and Ramdas Pophale) SiO2 
 PCOD9538736
Probable space group: I M M A
;
_chemical_formula_sum "Si O2"
_cell_formula_units_Z 84
_cell_length_a 11.912388
_cell_length_b 11.907114
_cell_length_c 31.627729
_cell_angle_alpha 90.000000
_cell_angle_beta 90.000000
_cell_angle_gamma 90.000000
_cell_volume 4486.145458
_symmetry_space_group_name_H-M "I M M A"
_symmetry_group_IT_number 74
_symmetry_cell_setting 'orthorhombic'
loop_
_space_group_symop_operation_xyz
x,y,z
-x,1/2-y,z
x,-y,-z
-x,1/2+y,-z
-x,-y,-z
x,1/2+y,-z
-x,y,z
x,1/2-y,z
1/2+x,1/2+y,1/2+z
1/2-x,-y,1/2+z
1/2+x,1/2-y,1/2-z
1/2-x,y,1/2-z
1/2-x,1/2-y,1/2-z
1/2+x,y,1/2-z
1/2-x,1/2+y,1/2+z
1/2+x,-y,1/2+z
loop_
_atom_site_type_symbol
_atom_site_label
_atom_site_fract_x
_atom_site_fract_y
_atom_site_fract_z
Si Si1 0.740844 0.250000 0.819950
Si Si2 0.249853 0.966250 0.452779
Si Si3 0.000000 0.750000 0.360719
Si Si4 0.000000 0.878945 0.442948
Si Si5 0.368269 0.376883 0.292474
Si Si6 0.750000 0.939769 0.250000
Si Si7 0.130802 0.114987 0.114077
Si Si8 0.635099 0.250000 0.589939
O O1 0.612512 0.250000 0.834567
O O2 0.755989 0.141647 0.790128
O O3 0.818458 0.250000 0.861694
O O4 0.116371 0.939974 0.453472
O O5 0.313391 0.857099 0.434370
O O6 0.284867 0.000000 0.500000
O O7 0.288227 0.063494 0.420837
O O8 0.000000 0.855547 0.392594
O O9 0.000000 0.750000 0.461008
O O10 0.500000 0.367257 0.298659
O O11 0.326651 0.250000 0.284514
O O12 0.348094 0.468910 0.256538
O O13 0.326760 0.416141 0.338762
O O14 0.129870 0.250000 0.112183
O O15 0.000000 0.076935 0.108203
O O16 0.500000 0.250000 0.589672
#
# Coordination Sequence:
#
# PCOD9538736 Si02
#       8
#     8  16   4   8  16   8  16   8
#     4  11  24  41  60  94 122 164 206 252 321 374
#     4  12  24  40  64  95 121 161 208 257 307 368
#     4  10  20  44  68  74 128 172 210 240 318 374
#     4  10  21  43  67  83 122 169 205 251 305 364
#     4   9  19  37  58  83 118 161 203 243 304 366
#     4  11  23  34  60  96 123 151 206 266 306 363
#     4   9  20  39  62  87 124 168 203 252 317 379
#     4  12  25  45  67  91 130 164 200 259 320 379
#
# _framework density 18.724315000000001
#
# number of rings (size 3 to 8) (size 9 to 14) (size 15 to 20)
#    0.286    1.333    2.857    3.429    2.667    3.810 
#    1.714    0.476    0.000    0.000    0.000    0.000 
#    0.000    0.000    0.000    0.000    0.000    0.000 
#
# Total GULP energy -233993.861759 kJ/mol
# GULP energy per Si atom -5571.282423 kJ/mol
# Density = 1.868170 g / cm^3
# Si number density = 18.724315 Si / 1000 Ang^3
#
#
#
# Elastic Constant Matrix: (Units=GPa)
#
#
# Indices 1 2 3 4 5 6 
#
# 1 98.4329 28.1904 43.3218 0.0000 0.0000 0.0000
# 2 28.1904 97.6830 58.6923 0.0000 0.0000 0.0000
# 3 43.3218 58.6923 104.9679 0.0000 0.0000 0.0000
# 4 0.0000 0.0000 0.0000 -45.6851 0.0000 0.0000
# 5 0.0000 0.0000 0.0000 0.0000 17.8294 0.0000
# 6 0.0000 0.0000 0.0000 0.0000 0.0000 26.1845
#
#
#
# Elastic Compliance Matrix: (Units=1/GPa)
#
#
# Indices 1 2 3 4 5 6 
#
# 1 0.012452 -0.000762 -0.004713 0.000000 0.000000 0.000000
# 2 -0.000762 0.015463 -0.008332 0.000000 0.000000 0.000000
# 3 -0.004713 -0.008332 0.016131 0.000000 0.000000 0.000000
# 4 0.000000 0.000000 0.000000 -0.021889 0.000000 0.000000
# 5 0.000000 0.000000 0.000000 0.000000 0.056087 0.000000
# 6 0.000000 0.000000 0.000000 0.000000 0.000000 0.038191
#
#
# Mechanical properties :
#
#
# Convention : Reuss Voigt Hill
#
# Bulk Modulus (GPa) = 60.85577 62.38809 61.62193
# Shear Modulus (GPa) = 33.43936 11.05771 22.24854
#
# Velocity S-wave (km/s) = 4.23055 2.43277 3.45079
# Velocity P-wave (km/s) = 7.51232 6.42517 6.98991
#
# Compressibility (1/GPa) = 0.01643229
#
# Stress axis : x y z
#
# Youngs Moduli (GPa) = 80.31070 64.67010 61.99396
#
# Poissons Ratio (x) = 0.04925 0.29219
# Poissons Ratio (y) = 0.06116 0.51652
# Poissons Ratio (z) = 0.37852 0.53882
#
# Static dielectric constant tensor:
#      x y z
#    x 1.657750 0.000000 0.000000 
#    y 0.000000 1.680680 0.000000 
#    z 0.000000 0.000000 1.683670 
# 
# From -- ./inp_files/71658.got.cif
#   From: 2010.05.17/outbox.cif.g08.bks.cpg/sg74_36_cif.got.tgz:71658.got - 2010.06.03 17:57:02.
