data_PCOD9538611
_publ_section_title
;
Structure prediction by ZEFSAII (Michael W. Deem and Ramdas Pophale) SiO2 
 PCOD9538611
Probable space group: I M M A
;
_chemical_formula_sum "Si O2"
_cell_formula_units_Z 52
_cell_length_a 8.049292
_cell_length_b 10.889343
_cell_length_c 32.417665
_cell_angle_alpha 90.000000
_cell_angle_beta 90.000000
_cell_angle_gamma 90.000000
_cell_volume 2841.457012
_symmetry_space_group_name_H-M "I M M A"
_symmetry_group_IT_number 74
_symmetry_cell_setting 'orthorhombic'
loop_
_space_group_symop_operation_xyz
x,y,z
-x,1/2-y,z
x,-y,-z
-x,1/2+y,-z
-x,-y,-z
x,1/2+y,-z
-x,y,z
x,1/2-y,z
1/2+x,1/2+y,1/2+z
1/2-x,-y,1/2+z
1/2+x,1/2-y,1/2-z
1/2-x,y,1/2-z
1/2-x,1/2-y,1/2-z
1/2+x,y,1/2-z
1/2-x,1/2+y,1/2+z
1/2+x,-y,1/2+z
loop_
_atom_site_type_symbol
_atom_site_label
_atom_site_fract_x
_atom_site_fract_y
_atom_site_fract_z
Si Si1 0.172554 0.250000 0.455920
Si Si2 0.000000 0.494078 0.850662
Si Si3 0.000000 0.250000 0.101294
Si Si4 0.000000 0.109119 0.938810
Si Si5 0.256626 0.000000 0.000000
Si Si6 0.195477 0.103716 0.702354
O O1 0.337672 0.250000 0.428176
O O2 0.169303 0.127976 0.484066
O O3 0.000000 0.250000 0.430695
O O4 0.167332 0.466699 0.824789
O O5 0.000000 0.629582 0.870202
O O6 0.000000 0.404828 0.890201
O O7 0.000000 0.250000 0.951753
O O8 0.153194 0.041961 0.960103
O O9 0.208386 0.250000 0.693233
O O10 0.250000 0.087734 0.750000
O O11 0.000000 0.069314 0.696901
#
# Coordination Sequence:
#
# PCOD9538611 Si02
#       6
#     8   8   4   8   8  16
#     4  12  24  44  68  94 129 180 217 275 320 383
#     4  12  23  40  64  93 126 171 216 263 320 383
#     4  12  26  44  62  90 130 180 218 252 322 390
#     4  11  20  35  66  91 127 165 209 267 320 377
#     4  11  21  40  64  93 127 168 223 259 324 377
#     4  10  20  38  67  96 123 158 203 262 329 384
#
# _framework density 18.300469
#
# number of rings (size 3 to 8) (size 9 to 14) (size 15 to 20)
#    0.000    0.923    6.154    2.769    0.000    1.231 
#    0.000    0.769    0.000    0.000    0.000    0.000 
#    0.000    0.000    0.000    0.000    0.000    0.000 
#
# Total GULP energy -144878.816575 kJ/mol
# GULP energy per Si atom -5572.262176 kJ/mol
# Density = 1.825882 g / cm^3
# Si number density = 18.300469 Si / 1000 Ang^3
#
#
#
# Elastic Constant Matrix: (Units=GPa)
#
#
# Indices 1 2 3 4 5 6 
#
# 1 190.5422 65.2064 74.6958 0.0000 0.0000 0.0000
# 2 65.2064 144.8847 40.8335 0.0000 0.0000 0.0000
# 3 74.6958 40.8335 97.1427 0.0000 0.0000 0.0000
# 4 0.0000 0.0000 0.0000 38.6027 0.0000 0.0000
# 5 0.0000 0.0000 0.0000 0.0000 -29.7727 0.0000
# 6 0.0000 0.0000 0.0000 0.0000 0.0000 113.7360
#
#
#
# Elastic Compliance Matrix: (Units=1/GPa)
#
#
# Indices 1 2 3 4 5 6 
#
# 1 0.008054 -0.002132 -0.005297 0.000000 0.000000 0.000000
# 2 -0.002132 0.008394 -0.001889 0.000000 0.000000 0.000000
# 3 -0.005297 -0.001889 0.015161 0.000000 0.000000 0.000000
# 4 0.000000 0.000000 0.000000 0.025905 0.000000 0.000000
# 5 0.000000 0.000000 0.000000 0.000000 -0.033588 0.000000
# 6 0.000000 0.000000 0.000000 0.000000 0.000000 0.008792
#
#
# Mechanical properties :
#
#
# Convention : Reuss Voigt Hill
#
# Bulk Modulus (GPa) = 77.08068 88.22675 82.65371
# Shear Modulus (GPa) = 89.80002 41.30214 65.55108
#
# Velocity S-wave (km/s) = 7.01258 4.75583 5.99142
# Velocity P-wave (km/s) = 10.38168 8.85844 9.65016
#
# Compressibility (1/GPa) = 0.01297342
#
# Stress axis : x y z
#
# Youngs Moduli (GPa) = 124.15726 119.13337 65.95798
#
# Poissons Ratio (x) = 0.25399 0.34938
# Poissons Ratio (y) = 0.26471 0.12459
# Poissons Ratio (z) = 0.65766 0.22504
#
# Static dielectric constant tensor:
#      x y z
#    x 1.674120 0.000000 0.000000 
#    y 0.000000 1.630760 0.000000 
#    z 0.000000 0.000000 1.587660 
# 
# From -- ./inp_files/63211.got.cif
#   From: 2010.05.17/outbox.cif.g08.bks.cpg/sg74_32_cif.got.tgz:63211.got - 2010.06.03 17:57:02.
