data_PCOD9538592
_publ_section_title
;
Structure prediction by ZEFSAII (Michael W. Deem and Ramdas Pophale) SiO2 
 PCOD9538592
Probable space group: I M M A
;
_chemical_formula_sum "Si O2"
_cell_formula_units_Z 116
_cell_length_a 22.371772
_cell_length_b 7.850056
_cell_length_c 28.325901
_cell_angle_alpha 90.000000
_cell_angle_beta 90.000000
_cell_angle_gamma 90.000000
_cell_volume 4974.585188
_symmetry_space_group_name_H-M "I M M A"
_symmetry_group_IT_number 74
_symmetry_cell_setting 'orthorhombic'
loop_
_space_group_symop_operation_xyz
x,y,z
-x,1/2-y,z
x,-y,-z
-x,1/2+y,-z
-x,-y,-z
x,1/2+y,-z
-x,y,z
x,1/2-y,z
1/2+x,1/2+y,1/2+z
1/2-x,-y,1/2+z
1/2+x,1/2-y,1/2-z
1/2-x,y,1/2-z
1/2-x,1/2-y,1/2-z
1/2+x,y,1/2-z
1/2-x,1/2+y,1/2+z
1/2+x,-y,1/2+z
loop_
_atom_site_type_symbol
_atom_site_label
_atom_site_fract_x
_atom_site_fract_y
_atom_site_fract_z
Si Si1 0.150321 0.059305 0.724954
Si Si2 0.619638 0.058234 0.675994
Si Si3 0.249067 0.549987 0.847138
Si Si4 0.226534 0.452449 0.051029
Si Si5 0.090765 0.547549 0.071698
Si Si6 0.429042 0.439298 0.149843
Si Si7 0.500000 0.250000 0.456905
Si Si8 0.429931 0.547955 0.050113
O O1 0.170212 0.250000 0.738038
O O2 0.122972 0.974403 0.772146
O O3 0.203663 0.978048 0.694538
O O4 0.097998 0.066104 0.686869
O O5 0.596298 0.250000 0.682630
O O6 0.588073 0.997076 0.627968
O O7 0.689596 0.054913 0.663160
O O8 0.233414 0.750000 0.846736
O O9 0.264146 0.503800 0.901629
O O10 0.218172 0.250000 0.051235
O O11 0.160335 0.533772 0.056648
O O12 0.252019 0.500000 0.000000
O O13 0.073015 0.750000 0.066423
O O14 0.051805 0.403504 0.046218
O O15 0.500000 0.455587 0.148049
O O16 0.412800 0.250000 0.166015
O O17 0.405047 0.464435 0.097122
O O18 0.500000 0.491675 0.048044
O O19 0.428996 0.750000 0.056017
O O20 0.402564 0.500000 0.000000
#
# Coordination Sequence:
#
# PCOD9538592 Si02
#       8
#    16  16  16  16  16  16   4  16
#     4  11  22  37  57  83 117 151 194 244 296 357
#     4   9  20  38  59  85 114 154 197 242 304 365
#     4  10  21  36  59  90 118 148 189 246 303 359
#     4  10  20  38  64  92 124 163 207 251 311 386
#     4  10  21  40  63  89 128 169 212 265 317 364
#     4  10  21  37  53  75 108 146 187 232 283 344
#     4  12  22  40  62  94 128 168 220 272 302 380
#     4   9  16  28  49  73  95 127 170 215 260 312
#
# _framework density 23.318528000000001
#
# number of rings (size 3 to 8) (size 9 to 14) (size 15 to 20)
#    0.000    2.069    0.690    2.690    0.966    6.897 
#    1.241    1.034    0.000    1.655    0.000    0.000 
#    0.000    0.000    0.000    0.000    0.000    0.000 
#
# Total GULP energy -323020.520930 kJ/mol
# GULP energy per Si atom -5569.319326 kJ/mol
# Density = 2.326545 g / cm^3
# Si number density = 23.318528 Si / 1000 Ang^3
#
#
#
# Elastic Constant Matrix: (Units=GPa)
#
#
# Indices 1 2 3 4 5 6 
#
# 1 45.9561 22.6873 -5.2544 0.0000 0.0000 0.0000
# 2 22.6873 87.9323 31.0496 0.0000 0.0000 0.0000
# 3 -5.2544 31.0496 147.6223 0.0000 0.0000 0.0000
# 4 0.0000 0.0000 0.0000 23.0772 0.0000 0.0000
# 5 0.0000 0.0000 0.0000 0.0000 21.7995 0.0000
# 6 0.0000 0.0000 0.0000 0.0000 0.0000 27.0469
#
#
#
# Elastic Compliance Matrix: (Units=1/GPa)
#
#
# Indices 1 2 3 4 5 6 
#
# 1 0.025763 -0.007530 0.002501 0.000000 0.000000 0.000000
# 2 -0.007530 0.014486 -0.003315 0.000000 0.000000 0.000000
# 3 0.002501 -0.003315 0.007560 0.000000 0.000000 0.000000
# 4 0.000000 0.000000 0.000000 0.043333 0.000000 0.000000
# 5 0.000000 0.000000 0.000000 0.000000 0.045873 0.000000
# 6 0.000000 0.000000 0.000000 0.000000 0.000000 0.036973
#
#
# Mechanical properties :
#
#
# Convention : Reuss Voigt Hill
#
# Bulk Modulus (GPa) = 32.13278 42.05287 37.09283
# Shear Modulus (GPa) = 24.86948 29.91992 27.39470
#
# Velocity S-wave (km/s) = 3.26929 3.58592 3.43126
# Velocity P-wave (km/s) = 5.29725 5.93450 5.62491
#
# Compressibility (1/GPa) = 0.03112087
#
# Stress axis : x y z
#
# Youngs Moduli (GPa) = 38.81492 69.03332 132.27033
#
# Poissons Ratio (x) = 0.51984 -0.33079
# Poissons Ratio (y) = 0.29229 0.43845
# Poissons Ratio (z) = -0.09707 0.22883
#
# Static dielectric constant tensor:
#      x y z
#    x 1.880080 0.000000 0.000000 
#    y 0.000000 1.920780 0.000000 
#    z 0.000000 0.000000 1.988630 
# 
# From -- ./inp_files/68763.got.cif
#   From: 2010.05.17/outbox.cif.g08.bks.cpg/sg74_35_cif.got.tgz:68763.got - 2010.06.03 17:57:02.
