data_PCOD9538226
_publ_section_title
;
Structure prediction by ZEFSAII (Michael W. Deem and Ramdas Pophale) SiO2 
 PCOD9538226
Probable space group: I M M A
;
_chemical_formula_sum "Si O2"
_cell_formula_units_Z 116
_cell_length_a 7.575775
_cell_length_b 27.870152
_cell_length_c 23.546377
_cell_angle_alpha 90.000000
_cell_angle_beta 90.000000
_cell_angle_gamma 90.000000
_cell_volume 4971.534965
_symmetry_space_group_name_H-M "I M M A"
_symmetry_group_IT_number 74
_symmetry_cell_setting 'orthorhombic'
loop_
_space_group_symop_operation_xyz
x,y,z
-x,1/2-y,z
x,-y,-z
-x,1/2+y,-z
-x,-y,-z
x,1/2+y,-z
-x,y,z
x,1/2-y,z
1/2+x,1/2+y,1/2+z
1/2-x,-y,1/2+z
1/2+x,1/2-y,1/2-z
1/2-x,y,1/2-z
1/2-x,1/2-y,1/2-z
1/2+x,y,1/2-z
1/2-x,1/2+y,1/2+z
1/2+x,-y,1/2+z
loop_
_atom_site_type_symbol
_atom_site_label
_atom_site_fract_x
_atom_site_fract_y
_atom_site_fract_z
Si Si1 0.706691 0.462979 0.371790
Si Si2 0.288428 0.196639 0.411046
Si Si3 0.784257 0.171617 0.659390
Si Si4 0.298562 0.551672 0.995394
Si Si5 0.707912 0.938676 0.184760
Si Si6 0.789343 0.372456 0.187509
Si Si7 0.788710 0.152511 0.532629
Si Si8 0.500000 0.250000 0.695714
O O1 0.500000 0.455244 0.382583
O O2 0.802047 0.443167 0.427680
O O3 0.728169 0.518589 0.355968
O O4 0.767647 0.427691 0.321434
O O5 0.500000 0.198019 0.404448
O O6 0.218218 0.250000 0.402253
O O7 0.218871 0.159955 0.363831
O O8 0.256063 0.180362 0.475471
O O9 0.736137 0.116231 0.673529
O O10 0.741388 0.176893 0.591968
O O11 0.657149 0.208081 0.691574
O O12 0.000000 0.178753 0.667850
O O13 0.500000 0.546889 0.017744
O O14 0.218299 0.598110 0.025109
O O15 0.208367 0.500000 0.000000
O O16 0.500000 0.937882 0.176756
O O17 0.750000 0.950902 0.250000
O O18 0.750000 0.354200 0.250000
O O19 0.000000 0.372362 0.182886
O O20 0.000000 0.147928 0.534257
#
# Coordination Sequence:
#
# PCOD9538226 Si02
#       8
#    16  16  16  16  16  16  16   4
#     4  11  22  37  60  94 128 168 215 265 323 394
#     4  10  22  39  60  85 117 161 213 267 325 382
#     4  10  25  46  69 103 139 173 225 280 336 399
#     4  10  20  36  58  86 126 170 211 254 325 389
#     4  11  24  44  70  96 135 173 217 276 328 400
#     4  10  22  39  57  85 122 159 208 267 319 381
#     4  10  21  38  61  91 129 169 210 268 325 392
#     4  12  26  44  78 102 132 184 224 278 338 416
#
# _framework density 23.332833000000001
#
# number of rings (size 3 to 8) (size 9 to 14) (size 15 to 20)
#    0.000    1.655    1.379    2.276    3.862    5.793 
#    0.000    0.345    0.000    0.000    0.000    0.000 
#    0.000    0.000    0.000    0.000    0.000    0.000 
#
# Total GULP energy -323537.809069 kJ/mol
# GULP energy per Si atom -5578.238087 kJ/mol
# Density = 2.327973 g / cm^3
# Si number density = 23.332833 Si / 1000 Ang^3
#
#
#
# Elastic Constant Matrix: (Units=GPa)
#
#
# Indices 1 2 3 4 5 6 
#
# 1 82.9596 33.0417 7.3522 0.0000 0.0000 0.0000
# 2 33.0417 126.1713 21.1585 0.0000 0.0000 0.0000
# 3 7.3522 21.1585 88.4154 0.0000 0.0000 0.0000
# 4 0.0000 0.0000 0.0000 -0.2356 0.0000 0.0000
# 5 0.0000 0.0000 0.0000 0.0000 14.7877 0.0000
# 6 0.0000 0.0000 0.0000 0.0000 0.0000 25.6081
#
#
#
# Elastic Compliance Matrix: (Units=1/GPa)
#
#
# Indices 1 2 3 4 5 6 
#
# 1 0.013465 -0.003478 -0.000287 0.000000 0.000000 0.000000
# 2 -0.003478 0.009155 -0.001902 0.000000 0.000000 0.000000
# 3 -0.000287 -0.001902 0.011789 -0.000002 0.000000 0.000000
# 4 0.000000 0.000000 -0.000002 -4.244406 0.000000 0.000000
# 5 0.000000 0.000000 0.000000 0.000000 0.067624 0.000000
# 6 0.000000 0.000000 0.000000 0.000000 0.000000 0.039050
#
#
# Mechanical properties :
#
#
# Convention : Reuss Voigt Hill
#
# Bulk Modulus (GPa) = 43.33638 46.73900 45.03769
# Shear Modulus (GPa) = -1.22420 23.76496 11.27038
#
# Velocity S-wave (km/s) = -0.72513 3.19489 2.20017
# Velocity P-wave (km/s) = 4.23230 5.80385 5.07922
#
# Compressibility (1/GPa) = 0.02307530
#
# Stress axis : x y z
#
# Youngs Moduli (GPa) = 74.26804 109.22447 84.82305
#
# Poissons Ratio (x) = 0.37988 0.02438
# Poissons Ratio (y) = 0.25830 0.16131
# Poissons Ratio (z) = 0.02134 0.20772
#
# Static dielectric constant tensor:
#      x y z
#    x 1.859510 0.000000 0.000000 
#    y 0.000000 1.904020 0.000000 
#    z 0.000000 0.000000 1.913240 
# 
# From -- ./inp_files/57717.got.cif
#   From: 2010.05.17/outbox.cif.g08.bks.cpg/sg74_29_cif.got.tgz:57717.got - 2010.06.03 17:57:02.
