data_PCOD9538843
_publ_section_title
;
Structure prediction by ZEFSAII (Michael W. Deem and Ramdas Pophale) SiO2 
 PCOD9538843
Probable space group: I M M A
;
_chemical_formula_sum "Si O2"
_cell_formula_units_Z 72
_cell_length_a 11.166513
_cell_length_b 13.648792
_cell_length_c 22.587585
_cell_angle_alpha 90.000000
_cell_angle_beta 90.000000
_cell_angle_gamma 90.000000
_cell_volume 3442.560578
_symmetry_space_group_name_H-M "I M M A"
_symmetry_group_IT_number 74
_symmetry_cell_setting 'orthorhombic'
loop_
_space_group_symop_operation_xyz
x,y,z
-x,1/2-y,z
x,-y,-z
-x,1/2+y,-z
-x,-y,-z
x,1/2+y,-z
-x,y,z
x,1/2-y,z
1/2+x,1/2+y,1/2+z
1/2-x,-y,1/2+z
1/2+x,1/2-y,1/2-z
1/2-x,y,1/2-z
1/2-x,1/2-y,1/2-z
1/2+x,y,1/2-z
1/2-x,1/2+y,1/2+z
1/2+x,-y,1/2+z
loop_
_atom_site_type_symbol
_atom_site_label
_atom_site_fract_x
_atom_site_fract_y
_atom_site_fract_z
Si Si1 0.203896 0.500000 0.000000
Si Si2 0.861353 0.636950 0.417548
Si Si3 0.132969 0.639029 0.682102
Si Si4 0.129581 0.362915 0.102888
Si Si5 0.131802 0.927610 0.281237
O O1 0.284327 0.573885 0.037970
O O2 0.133989 0.435985 0.047921
O O3 0.822900 0.750000 0.416561
O O4 0.856469 0.595191 0.350904
O O5 0.000000 0.633246 0.435970
O O6 0.140011 0.750000 0.707228
O O7 0.249472 0.624850 0.641144
O O8 0.131254 0.545971 0.725158
O O9 0.000000 0.634113 0.651660
O O10 0.133176 0.250000 0.082522
O O11 0.000000 0.376576 0.134353
O O12 0.250000 0.887608 0.250000
O O13 0.000000 0.891035 0.261835
#
# Coordination Sequence:
#
# PCOD9538843 Si02
#       5
#     8  16  16  16  16
#     4  12  20  36  60  86 117 158 197 242 299 362
#     4  10  22  39  60  89 123 157 199 251 302 356
#     4   9  18  35  58  83 113 150 195 243 289 348
#     4  10  21  35  53  82 119 156 192 235 291 353
#     4  10  21  39  60  87 119 156 200 248 299 353
#
# _framework density 20.914666
#
# number of rings (size 3 to 8) (size 9 to 14) (size 15 to 20)
#    0.000    2.000    2.222    1.333    0.000    2.667 
#    0.000    2.222    0.000    2.667    0.000    0.000 
#    0.000    0.000    0.000    0.000    0.000    0.000 
#
# Total GULP energy -200779.215323 kJ/mol
# GULP energy per Si atom -5577.200426 kJ/mol
# Density = 2.086706 g / cm^3
# Si number density = 20.914666 Si / 1000 Ang^3
#
#
#
# Elastic Constant Matrix: (Units=GPa)
#
#
# Indices 1 2 3 4 5 6 
#
# 1 190.8155 34.8706 50.5137 0.0000 0.0000 0.0000
# 2 34.8706 83.6122 10.7968 0.0000 0.0000 0.0000
# 3 50.5137 10.7968 25.8940 0.0000 0.0000 0.0000
# 4 0.0000 0.0000 0.0000 -0.3581 0.0000 0.0000
# 5 0.0000 0.0000 0.0000 0.0000 23.9922 0.0000
# 6 0.0000 0.0000 0.0000 0.0000 0.0000 18.1821
#
#
#
# Elastic Compliance Matrix: (Units=1/GPa)
#
#
# Indices 1 2 3 4 5 6 
#
# 1 0.011128 -0.001942 -0.020898 0.000000 0.000000 0.000000
# 2 -0.001942 0.012980 -0.001623 0.000000 0.000000 0.000000
# 3 -0.020898 -0.001623 0.080064 0.000000 0.000000 0.000000
# 4 0.000000 0.000000 0.000000 -2.792782 0.000000 0.000000
# 5 0.000000 0.000000 0.000000 0.000000 0.041680 0.000000
# 6 0.000000 0.000000 0.000000 0.000000 0.000000 0.054999
#
#
# Mechanical properties :
#
#
# Convention : Reuss Voigt Hill
#
# Bulk Modulus (GPa) = 18.10144 54.74266 36.42205
# Shear Modulus (GPa) = -1.98052 21.97261 9.99605
#
# Velocity S-wave (km/s) = -0.97417 3.24479 2.18857
# Velocity P-wave (km/s) = 2.72183 6.34581 4.88250
#
# Compressibility (1/GPa) = 0.05524424
#
# Stress axis : x y z
#
# Youngs Moduli (GPa) = 89.86375 77.04402 12.49001
#
# Poissons Ratio (x) = 0.14964 0.26102
# Poissons Ratio (y) = 0.17454 0.02027
# Poissons Ratio (z) = 1.87801 0.12504
#
# Static dielectric constant tensor:
#      x y z
#    x 1.799130 0.000000 0.000000 
#    y 0.000000 1.759600 0.000000 
#    z 0.000000 0.000000 1.723550 
# 
# From -- ./inp_files/58396.got.cif
#   From: 2010.05.17/outbox.cif.g08.bks.cpg/sg74_30_cif.got.tgz:58396.got - 2010.06.03 17:57:02.
