data_PCOD9538625
_publ_section_title
;
Structure prediction by ZEFSAII (Michael W. Deem and Ramdas Pophale) SiO2 
 PCOD9538625
Probable space group: I M M A
;
_chemical_formula_sum "Si O2"
_cell_formula_units_Z 64
_cell_length_a 11.377950
_cell_length_b 28.820703
_cell_length_c 7.462629
_cell_angle_alpha 90.000000
_cell_angle_beta 90.000000
_cell_angle_gamma 90.000000
_cell_volume 2447.149165
_symmetry_space_group_name_H-M "I M M A"
_symmetry_group_IT_number 74
_symmetry_cell_setting 'orthorhombic'
loop_
_space_group_symop_operation_xyz
x,y,z
-x,1/2-y,z
x,-y,-z
-x,1/2+y,-z
-x,-y,-z
x,1/2+y,-z
-x,y,z
x,1/2-y,z
1/2+x,1/2+y,1/2+z
1/2-x,-y,1/2+z
1/2+x,1/2-y,1/2-z
1/2-x,y,1/2-z
1/2-x,1/2-y,1/2-z
1/2+x,y,1/2-z
1/2-x,1/2+y,1/2+z
1/2+x,-y,1/2+z
loop_
_atom_site_type_symbol
_atom_site_label
_atom_site_fract_x
_atom_site_fract_y
_atom_site_fract_z
Si Si1 0.500000 0.445831 0.964679
Si Si2 0.000000 0.555307 0.036597
Si Si3 0.500000 0.304347 0.184896
Si Si4 0.253929 0.095880 0.965458
Si Si5 0.000000 0.194874 0.710016
Si Si6 0.691408 0.195602 0.490846
O O1 0.500000 0.436304 0.750969
O O2 0.626435 0.427914 0.034560
O O3 0.500000 0.500000 0.000000
O O4 0.124741 0.577361 0.970295
O O5 0.000000 0.500000 0.000000
O O6 0.500000 0.250000 0.146285
O O7 0.500000 0.325938 0.987372
O O8 0.389651 0.309383 0.316442
O O9 0.250000 0.089015 0.750000
O O10 0.268049 0.149935 0.010322
O O11 0.887960 0.185700 0.833749
O O12 0.000000 0.250000 0.700503
O O13 0.732834 0.250000 0.499636
#
# Coordination Sequence:
#
# PCOD9538625 Si02
#       6
#     8   8   8  16   8  16
#     4  10  22  42  69  96 132 180 221 284 362 429
#     4  10  20  38  71 100 128 170 215 290 365 416
#     4   8  14  27  53  90 133 182 237 290 341 394
#     4  10  21  38  65  97 138 176 227 285 342 420
#     4   8  14  27  53  90 131 180 236 289 342 402
#     4   9  17  31  57  92 137 192 235 276 339 412
#
# _framework density 26.152882999999999
#
# number of rings (size 3 to 8) (size 9 to 14) (size 15 to 20)
#    0.000    2.750    0.000    3.750    0.000    0.500 
#    0.000    0.625   33.000    4.500    0.000    7.000 
#    0.000    8.000    0.000    0.000    0.000    0.000 
#
# Total GULP energy -178931.432669 kJ/mol
# GULP energy per Si atom -5591.607271 kJ/mol
# Density = 2.609336 g / cm^3
# Si number density = 26.152883 Si / 1000 Ang^3
#
#
#
# Elastic Constant Matrix: (Units=GPa)
#
#
# Indices 1 2 3 4 5 6 
#
# 1 262.1522 133.6846 42.2632 -0.0010 0.0005 0.0002
# 2 133.6846 180.2650 13.9882 -0.0006 0.0005 0.0001
# 3 42.2632 13.9882 149.4645 -0.0060 0.0031 0.0003
# 4 -0.0010 -0.0006 -0.0060 26.8458 0.0017 0.0004
# 5 0.0005 0.0005 0.0031 0.0017 25.3855 -0.0002
# 6 0.0002 0.0001 0.0003 0.0004 -0.0002 57.3819
#
#
#
# Elastic Compliance Matrix: (Units=1/GPa)
#
#
# Indices 1 2 3 4 5 6 
#
# 1 0.006404 -0.004642 -0.001376 0.000000 0.000000 0.000000
# 2 -0.004642 0.008953 0.000475 0.000000 0.000000 0.000000
# 3 -0.001376 0.000475 0.007035 0.000002 -0.000001 0.000000
# 4 0.000000 0.000000 0.000002 0.037250 -0.000002 0.000000
# 5 0.000000 0.000000 -0.000001 -0.000002 0.039393 0.000000
# 6 0.000000 0.000000 0.000000 0.000000 0.000000 0.017427
#
#
# Mechanical properties :
#
#
# Convention : Reuss Voigt Hill
#
# Bulk Modulus (GPa) = 88.45883 107.97265 98.21574
# Shear Modulus (GPa) = 38.07564 48.71902 43.39733
#
# Velocity S-wave (km/s) = 3.81975 4.32076 4.07796
# Velocity P-wave (km/s) = 7.30419 8.14044 7.73363
#
# Compressibility (1/GPa) = 0.01130469
#
# Stress axis : x y z
#
# Youngs Moduli (GPa) = 156.15790 111.69138 142.14063
#
# Poissons Ratio (x) = 0.51850 0.19563
# Poissons Ratio (y) = 0.72492 -0.06748
# Poissons Ratio (z) = 0.21492 -0.05302
#
# Static dielectric constant tensor:
#      x y z
#    x 2.211490 0.000000 0.000000 
#    y 0.000000 1.978290 0.000000 
#    z 0.000000 0.000000 2.138470 
# 
# From -- ./inp_files/18769.got.cif
#   From: 2010.05.17/outbox.cif.g08.bks.cpg/sg74_10_cif.got.tgz:18769.got - 2010.06.03 17:57:02.
