data_PCOD9538375
_publ_section_title
;
Structure prediction by ZEFSAII (Michael W. Deem and Ramdas Pophale) SiO2 
 PCOD9538375
Probable space group: I M M A
;
_chemical_formula_sum "Si O2"
_cell_formula_units_Z 72
_cell_length_a 7.751061
_cell_length_b 13.979788
_cell_length_c 29.907156
_cell_angle_alpha 90.000000
_cell_angle_beta 90.000000
_cell_angle_gamma 90.000000
_cell_volume 3240.685279
_symmetry_space_group_name_H-M "I M M A"
_symmetry_group_IT_number 74
_symmetry_cell_setting 'orthorhombic'
loop_
_space_group_symop_operation_xyz
x,y,z
-x,1/2-y,z
x,-y,-z
-x,1/2+y,-z
-x,-y,-z
x,1/2+y,-z
-x,y,z
x,1/2-y,z
1/2+x,1/2+y,1/2+z
1/2-x,-y,1/2+z
1/2+x,1/2-y,1/2-z
1/2-x,y,1/2-z
1/2-x,1/2-y,1/2-z
1/2+x,y,1/2-z
1/2-x,1/2+y,1/2+z
1/2+x,-y,1/2+z
loop_
_atom_site_type_symbol
_atom_site_label
_atom_site_fract_x
_atom_site_fract_y
_atom_site_fract_z
Si Si1 0.307578 0.582976 0.131055
Si Si2 0.792434 0.750000 0.577141
Si Si3 0.711403 0.462534 0.049043
Si Si4 0.706464 0.750000 0.816866
Si Si5 0.291725 0.250000 0.803263
Si Si6 0.194513 0.456863 0.202344
O O1 0.500000 0.618185 0.119266
O O2 0.226203 0.540028 0.086054
O O3 0.231817 0.660403 0.165929
O O4 0.315718 0.490722 0.162803
O O5 0.730456 0.647179 0.557936
O O6 0.759067 0.750000 0.630032
O O7 0.000000 0.750000 0.570532
O O8 0.500000 0.461665 0.052768
O O9 0.756388 0.500000 0.000000
O O10 0.500000 0.750000 0.809927
O O11 0.789994 0.843727 0.796557
O O12 0.500000 0.250000 0.803365
O O13 0.250000 0.250000 0.750000
O O14 0.250000 0.497963 0.250000
O O15 0.000000 0.484867 0.192067
#
# Coordination Sequence:
#
# PCOD9538375 Si02
#       6
#    16   8  16   8   8  16
#     4  10  20  37  57  82 115 153 194 243 299 351
#     4   9  16  29  52  81 113 151 184 227 286 338
#     4   9  17  30  53  84 116 149 191 240 292 347
#     4  11  20  36  58  81 114 152 186 229 280 337
#     4  10  22  37  57  82 112 151 197 248 300 355
#     4  12  24  37  55  83 115 152 193 235 283 347
#
# _framework density 22.217523
#
# number of rings (size 3 to 8) (size 9 to 14) (size 15 to 20)
#    0.000    1.778    2.222    3.333    0.000    3.556 
#    0.000    4.444    0.000    0.667    0.000    0.000 
#    0.000    0.000    0.000    0.000    0.000    0.000 
#
# Total GULP energy -200773.298491 kJ/mol
# GULP energy per Si atom -5577.036069 kJ/mol
# Density = 2.216695 g / cm^3
# Si number density = 22.217523 Si / 1000 Ang^3
#
#
#
# Elastic Constant Matrix: (Units=GPa)
#
#
# Indices 1 2 3 4 5 6 
#
# 1 68.4411 6.0101 16.1311 0.0000 0.0000 0.0000
# 2 6.0101 133.4618 75.5715 0.0000 0.0000 0.0000
# 3 16.1311 75.5715 194.1912 0.0000 0.0000 0.0000
# 4 0.0000 0.0000 0.0000 26.6693 0.0000 0.0000
# 5 0.0000 0.0000 0.0000 0.0000 10.7703 0.0000
# 6 0.0000 0.0000 0.0000 0.0000 0.0000 12.3325
#
#
#
# Elastic Compliance Matrix: (Units=1/GPa)
#
#
# Indices 1 2 3 4 5 6 
#
# 1 0.014903 0.000038 -0.001253 0.000000 0.000000 0.000000
# 2 0.000038 0.009611 -0.003743 0.000000 0.000000 0.000000
# 3 -0.001253 -0.003743 0.006710 0.000000 0.000000 0.000000
# 4 0.000000 0.000000 0.000000 0.037496 0.000000 0.000000
# 5 0.000000 0.000000 0.000000 0.000000 0.092848 0.000000
# 6 0.000000 0.000000 0.000000 0.000000 0.000000 0.081086
#
#
# Mechanical properties :
#
#
# Convention : Reuss Voigt Hill
#
# Bulk Modulus (GPa) = 46.92989 65.72440 56.32715
# Shear Modulus (GPa) = 19.25498 29.84652 24.55075
#
# Velocity S-wave (km/s) = 2.94710 3.66919 3.32779
# Velocity P-wave (km/s) = 5.72270 6.89906 6.33823
#
# Compressibility (1/GPa) = 0.02130838
#
# Stress axis : x y z
#
# Youngs Moduli (GPa) = 67.10046 104.05130 149.02320
#
# Poissons Ratio (x) = -0.00399 0.18671
# Poissons Ratio (y) = -0.00257 0.55783
# Poissons Ratio (z) = 0.08407 0.38949
#
# Static dielectric constant tensor:
#      x y z
#    x 1.884140 0.000000 0.000000 
#    y 0.000000 1.885410 0.000000 
#    z 0.000000 0.000000 1.789280 
# 
# From -- ./inp_files/63697.got.cif
#   From: 2010.05.17/outbox.cif.g08.bks.cpg/sg74_32_cif.got.tgz:63697.got - 2010.06.03 17:57:02.
