data_PCOD9538245
_publ_section_title
;
Structure prediction by ZEFSAII (Michael W. Deem and Ramdas Pophale) SiO2 
 PCOD9538245
Probable space group: I M M A
;
_chemical_formula_sum "Si O2"
_cell_formula_units_Z 88
_cell_length_a 9.098278
_cell_length_b 18.981126
_cell_length_c 27.969907
_cell_angle_alpha 90.000000
_cell_angle_beta 90.000000
_cell_angle_gamma 90.000000
_cell_volume 4830.278783
_symmetry_space_group_name_H-M "I M M A"
_symmetry_group_IT_number 74
_symmetry_cell_setting 'orthorhombic'
loop_
_space_group_symop_operation_xyz
x,y,z
-x,1/2-y,z
x,-y,-z
-x,1/2+y,-z
-x,-y,-z
x,1/2+y,-z
-x,y,z
x,1/2-y,z
1/2+x,1/2+y,1/2+z
1/2-x,-y,1/2+z
1/2+x,1/2-y,1/2-z
1/2-x,y,1/2-z
1/2-x,1/2-y,1/2-z
1/2+x,y,1/2-z
1/2-x,1/2+y,1/2+z
1/2+x,-y,1/2+z
loop_
_atom_site_type_symbol
_atom_site_label
_atom_site_fract_x
_atom_site_fract_y
_atom_site_fract_z
Si Si1 0.170393 0.750000 0.300246
Si Si2 0.176142 0.168662 0.024360
Si Si3 0.335252 0.119049 0.664441
Si Si4 0.675576 0.076997 0.100136
Si Si5 0.324409 0.037278 0.300063
Si Si6 0.831288 0.942133 0.058864
O O1 0.250000 0.750000 0.250000
O O2 0.221135 0.820093 0.326677
O O3 0.000000 0.750000 0.293024
O O4 0.208906 0.250000 0.011660
O O5 0.262290 0.143753 0.071326
O O6 0.000000 0.163722 0.032349
O O7 0.211504 0.112834 0.982253
O O8 0.500000 0.143515 0.677399
O O9 0.334014 0.098673 0.608996
O O10 0.304891 0.047175 0.693080
O O11 0.500000 0.077452 0.104105
O O12 0.749410 0.070025 0.152583
O O13 0.729397 0.009383 0.068750
O O14 0.500000 0.050821 0.300212
O O15 0.250000 0.058704 0.250000
O O16 0.000000 0.966692 0.050245
#
# Coordination Sequence:
#
# PCOD9538245 Si02
#       6
#     8  16  16  16  16  16
#     4  12  24  34  46  66  98 142 184 226 275 326
#     4  10  21  37  59  84 111 147 190 234 281 334
#     4   9  19  34  53  75 103 137 178 227 272 322
#     4  11  22  36  56  83 117 152 185 226 276 332
#     4  10  20  36  59  84 108 138 180 229 277 329
#     4   9  19  36  59  82 107 144 189 233 277 328
#
# _framework density 18.218409000000001
#
# number of rings (size 3 to 8) (size 9 to 14) (size 15 to 20)
#    0.000    2.000    0.000    5.182    1.273    8.364 
#    0.000    0.000    0.000    0.545    0.000    0.000 
#    0.000    0.000    0.000    0.000    0.000    0.000 
#
# Total GULP energy -245609.283049 kJ/mol
# GULP energy per Si atom -5582.029160 kJ/mol
# Density = 1.817694 g / cm^3
# Si number density = 18.218409 Si / 1000 Ang^3
#
#
#
# Elastic Constant Matrix: (Units=GPa)
#
#
# Indices 1 2 3 4 5 6 
#
# 1 74.0145 27.0904 43.8717 0.0000 0.0000 0.0000
# 2 27.0904 40.3540 38.9260 0.0000 0.0000 0.0000
# 3 43.8717 38.9260 118.2004 0.0000 0.0000 0.0000
# 4 0.0000 0.0000 0.0000 6.3213 0.0000 0.0000
# 5 0.0000 0.0000 0.0000 0.0000 27.7367 0.0000
# 6 0.0000 0.0000 0.0000 0.0000 0.0000 14.3995
#
#
#
# Elastic Compliance Matrix: (Units=1/GPa)
#
#
# Indices 1 2 3 4 5 6 
#
# 1 0.019258 -0.008842 -0.004236 0.000000 0.000000 0.000000
# 2 -0.008842 0.040378 -0.010015 0.000000 0.000000 0.000000
# 3 -0.004236 -0.010015 0.013331 0.000000 0.000000 0.000000
# 4 0.000000 0.000000 0.000000 0.158195 0.000000 0.000000
# 5 0.000000 0.000000 0.000000 0.000000 0.036053 0.000000
# 6 0.000000 0.000000 0.000000 0.000000 0.000000 0.069447
#
#
# Mechanical properties :
#
#
# Convention : Reuss Voigt Hill
#
# Bulk Modulus (GPa) = 37.34221 50.26056 43.80139
# Shear Modulus (GPa) = 12.76241 17.87023 15.31632
#
# Velocity S-wave (km/s) = 2.64961 3.13531 2.90264
# Velocity P-wave (km/s) = 5.46828 6.38393 5.94376
#
# Compressibility (1/GPa) = 0.02677935
#
# Stress axis : x y z
#
# Youngs Moduli (GPa) = 51.92625 24.76622 75.01485
#
# Poissons Ratio (x) = 0.21899 0.31776
# Poissons Ratio (y) = 0.45914 0.75130
# Poissons Ratio (z) = 0.21996 0.24804
#
# Static dielectric constant tensor:
#      x y z
#    x 1.629280 0.000000 0.000000 
#    y 0.000000 1.603550 0.000000 
#    z 0.000000 0.000000 1.634520 
# 
# From -- ./inp_files/70210.got.cif
#   From: 2010.05.17/outbox.cif.g08.bks.cpg/sg74_36_cif.got.tgz:70210.got - 2010.06.03 17:57:02.
