data_PCOD9538536
_publ_section_title
;
Structure prediction by ZEFSAII (Michael W. Deem and Ramdas Pophale) SiO2 
 PCOD9538536
Probable space group: I M M A
;
_chemical_formula_sum "Si O2"
_cell_formula_units_Z 52
_cell_length_a 7.349107
_cell_length_b 13.321950
_cell_length_c 28.785166
_cell_angle_alpha 90.000000
_cell_angle_beta 90.000000
_cell_angle_gamma 90.000000
_cell_volume 2818.195442
_symmetry_space_group_name_H-M "I M M A"
_symmetry_group_IT_number 74
_symmetry_cell_setting 'orthorhombic'
loop_
_space_group_symop_operation_xyz
x,y,z
-x,1/2-y,z
x,-y,-z
-x,1/2+y,-z
-x,-y,-z
x,1/2+y,-z
-x,y,z
x,1/2-y,z
1/2+x,1/2+y,1/2+z
1/2-x,-y,1/2+z
1/2+x,1/2-y,1/2-z
1/2-x,y,1/2-z
1/2-x,1/2-y,1/2-z
1/2+x,y,1/2-z
1/2-x,1/2+y,1/2+z
1/2+x,-y,1/2+z
loop_
_atom_site_type_symbol
_atom_site_label
_atom_site_fract_x
_atom_site_fract_y
_atom_site_fract_z
Si Si1 0.781569 0.472338 0.121478
Si Si2 0.783504 0.137572 0.804704
Si Si3 0.717926 0.250000 0.408261
Si Si4 0.500000 0.750000 0.993212
Si Si5 0.500000 0.948016 0.048990
O O1 0.722379 0.541852 0.165096
O O2 0.738501 0.352938 0.119738
O O3 0.675144 0.520064 0.078409
O O4 0.000000 0.480021 0.116949
O O5 0.712415 0.250000 0.817509
O O6 0.750000 0.123393 0.750000
O O7 0.000000 0.141994 0.811245
O O8 0.500000 0.250000 0.417213
O O9 0.830356 0.250000 0.456692
O O10 0.500000 0.837514 0.030455
O O11 0.500000 0.000000 0.000000
#
# Coordination Sequence:
#
# PCOD9538536 Si02
#       5
#    16  16   8   4   8
#     4  10  22  39  59  85 116 153 195 237 289 344
#     4   9  19  36  57  83 113 147 187 237 292 346
#     4  10  20  38  61  79 114 158 189 238 291 336
#     4  12  24  40  52  90 118 150 206 238 288 344
#     4  12  24  38  60  86 120 156 197 242 286 346
#
# _framework density 18.451523000000002
#
# number of rings (size 3 to 8) (size 9 to 14) (size 15 to 20)
#    0.000    1.846    3.077    0.000    4.308    1.846 
#    0.000    0.769    0.000    0.000    0.000    0.000 
#    0.000    0.000    0.000    0.000    0.000    0.000 
#
# Total GULP energy -144757.425006 kJ/mol
# GULP energy per Si atom -5567.593269 kJ/mol
# Density = 1.840953 g / cm^3
# Si number density = 18.451523 Si / 1000 Ang^3
#
#
#
# Elastic Constant Matrix: (Units=GPa)
#
#
# Indices 1 2 3 4 5 6 
#
# 1 70.2356 39.0086 22.2869 0.0000 0.0000 0.0000
# 2 39.0086 234.9919 100.2390 0.0000 0.0000 0.0000
# 3 22.2869 100.2390 110.7684 0.0000 0.0000 0.0000
# 4 0.0000 0.0000 0.0000 14.7066 0.0000 0.0000
# 5 0.0000 0.0000 0.0000 0.0000 29.0862 0.0000
# 6 0.0000 0.0000 0.0000 0.0000 0.0000 17.3486
#
#
#
# Elastic Compliance Matrix: (Units=1/GPa)
#
#
# Indices 1 2 3 4 5 6 
#
# 1 0.015800 -0.002063 -0.001312 0.000000 0.000000 0.000000
# 2 -0.002063 0.007200 -0.006101 0.000000 0.000000 0.000000
# 3 -0.001312 -0.006101 0.014813 0.000000 0.000000 0.000000
# 4 0.000000 0.000000 0.000000 0.067996 0.000000 0.000000
# 5 0.000000 0.000000 0.000000 0.000000 0.034381 0.000000
# 6 0.000000 0.000000 0.000000 0.000000 0.000000 0.057642
#
#
# Mechanical properties :
#
#
# Convention : Reuss Voigt Hill
#
# Bulk Modulus (GPa) = 53.01896 82.11834 67.56865
# Shear Modulus (GPa) = 22.41445 29.19237 25.80341
#
# Velocity S-wave (km/s) = 3.48914 3.98189 3.74363
# Velocity P-wave (km/s) = 6.71034 8.10815 7.44214
#
# Compressibility (1/GPa) = 0.01886118
#
# Stress axis : x y z
#
# Youngs Moduli (GPa) = 63.29127 138.88295 67.50985
#
# Poissons Ratio (x) = 0.28654 0.08857
# Poissons Ratio (y) = 0.13058 0.41186
# Poissons Ratio (z) = 0.08304 0.84729
#
# Static dielectric constant tensor:
#      x y z
#    x 1.650950 0.000000 0.000000 
#    y 0.000000 1.645340 0.000000 
#    z 0.000000 0.000000 1.586290 
# 
# From -- ./inp_files/63180.got.cif
#   From: 2010.05.17/outbox.cif.g08.bks.cpg/sg74_32_cif.got.tgz:63180.got - 2010.06.03 17:57:02.
