data_PCOD9538327
_publ_section_title
;
Structure prediction by ZEFSAII (Michael W. Deem and Ramdas Pophale) SiO2 
 PCOD9538327
Probable space group: I M M A
;
_chemical_formula_sum "Si O2"
_cell_formula_units_Z 80
_cell_length_a 24.662376
_cell_length_b 17.171410
_cell_length_c 9.309260
_cell_angle_alpha 90.000000
_cell_angle_beta 90.000000
_cell_angle_gamma 90.000000
_cell_volume 3942.357757
_symmetry_space_group_name_H-M "I M M A"
_symmetry_group_IT_number 74
_symmetry_cell_setting 'orthorhombic'
loop_
_space_group_symop_operation_xyz
x,y,z
-x,1/2-y,z
x,-y,-z
-x,1/2+y,-z
-x,-y,-z
x,1/2+y,-z
-x,y,z
x,1/2-y,z
1/2+x,1/2+y,1/2+z
1/2-x,-y,1/2+z
1/2+x,1/2-y,1/2-z
1/2-x,y,1/2-z
1/2-x,1/2-y,1/2-z
1/2+x,y,1/2-z
1/2-x,1/2+y,1/2+z
1/2+x,-y,1/2+z
loop_
_atom_site_type_symbol
_atom_site_label
_atom_site_fract_x
_atom_site_fract_y
_atom_site_fract_z
Si Si1 0.170649 0.099128 0.201464
Si Si2 0.234444 0.159198 0.477530
Si Si3 0.937545 0.659707 0.254331
Si Si4 0.938736 0.088948 0.056147
Si Si5 0.159167 0.446685 0.641531
O O1 0.194997 0.144657 0.338755
O O2 0.208075 0.123647 0.068860
O O3 0.107849 0.112125 0.166862
O O4 0.175405 0.007637 0.235923
O O5 0.239503 0.250000 0.505141
O O6 0.206751 0.112967 0.605588
O O7 0.924853 0.750000 0.284642
O O8 0.894718 0.601409 0.324144
O O9 0.000000 0.644277 0.298345
O O10 0.935246 0.643349 0.083701
O O11 0.000000 0.092319 0.114678
O O12 0.929985 0.000000 0.000000
O O13 0.150781 0.500000 0.500000
#
# Coordination Sequence:
#
# PCOD9538327 Si02
#       5
#    16  16  16  16  16
#     4  10  20  36  61  87 115 151 198 242 288 343
#     4  10  22  40  61  85 120 158 194 239 297 349
#     4  10  21  38  60  88 122 154 189 240 296 344
#     4  10  20  36  61  88 115 151 192 240 295 348
#     4  10  21  38  58  89 115 157 199 240 280 349
#
# _framework density 20.292425999999999
#
# number of rings (size 3 to 8) (size 9 to 14) (size 15 to 20)
#    0.000    2.000    2.000    1.800    0.000    6.000 
#    0.000    3.000    0.000    3.600    0.000    0.000 
#    0.000    0.000    0.000    0.000    0.000    0.000 
#
# Total GULP energy -223508.175017 kJ/mol
# GULP energy per Si atom -5587.704375 kJ/mol
# Density = 2.024624 g / cm^3
# Si number density = 20.292426 Si / 1000 Ang^3
#
#
#
# Elastic Constant Matrix: (Units=GPa)
#
#
# Indices 1 2 3 4 5 6 
#
# 1 115.3295 58.1043 29.9605 0.0000 0.0000 0.0000
# 2 58.1043 156.2379 27.4732 0.0000 0.0000 0.0000
# 3 29.9605 27.4732 20.2301 0.0000 0.0000 0.0000
# 4 0.0000 0.0000 0.0000 13.6835 0.0000 0.0000
# 5 0.0000 0.0000 0.0000 0.0000 32.4121 0.0000
# 6 0.0000 0.0000 0.0000 0.0000 0.0000 33.7615
#
#
#
# Elastic Compliance Matrix: (Units=1/GPa)
#
#
# Indices 1 2 3 4 5 6 
#
# 1 0.014618 -0.002141 -0.018742 0.000000 0.000000 0.000000
# 2 -0.002141 0.008722 -0.008674 0.000000 0.000000 0.000000
# 3 -0.018742 -0.008674 0.088967 0.000000 0.000000 0.000000
# 4 0.000000 0.000000 0.000000 0.073080 0.000000 0.000000
# 5 0.000000 0.000000 0.000000 0.000000 0.030853 0.000000
# 6 0.000000 0.000000 0.000000 0.000000 0.000000 0.029620
#
#
# Mechanical properties :
#
#
# Convention : Reuss Voigt Hill
#
# Bulk Modulus (GPa) = 18.79921 58.09704 38.44813
# Shear Modulus (GPa) = 15.49401 27.72207 21.60804
#
# Velocity S-wave (km/s) = 2.76621 3.70013 3.26672
# Velocity P-wave (km/s) = 4.41439 6.85176 5.76340
#
# Compressibility (1/GPa) = 0.05319372
#
# Stress axis : x y z
#
# Youngs Moduli (GPa) = 68.40797 114.65329 11.24006
#
# Poissons Ratio (x) = 0.24545 0.21066
# Poissons Ratio (y) = 0.14645 0.09750
# Poissons Ratio (z) = 1.28210 0.99452
#
# Static dielectric constant tensor:
#      x y z
#    x 1.716920 0.000000 0.000000 
#    y 0.000000 1.707800 0.000000 
#    z 0.000000 0.000000 1.737740 
# 
# From -- ./inp_files/24883.got.cif
#   From: 2010.05.17/outbox.cif.g08.bks.cpg/sg74_13_cif.got.tgz:24883.got - 2010.06.03 17:57:02.
