data_PCOD9538296
_publ_section_title
;
Structure prediction by ZEFSAII (Michael W. Deem and Ramdas Pophale) SiO2 
 PCOD9538296
Probable space group: I M M A
;
_chemical_formula_sum "Si O2"
_cell_formula_units_Z 96
_cell_length_a 19.973347
_cell_length_b 16.751040
_cell_length_c 14.674121
_cell_angle_alpha 90.000000
_cell_angle_beta 90.000000
_cell_angle_gamma 90.000000
_cell_volume 4909.584268
_symmetry_space_group_name_H-M "I M M A"
_symmetry_group_IT_number 74
_symmetry_cell_setting 'orthorhombic'
loop_
_space_group_symop_operation_xyz
x,y,z
-x,1/2-y,z
x,-y,-z
-x,1/2+y,-z
-x,-y,-z
x,1/2+y,-z
-x,y,z
x,1/2-y,z
1/2+x,1/2+y,1/2+z
1/2-x,-y,1/2+z
1/2+x,1/2-y,1/2-z
1/2-x,y,1/2-z
1/2-x,1/2-y,1/2-z
1/2+x,y,1/2-z
1/2-x,1/2+y,1/2+z
1/2+x,-y,1/2+z
loop_
_atom_site_type_symbol
_atom_site_label
_atom_site_fract_x
_atom_site_fract_y
_atom_site_fract_z
Si Si1 0.893108 0.161206 0.092803
Si Si2 0.423754 0.049547 0.906800
Si Si3 0.197215 0.346102 0.539970
Si Si4 0.239013 0.659611 0.652648
Si Si5 0.575148 0.010664 0.290351
Si Si6 0.836870 0.075335 0.933619
O O1 0.920915 0.250000 0.098971
O O2 0.813808 0.165862 0.113858
O O3 0.921168 0.098573 0.165276
O O4 0.891797 0.126105 0.990694
O O5 0.500000 0.082128 0.901611
O O6 0.366239 0.115971 0.910766
O O7 0.414189 0.994561 0.817536
O O8 0.419266 0.000000 0.000000
O O9 0.196819 0.250000 0.540961
O O10 0.197322 0.372715 0.432480
O O11 0.267706 0.377762 0.579659
O O12 0.212784 0.750000 0.671622
O O13 0.250000 0.617565 0.750000
O O14 0.500000 0.980081 0.309007
O O15 0.630066 0.958598 0.342913
O O16 0.822010 0.000000 0.000000
#
# Coordination Sequence:
#
# PCOD9538296 Si02
#       6
#    16  16  16  16  16  16
#     4   9  18  33  56  88 118 144 184 241 294 351
#     4  10  23  42  59  80 115 159 205 246 288 345
#     4  10  20  36  60  87 115 148 193 251 301 342
#     4   8  15  28  49  81 115 141 170 222 293 351
#     4  10  22  39  57  80 116 162 200 238 294 355
#     4   9  18  35  58  87 121 152 184 227 291 369
#
# _framework density 19.55359
#
# number of rings (size 3 to 8) (size 9 to 14) (size 15 to 20)
#    0.000    2.667    0.000    2.000    2.333    4.333 
#    0.000    2.500    0.000    6.500    0.000    0.000 
#    0.000    0.000    0.000    0.000    0.000    0.000 
#
# Total GULP energy -267478.483870 kJ/mol
# GULP energy per Si atom -5572.468414 kJ/mol
# Density = 1.950908 g / cm^3
# Si number density = 19.553590 Si / 1000 Ang^3
#
#
#
# Elastic Constant Matrix: (Units=GPa)
#
#
# Indices 1 2 3 4 5 6 
#
# 1 97.0093 52.4940 43.7567 0.0000 0.0000 0.0000
# 2 52.4940 86.8153 49.1105 0.0000 0.0000 0.0000
# 3 43.7567 49.1105 108.5636 0.0000 0.0000 0.0000
# 4 0.0000 0.0000 0.0000 15.6075 0.0000 0.0000
# 5 0.0000 0.0000 0.0000 0.0000 22.7750 0.0000
# 6 0.0000 0.0000 0.0000 0.0000 0.0000 0.4498
#
#
#
# Elastic Compliance Matrix: (Units=1/GPa)
#
#
# Indices 1 2 3 4 5 6 
#
# 1 0.015918 -0.008058 -0.002771 0.000000 0.000000 0.000000
# 2 -0.008058 0.019559 -0.005600 0.000000 0.000000 0.000000
# 3 -0.002771 -0.005600 0.012861 0.000000 0.000000 0.000000
# 4 0.000000 0.000000 0.000000 0.064072 0.000000 0.000000
# 5 0.000000 0.000000 0.000000 0.000000 0.043908 0.000000
# 6 0.000000 0.000000 0.000000 0.000000 0.000000 2.223103
#
#
# Mechanical properties :
#
#
# Convention : Reuss Voigt Hill
#
# Bulk Modulus (GPa) = 64.59500 64.79006 64.69253
# Shear Modulus (GPa) = 2.06830 17.56826 9.81828
#
# Velocity S-wave (km/s) = 1.02959 3.00070 2.24324
# Velocity P-wave (km/s) = 5.87537 6.72400 6.31396
#
# Compressibility (1/GPa) = 0.01548107
#
# Stress axis : x y z
#
# Youngs Moduli (GPa) = 62.82058 51.12771 77.75292
#
# Poissons Ratio (x) = 0.41198 0.21544
# Poissons Ratio (y) = 0.50620 0.43542
# Poissons Ratio (z) = 0.17407 0.28632
#
# Static dielectric constant tensor:
#      x y z
#    x 1.697790 0.000000 0.000000 
#    y 0.000000 1.722980 0.000000 
#    z 0.000000 0.000000 1.722860 
# 
# From -- ./inp_files/35278.got.cif
#   From: 2010.05.17/outbox.cif.g08.bks.cpg/sg74_18_cif.got.tgz:35278.got - 2010.06.03 17:57:02.
