data_PCOD9538060
_publ_section_title
;
Structure prediction by ZEFSAII (Michael W. Deem and Ramdas Pophale) SiO2 
 PCOD9538060
Probable space group: I M M A
;
_chemical_formula_sum "Si O2"
_cell_formula_units_Z 96
_cell_length_a 23.014013
_cell_length_b 17.911152
_cell_length_c 11.667799
_cell_angle_alpha 90.000000
_cell_angle_beta 90.000000
_cell_angle_gamma 90.000000
_cell_volume 4809.554081
_symmetry_space_group_name_H-M "I M M A"
_symmetry_group_IT_number 74
_symmetry_cell_setting 'orthorhombic'
loop_
_space_group_symop_operation_xyz
x,y,z
-x,1/2-y,z
x,-y,-z
-x,1/2+y,-z
-x,-y,-z
x,1/2+y,-z
-x,y,z
x,1/2-y,z
1/2+x,1/2+y,1/2+z
1/2-x,-y,1/2+z
1/2+x,1/2-y,1/2-z
1/2-x,y,1/2-z
1/2-x,1/2-y,1/2-z
1/2+x,y,1/2-z
1/2-x,1/2+y,1/2+z
1/2+x,-y,1/2+z
loop_
_atom_site_type_symbol
_atom_site_label
_atom_site_fract_x
_atom_site_fract_y
_atom_site_fract_z
Si Si1 0.935813 0.662155 0.866199
Si Si2 0.802553 0.510517 0.817353
Si Si3 0.173114 0.889965 0.014880
Si Si4 0.069412 0.250000 0.733247
Si Si5 0.066691 0.600174 0.417127
Si Si6 0.300882 0.750000 0.345803
Si Si7 0.398543 0.436717 0.159563
O O1 0.927297 0.750000 0.842839
O O2 0.932643 0.615170 0.748882
O O3 0.000000 0.652310 0.917705
O O4 0.885506 0.634801 0.951159
O O5 0.750000 0.473178 0.750000
O O6 0.839960 0.449084 0.884324
O O7 0.837023 0.553667 0.720172
O O8 0.788297 0.568738 0.918472
O O9 0.204965 0.822062 0.074351
O O10 0.074657 0.326193 0.658994
O O11 0.129832 0.250000 0.807273
O O12 0.000000 0.250000 0.777157
O O13 0.103896 0.597734 0.533217
O O14 0.077190 0.521278 0.353469
O O15 0.000000 0.599949 0.457416
O O16 0.250000 0.750000 0.250000
#
# Coordination Sequence:
#
# PCOD9538060 Si02
#       7
#    16  16  16   8  16   8  16
#     4  10  20  36  60  88 123 167 203 245 310 368
#     4  10  22  40  61  84 113 157 198 248 308 363
#     4  10  22  40  60  88 121 149 202 257 293 364
#     4  10  24  40  59  87 123 163 204 254 312 373
#     4  10  20  36  56  86 122 155 200 252 302 362
#     4  12  24  40  62  87 118 157 198 248 308 363
#     4  10  20  35  59  87 120 157 204 255 301 369
#
# _framework density 19.960270999999999
#
# number of rings (size 3 to 8) (size 9 to 14) (size 15 to 20)
#    0.000    1.833    0.833    3.500    1.167    4.667 
#    0.000    8.750    0.000    0.000    0.000    0.000 
#    0.000    0.000    0.000    0.000    0.000    0.000 
#
# Total GULP energy -267484.518373 kJ/mol
# GULP energy per Si atom -5572.594133 kJ/mol
# Density = 1.991484 g / cm^3
# Si number density = 19.960271 Si / 1000 Ang^3
#
#
#
# Elastic Constant Matrix: (Units=GPa)
#
#
# Indices 1 2 3 4 5 6 
#
# 1 48.9839 19.6354 39.9621 0.0000 0.0000 0.0000
# 2 19.6354 108.7807 48.4179 0.0000 0.0000 0.0000
# 3 39.9621 48.4179 98.1315 0.0000 0.0000 0.0000
# 4 0.0000 0.0000 0.0000 25.1186 0.0000 0.0000
# 5 0.0000 0.0000 0.0000 0.0000 17.4500 0.0000
# 6 0.0000 0.0000 0.0000 0.0000 0.0000 -7.3573
#
#
#
# Elastic Compliance Matrix: (Units=1/GPa)
#
#
# Indices 1 2 3 4 5 6 
#
# 1 0.030572 0.000029 -0.012464 0.000000 0.000000 0.000000
# 2 0.000029 0.011780 -0.005824 0.000000 0.000000 0.000000
# 3 -0.012464 -0.005824 0.018140 0.000000 0.000000 0.000000
# 4 0.000000 0.000000 0.000000 0.039811 0.000000 0.000000
# 5 0.000000 0.000000 0.000000 0.000000 0.057307 0.000000
# 6 0.000000 0.000000 0.000000 0.000000 0.000000 -0.135920
#
#
# Mechanical properties :
#
#
# Convention : Reuss Voigt Hill
#
# Bulk Modulus (GPa) = 41.71278 52.43632 47.07455
# Shear Modulus (GPa) = 75.53125 16.90097 46.21611
#
# Velocity S-wave (km/s) = 6.15816 2.91302 4.81709
# Velocity P-wave (km/s) = 8.45619 6.13528 7.38745
#
# Compressibility (1/GPa) = 0.02397347
#
# Stress axis : x y z
#
# Youngs Moduli (GPa) = 32.71010 84.89121 55.12735
#
# Poissons Ratio (x) = -0.00250 0.68712
# Poissons Ratio (y) = -0.00096 0.32107
# Poissons Ratio (z) = 0.40771 0.49442
#
# Static dielectric constant tensor:
#      x y z
#    x 1.736990 0.000000 0.000000 
#    y 0.000000 1.724790 0.000000 
#    z 0.000000 0.000000 1.706070 
# 
# From -- ./inp_files/25234.got.cif
#   From: 2010.05.17/outbox.cif.g08.bks.cpg/sg74_13_cif.got.tgz:25234.got - 2010.06.03 17:57:02.
