data_PCOD9538789
_publ_section_title
;
Structure prediction by ZEFSAII (Michael W. Deem and Ramdas Pophale) SiO2 
 PCOD9538789
Probable space group: I M M A
;
_chemical_formula_sum "Si O2"
_cell_formula_units_Z 96
_cell_length_a 17.118520
_cell_length_b 20.944195
_cell_length_c 12.988305
_cell_angle_alpha 90.000000
_cell_angle_beta 90.000000
_cell_angle_gamma 90.000000
_cell_volume 4656.744022
_symmetry_space_group_name_H-M "I M M A"
_symmetry_group_IT_number 74
_symmetry_cell_setting 'orthorhombic'
loop_
_space_group_symop_operation_xyz
x,y,z
-x,1/2-y,z
x,-y,-z
-x,1/2+y,-z
-x,-y,-z
x,1/2+y,-z
-x,y,z
x,1/2-y,z
1/2+x,1/2+y,1/2+z
1/2-x,-y,1/2+z
1/2+x,1/2-y,1/2-z
1/2-x,y,1/2-z
1/2-x,1/2-y,1/2-z
1/2+x,y,1/2-z
1/2-x,1/2+y,1/2+z
1/2+x,-y,1/2+z
loop_
_atom_site_type_symbol
_atom_site_label
_atom_site_fract_x
_atom_site_fract_y
_atom_site_fract_z
Si Si1 0.905084 0.354238 0.853835
Si Si2 0.091630 0.861744 0.369945
Si Si3 0.592322 0.854896 0.907013
Si Si4 0.407241 0.750000 0.524462
Si Si5 0.359626 0.007897 0.163947
Si Si6 0.342041 0.750000 0.754545
Si Si7 0.177216 0.013315 0.883584
O O1 0.885421 0.330096 0.738391
O O2 0.888857 0.309429 0.950299
O O3 0.849600 0.414755 0.865261
O O4 0.000000 0.368200 0.853777
O O5 0.126468 0.840149 0.478945
O O6 0.102575 0.938703 0.357415
O O7 0.000000 0.849526 0.379921
O O8 0.500000 0.841700 0.904031
O O9 0.630066 0.811948 0.818653
O O10 0.604914 0.930660 0.890878
O O11 0.500000 0.750000 0.539876
O O12 0.371024 0.750000 0.637007
O O13 0.269358 0.999094 0.130158
O O14 0.362277 0.022199 0.286747
O O15 0.250000 0.750000 0.750000
O O16 0.153142 0.000000 0.000000
#
# Coordination Sequence:
#
# PCOD9538789 Si02
#       7
#    16  16  16   8  16   8  16
#     4   9  20  38  62  91 123 165 209 258 313 368
#     4   9  18  36  62  95 124 150 199 256 315 375
#     4  11  23  41  66  91 122 163 211 261 310 373
#     4  10  22  43  66  89 126 171 218 263 310 368
#     4  10  21  35  59  90 124 162 202 258 319 375
#     4  12  30  45  62  86 126 171 217 260 315 380
#     4  10  21  34  55  85 124 163 209 254 313 371
#
# _framework density 20.615262000000001
#
# number of rings (size 3 to 8) (size 9 to 14) (size 15 to 20)
#    0.000    2.000    0.000    2.750    4.667    4.333 
#    0.000    2.500    0.000    9.000    0.000    0.000 
#    0.000    0.000    0.000    0.000    0.000    0.000 
#
# Total GULP energy -267633.784138 kJ/mol
# GULP energy per Si atom -5575.703836 kJ/mol
# Density = 2.056834 g / cm^3
# Si number density = 20.615262 Si / 1000 Ang^3
#
#
#
# Elastic Constant Matrix: (Units=GPa)
#
#
# Indices 1 2 3 4 5 6 
#
# 1 38.1757 17.9285 34.0635 0.0000 0.0000 0.0000
# 2 17.9285 57.5007 41.4150 0.0000 0.0000 0.0000
# 3 34.0635 41.4150 229.7449 0.0000 0.0000 0.0000
# 4 0.0000 0.0000 0.0000 27.1113 0.0000 0.0000
# 5 0.0000 0.0000 0.0000 0.0000 11.9135 0.0000
# 6 0.0000 0.0000 0.0000 0.0000 0.0000 24.0663
#
#
#
# Elastic Compliance Matrix: (Units=1/GPa)
#
#
# Indices 1 2 3 4 5 6 
#
# 1 0.032951 -0.007763 -0.003486 0.000000 0.000000 0.000000
# 2 -0.007763 0.021815 -0.002781 0.000000 0.000000 0.000000
# 3 -0.003486 -0.002781 0.005371 0.000000 0.000000 0.000000
# 4 0.000000 0.000000 0.000000 0.036885 0.000000 0.000000
# 5 0.000000 0.000000 0.000000 0.000000 0.083938 0.000000
# 6 0.000000 0.000000 0.000000 0.000000 0.000000 0.041552
#
#
# Mechanical properties :
#
#
# Convention : Reuss Voigt Hill
#
# Bulk Modulus (GPa) = 31.17644 56.91504 44.04574
# Shear Modulus (GPa) = 19.13761 28.08584 23.61172
#
# Velocity S-wave (km/s) = 3.05014 3.69505 3.38798
# Velocity P-wave (km/s) = 5.24979 6.77294 6.05941
#
# Compressibility (1/GPa) = 0.03207551
#
# Stress axis : x y z
#
# Youngs Moduli (GPa) = 30.34803 45.84003 186.18753
#
# Poissons Ratio (x) = 0.35586 0.64907
# Poissons Ratio (y) = 0.23560 0.51787
# Poissons Ratio (z) = 0.10580 0.12750
#
# Static dielectric constant tensor:
#      x y z
#    x 1.704190 0.000000 0.000000 
#    y 0.000000 1.774080 0.000000 
#    z 0.000000 0.000000 1.842280 
# 
# From -- ./inp_files/22531.got.cif
#   From: 2010.05.17/outbox.cif.g08.bks.cpg/sg74_12_cif.got.tgz:22531.got - 2010.06.03 17:57:02.
