data_PCOD9538958
_publ_section_title
;
Structure prediction by ZEFSAII (Michael W. Deem and Ramdas Pophale) SiO2 
 PCOD9538958
Probable space group: I M M A
;
_chemical_formula_sum "Si O2"
_cell_formula_units_Z 96
_cell_length_a 23.360445
_cell_length_b 17.721155
_cell_length_c 10.063045
_cell_angle_alpha 90.000000
_cell_angle_beta 90.000000
_cell_angle_gamma 90.000000
_cell_volume 4165.839662
_symmetry_space_group_name_H-M "I M M A"
_symmetry_group_IT_number 74
_symmetry_cell_setting 'orthorhombic'
loop_
_space_group_symop_operation_xyz
x,y,z
-x,1/2-y,z
x,-y,-z
-x,1/2+y,-z
-x,-y,-z
x,1/2+y,-z
-x,y,z
x,1/2-y,z
1/2+x,1/2+y,1/2+z
1/2-x,-y,1/2+z
1/2+x,1/2-y,1/2-z
1/2-x,y,1/2-z
1/2-x,1/2-y,1/2-z
1/2+x,y,1/2-z
1/2-x,1/2+y,1/2+z
1/2+x,-y,1/2+z
loop_
_atom_site_type_symbol
_atom_site_label
_atom_site_fract_x
_atom_site_fract_y
_atom_site_fract_z
Si Si1 0.312734 0.448816 0.260668
Si Si2 0.832049 0.838803 0.510838
Si Si3 0.560943 0.841860 0.160208
Si Si4 0.209315 0.834261 0.999032
Si Si5 0.584730 0.336233 0.552279
Si Si6 0.564111 0.038874 0.355710
O O1 0.250000 0.490344 0.250000
O O2 0.322470 0.391778 0.137805
O O3 0.300799 0.397842 0.390054
O O4 0.376333 0.483471 0.283193
O O5 0.841389 0.750000 0.546127
O O6 0.884971 0.866558 0.424366
O O7 0.771080 0.842734 0.435536
O O8 0.500000 0.861017 0.096214
O O9 0.564918 0.750000 0.168174
O O10 0.559440 0.869476 0.312334
O O11 0.209707 0.750000 0.935652
O O12 0.152510 0.837300 0.084667
O O13 0.566560 0.250000 0.540689
O O14 0.572001 0.375421 0.412009
O O15 0.500000 0.031745 0.295161
O O16 0.564054 0.000000 0.500000
#
# Coordination Sequence:
#
# PCOD9538958 Si02
#       6
#    16  16  16  16  16  16
#     4   9  17  31  52  71  99 131 168 209 251 311
#     4   9  16  26  43  70 103 135 165 204 257 309
#     4   9  17  27  40  63  99 138 169 202 247 298
#     4   8  14  25  44  71  97 125 161 208 257 299
#     4   9  17  31  52  76 101 132 172 215 257 302
#     4  10  21  36  56  79 105 136 173 219 267 308
#
# _framework density 23.044573
#
# number of rings (size 3 to 8) (size 9 to 14) (size 15 to 20)
#    0.000    3.000    0.000    1.000    0.000    5.000 
#    0.000    3.333   11.000    0.000    0.000    3.500 
#    0.000    0.000    0.000    0.000    0.000    0.000 
#
# Total GULP energy -267241.893245 kJ/mol
# GULP energy per Si atom -5567.539443 kJ/mol
# Density = 2.299212 g / cm^3
# Si number density = 23.044573 Si / 1000 Ang^3
#
#
#
# Elastic Constant Matrix: (Units=GPa)
#
#
# Indices 1 2 3 4 5 6 
#
# 1 249.2865 15.5998 38.3221 0.0000 0.0000 0.0000
# 2 15.5998 43.1894 0.6713 0.0000 0.0000 0.0000
# 3 38.3221 0.6713 27.4586 0.0000 0.0000 0.0000
# 4 0.0000 0.0000 0.0000 18.1942 0.0000 0.0000
# 5 0.0000 0.0000 0.0000 0.0000 27.4661 0.0000
# 6 0.0000 0.0000 0.0000 0.0000 0.0000 12.7162
#
#
#
# Elastic Compliance Matrix: (Units=1/GPa)
#
#
# Indices 1 2 3 4 5 6 
#
# 1 0.005240 -0.001780 -0.007270 0.000000 0.000000 0.000000
# 2 -0.001780 0.023767 0.001903 0.000000 0.000000 0.000000
# 3 -0.007270 0.001903 0.046519 0.000000 0.000000 0.000000
# 4 0.000000 0.000000 0.000000 0.054963 0.000000 0.000000
# 5 0.000000 0.000000 0.000000 0.000000 0.036409 0.000000
# 6 0.000000 0.000000 0.000000 0.000000 0.000000 0.078640
#
#
# Mechanical properties :
#
#
# Convention : Reuss Voigt Hill
#
# Bulk Modulus (GPa) = 16.33136 47.68009 32.00572
# Shear Modulus (GPa) = 17.84171 29.36471 23.60321
#
# Velocity S-wave (km/s) = 2.78551 3.57355 3.20385
# Velocity P-wave (km/s) = 4.17704 6.14510 5.25404
#
# Compressibility (1/GPa) = 0.06123190
#
# Stress axis : x y z
#
# Youngs Moduli (GPa) = 190.82296 42.07495 21.49679
#
# Poissons Ratio (x) = 0.07489 0.15629
# Poissons Ratio (y) = 0.33963 -0.04091
# Poissons Ratio (z) = 1.38733 -0.08007
#
# Static dielectric constant tensor:
#      x y z
#    x 1.967040 0.000000 0.000000 
#    y 0.000000 1.996770 0.000000 
#    z 0.000000 0.000000 1.804730 
# 
# From -- ./inp_files/22416.got.cif
#   From: 2010.05.17/outbox.cif.g08.bks.cpg/sg74_12_cif.got.tgz:22416.got - 2010.06.03 17:57:02.
