data_PCOD9538643
_publ_section_title
;
Structure prediction by ZEFSAII (Michael W. Deem and Ramdas Pophale) SiO2 
 PCOD9538643
Probable space group: I M M A
;
_chemical_formula_sum "Si O2"
_cell_formula_units_Z 100
_cell_length_a 7.854477
_cell_length_b 27.380498
_cell_length_c 23.779496
_cell_angle_alpha 90.000000
_cell_angle_beta 90.000000
_cell_angle_gamma 90.000000
_cell_volume 5114.006325
_symmetry_space_group_name_H-M "I M M A"
_symmetry_group_IT_number 74
_symmetry_cell_setting 'orthorhombic'
loop_
_space_group_symop_operation_xyz
x,y,z
-x,1/2-y,z
x,-y,-z
-x,1/2+y,-z
-x,-y,-z
x,1/2+y,-z
-x,y,z
x,1/2-y,z
1/2+x,1/2+y,1/2+z
1/2-x,-y,1/2+z
1/2+x,1/2-y,1/2-z
1/2-x,y,1/2-z
1/2-x,1/2-y,1/2-z
1/2+x,y,1/2-z
1/2-x,1/2+y,1/2+z
1/2+x,-y,1/2+z
loop_
_atom_site_type_symbol
_atom_site_label
_atom_site_fract_x
_atom_site_fract_y
_atom_site_fract_z
Si Si1 0.795218 0.395674 0.386283
Si Si2 0.202708 0.805511 0.813087
Si Si3 0.000000 0.750000 0.350276
Si Si4 0.703842 0.824360 0.316020
Si Si5 0.695875 0.572020 0.373854
Si Si6 0.190819 0.019494 0.311084
Si Si7 0.206180 0.557207 0.497628
O O1 0.760190 0.342410 0.361533
O O2 0.721825 0.434854 0.341554
O O3 0.734221 0.412416 0.447914
O O4 0.000000 0.400857 0.389523
O O5 0.270932 0.750000 0.819337
O O6 0.250000 0.822851 0.750000
O O7 0.000000 0.803309 0.815405
O O8 0.846100 0.791815 0.346730
O O9 0.500000 0.811789 0.323104
O O10 0.750000 0.820000 0.250000
O O11 0.725861 0.879509 0.337922
O O12 0.500000 0.557524 0.365387
O O13 0.803402 0.526316 0.352470
O O14 0.729500 0.579861 0.439522
O O15 0.250000 0.004013 0.250000
O O16 0.000000 0.036218 0.301426
O O17 0.259355 0.500000 0.500000
O O18 0.000000 0.557394 0.496451
#
# Coordination Sequence:
#
# PCOD9538643 Si02
#       7
#    16  16   4  16  16  16  16
#     4  10  21  37  59  89 116 155 199 245 296 357
#     4  10  21  37  59  87 119 156 197 247 299 356
#     4  12  24  40  70  90 122 170 192 268 318 368
#     4  11  24  39  62  96 124 158 210 254 313 381
#     4  11  24  39  58  88 122 157 200 249 298 361
#     4  11  22  36  56  83 123 156 191 237 295 361
#     4  10  20  39  63  86 116 159 205 249 294 357
#
# _framework density 19.554141999999999
#
# number of rings (size 3 to 8) (size 9 to 14) (size 15 to 20)
#    0.000    1.440    2.400    2.880    2.240    5.760 
#    0.000    0.000    1.760    0.000    0.000    0.000 
#    0.000    0.000    0.000    0.000    0.000    0.000 
#
# Total GULP energy -278442.211239 kJ/mol
# GULP energy per Si atom -5568.844225 kJ/mol
# Density = 1.950964 g / cm^3
# Si number density = 19.554142 Si / 1000 Ang^3
#
#
#
# Elastic Constant Matrix: (Units=GPa)
#
#
# Indices 1 2 3 4 5 6 
#
# 1 58.5493 4.6590 -5.8730 0.0000 0.0000 0.0000
# 2 4.6590 66.6540 20.0488 0.0000 0.0000 0.0000
# 3 -5.8730 20.0488 86.2360 0.0000 0.0000 0.0000
# 4 0.0000 0.0000 0.0000 30.1248 0.0000 0.0000
# 5 0.0000 0.0000 0.0000 0.0000 17.5261 0.0000
# 6 0.0000 0.0000 0.0000 0.0000 0.0000 27.7219
#
#
#
# Elastic Compliance Matrix: (Units=1/GPa)
#
#
# Indices 1 2 3 4 5 6 
#
# 1 0.017372 -0.001688 0.001576 0.000000 0.000000 0.000000
# 2 -0.001688 0.016295 -0.003903 0.000000 0.000000 0.000000
# 3 0.001576 -0.003903 0.012611 0.000000 0.000000 0.000000
# 4 0.000000 0.000000 0.000000 0.033195 0.000000 0.000000
# 5 0.000000 0.000000 0.000000 0.000000 0.057058 0.000000
# 6 0.000000 0.000000 0.000000 0.000000 0.000000 0.036073
#
#
# Mechanical properties :
#
#
# Convention : Reuss Voigt Hill
#
# Bulk Modulus (GPa) = 26.14658 27.67875 26.91266
# Shear Modulus (GPa) = 25.85531 27.91486 26.88509
#
# Velocity S-wave (km/s) = 3.64021 3.78242 3.71199
# Velocity P-wave (km/s) = 5.57392 5.76725 5.67141
#
# Compressibility (1/GPa) = 0.03824592
#
# Stress axis : x y z
#
# Youngs Moduli (GPa) = 57.56388 61.36874 79.29668
#
# Poissons Ratio (x) = 0.10360 -0.12494
# Poissons Ratio (y) = 0.09718 0.30952
# Poissons Ratio (z) = -0.09070 0.23954
#
# Static dielectric constant tensor:
#      x y z
#    x 1.723570 0.000000 0.000000 
#    y 0.000000 1.691390 0.000000 
#    z 0.000000 0.000000 1.690800 
# 
# From -- ./inp_files/49266.got.cif
#   From: 2010.05.17/outbox.cif.g08.bks.cpg/sg74_25_cif.got.tgz:49266.got - 2010.06.03 17:57:02.
