data_PCOD9538535
_publ_section_title
;
Structure prediction by ZEFSAII (Michael W. Deem and Ramdas Pophale) SiO2 
 PCOD9538535
Probable space group: I M M A
;
_chemical_formula_sum "Si O2"
_cell_formula_units_Z 48
_cell_length_a 7.871195
_cell_length_b 7.831149
_cell_length_c 39.327855
_cell_angle_alpha 90.000000
_cell_angle_beta 90.000000
_cell_angle_gamma 90.000000
_cell_volume 2424.188680
_symmetry_space_group_name_H-M "I M M A"
_symmetry_group_IT_number 74
_symmetry_cell_setting 'orthorhombic'
loop_
_space_group_symop_operation_xyz
x,y,z
-x,1/2-y,z
x,-y,-z
-x,1/2+y,-z
-x,-y,-z
x,1/2+y,-z
-x,y,z
x,1/2-y,z
1/2+x,1/2+y,1/2+z
1/2-x,-y,1/2+z
1/2+x,1/2-y,1/2-z
1/2-x,y,1/2-z
1/2-x,1/2-y,1/2-z
1/2+x,y,1/2-z
1/2-x,1/2+y,1/2+z
1/2+x,-y,1/2+z
loop_
_atom_site_type_symbol
_atom_site_label
_atom_site_fract_x
_atom_site_fract_y
_atom_site_fract_z
Si Si1 0.204512 0.058451 0.462712
Si Si2 0.708823 0.750000 0.336375
Si Si3 0.795464 0.556464 0.788557
Si Si4 0.298063 0.250000 0.586248
O O1 0.266478 0.250000 0.455014
O O2 0.000000 0.065322 0.464799
O O3 0.267059 0.000000 0.500000
O O4 0.247092 0.917366 0.434855
O O5 0.500000 0.750000 0.336387
O O6 0.764620 0.582461 0.315632
O O7 0.768603 0.750000 0.375226
O O8 0.731673 0.750000 0.794307
O O9 0.750000 0.506477 0.750000
O O10 0.000000 0.561288 0.790679
O O11 0.500000 0.250000 0.588494
#
# Coordination Sequence:
#
# PCOD9538535 Si02
#       4
#    16   8  16   8
#     4  10  20  38  61  79 102 141 183 221 268 329
#     4   9  19  34  50  72 106 144 172 202 260 325
#     4   9  17  31  52  75 100 134 175 214 254 303
#     4  11  23  36  54  84 116 142 178 228 275 323
#
# _framework density 19.800438
#
# number of rings (size 3 to 8) (size 9 to 14) (size 15 to 20)
#    0.000    2.333    1.667    1.000    0.000    2.667 
#    0.000    6.667    0.000    4.000    0.000    0.000 
#    0.000    0.000    0.000    0.000    0.000    0.000 
#
# Total GULP energy -133979.970975 kJ/mol
# GULP energy per Si atom -5582.498791 kJ/mol
# Density = 1.975537 g / cm^3
# Si number density = 19.800438 Si / 1000 Ang^3
#
#
#
# Elastic Constant Matrix: (Units=GPa)
#
#
# Indices 1 2 3 4 5 6 
#
# 1 19.8601 11.0377 5.1844 0.0000 0.0000 0.0000
# 2 11.0377 199.1338 142.0153 0.0000 0.0000 0.0000
# 3 5.1844 142.0153 209.7661 0.0000 0.0000 0.0000
# 4 0.0000 0.0000 0.0000 12.5848 0.0000 0.0000
# 5 0.0000 0.0000 0.0000 0.0000 24.7251 0.0000
# 6 0.0000 0.0000 0.0000 0.0000 0.0000 -6.4164
#
#
#
# Elastic Compliance Matrix: (Units=1/GPa)
#
#
# Indices 1 2 3 4 5 6 
#
# 1 0.052133 -0.003811 0.001291 0.000000 0.000000 0.000000
# 2 -0.003811 0.009989 -0.006668 0.000000 0.000000 0.000000
# 3 0.001291 -0.006668 0.009250 0.000000 0.000000 0.000000
# 4 0.000000 0.000000 0.000000 0.079461 0.000000 0.000000
# 5 0.000000 0.000000 0.000000 0.000000 0.040445 0.000000
# 6 0.000000 0.000000 0.000000 0.000000 0.000000 -0.155850
#
#
# Mechanical properties :
#
#
# Convention : Reuss Voigt Hill
#
# Bulk Modulus (GPa) = 18.86928 82.80388 50.83658
# Shear Modulus (GPa) = 69.96239 24.21353 47.08796
#
# Velocity S-wave (km/s) = 5.95067 3.50076 4.88189
# Velocity P-wave (km/s) = 7.53421 7.63220 7.58336
#
# Compressibility (1/GPa) = 0.05299621
#
# Stress axis : x y z
#
# Youngs Moduli (GPa) = 19.18178 100.11510 108.11052
#
# Poissons Ratio (x) = 0.38150 -0.13961
# Poissons Ratio (y) = 0.07309 0.72090
# Poissons Ratio (z) = -0.02477 0.66759
#
# Static dielectric constant tensor:
#      x y z
#    x 1.718170 0.000000 0.000000 
#    y 0.000000 1.635740 0.000000 
#    z 0.000000 0.000000 1.664480 
# 
# From -- ./inp_files/69523.got.cif
#   From: 2010.05.17/outbox.cif.g08.bks.cpg/sg74_35_cif.got.tgz:69523.got - 2010.06.03 17:57:02.
