data_PCOD9538183
_publ_section_title
;
Structure prediction by ZEFSAII (Michael W. Deem and Ramdas Pophale) SiO2 
 PCOD9538183
Probable space group: I M M A
;
_chemical_formula_sum "Si O2"
_cell_formula_units_Z 88
_cell_length_a 28.030180
_cell_length_b 8.726751
_cell_length_c 19.209907
_cell_angle_alpha 90.000000
_cell_angle_beta 90.000000
_cell_angle_gamma 90.000000
_cell_volume 4698.981481
_symmetry_space_group_name_H-M "I M M A"
_symmetry_group_IT_number 74
_symmetry_cell_setting 'orthorhombic'
loop_
_space_group_symop_operation_xyz
x,y,z
-x,1/2-y,z
x,-y,-z
-x,1/2+y,-z
-x,-y,-z
x,1/2+y,-z
-x,y,z
x,1/2-y,z
1/2+x,1/2+y,1/2+z
1/2-x,-y,1/2+z
1/2+x,1/2-y,1/2-z
1/2-x,y,1/2-z
1/2-x,1/2-y,1/2-z
1/2+x,y,1/2-z
1/2-x,1/2+y,1/2+z
1/2+x,-y,1/2+z
loop_
_atom_site_type_symbol
_atom_site_label
_atom_site_fract_x
_atom_site_fract_y
_atom_site_fract_z
Si Si1 0.904284 0.433080 0.643873
Si Si2 0.361779 0.567905 0.716532
Si Si3 0.500000 0.433495 0.078064
Si Si4 0.226336 0.426911 0.848689
Si Si5 0.868112 0.072887 0.926308
Si Si6 0.811748 0.931866 0.573982
O O1 0.907246 0.250000 0.642475
O O2 0.889831 0.491476 0.720491
O O3 0.861527 0.490680 0.594648
O O4 0.953232 0.506294 0.617580
O O5 0.359693 0.750000 0.724492
O O6 0.308068 0.498256 0.710275
O O7 0.384622 0.520959 0.641830
O O8 0.500000 0.250000 0.075367
O O9 0.500000 0.500000 0.000000
O O10 0.238125 0.250000 0.833987
O O11 0.189394 0.429132 0.914320
O O12 0.272206 0.522279 0.869313
O O13 0.883118 0.250000 0.922007
O O14 0.880494 0.000000 0.000000
O O15 0.816991 0.750000 0.570364
O O16 0.796378 0.000000 0.500000
#
# Coordination Sequence:
#
# PCOD9538183 Si02
#       6
#    16  16   8  16  16  16
#     4  12  25  44  65  89 120 155 196 250 309 366
#     4  10  20  36  57  85 119 158 201 247 298 357
#     4  12  26  48  74 100 123 152 197 250 306 364
#     4   9  19  34  53  79 114 156 200 242 286 343
#     4   9  17  29  49  77 113 155 200 244 286 338
#     4  12  24  38  57  84 117 159 205 252 302 358
#
# _framework density 18.727461999999999
#
# number of rings (size 3 to 8) (size 9 to 14) (size 15 to 20)
#    1.091    0.364    0.000    7.364    0.000    2.182 
#    0.000    3.636    0.000    0.000    0.000    0.636 
#    0.000    0.000    0.000    0.000    0.000    0.000 
#
# Total GULP energy -245616.021323 kJ/mol
# GULP energy per Si atom -5582.182303 kJ/mol
# Density = 1.868484 g / cm^3
# Si number density = 18.727462 Si / 1000 Ang^3
#
#
#
# Elastic Constant Matrix: (Units=GPa)
#
#
# Indices 1 2 3 4 5 6 
#
# 1 102.3681 55.7531 55.1225 0.0000 0.0000 0.0000
# 2 55.7531 192.3311 45.2040 0.0000 0.0000 0.0000
# 3 55.1225 45.2040 114.8937 0.0000 0.0000 0.0000
# 4 0.0000 0.0000 0.0000 34.5110 0.0000 0.0000
# 5 0.0000 0.0000 0.0000 0.0000 42.9014 0.0000
# 6 0.0000 0.0000 0.0000 0.0000 0.0000 25.4374
#
#
#
# Elastic Compliance Matrix: (Units=1/GPa)
#
#
# Indices 1 2 3 4 5 6 
#
# 1 0.014436 -0.002817 -0.005817 0.000000 0.000000 0.000000
# 2 -0.002817 0.006279 -0.001119 0.000000 0.000000 0.000000
# 3 -0.005817 -0.001119 0.011935 0.000000 0.000000 0.000000
# 4 0.000000 0.000000 0.000000 0.028976 0.000000 0.000000
# 5 0.000000 0.000000 0.000000 0.000000 0.023309 0.000000
# 6 0.000000 0.000000 0.000000 0.000000 0.000000 0.039312
#
#
# Mechanical properties :
#
#
# Convention : Reuss Voigt Hill
#
# Bulk Modulus (GPa) = 76.08827 80.19466 78.14147
# Shear Modulus (GPa) = 33.75309 37.47087 35.61198
#
# Velocity S-wave (km/s) = 4.24999 4.47794 4.36545
# Velocity P-wave (km/s) = 8.04989 8.34571 8.19913
#
# Compressibility (1/GPa) = 0.01314263
#
# Stress axis : x y z
#
# Youngs Moduli (GPa) = 69.27352 159.26100 83.78851
#
# Poissons Ratio (x) = 0.44869 0.48742
# Poissons Ratio (y) = 0.19517 0.09374
# Poissons Ratio (z) = 0.40298 0.17817
#
# Static dielectric constant tensor:
#      x y z
#    x 1.626280 0.000000 0.000000 
#    y 0.000000 1.618160 0.000000 
#    z 0.000000 0.000000 1.657870 
# 
# From -- ./inp_files/54516.got.cif
#   From: 2010.05.17/outbox.cif.g08.bks.cpg/sg74_28_cif.got.tgz:54516.got - 2010.06.03 17:57:02.
