data_PCOD9538802
_publ_section_title
;
Structure prediction by ZEFSAII (Michael W. Deem and Ramdas Pophale) SiO2 
 PCOD9538802
Probable space group: I M M A
;
_chemical_formula_sum "Si O2"
_cell_formula_units_Z 96
_cell_length_a 13.891545
_cell_length_b 11.846062
_cell_length_c 31.435185
_cell_angle_alpha 90.000000
_cell_angle_beta 90.000000
_cell_angle_gamma 90.000000
_cell_volume 5172.977292
_symmetry_space_group_name_H-M "I M M A"
_symmetry_group_IT_number 74
_symmetry_cell_setting 'orthorhombic'
loop_
_space_group_symop_operation_xyz
x,y,z
-x,1/2-y,z
x,-y,-z
-x,1/2+y,-z
-x,-y,-z
x,1/2+y,-z
-x,y,z
x,1/2-y,z
1/2+x,1/2+y,1/2+z
1/2-x,-y,1/2+z
1/2+x,1/2-y,1/2-z
1/2-x,y,1/2-z
1/2-x,1/2-y,1/2-z
1/2+x,y,1/2-z
1/2-x,1/2+y,1/2+z
1/2+x,-y,1/2+z
loop_
_atom_site_type_symbol
_atom_site_label
_atom_site_fract_x
_atom_site_fract_y
_atom_site_fract_z
Si Si1 0.113829 0.451321 0.163007
Si Si2 0.615858 0.250000 0.272974
Si Si3 0.383193 0.878787 0.265998
Si Si4 0.615957 0.118222 0.025473
Si Si5 0.613434 0.614470 0.172781
Si Si6 0.202397 0.438974 0.383365
Si Si7 0.884173 0.750000 0.676852
O O1 0.137270 0.356995 0.198196
O O2 0.139018 0.562901 0.189596
O O3 0.183044 0.434299 0.123224
O O4 0.000000 0.447382 0.153385
O O5 0.500000 0.250000 0.267883
O O6 0.653145 0.250000 0.225183
O O7 0.500000 0.882633 0.263060
O O8 0.352504 0.750000 0.268116
O O9 0.351421 0.926480 0.219892
O O10 0.500000 0.117372 0.030185
O O11 0.639353 0.250000 0.010608
O O12 0.665865 0.099647 0.071058
O O13 0.639361 0.000000 0.000000
O O14 0.500000 0.585245 0.169291
O O15 0.620544 0.750000 0.173240
O O16 0.666579 0.560735 0.132732
O O17 0.154365 0.357071 0.348564
O O18 0.000000 0.750000 0.676265
#
# Coordination Sequence:
#
# PCOD9538802 Si02
#       7
#    16   8  16  16  16  16   8
#     4  10  21  35  49  72 109 151 196 235 269 311
#     4   9  19  33  47  70 111 157 190 225 271 316
#     4   8  15  30  48  66 100 152 198 236 277 318
#     4  10  22  42  66  91 118 145 175 221 291 372
#     4   9  18  31  48  75 111 146 185 234 283 334
#     4  12  22  33  56  83 107 142 185 229 278 337
#     4  11  21  33  52  80 115 147 183 229 274 327
#
# _framework density 18.557977999999999
#
# number of rings (size 3 to 8) (size 9 to 14) (size 15 to 20)
#    0.000    2.167    0.833    4.000    0.000    7.333 
#    0.000    3.333    0.000    0.500    0.000    0.000 
#    0.000    0.000    0.000    0.000    0.000    0.000 
#
# Total GULP energy -267645.443111 kJ/mol
# GULP energy per Si atom -5575.946731 kJ/mol
# Density = 1.851574 g / cm^3
# Si number density = 18.557978 Si / 1000 Ang^3
#
#
#
# Elastic Constant Matrix: (Units=GPa)
#
#
# Indices 1 2 3 4 5 6 
#
# 1 74.1822 16.4754 21.8599 0.0000 0.0000 0.0000
# 2 16.4754 78.0888 37.3731 0.0000 0.0000 0.0000
# 3 21.8599 37.3731 68.7063 0.0000 0.0000 0.0000
# 4 0.0000 0.0000 0.0000 2.1669 0.0000 0.0000
# 5 0.0000 0.0000 0.0000 0.0000 28.0075 0.0000
# 6 0.0000 0.0000 0.0000 0.0000 0.0000 -964.2148
#
#
#
# Elastic Compliance Matrix: (Units=1/GPa)
#
#
# Indices 1 2 3 4 5 6 
#
# 1 0.014956 -0.001187 -0.004113 0.000000 0.000000 0.000000
# 2 -0.001187 0.017407 -0.009091 0.000000 0.000000 0.000000
# 3 -0.004113 -0.009091 0.020808 0.000000 0.000000 0.000000
# 4 0.000000 0.000000 0.000000 0.461481 0.000000 0.000000
# 5 0.000000 0.000000 0.000000 0.000000 0.035705 0.000000
# 6 0.000000 0.000000 0.000000 0.000000 0.000000 -0.001037
#
#
# Mechanical properties :
#
#
# Convention : Reuss Voigt Hill
#
# Bulk Modulus (GPa) = 41.00077 41.37712 41.18894
# Shear Modulus (GPa) = 8.52904 -177.12348 -84.29722
#
# Velocity S-wave (km/s) = 2.14613 -9.78011 -6.74702
# Velocity P-wave (km/s) = 5.31813 10.25619 6.20109
#
# Compressibility (1/GPa) = 0.02438979
#
# Stress axis : x y z
#
# Youngs Moduli (GPa) = 66.86320 57.44694 48.05755
#
# Poissons Ratio (x) = 0.06820 0.19765
# Poissons Ratio (y) = 0.07937 0.43690
# Poissons Ratio (z) = 0.27499 0.52226
#
# Static dielectric constant tensor:
#      x y z
#    x 1.695490 0.000000 0.000000 
#    y 0.000000 1.723870 0.000000 
#    z 0.000000 0.000000 1.609540 
# 
# From -- ./inp_files/72457.got.cif
#   From: 2010.05.17/outbox.cif.g08.bks.cpg/sg74_37_cif.got.tgz:72457.got - 2010.06.03 17:57:02.
