data_PCOD9538072
_publ_section_title
;
Structure prediction by ZEFSAII (Michael W. Deem and Ramdas Pophale) SiO2 
 PCOD9538072
Probable space group: I M M A
;
_chemical_formula_sum "Si O2"
_cell_formula_units_Z 112
_cell_length_a 15.409057
_cell_length_b 14.249813
_cell_length_c 24.766287
_cell_angle_alpha 90.000000
_cell_angle_beta 90.000000
_cell_angle_gamma 90.000000
_cell_volume 5438.086711
_symmetry_space_group_name_H-M "I M M A"
_symmetry_group_IT_number 74
_symmetry_cell_setting 'orthorhombic'
loop_
_space_group_symop_operation_xyz
x,y,z
-x,1/2-y,z
x,-y,-z
-x,1/2+y,-z
-x,-y,-z
x,1/2+y,-z
-x,y,z
x,1/2-y,z
1/2+x,1/2+y,1/2+z
1/2-x,-y,1/2+z
1/2+x,1/2-y,1/2-z
1/2-x,y,1/2-z
1/2-x,1/2-y,1/2-z
1/2+x,y,1/2-z
1/2-x,1/2+y,1/2+z
1/2+x,-y,1/2+z
loop_
_atom_site_type_symbol
_atom_site_label
_atom_site_fract_x
_atom_site_fract_y
_atom_site_fract_z
Si Si1 0.640718 0.647746 0.896184
Si Si2 0.260669 0.355237 0.813589
Si Si3 0.793321 0.641813 0.807375
Si Si4 0.717143 0.109646 0.989314
Si Si5 0.598755 0.432646 0.887502
Si Si6 0.902323 0.473830 0.850424
Si Si7 0.093805 0.854184 0.047481
O O1 0.598592 0.750000 0.884789
O O2 0.719718 0.640232 0.853592
O O3 0.595484 0.546112 0.892828
O O4 0.673863 0.651065 0.957610
O O5 0.266838 0.250000 0.835349
O O6 0.250000 0.352268 0.750000
O O7 0.345239 0.409475 0.834455
O O8 0.173438 0.404633 0.832347
O O9 0.821830 0.750000 0.799910
O O10 0.750000 0.610883 0.750000
O O11 0.868834 0.574367 0.829634
O O12 0.655383 0.113029 0.936417
O O13 0.814807 0.145530 0.982396
O O14 0.726118 0.000000 0.000000
O O15 0.500000 0.397471 0.886764
O O16 0.904587 0.445185 0.913620
O O17 0.000000 0.456197 0.830139
O O18 0.091861 0.750000 0.075505
O O19 0.000000 0.858868 0.017899
#
# Coordination Sequence:
#
# PCOD9538072 Si02
#       7
#    16  16  16  16  16  16  16
#     4  10  21  38  64  93 124 166 214 266 323 379
#     4  11  24  43  65  91 126 164 208 260 313 373
#     4  10  21  41  65  88 124 170 213 259 315 374
#     4  10  20  37  61  89 126 168 214 267 323 381
#     4  11  24  42  65  92 127 169 214 265 324 387
#     4  11  21  36  63  95 124 160 206 250 306 372
#     4  10  20  35  59  91 127 169 211 255 314 384
#
# _framework density 20.595478
#
# number of rings (size 3 to 8) (size 9 to 14) (size 15 to 20)
#    0.000    1.571    2.857    2.143    0.000    5.714 
#    0.000    2.143    0.000    3.429    0.000    0.000 
#    0.000    0.000    0.000    0.000    0.000    0.000 
#
# Total GULP energy -311941.993845 kJ/mol
# GULP energy per Si atom -5570.392747 kJ/mol
# Density = 2.054860 g / cm^3
# Si number density = 20.595478 Si / 1000 Ang^3
#
#
#
# Elastic Constant Matrix: (Units=GPa)
#
#
# Indices 1 2 3 4 5 6 
#
# 1 164.4231 35.2271 32.7783 0.0000 0.0000 0.0000
# 2 35.2271 103.8037 13.6381 0.0000 0.0000 0.0000
# 3 32.7783 13.6381 65.2591 0.0000 0.0000 0.0000
# 4 0.0000 0.0000 0.0000 16.9937 0.0000 0.0000
# 5 0.0000 0.0000 0.0000 0.0000 -5.0250 0.0000
# 6 0.0000 0.0000 0.0000 0.0000 0.0000 -10.4163
#
#
#
# Elastic Compliance Matrix: (Units=1/GPa)
#
#
# Indices 1 2 3 4 5 6 
#
# 1 0.007144 -0.002008 -0.003169 0.000000 0.000000 0.000000
# 2 -0.002008 0.010470 -0.001179 0.000000 0.000000 0.000000
# 3 -0.003169 -0.001179 0.017162 0.000000 0.000000 0.000000
# 4 0.000000 0.000000 0.000000 0.058845 0.000000 0.000000
# 5 0.000000 0.000000 0.000000 0.000000 -0.199003 0.000000
# 6 0.000000 0.000000 0.000000 0.000000 0.000000 -0.096003
#
#
# Mechanical properties :
#
#
# Convention : Reuss Voigt Hill
#
# Bulk Modulus (GPa) = 45.32432 55.19699 50.26065
# Shear Modulus (GPa) = -27.57562 17.09997 -5.23783
#
# Velocity S-wave (km/s) = -3.66309 2.88458 -1.59647
# Velocity P-wave (km/s) = 2.04052 6.16061 4.58895
#
# Compressibility (1/GPa) = 0.02206321
#
# Stress axis : x y z
#
# Youngs Moduli (GPa) = 139.98286 95.51120 58.26994
#
# Poissons Ratio (x) = 0.19179 0.18463
# Poissons Ratio (y) = 0.28109 0.06873
# Poissons Ratio (z) = 0.44354 0.11265
#
# Static dielectric constant tensor:
#      x y z
#    x 1.761800 0.000000 0.000000 
#    y 0.000000 1.799430 0.000000 
#    z 0.000000 0.000000 1.812180 
# 
# From -- ./inp_files/60192.got.cif
#   From: 2010.05.17/outbox.cif.g08.bks.cpg/sg74_31_cif.got.tgz:60192.got - 2010.06.03 17:57:02.
