data_PCOD9538566
_publ_section_title
;
Structure prediction by ZEFSAII (Michael W. Deem and Ramdas Pophale) SiO2 
 PCOD9538566
Probable space group: I M M A
;
_chemical_formula_sum "Si O2"
_cell_formula_units_Z 72
_cell_length_a 17.387612
_cell_length_b 27.069018
_cell_length_c 8.452214
_cell_angle_alpha 90.000000
_cell_angle_beta 90.000000
_cell_angle_gamma 90.000000
_cell_volume 3978.166223
_symmetry_space_group_name_H-M "I M M A"
_symmetry_group_IT_number 74
_symmetry_cell_setting 'orthorhombic'
loop_
_space_group_symop_operation_xyz
x,y,z
-x,1/2-y,z
x,-y,-z
-x,1/2+y,-z
-x,-y,-z
x,1/2+y,-z
-x,y,z
x,1/2-y,z
1/2+x,1/2+y,1/2+z
1/2-x,-y,1/2+z
1/2+x,1/2-y,1/2-z
1/2-x,y,1/2-z
1/2-x,1/2-y,1/2-z
1/2+x,y,1/2-z
1/2-x,1/2+y,1/2+z
1/2+x,-y,1/2+z
loop_
_atom_site_type_symbol
_atom_site_label
_atom_site_fract_x
_atom_site_fract_y
_atom_site_fract_z
Si Si1 0.500000 0.398844 0.404030
Si Si2 0.631028 0.546560 0.407047
Si Si3 0.000000 0.865467 0.551400
Si Si4 0.250000 0.878532 0.250000
Si Si5 0.000000 0.463720 0.650398
Si Si6 0.000000 0.694995 0.121929
Si Si7 0.371471 0.192412 0.893411
O O1 0.573765 0.427617 0.468971
O O2 0.500000 0.392487 0.217871
O O3 0.500000 0.346088 0.489814
O O4 0.666014 0.500000 0.500000
O O5 0.692319 0.585643 0.343898
O O6 0.575177 0.530395 0.261464
O O7 0.000000 0.907507 0.415315
O O8 0.925488 0.831127 0.527739
O O9 0.299015 0.842372 0.137449
O O10 0.000000 0.500000 0.500000
O O11 0.926085 0.690064 0.237001
O O12 0.000000 0.750000 0.054447
O O13 0.353038 0.250000 0.921057
#
# Coordination Sequence:
#
# PCOD9538566 Si02
#       7
#     8  16   8   8   8   8  16
#     4  11  20  40  62  87 122 151 202 248 295 337
#     4  11  23  40  60  89 119 156 201 246 298 357
#     4  11  20  37  63  89 117 154 204 254 285 344
#     4  12  21  40  62  86 128 154 197 240 302 372
#     4  11  20  39  66  86 115 154 210 250 294 341
#     4   9  17  34  62  88 113 151 206 247 284 339
#     4  10  20  38  63  89 116 159 203 246 294 350
#
# _framework density 18.098792
#
# number of rings (size 3 to 8) (size 9 to 14) (size 15 to 20)
#    0.000    1.333    4.444    5.333    0.000    1.778 
#    4.000    0.000    0.000    1.333    0.000    0.000 
#    0.000    0.000    0.000    0.000    0.000    0.000 
#
# Total GULP energy -201028.438384 kJ/mol
# GULP energy per Si atom -5584.123288 kJ/mol
# Density = 1.805760 g / cm^3
# Si number density = 18.098792 Si / 1000 Ang^3
#
#
#
# Elastic Constant Matrix: (Units=GPa)
#
#
# Indices 1 2 3 4 5 6 
#
# 1 104.5555 48.7054 29.7674 0.0000 0.0000 0.0000
# 2 48.7054 136.1146 40.7967 0.0000 0.0000 0.0000
# 3 29.7674 40.7967 85.0347 0.0003 0.0000 -0.0001
# 4 0.0000 0.0000 0.0003 35.7954 0.0000 0.0000
# 5 0.0000 0.0000 0.0000 0.0000 -2.0173 0.0000
# 6 0.0000 0.0000 -0.0001 0.0000 0.0000 30.2463
#
#
#
# Elastic Compliance Matrix: (Units=1/GPa)
#
#
# Indices 1 2 3 4 5 6 
#
# 1 0.011909 -0.003518 -0.002481 0.000000 0.000000 0.000000
# 2 -0.003518 0.009620 -0.003384 0.000000 0.000000 0.000000
# 3 -0.002481 -0.003384 0.014252 0.000000 0.000000 0.000000
# 4 0.000000 0.000000 0.000000 0.027937 0.000000 0.000000
# 5 0.000000 0.000000 0.000000 0.000000 -0.495719 -0.000001
# 6 0.000000 0.000000 0.000000 0.000000 -0.000001 0.033062
#
#
# Mechanical properties :
#
#
# Convention : Reuss Voigt Hill
#
# Bulk Modulus (GPa) = 58.77056 62.69376 60.73216
# Shear Modulus (GPa) = -13.35105 26.56725 6.60810
#
# Velocity S-wave (km/s) = -2.71897 3.83548 1.91287
# Velocity P-wave (km/s) = 4.76293 7.37085 6.20544
#
# Compressibility (1/GPa) = 0.01701532
#
# Stress axis : x y z
#
# Youngs Moduli (GPa) = 83.96694 103.95336 70.16594
#
# Poissons Ratio (x) = 0.36569 0.17410
# Poissons Ratio (y) = 0.29538 0.23742
# Poissons Ratio (z) = 0.20835 0.35175
#
# Static dielectric constant tensor:
#      x y z
#    x 1.610050 0.000000 0.000000 
#    y 0.000000 1.643300 0.000000 
#    z 0.000000 0.000000 1.590540 
# 
# From -- ./inp_files/10744.got.cif
#   From: 2010.05.17/outbox.cif.g08.bks.cpg/sg74_6_cif.got.tgz:10744.got - 2010.06.03 17:57:02.
