data_PCOD9538949
_publ_section_title
;
Structure prediction by ZEFSAII (Michael W. Deem and Ramdas Pophale) SiO2 
 PCOD9538949
Probable space group: I M M A
;
_chemical_formula_sum "Si O2"
_cell_formula_units_Z 64
_cell_length_a 25.685816
_cell_length_b 20.490666
_cell_length_c 4.924921
_cell_angle_alpha 90.000000
_cell_angle_beta 90.000000
_cell_angle_gamma 90.000000
_cell_volume 2592.081843
_symmetry_space_group_name_H-M "I M M A"
_symmetry_group_IT_number 74
_symmetry_cell_setting 'orthorhombic'
loop_
_space_group_symop_operation_xyz
x,y,z
-x,1/2-y,z
x,-y,-z
-x,1/2+y,-z
-x,-y,-z
x,1/2+y,-z
-x,y,z
x,1/2-y,z
1/2+x,1/2+y,1/2+z
1/2-x,-y,1/2+z
1/2+x,1/2-y,1/2-z
1/2-x,y,1/2-z
1/2-x,1/2-y,1/2-z
1/2+x,y,1/2-z
1/2-x,1/2+y,1/2+z
1/2+x,-y,1/2+z
loop_
_atom_site_type_symbol
_atom_site_label
_atom_site_fract_x
_atom_site_fract_y
_atom_site_fract_z
Si Si1 0.692527 0.363129 0.284088
Si Si2 0.080318 0.677608 0.862948
Si Si3 0.556713 0.091436 0.849631
Si Si4 0.669098 0.055010 0.789502
O O1 0.750000 0.335193 0.250000
O O2 0.643209 0.322988 0.384470
O O3 0.692725 0.425462 0.497077
O O4 0.677661 0.382368 0.978210
O O5 0.062944 0.750000 0.787952
O O6 0.064579 0.621913 0.647572
O O7 0.059339 0.653219 0.149020
O O8 0.500000 0.060250 0.822488
O O9 0.606501 0.047709 0.765906
O O10 0.689057 0.000000 0.000000
#
# Coordination Sequence:
#
# PCOD9538949 Si02
#       4
#    16  16  16  16
#     4  10  21  37  56  80 110 143 183 228 273 327
#     4  10  21  36  55  81 111 144 184 228 274 327
#     4  10  21  36  55  81 111 144 184 228 274 327
#     4  10  21  37  56  80 110 143 183 228 273 327
#
# _framework density 24.690579
#
# number of rings (size 3 to 8) (size 9 to 14) (size 15 to 20)
#    0.000    2.000    0.000    3.000    0.000    6.000 
#    0.000    0.000    0.000   18.000    0.000    0.000 
#    0.000    0.000    0.000    0.000    0.000    0.000 
#
# Total GULP energy -178600.071497 kJ/mol
# GULP energy per Si atom -5581.252234 kJ/mol
# Density = 2.463438 g / cm^3
# Si number density = 24.690579 Si / 1000 Ang^3
#
#
#
# Elastic Constant Matrix: (Units=GPa)
#
#
# Indices 1 2 3 4 5 6 
#
# 1 178.5300 -1.3277 6.8904 0.0000 0.0000 0.0000
# 2 -1.3277 41.6824 15.9865 0.0000 0.0000 0.0000
# 3 6.8904 15.9865 140.4388 0.0000 0.0000 0.0000
# 4 0.0000 0.0000 0.0000 17.2206 0.0000 0.0000
# 5 0.0000 0.0000 0.0000 0.0000 10.9677 0.0000
# 6 0.0000 0.0000 0.0000 0.0000 0.0000 -17.4147
#
#
#
# Elastic Compliance Matrix: (Units=1/GPa)
#
#
# Indices 1 2 3 4 5 6 
#
# 1 0.005615 0.000298 -0.000309 0.000000 0.000000 0.000000
# 2 0.000298 0.025102 -0.002872 0.000000 0.000000 0.000000
# 3 -0.000309 -0.002872 0.007463 0.000000 0.000000 0.000000
# 4 0.000000 0.000000 0.000000 0.058070 0.000000 0.000000
# 5 0.000000 0.000000 0.000000 0.000000 0.091176 0.000000
# 6 0.000000 0.000000 0.000000 0.000000 0.000000 -0.057423
#
#
# Mechanical properties :
#
#
# Convention : Reuss Voigt Hill
#
# Bulk Modulus (GPa) = 30.85249 44.86107 37.85678
# Shear Modulus (GPa) = 34.11211 24.76153 29.43682
#
# Velocity S-wave (km/s) = 3.72100 3.17025 3.45661
# Velocity P-wave (km/s) = 5.56632 5.62223 5.59434
#
# Compressibility (1/GPa) = 0.03241230
#
# Stress axis : x y z
#
# Youngs Moduli (GPa) = 178.08002 39.83757 134.00076
#
# Poissons Ratio (x) = -0.01185 0.04146
# Poissons Ratio (y) = -0.05298 0.38485
# Poissons Ratio (z) = 0.05509 0.11441
#
# Static dielectric constant tensor:
#      x y z
#    x 2.044530 0.000000 0.000000 
#    y 0.000000 2.030570 0.000000 
#    z 0.000000 0.000000 1.866630 
# 
# From -- ./inp_files/3024.got.cif
#   From: 2010.05.17/outbox.cif.g08.bks.cpg/sg74_2_cif.got.tgz:3024.got - 2010.06.03 17:57:02.
