data_PCOD9538674
_publ_section_title
;
Structure prediction by ZEFSAII (Michael W. Deem and Ramdas Pophale) SiO2 
 PCOD9538674
Probable space group: I M M A
;
_chemical_formula_sum "Si O2"
_cell_formula_units_Z 100
_cell_length_a 13.938672
_cell_length_b 17.492305
_cell_length_c 21.741051
_cell_angle_alpha 90.000000
_cell_angle_beta 90.000000
_cell_angle_gamma 90.000000
_cell_volume 5300.892226
_symmetry_space_group_name_H-M "I M M A"
_symmetry_group_IT_number 74
_symmetry_cell_setting 'orthorhombic'
loop_
_space_group_symop_operation_xyz
x,y,z
-x,1/2-y,z
x,-y,-z
-x,1/2+y,-z
-x,-y,-z
x,1/2+y,-z
-x,y,z
x,1/2-y,z
1/2+x,1/2+y,1/2+z
1/2-x,-y,1/2+z
1/2+x,1/2-y,1/2-z
1/2-x,y,1/2-z
1/2-x,1/2-y,1/2-z
1/2+x,y,1/2-z
1/2-x,1/2+y,1/2+z
1/2+x,-y,1/2+z
loop_
_atom_site_type_symbol
_atom_site_label
_atom_site_fract_x
_atom_site_fract_y
_atom_site_fract_z
Si Si1 0.114217 0.463467 0.726720
Si Si2 0.885145 0.072163 0.862348
Si Si3 0.113172 0.433718 0.588376
Si Si4 0.500000 0.750000 0.810560
Si Si5 0.820298 0.364753 0.302264
Si Si6 0.267416 0.934855 0.582719
Si Si7 0.271776 0.160808 0.536544
O O1 0.147293 0.426440 0.790781
O O2 0.130344 0.422036 0.661645
O O3 0.153927 0.548672 0.718218
O O4 0.000000 0.470529 0.733001
O O5 0.835332 0.135417 0.905031
O O6 0.000000 0.077883 0.865778
O O7 0.847538 0.991283 0.889483
O O8 0.174688 0.509815 0.572198
O O9 0.162880 0.364523 0.552566
O O10 0.000000 0.442770 0.577394
O O11 0.415508 0.816120 0.809619
O O12 0.750000 0.334130 0.250000
O O13 0.764614 0.373664 0.366510
O O14 0.299347 0.892328 0.521253
O O15 0.280135 0.250000 0.523621
#
# Coordination Sequence:
#
# PCOD9538674 Si02
#       7
#    16  16  16   4  16  16  16
#     4   9  17  35  63  91 111 140 198 252 292 348
#     4  10  20  39  68  89 110 149 201 252 301 358
#     4   9  19  37  61  89 117 150 197 248 293 352
#     4  12  26  36  56  94 134 166 200 226 310 380
#     4  11  21  39  60  86 125 163 194 247 297 353
#     4  10  22  37  61  87 114 156 205 245 288 351
#     4  11  25  40  53  83 126 156 196 245 299 365
#
# _framework density 18.864747999999999
#
# number of rings (size 3 to 8) (size 9 to 14) (size 15 to 20)
#    0.000    1.920    2.400    2.160    2.240    3.200 
#    0.000    1.600    0.000    2.880    0.000    0.000 
#    0.000    0.000    0.000    0.000    0.000    0.000 
#
# Total GULP energy -278482.895381 kJ/mol
# GULP energy per Si atom -5569.657908 kJ/mol
# Density = 1.882181 g / cm^3
# Si number density = 18.864748 Si / 1000 Ang^3
#
#
#
# Elastic Constant Matrix: (Units=GPa)
#
#
# Indices 1 2 3 4 5 6 
#
# 1 52.8974 -0.1500 -9.9181 0.0000 0.0000 0.0000
# 2 -0.1500 39.9012 9.9243 0.0000 0.0000 0.0000
# 3 -9.9181 9.9243 84.9289 0.0000 0.0000 0.0000
# 4 0.0000 0.0000 0.0000 -3.5391 0.0000 0.0000
# 5 0.0000 0.0000 0.0000 0.0000 15.7618 0.0000
# 6 0.0000 0.0000 0.0000 0.0000 0.0000 28.6199
#
#
#
# Elastic Compliance Matrix: (Units=1/GPa)
#
#
# Indices 1 2 3 4 5 6 
#
# 1 0.019338 -0.000504 0.002317 0.000000 0.000000 0.000000
# 2 -0.000504 0.025825 -0.003077 0.000000 0.000000 0.000000
# 3 0.002317 -0.003077 0.012405 0.000000 0.000000 0.000000
# 4 0.000000 0.000000 0.000000 -0.282557 0.000000 0.000000
# 5 0.000000 0.000000 0.000000 0.000000 0.063444 0.000000
# 6 0.000000 0.000000 0.000000 0.000000 0.000000 0.034941
#
#
# Mechanical properties :
#
#
# Convention : Reuss Voigt Hill
#
# Bulk Modulus (GPa) = 18.16818 19.71553 18.94185
# Shear Modulus (GPa) = -47.28954 20.02661 -13.63146
#
# Velocity S-wave (km/s) = -5.01219 3.26174 -2.69102
# Velocity P-wave (km/s) = 4.88308 4.96578 0.63815
#
# Compressibility (1/GPa) = 0.05504128
#
# Stress axis : x y z
#
# Youngs Moduli (GPa) = 51.71288 38.72180 80.61482
#
# Poissons Ratio (x) = 0.01950 -0.18679
# Poissons Ratio (y) = 0.02604 0.24802
# Poissons Ratio (z) = -0.11982 0.11913
#
# Static dielectric constant tensor:
#      x y z
#    x 1.658280 0.000000 0.000000 
#    y 0.000000 1.620990 0.000000 
#    z 0.000000 0.000000 1.710610 
# 
# From -- ./inp_files/52120.got.cif
#   From: 2010.05.17/outbox.cif.g08.bks.cpg/sg74_27_cif.got.tgz:52120.got - 2010.06.03 17:57:02.
