data_PCOD9538395
_publ_section_title
;
Structure prediction by ZEFSAII (Michael W. Deem and Ramdas Pophale) SiO2 
 PCOD9538395
Probable space group: I M M A
;
_chemical_formula_sum "Si O2"
_cell_formula_units_Z 80
_cell_length_a 15.104388
_cell_length_b 15.367313
_cell_length_c 15.415539
_cell_angle_alpha 90.000000
_cell_angle_beta 90.000000
_cell_angle_gamma 90.000000
_cell_volume 3578.160232
_symmetry_space_group_name_H-M "I M M A"
_symmetry_group_IT_number 74
_symmetry_cell_setting 'orthorhombic'
loop_
_space_group_symop_operation_xyz
x,y,z
-x,1/2-y,z
x,-y,-z
-x,1/2+y,-z
-x,-y,-z
x,1/2+y,-z
-x,y,z
x,1/2-y,z
1/2+x,1/2+y,1/2+z
1/2-x,-y,1/2+z
1/2+x,1/2-y,1/2-z
1/2-x,y,1/2-z
1/2-x,1/2-y,1/2-z
1/2+x,y,1/2-z
1/2-x,1/2+y,1/2+z
1/2+x,-y,1/2+z
loop_
_atom_site_type_symbol
_atom_site_label
_atom_site_fract_x
_atom_site_fract_y
_atom_site_fract_z
Si Si1 0.890942 0.065833 0.730369
Si Si2 0.893606 0.750000 0.805519
Si Si3 0.400390 0.750000 0.168071
Si Si4 0.157837 0.250000 0.483529
Si Si5 0.392632 0.114412 0.159424
Si Si6 0.855273 0.750000 0.007673
Si Si7 0.397138 0.560810 0.425381
O O1 0.859119 0.159547 0.698524
O O2 0.860190 0.050973 0.828897
O O3 0.000000 0.066191 0.729605
O O4 0.865384 0.985091 0.670060
O O5 0.868141 0.666811 0.747339
O O6 0.859729 0.750000 0.902957
O O7 0.000000 0.750000 0.812541
O O8 0.500000 0.750000 0.206159
O O9 0.406722 0.750000 0.064543
O O10 0.145624 0.166826 0.421603
O O11 0.252365 0.250000 0.528656
O O12 0.500000 0.119788 0.152396
O O13 0.895097 0.838804 0.045009
O O14 0.356185 0.500000 0.500000
O O15 0.500000 0.533172 0.417323
#
# Coordination Sequence:
#
# PCOD9538395 Si02
#       7
#    16   8   8   8  16   8  16
#     4   9  18  34  60  88 109 141 192 248 294 335
#     4   9  17  32  58  86 111 140 185 239 291 344
#     4  10  20  37  59  83 112 149 200 243 279 336
#     4  11  24  38  53  81 120 157 193 239 290 348
#     4   9  18  36  61  86 111 146 198 250 292 335
#     4  12  23  36  55  84 125 157 186 226 293 359
#     4  10  20  37  62  89 116 147 191 242 290 347
#
# _framework density 22.357859000000001
#
# number of rings (size 3 to 8) (size 9 to 14) (size 15 to 20)
#    0.000    2.200    0.000    4.200    0.000    7.200 
#    3.600    5.000    0.000    0.000    0.000    0.000 
#    0.000    0.000    0.000    0.000    0.000    0.000 
#
# Total GULP energy -223494.994861 kJ/mol
# GULP energy per Si atom -5587.374872 kJ/mol
# Density = 2.230697 g / cm^3
# Si number density = 22.357859 Si / 1000 Ang^3
#
#
#
# Elastic Constant Matrix: (Units=GPa)
#
#
# Indices 1 2 3 4 5 6 
#
# 1 37.3292 -3.0704 -3.3501 0.0000 0.0000 0.0000
# 2 -3.0704 173.8586 53.5028 0.0000 0.0000 0.0000
# 3 -3.3501 53.5028 102.7327 0.0000 0.0000 0.0000
# 4 0.0000 0.0000 0.0000 6.4974 0.0000 0.0000
# 5 0.0000 0.0000 0.0000 0.0000 -4.1271 0.0000
# 6 0.0000 0.0000 0.0000 0.0000 0.0000 96.0212
#
#
#
# Elastic Compliance Matrix: (Units=1/GPa)
#
#
# Indices 1 2 3 4 5 6 
#
# 1 0.026876 0.000244 0.000749 0.000000 0.000000 0.000000
# 2 0.000244 0.006852 -0.003560 0.000000 0.000000 0.000000
# 3 0.000749 -0.003560 0.011613 0.000000 0.000000 0.000000
# 4 0.000000 0.000000 0.000000 0.153907 0.000000 0.000000
# 5 0.000000 0.000000 0.000000 0.000000 -0.242302 0.000000
# 6 0.000000 0.000000 0.000000 0.000000 0.000000 0.010414
#
#
# Mechanical properties :
#
#
# Convention : Reuss Voigt Hill
#
# Bulk Modulus (GPa) = 24.87168 45.34279 35.10724
# Shear Modulus (GPa) = -354.51306 37.46751 -158.52277
#
# Velocity S-wave (km/s) = -12.60584 4.09811 -8.42950
# Velocity P-wave (km/s) = 14.16785 6.53583 8.88850
#
# Compressibility (1/GPa) = 0.04020637
#
# Stress axis : x y z
#
# Youngs Moduli (GPa) = 37.20791 145.94728 86.11268
#
# Poissons Ratio (x) = -0.03562 -0.06453
# Poissons Ratio (y) = -0.00908 0.30660
# Poissons Ratio (z) = -0.02788 0.51963
#
# Static dielectric constant tensor:
#      x y z
#    x 1.852530 0.000000 0.000000 
#    y 0.000000 1.808720 0.000000 
#    z 0.000000 0.000000 1.790510 
# 
# From -- ./inp_files/34064.got.cif
#   From: 2010.05.17/outbox.cif.g08.bks.cpg/sg74_18_cif.got.tgz:34064.got - 2010.06.03 17:57:02.
