data_PCOD9538886
_publ_section_title
;
Structure prediction by ZEFSAII (Michael W. Deem and Ramdas Pophale) SiO2 
 PCOD9538886
Probable space group: I M M A
;
_chemical_formula_sum "Si O2"
_cell_formula_units_Z 88
_cell_length_a 33.949114
_cell_length_b 22.109593
_cell_length_c 5.304923
_cell_angle_alpha 90.000000
_cell_angle_beta 90.000000
_cell_angle_gamma 90.000000
_cell_volume 3981.881003
_symmetry_space_group_name_H-M "I M M A"
_symmetry_group_IT_number 74
_symmetry_cell_setting 'orthorhombic'
loop_
_space_group_symop_operation_xyz
x,y,z
-x,1/2-y,z
x,-y,-z
-x,1/2+y,-z
-x,-y,-z
x,1/2+y,-z
-x,y,z
x,1/2-y,z
1/2+x,1/2+y,1/2+z
1/2-x,-y,1/2+z
1/2+x,1/2-y,1/2-z
1/2-x,y,1/2-z
1/2-x,1/2-y,1/2-z
1/2+x,y,1/2-z
1/2-x,1/2+y,1/2+z
1/2+x,-y,1/2+z
loop_
_atom_site_type_symbol
_atom_site_label
_atom_site_fract_x
_atom_site_fract_y
_atom_site_fract_z
Si Si1 0.712383 0.318091 0.942281
Si Si2 0.709137 0.069421 0.308051
Si Si3 0.592640 0.822312 0.640868
Si Si4 0.855383 0.000000 0.500000
Si Si5 0.455651 0.177485 0.868720
Si Si6 0.347668 0.391024 0.679495
O O1 0.712964 0.250000 0.040667
O O2 0.750000 0.322791 0.750000
O O3 0.669123 0.332583 0.825185
O O4 0.713841 0.367739 0.159397
O O5 0.750000 0.036764 0.250000
O O6 0.694336 0.080706 0.589840
O O7 0.672683 0.035395 0.188957
O O8 0.602049 0.750000 0.649944
O O9 0.573017 0.841634 0.904163
O O10 0.628745 0.864194 0.556315
O O11 0.562144 0.831795 0.408508
O O12 0.871439 0.056480 0.670133
O O13 0.500000 0.152797 0.891867
O O14 0.458250 0.250000 0.900102
#
# Coordination Sequence:
#
# PCOD9538886 Si02
#       6
#    16  16  16   8  16  16
#     4  10  21  36  53  79 114 153 194 237 295 363
#     4  11  23  38  58  80 106 148 204 258 304 349
#     4  10  21  35  60  93 128 163 193 240 299 365
#     4  10  26  38  60  76 107 146 204 264 313 350
#     4   9  18  35  59  91 128 163 197 232 284 359
#     4  11  23  40  55  84 113 152 202 252 311 357
#
# _framework density 22.100110000000001
#
# number of rings (size 3 to 8) (size 9 to 14) (size 15 to 20)
#    0.000    1.818    1.818    1.636    7.636    4.000 
#    0.000    0.000    0.000    0.000    0.000    3.818 
#    0.000    0.000    0.000    0.000    0.000    0.000 
#
# Total GULP energy -245326.864700 kJ/mol
# GULP energy per Si atom -5575.610561 kJ/mol
# Density = 2.204981 g / cm^3
# Si number density = 22.100110 Si / 1000 Ang^3
#
#
#
# Elastic Constant Matrix: (Units=GPa)
#
#
# Indices 1 2 3 4 5 6 
#
# 1 67.5393 22.1224 4.6086 0.0000 0.0000 0.0000
# 2 22.1224 111.4289 32.7293 0.0000 0.0000 0.0000
# 3 4.6086 32.7293 55.7412 0.0000 0.0000 0.0000
# 4 0.0000 0.0000 0.0000 35.5228 0.0000 0.0000
# 5 0.0000 0.0000 0.0000 0.0000 24.3448 0.0000
# 6 0.0000 0.0000 0.0000 0.0000 0.0000 16.6630
#
#
#
# Elastic Compliance Matrix: (Units=1/GPa)
#
#
# Indices 1 2 3 4 5 6 
#
# 1 0.015855 -0.003339 0.000649 0.000000 0.000000 0.000000
# 2 -0.003339 0.011548 -0.006504 0.000000 0.000000 0.000000
# 3 0.000649 -0.006504 0.021705 0.000000 0.000000 0.000000
# 4 0.000000 0.000000 0.000000 0.028151 0.000000 0.000000
# 5 0.000000 0.000000 0.000000 0.000000 0.041076 0.000000
# 6 0.000000 0.000000 0.000000 0.000000 0.000000 0.060013
#
#
# Mechanical properties :
#
#
# Convention : Reuss Voigt Hill
#
# Bulk Modulus (GPa) = 32.55051 39.29223 35.92137
# Shear Modulus (GPa) = 24.15729 26.98939 25.57334
#
# Velocity S-wave (km/s) = 3.30977 3.49841 3.40539
# Velocity P-wave (km/s) = 5.41911 5.84262 5.63485
#
# Compressibility (1/GPa) = 0.03072148
#
# Stress axis : x y z
#
# Youngs Moduli (GPa) = 63.06988 86.59793 46.07131
#
# Poissons Ratio (x) = 0.28911 -0.02992
# Poissons Ratio (y) = 0.21056 0.29966
# Poissons Ratio (z) = -0.04096 0.56326
#
# Static dielectric constant tensor:
#      x y z
#    x 1.885170 0.000000 0.000000 
#    y 0.000000 1.877770 0.000000 
#    z 0.000000 0.000000 2.040680 
# 
# From -- ./inp_files/5117.got.cif
#   From: 2010.05.17/outbox.cif.g08.bks.cpg/sg74_3_cif.got.tgz:5117.got - 2010.06.03 17:57:02.
