data_PCOD9538550
_publ_section_title
;
Structure prediction by ZEFSAII (Michael W. Deem and Ramdas Pophale) SiO2 
 PCOD9538550
Probable space group: I M M A
;
_chemical_formula_sum "Si O2"
_cell_formula_units_Z 112
_cell_length_a 18.680757
_cell_length_b 31.370743
_cell_length_c 10.140083
_cell_angle_alpha 90.000000
_cell_angle_beta 90.000000
_cell_angle_gamma 90.000000
_cell_volume 5942.385001
_symmetry_space_group_name_H-M "I M M A"
_symmetry_group_IT_number 74
_symmetry_cell_setting 'orthorhombic'
loop_
_space_group_symop_operation_xyz
x,y,z
-x,1/2-y,z
x,-y,-z
-x,1/2+y,-z
-x,-y,-z
x,1/2+y,-z
-x,y,z
x,1/2-y,z
1/2+x,1/2+y,1/2+z
1/2-x,-y,1/2+z
1/2+x,1/2-y,1/2-z
1/2-x,y,1/2-z
1/2-x,1/2-y,1/2-z
1/2+x,y,1/2-z
1/2-x,1/2+y,1/2+z
1/2+x,-y,1/2+z
loop_
_atom_site_type_symbol
_atom_site_label
_atom_site_fract_x
_atom_site_fract_y
_atom_site_fract_z
Si Si1 0.413537 0.455354 0.287745
Si Si2 0.170972 0.798561 0.686887
Si Si3 0.156304 0.363322 0.863990
Si Si4 0.585101 0.361676 0.371422
Si Si5 0.583627 0.952121 0.295155
Si Si6 0.917390 0.425704 0.498866
Si Si7 0.678948 0.153547 0.924314
O O1 0.500000 0.457320 0.298946
O O2 0.390338 0.411190 0.354832
O O3 0.389129 0.501443 0.338821
O O4 0.396248 0.450362 0.132951
O O5 0.146941 0.750000 0.707631
O O6 0.250000 0.803047 0.750000
O O7 0.121042 0.832298 0.761401
O O8 0.174657 0.809390 0.531789
O O9 0.130053 0.411730 0.837970
O O10 0.238809 0.360751 0.906969
O O11 0.150311 0.338938 0.724202
O O12 0.109208 0.346409 0.984350
O O13 0.500000 0.361019 0.357860
O O14 0.500000 0.945893 0.337144
O O15 0.583930 0.951633 0.135281
O O16 0.866905 0.385419 0.518574
O O17 0.000000 0.411644 0.479725
#
# Coordination Sequence:
#
# PCOD9538550 Si02
#       7
#    16  16  16  16  16  16  16
#     4   9  17  29  52  83 113 152 202 248 292 346
#     4  11  23  42  68  93 115 148 195 248 306 367
#     4  10  21  36  57  83 124 164 196 242 291 356
#     4  11  22  38  62  91 123 158 197 248 308 357
#     4   9  17  30  51  80 116 159 204 246 286 340
#     4   9  16  29  54  82 112 152 201 250 294 344
#     4  10  20  38  62  83 120 157 199 244 297 363
#
# _framework density 18.847650999999999
#
# number of rings (size 3 to 8) (size 9 to 14) (size 15 to 20)
#    0.000    2.143    2.857    0.857    0.000    3.143 
#    0.000    4.286   28.286    0.000    0.000    0.000 
#    0.000    0.000    0.000    0.000    0.000    0.000 
#
# Total GULP energy -312321.403486 kJ/mol
# GULP energy per Si atom -5577.167919 kJ/mol
# Density = 1.880475 g / cm^3
# Si number density = 18.847651 Si / 1000 Ang^3
#
#
#
# Elastic Constant Matrix: (Units=GPa)
#
#
# Indices 1 2 3 4 5 6 
#
# 1 29.4597 12.0193 23.6242 0.0017 -0.0001 0.0003
# 2 12.0193 50.3699 32.7044 0.0038 -0.0001 0.0003
# 3 23.6242 32.7044 119.9515 0.0057 0.0002 0.0009
# 4 0.0017 0.0038 0.0057 3.7993 0.0001 0.0005
# 5 -0.0001 -0.0001 0.0002 0.0001 38.1213 0.0005
# 6 0.0003 0.0003 0.0009 0.0005 0.0005 19.1073
#
#
#
# Elastic Compliance Matrix: (Units=1/GPa)
#
#
# Indices 1 2 3 4 5 6 
#
# 1 0.041569 -0.005594 -0.006662 -0.000003 0.000000 0.000000
# 2 -0.005594 0.024876 -0.005681 -0.000014 0.000000 0.000000
# 3 -0.006662 -0.005681 0.011198 -0.000008 0.000000 0.000000
# 4 -0.000003 -0.000014 -0.000008 0.263206 -0.000001 -0.000007
# 5 0.000000 0.000000 0.000000 -0.000001 0.026232 -0.000001
# 6 0.000000 0.000000 0.000000 -0.000007 -0.000001 0.052336
#
#
# Mechanical properties :
#
#
# Convention : Reuss Voigt Hill
#
# Bulk Modulus (GPa) = 23.94050 37.38633 30.66341
# Shear Modulus (GPa) = 10.65612 20.96780 15.81196
#
# Velocity S-wave (km/s) = 2.38036 3.33902 2.89958
# Velocity P-wave (km/s) = 4.50383 5.89445 5.24543
#
# Compressibility (1/GPa) = 0.04177023
#
# Stress axis : x y z
#
# Youngs Moduli (GPa) = 24.05626 40.19881 89.30503
#
# Poissons Ratio (x) = 0.22487 0.59494
# Poissons Ratio (y) = 0.13457 0.50732
# Poissons Ratio (z) = 0.16026 0.22836
#
# Static dielectric constant tensor:
#      x y z
#    x 1.625100 0.000000 0.000000 
#    y 0.000000 1.641340 0.000000 
#    z 0.000000 0.000000 1.704490 
# 
# From -- ./inp_files/21160.got.cif
#   From: 2010.05.17/outbox.cif.g08.bks.cpg/sg74_11_cif.got.tgz:21160.got - 2010.06.03 17:57:02.
