data_PCOD9538821
_publ_section_title
;
Structure prediction by ZEFSAII (Michael W. Deem and Ramdas Pophale) SiO2 
 PCOD9538821
Probable space group: I M M A
;
_chemical_formula_sum "Si O2"
_cell_formula_units_Z 80
_cell_length_a 13.651518
_cell_length_b 26.954843
_cell_length_c 9.416986
_cell_angle_alpha 90.000000
_cell_angle_beta 90.000000
_cell_angle_gamma 90.000000
_cell_volume 3465.210945
_symmetry_space_group_name_H-M "I M M A"
_symmetry_group_IT_number 74
_symmetry_cell_setting 'orthorhombic'
loop_
_space_group_symop_operation_xyz
x,y,z
-x,1/2-y,z
x,-y,-z
-x,1/2+y,-z
-x,-y,-z
x,1/2+y,-z
-x,y,z
x,1/2-y,z
1/2+x,1/2+y,1/2+z
1/2-x,-y,1/2+z
1/2+x,1/2-y,1/2-z
1/2-x,y,1/2-z
1/2-x,1/2-y,1/2-z
1/2+x,y,1/2-z
1/2-x,1/2+y,1/2+z
1/2+x,-y,1/2+z
loop_
_atom_site_type_symbol
_atom_site_label
_atom_site_fract_x
_atom_site_fract_y
_atom_site_fract_z
Si Si1 0.312947 0.303553 0.975242
Si Si2 0.309291 0.586679 0.947262
Si Si3 0.389649 0.454569 0.329417
Si Si4 0.887023 0.436784 0.749580
Si Si5 0.610746 0.674724 0.338344
O O1 0.336727 0.250000 0.040606
O O2 0.367997 0.307725 0.823109
O O3 0.197584 0.305416 0.935616
O O4 0.333207 0.354599 0.056804
O O5 0.379443 0.558283 0.837860
O O6 0.198946 0.575618 0.897619
O O7 0.323953 0.567893 0.107325
O O8 0.500000 0.443810 0.380257
O O9 0.369857 0.513416 0.337720
O O10 0.878126 0.384794 0.830277
O O11 0.000000 0.439865 0.702108
O O12 0.500000 0.687301 0.379488
#
# Coordination Sequence:
#
# PCOD9538821 Si02
#       5
#    16  16  16  16  16
#     4  10  21  35  52  77 106 138 178 221 263 305
#     4  10  21  35  56  78 103 139 177 216 258 308
#     4  10  21  37  56  80 109 140 174 212 254 307
#     4   9  18  34  57  82 108 137 169 207 256 316
#     4   9  18  33  54  82 111 135 165 211 266 322
#
# _framework density 23.08662
#
# number of rings (size 3 to 8) (size 9 to 14) (size 15 to 20)
#    0.000    2.400    0.000    2.400    0.000   12.800 
#    0.000    2.000    0.000   15.600    0.000    0.000 
#    0.000    0.000    0.000    0.000    0.000    0.000 
#
# Total GULP energy -223892.478945 kJ/mol
# GULP energy per Si atom -5597.311974 kJ/mol
# Density = 2.303407 g / cm^3
# Si number density = 23.086620 Si / 1000 Ang^3
#
#
#
# Elastic Constant Matrix: (Units=GPa)
#
#
# Indices 1 2 3 4 5 6 
#
# 1 81.8824 6.2767 8.1482 0.0003 -0.0001 -0.0002
# 2 6.2767 156.5014 12.2142 0.0003 -0.0001 -0.0001
# 3 8.1482 12.2142 37.1220 0.0004 -0.0016 -0.0006
# 4 0.0003 0.0003 0.0004 10.9845 -0.0005 0.0001
# 5 -0.0001 -0.0001 -0.0016 -0.0005 23.2291 0.0003
# 6 -0.0002 -0.0001 -0.0006 0.0001 0.0003 12.9400
#
#
#
# Elastic Compliance Matrix: (Units=1/GPa)
#
#
# Indices 1 2 3 4 5 6 
#
# 1 0.012499 -0.000295 -0.002646 0.000000 0.000000 0.000000
# 2 -0.000295 0.006565 -0.002095 0.000000 0.000000 0.000000
# 3 -0.002646 -0.002095 0.028209 -0.000001 0.000002 0.000001
# 4 0.000000 0.000000 -0.000001 0.091037 0.000002 -0.000001
# 5 0.000000 0.000000 0.000002 0.000002 0.043049 -0.000001
# 6 0.000000 0.000000 0.000001 -0.000001 -0.000001 0.077280
#
#
# Mechanical properties :
#
#
# Convention : Reuss Voigt Hill
#
# Bulk Modulus (GPa) = 26.88238 36.53153 31.70696
# Shear Modulus (GPa) = 17.78652 26.02184 21.90418
#
# Velocity S-wave (km/s) = 2.77867 3.36093 3.08357
# Velocity P-wave (km/s) = 4.68658 5.56050 5.14214
#
# Compressibility (1/GPa) = 0.03719908
#
# Stress axis : x y z
#
# Youngs Moduli (GPa) = 80.00913 152.32112 35.45024
#
# Poissons Ratio (x) = 0.04489 0.09382
# Poissons Ratio (y) = 0.02358 0.07428
# Poissons Ratio (z) = 0.21174 0.31917
#
# Static dielectric constant tensor:
#      x y z
#    x 1.884270 0.000000 0.000000 
#    y 0.000000 1.874380 0.000000 
#    z 0.000000 0.000000 1.880130 
# 
# From -- ./inp_files/20793.got.cif
#   From: 2010.05.17/outbox.cif.g08.bks.cpg/sg74_11_cif.got.tgz:20793.got - 2010.06.03 17:57:02.
