data_PCOD9538926
_publ_section_title
;
Structure prediction by ZEFSAII (Michael W. Deem and Ramdas Pophale) SiO2 
 PCOD9538926
Probable space group: I M M A
;
_chemical_formula_sum "Si O2"
_cell_formula_units_Z 48
_cell_length_a 18.088838
_cell_length_b 5.301519
_cell_length_c 25.467554
_cell_angle_alpha 90.000000
_cell_angle_beta 90.000000
_cell_angle_gamma 90.000000
_cell_volume 2442.295601
_symmetry_space_group_name_H-M "I M M A"
_symmetry_group_IT_number 74
_symmetry_cell_setting 'orthorhombic'
loop_
_space_group_symop_operation_xyz
x,y,z
-x,1/2-y,z
x,-y,-z
-x,1/2+y,-z
-x,-y,-z
x,1/2+y,-z
-x,y,z
x,1/2-y,z
1/2+x,1/2+y,1/2+z
1/2-x,-y,1/2+z
1/2+x,1/2-y,1/2-z
1/2-x,y,1/2-z
1/2-x,1/2-y,1/2-z
1/2+x,y,1/2-z
1/2-x,1/2+y,1/2+z
1/2+x,-y,1/2+z
loop_
_atom_site_type_symbol
_atom_site_label
_atom_site_fract_x
_atom_site_fract_y
_atom_site_fract_z
Si Si1 0.587346 0.750000 0.804592
Si Si2 0.818115 0.750000 0.792117
Si Si3 0.307947 0.250000 0.636551
Si Si4 0.914527 0.750000 0.477375
Si Si5 0.138221 0.750000 0.363754
Si Si6 0.911930 0.250000 0.965342
O O1 0.500000 0.750000 0.813033
O O2 0.609122 0.750000 0.743793
O O3 0.621469 0.499848 0.830582
O O4 0.750000 0.750000 0.750000
O O5 0.816316 0.499810 0.827583
O O6 0.222895 0.250000 0.618024
O O7 0.363875 0.250000 0.587729
O O8 0.878353 0.500000 0.500000
O O9 0.911945 0.750000 0.415229
O O10 0.000000 0.750000 0.496202
O O11 0.000000 0.250000 0.952911
O O12 0.896636 0.500000 0.000000
#
# Coordination Sequence:
#
# PCOD9538926 Si02
#       6
#     8   8   8   8   8   8
#     4  12  25  40  63  89 122 166 208 253 312 380
#     4  12  23  43  63  91 130 166 211 268 323 375
#     4  12  24  40  70  94 125 171 212 259 325 386
#     4  10  21  36  54  78 111 150 193 244 293 345
#     4  12  23  40  61  89 122 161 205 259 311 373
#     4  10  23  44  68  98 137 173 214 274 335 392
#
# _framework density 19.653642000000001
#
# number of rings (size 3 to 8) (size 9 to 14) (size 15 to 20)
#    0.000    0.667    3.333    5.000    0.000    4.000 
#    0.000    0.000    0.000    0.000    0.000    0.000 
#    0.000    0.000    0.000    0.000    0.000    0.000 
#
# Total GULP energy -134162.543229 kJ/mol
# GULP energy per Si atom -5590.105968 kJ/mol
# Density = 1.960891 g / cm^3
# Si number density = 19.653642 Si / 1000 Ang^3
#
#
#
# Elastic Constant Matrix: (Units=GPa)
#
#
# Indices 1 2 3 4 5 6 
#
# 1 93.3094 45.7012 50.1877 0.0000 0.0000 0.0000
# 2 45.7012 215.4167 81.6877 0.0000 0.0000 0.0000
# 3 50.1877 81.6877 113.5712 0.0000 0.0000 0.0000
# 4 0.0000 0.0000 0.0000 34.5412 0.0000 0.0000
# 5 0.0000 0.0000 0.0000 0.0000 37.4714 0.0000
# 6 0.0000 0.0000 0.0000 0.0000 0.0000 -55.6858
#
#
#
# Elastic Compliance Matrix: (Units=1/GPa)
#
#
# Indices 1 2 3 4 5 6 
#
# 1 0.014176 -0.000869 -0.005639 0.000000 0.000000 0.000000
# 2 -0.000869 0.006436 -0.004246 0.000000 0.000000 0.000000
# 3 -0.005639 -0.004246 0.014351 0.000000 0.000000 0.000000
# 4 0.000000 0.000000 0.000000 0.028951 0.000000 0.000000
# 5 0.000000 0.000000 0.000000 0.000000 0.026687 0.000000
# 6 0.000000 0.000000 0.000000 0.000000 0.000000 -0.017958
#
#
# Mechanical properties :
#
#
# Convention : Reuss Voigt Hill
#
# Bulk Modulus (GPa) = 74.31968 86.38337 80.35153
# Shear Modulus (GPa) = 50.69147 19.58007 35.13577
#
# Velocity S-wave (km/s) = 5.08413 3.15978 4.23276
# Velocity P-wave (km/s) = 8.50655 7.57367 8.05363
#
# Compressibility (1/GPa) = 0.01345539
#
# Stress axis : x y z
#
# Youngs Moduli (GPa) = 70.54254 155.36528 69.68272
#
# Poissons Ratio (x) = 0.13500 0.39297
# Poissons Ratio (y) = 0.06130 0.29584
# Poissons Ratio (z) = 0.39782 0.65961
#
# Static dielectric constant tensor:
#      x y z
#    x 1.707210 0.000000 0.000000 
#    y 0.000000 1.711950 0.000000 
#    z 0.000000 0.000000 1.654790 
# 
# From -- ./inp_files/60502.got.cif
#   From: 2010.05.17/outbox.cif.g08.bks.cpg/sg74_31_cif.got.tgz:60502.got - 2010.06.03 17:57:02.
