data_PCOD9538004
_publ_section_title
;
Structure prediction by ZEFSAII (Michael W. Deem and Ramdas Pophale) SiO2 
 PCOD9538004
Probable space group: I M M A
;
_chemical_formula_sum "Si O2"
_cell_formula_units_Z 112
_cell_length_a 22.477349
_cell_length_b 20.690636
_cell_length_c 11.486420
_cell_angle_alpha 90.000000
_cell_angle_beta 90.000000
_cell_angle_gamma 90.000000
_cell_volume 5341.996774
_symmetry_space_group_name_H-M "I M M A"
_symmetry_group_IT_number 74
_symmetry_cell_setting 'orthorhombic'
loop_
_space_group_symop_operation_xyz
x,y,z
-x,1/2-y,z
x,-y,-z
-x,1/2+y,-z
-x,-y,-z
x,1/2+y,-z
-x,y,z
x,1/2-y,z
1/2+x,1/2+y,1/2+z
1/2-x,-y,1/2+z
1/2+x,1/2-y,1/2-z
1/2-x,y,1/2-z
1/2-x,1/2-y,1/2-z
1/2+x,y,1/2-z
1/2-x,1/2+y,1/2+z
1/2+x,-y,1/2+z
loop_
_atom_site_type_symbol
_atom_site_label
_atom_site_fract_x
_atom_site_fract_y
_atom_site_fract_z
Si Si1 0.653488 0.550794 0.267928
Si Si2 0.431647 0.180995 0.109851
Si Si3 0.731116 0.824779 0.618139
Si Si4 0.088550 0.680234 0.883348
Si Si5 0.765147 0.935475 0.435299
Si Si6 0.929198 0.540332 0.618580
Si Si7 0.433858 0.567011 0.447216
O O1 0.707077 0.540797 0.360778
O O2 0.685449 0.583609 0.159096
O O3 0.614172 0.491225 0.215749
O O4 0.606092 0.591041 0.341446
O O5 0.500000 0.180803 0.068028
O O6 0.404005 0.250000 0.074506
O O7 0.431771 0.180006 0.250196
O O8 0.405486 0.111361 0.082783
O O9 0.750877 0.750000 0.596380
O O10 0.750000 0.842103 0.750000
O O11 0.659744 0.824526 0.616058
O O12 0.751729 0.877722 0.524369
O O13 0.071555 0.750000 0.934373
O O14 0.064871 0.620095 0.953565
O O15 0.786333 0.000000 0.500000
O O16 0.929186 0.500000 0.500000
O O17 0.000000 0.544644 0.656162
O O18 0.409059 0.500000 0.500000
O O19 0.500000 0.552443 0.405068
#
# Coordination Sequence:
#
# PCOD9538004 Si02
#       7
#    16  16  16  16  16  16  16
#     4  11  23  39  58  88 124 164 210 253 315 381
#     4   9  18  33  57  89 121 159 205 258 319 371
#     4  10  23  42  65  92 122 160 213 273 325 375
#     4  10  20  35  57  87 123 156 193 253 317 372
#     4  11  25  40  62  91 123 170 208 260 319 381
#     4  10  21  37  60  89 125 167 211 265 318 378
#     4  11  22  36  60  90 123 163 205 257 307 368
#
# _framework density 20.965941999999998
#
# number of rings (size 3 to 8) (size 9 to 14) (size 15 to 20)
#    0.000    1.714    1.429    2.571    4.000    4.286 
#    0.000    2.143    0.000    1.714    0.000    2.000 
#    0.000    0.000    0.000    0.000    0.000    0.000 
#
# Total GULP energy -312489.446022 kJ/mol
# GULP energy per Si atom -5580.168679 kJ/mol
# Density = 2.091822 g / cm^3
# Si number density = 20.965942 Si / 1000 Ang^3
#
#
#
# Elastic Constant Matrix: (Units=GPa)
#
#
# Indices 1 2 3 4 5 6 
#
# 1 94.7292 15.3913 33.7864 0.0000 0.0000 0.0000
# 2 15.3913 140.2087 46.6193 0.0000 0.0000 0.0000
# 3 33.7864 46.6193 85.7091 0.0000 0.0000 0.0000
# 4 0.0000 0.0000 0.0000 31.2200 0.0000 0.0000
# 5 0.0000 0.0000 0.0000 0.0000 46.2777 0.0000
# 6 0.0000 0.0000 0.0000 0.0000 0.0000 2.9620
#
#
#
# Elastic Compliance Matrix: (Units=1/GPa)
#
#
# Indices 1 2 3 4 5 6 
#
# 1 0.012295 0.000320 -0.005021 0.000000 0.000000 0.000000
# 2 0.000320 0.008715 -0.004866 0.000000 0.000000 0.000000
# 3 -0.005021 -0.004866 0.016293 0.000000 0.000000 0.000000
# 4 0.000000 0.000000 0.000000 0.032031 0.000000 0.000000
# 5 0.000000 0.000000 0.000000 0.000000 0.021609 0.000000
# 6 0.000000 0.000000 0.000000 0.000000 0.000000 0.337605
#
#
# Mechanical properties :
#
#
# Convention : Reuss Voigt Hill
#
# Bulk Modulus (GPa) = 55.03857 56.91565 55.97711
# Shear Modulus (GPa) = 11.01954 31.08195 21.05075
#
# Velocity S-wave (km/s) = 2.29507 3.85450 3.17210
# Velocity P-wave (km/s) = 5.77335 6.85676 6.33825
#
# Compressibility (1/GPa) = 0.01816908
#
# Stress axis : x y z
#
# Youngs Moduli (GPa) = 81.33301 114.74186 61.37439
#
# Poissons Ratio (x) = -0.03668 0.30814
# Poissons Ratio (y) = -0.02600 0.29867
# Poissons Ratio (z) = 0.40834 0.55838
#
# Static dielectric constant tensor:
#      x y z
#    x 1.833140 0.000000 0.000000 
#    y 0.000000 1.769430 0.000000 
#    z 0.000000 0.000000 1.744130 
# 
# From -- ./inp_files/25402.got.cif
#   From: 2010.05.17/outbox.cif.g08.bks.cpg/sg74_13_cif.got.tgz:25402.got - 2010.06.03 17:57:02.
