data_PCOD9538003
_publ_section_title
;
Structure prediction by ZEFSAII (Michael W. Deem and Ramdas Pophale) SiO2 
 PCOD9538003
Probable space group: I M M A
;
_chemical_formula_sum "Si O2"
_cell_formula_units_Z 56
_cell_length_a 23.071521
_cell_length_b 8.667196
_cell_length_c 14.476129
_cell_angle_alpha 90.000000
_cell_angle_beta 90.000000
_cell_angle_gamma 90.000000
_cell_volume 2894.724847
_symmetry_space_group_name_H-M "I M M A"
_symmetry_group_IT_number 74
_symmetry_cell_setting 'orthorhombic'
loop_
_space_group_symop_operation_xyz
x,y,z
-x,1/2-y,z
x,-y,-z
-x,1/2+y,-z
-x,-y,-z
x,1/2+y,-z
-x,y,z
x,1/2-y,z
1/2+x,1/2+y,1/2+z
1/2-x,-y,1/2+z
1/2+x,1/2-y,1/2-z
1/2-x,y,1/2-z
1/2-x,1/2-y,1/2-z
1/2+x,y,1/2-z
1/2-x,1/2+y,1/2+z
1/2+x,-y,1/2+z
loop_
_atom_site_type_symbol
_atom_site_label
_atom_site_fract_x
_atom_site_fract_y
_atom_site_fract_z
Si Si1 0.000000 0.065769 0.396558
Si Si2 0.227888 0.924243 0.644465
Si Si3 0.611733 0.066729 0.793281
Si Si4 0.146887 0.936349 0.904809
O O1 0.000000 0.250000 0.399466
O O2 0.000000 0.000000 0.500000
O O3 0.943443 0.006127 0.342915
O O4 0.215240 0.750000 0.611076
O O5 0.250000 0.911621 0.750000
O O6 0.285467 0.988786 0.597082
O O7 0.169604 0.021948 0.649054
O O8 0.606441 0.250000 0.788047
O O9 0.618977 0.998857 0.689631
O O10 0.146242 0.750000 0.902946
O O11 0.120580 0.000000 0.000000
#
# Coordination Sequence:
#
# PCOD9538003 Si02
#       4
#     8  16  16  16
#     4  12  26  46  67  86 111 146 192 242 292 344
#     4   8  16  32  53  79 114 153 191 232 280 332
#     4  11  22  38  60  87 119 154 194 240 292 346
#     4  10  20  35  57  87 122 159 197 238 287 344
#
# _framework density 19.345534000000001
#
# number of rings (size 3 to 8) (size 9 to 14) (size 15 to 20)
#    0.000    2.000    0.000    6.429    0.000    7.429 
#    0.000    3.571    0.000    0.000    0.000    0.000 
#    0.000    0.000    0.000    0.000    0.000    0.000 
#
# Total GULP energy -156258.626643 kJ/mol
# GULP energy per Si atom -5580.665237 kJ/mol
# Density = 1.930150 g / cm^3
# Si number density = 19.345534 Si / 1000 Ang^3
#
#
#
# Elastic Constant Matrix: (Units=GPa)
#
#
# Indices 1 2 3 4 5 6 
#
# 1 130.3628 74.3483 70.2437 0.0000 0.0000 0.0000
# 2 74.3483 131.5827 51.1208 0.0000 0.0000 0.0000
# 3 70.2437 51.1208 140.2949 0.0000 0.0000 0.0000
# 4 0.0000 0.0000 0.0000 28.6086 0.0000 0.0000
# 5 0.0000 0.0000 0.0000 0.0000 19.9714 0.0000
# 6 0.0000 0.0000 0.0000 0.0000 0.0000 16.2455
#
#
#
# Elastic Compliance Matrix: (Units=1/GPa)
#
#
# Indices 1 2 3 4 5 6 
#
# 1 0.013486 -0.005821 -0.004631 0.000000 0.000000 0.000000
# 2 -0.005821 0.011365 -0.001227 0.000000 0.000000 0.000000
# 3 -0.004631 -0.001227 0.009894 0.000000 0.000000 0.000000
# 4 0.000000 0.000000 0.000000 0.034955 0.000000 0.000000
# 5 0.000000 0.000000 0.000000 0.000000 0.050072 0.000000
# 6 0.000000 0.000000 0.000000 0.000000 0.000000 0.061555
#
#
# Mechanical properties :
#
#
# Convention : Reuss Voigt Hill
#
# Bulk Modulus (GPa) = 87.81827 88.18512 88.00170
# Shear Modulus (GPa) = 23.98304 26.73361 25.35833
#
# Velocity S-wave (km/s) = 3.52479 3.72143 3.62444
# Velocity P-wave (km/s) = 7.87773 8.00928 7.94378
#
# Compressibility (1/GPa) = 0.01138715
#
# Stress axis : x y z
#
# Youngs Moduli (GPa) = 74.15044 87.98658 101.07379
#
# Poissons Ratio (x) = 0.51215 0.46811
# Poissons Ratio (y) = 0.43161 0.12401
# Poissons Ratio (z) = 0.34342 0.10796
#
# Static dielectric constant tensor:
#      x y z
#    x 1.667750 0.000000 0.000000 
#    y 0.000000 1.657380 0.000000 
#    z 0.000000 0.000000 1.707130 
# 
# From -- ./inp_files/28495.got.cif
#   From: 2010.05.17/outbox.cif.g08.bks.cpg/sg74_15_cif.got.tgz:28495.got - 2010.06.03 17:57:02.
