data_PCOD9538133
_publ_section_title
;
Structure prediction by ZEFSAII (Michael W. Deem and Ramdas Pophale) SiO2 
 PCOD9538133
Probable space group: I M M A
;
_chemical_formula_sum "Si O2"
_cell_formula_units_Z 80
_cell_length_a 18.812475
_cell_length_b 26.908754
_cell_length_c 8.280580
_cell_angle_alpha 90.000000
_cell_angle_beta 90.000000
_cell_angle_gamma 90.000000
_cell_volume 4191.797376
_symmetry_space_group_name_H-M "I M M A"
_symmetry_group_IT_number 74
_symmetry_cell_setting 'orthorhombic'
loop_
_space_group_symop_operation_xyz
x,y,z
-x,1/2-y,z
x,-y,-z
-x,1/2+y,-z
-x,-y,-z
x,1/2+y,-z
-x,y,z
x,1/2-y,z
1/2+x,1/2+y,1/2+z
1/2-x,-y,1/2+z
1/2+x,1/2-y,1/2-z
1/2-x,y,1/2-z
1/2-x,1/2-y,1/2-z
1/2+x,y,1/2-z
1/2-x,1/2+y,1/2+z
1/2+x,-y,1/2+z
loop_
_atom_site_type_symbol
_atom_site_label
_atom_site_fract_x
_atom_site_fract_y
_atom_site_fract_z
Si Si1 0.668897 0.448200 0.198450
Si Si2 0.831399 0.058164 0.691638
Si Si3 0.419818 0.145466 0.222506
Si Si4 0.165307 0.750000 0.222468
Si Si5 0.914275 0.750000 0.887267
Si Si6 0.418344 0.653329 0.166155
O O1 0.750000 0.445513 0.250000
O O2 0.643138 0.503431 0.246936
O O3 0.628025 0.401210 0.270116
O O4 0.667214 0.444187 0.003742
O O5 0.750000 0.065449 0.750000
O O6 0.881372 0.104107 0.738272
O O7 0.500000 0.135661 0.277485
O O8 0.399624 0.199530 0.288755
O O9 0.420028 0.147949 0.027873
O O10 0.250000 0.750000 0.250000
O O11 0.129389 0.700923 0.296365
O O12 0.137949 0.750000 0.038769
O O13 0.000000 0.750000 0.926967
O O14 0.500000 0.659631 0.222106
#
# Coordination Sequence:
#
# PCOD9538133 Si02
#       6
#    16  16  16   8   8  16
#     4   9  18  32  52  77 107 140 172 213 261 307
#     4   9  18  33  52  77 107 139 175 213 256 308
#     4   9  19  35  56  79 105 137 176 218 262 311
#     4  12  25  38  54  78 106 138 175 216 260 314
#     4  10  21  38  57  78 105 138 173 216 264 310
#     4  10  20  36  56  78 105 138 174 216 262 310
#
# _framework density 19.084892
#
# number of rings (size 3 to 8) (size 9 to 14) (size 15 to 20)
#    0.000    2.400    0.000    2.100    0.000    7.200 
#    0.000    5.500    0.000    0.000    0.000    9.800 
#    0.000    0.000    0.000    0.000    0.000    0.000 
#
# Total GULP energy -223061.303731 kJ/mol
# GULP energy per Si atom -5576.532593 kJ/mol
# Density = 1.904145 g / cm^3
# Si number density = 19.084892 Si / 1000 Ang^3
#
#
#
# Elastic Constant Matrix: (Units=GPa)
#
#
# Indices 1 2 3 4 5 6 
#
# 1 115.6574 107.1447 16.1800 0.0000 0.0000 0.0000
# 2 107.1447 207.9532 19.3039 0.0000 0.0000 0.0000
# 3 16.1800 19.3039 13.9762 0.0000 0.0000 0.0000
# 4 0.0000 0.0000 0.0000 4.7239 0.0000 0.0000
# 5 0.0000 0.0000 0.0000 0.0000 23.2182 0.0000
# 6 0.0000 0.0000 0.0000 0.0000 0.0000 -32.7707
#
#
#
# Elastic Compliance Matrix: (Units=1/GPa)
#
#
# Indices 1 2 3 4 5 6 
#
# 1 0.017463 -0.008168 -0.008935 0.000000 0.000000 0.000000
# 2 -0.008168 0.009337 -0.003439 0.000000 0.000000 0.000000
# 3 -0.008935 -0.003439 0.086644 0.000000 0.000000 0.000000
# 4 0.000000 0.000000 0.000000 0.211690 0.000000 0.000000
# 5 0.000000 0.000000 0.000000 0.000000 0.043070 0.000000
# 6 0.000000 0.000000 0.000000 0.000000 0.000000 -0.030515
#
#
# Mechanical properties :
#
#
# Convention : Reuss Voigt Hill
#
# Bulk Modulus (GPa) = 13.82000 69.20490 41.51245
# Shear Modulus (GPa) = 12.41021 12.03149 12.22085
#
# Velocity S-wave (km/s) = 2.55279 2.51354 2.53324
# Velocity P-wave (km/s) = 3.99325 6.69060 5.50955
#
# Compressibility (1/GPa) = 0.07235888
#
# Stress axis : x y z
#
# Youngs Moduli (GPa) = 57.26312 107.10513 11.54145
#
# Poissons Ratio (x) = 0.87486 0.10312
# Poissons Ratio (y) = 0.46774 0.03970
# Poissons Ratio (z) = 0.51164 0.36838
#
# Static dielectric constant tensor:
#      x y z
#    x 1.638950 0.000000 0.000000 
#    y 0.000000 1.688800 0.000000 
#    z 0.000000 0.000000 1.684400 
# 
# From -- ./inp_files/10995.got.cif
#   From: 2010.05.17/outbox.cif.g08.bks.cpg/sg74_6_cif.got.tgz:10995.got - 2010.06.03 17:57:02.
