data_PCOD9538850
_publ_section_title
;
Structure prediction by ZEFSAII (Michael W. Deem and Ramdas Pophale) SiO2 
 PCOD9538850
Probable space group: I M M A
;
_chemical_formula_sum "Si O2"
_cell_formula_units_Z 128
_cell_length_a 17.309479
_cell_length_b 21.914283
_cell_length_c 19.443717
_cell_angle_alpha 90.000000
_cell_angle_beta 90.000000
_cell_angle_gamma 90.000000
_cell_volume 7375.484478
_symmetry_space_group_name_H-M "I M M A"
_symmetry_group_IT_number 74
_symmetry_cell_setting 'orthorhombic'
loop_
_space_group_symop_operation_xyz
x,y,z
-x,1/2-y,z
x,-y,-z
-x,1/2+y,-z
-x,-y,-z
x,1/2+y,-z
-x,y,z
x,1/2-y,z
1/2+x,1/2+y,1/2+z
1/2-x,-y,1/2+z
1/2+x,1/2-y,1/2-z
1/2-x,y,1/2-z
1/2-x,1/2-y,1/2-z
1/2+x,y,1/2-z
1/2-x,1/2+y,1/2+z
1/2+x,-y,1/2+z
loop_
_atom_site_type_symbol
_atom_site_label
_atom_site_fract_x
_atom_site_fract_y
_atom_site_fract_z
Si Si1 0.907997 0.181302 0.971235
Si Si2 0.842304 0.883835 0.395530
Si Si3 0.092104 0.488997 0.336729
Si Si4 0.591596 0.996089 0.677299
Si Si5 0.332137 0.625830 0.344270
Si Si6 0.652433 0.939929 0.545663
Si Si7 0.914531 0.321430 0.721605
Si Si8 0.336719 0.063116 0.037556
O O1 0.881902 0.250000 0.990841
O O2 0.884722 0.168257 0.892532
O O3 0.000000 0.179038 0.978614
O O4 0.872583 0.123612 0.011368
O O5 0.753729 0.872014 0.374281
O O6 0.895794 0.835386 0.357337
O O7 0.850680 0.887533 0.477742
O O8 0.866670 0.948862 0.362044
O O9 0.110531 0.479478 0.256269
O O10 0.120224 0.436880 0.389637
O O11 0.000000 0.496674 0.342858
O O12 0.500000 0.008045 0.673702
O O13 0.637772 0.056617 0.655194
O O14 0.614781 0.946779 0.620435
O O15 0.348012 0.648139 0.267221
O O16 0.745145 0.940872 0.550488
O O17 0.629781 0.000000 0.500000
O O18 0.914625 0.250000 0.734481
O O19 0.000000 0.346855 0.739072
O O20 0.360891 0.000000 0.000000
#
# Coordination Sequence:
#
# PCOD9538850 Si02
#       8
#    16  16  16  16  16  16  16  16
#     4  11  23  37  55  81 114 154 193 229 277 337
#     4  11  21  35  54  77 107 146 191 233 279 334
#     4  10  21  35  54  82 113 144 182 235 293 343
#     4  11  21  32  54  84 113 146 186 227 280 341
#     4  12  21  35  55  79 114 152 189 230 275 333
#     4  11  20  36  56  82 115 150 188 235 281 338
#     4  11  24  38  52  75 110 153 200 240 275 326
#     4   9  19  35  53  78 107 140 185 231 283 335
#
# _framework density 17.354792
#
# number of rings (size 3 to 8) (size 9 to 14) (size 15 to 20)
#    0.000    1.250    3.750    4.125    0.000    7.250 
#    0.000    0.000    0.000    0.000    0.000    2.625 
#    0.000    4.000    0.000    0.000    0.000    0.000 
#
# Total GULP energy -357101.796645 kJ/mol
# GULP energy per Si atom -5579.715573 kJ/mol
# Density = 1.731529 g / cm^3
# Si number density = 17.354792 Si / 1000 Ang^3
#
#
#
# Elastic Constant Matrix: (Units=GPa)
#
#
# Indices 1 2 3 4 5 6 
#
# 1 36.4277 10.7925 22.3717 0.0000 0.0000 0.0000
# 2 10.7925 61.8862 27.4870 0.0000 0.0000 0.0001
# 3 22.3717 27.4870 92.0079 0.0000 0.0000 0.0001
# 4 0.0000 0.0000 0.0000 15.6548 0.0000 0.0001
# 5 0.0000 0.0000 0.0000 0.0000 24.3166 0.0000
# 6 0.0000 0.0001 0.0001 0.0001 0.0000 116.3716
#
#
#
# Elastic Compliance Matrix: (Units=1/GPa)
#
#
# Indices 1 2 3 4 5 6 
#
# 1 0.032601 -0.002496 -0.007181 0.000000 0.000000 0.000000
# 2 -0.002496 0.018822 -0.005016 0.000000 0.000000 0.000000
# 3 -0.007181 -0.005016 0.014113 0.000000 0.000000 0.000000
# 4 0.000000 0.000000 0.000000 0.063878 0.000000 0.000000
# 5 0.000000 0.000000 0.000000 0.000000 0.041124 0.000000
# 6 0.000000 0.000000 0.000000 0.000000 0.000000 0.008593
#
#
# Mechanical properties :
#
#
# Convention : Reuss Voigt Hill
#
# Bulk Modulus (GPa) = 27.66251 34.62491 31.14371
# Shear Modulus (GPa) = 22.66868 39.91332 31.29100
#
# Velocity S-wave (km/s) = 3.61805 4.80087 4.25080
# Velocity P-wave (km/s) = 5.78167 7.12220 6.48665
#
# Compressibility (1/GPa) = 0.03615001
#
# Stress axis : x y z
#
# Youngs Moduli (GPa) = 30.67349 53.12971 70.85498
#
# Poissons Ratio (x) = 0.13260 0.50884
# Poissons Ratio (y) = 0.07655 0.35542
# Poissons Ratio (z) = 0.22028 0.26650
#
# Static dielectric constant tensor:
#      x y z
#    x 1.597590 0.000000 0.000000 
#    y 0.000000 1.592910 0.000000 
#    z 0.000000 0.000000 1.623920 
# 
# From -- ./inp_files/53441.got.cif
#   From: 2010.05.17/outbox.cif.g08.bks.cpg/sg74_27_cif.got.tgz:53441.got - 2010.06.03 17:57:02.
