data_PCOD9538689
_publ_section_title
;
Structure prediction by ZEFSAII (Michael W. Deem and Ramdas Pophale) SiO2 
 PCOD9538689
Probable space group: I M M A
;
_chemical_formula_sum "Si O2"
_cell_formula_units_Z 88
_cell_length_a 27.269109
_cell_length_b 8.986280
_cell_length_c 19.616586
_cell_angle_alpha 90.000000
_cell_angle_beta 90.000000
_cell_angle_gamma 90.000000
_cell_volume 4807.002201
_symmetry_space_group_name_H-M "I M M A"
_symmetry_group_IT_number 74
_symmetry_cell_setting 'orthorhombic'
loop_
_space_group_symop_operation_xyz
x,y,z
-x,1/2-y,z
x,-y,-z
-x,1/2+y,-z
-x,-y,-z
x,1/2+y,-z
-x,y,z
x,1/2-y,z
1/2+x,1/2+y,1/2+z
1/2-x,-y,1/2+z
1/2+x,1/2-y,1/2-z
1/2-x,y,1/2-z
1/2-x,1/2-y,1/2-z
1/2+x,y,1/2-z
1/2-x,1/2+y,1/2+z
1/2+x,-y,1/2+z
loop_
_atom_site_type_symbol
_atom_site_label
_atom_site_fract_x
_atom_site_fract_y
_atom_site_fract_z
Si Si1 0.500000 0.071082 0.425439
Si Si2 0.559002 0.423806 0.071172
Si Si3 0.720745 0.073906 0.179114
Si Si4 0.805398 0.571014 0.925749
Si Si5 0.615792 0.572847 0.195072
Si Si6 0.597284 0.570399 0.659117
O O1 0.500000 0.250000 0.432727
O O2 0.451294 0.030021 0.383204
O O3 0.500000 0.000000 0.500000
O O4 0.500000 0.433245 0.076135
O O5 0.572801 0.250000 0.071201
O O6 0.583025 0.506464 0.134614
O O7 0.573793 0.500000 0.000000
O O8 0.708638 0.250000 0.172444
O O9 0.750000 0.057040 0.250000
O O10 0.757555 0.030715 0.118432
O O11 0.671380 0.980439 0.181882
O O12 0.805982 0.750000 0.931834
O O13 0.854189 0.528722 0.883646
O O14 0.805242 0.500000 0.000000
O O15 0.612648 0.750000 0.196447
O O16 0.599190 0.505497 0.267446
O O17 0.597876 0.750000 0.668272
#
# Coordination Sequence:
#
# PCOD9538689 Si02
#       6
#     8  16  16  16  16  16
#     4  10  22  38  62  88 121 160 201 252 302 358
#     4  10  22  42  67  92 122 160 200 246 300 361
#     4  10  20  40  63  82 114 160 203 247 299 356
#     4  10  21  37  61  87 117 155 198 248 299 358
#     4  12  25  38  60  93 126 159 199 254 303 357
#     4  10  21  40  60  86 120 163 208 243 296 362
#
# _framework density 18.306626999999999
#
# number of rings (size 3 to 8) (size 9 to 14) (size 15 to 20)
#    0.000    1.636    1.818    2.727    1.273    4.364 
#    0.000    1.818    0.000    0.000    0.000    0.000 
#    0.000    0.000    0.000    0.000    0.000    0.000 
#
# Total GULP energy -245922.249663 kJ/mol
# GULP energy per Si atom -5589.142038 kJ/mol
# Density = 1.826496 g / cm^3
# Si number density = 18.306627 Si / 1000 Ang^3
#
#
#
# Elastic Constant Matrix: (Units=GPa)
#
#
# Indices 1 2 3 4 5 6 
#
# 1 96.9709 58.0499 86.5711 0.0000 0.0000 0.0000
# 2 58.0499 84.5224 83.5063 0.0000 0.0000 0.0000
# 3 86.5711 83.5063 210.7299 0.0000 0.0000 0.0000
# 4 0.0000 0.0000 0.0000 40.3125 0.0000 0.0000
# 5 0.0000 0.0000 0.0000 0.0000 31.5853 0.0000
# 6 0.0000 0.0000 0.0000 0.0000 0.0000 -86.0763
#
#
#
# Elastic Compliance Matrix: (Units=1/GPa)
#
#
# Indices 1 2 3 4 5 6 
#
# 1 0.019824 -0.009152 -0.004517 0.000000 0.000000 0.000000
# 2 -0.009152 0.023669 -0.005619 0.000000 0.000000 0.000000
# 3 -0.004517 -0.005619 0.008828 0.000000 0.000000 0.000000
# 4 0.000000 0.000000 0.000000 0.024806 0.000000 0.000000
# 5 0.000000 0.000000 0.000000 0.000000 0.031660 0.000000
# 6 0.000000 0.000000 0.000000 0.000000 0.000000 -0.011618
#
#
# Mechanical properties :
#
#
# Convention : Reuss Voigt Hill
#
# Bulk Modulus (GPa) = 72.76395 94.27531 83.51963
# Shear Modulus (GPa) = 35.63082 8.10404 21.86743
#
# Velocity S-wave (km/s) = 4.41651 2.10629 3.45992
# Velocity P-wave (km/s) = 8.11425 7.58452 7.85385
#
# Compressibility (1/GPa) = 0.01374307
#
# Stress axis : x y z
#
# Youngs Moduli (GPa) = 50.44424 42.24988 113.27616
#
# Poissons Ratio (x) = 0.38667 0.51170
# Poissons Ratio (y) = 0.46167 0.63655
# Poissons Ratio (z) = 0.22787 0.23742
#
# Static dielectric constant tensor:
#      x y z
#    x 1.629590 0.000000 0.000000 
#    y 0.000000 1.614770 0.000000 
#    z 0.000000 0.000000 1.588190 
# 
# From -- ./inp_files/54521.got.cif
#   From: 2010.05.17/outbox.cif.g08.bks.cpg/sg74_28_cif.got.tgz:54521.got - 2010.06.03 17:57:02.
