data_PCOD9538551
_publ_section_title
;
Structure prediction by ZEFSAII (Michael W. Deem and Ramdas Pophale) SiO2 
 PCOD9538551
Probable space group: I M M A
;
_chemical_formula_sum "Si O2"
_cell_formula_units_Z 68
_cell_length_a 7.965775
_cell_length_b 21.065785
_cell_length_c 21.499437
_cell_angle_alpha 90.000000
_cell_angle_beta 90.000000
_cell_angle_gamma 90.000000
_cell_volume 3607.719551
_symmetry_space_group_name_H-M "I M M A"
_symmetry_group_IT_number 74
_symmetry_cell_setting 'orthorhombic'
loop_
_space_group_symop_operation_xyz
x,y,z
-x,1/2-y,z
x,-y,-z
-x,1/2+y,-z
-x,-y,-z
x,1/2+y,-z
-x,y,z
x,1/2-y,z
1/2+x,1/2+y,1/2+z
1/2-x,-y,1/2+z
1/2+x,1/2-y,1/2-z
1/2-x,y,1/2-z
1/2-x,1/2-y,1/2-z
1/2+x,y,1/2-z
1/2-x,1/2+y,1/2+z
1/2+x,-y,1/2+z
loop_
_atom_site_type_symbol
_atom_site_label
_atom_site_fract_x
_atom_site_fract_y
_atom_site_fract_z
Si Si1 0.301517 0.358480 0.841316
Si Si2 0.250000 0.750000 0.250000
Si Si3 0.700186 0.822308 0.478800
Si Si4 0.203010 0.946153 0.549958
Si Si5 0.701884 0.501946 0.818195
O O1 0.500000 0.351896 0.826106
O O2 0.211695 0.305285 0.801565
O O3 0.280722 0.344562 0.913957
O O4 0.241333 0.428818 0.824991
O O5 0.500000 0.821823 0.470635
O O6 0.754186 0.750000 0.493613
O O7 0.744529 0.876368 0.528367
O O8 0.261901 0.962215 0.619826
O O9 0.000000 0.948825 0.549595
O O10 0.260252 0.000000 0.500000
O O11 0.500000 0.500786 0.821150
O O12 0.750000 0.526567 0.750000
#
# Coordination Sequence:
#
# PCOD9538551 Si02
#       5
#    16   4  16  16  16
#     4  11  22  36  54  77 113 158 196 232 274 331
#     4  12  22  32  52  82 114 160 200 222 262 332
#     4  11  24  38  55  83 117 150 191 240 289 340
#     4  10  20  38  62  85 112 148 196 243 286 345
#     4  10  21  37  56  82 113 148 188 235 286 339
#
# _framework density 18.848472999999998
#
# number of rings (size 3 to 8) (size 9 to 14) (size 15 to 20)
#    0.000    1.412    4.706    1.059    0.000    5.647 
#    0.000    0.000    0.000    0.706    0.000    0.000 
#    0.000    0.000    0.000    0.000    0.000    0.000 
#
# Total GULP energy -189386.804107 kJ/mol
# GULP energy per Si atom -5570.200121 kJ/mol
# Density = 1.880557 g / cm^3
# Si number density = 18.848473 Si / 1000 Ang^3
#
#
#
# Elastic Constant Matrix: (Units=GPa)
#
#
# Indices 1 2 3 4 5 6 
#
# 1 25.3125 0.5952 7.2665 0.0000 0.0000 0.0000
# 2 0.5952 92.0856 72.5837 0.0000 0.0000 0.0000
# 3 7.2665 72.5837 158.6760 0.0000 0.0000 0.0000
# 4 0.0000 0.0000 0.0000 41.2900 0.0000 0.0000
# 5 0.0000 0.0000 0.0000 0.0000 13.9834 0.0000
# 6 0.0000 0.0000 0.0000 0.0000 0.0000 9.2150
#
#
#
# Elastic Compliance Matrix: (Units=1/GPa)
#
#
# Indices 1 2 3 4 5 6 
#
# 1 0.040236 0.001865 -0.002696 0.000000 0.000000 0.000000
# 2 0.001865 0.017069 -0.007893 0.000000 0.000000 0.000000
# 3 -0.002696 -0.007893 0.010036 0.000000 0.000000 0.000000
# 4 0.000000 0.000000 0.000000 0.024219 0.000000 0.000000
# 5 0.000000 0.000000 0.000000 0.000000 0.071513 0.000000
# 6 0.000000 0.000000 0.000000 0.000000 0.000000 0.108518
#
#
# Mechanical properties :
#
#
# Convention : Reuss Voigt Hill
#
# Bulk Modulus (GPa) = 20.04291 48.55165 34.29728
# Shear Modulus (GPa) = 16.35741 25.93959 21.14850
#
# Velocity S-wave (km/s) = 2.94910 3.71376 3.35330
# Velocity P-wave (km/s) = 4.71732 6.64863 5.76443
#
# Compressibility (1/GPa) = 0.04989296
#
# Stress axis : x y z
#
# Youngs Moduli (GPa) = 24.85328 58.58533 99.63848
#
# Poissons Ratio (x) = -0.10924 0.26858
# Poissons Ratio (y) = -0.04634 0.78648
# Poissons Ratio (z) = 0.06699 0.46244
#
# Static dielectric constant tensor:
#      x y z
#    x 1.714990 0.000000 0.000000 
#    y 0.000000 1.634850 0.000000 
#    z 0.000000 0.000000 1.678280 
# 
# From -- ./inp_files/48109.got.cif
#   From: 2010.05.17/outbox.cif.g08.bks.cpg/sg74_25_cif.got.tgz:48109.got - 2010.06.03 17:57:02.
