data_PCOD9538797
_publ_section_title
;
Structure prediction by ZEFSAII (Michael W. Deem and Ramdas Pophale) SiO2 
 PCOD9538797
Probable space group: I M M A
;
_chemical_formula_sum "Si O2"
_cell_formula_units_Z 112
_cell_length_a 13.917583
_cell_length_b 14.364059
_cell_length_c 32.648397
_cell_angle_alpha 90.000000
_cell_angle_beta 90.000000
_cell_angle_gamma 90.000000
_cell_volume 6526.838446
_symmetry_space_group_name_H-M "I M M A"
_symmetry_group_IT_number 74
_symmetry_cell_setting 'orthorhombic'
loop_
_space_group_symop_operation_xyz
x,y,z
-x,1/2-y,z
x,-y,-z
-x,1/2+y,-z
-x,-y,-z
x,1/2+y,-z
-x,y,z
x,1/2-y,z
1/2+x,1/2+y,1/2+z
1/2-x,-y,1/2+z
1/2+x,1/2-y,1/2-z
1/2-x,y,1/2-z
1/2-x,1/2-y,1/2-z
1/2+x,y,1/2-z
1/2-x,1/2+y,1/2+z
1/2+x,-y,1/2+z
loop_
_atom_site_type_symbol
_atom_site_label
_atom_site_fract_x
_atom_site_fract_y
_atom_site_fract_z
Si Si1 0.883934 0.354673 0.476231
Si Si2 0.115612 0.449034 0.562234
Si Si3 0.707989 0.541955 0.145514
Si Si4 0.614726 0.642914 0.831478
Si Si5 0.115543 0.856847 0.276914
Si Si6 0.614582 0.458786 0.692598
Si Si7 0.384050 0.649102 0.734872
O O1 0.848752 0.250000 0.466419
O O2 0.854611 0.444658 0.449521
O O3 0.862946 0.383999 0.523181
O O4 0.000000 0.352100 0.472724
O O5 0.166821 0.417583 0.603626
O O6 0.000000 0.448837 0.568063
O O7 0.676813 0.433635 0.145670
O O8 0.658003 0.583796 0.186095
O O9 0.820161 0.559803 0.153412
O O10 0.500000 0.623033 0.836349
O O11 0.629810 0.750000 0.844174
O O12 0.637384 0.636451 0.782854
O O13 0.144774 0.750000 0.281148
O O14 0.139180 0.893901 0.231521
O O15 0.000000 0.863510 0.279864
O O16 0.500000 0.454277 0.685826
O O17 0.644074 0.561666 0.708150
O O18 0.500000 0.651537 0.733034
O O19 0.347321 0.750000 0.721164
#
# Coordination Sequence:
#
# PCOD9538797 Si02
#       7
#    16  16  16  16  16  16  16
#     4   8  15  31  52  71  97 129 148 167 218 291
#     4   9  18  30  47  74 101 122 149 184 224 282
#     4  12  21  30  48  73  98 125 162 206 245 280
#     4   9  17  28  43  66  95 122 150 191 243 292
#     4  10  21  36  51  67  92 127 165 206 250 291
#     4  10  21  35  47  62  91 132 174 211 244 277
#     4   8  14  27  45  60  80 116 159 198 235 277
#
# _framework density 17.159915000000002
#
# number of rings (size 3 to 8) (size 9 to 14) (size 15 to 20)
#    0.000    2.571    1.429    3.429    0.000    2.857 
#    0.000    4.286    0.000    0.000    0.000    2.000 
#    0.000    1.143    0.000    0.000    0.000    0.000 
#
# Total GULP energy -312349.252812 kJ/mol
# GULP energy per Si atom -5577.665229 kJ/mol
# Density = 1.712086 g / cm^3
# Si number density = 17.159915 Si / 1000 Ang^3
#
#
#
# Elastic Constant Matrix: (Units=GPa)
#
#
# Indices 1 2 3 4 5 6 
#
# 1 56.3218 11.6686 27.4406 0.0000 0.0000 0.0000
# 2 11.6686 57.4181 4.3801 0.0000 0.0000 0.0000
# 3 27.4406 4.3801 58.2942 0.0000 0.0000 0.0000
# 4 0.0000 0.0000 0.0000 3.4310 0.0000 0.0000
# 5 0.0000 0.0000 0.0000 0.0000 22.3271 0.0000
# 6 0.0000 0.0000 0.0000 0.0000 0.0000 7.8826
#
#
#
# Elastic Compliance Matrix: (Units=1/GPa)
#
#
# Indices 1 2 3 4 5 6 
#
# 1 0.023930 -0.004027 -0.010962 0.000000 0.000000 0.000000
# 2 -0.004027 0.018194 0.000529 0.000000 0.000000 0.000000
# 3 -0.010962 0.000529 0.022275 0.000000 0.000000 0.000000
# 4 0.000000 0.000000 0.000000 0.291458 0.000000 0.000000
# 5 0.000000 0.000000 0.000000 0.000000 0.044789 0.000000
# 6 0.000000 0.000000 0.000000 0.000000 0.000000 0.126861
#
#
# Mechanical properties :
#
#
# Convention : Reuss Voigt Hill
#
# Bulk Modulus (GPa) = 28.18624 28.77919 28.48271
# Shear Modulus (GPa) = 8.79888 15.29779 12.04834
#
# Velocity S-wave (km/s) = 2.26687 2.98901 2.65263
# Velocity P-wave (km/s) = 4.82834 5.35909 5.10062
#
# Compressibility (1/GPa) = 0.03547831
#
# Stress axis : x y z
#
# Youngs Moduli (GPa) = 41.78818 54.96267 44.89386
#
# Poissons Ratio (x) = 0.22133 0.49213
# Poissons Ratio (y) = 0.16828 -0.02373
# Poissons Ratio (z) = 0.45808 -0.02905
#
# Static dielectric constant tensor:
#      x y z
#    x 1.609020 0.000000 0.000000 
#    y 0.000000 1.631760 0.000000 
#    z 0.000000 0.000000 1.573700 
# 
# From -- ./inp_files/67225.got.cif
#   From: 2010.05.17/outbox.cif.g08.bks.cpg/sg74_34_cif.got.tgz:67225.got - 2010.06.03 17:57:02.
