data_PCOD9538150
_publ_section_title
;
Structure prediction by ZEFSAII (Michael W. Deem and Ramdas Pophale) SiO2 
 PCOD9538150
Probable space group: I M M A
;
_chemical_formula_sum "Si O2"
_cell_formula_units_Z 80
_cell_length_a 15.306308
_cell_length_b 10.860693
_cell_length_c 24.714242
_cell_angle_alpha 90.000000
_cell_angle_beta 90.000000
_cell_angle_gamma 90.000000
_cell_volume 4108.424219
_symmetry_space_group_name_H-M "I M M A"
_symmetry_group_IT_number 74
_symmetry_cell_setting 'orthorhombic'
loop_
_space_group_symop_operation_xyz
x,y,z
-x,1/2-y,z
x,-y,-z
-x,1/2+y,-z
-x,-y,-z
x,1/2+y,-z
-x,y,z
x,1/2-y,z
1/2+x,1/2+y,1/2+z
1/2-x,-y,1/2+z
1/2+x,1/2-y,1/2-z
1/2-x,y,1/2-z
1/2-x,1/2-y,1/2-z
1/2+x,y,1/2-z
1/2-x,1/2+y,1/2+z
1/2+x,-y,1/2+z
loop_
_atom_site_type_symbol
_atom_site_label
_atom_site_fract_x
_atom_site_fract_y
_atom_site_fract_z
Si Si1 0.646321 0.750000 0.747048
Si Si2 0.897033 0.750000 0.625224
Si Si3 0.739998 0.107064 0.862390
Si Si4 0.905488 0.106897 0.716827
Si Si5 0.397016 0.501063 0.064512
Si Si6 0.597633 0.985577 0.674144
O O1 0.750000 0.750000 0.750000
O O2 0.618185 0.750000 0.810104
O O3 0.614473 0.866927 0.712092
O O4 0.868465 0.873314 0.593683
O O5 0.000000 0.750000 0.617717
O O6 0.765052 0.250000 0.854790
O O7 0.681193 0.058578 0.811719
O O8 0.670458 0.097978 0.910734
O O9 0.824395 0.019831 0.866111
O O10 0.908141 0.250000 0.701673
O O11 0.000000 0.049991 0.701005
O O12 0.899538 0.093201 0.780796
O O13 0.500000 0.525497 0.076801
O O14 0.389856 0.500000 0.000000
O O15 0.500000 0.977909 0.650880
#
# Coordination Sequence:
#
# PCOD9538150 Si02
#       6
#     8   8  16  16  16  16
#     4  12  22  34  58  86 118 156 195 243 297 359
#     4  10  20  36  56  82 116 156 195 233 295 371
#     4  11  22  35  55  82 112 153 200 244 292 354
#     4   9  17  30  49  75 109 146 184 230 284 343
#     4  10  22  38  59  85 116 151 193 253 316 369
#     4  11  22  35  52  79 117 157 195 235 286 348
#
# _framework density 19.472186000000001
#
# number of rings (size 3 to 8) (size 9 to 14) (size 15 to 20)
#    0.000    1.600    0.000    6.300    1.400    7.200 
#    0.000    0.000    0.000    0.600    0.000    0.000 
#    0.000    0.000    0.000    0.000    0.000    0.000 
#
# Total GULP energy -223089.359149 kJ/mol
# GULP energy per Si atom -5577.233979 kJ/mol
# Density = 1.942787 g / cm^3
# Si number density = 19.472186 Si / 1000 Ang^3
#
#
#
# Elastic Constant Matrix: (Units=GPa)
#
#
# Indices 1 2 3 4 5 6 
#
# 1 131.7853 36.1778 19.0122 0.0000 0.0000 0.0000
# 2 36.1778 86.8788 22.6775 0.0000 0.0000 0.0000
# 3 19.0122 22.6775 62.8313 0.0000 0.0000 0.0000
# 4 0.0000 0.0000 0.0000 16.6534 0.0000 0.0000
# 5 0.0000 0.0000 0.0000 0.0000 27.4785 0.0000
# 6 0.0000 0.0000 0.0000 0.0000 0.0000 3.3806
#
#
#
# Elastic Compliance Matrix: (Units=1/GPa)
#
#
# Indices 1 2 3 4 5 6 
#
# 1 0.008687 -0.003236 -0.001461 0.000000 0.000000 0.000000
# 2 -0.003236 0.013913 -0.004042 0.000000 0.000000 0.000000
# 3 -0.001461 -0.004042 0.017817 0.000000 0.000000 0.000000
# 4 0.000000 0.000000 0.000000 0.060048 0.000000 0.000000
# 5 0.000000 0.000000 0.000000 0.000000 0.036392 0.000000
# 6 0.000000 0.000000 0.000000 0.000000 0.000000 0.295808
#
#
# Mechanical properties :
#
#
# Convention : Reuss Voigt Hill
#
# Bulk Modulus (GPa) = 43.59490 48.58114 46.08802
# Shear Modulus (GPa) = 10.92206 23.07770 16.99988
#
# Velocity S-wave (km/s) = 2.37091 3.44635 2.95792
# Velocity P-wave (km/s) = 5.47100 6.39059 5.94859
#
# Compressibility (1/GPa) = 0.02293846
#
# Stress axis : x y z
#
# Youngs Moduli (GPa) = 115.11138 71.87493 56.12746
#
# Poissons Ratio (x) = 0.23261 0.08198
# Poissons Ratio (y) = 0.37253 0.22689
# Poissons Ratio (z) = 0.16814 0.29054
#
# Static dielectric constant tensor:
#      x y z
#    x 1.745490 0.000000 0.000000 
#    y 0.000000 1.789480 0.000000 
#    z 0.000000 0.000000 1.690930 
# 
# From -- ./inp_files/65854.got.cif
#   From: 2010.05.17/outbox.cif.g08.bks.cpg/sg74_33_cif.got.tgz:65854.got - 2010.06.03 17:57:02.
