data_PCOD9538712
_publ_section_title
;
Structure prediction by ZEFSAII (Michael W. Deem and Ramdas Pophale) SiO2 
 PCOD9538712
Probable space group: I M M A
;
_chemical_formula_sum "Si O2"
_cell_formula_units_Z 52
_cell_length_a 7.666793
_cell_length_b 17.096974
_cell_length_c 17.437426
_cell_angle_alpha 90.000000
_cell_angle_beta 90.000000
_cell_angle_gamma 90.000000
_cell_volume 2285.679675
_symmetry_space_group_name_H-M "I M M A"
_symmetry_group_IT_number 74
_symmetry_cell_setting 'orthorhombic'
loop_
_space_group_symop_operation_xyz
x,y,z
-x,1/2-y,z
x,-y,-z
-x,1/2+y,-z
-x,-y,-z
x,1/2+y,-z
-x,y,z
x,1/2-y,z
1/2+x,1/2+y,1/2+z
1/2-x,-y,1/2+z
1/2+x,1/2-y,1/2-z
1/2-x,y,1/2-z
1/2-x,1/2-y,1/2-z
1/2+x,y,1/2-z
1/2-x,1/2+y,1/2+z
1/2+x,-y,1/2+z
loop_
_atom_site_type_symbol
_atom_site_label
_atom_site_fract_x
_atom_site_fract_y
_atom_site_fract_z
Si Si1 0.708057 0.543283 0.666301
Si Si2 0.308303 0.133456 0.857925
Si Si3 0.711354 0.660601 0.532684
Si Si4 0.000000 0.250000 0.809552
O O1 0.500000 0.533436 0.659009
O O2 0.750000 0.577027 0.750000
O O3 0.791753 0.457823 0.660896
O O4 0.766252 0.599667 0.597631
O O5 0.500000 0.162813 0.834301
O O6 0.153241 0.182533 0.821838
O O7 0.289275 0.142536 0.949694
O O8 0.500000 0.655841 0.524602
O O9 0.754002 0.750000 0.553576
#
# Coordination Sequence:
#
# PCOD9538712 Si02
#       4
#    16  16  16   4
#     4  11  24  42  64  92 135 180 220 270 326 390
#     4  12  23  41  71  98 131 171 218 268 329 390
#     4  10  20  40  67  97 133 172 216 275 329 377
#     4  12  22  44  68 102 134 164 212 286 314 392
#
# _framework density 22.750343000000001
#
# number of rings (size 3 to 8) (size 9 to 14) (size 15 to 20)
#    0.000    0.923    4.615    2.308    0.000    6.769 
#    0.000    0.769    0.000    0.000    0.000    0.000 
#    0.000    0.000    0.000    0.000    0.000    0.000 
#
# Total GULP energy -145240.976911 kJ/mol
# GULP energy per Si atom -5586.191420 kJ/mol
# Density = 2.269856 g / cm^3
# Si number density = 22.750343 Si / 1000 Ang^3
#
#
#
# Elastic Constant Matrix: (Units=GPa)
#
#
# Indices 1 2 3 4 5 6 
#
# 1 159.8813 37.8945 45.6010 0.0000 0.0000 0.0000
# 2 37.8945 95.1768 64.2981 0.0000 0.0000 0.0000
# 3 45.6010 64.2981 127.6214 0.0000 0.0000 0.0000
# 4 0.0000 0.0000 0.0000 155.2611 0.0000 0.0000
# 5 0.0000 0.0000 0.0000 0.0000 30.6215 0.0000
# 6 0.0000 0.0000 0.0000 0.0000 0.0000 818.5617
#
#
#
# Elastic Compliance Matrix: (Units=1/GPa)
#
#
# Indices 1 2 3 4 5 6 
#
# 1 0.007141 -0.001697 -0.001697 0.000000 0.000000 0.000000
# 2 -0.001697 0.016331 -0.007622 0.000000 0.000000 0.000000
# 3 -0.001697 -0.007622 0.012282 0.000000 0.000000 0.000000
# 4 0.000000 0.000000 0.000000 0.006441 0.000000 0.000000
# 5 0.000000 0.000000 0.000000 0.000000 0.032657 0.000000
# 6 0.000000 0.000000 0.000000 0.000000 0.000000 0.001222
#
#
# Mechanical properties :
#
#
# Convention : Reuss Voigt Hill
#
# Bulk Modulus (GPa) = 72.86749 75.36296 74.11522
# Shear Modulus (GPa) = 48.69593 216.54793 132.62193
#
# Velocity S-wave (km/s) = 4.63152 9.76684 7.64337
# Velocity P-wave (km/s) = 7.79102 12.66436 10.51395
#
# Compressibility (1/GPa) = 0.01372354
#
# Stress axis : x y z
#
# Youngs Moduli (GPa) = 140.04180 61.23191 81.42107
#
# Poissons Ratio (x) = 0.10391 0.13813
# Poissons Ratio (y) = 0.23764 0.62057
# Poissons Ratio (z) = 0.23758 0.46669
#
# Static dielectric constant tensor:
#      x y z
#    x 1.866170 0.000000 0.000000 
#    y 0.000000 1.781710 0.000000 
#    z 0.000000 0.000000 1.879730 
# 
# From -- ./inp_files/38782.got.cif
#   From: 2010.05.17/outbox.cif.g08.bks.cpg/sg74_20_cif.got.tgz:38782.got - 2010.06.03 17:57:02.
