data_PCOD9538648
_publ_section_title
;
Structure prediction by ZEFSAII (Michael W. Deem and Ramdas Pophale) SiO2 
 PCOD9538648
Probable space group: I M M A
;
_chemical_formula_sum "Si O2"
_cell_formula_units_Z 72
_cell_length_a 8.566415
_cell_length_b 28.689474
_cell_length_c 14.451998
_cell_angle_alpha 90.000000
_cell_angle_beta 90.000000
_cell_angle_gamma 90.000000
_cell_volume 3551.808879
_symmetry_space_group_name_H-M "I M M A"
_symmetry_group_IT_number 74
_symmetry_cell_setting 'orthorhombic'
loop_
_space_group_symop_operation_xyz
x,y,z
-x,1/2-y,z
x,-y,-z
-x,1/2+y,-z
-x,-y,-z
x,1/2+y,-z
-x,y,z
x,1/2-y,z
1/2+x,1/2+y,1/2+z
1/2-x,-y,1/2+z
1/2+x,1/2-y,1/2-z
1/2-x,y,1/2-z
1/2-x,1/2-y,1/2-z
1/2+x,y,1/2-z
1/2-x,1/2+y,1/2+z
1/2+x,-y,1/2+z
loop_
_atom_site_type_symbol
_atom_site_label
_atom_site_fract_x
_atom_site_fract_y
_atom_site_fract_z
Si Si1 0.679698 0.941002 0.098021
Si Si2 0.812115 0.842101 0.451641
Si Si3 0.686114 0.750000 0.353817
Si Si4 0.681887 0.041051 0.123134
Si Si5 0.182005 0.638971 0.846148
O O1 0.500000 0.938775 0.130609
O O2 0.748359 0.889034 0.101421
O O3 0.745507 0.988845 0.140542
O O4 0.675675 0.951151 0.987854
O O5 0.747421 0.795926 0.405397
O O6 0.764145 0.844370 0.559551
O O7 0.000000 0.843296 0.447006
O O8 0.500000 0.750000 0.353141
O O9 0.750000 0.750000 0.250000
O O10 0.500000 0.045313 0.154127
O O11 0.787308 0.083258 0.156688
O O12 0.250000 0.658361 0.750000
O O13 0.000000 0.648831 0.852302
#
# Coordination Sequence:
#
# PCOD9538648 Si02
#       5
#    16  16   8  16  16
#     4   7  12  25  50  78 107 144 188 232 281 334
#     4  10  20  39  64  89 116 152 193 242 299 354
#     4  12  26  46  69  94 117 144 184 236 294 354
#     4   8  13  26  47  74 108 150 193 234 276 327
#     4  11  21  34  53  83 121 163 203 241 283 341
#
# _framework density 20.271360999999999
#
# number of rings (size 3 to 8) (size 9 to 14) (size 15 to 20)
#    0.000    2.667    0.000    6.333    0.000    0.000 
#    0.000   11.667    0.000    0.000    0.000    0.000 
#    0.000    0.000    0.000    0.000    0.000    0.000 
#
# Total GULP energy -200638.416871 kJ/mol
# GULP energy per Si atom -5573.289358 kJ/mol
# Density = 2.022522 g / cm^3
# Si number density = 20.271361 Si / 1000 Ang^3
#
#
#
# Elastic Constant Matrix: (Units=GPa)
#
#
# Indices 1 2 3 4 5 6 
#
# 1 82.8871 30.6536 23.0355 0.0000 0.0000 0.0000
# 2 30.6536 155.5493 50.6425 0.0000 0.0000 0.0000
# 3 23.0355 50.6425 88.4019 -0.0001 0.0000 0.0000
# 4 0.0000 0.0000 -0.0001 -2.5313 0.0000 0.0000
# 5 0.0000 0.0000 0.0000 0.0000 24.8272 0.0000
# 6 0.0000 0.0000 0.0000 0.0000 0.0000 9.7438
#
#
#
# Elastic Compliance Matrix: (Units=1/GPa)
#
#
# Indices 1 2 3 4 5 6 
#
# 1 0.013427 -0.001852 -0.002438 0.000000 0.000000 0.000000
# 2 -0.001852 0.008158 -0.004191 0.000000 0.000000 0.000000
# 3 -0.002438 -0.004191 0.014348 0.000000 0.000000 0.000000
# 4 0.000000 0.000000 0.000000 -0.395046 0.000000 0.000000
# 5 0.000000 0.000000 0.000000 0.000000 0.040278 0.000000
# 6 0.000000 0.000000 0.000000 0.000000 0.000000 0.102630
#
#
# Mechanical properties :
#
#
# Convention : Reuss Voigt Hill
#
# Bulk Modulus (GPa) = 52.71057 59.50017 56.10537
# Shear Modulus (GPa) = -25.91762 21.24171 -2.33796
#
# Velocity S-wave (km/s) = -3.57954 3.24059 -1.07510
# Velocity P-wave (km/s) = 2.99580 6.58919 5.11822
#
# Compressibility (1/GPa) = 0.01897153
#
# Stress axis : x y z
#
# Youngs Moduli (GPa) = 74.47614 122.57410 69.69610
#
# Poissons Ratio (x) = 0.22706 0.16989
# Poissons Ratio (y) = 0.13796 0.29209
# Poissons Ratio (z) = 0.18154 0.51370
#
# Static dielectric constant tensor:
#      x y z
#    x 1.685510 0.000000 0.000000 
#    y 0.000000 1.758980 0.000000 
#    z 0.000000 0.000000 1.759660 
# 
# From -- ./inp_files/29164.got.cif
#   From: 2010.05.17/outbox.cif.g08.bks.cpg/sg74_15_cif.got.tgz:29164.got - 2010.06.03 17:57:02.
