data_PCOD9538984
_publ_section_title
;
Structure prediction by ZEFSAII (Michael W. Deem and Ramdas Pophale) SiO2 
 PCOD9538984
Probable space group: I M M A
;
_chemical_formula_sum "Si O2"
_cell_formula_units_Z 96
_cell_length_a 22.629680
_cell_length_b 14.156776
_cell_length_c 14.931199
_cell_angle_alpha 90.000000
_cell_angle_beta 90.000000
_cell_angle_gamma 90.000000
_cell_volume 4783.408345
_symmetry_space_group_name_H-M "I M M A"
_symmetry_group_IT_number 74
_symmetry_cell_setting 'orthorhombic'
loop_
_space_group_symop_operation_xyz
x,y,z
-x,1/2-y,z
x,-y,-z
-x,1/2+y,-z
-x,-y,-z
x,1/2+y,-z
-x,y,z
x,1/2-y,z
1/2+x,1/2+y,1/2+z
1/2-x,-y,1/2+z
1/2+x,1/2-y,1/2-z
1/2-x,y,1/2-z
1/2-x,1/2-y,1/2-z
1/2+x,y,1/2-z
1/2-x,1/2+y,1/2+z
1/2+x,-y,1/2+z
loop_
_atom_site_type_symbol
_atom_site_label
_atom_site_fract_x
_atom_site_fract_y
_atom_site_fract_z
Si Si1 0.500000 0.358839 0.858287
Si Si2 0.376751 0.056200 0.617547
Si Si3 0.500000 0.634880 0.347310
Si Si4 0.187237 0.057939 0.706976
Si Si5 0.828923 0.141083 0.056220
Si Si6 0.121707 0.105005 0.536355
Si Si7 0.195827 0.648874 0.631403
O O1 0.500000 0.250000 0.836621
O O2 0.500000 0.401667 0.757517
O O3 0.558816 0.374296 0.917810
O O4 0.442690 0.092289 0.604343
O O5 0.360236 0.082540 0.718284
O O6 0.334766 0.110809 0.547593
O O7 0.365276 0.944095 0.603569
O O8 0.500000 0.750000 0.352289
O O9 0.250000 0.080813 0.750000
O O10 0.170614 0.108282 0.614753
O O11 0.185019 0.945008 0.688504
O O12 0.848727 0.250000 0.069000
O O13 0.761136 0.136115 0.089076
O O14 0.148142 0.154014 0.448680
O O15 0.116363 0.000000 0.500000
O O16 0.194142 0.750000 0.680671
#
# Coordination Sequence:
#
# PCOD9538984 Si02
#       7
#     8  16   8  16  16  16  16
#     4  11  21  37  58  81 113 154 201 246 297 358
#     4  11  22  40  63  88 120 157 203 249 302 350
#     4  11  24  42  63  89 120 158 204 253 299 357
#     4  11  20  34  59  87 115 155 195 242 302 365
#     4  10  22  39  63  92 123 158 200 249 307 368
#     4  10  21  36  58  83 116 154 199 248 292 360
#     4  10  21  36  56  88 125 157 195 247 300 360
#
# _framework density 20.069371
#
# number of rings (size 3 to 8) (size 9 to 14) (size 15 to 20)
#    0.000    1.500    3.333    2.250    4.667    2.333 
#    0.000    1.250    0.000    4.000    0.000    0.000 
#    0.000    0.000    0.000    0.000    0.000    0.000 
#
# Total GULP energy -267654.303180 kJ/mol
# GULP energy per Si atom -5576.131316 kJ/mol
# Density = 2.002369 g / cm^3
# Si number density = 20.069371 Si / 1000 Ang^3
#
#
#
# Elastic Constant Matrix: (Units=GPa)
#
#
# Indices 1 2 3 4 5 6 
#
# 1 84.1414 16.5475 2.0955 0.0000 0.0000 0.0000
# 2 16.5475 63.3923 -17.0082 0.0000 0.0000 0.0000
# 3 2.0955 -17.0082 52.2180 0.0000 0.0000 0.0000
# 4 0.0000 0.0000 0.0000 63.8082 0.0000 0.0000
# 5 0.0000 0.0000 0.0000 0.0000 134.0896 0.0000
# 6 0.0000 0.0000 0.0000 0.0000 0.0000 16.9034
#
#
#
# Elastic Compliance Matrix: (Units=1/GPa)
#
#
# Indices 1 2 3 4 5 6 
#
# 1 0.012670 -0.003773 -0.001738 0.000000 0.000000 0.000000
# 2 -0.003773 0.018409 0.006148 0.000000 0.000000 0.000000
# 3 -0.001738 0.006148 0.021223 0.000000 0.000000 0.000000
# 4 0.000000 0.000000 0.000000 0.015672 0.000000 0.000000
# 5 0.000000 0.000000 0.000000 0.000000 0.007458 0.000000
# 6 0.000000 0.000000 0.000000 0.000000 0.000000 0.059160
#
#
# Mechanical properties :
#
#
# Convention : Reuss Voigt Hill
#
# Bulk Modulus (GPa) = 18.66543 22.55792 20.61168
# Shear Modulus (GPa) = 33.07392 56.16803 44.62097
#
# Velocity S-wave (km/s) = 4.06394 5.29601 4.72034
# Velocity P-wave (km/s) = 5.59834 6.97577 6.32466
#
# Compressibility (1/GPa) = 0.05357497
#
# Stress axis : x y z
#
# Youngs Moduli (GPa) = 78.92575 54.32072 47.11964
#
# Poissons Ratio (x) = 0.20498 0.08187
# Poissons Ratio (y) = 0.29783 -0.28967
# Poissons Ratio (z) = 0.13714 -0.33394
#
# Static dielectric constant tensor:
#      x y z
#    x 1.704280 0.000000 0.000000 
#    y 0.000000 1.779470 0.000000 
#    z 0.000000 0.000000 1.738390 
# 
# From -- ./inp_files/35309.got.cif
#   From: 2010.05.17/outbox.cif.g08.bks.cpg/sg74_18_cif.got.tgz:35309.got - 2010.06.03 17:57:02.
