data_PCOD9538180
_publ_section_title
;
Structure prediction by ZEFSAII (Michael W. Deem and Ramdas Pophale) SiO2 
 PCOD9538180
Probable space group: I M M A
;
_chemical_formula_sum "Si O2"
_cell_formula_units_Z 88
_cell_length_a 28.026345
_cell_length_b 8.765476
_cell_length_c 19.801326
_cell_angle_alpha 90.000000
_cell_angle_beta 90.000000
_cell_angle_gamma 90.000000
_cell_volume 4864.477989
_symmetry_space_group_name_H-M "I M M A"
_symmetry_group_IT_number 74
_symmetry_cell_setting 'orthorhombic'
loop_
_space_group_symop_operation_xyz
x,y,z
-x,1/2-y,z
x,-y,-z
-x,1/2+y,-z
-x,-y,-z
x,1/2+y,-z
-x,y,z
x,1/2-y,z
1/2+x,1/2+y,1/2+z
1/2-x,-y,1/2+z
1/2+x,1/2-y,1/2-z
1/2-x,y,1/2-z
1/2-x,1/2-y,1/2-z
1/2+x,y,1/2-z
1/2-x,1/2+y,1/2+z
1/2+x,-y,1/2+z
loop_
_atom_site_type_symbol
_atom_site_label
_atom_site_fract_x
_atom_site_fract_y
_atom_site_fract_z
Si Si1 0.000000 0.434067 0.425142
Si Si2 0.689012 0.932091 0.188026
Si Si3 0.410890 0.567392 0.832022
Si Si4 0.556809 0.071142 0.690260
Si Si5 0.121425 0.567890 0.925739
Si Si6 0.288811 0.932415 0.665142
O O1 0.000000 0.500000 0.500000
O O2 0.047282 0.480334 0.383452
O O3 0.000000 0.250000 0.428011
O O4 0.690434 0.750000 0.189902
O O5 0.640230 0.990935 0.155211
O O6 0.691752 0.996477 0.264784
O O7 0.736710 0.997313 0.153461
O O8 0.406009 0.750000 0.834366
O O9 0.426876 0.517518 0.757146
O O10 0.500000 0.056828 0.682984
O O11 0.568792 0.250000 0.698522
O O12 0.583464 0.004752 0.625446
O O13 0.115138 0.750000 0.927271
O O14 0.173394 0.535341 0.893493
O O15 0.117061 0.500000 0.000000
O O16 0.285049 0.750000 0.673956
#
# Coordination Sequence:
#
# PCOD9538180 Si02
#       6
#     8  16  16  16  16  16
#     4  10  24  42  64  90 121 158 195 240 298 362
#     4  11  21  33  57  90 118 151 193 247 296 345
#     4  11  21  38  61  89 121 157 198 243 296 356
#     4  11  23  38  60  90 120 154 200 251 298 352
#     4  11  24  40  61  85 119 163 203 249 303 359
#     4  10  20  36  57  84 117 155 195 243 298 354
#
# _framework density 18.090328
#
# number of rings (size 3 to 8) (size 9 to 14) (size 15 to 20)
#    0.000    1.273    2.727    4.909    0.000    5.091 
#    0.000    0.909    0.000    0.000    0.000    0.000 
#    0.000    0.000    0.000    0.000    0.000    0.000 
#
# Total GULP energy -245944.490484 kJ/mol
# GULP energy per Si atom -5589.647511 kJ/mol
# Density = 1.804915 g / cm^3
# Si number density = 18.090328 Si / 1000 Ang^3
#
#
#
# Elastic Constant Matrix: (Units=GPa)
#
#
# Indices 1 2 3 4 5 6 
#
# 1 118.2133 48.8292 29.5931 0.0000 0.0000 0.0000
# 2 48.8292 89.4291 23.2867 0.0000 0.0000 0.0000
# 3 29.5931 23.2867 69.6270 0.0000 0.0000 0.0000
# 4 0.0000 0.0000 0.0000 29.2194 0.0000 0.0000
# 5 0.0000 0.0000 0.0000 0.0000 25.8278 0.0000
# 6 0.0000 0.0000 0.0000 0.0000 0.0000 22.9206
#
#
#
# Elastic Compliance Matrix: (Units=1/GPa)
#
#
# Indices 1 2 3 4 5 6 
#
# 1 0.011485 -0.005477 -0.003050 0.000000 0.000000 0.000000
# 2 -0.005477 0.014860 -0.002642 0.000000 0.000000 0.000000
# 3 -0.003050 -0.002642 0.016542 0.000000 0.000000 0.000000
# 4 0.000000 0.000000 0.000000 0.034224 0.000000 0.000000
# 5 0.000000 0.000000 0.000000 0.000000 0.038718 0.000000
# 6 0.000000 0.000000 0.000000 0.000000 0.000000 0.043629
#
#
# Mechanical properties :
#
#
# Convention : Reuss Voigt Hill
#
# Bulk Modulus (GPa) = 48.66172 53.40972 51.03572
# Shear Modulus (GPa) = 26.50468 27.29758 26.90113
#
# Velocity S-wave (km/s) = 3.83185 3.88875 3.86041
# Velocity P-wave (km/s) = 6.82167 7.05345 6.93853
#
# Compressibility (1/GPa) = 0.02055004
#
# Stress axis : x y z
#
# Youngs Moduli (GPa) = 87.07020 67.29260 60.45167
#
# Poissons Ratio (x) = 0.36855 0.18436
# Poissons Ratio (y) = 0.47687 0.15973
# Poissons Ratio (z) = 0.26554 0.17781
#
# Static dielectric constant tensor:
#      x y z
#    x 1.632510 0.000000 0.000000 
#    y 0.000000 1.605870 0.000000 
#    z 0.000000 0.000000 1.578850 
# 
# From -- ./inp_files/47074.got.cif
#   From: 2010.05.17/outbox.cif.g08.bks.cpg/sg74_24_cif.got.tgz:47074.got - 2010.06.03 17:57:02.
