data_PCOD9538482
_publ_section_title
;
Structure prediction by ZEFSAII (Michael W. Deem and Ramdas Pophale) SiO2 
 PCOD9538482
Probable space group: I M M A
;
_chemical_formula_sum "Si O2"
_cell_formula_units_Z 80
_cell_length_a 15.059208
_cell_length_b 25.223502
_cell_length_c 9.523762
_cell_angle_alpha 90.000000
_cell_angle_beta 90.000000
_cell_angle_gamma 90.000000
_cell_volume 3617.562549
_symmetry_space_group_name_H-M "I M M A"
_symmetry_group_IT_number 74
_symmetry_cell_setting 'orthorhombic'
loop_
_space_group_symop_operation_xyz
x,y,z
-x,1/2-y,z
x,-y,-z
-x,1/2+y,-z
-x,-y,-z
x,1/2+y,-z
-x,y,z
x,1/2-y,z
1/2+x,1/2+y,1/2+z
1/2-x,-y,1/2+z
1/2+x,1/2-y,1/2-z
1/2-x,y,1/2-z
1/2-x,1/2-y,1/2-z
1/2+x,y,1/2-z
1/2-x,1/2+y,1/2+z
1/2+x,-y,1/2+z
loop_
_atom_site_type_symbol
_atom_site_label
_atom_site_fract_x
_atom_site_fract_y
_atom_site_fract_z
Si Si1 0.666530 0.531329 0.855087
Si Si2 0.609087 0.147877 0.723040
Si Si3 0.107674 0.646647 0.548080
Si Si4 0.599651 0.963527 0.378169
Si Si5 0.391326 0.250000 0.221715
Si Si6 0.608565 0.750000 0.454899
O O1 0.750000 0.530475 0.750000
O O2 0.640514 0.591367 0.888518
O O3 0.596953 0.497850 0.762723
O O4 0.675989 0.500000 0.000000
O O5 0.500000 0.146354 0.723648
O O6 0.643041 0.092736 0.656732
O O7 0.636412 0.197759 0.629879
O O8 0.635665 0.152153 0.885518
O O9 0.136697 0.697159 0.639359
O O10 0.000000 0.645607 0.549681
O O11 0.500000 0.950614 0.427512
O O12 0.638798 0.000000 0.500000
O O13 0.500000 0.250000 0.221884
O O14 0.362242 0.250000 0.383573
O O15 0.500000 0.750000 0.455811
#
# Coordination Sequence:
#
# PCOD9538482 Si02
#       6
#    16  16  16  16   8   8
#     4  12  25  42  60  85 119 164 204 252 304 361
#     4   9  17  31  53  82 116 154 188 233 293 355
#     4  10  20  37  63  91 120 155 199 246 299 361
#     4  10  21  36  59  90 120 151 195 248 302 360
#     4   9  19  33  56  93 126 153 189 244 302 355
#     4   9  17  29  49  83 124 153 183 235 301 357
#
# _framework density 22.114339000000001
#
# number of rings (size 3 to 8) (size 9 to 14) (size 15 to 20)
#    0.000    2.000    2.000    1.800    2.800    3.200 
#    0.000    0.500    0.000    0.000    0.000    2.800 
#    0.000    0.000    0.000    0.000    0.000    0.000 
#
# Total GULP energy -223525.802013 kJ/mol
# GULP energy per Si atom -5588.145050 kJ/mol
# Density = 2.206401 g / cm^3
# Si number density = 22.114339 Si / 1000 Ang^3
#
#
#
# Elastic Constant Matrix: (Units=GPa)
#
#
# Indices 1 2 3 4 5 6 
#
# 1 39.0268 12.4258 14.8442 0.0000 0.0001 0.0000
# 2 12.4258 252.5220 135.8153 -0.0001 0.0003 -0.0001
# 3 14.8442 135.8153 208.2714 -0.0002 0.0007 -0.0003
# 4 0.0000 -0.0001 -0.0002 47.9766 0.0003 -0.0001
# 5 0.0001 0.0003 0.0007 0.0003 -18.6665 0.0001
# 6 0.0000 -0.0001 -0.0003 -0.0001 0.0001 -6.5647
#
#
#
# Elastic Compliance Matrix: (Units=1/GPa)
#
#
# Indices 1 2 3 4 5 6 
#
# 1 0.026369 -0.000442 -0.001591 0.000000 0.000000 0.000000
# 2 -0.000442 0.006107 -0.003951 0.000000 0.000000 0.000000
# 3 -0.001591 -0.003951 0.007491 0.000000 0.000000 0.000000
# 4 0.000000 0.000000 0.000000 0.020843 0.000000 0.000000
# 5 0.000000 0.000000 0.000000 0.000000 -0.053572 -0.000001
# 6 0.000000 0.000000 0.000000 0.000000 -0.000001 -0.152330
#
#
# Mechanical properties :
#
#
# Convention : Reuss Voigt Hill
#
# Bulk Modulus (GPa) = 35.71485 91.77676 63.74580
# Shear Modulus (GPa) = -40.39085 26.99807 -6.69639
#
# Velocity S-wave (km/s) = -4.27834 3.49784 -1.74202
# Velocity P-wave (km/s) = 2.86713 7.60949 4.98417
#
# Compressibility (1/GPa) = 0.02799956
#
# Stress axis : x y z
#
# Youngs Moduli (GPa) = 37.92285 163.75724 133.49123
#
# Poissons Ratio (x) = 0.07232 0.21245
# Poissons Ratio (y) = 0.01675 0.52738
# Poissons Ratio (z) = 0.06035 0.64695
#
# Static dielectric constant tensor:
#      x y z
#    x 1.847570 0.000000 0.000000 
#    y 0.000000 1.622160 -0.000010 
#    z 0.000000 -0.000010 1.805760 
# 
# From -- ./inp_files/12583.got.cif
#   From: 2010.05.17/outbox.cif.g08.bks.cpg/sg74_7_cif.got.tgz:12583.got - 2010.06.03 17:57:02.
