data_PCOD9538856
_publ_section_title
;
Structure prediction by ZEFSAII (Michael W. Deem and Ramdas Pophale) SiO2 
 PCOD9538856
Probable space group: I M M A
;
_chemical_formula_sum "Si O2"
_cell_formula_units_Z 100
_cell_length_a 19.457669
_cell_length_b 9.294322
_cell_length_c 29.419082
_cell_angle_alpha 90.000000
_cell_angle_beta 90.000000
_cell_angle_gamma 90.000000
_cell_volume 5320.318627
_symmetry_space_group_name_H-M "I M M A"
_symmetry_group_IT_number 74
_symmetry_cell_setting 'orthorhombic'
loop_
_space_group_symop_operation_xyz
x,y,z
-x,1/2-y,z
x,-y,-z
-x,1/2+y,-z
-x,-y,-z
x,1/2+y,-z
-x,y,z
x,1/2-y,z
1/2+x,1/2+y,1/2+z
1/2-x,-y,1/2+z
1/2+x,1/2-y,1/2-z
1/2-x,y,1/2-z
1/2-x,1/2-y,1/2-z
1/2+x,y,1/2-z
1/2-x,1/2+y,1/2+z
1/2+x,-y,1/2+z
loop_
_atom_site_type_symbol
_atom_site_label
_atom_site_fract_x
_atom_site_fract_y
_atom_site_fract_z
Si Si1 0.813789 0.919395 0.782818
Si Si2 0.418502 0.413157 0.774482
Si Si3 0.162300 0.580519 0.953260
Si Si4 0.172981 0.918745 0.546558
Si Si5 0.364183 0.591395 0.365179
Si Si6 0.919789 0.419216 0.617789
Si Si7 0.500000 0.250000 0.660520
O O1 0.813354 0.750000 0.792850
O O2 0.750000 0.953377 0.750000
O O3 0.879774 0.968234 0.754108
O O4 0.816688 0.010176 0.828979
O O5 0.500000 0.414428 0.766065
O O6 0.394601 0.250000 0.762393
O O7 0.407657 0.435279 0.828224
O O8 0.146381 0.750000 0.955708
O O9 0.244907 0.565304 0.947018
O O10 0.128539 0.502839 0.910277
O O11 0.143819 0.500000 0.000000
O O12 0.157939 0.750000 0.542413
O O13 0.154438 0.000000 0.500000
O O14 0.131057 0.987124 0.587851
O O15 0.335007 0.750000 0.377212
O O16 0.438352 0.627346 0.343356
O O17 0.910832 0.250000 0.607154
O O18 0.000000 0.455848 0.609233
#
# Coordination Sequence:
#
# PCOD9538856 Si02
#       7
#    16  16  16  16  16  16   4
#     4  11  25  40  57  90 129 161 202 251 303 359
#     4   9  20  38  60  83 113 154 200 246 294 355
#     4  10  21  39  64  93 123 159 202 249 305 369
#     4  10  21  35  55  83 114 150 196 243 294 354
#     4  10  22  42  67  88 125 157 200 251 305 359
#     4   9  19  36  55  79 113 152 197 245 294 348
#     4   8  24  44  66  96 122 156 208 256 302 376
#
# _framework density 18.795867000000001
#
# number of rings (size 3 to 8) (size 9 to 14) (size 15 to 20)
#    0.480    1.760    0.000    2.880    3.360    4.800 
#    0.000    3.200    0.000    0.000    0.000    0.000 
#    0.000    0.000    0.000    0.000    0.000    0.000 
#
# Total GULP energy -278541.662108 kJ/mol
# GULP energy per Si atom -5570.833242 kJ/mol
# Density = 1.875309 g / cm^3
# Si number density = 18.795867 Si / 1000 Ang^3
#
#
#
# Elastic Constant Matrix: (Units=GPa)
#
#
# Indices 1 2 3 4 5 6 
#
# 1 22.8128 26.1172 23.3172 0.0000 0.0000 0.0000
# 2 26.1172 82.5656 41.0549 0.0000 0.0000 0.0000
# 3 23.3172 41.0549 62.6092 0.0000 0.0000 0.0000
# 4 0.0000 0.0000 0.0000 27.3825 0.0000 0.0000
# 5 0.0000 0.0000 0.0000 0.0000 18.4574 0.0000
# 6 0.0000 0.0000 0.0000 0.0000 0.0000 25.8335
#
#
#
# Elastic Compliance Matrix: (Units=1/GPa)
#
#
# Indices 1 2 3 4 5 6 
#
# 1 0.083180 -0.016185 -0.020365 0.000000 0.000000 0.000000
# 2 -0.016185 0.021121 -0.007822 0.000000 0.000000 0.000000
# 3 -0.020365 -0.007822 0.028685 0.000000 0.000000 0.000000
# 4 0.000000 0.000000 0.000000 0.036520 0.000000 0.000000
# 5 0.000000 0.000000 0.000000 0.000000 0.054179 0.000000
# 6 0.000000 0.000000 0.000000 0.000000 0.000000 0.038709
#
#
# Mechanical properties :
#
#
# Convention : Reuss Voigt Hill
#
# Bulk Modulus (GPa) = 22.60290 38.77401 30.68846
# Shear Modulus (GPa) = 13.66549 19.50123 16.58336
#
# Velocity S-wave (km/s) = 2.69931 3.22456 2.97356
# Velocity P-wave (km/s) = 4.66547 5.87686 5.30585
#
# Compressibility (1/GPa) = 0.04424210
#
# Stress axis : x y z
#
# Youngs Moduli (GPa) = 12.02212 47.34732 34.86090
#
# Poissons Ratio (x) = 0.76633 0.70995
# Poissons Ratio (y) = 0.19458 0.27267
# Poissons Ratio (z) = 0.24483 0.37033
#
# Static dielectric constant tensor:
#      x y z
#    x 1.638280 0.000000 0.000000 
#    y 0.000000 1.649440 0.000000 
#    z 0.000000 0.000000 1.659700 
# 
# From -- ./inp_files/68243.got.cif
#   From: 2010.05.17/outbox.cif.g08.bks.cpg/sg74_35_cif.got.tgz:68243.got - 2010.06.03 17:57:02.
