data_PCOD9538261
_publ_section_title
;
Structure prediction by ZEFSAII (Michael W. Deem and Ramdas Pophale) SiO2 
 PCOD9538261
Probable space group: I M M A
;
_chemical_formula_sum "Si O2"
_cell_formula_units_Z 96
_cell_length_a 21.052113
_cell_length_b 20.356912
_cell_length_c 11.598591
_cell_angle_alpha 90.000000
_cell_angle_beta 90.000000
_cell_angle_gamma 90.000000
_cell_volume 4970.645901
_symmetry_space_group_name_H-M "I M M A"
_symmetry_group_IT_number 74
_symmetry_cell_setting 'orthorhombic'
loop_
_space_group_symop_operation_xyz
x,y,z
-x,1/2-y,z
x,-y,-z
-x,1/2+y,-z
-x,-y,-z
x,1/2+y,-z
-x,y,z
x,1/2-y,z
1/2+x,1/2+y,1/2+z
1/2-x,-y,1/2+z
1/2+x,1/2-y,1/2-z
1/2-x,y,1/2-z
1/2-x,1/2-y,1/2-z
1/2+x,y,1/2-z
1/2-x,1/2+y,1/2+z
1/2+x,-y,1/2+z
loop_
_atom_site_type_symbol
_atom_site_label
_atom_site_fract_x
_atom_site_fract_y
_atom_site_fract_z
Si Si1 0.569796 0.326168 0.598981
Si Si2 0.428807 0.101952 0.816621
Si Si3 0.300233 0.327349 0.479022
Si Si4 0.570458 0.982997 0.634217
Si Si5 0.682849 0.579059 0.002104
Si Si6 0.818834 0.900099 0.757071
O O1 0.500000 0.355703 0.569651
O O2 0.566290 0.250000 0.568345
O O3 0.577901 0.334159 0.736318
O O4 0.632942 0.349332 0.535114
O O5 0.500000 0.100046 0.868434
O O6 0.426110 0.045987 0.717886
O O7 0.372932 0.091887 0.906717
O O8 0.288549 0.250000 0.504074
O O9 0.245450 0.376659 0.524074
O O10 0.304959 0.338320 0.340494
O O11 0.500000 0.953639 0.652030
O O12 0.627737 0.938857 0.675809
O O13 0.576571 0.000000 0.500000
O O14 0.660977 0.604291 0.875452
O O15 0.695279 0.500000 0.000000
O O16 0.750000 0.935675 0.750000
#
# Coordination Sequence:
#
# PCOD9538261 Si02
#       6
#    16  16  16  16  16  16
#     4   9  19  38  62  88 118 152 195 252 312 363
#     4  10  21  37  59  87 121 158 201 251 308 373
#     4  10  23  42  64  90 121 162 209 259 308 366
#     4  10  20  36  59  87 118 153 201 259 312 361
#     4  11  23  40  58  88 125 168 204 249 307 361
#     4  10  22  37  56  83 118 157 200 247 302 361
#
# _framework density 19.313383999999999
#
# number of rings (size 3 to 8) (size 9 to 14) (size 15 to 20)
#    0.000    2.000    1.667    1.000    0.000   12.667 
#    0.000    1.667    0.000    0.500    0.000    4.667 
#    0.000    0.000    0.000    0.000    0.000    0.000 
#
# Total GULP energy -267410.396672 kJ/mol
# GULP energy per Si atom -5571.049931 kJ/mol
# Density = 1.926943 g / cm^3
# Si number density = 19.313384 Si / 1000 Ang^3
#
#
#
# Elastic Constant Matrix: (Units=GPa)
#
#
# Indices 1 2 3 4 5 6 
#
# 1 198.2495 62.4770 93.5218 0.0000 0.0000 0.0000
# 2 62.4770 62.9190 18.8102 0.0000 0.0000 0.0000
# 3 93.5218 18.8102 112.4415 0.0000 0.0000 0.0000
# 4 0.0000 0.0000 0.0000 17.1723 0.0000 0.0000
# 5 0.0000 0.0000 0.0000 0.0000 36.0207 0.0000
# 6 0.0000 0.0000 0.0000 0.0000 0.0000 37.8653
#
#
#
# Elastic Compliance Matrix: (Units=1/GPa)
#
#
# Indices 1 2 3 4 5 6 
#
# 1 0.011937 -0.009353 -0.008364 0.000000 0.000000 0.000000
# 2 -0.009353 0.024058 0.003754 0.000000 0.000000 0.000000
# 3 -0.008364 0.003754 0.015222 0.000000 0.000000 0.000000
# 4 0.000000 0.000000 0.000000 0.058233 0.000000 0.000000
# 5 0.000000 0.000000 0.000000 0.000000 0.027762 0.000000
# 6 0.000000 0.000000 0.000000 0.000000 0.000000 0.026409
#
#
# Mechanical properties :
#
#
# Convention : Reuss Voigt Hill
#
# Bulk Modulus (GPa) = 42.93195 80.35867 61.64531
# Shear Modulus (GPa) = 25.08638 31.46506 28.27572
#
# Velocity S-wave (km/s) = 3.60795 4.04069 3.83044
# Velocity P-wave (km/s) = 6.29554 7.96666 7.17989
#
# Compressibility (1/GPa) = 0.02329268
#
# Stress axis : x y z
#
# Youngs Moduli (GPa) = 83.77106 41.56586 65.69384
#
# Poissons Ratio (x) = 0.38876 0.54947
# Poissons Ratio (y) = 0.78350 -0.24665
# Poissons Ratio (z) = 0.70067 -0.15606
#
# Static dielectric constant tensor:
#      x y z
#    x 1.700720 0.000000 0.000000 
#    y 0.000000 1.755080 0.000000 
#    z 0.000000 0.000000 1.680000 
# 
# From -- ./inp_files/23910.got.cif
#   From: 2010.05.17/outbox.cif.g08.bks.cpg/sg74_12_cif.got.tgz:23910.got - 2010.06.03 17:57:02.
