data_PCOD9538594
_publ_section_title
;
Structure prediction by ZEFSAII (Michael W. Deem and Ramdas Pophale) SiO2 
 PCOD9538594
Probable space group: I M M A
;
_chemical_formula_sum "Si O2"
_cell_formula_units_Z 80
_cell_length_a 17.407194
_cell_length_b 22.028755
_cell_length_c 9.144241
_cell_angle_alpha 90.000000
_cell_angle_beta 90.000000
_cell_angle_gamma 90.000000
_cell_volume 3506.439789
_symmetry_space_group_name_H-M "I M M A"
_symmetry_group_IT_number 74
_symmetry_cell_setting 'orthorhombic'
loop_
_space_group_symop_operation_xyz
x,y,z
-x,1/2-y,z
x,-y,-z
-x,1/2+y,-z
-x,-y,-z
x,1/2+y,-z
-x,y,z
x,1/2-y,z
1/2+x,1/2+y,1/2+z
1/2-x,-y,1/2+z
1/2+x,1/2-y,1/2-z
1/2-x,y,1/2-z
1/2-x,1/2-y,1/2-z
1/2+x,y,1/2-z
1/2-x,1/2+y,1/2+z
1/2+x,-y,1/2+z
loop_
_atom_site_type_symbol
_atom_site_label
_atom_site_fract_x
_atom_site_fract_y
_atom_site_fract_z
Si Si1 0.000000 0.020643 0.752903
Si Si2 0.655716 0.128783 0.344935
Si Si3 0.915125 0.320743 0.433719
Si Si4 0.000000 0.904264 0.971946
Si Si5 0.726928 0.823374 0.084079
Si Si6 0.325740 0.499564 0.171884
O O1 0.000000 0.961882 0.861097
O O2 0.915787 0.020657 0.678094
O O3 0.000000 0.076648 0.861944
O O4 0.635130 0.173469 0.212666
O O5 0.578033 0.129109 0.437484
O O6 0.721695 0.146107 0.458140
O O7 0.668581 0.064442 0.262547
O O8 0.925109 0.250000 0.463862
O O9 0.860232 0.346052 0.558905
O O10 0.000000 0.349202 0.417962
O O11 0.730956 0.750000 0.062102
O O12 0.750000 0.834664 0.250000
O O13 0.250000 0.529475 0.250000
O O14 0.306354 0.500000 0.000000
#
# Coordination Sequence:
#
# PCOD9538594 Si02
#       6
#     8  16  16   8  16  16
#     4   9  21  44  64  84 127 169 206 268 329 377
#     4  11  21  42  64  95 125 167 217 261 318 389
#     4  10  20  38  64  94 127 162 206 262 318 380
#     4   9  20  38  65  90 125 161 211 264 320 378
#     4  10  22  42  64  93 133 170 208 262 322 383
#     4  11  25  43  66  94 127 168 217 269 323 383
#
# _framework density 22.815163999999999
#
# number of rings (size 3 to 8) (size 9 to 14) (size 15 to 20)
#    0.000    1.800    1.000    2.700    5.600    1.600 
#    9.000    0.000    0.000    0.000    0.000    0.000 
#    0.000    0.000    0.000    0.000    0.000    0.000 
#
# Total GULP energy -223101.158141 kJ/mol
# GULP energy per Si atom -5577.528954 kJ/mol
# Density = 2.276324 g / cm^3
# Si number density = 22.815164 Si / 1000 Ang^3
#
#
#
# Elastic Constant Matrix: (Units=GPa)
#
#
# Indices 1 2 3 4 5 6 
#
# 1 211.1031 30.2009 96.8447 0.0000 0.0000 0.0000
# 2 30.2009 59.5514 20.2870 0.0000 0.0000 0.0000
# 3 96.8447 20.2870 168.9124 0.0000 0.0000 0.0000
# 4 0.0000 0.0000 0.0000 20.8688 0.0000 0.0000
# 5 0.0000 0.0000 0.0000 0.0000 5.2264 0.0000
# 6 0.0000 0.0000 0.0000 0.0000 0.0000 122.7232
#
#
#
# Elastic Compliance Matrix: (Units=1/GPa)
#
#
# Indices 1 2 3 4 5 6 
#
# 1 0.006687 -0.002174 -0.003573 0.000000 0.000000 0.000000
# 2 -0.002174 0.018215 -0.000941 0.000000 0.000000 0.000000
# 3 -0.003573 -0.000941 0.008082 0.000000 0.000000 0.000000
# 4 0.000000 0.000000 0.000000 0.047918 0.000000 0.000000
# 5 0.000000 0.000000 0.000000 0.000000 0.191336 0.000000
# 6 0.000000 0.000000 0.000000 0.000000 0.000000 0.008148
#
#
# Mechanical properties :
#
#
# Convention : Reuss Voigt Hill
#
# Bulk Modulus (GPa) = 51.00004 81.58135 66.29069
# Shear Modulus (GPa) = 16.65006 49.24597 32.94801
#
# Velocity S-wave (km/s) = 2.70438 4.65098 3.80429
# Velocity P-wave (km/s) = 5.67042 8.04222 6.95812
#
# Compressibility (1/GPa) = 0.01960783
#
# Stress axis : x y z
#
# Youngs Moduli (GPa) = 149.54043 54.89847 123.73527
#
# Poissons Ratio (x) = 0.11936 0.44209
# Poissons Ratio (y) = 0.32512 0.11646
# Poissons Ratio (z) = 0.53429 0.05167
#
# Static dielectric constant tensor:
#      x y z
#    x 2.177310 0.000000 0.000000 
#    y 0.000000 1.908060 0.000000 
#    z 0.000000 0.000000 1.807110 
# 
# From -- ./inp_files/10994.got.cif
#   From: 2010.05.17/outbox.cif.g08.bks.cpg/sg74_6_cif.got.tgz:10994.got - 2010.06.03 17:57:02.
