data_PCOD9538985
_publ_section_title
;
Structure prediction by ZEFSAII (Michael W. Deem and Ramdas Pophale) SiO2 
 PCOD9538985
Probable space group: I M M A
;
_chemical_formula_sum "Si O2"
_cell_formula_units_Z 112
_cell_length_a 25.154770
_cell_length_b 15.608610
_cell_length_c 13.018244
_cell_angle_alpha 90.000000
_cell_angle_beta 90.000000
_cell_angle_gamma 90.000000
_cell_volume 5111.366089
_symmetry_space_group_name_H-M "I M M A"
_symmetry_group_IT_number 74
_symmetry_cell_setting 'orthorhombic'
loop_
_space_group_symop_operation_xyz
x,y,z
-x,1/2-y,z
x,-y,-z
-x,1/2+y,-z
-x,-y,-z
x,1/2+y,-z
-x,y,z
x,1/2-y,z
1/2+x,1/2+y,1/2+z
1/2-x,-y,1/2+z
1/2+x,1/2-y,1/2-z
1/2-x,y,1/2-z
1/2-x,1/2-y,1/2-z
1/2+x,y,1/2-z
1/2-x,1/2+y,1/2+z
1/2+x,-y,1/2+z
loop_
_atom_site_type_symbol
_atom_site_label
_atom_site_fract_x
_atom_site_fract_y
_atom_site_fract_z
Si Si1 0.559708 0.649803 0.700921
Si Si2 0.698749 0.842489 0.822661
Si Si3 0.673904 0.023616 0.885869
Si Si4 0.058860 0.342722 0.840905
Si Si5 0.558924 0.015532 0.833638
Si Si6 0.133908 0.599999 0.985044
Si Si7 0.248534 0.345941 0.547591
O O1 0.500000 0.633126 0.655150
O O2 0.560277 0.750000 0.728504
O O3 0.562975 0.582802 0.795166
O O4 0.607586 0.630204 0.621813
O O5 0.670781 0.750000 0.800613
O O6 0.750000 0.841391 0.750000
O O7 0.677369 0.940004 0.813592
O O8 0.714173 0.837958 0.942685
O O9 0.714955 0.100754 0.867593
O O10 0.611448 0.043993 0.893810
O O11 0.692230 0.000000 0.000000
O O12 0.063713 0.250000 0.786857
O O13 0.061798 0.422874 0.765579
O O14 0.102660 0.350042 0.926957
O O15 0.000000 0.345223 0.888799
O O16 0.500000 0.028231 0.879924
O O17 0.196115 0.614554 0.006459
O O18 0.122407 0.500000 0.000000
O O19 0.259410 0.250000 0.585250
#
# Coordination Sequence:
#
# PCOD9538985 Si02
#       7
#    16  16  16  16  16  16  16
#     4  10  21  36  56  89 130 164 198 245 301 360
#     4   9  19  35  57  84 113 148 193 240 291 352
#     4  10  22  40  60  83 116 153 192 251 308 355
#     4  10  21  37  56  82 117 156 200 245 289 345
#     4  10  22  39  60  86 113 151 203 255 302 357
#     4  12  21  33  58  87 123 165 196 235 287 360
#     4  10  22  39  57  83 117 154 197 239 289 355
#
# _framework density 21.911949
#
# number of rings (size 3 to 8) (size 9 to 14) (size 15 to 20)
#    0.000    1.857    1.429    3.000    2.000    4.286 
#    0.000    0.000    0.000    2.143    0.000    8.000 
#    0.000    0.000    0.000    0.000    0.000    0.000 
#
# Total GULP energy -311951.154154 kJ/mol
# GULP energy per Si atom -5570.556324 kJ/mol
# Density = 2.186208 g / cm^3
# Si number density = 21.911949 Si / 1000 Ang^3
#
#
#
# Elastic Constant Matrix: (Units=GPa)
#
#
# Indices 1 2 3 4 5 6 
#
# 1 117.7483 25.9655 4.3589 0.0000 0.0000 0.0000
# 2 25.9655 118.6387 10.4562 0.0000 0.0000 0.0000
# 3 4.3589 10.4562 18.4273 0.0000 0.0000 0.0000
# 4 0.0000 0.0000 0.0000 6.4785 0.0000 0.0000
# 5 0.0000 0.0000 0.0000 0.0000 44.7924 0.0000
# 6 0.0000 0.0000 0.0000 0.0000 0.0000 3.1526
#
#
#
# Elastic Compliance Matrix: (Units=1/GPa)
#
#
# Indices 1 2 3 4 5 6 
#
# 1 0.008943 -0.001864 -0.001058 0.000000 0.000000 0.000000
# 2 -0.001864 0.009261 -0.004814 0.000000 0.000000 0.000000
# 3 -0.001058 -0.004814 0.057249 0.000000 0.000000 0.000000
# 4 0.000000 0.000000 0.000000 0.154358 0.000000 0.000000
# 5 0.000000 0.000000 0.000000 0.000000 0.022325 0.000000
# 6 0.000000 0.000000 0.000000 0.000000 0.000000 0.317198
#
#
# Mechanical properties :
#
#
# Convention : Reuss Voigt Hill
#
# Bulk Modulus (GPa) = 16.67178 37.37505 27.02342
# Shear Modulus (GPa) = 8.26719 25.15361 16.71040
#
# Velocity S-wave (km/s) = 1.94451 3.39180 2.76455
# Velocity P-wave (km/s) = 3.55901 5.69500 4.74866
#
# Compressibility (1/GPa) = 0.05998161
#
# Stress axis : x y z
#
# Youngs Moduli (GPa) = 111.82053 107.97718 17.46745
#
# Poissons Ratio (x) = 0.20127 0.01848
# Poissons Ratio (y) = 0.20844 0.08409
# Poissons Ratio (z) = 0.11827 0.51982
#
# Static dielectric constant tensor:
#      x y z
#    x 1.847370 0.000000 0.000000 
#    y 0.000000 1.984760 0.000000 
#    z 0.000000 0.000000 1.784560 
# 
# From -- ./inp_files/36546.got.cif
#   From: 2010.05.17/outbox.cif.g08.bks.cpg/sg74_19_cif.got.tgz:36546.got - 2010.06.03 17:57:02.
