data_PCOD9538710
_publ_section_title
;
Structure prediction by ZEFSAII (Michael W. Deem and Ramdas Pophale) SiO2 
 PCOD9538710
Probable space group: I M M A
;
_chemical_formula_sum "Si O2"
_cell_formula_units_Z 64
_cell_length_a 18.086128
_cell_length_b 13.970494
_cell_length_c 11.753250
_cell_angle_alpha 90.000000
_cell_angle_beta 90.000000
_cell_angle_gamma 90.000000
_cell_volume 2969.718861
_symmetry_space_group_name_H-M "I M M A"
_symmetry_group_IT_number 74
_symmetry_cell_setting 'orthorhombic'
loop_
_space_group_symop_operation_xyz
x,y,z
-x,1/2-y,z
x,-y,-z
-x,1/2+y,-z
-x,-y,-z
x,1/2+y,-z
-x,y,z
x,1/2-y,z
1/2+x,1/2+y,1/2+z
1/2-x,-y,1/2+z
1/2+x,1/2-y,1/2-z
1/2-x,y,1/2-z
1/2-x,1/2-y,1/2-z
1/2+x,y,1/2-z
1/2-x,1/2+y,1/2+z
1/2+x,-y,1/2+z
loop_
_atom_site_type_symbol
_atom_site_label
_atom_site_fract_x
_atom_site_fract_y
_atom_site_fract_z
Si Si1 0.153406 0.088813 0.086468
Si Si2 0.000000 0.861274 0.274695
Si Si3 0.500000 0.115244 0.503579
Si Si4 0.692309 0.642215 0.002863
Si Si5 0.361316 0.495451 0.831357
O O1 0.076393 0.142334 0.058613
O O2 0.229036 0.143488 0.060688
O O3 0.153517 0.046267 0.212486
O O4 0.154489 0.000000 0.000000
O O5 0.930595 0.924766 0.315178
O O6 0.000000 0.750000 0.313308
O O7 0.000000 0.858287 0.136401
O O8 0.500000 0.000000 0.500000
O O9 0.668497 0.750000 0.026646
O O10 0.636149 0.582162 0.922848
O O11 0.699288 0.577193 0.115930
#
# Coordination Sequence:
#
# PCOD9538710 Si02
#       5
#    16   8   8  16  16
#     4  11  20  41  68  97 131 176 216 278 345 394
#     4  12  24  41  71 105 133 174 226 279 335 405
#     4  10  20  40  66  94 137 169 215 275 343 388
#     4  11  26  43  66 100 137 182 232 271 331 409
#     4  11  23  44  70  91 137 179 220 283 340 384
#
# _framework density 21.550861000000001
#
# number of rings (size 3 to 8) (size 9 to 14) (size 15 to 20)
#    0.000    1.000    7.500    1.500    0.000    5.000 
#    0.000    3.125    0.000    0.000    0.000    0.000 
#    0.000    0.000    0.000    0.000    0.000    0.000 
#
# Total GULP energy -178561.654563 kJ/mol
# GULP energy per Si atom -5580.051705 kJ/mol
# Density = 2.150181 g / cm^3
# Si number density = 21.550861 Si / 1000 Ang^3
#
#
#
# Elastic Constant Matrix: (Units=GPa)
#
#
# Indices 1 2 3 4 5 6 
#
# 1 128.9403 33.9021 44.1459 0.0000 0.0000 0.0000
# 2 33.9021 137.4668 23.2155 0.0000 0.0000 0.0000
# 3 44.1459 23.2155 107.7637 0.0000 0.0000 0.0000
# 4 0.0000 0.0000 0.0000 10.8896 0.0000 0.0000
# 5 0.0000 0.0000 0.0000 0.0000 27.8861 0.0000
# 6 0.0000 0.0000 0.0000 0.0000 0.0000 14.0250
#
#
#
# Elastic Compliance Matrix: (Units=1/GPa)
#
#
# Indices 1 2 3 4 5 6 
#
# 1 0.009402 -0.001731 -0.003478 0.000000 0.000000 0.000000
# 2 -0.001731 0.007868 -0.000986 0.000000 0.000000 0.000000
# 3 -0.003478 -0.000986 0.010917 0.000000 0.000000 0.000000
# 4 0.000000 0.000000 0.000000 0.091830 0.000000 0.000000
# 5 0.000000 0.000000 0.000000 0.000000 0.035860 0.000000
# 6 0.000000 0.000000 0.000000 0.000000 0.000000 0.071301
#
#
# Mechanical properties :
#
#
# Convention : Reuss Voigt Hill
#
# Bulk Modulus (GPa) = 63.30901 64.07755 63.69328
# Shear Modulus (GPa) = 20.42199 28.75398 24.58798
#
# Velocity S-wave (km/s) = 3.08168 3.65669 3.38143
# Velocity P-wave (km/s) = 6.48866 6.90117 6.69809
#
# Compressibility (1/GPa) = 0.01579554
#
# Stress axis : x y z
#
# Youngs Moduli (GPa) = 106.36434 127.09859 91.60106
#
# Poissons Ratio (x) = 0.22003 0.31863
# Poissons Ratio (y) = 0.18414 0.09030
# Poissons Ratio (z) = 0.36999 0.12529
#
# Static dielectric constant tensor:
#      x y z
#    x 1.874480 0.000000 0.000000 
#    y 0.000000 1.772520 0.000000 
#    z 0.000000 0.000000 1.787780 
# 
# From -- ./inp_files/21630.got.cif
#   From: 2010.05.17/outbox.cif.g08.bks.cpg/sg74_11_cif.got.tgz:21630.got - 2010.06.03 17:57:02.
