data_PCOD9538181
_publ_section_title
;
Structure prediction by ZEFSAII (Michael W. Deem and Ramdas Pophale) SiO2 
 PCOD9538181
Probable space group: I M M A
;
_chemical_formula_sum "Si O2"
_cell_formula_units_Z 104
_cell_length_a 26.960789
_cell_length_b 8.400131
_cell_length_c 23.705649
_cell_angle_alpha 90.000000
_cell_angle_beta 90.000000
_cell_angle_gamma 90.000000
_cell_volume 5368.716932
_symmetry_space_group_name_H-M "I M M A"
_symmetry_group_IT_number 74
_symmetry_cell_setting 'orthorhombic'
loop_
_space_group_symop_operation_xyz
x,y,z
-x,1/2-y,z
x,-y,-z
-x,1/2+y,-z
-x,-y,-z
x,1/2+y,-z
-x,y,z
x,1/2-y,z
1/2+x,1/2+y,1/2+z
1/2-x,-y,1/2+z
1/2+x,1/2-y,1/2-z
1/2-x,y,1/2-z
1/2-x,1/2-y,1/2-z
1/2+x,y,1/2-z
1/2-x,1/2+y,1/2+z
1/2+x,-y,1/2+z
loop_
_atom_site_type_symbol
_atom_site_label
_atom_site_fract_x
_atom_site_fract_y
_atom_site_fract_z
Si Si1 0.899606 0.557536 0.375295
Si Si2 0.500000 0.941588 0.063313
Si Si3 0.691729 0.061257 0.562383
Si Si4 0.442475 0.442050 0.755037
Si Si5 0.194036 0.430591 0.269339
Si Si6 0.870362 0.558879 0.832405
Si Si7 0.202390 0.058984 0.393749
O O1 0.895509 0.750000 0.375638
O O2 0.950394 0.506909 0.404995
O O3 0.908405 0.508137 0.309125
O O4 0.853400 0.487284 0.410898
O O5 0.500000 0.750000 0.064888
O O6 0.500000 0.000000 0.000000
O O7 0.691820 0.250000 0.562531
O O8 0.679311 0.000000 0.500000
O O9 0.651929 0.002891 0.608971
O O10 0.747939 0.004633 0.577356
O O11 0.500000 0.486655 0.765003
O O12 0.440324 0.250000 0.753051
O O13 0.422658 0.509177 0.695323
O O14 0.173814 0.250000 0.277474
O O15 0.250000 0.414004 0.250000
O O16 0.165740 0.506042 0.217160
O O17 0.198496 0.509567 0.329988
O O18 0.867219 0.750000 0.834990
O O19 0.207697 0.250000 0.392698
#
# Coordination Sequence:
#
# PCOD9538181 Si02
#       7
#    16   8  16  16  16  16  16
#     4  10  20  36  57  84 118 158 204 255 306 353
#     4  10  22  40  58  76 108 156 207 256 301 350
#     4  12  26  44  63  87 118 160 205 247 295 359
#     4  10  20  36  59  89 124 159 198 251 309 363
#     4   9  16  29  51  81 117 150 181 226 284 336
#     4  11  21  37  61  91 123 157 196 245 301 363
#     4  11  21  36  58  88 122 158 196 243 296 350
#
# _framework density 19.371482
#
# number of rings (size 3 to 8) (size 9 to 14) (size 15 to 20)
#    0.000    1.538    3.846    2.308    0.000    1.538 
#    0.000    2.308    0.000    0.462    0.000    0.000 
#    0.000    0.000    0.000    0.000    0.000    0.000 
#
# Total GULP energy -289762.256888 kJ/mol
# GULP energy per Si atom -5572.351094 kJ/mol
# Density = 1.932739 g / cm^3
# Si number density = 19.371482 Si / 1000 Ang^3
#
#
#
# Elastic Constant Matrix: (Units=GPa)
#
#
# Indices 1 2 3 4 5 6 
#
# 1 66.8413 20.9358 26.2588 0.0000 0.0000 0.0000
# 2 20.9358 59.8659 22.6963 0.0000 0.0000 0.0000
# 3 26.2588 22.6963 115.9673 0.0000 0.0000 0.0000
# 4 0.0000 0.0000 0.0000 58.0226 0.0000 0.0000
# 5 0.0000 0.0000 0.0000 0.0000 19.5672 0.0000
# 6 0.0000 0.0000 0.0000 0.0000 0.0000 28.0132
#
#
#
# Elastic Compliance Matrix: (Units=1/GPa)
#
#
# Indices 1 2 3 4 5 6 
#
# 1 0.017733 -0.005054 -0.003026 0.000000 0.000000 0.000000
# 2 -0.005054 0.019483 -0.002669 0.000000 0.000000 0.000000
# 3 -0.003026 -0.002669 0.009831 0.000000 0.000000 0.000000
# 4 0.000000 0.000000 0.000000 0.017235 0.000000 0.000000
# 5 0.000000 0.000000 0.000000 0.000000 0.051106 0.000000
# 6 0.000000 0.000000 0.000000 0.000000 0.000000 0.035697
#
#
# Mechanical properties :
#
#
# Convention : Reuss Voigt Hill
#
# Bulk Modulus (GPa) = 39.14085 42.49513 40.81799
# Shear Modulus (GPa) = 27.60929 32.63952 30.12440
#
# Velocity S-wave (km/s) = 3.77935 4.10924 3.94774
# Velocity P-wave (km/s) = 6.26849 6.67076 6.47275
#
# Compressibility (1/GPa) = 0.02554875
#
# Stress axis : x y z
#
# Youngs Moduli (GPa) = 56.39320 51.32620 101.72284
#
# Poissons Ratio (x) = 0.25940 0.30782
# Poissons Ratio (y) = 0.28501 0.27147
# Poissons Ratio (z) = 0.17065 0.13698
#
# Static dielectric constant tensor:
#      x y z
#    x 1.760070 0.000000 0.000000 
#    y 0.000000 1.694720 0.000000 
#    z 0.000000 0.000000 1.711380 
# 
# From -- ./inp_files/55212.got.cif
#   From: 2010.05.17/outbox.cif.g08.bks.cpg/sg74_28_cif.got.tgz:55212.got - 2010.06.03 17:57:02.
