data_PCOD9538418
_publ_section_title
;
Structure prediction by ZEFSAII (Michael W. Deem and Ramdas Pophale) SiO2 
 PCOD9538418
Probable space group: I M M A
;
_chemical_formula_sum "Si O2"
_cell_formula_units_Z 72
_cell_length_a 7.901036
_cell_length_b 13.294790
_cell_length_c 35.969873
_cell_angle_alpha 90.000000
_cell_angle_beta 90.000000
_cell_angle_gamma 90.000000
_cell_volume 3778.369500
_symmetry_space_group_name_H-M "I M M A"
_symmetry_group_IT_number 74
_symmetry_cell_setting 'orthorhombic'
loop_
_space_group_symop_operation_xyz
x,y,z
-x,1/2-y,z
x,-y,-z
-x,1/2+y,-z
-x,-y,-z
x,1/2+y,-z
-x,y,z
x,1/2-y,z
1/2+x,1/2+y,1/2+z
1/2-x,-y,1/2+z
1/2+x,1/2-y,1/2-z
1/2-x,y,1/2-z
1/2-x,1/2-y,1/2-z
1/2+x,y,1/2-z
1/2-x,1/2+y,1/2+z
1/2+x,-y,1/2+z
loop_
_atom_site_type_symbol
_atom_site_label
_atom_site_fract_x
_atom_site_fract_y
_atom_site_fract_z
Si Si1 0.697342 0.250000 0.707231
Si Si2 0.000000 0.126745 0.981439
Si Si3 0.798768 0.928927 0.346487
Si Si4 0.000000 0.870382 0.933394
Si Si5 0.202250 0.633016 0.623977
Si Si6 0.193124 0.370360 0.570896
O O1 0.500000 0.250000 0.706808
O O2 0.750000 0.250000 0.750000
O O3 0.748674 0.149134 0.685100
O O4 0.000000 0.093776 0.024232
O O5 0.000000 0.250000 0.981204
O O6 0.830581 0.096795 0.959203
O O7 0.741769 0.893142 0.387431
O O8 0.000000 0.922022 0.347725
O O9 0.757453 0.047920 0.345091
O O10 0.829000 0.892753 0.910020
O O11 0.000000 0.750000 0.935983
O O12 0.232271 0.750000 0.634381
O O13 0.000000 0.624863 0.614896
O O14 0.181337 0.250000 0.568172
O O15 0.000000 0.410236 0.566141
#
# Coordination Sequence:
#
# PCOD9538418 Si02
#       6
#     8   8  16   8  16  16
#     4  12  26  40  64  96 128 156 182 228 298 366
#     4   9  18  29  47  73 109 148 199 251 303 353
#     4  10  20  37  60  84 117 151 191 244 289 354
#     4   9  18  33  51  76 112 153 200 267 304 342
#     4   9  19  35  57  83 112 154 205 248 297 344
#     4   9  17  29  47  73 105 146 194 241 295 355
#
# _framework density 19.055838999999999
#
# number of rings (size 3 to 8) (size 9 to 14) (size 15 to 20)
#    0.000    2.444    1.111    1.000    3.111    0.889 
#    0.000    6.667    0.000    4.667    0.000    0.000 
#    0.000    0.000    0.000    0.000    0.000    0.000 
#
# Total GULP energy -200604.328788 kJ/mol
# GULP energy per Si atom -5572.342466 kJ/mol
# Density = 1.901247 g / cm^3
# Si number density = 19.055839 Si / 1000 Ang^3
#
#
#
# Elastic Constant Matrix: (Units=GPa)
#
#
# Indices 1 2 3 4 5 6 
#
# 1 67.5216 45.1649 47.8202 0.0000 0.0000 0.0000
# 2 45.1649 141.2080 82.7529 0.0000 0.0000 0.0000
# 3 47.8202 82.7529 126.1745 0.0000 0.0000 0.0000
# 4 0.0000 0.0000 0.0000 29.3224 0.0000 0.0000
# 5 0.0000 0.0000 0.0000 0.0000 28.4990 0.0000
# 6 0.0000 0.0000 0.0000 0.0000 0.0000 13.4484
#
#
#
# Elastic Compliance Matrix: (Units=1/GPa)
#
#
# Indices 1 2 3 4 5 6 
#
# 1 0.021183 -0.003363 -0.005823 0.000000 0.000000 0.000000
# 2 -0.003363 0.012037 -0.006620 0.000000 0.000000 0.000000
# 3 -0.005823 -0.006620 0.014474 0.000000 0.000000 0.000000
# 4 0.000000 0.000000 0.000000 0.034104 0.000000 0.000000
# 5 0.000000 0.000000 0.000000 0.000000 0.035089 0.000000
# 6 0.000000 0.000000 0.000000 0.000000 0.000000 0.074358
#
#
# Mechanical properties :
#
#
# Convention : Reuss Voigt Hill
#
# Bulk Modulus (GPa) = 62.17801 76.26446 69.22123
# Shear Modulus (GPa) = 21.90885 24.86503 23.38694
#
# Velocity S-wave (km/s) = 3.39443 3.61619 3.50706
# Velocity P-wave (km/s) = 6.93275 7.58579 7.26661
#
# Compressibility (1/GPa) = 0.01608286
#
# Stress axis : x y z
#
# Youngs Moduli (GPa) = 47.20659 83.07753 69.08866
#
# Poissons Ratio (x) = 0.27940 0.40229
# Poissons Ratio (y) = 0.15876 0.45736
# Poissons Ratio (z) = 0.27488 0.54997
#
# Static dielectric constant tensor:
#      x y z
#    x 1.682410 0.000000 0.000000 
#    y 0.000000 1.643250 0.000000 
#    z 0.000000 0.000000 1.599000 
# 
# From -- ./inp_files/70013.got.cif
#   From: 2010.05.17/outbox.cif.g08.bks.cpg/sg74_36_cif.got.tgz:70013.got - 2010.06.03 17:57:02.
