data_PCOD9538475
_publ_section_title
;
Structure prediction by ZEFSAII (Michael W. Deem and Ramdas Pophale) SiO2 
 PCOD9538475
Probable space group: I M M A
;
_chemical_formula_sum "Si O2"
_cell_formula_units_Z 96
_cell_length_a 20.164674
_cell_length_b 20.201280
_cell_length_c 12.289988
_cell_angle_alpha 90.000000
_cell_angle_beta 90.000000
_cell_angle_gamma 90.000000
_cell_volume 5006.353964
_symmetry_space_group_name_H-M "I M M A"
_symmetry_group_IT_number 74
_symmetry_cell_setting 'orthorhombic'
loop_
_space_group_symop_operation_xyz
x,y,z
-x,1/2-y,z
x,-y,-z
-x,1/2+y,-z
-x,-y,-z
x,1/2+y,-z
-x,y,z
x,1/2-y,z
1/2+x,1/2+y,1/2+z
1/2-x,-y,1/2+z
1/2+x,1/2-y,1/2-z
1/2-x,y,1/2-z
1/2-x,1/2-y,1/2-z
1/2+x,y,1/2-z
1/2-x,1/2+y,1/2+z
1/2+x,-y,1/2+z
loop_
_atom_site_type_symbol
_atom_site_label
_atom_site_fract_x
_atom_site_fract_y
_atom_site_fract_z
Si Si1 0.424477 0.424444 0.692438
Si Si2 0.250716 0.174618 0.625273
Si Si3 0.573338 0.568825 0.934973
Si Si4 0.841302 0.922794 0.990659
Si Si5 0.903994 0.325121 0.616722
Si Si6 0.169812 0.046624 0.246904
O O1 0.500000 0.448179 0.704005
O O2 0.406407 0.415164 0.565639
O O3 0.416981 0.359369 0.766572
O O4 0.369600 0.476866 0.734487
O O5 0.278282 0.250000 0.624581
O O6 0.250000 0.150599 0.750000
O O7 0.289551 0.125878 0.547056
O O8 0.174313 0.177117 0.595488
O O9 0.500000 0.565363 0.881164
O O10 0.634506 0.577462 0.852503
O O11 0.582999 0.500000 0.000000
O O12 0.570291 0.626535 0.023721
O O13 0.847641 0.912514 0.862323
O O14 0.819494 0.000000 0.000000
O O15 0.928054 0.250000 0.614296
O O16 0.250000 0.039548 0.250000
#
# Coordination Sequence:
#
# PCOD9538475 Si02
#       6
#    16  16  16  16  16  16
#     4  11  23  38  59  88 127 164 203 257 320 384
#     4  10  20  37  62  92 126 166 210 262 318 381
#     4  11  23  41  65  90 125 172 222 268 319 383
#     4  10  23  36  60  94 128 165 208 261 321 380
#     4  11  23  38  64  96 129 164 211 268 320 376
#     4  11  24  39  62  92 123 166 208 262 322 377
#
# _framework density 19.175630999999999
#
# number of rings (size 3 to 8) (size 9 to 14) (size 15 to 20)
#    0.000    1.333    3.333    2.000    4.667    7.667 
#    0.000    0.833    0.000    3.000    0.000    2.333 
#    0.000    0.000    0.000    0.000    0.000    0.000 
#
# Total GULP energy -267864.090157 kJ/mol
# GULP energy per Si atom -5580.501878 kJ/mol
# Density = 1.913199 g / cm^3
# Si number density = 19.175631 Si / 1000 Ang^3
#
#
#
# Elastic Constant Matrix: (Units=GPa)
#
#
# Indices 1 2 3 4 5 6 
#
# 1 126.6727 47.1736 46.3091 0.0000 0.0000 0.0000
# 2 47.1736 111.3542 70.6016 0.0000 0.0000 0.0000
# 3 46.3091 70.6016 122.3093 0.0000 0.0000 0.0000
# 4 0.0000 0.0000 0.0000 28.2378 0.0000 0.0000
# 5 0.0000 0.0000 0.0000 0.0000 14.9998 0.0000
# 6 0.0000 0.0000 0.0000 0.0000 0.0000 116.3984
#
#
#
# Elastic Compliance Matrix: (Units=1/GPa)
#
#
# Indices 1 2 3 4 5 6 
#
# 1 0.009688 -0.002805 -0.002049 0.000000 0.000000 0.000000
# 2 -0.002805 0.014976 -0.007583 0.000000 0.000000 0.000000
# 3 -0.002049 -0.007583 0.013329 0.000000 0.000000 0.000000
# 4 0.000000 0.000000 0.000000 0.035414 0.000000 0.000000
# 5 0.000000 0.000000 0.000000 0.000000 0.066667 0.000000
# 6 0.000000 0.000000 0.000000 0.000000 0.000000 0.008591
#
#
# Mechanical properties :
#
#
# Convention : Reuss Voigt Hill
#
# Bulk Modulus (GPa) = 76.22214 76.50054 76.36134
# Shear Modulus (GPa) = 28.10369 45.01067 36.55718
#
# Velocity S-wave (km/s) = 3.83246 4.85013 4.37102
# Velocity P-wave (km/s) = 7.70840 8.44668 8.08597
#
# Compressibility (1/GPa) = 0.01311955
#
# Stress axis : x y z
#
# Youngs Moduli (GPa) = 103.21997 66.77136 75.02506
#
# Poissons Ratio (x) = 0.18730 0.15372
# Poissons Ratio (y) = 0.28955 0.56891
# Poissons Ratio (z) = 0.21148 0.50632
#
# Static dielectric constant tensor:
#      x y z
#    x 1.706460 0.000000 0.000000 
#    y 0.000000 1.673500 0.000000 
#    z 0.000000 0.000000 1.698870 
# 
# From -- ./inp_files/23918.got.cif
#   From: 2010.05.17/outbox.cif.g08.bks.cpg/sg74_12_cif.got.tgz:23918.got - 2010.06.03 17:57:02.
