data_PCOD9538782
_publ_section_title
;
Structure prediction by ZEFSAII (Michael W. Deem and Ramdas Pophale) SiO2 
 PCOD9538782
Probable space group: I M M A
;
_chemical_formula_sum "Si O2"
_cell_formula_units_Z 112
_cell_length_a 14.663372
_cell_length_b 14.646098
_cell_length_c 25.502779
_cell_angle_alpha 90.000000
_cell_angle_beta 90.000000
_cell_angle_gamma 90.000000
_cell_volume 5477.006996
_symmetry_space_group_name_H-M "I M M A"
_symmetry_group_IT_number 74
_symmetry_cell_setting 'orthorhombic'
loop_
_space_group_symop_operation_xyz
x,y,z
-x,1/2-y,z
x,-y,-z
-x,1/2+y,-z
-x,-y,-z
x,1/2+y,-z
-x,y,z
x,1/2-y,z
1/2+x,1/2+y,1/2+z
1/2-x,-y,1/2+z
1/2+x,1/2-y,1/2-z
1/2-x,y,1/2-z
1/2-x,1/2-y,1/2-z
1/2+x,y,1/2-z
1/2-x,1/2+y,1/2+z
1/2+x,-y,1/2+z
loop_
_atom_site_type_symbol
_atom_site_label
_atom_site_fract_x
_atom_site_fract_y
_atom_site_fract_z
Si Si1 0.606881 0.845534 0.664952
Si Si2 0.099429 0.145087 0.983900
Si Si3 0.608029 0.855196 0.064433
Si Si4 0.888997 0.356747 0.284055
Si Si5 0.801969 0.500537 0.363061
Si Si6 0.396017 0.464919 0.622599
Si Si7 0.786289 0.643309 0.542235
O O1 0.500000 0.834838 0.674716
O O2 0.646124 0.750000 0.645393
O O3 0.642359 0.865767 0.723215
O O4 0.609344 0.926213 0.624527
O O5 0.100436 0.250000 0.964330
O O6 0.109575 0.079429 0.934294
O O7 0.000000 0.128559 0.008447
O O8 0.183203 0.136337 0.021984
O O9 0.500000 0.858294 0.057929
O O10 0.636585 0.750000 0.074223
O O11 0.637014 0.919503 0.112248
O O12 0.654263 0.882026 0.009182
O O13 0.868617 0.250000 0.299231
O O14 0.842907 0.437925 0.316892
O O15 0.000000 0.366158 0.287817
O O16 0.703658 0.549152 0.350635
O O17 0.798164 0.426276 0.410452
O O18 0.500000 0.441299 0.643142
O O19 0.807212 0.750000 0.555127
#
# Coordination Sequence:
#
# PCOD9538782 Si02
#       7
#    16  16  16  16  16  16  16
#     4   8  16  34  56  78 112 151 182 222 278 334
#     4   9  18  35  57  78 106 147 188 227 275 326
#     4  10  22  39  56  74 102 143 184 225 276 328
#     4   9  19  36  57  82 112 146 185 230 280 332
#     4  12  22  33  55  83 109 142 185 233 272 321
#     4  10  21  34  53  80 108 143 187 228 271 326
#     4  10  21  36  52  77 110 142 181 227 274 326
#
# _framework density 20.449124000000001
#
# number of rings (size 3 to 8) (size 9 to 14) (size 15 to 20)
#    0.000    2.286    1.429    2.143    0.000    4.000 
#    0.000    4.286    0.000    0.857    0.000    6.000 
#    0.000    0.000    0.000    0.000    0.000    0.000 
#
# Total GULP energy -312099.215349 kJ/mol
# GULP energy per Si atom -5573.200274 kJ/mol
# Density = 2.040258 g / cm^3
# Si number density = 20.449124 Si / 1000 Ang^3
#
#
#
# Elastic Constant Matrix: (Units=GPa)
#
#
# Indices 1 2 3 4 5 6 
#
# 1 77.7672 19.9584 11.8504 0.0000 0.0000 0.0000
# 2 19.9584 87.6173 49.6912 0.0000 0.0000 0.0000
# 3 11.8504 49.6912 43.2429 0.0000 0.0000 0.0000
# 4 0.0000 0.0000 0.0000 10.9267 0.0000 0.0000
# 5 0.0000 0.0000 0.0000 0.0000 52.0297 0.0000
# 6 0.0000 0.0000 0.0000 0.0000 0.0000 22.0493
#
#
#
# Elastic Compliance Matrix: (Units=1/GPa)
#
#
# Indices 1 2 3 4 5 6 
#
# 1 0.013661 -0.002839 -0.000482 0.000000 0.000000 0.000000
# 2 -0.002839 0.033359 -0.037556 0.000000 0.000000 0.000000
# 3 -0.000482 -0.037556 0.066413 0.000000 0.000000 0.000000
# 4 0.000000 0.000000 0.000000 0.091519 0.000000 0.000000
# 5 0.000000 0.000000 0.000000 0.000000 0.019220 0.000000
# 6 0.000000 0.000000 0.000000 0.000000 0.000000 0.045353
#
#
# Mechanical properties :
#
#
# Convention : Reuss Voigt Hill
#
# Bulk Modulus (GPa) = 31.56468 41.29192 36.42830
# Shear Modulus (GPa) = 13.81835 25.47632 19.64733
#
# Velocity S-wave (km/s) = 2.60233 3.53347 3.10303
# Velocity P-wave (km/s) = 4.94961 6.07319 5.53996
#
# Compressibility (1/GPa) = 0.03168098
#
# Stress axis : x y z
#
# Youngs Moduli (GPa) = 73.20218 29.97669 15.05722
#
# Poissons Ratio (x) = 0.08509 0.00725
# Poissons Ratio (y) = 0.20779 0.56549
# Poissons Ratio (z) = 0.03527 1.12580
#
# Static dielectric constant tensor:
#      x y z
#    x 1.837240 0.000000 0.000000 
#    y 0.000000 1.765040 0.000000 
#    z 0.000000 0.000000 1.712430 
# 
# From -- ./inp_files/60099.got.cif
#   From: 2010.05.17/outbox.cif.g08.bks.cpg/sg74_31_cif.got.tgz:60099.got - 2010.06.03 17:57:02.
