data_PCOD9538425
_publ_section_title
;
Structure prediction by ZEFSAII (Michael W. Deem and Ramdas Pophale) SiO2 
 PCOD9538425
Probable space group: I M M A
;
_chemical_formula_sum "Si O2"
_cell_formula_units_Z 96
_cell_length_a 14.584023
_cell_length_b 24.334379
_cell_length_c 14.347208
_cell_angle_alpha 90.000000
_cell_angle_beta 90.000000
_cell_angle_gamma 90.000000
_cell_volume 5091.725741
_symmetry_space_group_name_H-M "I M M A"
_symmetry_group_IT_number 74
_symmetry_cell_setting 'orthorhombic'
loop_
_space_group_symop_operation_xyz
x,y,z
-x,1/2-y,z
x,-y,-z
-x,1/2+y,-z
-x,-y,-z
x,1/2+y,-z
-x,y,z
x,1/2-y,z
1/2+x,1/2+y,1/2+z
1/2-x,-y,1/2+z
1/2+x,1/2-y,1/2-z
1/2-x,y,1/2-z
1/2-x,1/2-y,1/2-z
1/2+x,y,1/2-z
1/2-x,1/2+y,1/2+z
1/2+x,-y,1/2+z
loop_
_atom_site_type_symbol
_atom_site_label
_atom_site_fract_x
_atom_site_fract_y
_atom_site_fract_z
Si Si1 0.761560 0.386076 0.645286
Si Si2 0.109940 0.891838 0.673944
Si Si3 0.891480 0.988835 0.389355
Si Si4 0.213695 0.812098 0.532022
Si Si5 0.603871 0.151503 0.380235
Si Si6 0.604385 0.057869 0.534740
O O1 0.750000 0.365639 0.750000
O O2 0.836231 0.434849 0.639319
O O3 0.783654 0.338868 0.570401
O O4 0.667296 0.414307 0.611315
O O5 0.156636 0.853440 0.597203
O O6 0.128171 0.867379 0.776007
O O7 0.000000 0.891588 0.659858
O O8 0.139910 0.955223 0.662196
O O9 0.000000 0.981104 0.371704
O O10 0.880175 0.000000 0.500000
O O11 0.177833 0.750000 0.532259
O O12 0.316328 0.812315 0.575227
O O13 0.500000 0.174652 0.380099
O O14 0.602244 0.097833 0.445908
O O15 0.500000 0.049037 0.567728
O O16 0.643087 0.000000 0.500000
#
# Coordination Sequence:
#
# PCOD9538425 Si02
#       6
#    16  16  16  16  16  16
#     4  11  24  37  58  85 113 154 196 238 280 334
#     4  10  21  37  59  89 120 148 181 228 289 352
#     4  10  20  37  60  86 120 154 183 224 284 350
#     4  11  24  41  59  80 111 152 198 245 284 326
#     4   9  20  37  58  85 115 147 182 228 287 347
#     4   9  19  35  54  82 119 151 182 224 277 338
#
# _framework density 18.854118
#
# number of rings (size 3 to 8) (size 9 to 14) (size 15 to 20)
#    0.000    2.000    1.667    1.000    4.667    3.000 
#    0.000    1.667    0.000    0.000    0.000    4.667 
#    0.000    0.000    0.000    0.000    0.000    0.000 
#
# Total GULP energy -268060.135270 kJ/mol
# GULP energy per Si atom -5584.586151 kJ/mol
# Density = 1.881121 g / cm^3
# Si number density = 18.854118 Si / 1000 Ang^3
#
#
#
# Elastic Constant Matrix: (Units=GPa)
#
#
# Indices 1 2 3 4 5 6 
#
# 1 45.8825 25.2206 34.1665 0.0000 0.0000 0.0000
# 2 25.2206 79.0328 21.1657 -0.0001 0.0000 0.0000
# 3 34.1665 21.1657 123.4443 -0.0001 0.0000 0.0000
# 4 0.0000 -0.0001 -0.0001 -0.9476 0.0000 0.0000
# 5 0.0000 0.0000 0.0000 0.0000 -1.9732 0.0000
# 6 0.0000 0.0000 0.0000 0.0000 0.0000 5.8279
#
#
#
# Elastic Compliance Matrix: (Units=1/GPa)
#
#
# Indices 1 2 3 4 5 6 
#
# 1 0.031792 -0.008164 -0.007400 0.000002 0.000000 0.000000
# 2 -0.008164 0.015358 -0.000374 -0.000001 0.000000 0.000000
# 3 -0.007400 -0.000374 0.010213 -0.000001 0.000000 0.000000
# 4 0.000002 -0.000001 -0.000001 -1.055318 -0.000002 -0.000004
# 5 0.000000 0.000000 0.000000 -0.000002 -0.506798 -0.000001
# 6 0.000000 0.000000 0.000000 -0.000004 -0.000001 0.171587
#
#
# Mechanical properties :
#
#
# Convention : Reuss Voigt Hill
#
# Bulk Modulus (GPa) = 39.23219 45.49613 42.36416
# Shear Modulus (GPa) = -3.86759 11.76856 3.95048
#
# Velocity S-wave (km/s) = -1.43380 2.50109 1.44908
# Velocity P-wave (km/s) = 4.25587 5.70295 5.03170
#
# Compressibility (1/GPa) = 0.02548927
#
# Stress axis : x y z
#
# Youngs Moduli (GPa) = 31.45408 65.11159 97.91492
#
# Poissons Ratio (x) = 0.53155 0.72453
# Poissons Ratio (y) = 0.25678 0.03660
# Poissons Ratio (z) = 0.23275 0.02434
#
# Static dielectric constant tensor:
#      x y z
#    x 1.690210 0.000000 0.000000 
#    y 0.000000 1.625690 0.000000 
#    z 0.000000 0.000000 1.651100 
# 
# From -- ./inp_files/32395.got.cif
#   From: 2010.05.17/outbox.cif.g08.bks.cpg/sg74_17_cif.got.tgz:32395.got - 2010.06.03 17:57:02.
