data_PCOD9538644
_publ_section_title
;
Structure prediction by ZEFSAII (Michael W. Deem and Ramdas Pophale) SiO2 
 PCOD9538644
Probable space group: I M M A
;
_chemical_formula_sum "Si O2"
_cell_formula_units_Z 116
_cell_length_a 23.689912
_cell_length_b 7.701485
_cell_length_c 28.841140
_cell_angle_alpha 90.000000
_cell_angle_beta 90.000000
_cell_angle_gamma 90.000000
_cell_volume 5261.993946
_symmetry_space_group_name_H-M "I M M A"
_symmetry_group_IT_number 74
_symmetry_cell_setting 'orthorhombic'
loop_
_space_group_symop_operation_xyz
x,y,z
-x,1/2-y,z
x,-y,-z
-x,1/2+y,-z
-x,-y,-z
x,1/2+y,-z
-x,y,z
x,1/2-y,z
1/2+x,1/2+y,1/2+z
1/2-x,-y,1/2+z
1/2+x,1/2-y,1/2-z
1/2-x,y,1/2-z
1/2-x,1/2-y,1/2-z
1/2+x,y,1/2-z
1/2-x,1/2+y,1/2+z
1/2+x,-y,1/2+z
loop_
_atom_site_type_symbol
_atom_site_label
_atom_site_fract_x
_atom_site_fract_y
_atom_site_fract_z
Si Si1 0.000000 0.750000 0.445886
Si Si2 0.738388 0.459500 0.645885
Si Si3 0.434786 0.541609 0.551331
Si Si4 0.714058 0.455916 0.951057
Si Si5 0.061532 0.453902 0.756385
Si Si6 0.612414 0.548160 0.648317
Si Si7 0.138822 0.461599 0.674708
Si Si8 0.590380 0.554773 0.925025
O O1 0.049232 0.595755 0.442547
O O2 0.735179 0.250000 0.648797
O O3 0.749291 0.512618 0.592622
O O4 0.678161 0.528910 0.660500
O O5 0.795664 0.515383 0.671645
O O6 0.412099 0.500000 0.500000
O O7 0.500000 0.478446 0.553700
O O8 0.435994 0.750000 0.553755
O O9 0.401434 0.477487 0.596828
O O10 0.705786 0.250000 0.946508
O O11 0.652226 0.539743 0.947944
O O12 0.740857 0.500000 0.000000
O O13 0.058300 0.250000 0.745132
O O14 0.077385 0.466956 0.809986
O O15 0.108717 0.522980 0.721416
O O16 0.000000 0.532187 0.747810
O O17 0.597272 0.750000 0.648130
O O18 0.139160 0.250000 0.671808
O O19 0.104195 0.525191 0.629699
O O20 0.568440 0.750000 0.932938
#
# Coordination Sequence:
#
# PCOD9538644 Si02
#       8
#     4  16  16  16  16  16  16  16
#     4  12  22  40  58  86 130 158 212 260 312 366
#     4   9  20  38  60  85 116 157 198 246 306 356
#     4   9  19  36  57  80 109 152 193 238 297 353
#     4  10  20  39  63  87 119 156 199 256 310 374
#     4  10  22  38  62  89 117 157 197 240 301 365
#     4  11  23  38  56  83 125 157 193 247 295 355
#     4   9  19  39  62  88 120 153 199 259 309 363
#     4  11  22  37  62  89 119 165 205 256 319 372
#
# _framework density 22.044875000000001
#
# number of rings (size 3 to 8) (size 9 to 14) (size 15 to 20)
#    0.000    2.069    1.379    2.276    0.966    6.345 
#    0.000    7.241    0.000    0.000    0.000    0.000 
#    0.000    0.000    0.000    0.000    0.000    0.000 
#
# Total GULP energy -323475.247385 kJ/mol
# GULP energy per Si atom -5577.159438 kJ/mol
# Density = 2.199470 g / cm^3
# Si number density = 22.044875 Si / 1000 Ang^3
#
#
#
# Elastic Constant Matrix: (Units=GPa)
#
#
# Indices 1 2 3 4 5 6 
#
# 1 67.2792 1.2670 26.8776 0.0000 0.0000 0.0000
# 2 1.2670 82.4138 -8.1890 0.0000 0.0000 0.0000
# 3 26.8776 -8.1890 110.8261 0.0000 0.0000 0.0000
# 4 0.0000 0.0000 0.0000 22.3475 0.0000 0.0000
# 5 0.0000 0.0000 0.0000 0.0000 13.0819 0.0000
# 6 0.0000 0.0000 0.0000 0.0000 0.0000 -265.7023
#
#
#
# Elastic Compliance Matrix: (Units=1/GPa)
#
#
# Indices 1 2 3 4 5 6 
#
# 1 0.016493 -0.000656 -0.004048 0.000000 0.000000 0.000000
# 2 -0.000656 0.012250 0.001064 0.000000 0.000000 0.000000
# 3 -0.004048 0.001064 0.010084 0.000000 0.000000 0.000000
# 4 0.000000 0.000000 0.000000 0.044748 0.000000 0.000000
# 5 0.000000 0.000000 0.000000 0.000000 0.076441 0.000000
# 6 0.000000 0.000000 0.000000 0.000000 0.000000 -0.003764
#
#
# Mechanical properties :
#
#
# Convention : Reuss Voigt Hill
#
# Bulk Modulus (GPa) = 31.69932 33.38111 32.54022
# Shear Modulus (GPa) = 28.72782 -30.01699 -0.64458
#
# Velocity S-wave (km/s) = 3.61384 -3.69403 -0.54132
# Velocity P-wave (km/s) = 5.64125 1.73761 3.79503
#
# Compressibility (1/GPa) = 0.03154641
#
# Stress axis : x y z
#
# Youngs Moduli (GPa) = 60.63147 81.63453 99.17108
#
# Poissons Ratio (x) = 0.05354 0.40148
# Poissons Ratio (y) = 0.03976 -0.10554
# Poissons Ratio (z) = 0.24546 -0.08687
#
# Static dielectric constant tensor:
#      x y z
#    x 1.790180 0.000000 0.000000 
#    y 0.000000 1.828280 0.000000 
#    z 0.000000 0.000000 1.825170 
# 
# From -- ./inp_files/68740.got.cif
#   From: 2010.05.17/outbox.cif.g08.bks.cpg/sg74_35_cif.got.tgz:68740.got - 2010.06.03 17:57:02.
