data_PCOD9538805
_publ_section_title
;
Structure prediction by ZEFSAII (Michael W. Deem and Ramdas Pophale) SiO2 
 PCOD9538805
Probable space group: I M M A
;
_chemical_formula_sum "Si O2"
_cell_formula_units_Z 64
_cell_length_a 7.543736
_cell_length_b 9.931219
_cell_length_c 41.923595
_cell_angle_alpha 90.000000
_cell_angle_beta 90.000000
_cell_angle_gamma 90.000000
_cell_volume 3140.852613
_symmetry_space_group_name_H-M "I M M A"
_symmetry_group_IT_number 74
_symmetry_cell_setting 'orthorhombic'
loop_
_space_group_symop_operation_xyz
x,y,z
-x,1/2-y,z
x,-y,-z
-x,1/2+y,-z
-x,-y,-z
x,1/2+y,-z
-x,y,z
x,1/2-y,z
1/2+x,1/2+y,1/2+z
1/2-x,-y,1/2+z
1/2+x,1/2-y,1/2-z
1/2-x,y,1/2-z
1/2-x,1/2-y,1/2-z
1/2+x,y,1/2-z
1/2-x,1/2+y,1/2+z
1/2+x,-y,1/2+z
loop_
_atom_site_type_symbol
_atom_site_label
_atom_site_fract_x
_atom_site_fract_y
_atom_site_fract_z
Si Si1 0.712720 0.097556 0.213342
Si Si2 0.213618 0.903352 0.899796
Si Si3 0.716228 0.904546 0.528273
Si Si4 0.789247 0.597956 0.341498
O O1 0.500000 0.103148 0.209759
O O2 0.780572 0.250000 0.207698
O O3 0.750000 0.061509 0.250000
O O4 0.782850 0.990237 0.187970
O O5 0.274870 0.750000 0.892441
O O6 0.272898 0.939750 0.935704
O O7 0.000000 0.898765 0.900358
O O8 0.265061 0.011193 0.873451
O O9 0.500000 0.909447 0.528248
O O10 0.766769 0.750000 0.522417
O O11 0.779140 0.000000 0.500000
O O12 0.717768 0.750000 0.343634
O O13 0.000000 0.609399 0.336431
#
# Coordination Sequence:
#
# PCOD9538805 Si02
#       4
#    16  16  16  16
#     4   9  18  33  52  72  94 123 159 196 235 282
#     4   9  18  32  50  73  99 127 163 204 242 285
#     4   8  14  25  42  66  95 124 154 192 239 287
#     4  10  21  35  50  71 100 132 164 198 239 287
#
# _framework density 20.376632000000001
#
# number of rings (size 3 to 8) (size 9 to 14) (size 15 to 20)
#    0.000    3.000    0.000    2.250    0.000    4.500 
#    0.000    5.000    0.000    0.750    0.000    0.000 
#    0.000    0.000    0.000    0.000    0.000    0.000 
#
# Total GULP energy -178531.480165 kJ/mol
# GULP energy per Si atom -5579.108755 kJ/mol
# Density = 2.033025 g / cm^3
# Si number density = 20.376632 Si / 1000 Ang^3
#
#
#
# Elastic Constant Matrix: (Units=GPa)
#
#
# Indices 1 2 3 4 5 6 
#
# 1 48.8197 6.5214 -0.3401 0.0000 0.0000 0.0000
# 2 6.5214 182.2620 163.1491 0.0000 0.0000 0.0000
# 3 -0.3401 163.1491 193.7439 0.0000 0.0000 0.0000
# 4 0.0000 0.0000 0.0000 35.8001 0.0000 0.0000
# 5 0.0000 0.0000 0.0000 0.0000 10.6822 0.0000
# 6 0.0000 0.0000 0.0000 0.0000 0.0000 12.5248
#
#
#
# Elastic Compliance Matrix: (Units=1/GPa)
#
#
# Indices 1 2 3 4 5 6 
#
# 1 0.020926 -0.003175 0.002710 0.000000 0.000000 0.000000
# 2 -0.003175 0.022765 -0.019176 0.000000 0.000000 0.000000
# 3 0.002710 -0.019176 0.021314 0.000000 0.000000 0.000000
# 4 0.000000 0.000000 0.000000 0.027933 0.000000 0.000000
# 5 0.000000 0.000000 0.000000 0.000000 0.093614 0.000000
# 6 0.000000 0.000000 0.000000 0.000000 0.000000 0.079841
#
#
# Mechanical properties :
#
#
# Convention : Reuss Voigt Hill
#
# Bulk Modulus (GPa) = 38.87299 84.83180 61.85240
# Shear Modulus (GPa) = 15.91096 28.83443 22.37269
#
# Velocity S-wave (km/s) = 2.79739 3.76583 3.31714
# Velocity P-wave (km/s) = 5.43622 7.78658 6.71504
#
# Compressibility (1/GPa) = 0.02572480
#
# Stress axis : x y z
#
# Youngs Moduli (GPa) = 47.78630 43.92694 46.91787
#
# Poissons Ratio (x) = 0.13945 -0.12715
# Poissons Ratio (y) = 0.15170 0.89968
# Poissons Ratio (z) = -0.12950 0.84233
#
# Static dielectric constant tensor:
#      x y z
#    x 1.860310 0.000000 0.000000 
#    y 0.000000 1.716730 0.000000 
#    z 0.000000 0.000000 1.698950 
# 
# From -- ./inp_files/71288.got.cif
#   From: 2010.05.17/outbox.cif.g08.bks.cpg/sg74_36_cif.got.tgz:71288.got - 2010.06.03 17:57:02.
