data_PCOD9538149
_publ_section_title
;
Structure prediction by ZEFSAII (Michael W. Deem and Ramdas Pophale) SiO2 
 PCOD9538149
Probable space group: I M M A
;
_chemical_formula_sum "Si O2"
_cell_formula_units_Z 72
_cell_length_a 9.342304
_cell_length_b 27.236601
_cell_length_c 14.681474
_cell_angle_alpha 90.000000
_cell_angle_beta 90.000000
_cell_angle_gamma 90.000000
_cell_volume 3735.739326
_symmetry_space_group_name_H-M "I M M A"
_symmetry_group_IT_number 74
_symmetry_cell_setting 'orthorhombic'
loop_
_space_group_symop_operation_xyz
x,y,z
-x,1/2-y,z
x,-y,-z
-x,1/2+y,-z
-x,-y,-z
x,1/2+y,-z
-x,y,z
x,1/2-y,z
1/2+x,1/2+y,1/2+z
1/2-x,-y,1/2+z
1/2+x,1/2-y,1/2-z
1/2-x,y,1/2-z
1/2-x,1/2-y,1/2-z
1/2+x,y,1/2-z
1/2-x,1/2+y,1/2+z
1/2+x,-y,1/2+z
loop_
_atom_site_type_symbol
_atom_site_label
_atom_site_fract_x
_atom_site_fract_y
_atom_site_fract_z
Si Si1 0.170206 0.872647 0.654871
Si Si2 0.332081 0.078447 0.664042
Si Si3 0.671369 0.750000 0.347015
Si Si4 0.829629 0.340163 0.981170
Si Si5 0.662267 0.487006 0.106993
O O1 0.250000 0.863548 0.750000
O O2 0.239358 0.841163 0.573382
O O3 0.191398 0.930217 0.628131
O O4 0.000000 0.864399 0.662334
O O5 0.500000 0.080121 0.680264
O O6 0.250000 0.100792 0.750000
O O7 0.301472 0.109479 0.573550
O O8 0.275654 0.023463 0.651173
O O9 0.500000 0.750000 0.330725
O O10 0.750000 0.750000 0.250000
O O11 0.705394 0.702993 0.410079
O O12 0.000000 0.337306 0.001454
O O13 0.500000 0.498067 0.139648
O O14 0.664866 0.500000 0.000000
#
# Coordination Sequence:
#
# PCOD9538149 Si02
#       5
#    16  16   8  16  16
#     4  11  23  39  61  86 118 158 200 245 292 346
#     4  11  22  34  54  83 116 154 194 238 287 344
#     4  10  22  42  67  94 123 154 189 238 296 356
#     4  10  22  40  61  87 118 152 194 242 294 349
#     4  10  20  36  56  82 116 155 197 240 288 342
#
# _framework density 19.273292999999999
#
# number of rings (size 3 to 8) (size 9 to 14) (size 15 to 20)
#    0.000    1.556    2.222    2.667    0.000    5.778 
#    0.000    0.556    0.000    0.000    0.000    0.000 
#    0.000    0.000    0.000    0.000    0.000    0.000 
#
# Total GULP energy -201111.414711 kJ/mol
# GULP energy per Si atom -5586.428186 kJ/mol
# Density = 1.922943 g / cm^3
# Si number density = 19.273293 Si / 1000 Ang^3
#
#
#
# Elastic Constant Matrix: (Units=GPa)
#
#
# Indices 1 2 3 4 5 6 
#
# 1 95.8154 40.9833 95.1103 0.0000 0.0000 0.0000
# 2 40.9833 65.8841 45.2705 0.0000 0.0000 0.0000
# 3 95.1103 45.2705 175.7839 -0.0001 0.0000 0.0000
# 4 0.0000 0.0000 -0.0001 23.4410 0.0000 0.0000
# 5 0.0000 0.0000 0.0000 0.0000 41.4870 0.0000
# 6 0.0000 0.0000 0.0000 0.0000 0.0000 18.7602
#
#
#
# Elastic Compliance Matrix: (Units=1/GPa)
#
#
# Indices 1 2 3 4 5 6 
#
# 1 0.025419 -0.007730 -0.011763 0.000000 0.000000 0.000000
# 2 -0.007730 0.020792 -0.001172 0.000000 0.000000 0.000000
# 3 -0.011763 -0.001172 0.012355 0.000000 0.000000 0.000000
# 4 0.000000 0.000000 0.000000 0.042660 0.000000 0.000000
# 5 0.000000 0.000000 0.000000 0.000000 0.024104 0.000000
# 6 0.000000 0.000000 0.000000 0.000000 0.000000 0.053304
#
#
# Mechanical properties :
#
#
# Convention : Reuss Voigt Hill
#
# Bulk Modulus (GPa) = 58.01574 77.80130 67.90852
# Shear Modulus (GPa) = 22.15234 27.14558 24.64896
#
# Velocity S-wave (km/s) = 3.39393 3.75701 3.58008
# Velocity P-wave (km/s) = 6.74724 7.69904 7.23880
#
# Compressibility (1/GPa) = 0.01723670
#
# Stress axis : x y z
#
# Youngs Moduli (GPa) = 39.34057 48.09548 80.93801
#
# Poissons Ratio (x) = 0.37176 0.95205
# Poissons Ratio (y) = 0.30408 0.09490
# Poissons Ratio (z) = 0.46275 0.05639
#
# Static dielectric constant tensor:
#      x y z
#    x 1.647310 0.000000 0.000000 
#    y 0.000000 1.672940 0.000000 
#    z 0.000000 0.000000 1.681380 
# 
# From -- ./inp_files/29146.got.cif
#   From: 2010.05.17/outbox.cif.g08.bks.cpg/sg74_15_cif.got.tgz:29146.got - 2010.06.03 17:57:02.
