data_PCOD9538460
_publ_section_title
;
Structure prediction by ZEFSAII (Michael W. Deem and Ramdas Pophale) SiO2 
 PCOD9538460
Probable space group: I M M A
;
_chemical_formula_sum "Si O2"
_cell_formula_units_Z 104
_cell_length_a 8.180385
_cell_length_b 29.388676
_cell_length_c 20.433105
_cell_angle_alpha 90.000000
_cell_angle_beta 90.000000
_cell_angle_gamma 90.000000
_cell_volume 4912.336756
_symmetry_space_group_name_H-M "I M M A"
_symmetry_group_IT_number 74
_symmetry_cell_setting 'orthorhombic'
loop_
_space_group_symop_operation_xyz
x,y,z
-x,1/2-y,z
x,-y,-z
-x,1/2+y,-z
-x,-y,-z
x,1/2+y,-z
-x,y,z
x,1/2-y,z
1/2+x,1/2+y,1/2+z
1/2-x,-y,1/2+z
1/2+x,1/2-y,1/2-z
1/2-x,y,1/2-z
1/2-x,1/2-y,1/2-z
1/2+x,y,1/2-z
1/2-x,1/2+y,1/2+z
1/2+x,-y,1/2+z
loop_
_atom_site_type_symbol
_atom_site_label
_atom_site_fract_x
_atom_site_fract_y
_atom_site_fract_z
Si Si1 0.801970 0.481077 0.675198
Si Si2 0.804415 0.250000 0.175023
Si Si3 0.696028 0.349334 0.323286
Si Si4 0.695955 0.623624 0.175602
Si Si5 0.187954 0.460482 0.447138
Si Si6 0.192638 0.630456 0.959014
Si Si7 0.697586 0.197421 0.568826
O O1 0.750000 0.491974 0.750000
O O2 0.748841 0.428606 0.660967
O O3 0.744122 0.517101 0.620303
O O4 0.000000 0.481454 0.672534
O O5 0.750000 0.250000 0.250000
O O6 0.747582 0.298960 0.152552
O O7 0.000000 0.250000 0.168450
O O8 0.500000 0.349510 0.319111
O O9 0.750000 0.359427 0.250000
O O10 0.754420 0.377797 0.384600
O O11 0.500000 0.623896 0.171652
O O12 0.750000 0.633082 0.250000
O O13 0.759879 0.663165 0.127847
O O14 0.184387 0.500000 0.500000
O O15 0.278853 0.419637 0.484823
O O16 0.000000 0.446170 0.435744
O O17 0.000000 0.639991 0.953496
O O18 0.260154 0.670838 0.003751
O O19 0.500000 0.199596 0.565006
O O20 0.755495 0.250000 0.574462
#
# Coordination Sequence:
#
# PCOD9538460 Si02
#       7
#    16   8  16  16  16  16  16
#     4   9  19  35  57  85 114 146 181 223 276 333
#     4   8  14  26  46  68  92 126 167 208 251 300
#     4   9  18  32  51  75 103 137 178 222 268 315
#     4  10  20  37  62  89 117 147 183 227 276 334
#     4  10  21  38  58  79 107 144 183 223 273 331
#     4  10  22  37  55  81 110 144 186 232 280 327
#     4  10  22  39  58  81 112 150 191 234 281 333
#
# _framework density 21.171187
#
# number of rings (size 3 to 8) (size 9 to 14) (size 15 to 20)
#    0.000    2.462    0.000    1.385    1.077    5.231 
#    0.000    3.077    0.000    0.000    0.000    0.000 
#    0.000    0.000    0.000    0.000    0.000    0.000 
#
# Total GULP energy -289485.731264 kJ/mol
# GULP energy per Si atom -5567.033294 kJ/mol
# Density = 2.112300 g / cm^3
# Si number density = 21.171187 Si / 1000 Ang^3
#
#
#
# Elastic Constant Matrix: (Units=GPa)
#
#
# Indices 1 2 3 4 5 6 
#
# 1 8.1001 6.7313 7.8854 0.0000 0.0000 0.0000
# 2 6.7313 89.2483 40.3443 0.0000 0.0000 0.0000
# 3 7.8854 40.3443 102.2044 0.0000 0.0000 0.0000
# 4 0.0000 0.0000 0.0000 33.5493 0.0000 0.0000
# 5 0.0000 0.0000 0.0000 0.0000 19.9216 0.0000
# 6 0.0000 0.0000 0.0000 0.0000 0.0000 20.6618
#
#
#
# Elastic Compliance Matrix: (Units=1/GPa)
#
#
# Indices 1 2 3 4 5 6 
#
# 1 0.136740 -0.006748 -0.007886 0.000000 0.000000 0.000000
# 2 -0.006748 0.013971 -0.004994 0.000000 0.000000 0.000000
# 3 -0.007886 -0.004994 0.012364 0.000000 0.000000 0.000000
# 4 0.000000 0.000000 0.000000 0.029807 0.000000 0.000000
# 5 0.000000 0.000000 0.000000 0.000000 0.050197 0.000000
# 6 0.000000 0.000000 0.000000 0.000000 0.000000 0.048398
#
#
# Mechanical properties :
#
#
# Convention : Reuss Voigt Hill
#
# Bulk Modulus (GPa) = 8.07639 34.38610 21.23125
# Shear Modulus (GPa) = 13.44058 24.46600 18.95329
#
# Velocity S-wave (km/s) = 2.52236 3.40314 2.99530
# Velocity P-wave (km/s) = 3.50801 5.63196 4.69176
#
# Compressibility (1/GPa) = 0.12381774
#
# Stress axis : x y z
#
# Youngs Moduli (GPa) = 7.31316 71.57485 80.87839
#
# Poissons Ratio (x) = 0.48302 0.63781
# Poissons Ratio (y) = 0.04935 0.40394
# Poissons Ratio (z) = 0.05767 0.35747
#
# Static dielectric constant tensor:
#      x y z
#    x 1.777100 0.000000 0.000000 
#    y 0.000000 2.737090 0.000000 
#    z 0.000000 0.000000 1.784460 
# 
# From -- ./inp_files/49606.got.cif
#   From: 2010.05.17/outbox.cif.g08.bks.cpg/sg74_25_cif.got.tgz:49606.got - 2010.06.03 17:57:02.
