data_PCOD9538321
_publ_section_title
;
Structure prediction by ZEFSAII (Michael W. Deem and Ramdas Pophale) SiO2 
 PCOD9538321
Probable space group: I M M A
;
_chemical_formula_sum "Si O2"
_cell_formula_units_Z 96
_cell_length_a 20.742777
_cell_length_b 16.836396
_cell_length_c 13.789676
_cell_angle_alpha 90.000000
_cell_angle_beta 90.000000
_cell_angle_gamma 90.000000
_cell_volume 4815.818299
_symmetry_space_group_name_H-M "I M M A"
_symmetry_group_IT_number 74
_symmetry_cell_setting 'orthorhombic'
loop_
_space_group_symop_operation_xyz
x,y,z
-x,1/2-y,z
x,-y,-z
-x,1/2+y,-z
-x,-y,-z
x,1/2+y,-z
-x,y,z
x,1/2-y,z
1/2+x,1/2+y,1/2+z
1/2-x,-y,1/2+z
1/2+x,1/2-y,1/2-z
1/2-x,y,1/2-z
1/2-x,1/2-y,1/2-z
1/2+x,y,1/2-z
1/2-x,1/2+y,1/2+z
1/2+x,-y,1/2+z
loop_
_atom_site_type_symbol
_atom_site_label
_atom_site_fract_x
_atom_site_fract_y
_atom_site_fract_z
Si Si1 0.072441 0.842369 0.241283
Si Si2 0.818739 0.408767 0.292531
Si Si3 0.927252 0.346148 0.145895
Si Si4 0.360889 0.346497 0.548701
Si Si5 0.888563 0.953086 0.409633
Si Si6 0.783765 0.159058 0.491256
O O1 0.088384 0.750000 0.264556
O O2 0.119347 0.873129 0.156222
O O3 0.073597 0.896099 0.336742
O O4 0.000000 0.842690 0.200218
O O5 0.750000 0.434388 0.250000
O O6 0.869684 0.374566 0.215525
O O7 0.854255 0.481029 0.344501
O O8 0.799257 0.346972 0.377198
O O9 0.927044 0.250000 0.147942
O O10 0.000000 0.372522 0.173061
O O11 0.909368 0.371898 0.036438
O O12 0.363811 0.250000 0.551923
O O13 0.288782 0.367862 0.516057
O O14 0.833854 0.897691 0.456289
O O15 0.920989 0.000000 0.500000
O O16 0.790555 0.250000 0.523625
#
# Coordination Sequence:
#
# PCOD9538321 Si02
#       6
#    16  16  16  16  16  16
#     4  10  21  39  63  88 116 157 205 251 303 363
#     4  11  22  37  59  87 125 163 199 240 296 363
#     4  10  20  36  60  91 125 160 200 247 299 358
#     4   9  18  33  58  90 121 150 190 248 303 355
#     4  10  24  40  57  84 117 155 197 253 308 356
#     4  10  20  37  62  89 114 152 205 254 300 348
#
# _framework density 19.934308000000001
#
# number of rings (size 3 to 8) (size 9 to 14) (size 15 to 20)
#    0.000    2.000    1.667    1.500    2.333    3.667 
#    0.000    5.833    0.000   11.000    0.000    0.000 
#    0.000    0.000    0.000    0.000    0.000    0.000 
#
# Total GULP energy -267749.666842 kJ/mol
# GULP energy per Si atom -5578.118059 kJ/mol
# Density = 1.988894 g / cm^3
# Si number density = 19.934308 Si / 1000 Ang^3
#
#
#
# Elastic Constant Matrix: (Units=GPa)
#
#
# Indices 1 2 3 4 5 6 
#
# 1 98.9661 16.5384 51.4120 0.0000 0.0000 0.0000
# 2 16.5384 49.2309 30.7184 0.0000 0.0000 0.0000
# 3 51.4120 30.7184 123.5822 0.0000 0.0000 0.0000
# 4 0.0000 0.0000 0.0000 -34.2756 0.0000 0.0000
# 5 0.0000 0.0000 0.0000 0.0000 24.8386 0.0000
# 6 0.0000 0.0000 0.0000 0.0000 0.0000 -34.1033
#
#
#
# Elastic Compliance Matrix: (Units=1/GPa)
#
#
# Indices 1 2 3 4 5 6 
#
# 1 0.012947 -0.001170 -0.005095 0.000000 0.000000 0.000000
# 2 -0.001170 0.024147 -0.005515 0.000000 0.000000 0.000000
# 3 -0.005095 -0.005515 0.011582 0.000000 0.000000 0.000000
# 4 0.000000 0.000000 0.000000 -0.029175 0.000000 0.000000
# 5 0.000000 0.000000 0.000000 0.000000 0.040260 0.000000
# 6 0.000000 0.000000 0.000000 0.000000 0.000000 -0.029323
#
#
# Mechanical properties :
#
#
# Convention : Reuss Voigt Hill
#
# Bulk Modulus (GPa) = 39.81702 52.12409 45.97055
# Shear Modulus (GPa) = 80.16499 2.83262 41.49880
#
# Velocity S-wave (km/s) = 6.34838 1.19334 4.56760
# Velocity P-wave (km/s) = 8.58798 5.30127 7.13641
#
# Compressibility (1/GPa) = 0.02511489
#
# Stress axis : x y z
#
# Youngs Moduli (GPa) = 77.23816 41.41319 86.33765
#
# Poissons Ratio (x) = 0.04846 0.43992
# Poissons Ratio (y) = 0.09037 0.47618
# Poissons Ratio (z) = 0.39355 0.22841
#
# Static dielectric constant tensor:
#      x y z
#    x 1.684270 0.000000 0.000000 
#    y 0.000000 1.693550 0.000000 
#    z 0.000000 0.000000 1.718960 
# 
# From -- ./inp_files/25168.got.cif
#   From: 2010.05.17/outbox.cif.g08.bks.cpg/sg74_13_cif.got.tgz:25168.got - 2010.06.03 17:57:02.
