data_PCOD9538872
_publ_section_title
;
Structure prediction by ZEFSAII (Michael W. Deem and Ramdas Pophale) SiO2 
 PCOD9538872
Probable space group: I M M A
;
_chemical_formula_sum "Si O2"
_cell_formula_units_Z 64
_cell_length_a 14.368523
_cell_length_b 23.172713
_cell_length_c 9.438717
_cell_angle_alpha 90.000000
_cell_angle_beta 90.000000
_cell_angle_gamma 90.000000
_cell_volume 3142.693123
_symmetry_space_group_name_H-M "I M M A"
_symmetry_group_IT_number 74
_symmetry_cell_setting 'orthorhombic'
loop_
_space_group_symop_operation_xyz
x,y,z
-x,1/2-y,z
x,-y,-z
-x,1/2+y,-z
-x,-y,-z
x,1/2+y,-z
-x,y,z
x,1/2-y,z
1/2+x,1/2+y,1/2+z
1/2-x,-y,1/2+z
1/2+x,1/2-y,1/2-z
1/2-x,y,1/2-z
1/2-x,1/2-y,1/2-z
1/2+x,y,1/2-z
1/2-x,1/2+y,1/2+z
1/2+x,-y,1/2+z
loop_
_atom_site_type_symbol
_atom_site_label
_atom_site_fract_x
_atom_site_fract_y
_atom_site_fract_z
Si Si1 0.102477 0.581554 0.235902
Si Si2 0.714620 0.098360 0.455506
Si Si3 0.605594 0.448389 0.189204
Si Si4 0.186931 0.813354 0.390855
O O1 0.103800 0.517451 0.297534
O O2 0.120567 0.633571 0.345709
O O3 0.000000 0.591151 0.172684
O O4 0.176430 0.581237 0.108966
O O5 0.638755 0.081737 0.337084
O O6 0.809277 0.066550 0.412700
O O7 0.748069 0.164383 0.480287
O O8 0.500000 0.430100 0.151305
O O9 0.145712 0.750000 0.418275
O O10 0.250000 0.808229 0.250000
#
# Coordination Sequence:
#
# PCOD9538872 Si02
#       4
#    16  16  16  16
#     4  10  21  35  57  86 116 151 192 240 292 351
#     4  10  21  35  62  80 116 158 188 237 297 343
#     4  10  22  36  55  88 119 149 193 237 292 356
#     4   9  20  37  57  83 111 148 196 239 284 341
#
# _framework density 20.364699000000002
#
# number of rings (size 3 to 8) (size 9 to 14) (size 15 to 20)
#    0.000    2.250    0.000    1.500   14.000    3.500 
#    0.000    5.000    0.000    3.750    0.000    0.000 
#    0.000    0.000    0.000    0.000    0.000    0.000 
#
# Total GULP energy -178345.462579 kJ/mol
# GULP energy per Si atom -5573.295706 kJ/mol
# Density = 2.031835 g / cm^3
# Si number density = 20.364699 Si / 1000 Ang^3
#
#
#
# Elastic Constant Matrix: (Units=GPa)
#
#
# Indices 1 2 3 4 5 6 
#
# 1 117.0653 32.5002 12.9528 0.0000 0.0000 0.0000
# 2 32.5002 119.0504 35.3252 -0.0001 0.0000 0.0001
# 3 12.9528 35.3252 29.8189 0.0001 0.0001 0.0002
# 4 0.0000 -0.0001 0.0001 -7.9091 -0.0001 0.0003
# 5 0.0000 0.0000 0.0001 -0.0001 25.7018 0.0000
# 6 0.0000 0.0001 0.0002 0.0003 0.0000 -2.0502
#
#
#
# Elastic Compliance Matrix: (Units=1/GPa)
#
#
# Indices 1 2 3 4 5 6 
#
# 1 0.009291 -0.002065 -0.001590 0.000000 0.000000 0.000000
# 2 -0.002065 0.013412 -0.014992 0.000000 0.000000 -0.000001
# 3 -0.001590 -0.014992 0.051986 0.000001 0.000000 0.000005
# 4 0.000000 0.000000 0.000001 -0.126436 0.000000 -0.000020
# 5 0.000000 0.000000 0.000000 0.000000 0.038908 0.000000
# 6 0.000000 -0.000001 0.000005 -0.000020 0.000000 -0.487768
#
#
# Mechanical properties :
#
#
# Convention : Reuss Voigt Hill
#
# Bulk Modulus (GPa) = 26.74017 47.49901 37.11959
# Shear Modulus (GPa) = -11.09019 15.49226 2.20104
#
# Velocity S-wave (km/s) = -2.33615 2.76115 1.04075
# Velocity P-wave (km/s) = 2.42535 5.79138 4.43973
#
# Compressibility (1/GPa) = 0.03739691
#
# Stress axis : x y z
#
# Youngs Moduli (GPa) = 107.62661 74.56106 19.23584
#
# Poissons Ratio (x) = 0.15395 0.03059
# Poissons Ratio (y) = 0.22222 0.28838
# Poissons Ratio (z) = 0.17113 1.11779
#
# Static dielectric constant tensor:
#      x y z
#    x 1.753900 0.000000 0.000000 
#    y 0.000000 1.750510 0.000000 
#    z 0.000000 0.000000 1.772410 
# 
# From -- ./inp_files/19917.got.cif
#   From: 2010.05.17/outbox.cif.g08.bks.cpg/sg74_10_cif.got.tgz:19917.got - 2010.06.03 17:57:02.
