data_PCOD9538307
_publ_section_title
;
Structure prediction by ZEFSAII (Michael W. Deem and Ramdas Pophale) SiO2 
 PCOD9538307
Probable space group: I M M A
;
_chemical_formula_sum "Si O2"
_cell_formula_units_Z 80
_cell_length_a 30.712724
_cell_length_b 15.375430
_cell_length_c 8.441899
_cell_angle_alpha 90.000000
_cell_angle_beta 90.000000
_cell_angle_gamma 90.000000
_cell_volume 3986.444841
_symmetry_space_group_name_H-M "I M M A"
_symmetry_group_IT_number 74
_symmetry_cell_setting 'orthorhombic'
loop_
_space_group_symop_operation_xyz
x,y,z
-x,1/2-y,z
x,-y,-z
-x,1/2+y,-z
-x,-y,-z
x,1/2+y,-z
-x,y,z
x,1/2-y,z
1/2+x,1/2+y,1/2+z
1/2-x,-y,1/2+z
1/2+x,1/2-y,1/2-z
1/2-x,y,1/2-z
1/2-x,1/2-y,1/2-z
1/2+x,y,1/2-z
1/2-x,1/2+y,1/2+z
1/2+x,-y,1/2+z
loop_
_atom_site_type_symbol
_atom_site_label
_atom_site_fract_x
_atom_site_fract_y
_atom_site_fract_z
Si Si1 0.363827 0.850584 0.177193
Si Si2 0.701351 0.506116 0.312729
Si Si3 0.547263 0.151528 0.257366
Si Si4 0.357826 0.147927 0.205685
Si Si5 0.452017 0.592360 0.087859
O O1 0.357973 0.750000 0.223557
O O2 0.413475 0.881940 0.203979
O O3 0.329567 0.915459 0.254682
O O4 0.360116 0.856782 0.985613
O O5 0.702370 0.500000 0.500000
O O6 0.750000 0.518435 0.250000
O O7 0.680420 0.415933 0.253725
O O8 0.500000 0.111014 0.302251
O O9 0.547352 0.250000 0.318903
O O10 0.596116 0.115996 0.283671
O O11 0.546549 0.154911 0.064950
O O12 0.352025 0.250000 0.246625
O O13 0.500000 0.590584 0.161066
O O14 0.444113 0.500000 0.000000
#
# Coordination Sequence:
#
# PCOD9538307 Si02
#       5
#    16  16  16  16  16
#     4  10  20  36  60  88 119 153 192 238 286 341
#     4  12  26  43  62  81 108 145 188 243 300 357
#     4   8  13  23  44  77 113 145 178 217 260 310
#     4   9  18  35  61  90 118 148 185 232 285 340
#     4   9  15  24  46  82 121 155 187 227 272 321
#
# _framework density 20.068006
#
# number of rings (size 3 to 8) (size 9 to 14) (size 15 to 20)
#    0.000    2.400    0.000    6.000    0.000    2.800 
#    0.000    0.000    0.000    2.400    0.000    2.800 
#    0.000    0.000    0.000    0.000    0.000    0.000 
#
# Total GULP energy -222828.158100 kJ/mol
# GULP energy per Si atom -5570.703952 kJ/mol
# Density = 2.002233 g / cm^3
# Si number density = 20.068006 Si / 1000 Ang^3
#
#
#
# Elastic Constant Matrix: (Units=GPa)
#
#
# Indices 1 2 3 4 5 6 
#
# 1 181.5251 74.9885 28.8589 0.0000 0.0000 0.0000
# 2 74.9885 117.5293 31.5314 0.0000 0.0000 0.0000
# 3 28.8589 31.5314 27.1791 0.0000 0.0000 0.0000
# 4 0.0000 0.0000 0.0000 14.6556 0.0000 0.0000
# 5 0.0000 0.0000 0.0000 0.0000 16.6163 0.0000
# 6 0.0000 0.0000 0.0000 0.0000 0.0000 14.3450
#
#
#
# Elastic Compliance Matrix: (Units=1/GPa)
#
#
# Indices 1 2 3 4 5 6 
#
# 1 0.007716 -0.003957 -0.003603 0.000000 0.000000 0.000000
# 2 -0.003957 0.014382 -0.012484 0.000000 0.000000 0.000000
# 3 -0.003603 -0.012484 0.055102 0.000000 0.000000 0.000000
# 4 0.000000 0.000000 0.000000 0.068233 0.000000 0.000000
# 5 0.000000 0.000000 0.000000 0.000000 0.060182 0.000000
# 6 0.000000 0.000000 0.000000 0.000000 0.000000 0.069710
#
#
# Mechanical properties :
#
#
# Convention : Reuss Voigt Hill
#
# Bulk Modulus (GPa) = 26.94474 66.33235 46.63854
# Shear Modulus (GPa) = 15.25391 21.84702 18.55046
#
# Velocity S-wave (km/s) = 2.76000 3.30305 3.04366
# Velocity P-wave (km/s) = 4.85929 6.90452 5.97014
#
# Compressibility (1/GPa) = 0.03711299
#
# Stress axis : x y z
#
# Youngs Moduli (GPa) = 129.59815 69.52949 18.14814
#
# Poissons Ratio (x) = 0.27510 0.06538
# Poissons Ratio (y) = 0.51277 0.22657
# Poissons Ratio (z) = 0.46692 0.86803
#
# Static dielectric constant tensor:
#      x y z
#    x 1.796180 0.000000 0.000000 
#    y 0.000000 1.749490 0.000000 
#    z 0.000000 0.000000 1.701080 
# 
# From -- ./inp_files/14950.got.cif
#   From: 2010.05.17/outbox.cif.g08.bks.cpg/sg74_8_cif.got.tgz:14950.got - 2010.06.03 17:57:02.
