data_PCOD9538266
_publ_section_title
;
Structure prediction by ZEFSAII (Michael W. Deem and Ramdas Pophale) SiO2 
 PCOD9538266
Probable space group: I M M A
;
_chemical_formula_sum "Si O2"
_cell_formula_units_Z 56
_cell_length_a 10.319699
_cell_length_b 7.885221
_cell_length_c 29.526357
_cell_angle_alpha 90.000000
_cell_angle_beta 90.000000
_cell_angle_gamma 90.000000
_cell_volume 2402.651415
_symmetry_space_group_name_H-M "I M M A"
_symmetry_group_IT_number 74
_symmetry_cell_setting 'orthorhombic'
loop_
_space_group_symop_operation_xyz
x,y,z
-x,1/2-y,z
x,-y,-z
-x,1/2+y,-z
-x,-y,-z
x,1/2+y,-z
-x,y,z
x,1/2-y,z
1/2+x,1/2+y,1/2+z
1/2-x,-y,1/2+z
1/2+x,1/2-y,1/2-z
1/2-x,y,1/2-z
1/2-x,1/2-y,1/2-z
1/2+x,y,1/2-z
1/2-x,1/2+y,1/2+z
1/2+x,-y,1/2+z
loop_
_atom_site_type_symbol
_atom_site_label
_atom_site_fract_x
_atom_site_fract_y
_atom_site_fract_z
Si Si1 0.783278 0.046329 0.052471
Si Si2 0.861708 0.448806 0.853053
Si Si3 0.648603 0.549794 0.786994
Si Si4 0.000000 0.452909 0.447500
O O1 0.787127 0.250000 0.054329
O O2 0.639275 0.982408 0.066702
O O3 0.866440 0.974422 0.093032
O O4 0.810785 0.000000 0.000000
O O5 0.855046 0.250000 0.842948
O O6 0.732737 0.531828 0.832728
O O7 0.000000 0.516066 0.833934
O O8 0.500000 0.482065 0.788588
O O9 0.636171 0.750000 0.777512
O O10 0.750000 0.475779 0.750000
O O11 0.000000 0.500000 0.500000
O O12 0.000000 0.250000 0.440984
#
# Coordination Sequence:
#
# PCOD9538266 Si02
#       4
#    16  16  16   8
#     4  10  20  36  59  87 122 164 212 263 315 371
#     4  11  25  42  60  88 127 170 215 260 309 369
#     4  10  22  42  70 100 128 160 202 252 310 376
#     4   8  16  30  50  78 110 146 190 244 300 356
#
# _framework density 23.307583000000001
#
# number of rings (size 3 to 8) (size 9 to 14) (size 15 to 20)
#    0.000    2.000    0.000    2.571    2.000    6.286 
#    0.000    0.000    0.000    0.000    0.000    0.000 
#    0.000    0.000    0.000    0.000    0.000    0.000 
#
# Total GULP energy -156077.766342 kJ/mol
# GULP energy per Si atom -5574.205941 kJ/mol
# Density = 2.325453 g / cm^3
# Si number density = 23.307583 Si / 1000 Ang^3
#
#
#
# Elastic Constant Matrix: (Units=GPa)
#
#
# Indices 1 2 3 4 5 6 
#
# 1 233.1787 13.4692 59.3409 0.0000 0.0000 0.0000
# 2 13.4692 41.8091 -8.1859 0.0000 0.0000 0.0000
# 3 59.3409 -8.1859 108.3923 0.0000 0.0000 0.0000
# 4 0.0000 0.0000 0.0000 23.9179 0.0000 0.0000
# 5 0.0000 0.0000 0.0000 0.0000 37.0485 0.0000
# 6 0.0000 0.0000 0.0000 0.0000 0.0000 -1.2172
#
#
#
# Elastic Compliance Matrix: (Units=1/GPa)
#
#
# Indices 1 2 3 4 5 6 
#
# 1 0.005185 -0.002260 -0.003009 0.000000 0.000000 0.000000
# 2 -0.002260 0.025262 0.003145 0.000000 0.000000 0.000000
# 3 -0.003009 0.003145 0.011111 0.000000 0.000000 0.000000
# 4 0.000000 0.000000 0.000000 0.041810 0.000000 0.000000
# 5 0.000000 0.000000 0.000000 0.000000 0.026992 0.000000
# 6 0.000000 0.000000 0.000000 0.000000 0.000000 -0.821561
#
#
# Mechanical properties :
#
#
# Convention : Reuss Voigt Hill
#
# Bulk Modulus (GPa) = 26.80270 56.95872 41.88071
# Shear Modulus (GPa) = -7.19924 33.20022 13.00049
#
# Velocity S-wave (km/s) = -1.75940 3.77827 2.36430
# Velocity P-wave (km/s) = 2.71978 6.59732 5.04588
#
# Compressibility (1/GPa) = 0.03730968
#
# Stress axis : x y z
#
# Youngs Moduli (GPa) = 192.86881 39.58529 90.00357
#
# Poissons Ratio (x) = 0.08944 0.27084
# Poissons Ratio (y) = 0.43579 -0.28305
# Poissons Ratio (z) = 0.58038 -0.12449
#
# Static dielectric constant tensor:
#      x y z
#    x 2.001680 0.000000 0.000000 
#    y 0.000000 1.836370 0.000000 
#    z 0.000000 0.000000 1.900150 
# 
# From -- ./inp_files/65506.got.cif
#   From: 2010.05.17/outbox.cif.g08.bks.cpg/sg74_33_cif.got.tgz:65506.got - 2010.06.03 17:57:02.
