data_PCOD9538795
_publ_section_title
;
Structure prediction by ZEFSAII (Michael W. Deem and Ramdas Pophale) SiO2 
 PCOD9538795
Probable space group: I M M A
;
_chemical_formula_sum "Si O2"
_cell_formula_units_Z 60
_cell_length_a 10.346957
_cell_length_b 25.559643
_cell_length_c 12.126467
_cell_angle_alpha 90.000000
_cell_angle_beta 90.000000
_cell_angle_gamma 90.000000
_cell_volume 3207.020360
_symmetry_space_group_name_H-M "I M M A"
_symmetry_group_IT_number 74
_symmetry_cell_setting 'orthorhombic'
loop_
_space_group_symop_operation_xyz
x,y,z
-x,1/2-y,z
x,-y,-z
-x,1/2+y,-z
-x,-y,-z
x,1/2+y,-z
-x,y,z
x,1/2-y,z
1/2+x,1/2+y,1/2+z
1/2-x,-y,1/2+z
1/2+x,1/2-y,1/2-z
1/2-x,y,1/2-z
1/2-x,1/2-y,1/2-z
1/2+x,y,1/2-z
1/2-x,1/2+y,1/2+z
1/2+x,-y,1/2+z
loop_
_atom_site_type_symbol
_atom_site_label
_atom_site_fract_x
_atom_site_fract_y
_atom_site_fract_z
Si Si1 0.500000 0.189791 0.221120
Si Si2 0.652705 0.557342 0.542410
Si Si3 0.500000 0.750000 0.993132
Si Si4 0.855008 0.360186 0.846652
Si Si5 0.250000 0.118175 0.250000
Si Si6 0.232133 0.750000 0.118512
O O1 0.500000 0.250000 0.267511
O O2 0.500000 0.200799 0.089678
O O3 0.374146 0.156348 0.249804
O O4 0.691663 0.500000 0.500000
O O5 0.500000 0.554852 0.575472
O O6 0.662024 0.595880 0.438371
O O7 0.734451 0.581255 0.642874
O O8 0.371906 0.750000 0.064264
O O9 0.750000 0.364693 0.750000
O O10 0.839157 0.303958 0.906111
O O11 0.000000 0.363142 0.799820
O O12 0.250000 0.750000 0.250000
#
# Coordination Sequence:
#
# PCOD9538795 Si02
#       6
#     8  16   4  16   8   8
#     4  10  24  40  70  95 138 169 217 274 326 412
#     4  10  23  43  67  93 130 172 217 274 328 385
#     4  10  22  38  58  94 128 166 212 268 306 382
#     4  10  22  39  62  91 124 167 209 260 319 384
#     4  12  21  46  66 100 130 179 218 272 344 390
#     4  10  21  34  60  86 126 160 204 261 312 374
#
# _framework density 18.708953999999999
#
# number of rings (size 3 to 8) (size 9 to 14) (size 15 to 20)
#    0.400    1.333    1.333    2.400    9.333    0.000 
#    4.800    0.667    0.000    0.000    0.000    0.000 
#    0.000    0.000    0.000    0.000    0.000    0.000 
#
# Total GULP energy -167392.693549 kJ/mol
# GULP energy per Si atom -5579.756452 kJ/mol
# Density = 1.866637 g / cm^3
# Si number density = 18.708954 Si / 1000 Ang^3
#
#
#
# Elastic Constant Matrix: (Units=GPa)
#
#
# Indices 1 2 3 4 5 6 
#
# 1 128.9051 59.2479 46.4272 0.0000 0.0000 0.0000
# 2 59.2479 178.7663 49.0633 0.0000 0.0000 0.0000
# 3 46.4272 49.0633 57.6288 0.0001 -0.0002 -0.0001
# 4 0.0000 0.0000 0.0001 6.8962 0.0000 0.0000
# 5 0.0000 0.0000 -0.0002 0.0000 26.9078 0.0000
# 6 0.0000 0.0000 -0.0001 0.0000 0.0000 21.5849
#
#
#
# Elastic Compliance Matrix: (Units=1/GPa)
#
#
# Indices 1 2 3 4 5 6 
#
# 1 0.011279 -0.001624 -0.007704 0.000000 0.000000 0.000000
# 2 -0.001624 0.007533 -0.005106 0.000000 0.000000 0.000000
# 3 -0.007704 -0.005106 0.027906 0.000000 0.000000 0.000000
# 4 0.000000 0.000000 0.000000 0.145007 0.000000 0.000000
# 5 0.000000 0.000000 0.000000 0.000000 0.037164 0.000000
# 6 0.000000 0.000000 0.000000 0.000000 0.000000 0.046329
#
#
# Mechanical properties :
#
#
# Convention : Reuss Voigt Hill
#
# Bulk Modulus (GPa) = 56.01877 74.97522 65.49699
# Shear Modulus (GPa) = 16.12725 25.11525 20.62125
#
# Velocity S-wave (km/s) = 2.93918 3.66788 3.32356
# Velocity P-wave (km/s) = 6.44404 7.62229 7.05779
#
# Compressibility (1/GPa) = 0.01785116
#
# Stress axis : x y z
#
# Youngs Moduli (GPa) = 88.66323 132.74492 35.83501
#
# Poissons Ratio (x) = 0.21553 0.27607
# Poissons Ratio (y) = 0.14396 0.18296
# Poissons Ratio (z) = 0.68307 0.67773
#
# Static dielectric constant tensor:
#      x y z
#    x 1.639800 0.000000 0.000000 
#    y 0.000000 1.682740 0.000000 
#    z 0.000000 0.000000 1.619950 
# 
# From -- ./inp_files/17366.got.cif
#   From: 2010.05.17/outbox.cif.g08.bks.cpg/sg74_9_cif.got.tgz:17366.got - 2010.06.03 17:57:02.
