data_PCOD9538528
_publ_section_title
;
Structure prediction by ZEFSAII (Michael W. Deem and Ramdas Pophale) SiO2 
 PCOD9538528
Probable space group: I M M A
;
_chemical_formula_sum "Si O2"
_cell_formula_units_Z 80
_cell_length_a 10.764162
_cell_length_b 20.243346
_cell_length_c 19.247756
_cell_angle_alpha 90.000000
_cell_angle_beta 90.000000
_cell_angle_gamma 90.000000
_cell_volume 4194.137150
_symmetry_space_group_name_H-M "I M M A"
_symmetry_group_IT_number 74
_symmetry_cell_setting 'orthorhombic'
loop_
_space_group_symop_operation_xyz
x,y,z
-x,1/2-y,z
x,-y,-z
-x,1/2+y,-z
-x,-y,-z
x,1/2+y,-z
-x,y,z
x,1/2-y,z
1/2+x,1/2+y,1/2+z
1/2-x,-y,1/2+z
1/2+x,1/2-y,1/2-z
1/2-x,y,1/2-z
1/2-x,1/2-y,1/2-z
1/2+x,y,1/2-z
1/2-x,1/2+y,1/2+z
1/2+x,-y,1/2+z
loop_
_atom_site_type_symbol
_atom_site_label
_atom_site_fract_x
_atom_site_fract_y
_atom_site_fract_z
Si Si1 0.643791 0.962719 0.192421
Si Si2 0.000000 0.394539 0.976572
Si Si3 0.757946 0.672537 0.966719
Si Si4 0.642241 0.939463 0.043020
Si Si5 0.500000 0.018616 0.382871
Si Si6 0.262632 0.906410 0.672815
O O1 0.500000 0.946350 0.211446
O O2 0.750000 0.950856 0.250000
O O3 0.687197 0.928014 0.121015
O O4 0.651305 0.040350 0.170604
O O5 0.121380 0.349846 0.988725
O O6 0.000000 0.441680 0.044502
O O7 0.000000 0.442406 0.908925
O O8 0.738076 0.750000 0.970385
O O9 0.769768 0.647438 0.887343
O O10 0.652340 0.626301 0.998862
O O11 0.500000 0.958847 0.053882
O O12 0.705348 0.000000 0.000000
O O13 0.381797 0.045644 0.340088
O O14 0.250000 0.877457 0.750000
#
# Coordination Sequence:
#
# PCOD9538528 Si02
#       6
#    16   8  16  16   8  16
#     4  10  21  36  59  88 122 150 193 249 307 359
#     4   9  19  34  60  82 114 150 206 254 311 336
#     4  11  22  37  57  86 123 162 206 247 295 365
#     4  10  20  38  60  84 115 154 196 251 306 356
#     4   9  18  34  56  86 110 155 204 262 298 354
#     4  10  21  33  53  83 124 162 202 241 297 354
#
# _framework density 19.074245000000001
#
# number of rings (size 3 to 8) (size 9 to 14) (size 15 to 20)
#    0.000    2.000    2.000    1.500    8.400    0.800 
#    1.800    0.000    0.000    0.600    0.000    0.000 
#    0.000    0.800    0.000    0.000    0.000    0.000 
#
# Total GULP energy -222805.782701 kJ/mol
# GULP energy per Si atom -5570.144568 kJ/mol
# Density = 1.903083 g / cm^3
# Si number density = 19.074245 Si / 1000 Ang^3
#
#
#
# Elastic Constant Matrix: (Units=GPa)
#
#
# Indices 1 2 3 4 5 6 
#
# 1 85.7180 10.8002 49.9166 0.0000 0.0000 0.0000
# 2 10.8002 106.8670 63.7127 0.0000 0.0000 0.0000
# 3 49.9166 63.7127 130.5379 0.0000 0.0000 0.0000
# 4 0.0000 0.0000 0.0000 20.1246 0.0000 0.0000
# 5 0.0000 0.0000 0.0000 0.0000 20.9807 0.0000
# 6 0.0000 0.0000 0.0000 0.0000 0.0000 -6.3524
#
#
#
# Elastic Compliance Matrix: (Units=1/GPa)
#
#
# Indices 1 2 3 4 5 6 
#
# 1 0.015576 0.002788 -0.007317 0.000000 0.000000 0.000000
# 2 0.002788 0.013697 -0.007751 0.000000 0.000000 0.000000
# 3 -0.007317 -0.007751 0.014242 0.000000 0.000000 0.000000
# 4 0.000000 0.000000 0.000000 0.049691 0.000000 0.000000
# 5 0.000000 0.000000 0.000000 0.000000 0.047663 0.000000
# 6 0.000000 0.000000 0.000000 0.000000 0.000000 -0.157420
#
#
# Mechanical properties :
#
#
# Convention : Reuss Voigt Hill
#
# Bulk Modulus (GPa) = 52.75858 63.55354 58.15606
# Shear Modulus (GPa) = 349.03296 20.19680 184.61488
#
# Velocity S-wave (km/s) = 13.54193 3.25753 9.84874
# Velocity P-wave (km/s) = 16.49943 6.89493 12.64459
#
# Compressibility (1/GPa) = 0.01895426
#
# Stress axis : x y z
#
# Youngs Moduli (GPa) = 64.20255 73.00942 70.21623
#
# Poissons Ratio (x) = -0.20356 0.51376
# Poissons Ratio (y) = -0.17900 0.54426
# Poissons Ratio (z) = 0.46976 0.56592
#
# Static dielectric constant tensor:
#      x y z
#    x 1.757020 0.000000 0.000000 
#    y 0.000000 1.624930 0.000000 
#    z 0.000000 0.000000 1.767430 
# 
# From -- ./inp_files/50460.got.cif
#   From: 2010.05.17/outbox.cif.g08.bks.cpg/sg74_26_cif.got.tgz:50460.got - 2010.06.03 17:57:02.
