data_PCOD9538017
_publ_section_title
;
Structure prediction by ZEFSAII (Michael W. Deem and Ramdas Pophale) SiO2 
 PCOD9538017
Probable space group: I M M A
;
_chemical_formula_sum "Si O2"
_cell_formula_units_Z 88
_cell_length_a 19.628524
_cell_length_b 8.630096
_cell_length_c 28.053898
_cell_angle_alpha 90.000000
_cell_angle_beta 90.000000
_cell_angle_gamma 90.000000
_cell_volume 4752.219409
_symmetry_space_group_name_H-M "I M M A"
_symmetry_group_IT_number 74
_symmetry_cell_setting 'orthorhombic'
loop_
_space_group_symop_operation_xyz
x,y,z
-x,1/2-y,z
x,-y,-z
-x,1/2+y,-z
-x,-y,-z
x,1/2+y,-z
-x,y,z
x,1/2-y,z
1/2+x,1/2+y,1/2+z
1/2-x,-y,1/2+z
1/2+x,1/2-y,1/2-z
1/2-x,y,1/2-z
1/2-x,1/2-y,1/2-z
1/2+x,y,1/2-z
1/2-x,1/2+y,1/2+z
1/2+x,-y,1/2+z
loop_
_atom_site_type_symbol
_atom_site_label
_atom_site_fract_x
_atom_site_fract_y
_atom_site_fract_z
Si Si1 0.921969 0.564705 0.772153
Si Si2 0.719132 0.566833 0.551592
Si Si3 0.137338 0.934012 0.596651
Si Si4 0.000000 0.436231 0.553000
Si Si5 0.316807 0.432327 0.804715
Si Si6 0.174210 0.564243 0.153149
O O1 0.921638 0.750000 0.774044
O O2 0.867564 0.511334 0.732472
O O3 0.893437 0.497888 0.821781
O O4 0.000000 0.513655 0.762260
O O5 0.699287 0.500000 0.500000
O O6 0.706469 0.750000 0.551896
O O7 0.800099 0.541451 0.560252
O O8 0.685234 0.495209 0.599253
O O9 0.135423 0.750000 0.607867
O O10 0.066817 0.993579 0.576812
O O11 0.152827 0.032797 0.643460
O O12 0.000000 0.500000 0.500000
O O13 0.000000 0.250000 0.554621
O O14 0.314929 0.250000 0.793552
O O15 0.238456 0.486594 0.812963
O O16 0.175121 0.750000 0.152578
#
# Coordination Sequence:
#
# PCOD9538017 Si02
#       6
#    16  16  16   8  16  16
#     4  11  24  39  57  83 116 153 191 234 284 341
#     4  10  20  35  58  85 112 144 183 230 281 335
#     4  10  21  36  54  77 108 145 187 234 281 333
#     4  12  24  36  50  70 102 146 190 236 287 336
#     4  10  21  37  58  84 113 148 190 235 283 335
#     4  10  21  38  60  86 115 148 189 236 283 338
#
# _framework density 18.517664
#
# number of rings (size 3 to 8) (size 9 to 14) (size 15 to 20)
#    0.000    1.636    0.000    4.636    1.273    9.455 
#    0.000    0.000    0.000    0.545    0.000    0.000 
#    0.000    0.000    0.000    0.000    0.000    0.000 
#
# Total GULP energy -245648.052343 kJ/mol
# GULP energy per Si atom -5582.910281 kJ/mol
# Density = 1.847552 g / cm^3
# Si number density = 18.517664 Si / 1000 Ang^3
#
#
#
# Elastic Constant Matrix: (Units=GPa)
#
#
# Indices 1 2 3 4 5 6 
#
# 1 71.1757 23.1055 51.0373 0.0000 0.0000 0.0000
# 2 23.1055 55.5687 31.4205 0.0000 0.0000 0.0000
# 3 51.0373 31.4205 98.0035 0.0000 0.0000 0.0000
# 4 0.0000 0.0000 0.0000 36.5865 0.0000 0.0000
# 5 0.0000 0.0000 0.0000 0.0000 -21.5717 0.0000
# 6 0.0000 0.0000 0.0000 0.0000 0.0000 22.2969
#
#
#
# Elastic Compliance Matrix: (Units=1/GPa)
#
#
# Indices 1 2 3 4 5 6 
#
# 1 0.022937 -0.003399 -0.010855 0.000000 0.000000 0.000000
# 2 -0.003399 0.022484 -0.005438 0.000000 0.000000 0.000000
# 3 -0.010855 -0.005438 0.017600 0.000000 0.000000 0.000000
# 4 0.000000 0.000000 0.000000 0.027332 0.000000 0.000000
# 5 0.000000 0.000000 0.000000 0.000000 -0.046357 0.000000
# 6 0.000000 0.000000 0.000000 0.000000 0.000000 0.044849
#
#
# Mechanical properties :
#
#
# Convention : Reuss Voigt Hill
#
# Bulk Modulus (GPa) = 42.30826 48.43050 45.36938
# Shear Modulus (GPa) = 36.73493 15.40799 26.07146
#
# Velocity S-wave (km/s) = 4.45879 2.88769 3.75630
# Velocity P-wave (km/s) = 7.02886 6.10973 6.58535
#
# Compressibility (1/GPa) = 0.02363605
#
# Stress axis : x y z
#
# Youngs Moduli (GPa) = 43.59771 44.47567 56.81737
#
# Poissons Ratio (x) = 0.15119 0.61676
# Poissons Ratio (y) = 0.14820 0.30899
# Poissons Ratio (z) = 0.47326 0.24187
#
# Static dielectric constant tensor:
#      x y z
#    x 1.695970 0.000000 0.000000 
#    y 0.000000 1.623500 0.000000 
#    z 0.000000 0.000000 1.623200 
# 
# From -- ./inp_files/61456.got.cif
#   From: 2010.05.17/outbox.cif.g08.bks.cpg/sg74_31_cif.got.tgz:61456.got - 2010.06.03 17:57:02.
