data_PCOD9538411
_publ_section_title
;
Structure prediction by ZEFSAII (Michael W. Deem and Ramdas Pophale) SiO2 
 PCOD9538411
Probable space group: I M M A
;
_chemical_formula_sum "Si O2"
_cell_formula_units_Z 96
_cell_length_a 15.842261
_cell_length_b 23.422863
_cell_length_c 13.849545
_cell_angle_alpha 90.000000
_cell_angle_beta 90.000000
_cell_angle_gamma 90.000000
_cell_volume 5139.166022
_symmetry_space_group_name_H-M "I M M A"
_symmetry_group_IT_number 74
_symmetry_cell_setting 'orthorhombic'
loop_
_space_group_symop_operation_xyz
x,y,z
-x,1/2-y,z
x,-y,-z
-x,1/2+y,-z
-x,-y,-z
x,1/2+y,-z
-x,y,z
x,1/2-y,z
1/2+x,1/2+y,1/2+z
1/2-x,-y,1/2+z
1/2+x,1/2-y,1/2-z
1/2-x,y,1/2-z
1/2-x,1/2-y,1/2-z
1/2+x,y,1/2-z
1/2-x,1/2+y,1/2+z
1/2+x,-y,1/2+z
loop_
_atom_site_type_symbol
_atom_site_label
_atom_site_fract_x
_atom_site_fract_y
_atom_site_fract_z
Si Si1 0.601664 0.487042 0.612197
Si Si2 0.000000 0.680968 0.284875
Si Si3 0.666800 0.184998 0.472202
Si Si4 0.902180 0.609577 0.812689
Si Si5 0.167818 0.133371 0.817620
Si Si6 0.843495 0.816489 0.639930
Si Si7 0.000000 0.818904 0.506640
O O1 0.621534 0.500000 0.500000
O O2 0.500000 0.477750 0.617938
O O3 0.622608 0.544030 0.672248
O O4 0.649058 0.431885 0.651990
O O5 0.084459 0.657659 0.234714
O O6 0.000000 0.661433 0.396592
O O7 0.000000 0.750000 0.280648
O O8 0.635555 0.250000 0.464741
O O9 0.607196 0.141313 0.415466
O O10 0.679025 0.167995 0.582879
O O11 0.755867 0.181170 0.416547
O O12 0.849759 0.643977 0.733282
O O13 0.000000 0.611904 0.783221
O O14 0.250000 0.138235 0.750000
O O15 0.857760 0.750000 0.668981
O O16 0.917088 0.834880 0.566355
O O17 0.000000 0.750000 0.502483
#
# Coordination Sequence:
#
# PCOD9538411 Si02
#       7
#    16   8  16  16  16  16   8
#     4  10  21  43  67  88 122 165 210 261 322 368
#     4  11  24  42  67  95 131 172 212 263 320 375
#     4  11  24  38  58  92 132 162 201 262 316 377
#     4  11  22  37  64  92 122 163 209 259 311 385
#     4  12  25  43  67  94 127 169 222 268 313 375
#     4  10  20  37  59  90 128 163 199 248 318 387
#     4   9  18  36  60  83 118 166 204 235 298 381
#
# _framework density 18.680074000000001
#
# number of rings (size 3 to 8) (size 9 to 14) (size 15 to 20)
#    0.000    1.333    3.333    2.500    1.167    6.333 
#    0.000    0.000    0.000    1.000    0.000    0.000 
#    0.000    0.000    0.000    0.000    0.000    0.000 
#
# Total GULP energy -268231.742204 kJ/mol
# GULP energy per Si atom -5588.161296 kJ/mol
# Density = 1.863756 g / cm^3
# Si number density = 18.680074 Si / 1000 Ang^3
#
#
#
# Elastic Constant Matrix: (Units=GPa)
#
#
# Indices 1 2 3 4 5 6 
#
# 1 76.8569 30.4668 35.6171 0.0000 0.0000 0.0000
# 2 30.4668 87.7086 27.2473 0.0000 0.0000 0.0000
# 3 35.6171 27.2473 116.9509 0.0000 0.0000 0.0000
# 4 0.0000 0.0000 0.0000 23.3605 0.0000 0.0000
# 5 0.0000 0.0000 0.0000 0.0000 31.2025 0.0000
# 6 0.0000 0.0000 0.0000 0.0000 0.0000 14.5386
#
#
#
# Elastic Compliance Matrix: (Units=1/GPa)
#
#
# Indices 1 2 3 4 5 6 
#
# 1 0.016675 -0.004544 -0.004020 0.000000 0.000000 0.000000
# 2 -0.004544 0.013529 -0.001768 0.000000 0.000000 0.000000
# 3 -0.004020 -0.001768 0.010187 0.000000 0.000000 0.000000
# 4 0.000000 0.000000 0.000000 0.042807 0.000000 0.000000
# 5 0.000000 0.000000 0.000000 0.000000 0.032049 0.000000
# 6 0.000000 0.000000 0.000000 0.000000 0.000000 0.068783
#
#
# Mechanical properties :
#
#
# Convention : Reuss Voigt Hill
#
# Bulk Modulus (GPa) = 50.69024 52.01986 51.35505
# Shear Modulus (GPa) = 23.66654 26.36599 25.01627
#
# Velocity S-wave (km/s) = 3.56327 3.76100 3.66347
# Velocity P-wave (km/s) = 6.64260 6.83874 6.74138
#
# Compressibility (1/GPa) = 0.01972766
#
# Stress axis : x y z
#
# Youngs Moduli (GPa) = 59.96935 73.91539 98.16633
#
# Poissons Ratio (x) = 0.33584 0.39461
# Poissons Ratio (y) = 0.27247 0.17358
# Poissons Ratio (z) = 0.24107 0.13070
#
# Static dielectric constant tensor:
#      x y z
#    x 1.640510 0.000000 0.000000 
#    y 0.000000 1.629480 0.000000 
#    z 0.000000 0.000000 1.634860 
# 
# From -- ./inp_files/32423.got.cif
#   From: 2010.05.17/outbox.cif.g08.bks.cpg/sg74_17_cif.got.tgz:32423.got - 2010.06.03 17:57:02.
