data_PCOD9538925
_publ_section_title
;
Structure prediction by ZEFSAII (Michael W. Deem and Ramdas Pophale) SiO2 
 PCOD9538925
Probable space group: I M M A
;
_chemical_formula_sum "Si O2"
_cell_formula_units_Z 96
_cell_length_a 20.493127
_cell_length_b 8.816217
_cell_length_c 28.161787
_cell_angle_alpha 90.000000
_cell_angle_beta 90.000000
_cell_angle_gamma 90.000000
_cell_volume 5088.042287
_symmetry_space_group_name_H-M "I M M A"
_symmetry_group_IT_number 74
_symmetry_cell_setting 'orthorhombic'
loop_
_space_group_symop_operation_xyz
x,y,z
-x,1/2-y,z
x,-y,-z
-x,1/2+y,-z
-x,-y,-z
x,1/2+y,-z
-x,y,z
x,1/2-y,z
1/2+x,1/2+y,1/2+z
1/2-x,-y,1/2+z
1/2+x,1/2-y,1/2-z
1/2-x,y,1/2-z
1/2-x,1/2-y,1/2-z
1/2+x,y,1/2-z
1/2-x,1/2+y,1/2+z
1/2+x,-y,1/2+z
loop_
_atom_site_type_symbol
_atom_site_label
_atom_site_fract_x
_atom_site_fract_y
_atom_site_fract_z
Si Si1 0.423863 0.069034 0.298862
Si Si2 0.807159 0.068656 0.618368
Si Si3 0.425777 0.432439 0.948715
Si Si4 0.682709 0.569952 0.778277
Si Si5 0.075993 0.569200 0.097959
Si Si6 0.301009 0.430406 0.449354
O O1 0.500000 0.044436 0.286979
O O2 0.414362 0.250000 0.306969
O O3 0.376319 0.022528 0.256324
O O4 0.409888 0.983338 0.348014
O O5 0.799501 0.250000 0.615405
O O6 0.872663 0.023192 0.590048
O O7 0.813602 0.017487 0.672457
O O8 0.746706 0.991199 0.591680
O O9 0.500000 0.480092 0.936952
O O10 0.425119 0.250000 0.952244
O O11 0.408941 0.500000 0.000000
O O12 0.675319 0.750000 0.788019
O O13 0.750000 0.548896 0.750000
O O14 0.084171 0.750000 0.093965
O O15 0.126383 0.485944 0.063728
O O16 0.000000 0.531691 0.088402
O O17 0.281155 0.500000 0.500000
O O18 0.298282 0.250000 0.451602
#
# Coordination Sequence:
#
# PCOD9538925 Si02
#       6
#    16  16  16  16  16  16
#     4   9  18  34  56  82 114 152 191 231 279 335
#     4  11  23  38  58  84 114 148 189 237 286 337
#     4   9  19  36  57  82 112 146 183 224 273 329
#     4  10  21  36  54  78 109 146 188 233 280 331
#     4  10  21  38  61  89 119 150 187 231 280 336
#     4  12  25  41  61  84 114 150 189 234 283 338
#
# _framework density 18.867768000000002
#
# number of rings (size 3 to 8) (size 9 to 14) (size 15 to 20)
#    0.000    1.833    0.000    4.000    0.000    7.000 
#    0.000    0.000    0.000    0.000    0.000    0.000 
#    0.000    0.000    0.000    0.000    0.000    0.000 
#
# Total GULP energy -268259.037304 kJ/mol
# GULP energy per Si atom -5588.729944 kJ/mol
# Density = 1.882482 g / cm^3
# Si number density = 18.867768 Si / 1000 Ang^3
#
#
#
# Elastic Constant Matrix: (Units=GPa)
#
#
# Indices 1 2 3 4 5 6 
#
# 1 54.0662 32.3304 18.8036 0.0000 0.0000 0.0000
# 2 32.3304 56.7661 22.5879 0.0000 0.0000 0.0000
# 3 18.8036 22.5879 39.9717 0.0000 0.0000 0.0000
# 4 0.0000 0.0000 0.0000 37.7732 0.0000 0.0000
# 5 0.0000 0.0000 0.0000 0.0000 37.8434 0.0000
# 6 0.0000 0.0000 0.0000 0.0000 0.0000 12.3113
#
#
#
# Elastic Compliance Matrix: (Units=1/GPa)
#
#
# Indices 1 2 3 4 5 6 
#
# 1 0.028973 -0.014292 -0.005554 0.000000 0.000000 0.000000
# 2 -0.014292 0.029776 -0.010103 0.000000 0.000000 0.000000
# 3 -0.005554 -0.010103 0.033340 0.000000 0.000000 0.000000
# 4 0.000000 0.000000 0.000000 0.026474 0.000000 0.000000
# 5 0.000000 0.000000 0.000000 0.000000 0.026425 0.000000
# 6 0.000000 0.000000 0.000000 0.000000 0.000000 0.081227
#
#
# Mechanical properties :
#
#
# Convention : Reuss Voigt Hill
#
# Bulk Modulus (GPa) = 31.06355 33.13864 32.10109
# Shear Modulus (GPa) = 16.84402 22.72438 19.78420
#
# Velocity S-wave (km/s) = 2.99112 3.47421 3.24168
# Velocity P-wave (km/s) = 5.33185 5.80477 5.57333
#
# Compressibility (1/GPa) = 0.03219207
#
# Stress axis : x y z
#
# Youngs Moduli (GPa) = 34.51445 33.58419 29.99443
#
# Poissons Ratio (x) = 0.47997 0.16658
# Poissons Ratio (y) = 0.49327 0.30304
# Poissons Ratio (z) = 0.19168 0.33931
#
# Static dielectric constant tensor:
#      x y z
#    x 1.661730 0.000000 0.000000 
#    y 0.000000 1.634540 0.000000 
#    z 0.000000 0.000000 1.609410 
# 
# From -- ./inp_files/68117.got.cif
#   From: 2010.05.17/outbox.cif.g08.bks.cpg/sg74_35_cif.got.tgz:68117.got - 2010.06.03 17:57:02.
