data_PCOD9538223
_publ_section_title
;
Structure prediction by ZEFSAII (Michael W. Deem and Ramdas Pophale) SiO2 
 PCOD9538223
Probable space group: I M M A
;
_chemical_formula_sum "Si O2"
_cell_formula_units_Z 112
_cell_length_a 23.183154
_cell_length_b 19.326748
_cell_length_c 13.912303
_cell_angle_alpha 90.000000
_cell_angle_beta 90.000000
_cell_angle_gamma 90.000000
_cell_volume 6233.476576
_symmetry_space_group_name_H-M "I M M A"
_symmetry_group_IT_number 74
_symmetry_cell_setting 'orthorhombic'
loop_
_space_group_symop_operation_xyz
x,y,z
-x,1/2-y,z
x,-y,-z
-x,1/2+y,-z
-x,-y,-z
x,1/2+y,-z
-x,y,z
x,1/2-y,z
1/2+x,1/2+y,1/2+z
1/2-x,-y,1/2+z
1/2+x,1/2-y,1/2-z
1/2-x,y,1/2-z
1/2-x,1/2-y,1/2-z
1/2+x,y,1/2-z
1/2-x,1/2+y,1/2+z
1/2+x,-y,1/2+z
loop_
_atom_site_type_symbol
_atom_site_label
_atom_site_fract_x
_atom_site_fract_y
_atom_site_fract_z
Si Si1 0.567683 0.832773 0.067840
Si Si2 0.341311 0.575661 0.955892
Si Si3 0.110459 0.670071 0.048099
Si Si4 0.932318 0.585638 0.230618
Si Si5 0.790429 0.423916 0.041488
Si Si6 0.434483 0.324896 0.340216
Si Si7 0.143371 0.053320 0.232567
O O1 0.500000 0.842703 0.040547
O O2 0.577769 0.750000 0.074325
O O3 0.575637 0.870267 0.171384
O O4 0.611626 0.870195 0.994776
O O5 0.340040 0.566039 0.841827
O O6 0.354489 0.500000 0.000000
O O7 0.275491 0.595147 0.981216
O O8 0.123267 0.750000 0.070189
O O9 0.082411 0.633003 0.139073
O O10 0.166677 0.629596 0.009729
O O11 0.068830 0.668299 0.955451
O O12 0.888566 0.520814 0.226145
O O13 0.000000 0.563931 0.227132
O O14 0.801580 0.500000 0.000000
O O15 0.806379 0.433418 0.154197
O O16 0.500000 0.324419 0.308425
O O17 0.407403 0.250000 0.316483
O O18 0.402596 0.388374 0.294439
#
# Coordination Sequence:
#
# PCOD9538223 Si02
#       7
#    16  16  16  16  16  16  16
#     4  10  23  42  62  88 121 155 197 246 294 347
#     4  11  23  40  62  84 112 156 197 241 291 345
#     4  10  20  36  58  86 120 157 192 239 298 352
#     4  11  21  35  59  90 122 158 197 241 293 354
#     4  10  21  39  61  85 117 151 192 240 292 348
#     4   9  19  34  53  82 119 155 194 238 288 349
#     4  11  21  37  59  89 116 154 193 247 292 354
#
# _framework density 17.967502
#
# number of rings (size 3 to 8) (size 9 to 14) (size 15 to 20)
#    0.000    1.714    2.857    1.714    0.000    4.000 
#    0.000    4.286    0.000    6.000    0.000    0.000 
#    0.000    0.000    0.000    0.000    0.000    0.000 
#
# Total GULP energy -312328.327992 kJ/mol
# GULP energy per Si atom -5577.291571 kJ/mol
# Density = 1.792661 g / cm^3
# Si number density = 17.967502 Si / 1000 Ang^3
#
#
#
# Elastic Constant Matrix: (Units=GPa)
#
#
# Indices 1 2 3 4 5 6 
#
# 1 69.5572 48.2671 4.5389 0.0000 0.0000 0.0000
# 2 48.2671 88.7238 9.5556 0.0000 0.0000 0.0000
# 3 4.5389 9.5556 55.2770 0.0000 0.0000 0.0000
# 4 0.0000 0.0000 0.0000 25.4724 0.0000 0.0000
# 5 0.0000 0.0000 0.0000 0.0000 4.6886 0.0000
# 6 0.0000 0.0000 0.0000 0.0000 0.0000 23.2003
#
#
#
# Elastic Compliance Matrix: (Units=1/GPa)
#
#
# Indices 1 2 3 4 5 6 
#
# 1 0.023099 -0.012597 0.000281 0.000000 0.000000 0.000000
# 2 -0.012597 0.018354 -0.002138 0.000000 0.000000 0.000000
# 3 0.000281 -0.002138 0.018437 0.000000 0.000000 0.000000
# 4 0.000000 0.000000 0.000000 0.039258 0.000000 0.000000
# 5 0.000000 0.000000 0.000000 0.000000 0.213282 0.000000
# 6 0.000000 0.000000 0.000000 0.000000 0.000000 0.043103
#
#
# Mechanical properties :
#
#
# Convention : Reuss Voigt Hill
#
# Bulk Modulus (GPa) = 32.27670 37.58679 34.93174
# Shear Modulus (GPa) = 12.66560 20.75201 16.70881
#
# Velocity S-wave (km/s) = 2.65791 3.40218 3.05281
# Velocity P-wave (km/s) = 5.23662 6.03306 5.64890
#
# Compressibility (1/GPa) = 0.03098210
#
# Stress axis : x y z
#
# Youngs Moduli (GPa) = 43.29116 54.48393 54.23778
#
# Poissons Ratio (x) = 0.68632 -0.01523
# Poissons Ratio (y) = 0.54532 0.11599
# Poissons Ratio (z) = -0.01216 0.11651
#
# Static dielectric constant tensor:
#      x y z
#    x 1.609690 0.000000 0.000000 
#    y 0.000000 1.598150 0.000000 
#    z 0.000000 0.000000 1.620380 
# 
# From -- ./inp_files/25387.got.cif
#   From: 2010.05.17/outbox.cif.g08.bks.cpg/sg74_13_cif.got.tgz:25387.got - 2010.06.03 17:57:02.
