data_PCOD9538724
_publ_section_title
;
Structure prediction by ZEFSAII (Michael W. Deem and Ramdas Pophale) SiO2 
 PCOD9538724
Probable space group: I M M A
;
_chemical_formula_sum "Si O2"
_cell_formula_units_Z 80
_cell_length_a 18.794803
_cell_length_b 24.900711
_cell_length_c 8.602371
_cell_angle_alpha 90.000000
_cell_angle_beta 90.000000
_cell_angle_gamma 90.000000
_cell_volume 4025.943675
_symmetry_space_group_name_H-M "I M M A"
_symmetry_group_IT_number 74
_symmetry_cell_setting 'orthorhombic'
loop_
_space_group_symop_operation_xyz
x,y,z
-x,1/2-y,z
x,-y,-z
-x,1/2+y,-z
-x,-y,-z
x,1/2+y,-z
-x,y,z
x,1/2-y,z
1/2+x,1/2+y,1/2+z
1/2-x,-y,1/2+z
1/2+x,1/2-y,1/2-z
1/2-x,y,1/2-z
1/2-x,1/2-y,1/2-z
1/2+x,y,1/2-z
1/2-x,1/2+y,1/2+z
1/2+x,-y,1/2+z
loop_
_atom_site_type_symbol
_atom_site_label
_atom_site_fract_x
_atom_site_fract_y
_atom_site_fract_z
Si Si1 0.920757 0.357676 0.081624
Si Si2 0.675282 0.808313 0.838056
Si Si3 0.655466 0.070705 0.632671
Si Si4 0.418948 0.969852 0.767797
Si Si5 0.305934 0.420583 0.993091
O O1 0.881676 0.319376 0.202457
O O2 0.922409 0.415726 0.167142
O O3 0.000000 0.339021 0.050135
O O4 0.880397 0.374310 0.925637
O O5 0.662396 0.750000 0.912701
O O6 0.750000 0.806779 0.750000
O O7 0.681072 0.860028 0.947798
O O8 0.677367 0.077998 0.811533
O O9 0.722099 0.063099 0.512368
O O10 0.604297 0.019446 0.659012
O O11 0.500000 0.979053 0.827880
O O12 0.357838 0.956338 0.896993
#
# Coordination Sequence:
#
# PCOD9538724 Si02
#       5
#    16  16  16  16  16
#     4  10  21  37  59  87 117 150 198 248 295 351
#     4  10  20  41  66  82 107 150 199 249 299 357
#     4  11  21  35  55  86 125 157 195 245 294 351
#     4  10  22  38  57  83 122 169 204 235 288 358
#     4  10  23  38  55  88 120 155 204 245 295 352
#
# _framework density 19.871117999999999
#
# number of rings (size 3 to 8) (size 9 to 14) (size 15 to 20)
#    0.000    1.800    2.000    1.800    0.000   10.800 
#    0.000    3.000    0.000    0.000    0.000    0.000 
#    0.000    0.000    0.000    0.000    0.000    0.000 
#
# Total GULP energy -222865.065149 kJ/mol
# GULP energy per Si atom -5571.626629 kJ/mol
# Density = 1.982589 g / cm^3
# Si number density = 19.871118 Si / 1000 Ang^3
#
#
#
# Elastic Constant Matrix: (Units=GPa)
#
#
# Indices 1 2 3 4 5 6 
#
# 1 129.5883 10.3378 21.0590 0.0000 0.0000 0.0000
# 2 10.3378 104.1647 10.3411 0.0000 0.0000 0.0000
# 3 21.0590 10.3411 56.5665 0.0000 0.0000 0.0000
# 4 0.0000 0.0000 0.0000 29.6788 0.0000 0.0000
# 5 0.0000 0.0000 0.0000 0.0000 -2.4766 0.0000
# 6 0.0000 0.0000 0.0000 0.0000 0.0000 21.5146
#
#
#
# Elastic Compliance Matrix: (Units=1/GPa)
#
#
# Indices 1 2 3 4 5 6 
#
# 1 0.008242 -0.000523 -0.002973 0.000000 0.000000 0.000000
# 2 -0.000523 0.009811 -0.001599 0.000000 0.000000 0.000000
# 3 -0.002973 -0.001599 0.019077 0.000000 0.000000 0.000000
# 4 0.000000 0.000000 0.000000 0.033694 0.000000 0.000000
# 5 0.000000 0.000000 0.000000 0.000000 -0.403778 0.000000
# 6 0.000000 0.000000 0.000000 0.000000 0.000000 0.046480
#
#
# Mechanical properties :
#
#
# Convention : Reuss Voigt Hill
#
# Bulk Modulus (GPa) = 37.11829 41.53281 39.32555
# Shear Modulus (GPa) = -18.70518 26.31547 3.80515
#
# Velocity S-wave (km/s) = -3.07143 3.64305 1.38530
# Velocity P-wave (km/s) = 2.47827 6.21629 4.73202
#
# Compressibility (1/GPa) = 0.02694090
#
# Stress axis : x y z
#
# Youngs Moduli (GPa) = 121.33672 101.92846 52.41838
#
# Poissons Ratio (x) = 0.05329 0.15582
# Poissons Ratio (y) = 0.06344 0.08381
# Poissons Ratio (z) = 0.36069 0.16297
#
# Static dielectric constant tensor:
#      x y z
#    x 1.785130 0.000000 0.000000 
#    y 0.000000 1.733160 0.000000 
#    z 0.000000 0.000000 1.710530 
# 
# From -- ./inp_files/10894.got.cif
#   From: 2010.05.17/outbox.cif.g08.bks.cpg/sg74_6_cif.got.tgz:10894.got - 2010.06.03 17:57:02.
