data_PCOD9538579
_publ_section_title
;
Structure prediction by ZEFSAII (Michael W. Deem and Ramdas Pophale) SiO2 
 PCOD9538579
Probable space group: I M M A
;
_chemical_formula_sum "Si O2"
_cell_formula_units_Z 100
_cell_length_a 15.130820
_cell_length_b 17.356921
_cell_length_c 21.043443
_cell_angle_alpha 90.000000
_cell_angle_beta 90.000000
_cell_angle_gamma 90.000000
_cell_volume 5526.522589
_symmetry_space_group_name_H-M "I M M A"
_symmetry_group_IT_number 74
_symmetry_cell_setting 'orthorhombic'
loop_
_space_group_symop_operation_xyz
x,y,z
-x,1/2-y,z
x,-y,-z
-x,1/2+y,-z
-x,-y,-z
x,1/2+y,-z
-x,y,z
x,1/2-y,z
1/2+x,1/2+y,1/2+z
1/2-x,-y,1/2+z
1/2+x,1/2-y,1/2-z
1/2-x,y,1/2-z
1/2-x,1/2-y,1/2-z
1/2+x,y,1/2-z
1/2-x,1/2+y,1/2+z
1/2+x,-y,1/2+z
loop_
_atom_site_type_symbol
_atom_site_label
_atom_site_fract_x
_atom_site_fract_y
_atom_site_fract_z
Si Si1 0.828110 0.250000 0.702711
Si Si2 0.779278 0.023510 0.323648
Si Si3 0.000000 0.750000 0.213317
Si Si4 0.603589 0.341671 0.130690
Si Si5 0.831652 0.554439 0.059337
Si Si6 0.146579 0.092121 0.506410
Si Si7 0.000000 0.839742 0.091696
Si Si8 0.903118 0.388813 0.641497
O O1 0.750000 0.250000 0.750000
O O2 0.914436 0.250000 0.745062
O O3 0.832090 0.326212 0.662075
O O4 0.750000 0.013221 0.250000
O O5 0.820253 0.108748 0.333880
O O6 0.708307 0.994086 0.378838
O O7 0.863794 0.969820 0.338031
O O8 0.000000 0.823301 0.166860
O O9 0.500000 0.360842 0.146547
O O10 0.614072 0.250000 0.139422
O O11 0.620037 0.365223 0.057273
O O12 0.748231 0.600069 0.029072
O O13 0.912320 0.611126 0.075748
O O14 0.859471 0.500000 0.000000
O O15 0.091369 0.117697 0.566386
O O16 0.133719 0.000000 0.500000
O O17 0.000000 0.750000 0.065501
O O18 0.000000 0.375790 0.669089
#
# Coordination Sequence:
#
# PCOD9538579 Si02
#       8
#     8  16   4  16  16  16   8  16
#     4  12  26  40  56  84 132 174 204 253 302 374
#     4  11  24  40  64  92 119 165 209 253 315 372
#     4  10  26  44  54  90 136 168 204 254 322 364
#     4  11  23  41  64  93 126 159 197 254 317 376
#     4  10  20  43  63  91 122 159 211 264 308 360
#     4  10  20  38  63  93 123 155 198 250 313 369
#     4  10  25  37  64  88 123 167 213 260 308 363
#     4  11  22  36  59  89 127 160 204 250 303 377
#
# _framework density 18.094560000000001
#
# number of rings (size 3 to 8) (size 9 to 14) (size 15 to 20)
#    0.240    1.120    5.600    1.680    7.840    1.600 
#    1.440    0.000    0.000    0.000    0.000    0.000 
#    0.000    0.000    0.000    0.000    0.000    0.000 
#
# Total GULP energy -278405.267213 kJ/mol
# GULP energy per Si atom -5568.105344 kJ/mol
# Density = 1.805338 g / cm^3
# Si number density = 18.094560 Si / 1000 Ang^3
#
#
#
# Elastic Constant Matrix: (Units=GPa)
#
#
# Indices 1 2 3 4 5 6 
#
# 1 73.5318 32.6362 13.6321 0.0000 0.0000 0.0000
# 2 32.6362 80.0595 11.2926 0.0000 0.0000 0.0000
# 3 13.6321 11.2926 89.7295 0.0000 0.0000 0.0000
# 4 0.0000 0.0000 0.0000 32.0301 0.0000 0.0000
# 5 0.0000 0.0000 0.0000 0.0000 247.7846 0.0000
# 6 0.0000 0.0000 0.0000 0.0000 0.0000 50.1429
#
#
#
# Elastic Compliance Matrix: (Units=1/GPa)
#
#
# Indices 1 2 3 4 5 6 
#
# 1 0.016863 -0.006630 -0.001727 0.000000 0.000000 0.000000
# 2 -0.006630 0.015324 -0.000921 0.000000 0.000000 0.000000
# 3 -0.001727 -0.000921 0.011523 0.000000 0.000000 0.000000
# 4 0.000000 0.000000 0.000000 0.031221 0.000000 0.000000
# 5 0.000000 0.000000 0.000000 0.000000 0.004036 0.000000
# 6 0.000000 0.000000 0.000000 0.000000 0.000000 0.019943
#
#
# Mechanical properties :
#
#
# Convention : Reuss Voigt Hill
#
# Bulk Modulus (GPa) = 39.75953 39.82695 39.79324
# Shear Modulus (GPa) = 39.72980 78.37550 59.05265
#
# Velocity S-wave (km/s) = 4.69089 6.58851 5.71895
# Velocity P-wave (km/s) = 7.16660 8.94070 8.10235
#
# Compressibility (1/GPa) = 0.02515120
#
# Stress axis : x y z
#
# Youngs Moduli (GPa) = 59.30279 65.25923 86.78318
#
# Poissons Ratio (x) = 0.43269 0.14991
# Poissons Ratio (y) = 0.39320 0.07994
# Poissons Ratio (z) = 0.10244 0.06011
#
# Static dielectric constant tensor:
#      x y z
#    x 1.627100 0.000000 0.000000 
#    y 0.000000 1.668260 0.000000 
#    z 0.000000 0.000000 1.637110 
# 
# From -- ./inp_files/52160.got.cif
#   From: 2010.05.17/outbox.cif.g08.bks.cpg/sg74_27_cif.got.tgz:52160.got - 2010.06.03 17:57:02.
