data_PCOD9538624
_publ_section_title
;
Structure prediction by ZEFSAII (Michael W. Deem and Ramdas Pophale) SiO2 
 PCOD9538624
Probable space group: I M M A
;
_chemical_formula_sum "Si O2"
_cell_formula_units_Z 64
_cell_length_a 8.942264
_cell_length_b 13.546750
_cell_length_c 23.740257
_cell_angle_alpha 90.000000
_cell_angle_beta 90.000000
_cell_angle_gamma 90.000000
_cell_volume 2875.861849
_symmetry_space_group_name_H-M "I M M A"
_symmetry_group_IT_number 74
_symmetry_cell_setting 'orthorhombic'
loop_
_space_group_symop_operation_xyz
x,y,z
-x,1/2-y,z
x,-y,-z
-x,1/2+y,-z
-x,-y,-z
x,1/2+y,-z
-x,y,z
x,1/2-y,z
1/2+x,1/2+y,1/2+z
1/2-x,-y,1/2+z
1/2+x,1/2-y,1/2-z
1/2-x,y,1/2-z
1/2-x,1/2-y,1/2-z
1/2+x,y,1/2-z
1/2-x,1/2+y,1/2+z
1/2+x,-y,1/2+z
loop_
_atom_site_type_symbol
_atom_site_label
_atom_site_fract_x
_atom_site_fract_y
_atom_site_fract_z
Si Si1 0.250000 0.441724 0.250000
Si Si2 0.000000 0.089847 0.454384
Si Si3 0.332417 0.084175 0.452874
Si Si4 0.000000 0.362300 0.330783
Si Si5 0.826652 0.250000 0.688288
Si Si6 0.160983 0.433390 0.851041
O O1 0.358277 0.380534 0.209436
O O2 0.159775 0.513291 0.209020
O O3 0.830837 0.135626 0.461582
O O4 0.000000 0.069618 0.386503
O O5 0.000000 0.000000 0.500000
O O6 0.500000 0.133070 0.452378
O O7 0.339950 0.000000 0.500000
O O8 0.319046 0.020686 0.395673
O O9 0.000000 0.250000 0.351774
O O10 0.750000 0.250000 0.750000
O O11 0.780392 0.152996 0.653392
O O12 0.000000 0.250000 0.699011
O O13 0.000000 0.386245 0.862925
#
# Coordination Sequence:
#
# PCOD9538624 Si02
#       6
#     8   8  16   8   8  16
#     4  12  23  39  64  94 126 176 220 267 343 408
#     4  10  20  38  70  94 126 172 227 279 342 412
#     4   9  19  36  63  92 121 166 225 276 323 397
#     4  12  26  44  66  99 140 175 230 295 345 406
#     4  12  26  36  56  92 136 166 208 267 322 397
#     4  11  22  38  62  90 125 169 216 266 330 399
#
# _framework density 22.254199
#
# number of rings (size 3 to 8) (size 9 to 14) (size 15 to 20)
#    0.000    1.250    5.000    1.500    3.500    0.000 
#    0.000    0.000   11.000    0.000    0.000    0.000 
#    0.000    0.000    0.000    0.000    0.000    0.000 
#
# Total GULP energy -178191.687826 kJ/mol
# GULP energy per Si atom -5568.490245 kJ/mol
# Density = 2.220355 g / cm^3
# Si number density = 22.254199 Si / 1000 Ang^3
#
#
#
# Elastic Constant Matrix: (Units=GPa)
#
#
# Indices 1 2 3 4 5 6 
#
# 1 238.0012 30.5268 3.6331 0.0000 0.0000 0.0000
# 2 30.5268 72.3072 13.9594 0.0000 0.0000 0.0000
# 3 3.6331 13.9594 104.6370 0.0000 0.0000 0.0000
# 4 0.0000 0.0000 0.0000 -12.9651 0.0000 0.0000
# 5 0.0000 0.0000 0.0000 0.0000 112.3203 0.0000
# 6 0.0000 0.0000 0.0000 0.0000 0.0000 23.1751
#
#
#
# Elastic Compliance Matrix: (Units=1/GPa)
#
#
# Indices 1 2 3 4 5 6 
#
# 1 0.004443 -0.001895 0.000099 0.000000 0.000000 0.000000
# 2 -0.001895 0.015004 -0.001936 0.000000 0.000000 0.000000
# 3 0.000099 -0.001936 0.009812 0.000000 0.000000 0.000000
# 4 0.000000 0.000000 0.000000 -0.077130 0.000000 0.000000
# 5 0.000000 0.000000 0.000000 0.000000 0.008903 0.000000
# 6 0.000000 0.000000 0.000000 0.000000 0.000000 0.043150
#
#
# Mechanical properties :
#
#
# Convention : Reuss Voigt Hill
#
# Bulk Modulus (GPa) = 45.88384 56.79821 51.34103
# Shear Modulus (GPa) = 264.40442 48.96112 156.68277
#
# Velocity S-wave (km/s) = 10.91187 4.69559 8.39993
# Velocity P-wave (km/s) = 13.39483 7.41458 10.82584
#
# Compressibility (1/GPa) = 0.02179417
#
# Stress axis : x y z
#
# Youngs Moduli (GPa) = 225.06327 66.65083 101.91932
#
# Poissons Ratio (x) = 0.12629 -0.01004
# Poissons Ratio (y) = 0.42646 0.19730
# Poissons Ratio (z) = -0.02217 0.12902
#
# Static dielectric constant tensor:
#      x y z
#    x 1.885900 0.000000 0.000000 
#    y 0.000000 1.789580 0.000000 
#    z 0.000000 0.000000 0.607790 
# 
# From -- ./inp_files/56496.got.cif
#   From: 2010.05.17/outbox.cif.g08.bks.cpg/sg74_29_cif.got.tgz:56496.got - 2010.06.03 17:57:02.
