data_PCOD9538457
_publ_section_title
;
Structure prediction by ZEFSAII (Michael W. Deem and Ramdas Pophale) SiO2 
 PCOD9538457
Probable space group: I M M A
;
_chemical_formula_sum "Si O2"
_cell_formula_units_Z 112
_cell_length_a 13.837518
_cell_length_b 24.401090
_cell_length_c 13.583646
_cell_angle_alpha 90.000000
_cell_angle_beta 90.000000
_cell_angle_gamma 90.000000
_cell_volume 4586.525164
_symmetry_space_group_name_H-M "I M M A"
_symmetry_group_IT_number 74
_symmetry_cell_setting 'orthorhombic'
loop_
_space_group_symop_operation_xyz
x,y,z
-x,1/2-y,z
x,-y,-z
-x,1/2+y,-z
-x,-y,-z
x,1/2+y,-z
-x,y,z
x,1/2-y,z
1/2+x,1/2+y,1/2+z
1/2-x,-y,1/2+z
1/2+x,1/2-y,1/2-z
1/2-x,y,1/2-z
1/2-x,1/2-y,1/2-z
1/2+x,y,1/2-z
1/2-x,1/2+y,1/2+z
1/2+x,-y,1/2+z
loop_
_atom_site_type_symbol
_atom_site_label
_atom_site_fract_x
_atom_site_fract_y
_atom_site_fract_z
Si Si1 0.288993 0.417700 0.512002
Si Si2 0.114693 0.160435 0.704558
Si Si3 0.884925 0.543400 0.211923
Si Si4 0.615749 0.148790 0.008041
Si Si5 0.884675 0.926879 0.811528
Si Si6 0.116520 0.310530 0.277650
Si Si7 0.116218 0.810049 0.079407
O O1 0.323185 0.443903 0.614122
O O2 0.176076 0.407668 0.493268
O O3 0.338835 0.441456 0.416142
O O4 0.333863 0.356694 0.518124
O O5 0.131930 0.095042 0.716584
O O6 0.144066 0.177559 0.595347
O O7 0.150767 0.185694 0.806602
O O8 0.000000 0.170556 0.707267
O O9 0.865648 0.482198 0.251720
O O10 0.000000 0.546186 0.186285
O O11 0.500000 0.139579 0.006998
O O12 0.638984 0.181861 0.106565
O O13 0.851597 0.867300 0.773991
O O14 0.000000 0.922944 0.821829
O O15 0.147350 0.250000 0.242015
O O16 0.000000 0.310721 0.269544
O O17 0.134002 0.750000 0.040069
O O18 0.000000 0.819488 0.079126
#
# Coordination Sequence:
#
# PCOD9538457 Si02
#       7
#    16  16  16  16  16  16  16
#     4  11  21  34  56  86 115 150 194 236 289 356
#     4   8  16  34  57  79 109 151 190 229 286 346
#     4   9  18  35  60  90 120 146 181 235 297 366
#     4  10  22  40  58  78 111 156 201 242 285 334
#     4  10  20  37  62  88 114 147 186 236 304 365
#     4   9  20  40  63  86 115 154 204 256 297 344
#     4   9  18  32  52  84 120 145 176 232 298 361
#
# _framework density 24.419357999999999
#
# number of rings (size 3 to 8) (size 9 to 14) (size 15 to 20)
#    0.000    2.571    0.000    2.571    0.000    5.714 
#    0.000   10.714    0.000    9.429    0.000    0.000 
#    0.000    0.000    0.000    0.000    0.000    0.000 
#
# Total GULP energy -312750.815815 kJ/mol
# GULP energy per Si atom -5584.835997 kJ/mol
# Density = 2.436378 g / cm^3
# Si number density = 24.419358 Si / 1000 Ang^3
#
#
#
# Elastic Constant Matrix: (Units=GPa)
#
#
# Indices 1 2 3 4 5 6 
#
# 1 100.8539 13.2623 0.1036 0.0001 0.0000 0.0000
# 2 13.2623 109.6022 -9.0869 -0.0005 0.0000 0.0000
# 3 0.1036 -9.0869 33.3126 -0.0004 0.0000 0.0000
# 4 0.0001 -0.0005 -0.0004 3.4370 0.0000 0.0000
# 5 0.0000 0.0000 0.0000 0.0000 23.1488 0.0000
# 6 0.0000 0.0000 0.0000 0.0000 0.0000 0.3873
#
#
#
# Elastic Compliance Matrix: (Units=1/GPa)
#
#
# Indices 1 2 3 4 5 6 
#
# 1 0.010080 -0.001251 -0.000372 -0.000001 0.000000 0.000000
# 2 -0.001251 0.009490 0.002593 0.000002 0.000000 0.000000
# 3 -0.000372 0.002593 0.030727 0.000004 0.000000 0.000000
# 4 -0.000001 0.000002 0.000004 0.290954 0.000000 0.000002
# 5 0.000000 0.000000 0.000000 0.000000 0.043199 0.000000
# 6 0.000000 0.000000 0.000000 0.000002 0.000000 2.582213
#
#
# Mechanical properties :
#
#
# Convention : Reuss Voigt Hill
#
# Bulk Modulus (GPa) = 19.14379 28.03632 23.59005
# Shear Modulus (GPa) = 1.67665 21.36059 11.51862
#
# Velocity S-wave (km/s) = 0.82952 2.96081 2.17422
# Velocity P-wave (km/s) = 2.96211 4.81608 3.99804
#
# Compressibility (1/GPa) = 0.05223626
#
# Stress axis : x y z
#
# Youngs Moduli (GPa) = 99.20466 105.37212 32.54469
#
# Poissons Ratio (x) = 0.13178 0.01212
# Poissons Ratio (y) = 0.12407 -0.08437
# Poissons Ratio (z) = 0.03695 -0.27319
#
# Static dielectric constant tensor:
#      x y z
#    x 2.005180 0.000000 0.000000 
#    y 0.000000 1.980850 0.000000 
#    z 0.000000 0.000000 1.907220 
# 
# From -- ./inp_files/32736.got.cif
#   From: 2010.05.17/outbox.cif.g08.bks.cpg/sg74_17_cif.got.tgz:32736.got - 2010.06.03 17:57:02.
