data_PCOD9538541
_publ_section_title
;
Structure prediction by ZEFSAII (Michael W. Deem and Ramdas Pophale) SiO2 
 PCOD9538541
Probable space group: I M M A
;
_chemical_formula_sum "Si O2"
_cell_formula_units_Z 104
_cell_length_a 8.046970
_cell_length_b 26.576264
_cell_length_c 22.244000
_cell_angle_alpha 90.000000
_cell_angle_beta 90.000000
_cell_angle_gamma 90.000000
_cell_volume 4757.066230
_symmetry_space_group_name_H-M "I M M A"
_symmetry_group_IT_number 74
_symmetry_cell_setting 'orthorhombic'
loop_
_space_group_symop_operation_xyz
x,y,z
-x,1/2-y,z
x,-y,-z
-x,1/2+y,-z
-x,-y,-z
x,1/2+y,-z
-x,y,z
x,1/2-y,z
1/2+x,1/2+y,1/2+z
1/2-x,-y,1/2+z
1/2+x,1/2-y,1/2-z
1/2-x,y,1/2-z
1/2-x,1/2-y,1/2-z
1/2+x,y,1/2-z
1/2-x,1/2+y,1/2+z
1/2+x,-y,1/2+z
loop_
_atom_site_type_symbol
_atom_site_label
_atom_site_fract_x
_atom_site_fract_y
_atom_site_fract_z
Si Si1 0.799172 0.192616 0.096257
Si Si2 0.807275 0.549021 0.312957
Si Si3 0.190445 0.470044 0.092004
Si Si4 0.702943 0.391991 0.500501
Si Si5 0.693136 0.887459 0.818070
Si Si6 0.304489 0.855027 0.371748
Si Si7 0.298258 0.750000 0.319598
O O1 0.748812 0.250000 0.085853
O O2 0.752870 0.155070 0.042102
O O3 0.721218 0.168168 0.155607
O O4 0.000000 0.191312 0.101508
O O5 0.750000 0.524393 0.250000
O O6 0.774974 0.514658 0.371270
O O7 0.715502 0.601909 0.322092
O O8 0.000000 0.559217 0.308178
O O9 0.259549 0.443865 0.031398
O O10 0.199520 0.423929 0.139506
O O11 0.000000 0.485632 0.081249
O O12 0.500000 0.395611 0.501078
O O13 0.765062 0.378655 0.566647
O O14 0.500000 0.902042 0.823972
O O15 0.750000 0.890998 0.750000
O O16 0.500000 0.847169 0.382890
O O17 0.236399 0.801204 0.351192
O O18 0.500000 0.750000 0.322365
O O19 0.250000 0.750000 0.250000
#
# Coordination Sequence:
#
# PCOD9538541 Si02
#       7
#    16  16  16  16  16  16   8
#     4   9  18  33  54  79 108 146 192 244 293 347
#     4  12  25  41  61  88 119 157 199 246 296 354
#     4  10  20  38  61  87 117 153 192 239 292 351
#     4   8  17  34  59  88 117 150 194 240 289 346
#     4  11  21  34  52  76 109 148 192 241 294 355
#     4  10  21  39  62  92 122 157 198 245 296 352
#     4  10  22  38  62  90 122 158 199 246 297 348
#
# _framework density 21.862214999999999
#
# number of rings (size 3 to 8) (size 9 to 14) (size 15 to 20)
#    0.000    2.000    0.000    5.077    1.077    3.077 
#    0.000    6.923    0.000    0.000    0.000    0.000 
#    0.000    0.000    0.000    0.000    0.000    0.000 
#
# Total GULP energy -290464.279007 kJ/mol
# GULP energy per Si atom -5585.851519 kJ/mol
# Density = 2.181246 g / cm^3
# Si number density = 21.862215 Si / 1000 Ang^3
#
#
#
# Elastic Constant Matrix: (Units=GPa)
#
#
# Indices 1 2 3 4 5 6 
#
# 1 27.0263 -1.9075 1.3527 0.0000 0.0000 0.0000
# 2 -1.9075 136.1889 48.2448 0.0000 0.0000 0.0000
# 3 1.3527 48.2448 126.8078 0.0002 0.0000 0.0000
# 4 0.0000 0.0000 0.0002 -212.1780 0.0000 0.0000
# 5 0.0000 0.0000 0.0000 0.0000 16.8763 0.0000
# 6 0.0000 0.0000 0.0000 0.0000 0.0000 -20.9683
#
#
#
# Elastic Compliance Matrix: (Units=1/GPa)
#
#
# Indices 1 2 3 4 5 6 
#
# 1 0.037089 0.000762 -0.000686 0.000000 0.000000 0.000000
# 2 0.000762 0.008502 -0.003243 0.000000 0.000000 0.000000
# 3 -0.000686 -0.003243 0.009127 0.000000 0.000000 0.000000
# 4 0.000000 0.000000 0.000000 -0.004713 0.000000 0.000000
# 5 0.000000 0.000000 0.000000 0.000000 0.059255 0.000000
# 6 0.000000 0.000000 0.000000 0.000000 0.000000 -0.047691
#
#
# Mechanical properties :
#
#
# Convention : Reuss Voigt Hill
#
# Bulk Modulus (GPa) = 20.66713 42.82254 31.74483
# Shear Modulus (GPa) = 59.50265 -27.09847 16.20209
#
# Velocity S-wave (km/s) = 5.22266 -3.52449 2.72527
# Velocity P-wave (km/s) = 6.77068 1.75137 4.94517
#
# Compressibility (1/GPa) = 0.04838601
#
# Stress axis : x y z
#
# Youngs Moduli (GPa) = 26.96212 117.61670 109.56476
#
# Poissons Ratio (x) = -0.08967 0.07513
# Poissons Ratio (y) = -0.02056 0.35530
# Poissons Ratio (z) = 0.01849 0.38141
#
# Static dielectric constant tensor:
#      x y z
#    x 1.768230 0.000000 0.000000 
#    y 0.000000 1.806800 0.000000 
#    z 0.000000 0.000000 1.761950 
# 
# From -- ./inp_files/49337.got.cif
#   From: 2010.05.17/outbox.cif.g08.bks.cpg/sg74_25_cif.got.tgz:49337.got - 2010.06.03 17:57:02.
