data_PCOD9538826
_publ_section_title
;
Structure prediction by ZEFSAII (Michael W. Deem and Ramdas Pophale) SiO2 
 PCOD9538826
Probable space group: I M M A
;
_chemical_formula_sum "Si O2"
_cell_formula_units_Z 104
_cell_length_a 28.572621
_cell_length_b 21.965437
_cell_length_c 9.365487
_cell_angle_alpha 90.000000
_cell_angle_beta 90.000000
_cell_angle_gamma 90.000000
_cell_volume 5877.874293
_symmetry_space_group_name_H-M "I M M A"
_symmetry_group_IT_number 74
_symmetry_cell_setting 'orthorhombic'
loop_
_space_group_symop_operation_xyz
x,y,z
-x,1/2-y,z
x,-y,-z
-x,1/2+y,-z
-x,-y,-z
x,1/2+y,-z
-x,y,z
x,1/2-y,z
1/2+x,1/2+y,1/2+z
1/2-x,-y,1/2+z
1/2+x,1/2-y,1/2-z
1/2-x,y,1/2-z
1/2-x,1/2-y,1/2-z
1/2+x,y,1/2-z
1/2-x,1/2+y,1/2+z
1/2+x,-y,1/2+z
loop_
_atom_site_type_symbol
_atom_site_label
_atom_site_fract_x
_atom_site_fract_y
_atom_site_fract_z
Si Si1 0.774749 0.422909 0.897543
Si Si2 0.445285 0.820629 0.894478
Si Si3 0.682141 0.431615 0.042259
Si Si4 0.139197 0.000000 0.000000
Si Si5 0.133835 0.820444 0.377207
Si Si6 0.879957 0.602642 0.806273
Si Si7 0.838453 0.820055 0.062573
O O1 0.750000 0.439820 0.750000
O O2 0.789686 0.352847 0.901528
O O3 0.738194 0.433917 0.025060
O O4 0.823844 0.457565 0.915097
O O5 0.500000 0.832931 0.914393
O O6 0.440215 0.750000 0.846023
O O7 0.421198 0.866309 0.782814
O O8 0.415275 0.825768 0.039801
O O9 0.661432 0.414318 0.195543
O O10 0.665292 0.500000 0.000000
O O11 0.664994 0.376227 0.938960
O O12 0.109562 0.041103 0.106918
O O13 0.150962 0.750000 0.404794
O O14 0.131135 0.826957 0.206959
O O15 0.861271 0.649003 0.925191
O O16 0.831353 0.750000 0.033576
#
# Coordination Sequence:
#
# PCOD9538826 Si02
#       7
#    16  16  16   8  16  16  16
#     4  11  20  32  51  76 108 148 201 242 272 322
#     4   9  18  37  65  89 108 138 187 239 290 356
#     4  11  21  35  57  82 110 152 200 245 278 328
#     4  10  22  32  49  76 112 154 189 234 284 332
#     4   9  19  36  57  83 112 147 186 234 294 350
#     4  10  22  36  55  81 116 150 185 240 293 343
#     4  10  21  35  52  78 115 152 186 230 289 349
#
# _framework density 17.693472
#
# number of rings (size 3 to 8) (size 9 to 14) (size 15 to 20)
#    0.000    2.000    2.308    1.385    2.154    3.385 
#    0.000    1.923    0.000   10.154    0.000    0.000 
#    0.000    0.000    0.000    0.000    0.000    0.000 
#
# Total GULP energy -289778.460669 kJ/mol
# GULP energy per Si atom -5572.662705 kJ/mol
# Density = 1.765320 g / cm^3
# Si number density = 17.693472 Si / 1000 Ang^3
#
#
#
# Elastic Constant Matrix: (Units=GPa)
#
#
# Indices 1 2 3 4 5 6 
#
# 1 70.1026 39.3645 22.2434 0.0000 0.0000 0.0000
# 2 39.3645 126.5722 56.8158 0.0000 0.0000 0.0000
# 3 22.2434 56.8158 91.2795 0.0000 0.0000 0.0000
# 4 0.0000 0.0000 0.0000 35.5256 0.0000 0.0000
# 5 0.0000 0.0000 0.0000 0.0000 11.7281 0.0000
# 6 0.0000 0.0000 0.0000 0.0000 0.0000 22.0599
#
#
#
# Elastic Compliance Matrix: (Units=1/GPa)
#
#
# Indices 1 2 3 4 5 6 
#
# 1 0.017379 -0.004862 -0.001208 0.000000 0.000000 0.000000
# 2 -0.004862 0.012324 -0.006486 0.000000 0.000000 0.000000
# 3 -0.001208 -0.006486 0.015287 0.000000 0.000000 0.000000
# 4 0.000000 0.000000 0.000000 0.028149 0.000000 0.000000
# 5 0.000000 0.000000 0.000000 0.000000 0.085265 0.000000
# 6 0.000000 0.000000 0.000000 0.000000 0.000000 0.045331
#
#
# Mechanical properties :
#
#
# Convention : Reuss Voigt Hill
#
# Bulk Modulus (GPa) = 50.31183 58.31131 54.31157
# Shear Modulus (GPa) = 21.23371 25.16476 23.19924
#
# Velocity S-wave (km/s) = 3.46799 3.77538 3.62494
# Velocity P-wave (km/s) = 6.67330 7.21336 6.94858
#
# Compressibility (1/GPa) = 0.01987604
#
# Stress axis : x y z
#
# Youngs Moduli (GPa) = 57.54214 81.13970 65.41450
#
# Poissons Ratio (x) = 0.39453 0.07904
# Poissons Ratio (y) = 0.27979 0.42430
# Poissons Ratio (z) = 0.06953 0.52630
#
# Static dielectric constant tensor:
#      x y z
#    x 1.569610 0.000000 0.000000 
#    y 0.000000 1.670040 0.000000 
#    z 0.000000 0.000000 1.626710 
# 
# From -- ./inp_files/16198.got.cif
#   From: 2010.05.17/outbox.cif.g08.bks.cpg/sg74_9_cif.got.tgz:16198.got - 2010.06.03 17:57:02.
