data_PCOD9538880
_publ_section_title
;
Structure prediction by ZEFSAII (Michael W. Deem and Ramdas Pophale) SiO2 
 PCOD9538880
Probable space group: I M M A
;
_chemical_formula_sum "Si O2"
_cell_formula_units_Z 72
_cell_length_a 16.233250
_cell_length_b 25.456726
_cell_length_c 8.886268
_cell_angle_alpha 90.000000
_cell_angle_beta 90.000000
_cell_angle_gamma 90.000000
_cell_volume 3672.209351
_symmetry_space_group_name_H-M "I M M A"
_symmetry_group_IT_number 74
_symmetry_cell_setting 'orthorhombic'
loop_
_space_group_symop_operation_xyz
x,y,z
-x,1/2-y,z
x,-y,-z
-x,1/2+y,-z
-x,-y,-z
x,1/2+y,-z
-x,y,z
x,1/2-y,z
1/2+x,1/2+y,1/2+z
1/2-x,-y,1/2+z
1/2+x,1/2-y,1/2-z
1/2-x,y,1/2-z
1/2-x,1/2-y,1/2-z
1/2+x,y,1/2-z
1/2-x,1/2+y,1/2+z
1/2+x,-y,1/2+z
loop_
_atom_site_type_symbol
_atom_site_label
_atom_site_fract_x
_atom_site_fract_y
_atom_site_fract_z
Si Si1 0.830484 0.156649 0.946941
Si Si2 0.500000 0.813190 0.913788
Si Si3 0.319477 0.546484 0.622978
Si Si4 0.500000 0.046822 0.382271
Si Si5 0.653772 0.189124 0.882476
Si Si6 0.500000 0.662895 0.569851
O O1 0.743312 0.186102 0.958964
O O2 0.845423 0.153950 0.767400
O O3 0.817883 0.101500 0.031910
O O4 0.912782 0.184099 0.012036
O O5 0.500000 0.750000 0.895954
O O6 0.500000 0.836879 0.749147
O O7 0.581402 0.827307 0.006439
O O8 0.310676 0.500000 0.500000
O O9 0.250000 0.544273 0.750000
O O10 0.411307 0.543777 0.696673
O O11 0.500000 0.101470 0.474737
O O12 0.500000 0.000000 0.500000
O O13 0.639468 0.250000 0.836591
#
# Coordination Sequence:
#
# PCOD9538880 Si02
#       6
#    16   8  16   8  16   8
#     4  10  21  37  62  84 115 160 201 239 295 356
#     4  10  23  38  57  88 123 154 195 253 302 353
#     4  10  22  38  61  88 120 156 198 246 296 354
#     4   8  18  39  57  78 116 156 189 227 286 351
#     4  10  22  40  60  84 118 159 204 244 292 364
#     4  10  21  35  59  88 116 154 196 248 300 350
#
# _framework density 19.606725000000001
#
# number of rings (size 3 to 8) (size 9 to 14) (size 15 to 20)
#    0.000    2.222    0.000    2.000    9.333    1.778 
#    0.000    2.778    0.000    0.000    0.000    0.000 
#    0.000    0.000    0.000    0.000    0.000    0.000 
#
# Total GULP energy -200629.455364 kJ/mol
# GULP energy per Si atom -5573.040427 kJ/mol
# Density = 1.956210 g / cm^3
# Si number density = 19.606725 Si / 1000 Ang^3
#
#
#
# Elastic Constant Matrix: (Units=GPa)
#
#
# Indices 1 2 3 4 5 6 
#
# 1 209.1399 18.3733 90.1264 0.0000 0.0000 0.0000
# 2 18.3733 56.6693 33.3125 0.0000 0.0000 0.0000
# 3 90.1264 33.3125 98.6252 -0.0002 0.0000 0.0000
# 4 0.0000 0.0000 -0.0002 25.5579 -0.0001 0.0000
# 5 0.0000 0.0000 0.0000 -0.0001 36.2180 0.0000
# 6 0.0000 0.0000 0.0000 0.0000 0.0000 23.7704
#
#
#
# Elastic Compliance Matrix: (Units=1/GPa)
#
#
# Indices 1 2 3 4 5 6 
#
# 1 0.008092 0.002150 -0.008121 0.000000 0.000000 0.000000
# 2 0.002150 0.022589 -0.009595 0.000000 0.000000 0.000000
# 3 -0.008121 -0.009595 0.020802 0.000000 0.000000 0.000000
# 4 0.000000 0.000000 0.000000 0.039127 0.000000 0.000000
# 5 0.000000 0.000000 0.000000 0.000000 0.027611 0.000000
# 6 0.000000 0.000000 0.000000 0.000000 0.000000 0.042069
#
#
# Mechanical properties :
#
#
# Convention : Reuss Voigt Hill
#
# Bulk Modulus (GPa) = 49.13639 72.00654 60.57147
# Shear Modulus (GPa) = 25.22626 31.95073 28.58849
#
# Velocity S-wave (km/s) = 3.59083 4.04119 3.82265
# Velocity P-wave (km/s) = 6.50442 7.65376 7.10238
#
# Compressibility (1/GPa) = 0.02035151
#
# Stress axis : x y z
#
# Youngs Moduli (GPa) = 123.57297 44.26851 48.07272
#
# Poissons Ratio (x) = -0.09519 0.39042
# Poissons Ratio (y) = -0.26573 0.46126
# Poissons Ratio (z) = 1.00358 0.42476
#
# Static dielectric constant tensor:
#      x y z
#    x 1.747010 0.000000 0.000000 
#    y 0.000000 1.704630 0.000000 
#    z 0.000000 0.000000 1.649380 
# 
# From -- ./inp_files/9174.got.cif
#   From: 2010.05.17/outbox.cif.g08.bks.cpg/sg74_5_cif.got.tgz:9174.got - 2010.06.03 17:57:02.
