data_PCOD9538863
_publ_section_title
;
Structure prediction by ZEFSAII (Michael W. Deem and Ramdas Pophale) SiO2 
 PCOD9538863
Probable space group: I M M A
;
_chemical_formula_sum "Si O2"
_cell_formula_units_Z 112
_cell_length_a 14.019878
_cell_length_b 32.362553
_cell_length_c 11.809807
_cell_angle_alpha 90.000000
_cell_angle_beta 90.000000
_cell_angle_gamma 90.000000
_cell_volume 5358.334352
_symmetry_space_group_name_H-M "I M M A"
_symmetry_group_IT_number 74
_symmetry_cell_setting 'orthorhombic'
loop_
_space_group_symop_operation_xyz
x,y,z
-x,1/2-y,z
x,-y,-z
-x,1/2+y,-z
-x,-y,-z
x,1/2+y,-z
-x,y,z
x,1/2-y,z
1/2+x,1/2+y,1/2+z
1/2-x,-y,1/2+z
1/2+x,1/2-y,1/2-z
1/2-x,y,1/2-z
1/2-x,1/2-y,1/2-z
1/2+x,y,1/2-z
1/2-x,1/2+y,1/2+z
1/2+x,-y,1/2+z
loop_
_atom_site_type_symbol
_atom_site_label
_atom_site_fract_x
_atom_site_fract_y
_atom_site_fract_z
Si Si1 0.774691 0.201870 0.618734
Si Si2 0.608089 0.797876 0.557816
Si Si3 0.116053 0.439995 0.070209
Si Si4 0.884427 0.633775 0.768251
Si Si5 0.116184 0.539234 0.424469
Si Si6 0.385077 0.369422 0.009304
Si Si7 0.116138 0.029990 0.834223
O O1 0.807861 0.250000 0.603908
O O2 0.750000 0.195919 0.750000
O O3 0.678263 0.196932 0.546532
O O4 0.843912 0.166786 0.569521
O O5 0.500000 0.810289 0.526494
O O6 0.607742 0.750000 0.589394
O O7 0.638262 0.824964 0.663889
O O8 0.149281 0.404012 0.153285
O O9 0.141097 0.483881 0.125433
O O10 0.000000 0.438105 0.067866
O O11 0.146593 0.440342 0.938211
O O12 0.852571 0.635549 0.639201
O O13 0.000000 0.629950 0.762558
O O14 0.148346 0.500000 0.500000
O O15 0.141358 0.584033 0.473214
O O16 0.148278 0.536970 0.293977
O O17 0.000000 0.537144 0.424479
O O18 0.500000 0.366857 0.005121
O O19 0.000000 0.032105 0.831244
#
# Coordination Sequence:
#
# PCOD9538863 Si02
#       7
#    16  16  16  16  16  16  16
#     4  10  23  42  61  85 117 154 197 246 301 362
#     4   9  19  37  61  86 110 142 187 237 291 349
#     4   8  13  22  38  65 103 140 178 228 281 333
#     4   9  17  30  50  79 114 147 183 234 290 345
#     4   9  16  27  46  76 114 155 198 239 281 338
#     4  10  21  35  55  88 123 157 198 240 293 361
#     4   8  13  21  36  62  99 143 187 232 279 327
#
# _framework density 20.902018000000002
#
# number of rings (size 3 to 8) (size 9 to 14) (size 15 to 20)
#    0.000    3.000    0.000    1.714    0.000    6.571 
#    0.000    7.143    0.000    0.000   11.143    0.000 
#    0.000    0.000    0.000    0.000    0.000    0.000 
#
# Total GULP energy -312727.987389 kJ/mol
# GULP energy per Si atom -5584.428346 kJ/mol
# Density = 2.085444 g / cm^3
# Si number density = 20.902018 Si / 1000 Ang^3
#
#
#
# Elastic Constant Matrix: (Units=GPa)
#
#
# Indices 1 2 3 4 5 6 
#
# 1 80.5030 53.1289 37.5964 0.0000 0.0000 0.0000
# 2 53.1289 119.8010 105.9874 -0.0001 0.0000 0.0000
# 3 37.5964 105.9874 213.2803 -0.0007 -0.0002 -0.0001
# 4 0.0000 -0.0001 -0.0007 32.6858 0.0000 0.0000
# 5 0.0000 0.0000 -0.0002 0.0000 14.9746 0.0000
# 6 0.0000 0.0000 -0.0001 0.0000 0.0000 17.0727
#
#
#
# Elastic Compliance Matrix: (Units=1/GPa)
#
#
# Indices 1 2 3 4 5 6 
#
# 1 0.017793 -0.009130 0.001400 0.000000 0.000000 0.000000
# 2 -0.009130 0.019581 -0.008121 0.000000 0.000000 0.000000
# 3 0.001400 -0.008121 0.008477 0.000000 0.000000 0.000000
# 4 0.000000 0.000000 0.000000 0.030594 0.000000 0.000000
# 5 0.000000 0.000000 0.000000 0.000000 0.066780 0.000000
# 6 0.000000 0.000000 0.000000 0.000000 0.000000 0.058573
#
#
# Mechanical properties :
#
#
# Convention : Reuss Voigt Hill
#
# Bulk Modulus (GPa) = 70.66887 89.66775 80.16831
# Shear Modulus (GPa) = 20.98937 27.40473 24.19705
#
# Velocity S-wave (km/s) = 3.17232 3.62485 3.40610
# Velocity P-wave (km/s) = 6.87758 7.77892 7.34209
#
# Compressibility (1/GPa) = 0.01415050
#
# Stress axis : x y z
#
# Youngs Moduli (GPa) = 56.20119 51.07076 117.95987
#
# Poissons Ratio (x) = 0.46627 -0.16520
# Poissons Ratio (y) = 0.51311 0.95796
# Poissons Ratio (z) = -0.07871 0.41475
#
# Static dielectric constant tensor:
#      x y z
#    x 1.830140 0.000000 0.000000 
#    y 0.000000 1.716710 0.000000 
#    z 0.000000 0.000000 1.715850 
# 
# From -- ./inp_files/21112.got.cif
#   From: 2010.05.17/outbox.cif.g08.bks.cpg/sg74_11_cif.got.tgz:21112.got - 2010.06.03 17:57:02.
