data_PCOD9538744
_publ_section_title
;
Structure prediction by ZEFSAII (Michael W. Deem and Ramdas Pophale) SiO2 
 PCOD9538744
Probable space group: I M M A
;
_chemical_formula_sum "Si O2"
_cell_formula_units_Z 100
_cell_length_a 19.324906
_cell_length_b 7.770624
_cell_length_c 33.633898
_cell_angle_alpha 90.000000
_cell_angle_beta 90.000000
_cell_angle_gamma 90.000000
_cell_volume 5050.687380
_symmetry_space_group_name_H-M "I M M A"
_symmetry_group_IT_number 74
_symmetry_cell_setting 'orthorhombic'
loop_
_space_group_symop_operation_xyz
x,y,z
-x,1/2-y,z
x,-y,-z
-x,1/2+y,-z
-x,-y,-z
x,1/2+y,-z
-x,y,z
x,1/2-y,z
1/2+x,1/2+y,1/2+z
1/2-x,-y,1/2+z
1/2+x,1/2-y,1/2-z
1/2-x,y,1/2-z
1/2-x,1/2-y,1/2-z
1/2+x,y,1/2-z
1/2-x,1/2+y,1/2+z
1/2+x,-y,1/2+z
loop_
_atom_site_type_symbol
_atom_site_label
_atom_site_fract_x
_atom_site_fract_y
_atom_site_fract_z
Si Si1 0.805186 0.457264 0.873803
Si Si2 0.603910 0.950426 0.060319
Si Si3 0.421420 0.545180 0.314511
Si Si4 0.421595 0.045181 0.226946
Si Si5 0.259050 0.548074 0.542868
Si Si6 0.000000 0.250000 0.464580
Si Si7 0.651942 0.455407 0.854516
O O1 0.804307 0.250000 0.869580
O O2 0.867692 0.524355 0.846852
O O3 0.807527 0.498369 0.920370
O O4 0.729848 0.524126 0.859765
O O5 0.580102 0.750000 0.055635
O O6 0.605229 0.003468 0.107332
O O7 0.684572 0.956174 0.048043
O O8 0.559863 0.096007 0.038603
O O9 0.500000 0.474416 0.316804
O O10 0.426325 0.750000 0.320676
O O11 0.394810 0.518333 0.269530
O O12 0.500000 0.976246 0.222492
O O13 0.424729 0.250000 0.229370
O O14 0.378985 0.999745 0.187958
O O15 0.288067 0.500000 0.500000
O O16 0.245331 0.750000 0.544721
O O17 0.656216 0.250000 0.857413
#
# Coordination Sequence:
#
# PCOD9538744 Si02
#       7
#    16  16  16  16  16   4  16
#     4   9  19  36  57  83 109 140 181 228 283 343
#     4  10  22  38  56  82 114 152 197 247 293 340
#     4   9  18  35  57  79 108 144 183 224 279 347
#     4  10  21  32  47  71 105 146 189 236 282 330
#     4  11  21  38  63  86 111 144 182 231 279 339
#     4  12  22  36  58  82 114 158 202 236 304 342
#     4   9  19  33  50  74 106 145 189 239 286 329
#
# _framework density 19.799284
#
# number of rings (size 3 to 8) (size 9 to 14) (size 15 to 20)
#    0.000    2.240    0.800    3.120    2.240    2.880 
#    0.000    3.600    0.000    0.480    0.000    0.000 
#    0.000    0.000    0.000    0.000    0.000    0.000 
#
# Total GULP energy -278617.796766 kJ/mol
# GULP energy per Si atom -5572.355935 kJ/mol
# Density = 1.975422 g / cm^3
# Si number density = 19.799284 Si / 1000 Ang^3
#
#
#
# Elastic Constant Matrix: (Units=GPa)
#
#
# Indices 1 2 3 4 5 6 
#
# 1 50.1561 19.6464 63.8056 0.0000 0.0000 0.0000
# 2 19.6464 71.9320 6.3685 0.0000 0.0000 0.0000
# 3 63.8056 6.3685 161.0498 0.0000 0.0000 0.0000
# 4 0.0000 0.0000 0.0000 19.4660 0.0000 0.0000
# 5 0.0000 0.0000 0.0000 0.0000-2364.5093 0.0000
# 6 0.0000 0.0000 0.0000 0.0000 0.0000 18.9436
#
#
#
# Elastic Compliance Matrix: (Units=1/GPa)
#
#
# Indices 1 2 3 4 5 6 
#
# 1 0.048107 -0.011492 -0.018605 0.000000 0.000000 0.000000
# 2 -0.011492 0.016696 0.003893 0.000000 0.000000 0.000000
# 3 -0.018605 0.003893 0.013426 0.000000 0.000000 0.000000
# 4 0.000000 0.000000 0.000000 0.051372 0.000000 0.000000
# 5 0.000000 0.000000 0.000000 0.000000 -0.000423 0.000000
# 6 0.000000 0.000000 0.000000 0.000000 0.000000 0.052788
#
#
# Mechanical properties :
#
#
# Convention : Reuss Voigt Hill
#
# Bulk Modulus (GPa) = 38.72783 51.41989 45.07386
# Shear Modulus (GPa) = 20.57757 -452.33213 -215.87728
#
# Velocity S-wave (km/s) = 3.22733 -15.13125 -10.45321
# Velocity P-wave (km/s) = 5.78707 16.71066 11.08503
#
# Compressibility (1/GPa) = 0.02582123
#
# Stress axis : x y z
#
# Youngs Moduli (GPa) = 20.78680 59.89405 74.48028
#
# Poissons Ratio (x) = 0.68831 1.38571
# Poissons Ratio (y) = 0.23888 -0.28994
# Poissons Ratio (z) = 0.38674 -0.23315
#
# Static dielectric constant tensor:
#      x y z
#    x 1.651640 0.000000 0.000000 
#    y 0.000000 1.708550 0.000000 
#    z 0.000000 0.000000 1.745070 
# 
# From -- ./inp_files/68253.got.cif
#   From: 2010.05.17/outbox.cif.g08.bks.cpg/sg74_35_cif.got.tgz:68253.got - 2010.06.03 17:57:02.
