data_PCOD9538378
_publ_section_title
;
Structure prediction by ZEFSAII (Michael W. Deem and Ramdas Pophale) SiO2 
 PCOD9538378
Probable space group: I M M A
;
_chemical_formula_sum "Si O2"
_cell_formula_units_Z 112
_cell_length_a 14.402073
_cell_length_b 29.758182
_cell_length_c 14.744023
_cell_angle_alpha 90.000000
_cell_angle_beta 90.000000
_cell_angle_gamma 90.000000
_cell_volume 6318.986146
_symmetry_space_group_name_H-M "I M M A"
_symmetry_group_IT_number 74
_symmetry_cell_setting 'orthorhombic'
loop_
_space_group_symop_operation_xyz
x,y,z
-x,1/2-y,z
x,-y,-z
-x,1/2+y,-z
-x,-y,-z
x,1/2+y,-z
-x,y,z
x,1/2-y,z
1/2+x,1/2+y,1/2+z
1/2-x,-y,1/2+z
1/2+x,1/2-y,1/2-z
1/2-x,y,1/2-z
1/2-x,1/2-y,1/2-z
1/2+x,y,1/2-z
1/2-x,1/2+y,1/2+z
1/2+x,-y,1/2+z
loop_
_atom_site_type_symbol
_atom_site_label
_atom_site_fract_x
_atom_site_fract_y
_atom_site_fract_z
Si Si1 0.892748 0.858280 0.074676
Si Si2 0.696068 0.954069 0.955144
Si Si3 0.111068 0.886094 0.404611
Si Si4 0.611566 0.065038 0.715765
Si Si5 0.396394 0.926146 0.574358
Si Si6 0.768603 0.198237 0.642367
Si Si7 0.108566 0.534075 0.738466
O O1 0.858022 0.899843 0.138702
O O2 0.825871 0.817069 0.093016
O O3 0.000000 0.848686 0.098800
O O4 0.890386 0.877748 0.973175
O O5 0.807343 0.952358 0.961659
O O6 0.665500 0.954019 0.850541
O O7 0.654322 0.912261 0.010351
O O8 0.660500 0.000000 0.000000
O O9 0.134472 0.914451 0.313732
O O10 0.153947 0.836978 0.389792
O O11 0.000000 0.884543 0.412351
O O12 0.500000 0.063803 0.705791
O O13 0.641624 0.013174 0.716574
O O14 0.500000 0.944154 0.550220
O O15 0.388888 0.928945 0.682592
O O16 0.792197 0.250000 0.624956
O O17 0.750000 0.192969 0.750000
O O18 0.000000 0.527746 0.712044
#
# Coordination Sequence:
#
# PCOD9538378 Si02
#       7
#    16  16  16  16  16  16  16
#     4  10  20  37  58  80 110 150 190 234 289 342
#     4  12  23  35  56  83 113 155 198 233 278 335
#     4  11  22  38  57  81 115 155 191 233 284 335
#     4   9  18  32  52  76 113 154 190 232 275 326
#     4  10  23  38  53  76 111 151 192 239 283 329
#     4  11  23  38  59  86 115 148 189 236 288 348
#     4  10  21  36  53  81 115 151 197 240 276 326
#
# _framework density 17.724361999999999
#
# number of rings (size 3 to 8) (size 9 to 14) (size 15 to 20)
#    0.000    1.571    4.286    0.857    2.000    1.429 
#    2.571    1.429    0.000    0.000    0.000    2.000 
#    0.000    3.429    0.000    0.000    0.000    0.000 
#
# Total GULP energy -312642.547303 kJ/mol
# GULP energy per Si atom -5582.902630 kJ/mol
# Density = 1.768402 g / cm^3
# Si number density = 17.724362 Si / 1000 Ang^3
#
#
#
# Elastic Constant Matrix: (Units=GPa)
#
#
# Indices 1 2 3 4 5 6 
#
# 1 89.9500 30.4754 16.6539 0.0000 0.0000 0.0000
# 2 30.4754 94.9226 45.6289 -0.0002 0.0000 0.0000
# 3 16.6539 45.6289 64.0088 -0.0002 -0.0001 0.0000
# 4 0.0000 -0.0002 -0.0002 13.5593 0.0000 0.0000
# 5 0.0000 0.0000 -0.0001 0.0000 23.9955 0.0000
# 6 0.0000 0.0000 0.0000 0.0000 0.0000 21.3449
#
#
#
# Elastic Compliance Matrix: (Units=1/GPa)
#
#
# Indices 1 2 3 4 5 6 
#
# 1 0.012489 -0.003724 -0.000595 0.000000 0.000000 0.000000
# 2 -0.003724 0.017137 -0.011247 0.000000 0.000000 0.000000
# 3 -0.000595 -0.011247 0.023795 0.000000 0.000000 0.000000
# 4 0.000000 0.000000 0.000000 0.073750 0.000000 0.000000
# 5 0.000000 0.000000 0.000000 0.000000 0.041674 0.000000
# 6 0.000000 0.000000 0.000000 0.000000 0.000000 0.046850
#
#
# Mechanical properties :
#
#
# Convention : Reuss Voigt Hill
#
# Bulk Modulus (GPa) = 44.86438 48.26642 46.56540
# Shear Modulus (GPa) = 19.66515 22.18817 20.92666
#
# Velocity S-wave (km/s) = 3.33453 3.54198 3.43982
# Velocity P-wave (km/s) = 6.33977 6.63463 6.48887
#
# Compressibility (1/GPa) = 0.02228940
#
# Stress axis : x y z
#
# Youngs Moduli (GPa) = 80.07021 58.35355 42.02508
#
# Poissons Ratio (x) = 0.21729 0.02501
# Poissons Ratio (y) = 0.29815 0.47267
# Poissons Ratio (z) = 0.04764 0.65632
#
# Static dielectric constant tensor:
#      x y z
#    x 1.658790 0.000000 0.000000 
#    y 0.000000 1.575590 0.000000 
#    z 0.000000 0.000000 1.605970 
# 
# From -- ./inp_files/32945.got.cif
#   From: 2010.05.17/outbox.cif.g08.bks.cpg/sg74_17_cif.got.tgz:32945.got - 2010.06.03 17:57:02.
