data_PCOD9538227
_publ_section_title
;
Structure prediction by ZEFSAII (Michael W. Deem and Ramdas Pophale) SiO2 
 PCOD9538227
Probable space group: I M M A
;
_chemical_formula_sum "Si O2"
_cell_formula_units_Z 116
_cell_length_a 7.443470
_cell_length_b 23.904141
_cell_length_c 27.511168
_cell_angle_alpha 90.000000
_cell_angle_beta 90.000000
_cell_angle_gamma 90.000000
_cell_volume 4895.055421
_symmetry_space_group_name_H-M "I M M A"
_symmetry_group_IT_number 74
_symmetry_cell_setting 'orthorhombic'
loop_
_space_group_symop_operation_xyz
x,y,z
-x,1/2-y,z
x,-y,-z
-x,1/2+y,-z
-x,-y,-z
x,1/2+y,-z
-x,y,z
x,1/2-y,z
1/2+x,1/2+y,1/2+z
1/2-x,-y,1/2+z
1/2+x,1/2-y,1/2-z
1/2-x,y,1/2-z
1/2-x,1/2-y,1/2-z
1/2+x,y,1/2-z
1/2-x,1/2+y,1/2+z
1/2+x,-y,1/2+z
loop_
_atom_site_type_symbol
_atom_site_label
_atom_site_fract_x
_atom_site_fract_y
_atom_site_fract_z
Si Si1 0.500000 0.750000 0.686307
Si Si2 0.717443 0.689345 0.536628
Si Si3 0.716537 0.853329 0.805039
Si Si4 0.793923 0.659841 0.069255
Si Si5 0.790830 0.082705 0.398545
Si Si6 0.783148 0.464024 0.591389
Si Si7 0.213809 0.931148 0.301873
Si Si8 0.706553 0.310625 0.822628
O O1 0.341150 0.701036 0.687521
O O2 0.500000 0.688326 0.536364
O O3 0.772601 0.750000 0.556627
O O4 0.779869 0.683113 0.481120
O O5 0.775446 0.636787 0.567827
O O6 0.500000 0.658272 0.810524
O O7 0.750000 0.872840 0.750000
O O8 0.774505 0.898379 0.845608
O O9 0.788669 0.592301 0.067142
O O10 0.704546 0.679846 0.119004
O O11 0.000000 0.678205 0.073249
O O12 0.000000 0.070021 0.390899
O O13 0.719873 0.025906 0.423154
O O14 0.729476 0.460145 0.648426
O O15 0.000000 0.458842 0.586005
O O16 0.250000 0.958223 0.250000
O O17 0.290643 0.867729 0.302538
O O18 0.000000 0.926436 0.306642
O O19 0.500000 0.308724 0.806087
O O20 0.788210 0.250000 0.811677
#
# Coordination Sequence:
#
# PCOD9538227 Si02
#       8
#     4  16  16  16  16  16  16  16
#     4  12  24  40  66  90 124 168 206 254 312 354
#     4  10  23  40  59  84 120 154 182 225 292 355
#     4  11  24  40  62  94 123 162 211 251 304 372
#     4  10  20  36  58  87 113 145 192 239 282 337
#     4  10  24  42  60  86 117 149 195 244 290 349
#     4   9  20  41  61  79 111 152 190 239 289 342
#     4   9  18  32  52  78 107 143 185 228 281 336
#     4   9  18  33  53  77 110 152 190 227 277 343
#
# _framework density 23.697382999999999
#
# number of rings (size 3 to 8) (size 9 to 14) (size 15 to 20)
#    0.000    2.207    0.690    2.069    1.931    6.345 
#    0.000    2.759    0.000    0.000    0.000    0.000 
#    0.000    0.000    0.000    0.000    0.000    0.000 
#
# Total GULP energy -323352.040326 kJ/mol
# GULP energy per Si atom -5575.035178 kJ/mol
# Density = 2.364345 g / cm^3
# Si number density = 23.697383 Si / 1000 Ang^3
#
#
#
# Elastic Constant Matrix: (Units=GPa)
#
#
# Indices 1 2 3 4 5 6 
#
# 1 96.2489 -4.9752 -3.7487 0.0000 0.0000 0.0000
# 2 -4.9752 115.2250 16.9669 0.0000 0.0000 0.0000
# 3 -3.7487 16.9669 23.1208 0.0000 0.0000 0.0000
# 4 0.0000 0.0000 0.0000 -16.0095 0.0000 0.0000
# 5 0.0000 0.0000 0.0000 0.0000 19.4285 0.0000
# 6 0.0000 0.0000 0.0000 0.0000 0.0000 22.3054
#
#
#
# Elastic Compliance Matrix: (Units=1/GPa)
#
#
# Indices 1 2 3 4 5 6 
#
# 1 0.010461 0.000226 0.001530 0.000000 0.000000 0.000000
# 2 0.000226 0.009735 -0.007107 0.000000 0.000000 0.000000
# 3 0.001530 -0.007107 0.048715 0.000000 0.000000 0.000000
# 4 0.000000 0.000000 0.000000 -0.062463 0.000000 0.000000
# 5 0.000000 0.000000 0.000000 0.000000 0.051471 0.000000
# 6 0.000000 0.000000 0.000000 0.000000 0.000000 0.044832
#
#
# Mechanical properties :
#
#
# Convention : Reuss Voigt Hill
#
# Bulk Modulus (GPa) = 17.17944 27.89784 22.53864
# Shear Modulus (GPa) = 37.63488 20.23499 28.93494
#
# Velocity S-wave (km/s) = 3.98948 2.92531 3.49810
# Velocity P-wave (km/s) = 5.33727 4.81747 5.08402
#
# Compressibility (1/GPa) = 0.05820910
#
# Stress axis : x y z
#
# Youngs Moduli (GPa) = 95.59294 102.72234 20.52766
#
# Poissons Ratio (x) = -0.02326 -0.03141
# Poissons Ratio (y) = -0.02164 0.14589
# Poissons Ratio (z) = -0.14625 0.73007
#
# Static dielectric constant tensor:
#      x y z
#    x 1.990690 0.000000 0.000000 
#    y 0.000000 1.925610 0.000000 
#    z 0.000000 0.000000 1.896140 
# 
# From -- ./inp_files/64862.got.cif
#   From: 2010.05.17/outbox.cif.g08.bks.cpg/sg74_33_cif.got.tgz:64862.got - 2010.06.03 17:57:02.
