data_PCOD9538986
_publ_section_title
;
Structure prediction by ZEFSAII (Michael W. Deem and Ramdas Pophale) SiO2 
 PCOD9538986
Probable space group: I M M A
;
_chemical_formula_sum "Si O2"
_cell_formula_units_Z 72
_cell_length_a 11.196274
_cell_length_b 26.492126
_cell_length_c 12.640322
_cell_angle_alpha 90.000000
_cell_angle_beta 90.000000
_cell_angle_gamma 90.000000
_cell_volume 3749.285113
_symmetry_space_group_name_H-M "I M M A"
_symmetry_group_IT_number 74
_symmetry_cell_setting 'orthorhombic'
loop_
_space_group_symop_operation_xyz
x,y,z
-x,1/2-y,z
x,-y,-z
-x,1/2+y,-z
-x,-y,-z
x,1/2+y,-z
-x,y,z
x,1/2-y,z
1/2+x,1/2+y,1/2+z
1/2-x,-y,1/2+z
1/2+x,1/2-y,1/2-z
1/2-x,y,1/2-z
1/2-x,1/2-y,1/2-z
1/2+x,y,1/2-z
1/2-x,1/2+y,1/2+z
1/2+x,-y,1/2+z
loop_
_atom_site_type_symbol
_atom_site_label
_atom_site_fract_x
_atom_site_fract_y
_atom_site_fract_z
Si Si1 0.281526 0.750000 0.872927
Si Si2 0.500000 0.921306 0.443439
Si Si3 0.228647 0.359672 0.870067
Si Si4 0.640467 0.250000 0.578769
Si Si5 0.750000 0.070682 0.250000
Si Si6 0.000000 0.971735 0.828554
Si Si7 0.634651 0.361295 0.075836
O O1 0.250000 0.750000 0.750000
O O2 0.349499 0.801883 0.899214
O O3 0.168708 0.750000 0.952894
O O4 0.615373 0.888587 0.416689
O O5 0.500000 0.937455 0.565618
O O6 0.500000 0.971190 0.371074
O O7 0.250000 0.375367 0.750000
O O8 0.198974 0.300212 0.874390
O O9 0.335108 0.369176 0.952671
O O10 0.500000 0.250000 0.598249
O O11 0.626413 0.039965 0.269997
O O12 0.723364 0.106732 0.149597
O O13 0.500000 0.376597 0.100562
#
# Coordination Sequence:
#
# PCOD9538986 Si02
#       7
#     8   8  16   8   8   8  16
#     4  10  21  36  56  93 131 168 212 258 309 388
#     4  11  24  45  69  91 128 168 222 264 323 388
#     4  11  24  42  65  95 127 170 216 263 316 385
#     4  10  21  38  62  92 126 166 214 257 320 383
#     4  12  22  43  68  92 134 165 216 262 338 382
#     4  11  26  44  67  99 130 171 214 281 327 385
#     4  11  23  39  62  96 131 171 209 262 322 384
#
# _framework density 19.203661
#
# number of rings (size 3 to 8) (size 9 to 14) (size 15 to 20)
#    0.000    1.111    5.556    0.667    3.111    0.889 
#    0.000    0.000    0.000    4.000    0.000    0.000 
#    0.000    0.000    0.000    0.000    0.000    0.000 
#
# Total GULP energy -201012.280331 kJ/mol
# GULP energy per Si atom -5583.674454 kJ/mol
# Density = 1.915995 g / cm^3
# Si number density = 19.203661 Si / 1000 Ang^3
#
#
#
# Elastic Constant Matrix: (Units=GPa)
#
#
# Indices 1 2 3 4 5 6 
#
# 1 93.9514 17.4892 10.4074 0.0000 0.0000 0.0000
# 2 17.4892 62.0864 5.2048 -0.0002 -0.0001 0.0000
# 3 10.4074 5.2048 101.0311 0.0000 -0.0001 0.0001
# 4 0.0000 -0.0002 0.0000 11.4553 -0.0001 0.0000
# 5 0.0000 -0.0001 -0.0001 -0.0001 25.8665 0.0000
# 6 0.0000 0.0000 0.0001 0.0000 0.0000 30.4987
#
#
#
# Elastic Compliance Matrix: (Units=1/GPa)
#
#
# Indices 1 2 3 4 5 6 
#
# 1 0.011334 -0.003108 -0.001007 0.000000 0.000000 0.000000
# 2 -0.003108 0.017029 -0.000557 0.000000 0.000000 0.000000
# 3 -0.001007 -0.000557 0.010030 0.000000 0.000000 0.000000
# 4 0.000000 0.000000 0.000000 0.087296 0.000000 0.000000
# 5 0.000000 0.000000 0.000000 0.000000 0.038660 0.000000
# 6 0.000000 0.000000 0.000000 0.000000 0.000000 0.032788
#
#
# Mechanical properties :
#
#
# Convention : Reuss Voigt Hill
#
# Bulk Modulus (GPa) = 34.42603 35.91909 35.17256
# Shear Modulus (GPa) = 23.13040 28.49526 25.81283
#
# Velocity S-wave (km/s) = 3.47432 3.85625 3.67026
# Velocity P-wave (km/s) = 5.83612 6.21067 6.02631
#
# Compressibility (1/GPa) = 0.02904779
#
# Stress axis : x y z
#
# Youngs Moduli (GPa) = 88.23011 58.72391 99.69678
#
# Poissons Ratio (x) = 0.18253 0.10044
# Poissons Ratio (y) = 0.27424 0.05554
# Poissons Ratio (z) = 0.08888 0.03271
#
# Static dielectric constant tensor:
#      x y z
#    x 1.657490 0.000000 0.000000 
#    y 0.000000 1.649860 0.000000 
#    z 0.000000 0.000000 1.660000 
# 
# From -- ./inp_files/18859.got.cif
#   From: 2010.05.17/outbox.cif.g08.bks.cpg/sg74_10_cif.got.tgz:18859.got - 2010.06.03 17:57:02.
