data_PCOD9538676
_publ_section_title
;
Structure prediction by ZEFSAII (Michael W. Deem and Ramdas Pophale) SiO2 
 PCOD9538676
Probable space group: I M M A
;
_chemical_formula_sum "Si O2"
_cell_formula_units_Z 104
_cell_length_a 20.240759
_cell_length_b 27.311351
_cell_length_c 9.429720
_cell_angle_alpha 90.000000
_cell_angle_beta 90.000000
_cell_angle_gamma 90.000000
_cell_volume 5212.772541
_symmetry_space_group_name_H-M "I M M A"
_symmetry_group_IT_number 74
_symmetry_cell_setting 'orthorhombic'
loop_
_space_group_symop_operation_xyz
x,y,z
-x,1/2-y,z
x,-y,-z
-x,1/2+y,-z
-x,-y,-z
x,1/2+y,-z
-x,y,z
x,1/2-y,z
1/2+x,1/2+y,1/2+z
1/2-x,-y,1/2+z
1/2+x,1/2-y,1/2-z
1/2-x,y,1/2-z
1/2-x,1/2-y,1/2-z
1/2+x,y,1/2-z
1/2-x,1/2+y,1/2+z
1/2+x,-y,1/2+z
loop_
_atom_site_type_symbol
_atom_site_label
_atom_site_fract_x
_atom_site_fract_y
_atom_site_fract_z
Si Si1 0.646917 0.338690 0.462898
Si Si2 0.577995 0.989399 0.167747
Si Si3 0.329509 0.900075 0.262525
Si Si4 0.608582 0.250000 0.074148
Si Si5 0.424537 0.098661 0.237959
Si Si6 0.927363 0.149020 0.559070
Si Si7 0.244547 0.250000 0.081444
Si Si8 0.573187 0.750000 0.603339
O O1 0.655807 0.378943 0.582224
O O2 0.627482 0.367556 0.319955
O O3 0.707715 0.300552 0.457750
O O4 0.588799 0.298784 0.483472
O O5 0.500000 0.975351 0.183024
O O6 0.628951 0.949099 0.225695
O O7 0.587460 0.040853 0.249444
O O8 0.588861 0.000000 0.000000
O O9 0.250000 0.905423 0.250000
O O10 0.364676 0.860788 0.157969
O O11 0.683088 0.250000 0.018454
O O12 0.611384 0.250000 0.245996
O O13 0.575243 0.201559 0.015365
O O14 0.500000 0.109492 0.287170
O O15 0.423080 0.111309 0.071670
O O16 0.000000 0.142995 0.628540
O O17 0.250000 0.250000 0.250000
O O18 0.500000 0.750000 0.654459
#
# Coordination Sequence:
#
# PCOD9538676 Si02
#       8
#    16  16  16   8  16  16   8   8
#     4  11  24  40  63  95 132 175 212 268 337 397
#     4  10  21  44  73  96 124 172 226 278 337 404
#     4  12  27  46  62  96 139 177 217 275 344 407
#     4  12  21  37  64  98 128 164 227 280 315 384
#     4  10  20  39  69 100 124 163 225 280 328 392
#     4  11  22  40  68  97 129 176 227 277 328 399
#     4  11  20  41  63  88 132 186 220 254 328 418
#     4  11  21  37  62  95 132 161 204 268 329 383
#
# _framework density 19.950994000000001
#
# number of rings (size 3 to 8) (size 9 to 14) (size 15 to 20)
#    0.000    1.077    4.615    2.538    0.000    4.308 
#    2.769    4.231    0.000    0.000    0.000    0.000 
#    0.000    0.000    0.000    0.000    0.000    0.000 
#
# Total GULP energy -290050.748378 kJ/mol
# GULP energy per Si atom -5577.899007 kJ/mol
# Density = 1.990558 g / cm^3
# Si number density = 19.950994 Si / 1000 Ang^3
#
#
#
# Elastic Constant Matrix: (Units=GPa)
#
#
# Indices 1 2 3 4 5 6 
#
# 1 144.5123 44.9054 35.8550 0.0000 0.0000 0.0000
# 2 44.9054 105.3812 11.3140 0.0000 0.0000 0.0000
# 3 35.8550 11.3140 38.1532 0.0000 0.0000 0.0000
# 4 0.0000 0.0000 0.0000 27.0762 0.0000 0.0000
# 5 0.0000 0.0000 0.0000 0.0000 26.3072 0.0000
# 6 0.0000 0.0000 0.0000 0.0000 0.0000 11.8500
#
#
#
# Elastic Compliance Matrix: (Units=1/GPa)
#
#
# Indices 1 2 3 4 5 6 
#
# 1 0.010070 -0.003383 -0.008460 0.000000 0.000000 0.000000
# 2 -0.003383 0.010938 -0.000064 0.000000 0.000000 0.000000
# 3 -0.008460 -0.000064 0.034180 0.000000 0.000000 0.000000
# 4 0.000000 0.000000 0.000000 0.036933 0.000000 0.000000
# 5 0.000000 0.000000 0.000000 0.000000 0.038012 0.000000
# 6 0.000000 0.000000 0.000000 0.000000 0.000000 0.084388
#
#
# Mechanical properties :
#
#
# Convention : Reuss Voigt Hill
#
# Bulk Modulus (GPa) = 31.87498 52.46615 42.17057
# Shear Modulus (GPa) = 20.09696 26.11151 23.10423
#
# Velocity S-wave (km/s) = 3.17727 3.62163 3.40670
# Velocity P-wave (km/s) = 5.42875 6.62140 6.05451
#
# Compressibility (1/GPa) = 0.03137257
#
# Stress axis : x y z
#
# Youngs Moduli (GPa) = 99.30410 91.42641 29.25693
#
# Poissons Ratio (x) = 0.30927 0.24752
# Poissons Ratio (y) = 0.33592 0.00189
# Poissons Ratio (z) = 0.84015 0.00590
#
# Static dielectric constant tensor:
#      x y z
#    x 1.745110 0.000000 0.000000 
#    y 0.000000 1.721000 0.000000 
#    z 0.000000 0.000000 1.695940 
# 
# From -- ./inp_files/12834.got.cif
#   From: 2010.05.17/outbox.cif.g08.bks.cpg/sg74_7_cif.got.tgz:12834.got - 2010.06.03 17:57:02.
