data_PCOD9538380
_publ_section_title
;
Structure prediction by ZEFSAII (Michael W. Deem and Ramdas Pophale) SiO2 
 PCOD9538380
Probable space group: I M M A
;
_chemical_formula_sum "Si O2"
_cell_formula_units_Z 104
_cell_length_a 8.695727
_cell_length_b 26.597320
_cell_length_c 20.729160
_cell_angle_alpha 90.000000
_cell_angle_beta 90.000000
_cell_angle_gamma 90.000000
_cell_volume 4794.303010
_symmetry_space_group_name_H-M "I M M A"
_symmetry_group_IT_number 74
_symmetry_cell_setting 'orthorhombic'
loop_
_space_group_symop_operation_xyz
x,y,z
-x,1/2-y,z
x,-y,-z
-x,1/2+y,-z
-x,-y,-z
x,1/2+y,-z
-x,y,z
x,1/2-y,z
1/2+x,1/2+y,1/2+z
1/2-x,-y,1/2+z
1/2+x,1/2-y,1/2-z
1/2-x,y,1/2-z
1/2-x,1/2-y,1/2-z
1/2+x,y,1/2-z
1/2-x,1/2+y,1/2+z
1/2+x,-y,1/2+z
loop_
_atom_site_type_symbol
_atom_site_label
_atom_site_fract_x
_atom_site_fract_y
_atom_site_fract_z
Si Si1 0.680376 0.542066 0.118966
Si Si2 0.686124 0.305928 0.455725
Si Si3 0.818840 0.336563 0.317535
Si Si4 0.684567 0.250000 0.677292
Si Si5 0.675044 0.059893 0.349915
Si Si6 0.315086 0.357513 0.677839
Si Si7 0.823087 0.412704 0.999213
O O1 0.500000 0.534898 0.125499
O O2 0.764317 0.496542 0.155463
O O3 0.736792 0.595104 0.146102
O O4 0.727836 0.549303 0.044411
O O5 0.500000 0.308407 0.455086
O O6 0.731413 0.250000 0.478177
O O7 0.743195 0.313552 0.382087
O O8 0.735961 0.354909 0.496765
O O9 0.750000 0.317424 0.250000
O O10 0.780062 0.396222 0.321323
O O11 0.000000 0.328168 0.319248
O O12 0.500000 0.250000 0.682536
O O13 0.750000 0.250000 0.750000
O O14 0.726056 0.196607 0.646592
O O15 0.500000 0.065390 0.326042
O O16 0.674001 0.069963 0.426859
O O17 0.500000 0.362890 0.677864
O O18 0.250000 0.355622 0.750000
O O19 0.000000 0.412565 0.974927
#
# Coordination Sequence:
#
# PCOD9538380 Si02
#       7
#    16  16  16   8  16  16  16
#     4  12  24  36  54  84 116 148 187 229 277 334
#     4   9  19  38  62  86 115 153 195 240 290 341
#     4  11  22  37  58  86 119 154 193 236 285 343
#     4   8  16  32  56  78  98 132 172 212 259 314
#     4  10  21  39  61  82 109 146 188 234 284 336
#     4  10  20  37  58  81 109 141 180 225 276 329
#     4   9  19  37  59  82 110 146 188 232 282 335
#
# _framework density 21.692412000000001
#
# number of rings (size 3 to 8) (size 9 to 14) (size 15 to 20)
#    0.000    2.000    0.000    5.077    0.000    6.769 
#    1.385    3.077    0.000    0.000    0.000    0.000 
#    0.000    0.000    0.000    0.000    0.000    0.000 
#
# Total GULP energy -290457.645744 kJ/mol
# GULP energy per Si atom -5585.723957 kJ/mol
# Density = 2.164304 g / cm^3
# Si number density = 21.692412 Si / 1000 Ang^3
#
#
#
# Elastic Constant Matrix: (Units=GPa)
#
#
# Indices 1 2 3 4 5 6 
#
# 1 38.8280 0.7566 -6.7659 0.0000 0.0000 0.0000
# 2 0.7566 116.9032 -6.1842 0.0000 0.0000 0.0000
# 3 -6.7659 -6.1842 28.3735 0.0001 0.0000 0.0000
# 4 0.0000 0.0000 0.0001 17.4379 0.0000 0.0000
# 5 0.0000 0.0000 0.0000 0.0000 24.8981 0.0000
# 6 0.0000 0.0000 0.0000 0.0000 0.0000 21.5032
#
#
#
# Elastic Compliance Matrix: (Units=1/GPa)
#
#
# Indices 1 2 3 4 5 6 
#
# 1 0.026874 0.000167 0.006445 0.000000 0.000000 0.000000
# 2 0.000167 0.008655 0.001926 0.000000 0.000000 0.000000
# 3 0.006445 0.001926 0.037201 0.000000 0.000000 0.000000
# 4 0.000000 0.000000 0.000000 0.057346 0.000000 0.000000
# 5 0.000000 0.000000 0.000000 0.000000 0.040164 0.000000
# 6 0.000000 0.000000 0.000000 0.000000 0.000000 0.046505
#
#
# Mechanical properties :
#
#
# Convention : Reuss Voigt Hill
#
# Bulk Modulus (GPa) = 11.13509 17.74641 14.44075
# Shear Modulus (GPa) = 21.77661 25.85439 23.81550
#
# Velocity S-wave (km/s) = 3.17185 3.45608 3.31701
# Velocity P-wave (km/s) = 4.30795 4.91169 4.61969
#
# Compressibility (1/GPa) = 0.08980618
#
# Stress axis : x y z
#
# Youngs Moduli (GPa) = 37.21016 115.54147 26.88117
#
# Poissons Ratio (x) = -0.01930 -0.17325
# Poissons Ratio (y) = -0.00621 -0.05178
# Poissons Ratio (z) = -0.23981 -0.22256
#
# Static dielectric constant tensor:
#      x y z
#    x 1.742150 0.000000 0.000000 
#    y 0.000000 1.841420 0.000000 
#    z 0.000000 0.000000 1.977620 
# 
# From -- ./inp_files/49281.got.cif
#   From: 2010.05.17/outbox.cif.g08.bks.cpg/sg74_25_cif.got.tgz:49281.got - 2010.06.03 17:57:02.
