data_PCOD9538815
_publ_section_title
;
Structure prediction by ZEFSAII (Michael W. Deem and Ramdas Pophale) SiO2 
 PCOD9538815
Probable space group: I M M A
;
_chemical_formula_sum "Si O2"
_cell_formula_units_Z 112
_cell_length_a 14.071660
_cell_length_b 25.394276
_cell_length_c 16.648227
_cell_angle_alpha 90.000000
_cell_angle_beta 90.000000
_cell_angle_gamma 90.000000
_cell_volume 5949.071074
_symmetry_space_group_name_H-M "I M M A"
_symmetry_group_IT_number 74
_symmetry_cell_setting 'orthorhombic'
loop_
_space_group_symop_operation_xyz
x,y,z
-x,1/2-y,z
x,-y,-z
-x,1/2+y,-z
-x,-y,-z
x,1/2+y,-z
-x,y,z
x,1/2-y,z
1/2+x,1/2+y,1/2+z
1/2-x,-y,1/2+z
1/2+x,1/2-y,1/2-z
1/2-x,y,1/2-z
1/2-x,1/2-y,1/2-z
1/2+x,y,1/2-z
1/2-x,1/2+y,1/2+z
1/2+x,-y,1/2+z
loop_
_atom_site_type_symbol
_atom_site_label
_atom_site_fract_x
_atom_site_fract_y
_atom_site_fract_z
Si Si1 0.608200 0.312863 0.057162
Si Si2 0.616150 0.914686 0.212027
Si Si3 0.885092 0.544547 0.115509
Si Si4 0.886913 0.925779 0.940775
Si Si5 0.616122 0.689658 0.123996
Si Si6 0.227416 0.112352 0.343150
Si Si7 0.885702 0.010409 0.406622
O O1 0.500000 0.332713 0.061202
O O2 0.606964 0.250000 0.062183
O O3 0.666704 0.338305 0.128129
O O4 0.644883 0.325360 0.967168
O O5 0.500000 0.913569 0.214509
O O6 0.649837 0.932458 0.300351
O O7 0.646690 0.856641 0.183739
O O8 0.639977 0.959431 0.146650
O O9 0.866776 0.482822 0.100008
O O10 0.000000 0.548881 0.116967
O O11 0.854410 0.572638 0.033394
O O12 0.826431 0.885357 0.890608
O O13 0.000000 0.917934 0.938260
O O14 0.500000 0.690605 0.123370
O O15 0.646458 0.750000 0.141704
O O16 0.250000 0.108897 0.250000
O O17 0.168681 0.061207 0.373266
O O18 0.000000 0.018259 0.400372
O O19 0.863158 0.000000 0.500000
#
# Coordination Sequence:
#
# PCOD9538815 Si02
#       7
#    16  16  16  16  16  16  16
#     4   9  19  38  61  81 106 143 183 224 279 345
#     4   9  15  26  48  76 105 138 177 221 270 322
#     4   8  15  30  51  70  96 140 189 226 258 312
#     4   9  19  35  52  72 105 148 187 223 265 325
#     4   8  14  27  50  79 108 140 178 217 263 324
#     4  12  24  34  54  84 111 139 181 233 283 341
#     4  10  21  35  51  77 116 149 175 221 287 347
#
# _framework density 18.826468999999999
#
# number of rings (size 3 to 8) (size 9 to 14) (size 15 to 20)
#    0.000    2.714    0.000    3.857    2.000    4.857 
#    0.000    0.000    0.000    1.286    0.000    4.000 
#    0.000    0.000    0.000    0.000    0.000    0.000 
#
# Total GULP energy -312556.447058 kJ/mol
# GULP energy per Si atom -5581.365126 kJ/mol
# Density = 1.878362 g / cm^3
# Si number density = 18.826469 Si / 1000 Ang^3
#
#
#
# Elastic Constant Matrix: (Units=GPa)
#
#
# Indices 1 2 3 4 5 6 
#
# 1 52.8565 16.8460 39.7084 0.0000 0.0000 0.0000
# 2 16.8460 52.9194 55.5917 0.0000 0.0000 0.0000
# 3 39.7084 55.5917 164.6416 0.0000 0.0000 0.0000
# 4 0.0000 0.0000 0.0000 16.9454 0.0000 0.0000
# 5 0.0000 0.0000 0.0000 0.0000 24.0598 0.0000
# 6 0.0000 0.0000 0.0000 0.0000 0.0000 13.0422
#
#
#
# Elastic Compliance Matrix: (Units=1/GPa)
#
#
# Indices 1 2 3 4 5 6 
#
# 1 0.023292 -0.002345 -0.004826 0.000000 0.000000 0.000000
# 2 -0.002345 0.029520 -0.009402 0.000000 0.000000 0.000000
# 3 -0.004826 -0.009402 0.010412 0.000000 0.000000 0.000000
# 4 0.000000 0.000000 0.000000 0.059013 0.000000 0.000000
# 5 0.000000 0.000000 0.000000 0.000000 0.041563 0.000000
# 6 0.000000 0.000000 0.000000 0.000000 0.000000 0.076674
#
#
# Mechanical properties :
#
#
# Convention : Reuss Voigt Hill
#
# Bulk Modulus (GPa) = 33.24639 54.96774 44.10707
# Shear Modulus (GPa) = 17.62761 21.36091 19.49426
#
# Velocity S-wave (km/s) = 3.06326 3.37207 3.22136
# Velocity P-wave (km/s) = 5.49628 6.66495 6.10863
#
# Compressibility (1/GPa) = 0.03007845
#
# Stress axis : x y z
#
# Youngs Moduli (GPa) = 42.93342 33.87559 96.04111
#
# Poissons Ratio (x) = 0.07945 0.46346
# Poissons Ratio (y) = 0.10069 0.90296
# Poissons Ratio (z) = 0.20718 0.31849
#
# Static dielectric constant tensor:
#      x y z
#    x 1.694230 0.000000 0.000000 
#    y 0.000000 1.635470 0.000000 
#    z 0.000000 0.000000 1.645530 
# 
# From -- ./inp_files/32951.got.cif
#   From: 2010.05.17/outbox.cif.g08.bks.cpg/sg74_17_cif.got.tgz:32951.got - 2010.06.03 17:57:02.
