data_PCOD9538587
_publ_section_title
;
Structure prediction by ZEFSAII (Michael W. Deem and Ramdas Pophale) SiO2 
 PCOD9538587
Probable space group: I M M A
;
_chemical_formula_sum "Si O2"
_cell_formula_units_Z 96
_cell_length_a 13.766087
_cell_length_b 15.263874
_cell_length_c 21.657011
_cell_angle_alpha 90.000000
_cell_angle_beta 90.000000
_cell_angle_gamma 90.000000
_cell_volume 4550.653826
_symmetry_space_group_name_H-M "I M M A"
_symmetry_group_IT_number 74
_symmetry_cell_setting 'orthorhombic'
loop_
_space_group_symop_operation_xyz
x,y,z
-x,1/2-y,z
x,-y,-z
-x,1/2+y,-z
-x,-y,-z
x,1/2+y,-z
-x,y,z
x,1/2-y,z
1/2+x,1/2+y,1/2+z
1/2-x,-y,1/2+z
1/2+x,1/2-y,1/2-z
1/2-x,y,1/2-z
1/2-x,1/2-y,1/2-z
1/2+x,y,1/2-z
1/2-x,1/2+y,1/2+z
1/2+x,-y,1/2+z
loop_
_atom_site_type_symbol
_atom_site_label
_atom_site_fract_x
_atom_site_fract_y
_atom_site_fract_z
Si Si1 0.691678 0.654272 0.141295
Si Si2 0.612755 0.603957 0.012686
Si Si3 0.899415 0.597002 0.172970
Si Si4 0.888881 0.041299 0.066260
Si Si5 0.350501 0.484173 0.214855
Si Si6 0.797964 0.650263 0.614379
O O1 0.649668 0.750000 0.155321
O O2 0.681452 0.637977 0.067911
O O3 0.799631 0.650101 0.171052
O O4 0.643672 0.569014 0.170825
O O5 0.500000 0.620115 0.029879
O O6 0.624280 0.500000 0.000000
O O7 0.639614 0.648179 0.948199
O O8 0.894501 0.542070 0.110478
O O9 0.904286 0.522381 0.225595
O O10 0.000000 0.648202 0.176097
O O11 0.804056 0.102588 0.094809
O O12 0.000000 0.079271 0.063006
O O13 0.863010 0.000000 0.000000
O O14 0.250000 0.466126 0.250000
O O15 0.356300 0.403189 0.167570
O O16 0.779641 0.750000 0.633768
#
# Coordination Sequence:
#
# PCOD9538587 Si02
#       6
#    16  16  16  16  16  16
#     4  11  22  39  65  93 127 164 206 263 318 375
#     4  11  23  42  67  92 126 168 209 261 321 381
#     4  10  21  39  63  89 125 166 207 257 311 372
#     4  10  20  38  64  89 120 164 210 262 321 379
#     4  10  21  40  58  88 126 168 212 252 308 376
#     4  12  23  38  65  94 128 169 213 265 316 377
#
# _framework density 21.095870999999999
#
# number of rings (size 3 to 8) (size 9 to 14) (size 15 to 20)
#    0.000    1.333    5.000    2.000    0.000    6.667 
#    0.000    0.000    0.000    5.000    0.000    0.000 
#    0.000    0.000    0.000    0.000    0.000    0.000 
#
# Total GULP energy -267226.802847 kJ/mol
# GULP energy per Si atom -5567.225059 kJ/mol
# Density = 2.104786 g / cm^3
# Si number density = 21.095871 Si / 1000 Ang^3
#
#
#
# Elastic Constant Matrix: (Units=GPa)
#
#
# Indices 1 2 3 4 5 6 
#
# 1 72.6161 1.5393 -4.3891 0.0000 0.0000 0.0000
# 2 1.5393 93.4229 8.8529 0.0000 0.0000 0.0000
# 3 -4.3891 8.8529 121.4862 0.0000 0.0000 0.0000
# 4 0.0000 0.0000 0.0000 0.0560 0.0000 0.0000
# 5 0.0000 0.0000 0.0000 0.0000 3.0377 0.0000
# 6 0.0000 0.0000 0.0000 0.0000 0.0000 6.2226
#
#
#
# Elastic Compliance Matrix: (Units=1/GPa)
#
#
# Indices 1 2 3 4 5 6 
#
# 1 0.013808 -0.000277 0.000519 0.000000 0.000000 0.000000
# 2 -0.000277 0.010784 -0.000796 0.000000 0.000000 0.000000
# 3 0.000519 -0.000796 0.008308 0.000000 0.000000 0.000000
# 4 0.000000 0.000000 0.000000 17.842922 0.000003 0.000002
# 5 0.000000 0.000000 0.000000 0.000003 0.329198 0.000000
# 6 0.000000 0.000000 0.000000 0.000002 0.000000 0.160704
#
#
# Mechanical properties :
#
#
# Convention : Reuss Voigt Hill
#
# Bulk Modulus (GPa) = 31.45309 33.28127 32.36718
# Shear Modulus (GPa) = 0.27207 20.63141 10.45174
#
# Velocity S-wave (km/s) = 0.35951 3.13066 2.22826
# Velocity P-wave (km/s) = 3.88771 5.37388 4.69003
#
# Compressibility (1/GPa) = 0.03179338
#
# Stress axis : x y z
#
# Youngs Moduli (GPa) = 72.42028 92.73005 120.36393
#
# Poissons Ratio (x) = 0.02566 -0.06247
# Poissons Ratio (y) = 0.02004 0.09579
# Poissons Ratio (z) = -0.03759 0.07380
#
# Static dielectric constant tensor:
#      x y z
#    x 2.000490 0.000000 0.000000 
#    y 0.000000 1.898370 0.000000 
#    z 0.000000 0.000000 1.857450 
# 
# From -- ./inp_files/51895.got.cif
#   From: 2010.05.17/outbox.cif.g08.bks.cpg/sg74_26_cif.got.tgz:51895.got - 2010.06.03 17:57:02.
