data_PCOD9538316
_publ_section_title
;
Structure prediction by ZEFSAII (Michael W. Deem and Ramdas Pophale) SiO2 
 PCOD9538316
Probable space group: I M M A
;
_chemical_formula_sum "Si O2"
_cell_formula_units_Z 96
_cell_length_a 14.204325
_cell_length_b 21.808675
_cell_length_c 14.366268
_cell_angle_alpha 90.000000
_cell_angle_beta 90.000000
_cell_angle_gamma 90.000000
_cell_volume 4450.346693
_symmetry_space_group_name_H-M "I M M A"
_symmetry_group_IT_number 74
_symmetry_cell_setting 'orthorhombic'
loop_
_space_group_symop_operation_xyz
x,y,z
-x,1/2-y,z
x,-y,-z
-x,1/2+y,-z
-x,-y,-z
x,1/2+y,-z
-x,y,z
x,1/2-y,z
1/2+x,1/2+y,1/2+z
1/2-x,-y,1/2+z
1/2+x,1/2-y,1/2-z
1/2-x,y,1/2-z
1/2-x,1/2-y,1/2-z
1/2+x,y,1/2-z
1/2-x,1/2+y,1/2+z
1/2+x,-y,1/2+z
loop_
_atom_site_type_symbol
_atom_site_label
_atom_site_fract_x
_atom_site_fract_y
_atom_site_fract_z
Si Si1 0.104273 0.360353 0.106291
Si Si2 0.613186 0.819076 0.098844
Si Si3 0.384724 0.433076 0.773355
Si Si4 0.389538 0.053718 0.563413
Si Si5 0.804599 0.683744 0.607557
Si Si6 0.609125 0.568121 0.789892
O O1 0.192615 0.317320 0.119810
O O2 0.113178 0.416812 0.179665
O O3 0.000000 0.334102 0.121571
O O4 0.110925 0.387351 0.002817
O O5 0.500000 0.824278 0.082904
O O6 0.630281 0.750000 0.136178
O O7 0.642431 0.873936 0.167054
O O8 0.664989 0.823566 0.999816
O O9 0.500000 0.433236 0.773672
O O10 0.352544 0.432154 0.665918
O O11 0.354946 0.500020 0.811007
O O12 0.500000 0.036304 0.577890
O O13 0.345176 0.000000 0.500000
O O14 0.842528 0.750000 0.639776
O O15 0.840741 0.624524 0.661359
O O16 0.500000 0.570231 0.817817
#
# Coordination Sequence:
#
# PCOD9538316 Si02
#       6
#    16  16  16  16  16  16
#     4  10  21  38  59  85 116 151 194 244 303 366
#     4   9  19  38  62  87 120 162 201 240 295 357
#     4   9  17  33  60  93 124 153 192 244 295 351
#     4   9  15  31  59  86 115 153 189 233 295 353
#     4  11  24  41  57  80 117 159 205 253 301 356
#     4  10  20  36  60  90 120 151 192 245 304 362
#
# _framework density 21.571352999999998
#
# number of rings (size 3 to 8) (size 9 to 14) (size 15 to 20)
#    0.000    2.333    1.667    1.000    0.000    3.333 
#    3.000    5.833    0.000    5.000    0.000    0.000 
#    0.000    0.000    0.000    0.000    0.000    0.000 
#
# Total GULP energy -267959.163385 kJ/mol
# GULP energy per Si atom -5582.482571 kJ/mol
# Density = 2.152226 g / cm^3
# Si number density = 21.571353 Si / 1000 Ang^3
#
#
#
# Elastic Constant Matrix: (Units=GPa)
#
#
# Indices 1 2 3 4 5 6 
#
# 1 78.0065 52.5113 22.7806 0.0000 0.0000 0.0000
# 2 52.5113 173.8545 84.3786 -0.0001 0.0000 0.0000
# 3 22.7806 84.3786 93.8037 -0.0002 0.0000 0.0000
# 4 0.0000 -0.0001 -0.0002 8.0951 0.0000 0.0000
# 5 0.0000 0.0000 0.0000 0.0000 -1.5042 0.0000
# 6 0.0000 0.0000 0.0000 0.0000 0.0000 19.7169
#
#
#
# Elastic Compliance Matrix: (Units=1/GPa)
#
#
# Indices 1 2 3 4 5 6 
#
# 1 0.016127 -0.005272 0.000825 0.000000 0.000000 0.000000
# 2 -0.005272 0.011932 -0.009453 0.000000 0.000000 0.000000
# 3 0.000825 -0.009453 0.018963 0.000000 0.000000 0.000000
# 4 0.000000 0.000000 0.000000 0.123532 0.000002 0.000000
# 5 0.000000 0.000000 0.000000 0.000002 -0.664823 0.000000
# 6 0.000000 0.000000 0.000000 0.000000 0.000000 0.050718
#
#
# Mechanical properties :
#
#
# Convention : Reuss Voigt Hill
#
# Bulk Modulus (GPa) = 52.01801 73.88951 62.95376
# Shear Modulus (GPa) = -12.21467 17.66118 2.72326
#
# Velocity S-wave (km/s) = -2.38217 2.86446 1.12480
# Velocity P-wave (km/s) = 4.07436 6.72815 5.56185
#
# Compressibility (1/GPa) = 0.01922411
#
# Stress axis : x y z
#
# Youngs Moduli (GPa) = 62.00745 83.80754 52.73362
#
# Poissons Ratio (x) = 0.44181 -0.04353
# Poissons Ratio (y) = 0.32688 0.49849
# Poissons Ratio (z) = -0.05119 0.79223
#
# Static dielectric constant tensor:
#      x y z
#    x 1.819350 0.000000 0.000000 
#    y 0.000000 1.792350 0.000000 
#    z 0.000000 0.000000 1.774710 
# 
# From -- ./inp_files/32359.got.cif
#   From: 2010.05.17/outbox.cif.g08.bks.cpg/sg74_17_cif.got.tgz:32359.got - 2010.06.03 17:57:02.
