data_PCOD9538130
_publ_section_title
;
Structure prediction by ZEFSAII (Michael W. Deem and Ramdas Pophale) SiO2 
 PCOD9538130
Probable space group: I M M A
;
_chemical_formula_sum "Si O2"
_cell_formula_units_Z 96
_cell_length_a 23.271192
_cell_length_b 15.908644
_cell_length_c 13.878710
_cell_angle_alpha 90.000000
_cell_angle_beta 90.000000
_cell_angle_gamma 90.000000
_cell_volume 5138.080378
_symmetry_space_group_name_H-M "I M M A"
_symmetry_group_IT_number 74
_symmetry_cell_setting 'orthorhombic'
loop_
_space_group_symop_operation_xyz
x,y,z
-x,1/2-y,z
x,-y,-z
-x,1/2+y,-z
-x,-y,-z
x,1/2+y,-z
-x,y,z
x,1/2-y,z
1/2+x,1/2+y,1/2+z
1/2-x,-y,1/2+z
1/2+x,1/2-y,1/2-z
1/2-x,y,1/2-z
1/2-x,1/2-y,1/2-z
1/2+x,y,1/2-z
1/2-x,1/2+y,1/2+z
1/2+x,-y,1/2+z
loop_
_atom_site_type_symbol
_atom_site_label
_atom_site_fract_x
_atom_site_fract_y
_atom_site_fract_z
Si Si1 0.860012 0.156027 0.863008
Si Si2 0.147894 0.494303 0.384702
Si Si3 0.568091 0.998137 0.287175
Si Si4 0.234410 0.654350 0.607541
Si Si5 0.351942 0.583912 0.563649
Si Si6 0.273499 0.345408 0.874765
O O1 0.872511 0.250000 0.831848
O O2 0.792257 0.137849 0.841867
O O3 0.903391 0.090237 0.817795
O O4 0.866019 0.148943 0.979033
O O5 0.137941 0.500000 0.500000
O O6 0.091399 0.485898 0.320192
O O7 0.187467 0.413575 0.362240
O O8 0.183143 0.578505 0.355286
O O9 0.500000 0.998155 0.293414
O O10 0.596812 0.061439 0.364576
O O11 0.227492 0.750000 0.642679
O O12 0.297587 0.616172 0.623943
O O13 0.230421 0.657099 0.491084
O O14 0.336454 0.500000 0.500000
O O15 0.289859 0.250000 0.845238
#
# Coordination Sequence:
#
# PCOD9538130 Si02
#       6
#    16  16  16  16  16  16
#     4   9  18  34  57  85 114 136 160 208 275 339
#     4  10  20  36  56  77 106 144 182 225 275 314
#     4  11  24  37  50  73 105 145 194 231 252 296
#     4   9  16  30  55  84 108 130 167 219 274 333
#     4   9  17  32  55  80 110 139 163 204 270 334
#     4   8  15  30  55  86 112 133 163 211 275 339
#
# _framework density 18.68402
#
# number of rings (size 3 to 8) (size 9 to 14) (size 15 to 20)
#    0.000    2.667    0.000    5.000    0.000    7.000 
#    0.000    4.167    0.000    4.000    0.000    4.667 
#    0.000    0.000    0.000    0.000    0.000    0.000 
#
# Total GULP energy -267809.364845 kJ/mol
# GULP energy per Si atom -5579.361768 kJ/mol
# Density = 1.864149 g / cm^3
# Si number density = 18.684020 Si / 1000 Ang^3
#
#
#
# Elastic Constant Matrix: (Units=GPa)
#
#
# Indices 1 2 3 4 5 6 
#
# 1 110.3080 39.0185 22.4511 0.0000 0.0000 0.0000
# 2 39.0185 77.4956 11.7168 0.0000 0.0000 0.0000
# 3 22.4511 11.7168 79.5852 0.0000 0.0000 0.0000
# 4 0.0000 0.0000 0.0000 2.2069 0.0000 0.0000
# 5 0.0000 0.0000 0.0000 0.0000 23.6494 0.0000
# 6 0.0000 0.0000 0.0000 0.0000 0.0000 2.2629
#
#
#
# Elastic Compliance Matrix: (Units=1/GPa)
#
#
# Indices 1 2 3 4 5 6 
#
# 1 0.011476 -0.005409 -0.002441 0.000000 0.000000 0.000000
# 2 -0.005409 0.015747 -0.000793 0.000000 0.000000 0.000000
# 3 -0.002441 -0.000793 0.013370 0.000000 0.000000 0.000000
# 4 0.000000 0.000000 0.000000 0.453131 0.000000 0.000000
# 5 0.000000 0.000000 0.000000 0.000000 0.042284 0.000000
# 6 0.000000 0.000000 0.000000 0.000000 0.000000 0.441914
#
#
# Mechanical properties :
#
#
# Convention : Reuss Voigt Hill
#
# Bulk Modulus (GPa) = 42.90281 45.97351 44.43816
# Shear Modulus (GPa) = 4.98517 18.57066 11.77791
#
# Velocity S-wave (km/s) = 1.63522 3.15609 2.51345
# Velocity P-wave (km/s) = 5.15533 6.15958 5.67969
#
# Compressibility (1/GPa) = 0.02330850
#
# Stress axis : x y z
#
# Youngs Moduli (GPa) = 87.14168 63.50383 74.79194
#
# Poissons Ratio (x) = 0.34348 0.18257
# Poissons Ratio (y) = 0.47133 0.05927
# Poissons Ratio (z) = 0.21271 0.05033
#
# Static dielectric constant tensor:
#      x y z
#    x 1.596970 0.000000 0.000000 
#    y 0.000000 1.671790 0.000000 
#    z 0.000000 0.000000 1.721020 
# 
# From -- ./inp_files/35247.got.cif
#   From: 2010.05.17/outbox.cif.g08.bks.cpg/sg74_18_cif.got.tgz:35247.got - 2010.06.03 17:57:02.
