data_PCOD9538759
_publ_section_title
;
Structure prediction by ZEFSAII (Michael W. Deem and Ramdas Pophale) SiO2 
 PCOD9538759
Probable space group: I M M A
;
_chemical_formula_sum "Si O2"
_cell_formula_units_Z 96
_cell_length_a 13.318273
_cell_length_b 30.741775
_cell_length_c 12.418495
_cell_angle_alpha 90.000000
_cell_angle_beta 90.000000
_cell_angle_gamma 90.000000
_cell_volume 5084.471523
_symmetry_space_group_name_H-M "I M M A"
_symmetry_group_IT_number 74
_symmetry_cell_setting 'orthorhombic'
loop_
_space_group_symop_operation_xyz
x,y,z
-x,1/2-y,z
x,-y,-z
-x,1/2+y,-z
-x,-y,-z
x,1/2+y,-z
-x,y,z
x,1/2-y,z
1/2+x,1/2+y,1/2+z
1/2-x,-y,1/2+z
1/2+x,1/2-y,1/2-z
1/2-x,y,1/2-z
1/2-x,1/2-y,1/2-z
1/2+x,y,1/2-z
1/2-x,1/2+y,1/2+z
1/2+x,-y,1/2+z
loop_
_atom_site_type_symbol
_atom_site_label
_atom_site_fract_x
_atom_site_fract_y
_atom_site_fract_z
Si Si1 0.379159 0.106270 0.225603
Si Si2 0.620030 0.295755 0.460786
Si Si3 0.178499 0.972764 0.099023
Si Si4 0.615530 0.991705 0.829020
Si Si5 0.621886 0.610382 0.522190
Si Si6 0.881024 0.797897 0.701255
O O1 0.500000 0.109578 0.227034
O O2 0.349569 0.102025 0.352134
O O3 0.344884 0.152793 0.174745
O O4 0.357792 0.059828 0.171275
O O5 0.500000 0.295465 0.478494
O O6 0.661239 0.250000 0.501921
O O7 0.657893 0.341028 0.505388
O O8 0.630985 0.297130 0.331023
O O9 0.296846 0.983015 0.109739
O O10 0.126743 0.989721 0.207493
O O11 0.161926 0.923598 0.063681
O O12 0.135341 0.000000 0.000000
O O13 0.500000 0.997106 0.864187
O O14 0.500000 0.608895 0.520124
O O15 0.842468 0.750000 0.662708
O O16 0.000000 0.797288 0.677713
#
# Coordination Sequence:
#
# PCOD9538759 Si02
#       6
#    16  16  16  16  16  16
#     4   8  13  23  40  61  86 118 151 184 224 266
#     4   7  10  17  31  57  92 121 143 174 222 275
#     4  11  21  32  48  69  91 121 161 197 235 277
#     4  10  21  34  47  66  92 123 158 198 238 278
#     4   9  15  24  43  68  93 122 154 190 229 274
#     4   7   9  14  28  54  85 112 140 174 213 261
#
# _framework density 18.881018000000001
#
# number of rings (size 3 to 8) (size 9 to 14) (size 15 to 20)
#    0.000    3.333    1.667    3.500    0.000    1.000 
#    0.000    0.000    0.000    0.000    0.000    5.833 
#    0.000    2.000    0.000    0.000    0.000   12.833 
#
# Total GULP energy -267260.076370 kJ/mol
# GULP energy per Si atom -5567.918258 kJ/mol
# Density = 1.883804 g / cm^3
# Si number density = 18.881018 Si / 1000 Ang^3
#
#
#
# Elastic Constant Matrix: (Units=GPa)
#
#
# Indices 1 2 3 4 5 6 
#
# 1 93.7097 28.5578 -0.9911 0.0000 0.0000 0.0000
# 2 28.5578 186.5201 17.7720 0.0001 0.0000 0.0000
# 3 -0.9911 17.7720 33.3967 0.0001 0.0000 0.0000
# 4 0.0000 0.0001 0.0001 13.8695 0.0000 0.0000
# 5 0.0000 0.0000 0.0000 0.0000 2.9028 0.0000
# 6 0.0000 0.0000 0.0000 0.0000 0.0000 13.0193
#
#
#
# Elastic Compliance Matrix: (Units=1/GPa)
#
#
# Indices 1 2 3 4 5 6 
#
# 1 0.011248 -0.001848 0.001317 0.000000 0.000000 0.000000
# 2 -0.001848 0.005951 -0.003222 0.000000 0.000000 0.000000
# 3 0.001317 -0.003222 0.031697 0.000000 0.000000 0.000000
# 4 0.000000 0.000000 0.000000 0.072101 0.000000 0.000000
# 5 0.000000 0.000000 0.000000 0.000000 0.344499 0.000000
# 6 0.000000 0.000000 0.000000 0.000000 0.000000 0.076809
#
#
# Mechanical properties :
#
#
# Convention : Reuss Voigt Hill
#
# Bulk Modulus (GPa) = 24.15966 44.92266 34.54116
# Shear Modulus (GPa) = 8.87144 23.84416 16.35780
#
# Velocity S-wave (km/s) = 2.16998 3.55754 2.94660
# Velocity P-wave (km/s) = 4.37057 6.38114 5.46904
#
# Compressibility (1/GPa) = 0.04139131
#
# Stress axis : x y z
#
# Youngs Moduli (GPa) = 88.90259 168.03253 31.54911
#
# Poissons Ratio (x) = 0.31047 -0.04155
# Poissons Ratio (y) = 0.16427 0.10164
# Poissons Ratio (z) = -0.11709 0.54136
#
# Static dielectric constant tensor:
#      x y z
#    x 1.735970 0.000000 0.000000 
#    y 0.000000 1.702980 0.000000 
#    z 0.000000 0.000000 1.680410 
# 
# From -- ./inp_files/33073.got.cif
#   From: 2010.05.17/outbox.cif.g08.bks.cpg/sg74_17_cif.got.tgz:33073.got - 2010.06.03 17:57:02.
