data_PCOD9538259
_publ_section_title
;
Structure prediction by ZEFSAII (Michael W. Deem and Ramdas Pophale) SiO2 
 PCOD9538259
Probable space group: I M M A
;
_chemical_formula_sum "Si O2"
_cell_formula_units_Z 64
_cell_length_a 21.999920
_cell_length_b 16.115571
_cell_length_c 8.751800
_cell_angle_alpha 90.000000
_cell_angle_beta 90.000000
_cell_angle_gamma 90.000000
_cell_volume 3102.874311
_symmetry_space_group_name_H-M "I M M A"
_symmetry_group_IT_number 74
_symmetry_cell_setting 'orthorhombic'
loop_
_space_group_symop_operation_xyz
x,y,z
-x,1/2-y,z
x,-y,-z
-x,1/2+y,-z
-x,-y,-z
x,1/2+y,-z
-x,y,z
x,1/2-y,z
1/2+x,1/2+y,1/2+z
1/2-x,-y,1/2+z
1/2+x,1/2-y,1/2-z
1/2-x,y,1/2-z
1/2-x,1/2-y,1/2-z
1/2+x,y,1/2-z
1/2-x,1/2+y,1/2+z
1/2+x,-y,1/2+z
loop_
_atom_site_type_symbol
_atom_site_label
_atom_site_fract_x
_atom_site_fract_y
_atom_site_fract_z
Si Si1 0.000000 0.906448 0.072213
Si Si2 0.117150 0.655103 0.606919
Si Si3 0.123087 0.095067 0.057960
Si Si4 0.754918 0.092523 0.434078
Si Si5 0.500000 0.907370 0.065082
O O1 0.000000 0.910391 0.253273
O O2 0.062775 0.866366 0.015041
O O3 0.000000 0.000000 0.000000
O O4 0.114658 0.750000 0.659326
O O5 0.114184 0.598878 0.759301
O O6 0.182579 0.639013 0.529756
O O7 0.060631 0.635877 0.498858
O O8 0.189767 0.130688 0.017972
O O9 0.126190 0.000000 0.000000
O O10 0.750000 0.088172 0.250000
O O11 0.760028 0.000000 0.500000
O O12 0.500000 0.000000 0.000000
#
# Coordination Sequence:
#
# PCOD9538259 Si02
#       5
#     8  16  16  16   8
#     4  10  20  36  59  87 113 144 196 248 290 340
#     4  11  23  39  60  89 125 161 199 251 312 362
#     4   9  18  36  60  88 119 154 202 250 299 362
#     4   9  19  34  58  87 116 153 201 251 297 359
#     4  12  23  38  63  89 118 156 201 248 294 360
#
# _framework density 20.626035999999999
#
# number of rings (size 3 to 8) (size 9 to 14) (size 15 to 20)
#    0.000    2.000    0.000    4.875    0.000   10.500 
#    0.000    2.500    0.000    5.250    0.000    0.000 
#    0.000    0.000    0.000    0.000    0.000    0.000 
#
# Total GULP energy -178514.393274 kJ/mol
# GULP energy per Si atom -5578.574790 kJ/mol
# Density = 2.057909 g / cm^3
# Si number density = 20.626036 Si / 1000 Ang^3
#
#
#
# Elastic Constant Matrix: (Units=GPa)
#
#
# Indices 1 2 3 4 5 6 
#
# 1 237.7819 24.6164 74.7138 0.0000 0.0000 0.0000
# 2 24.6164 43.4571 8.6275 0.0000 0.0000 0.0000
# 3 74.7138 8.6275 76.8694 0.0000 0.0000 0.0000
# 4 0.0000 0.0000 0.0000 8.3631 0.0000 0.0000
# 5 0.0000 0.0000 0.0000 0.0000 14.6123 0.0000
# 6 0.0000 0.0000 0.0000 0.0000 0.0000 -49.3402
#
#
#
# Elastic Compliance Matrix: (Units=1/GPa)
#
#
# Indices 1 2 3 4 5 6 
#
# 1 0.006291 -0.002403 -0.005845 0.000000 0.000000 0.000000
# 2 -0.002403 0.024454 -0.000409 0.000000 0.000000 0.000000
# 3 -0.005845 -0.000409 0.018736 0.000000 0.000000 0.000000
# 4 0.000000 0.000000 0.000000 0.119573 0.000000 0.000000
# 5 0.000000 0.000000 0.000000 0.000000 0.068435 0.000000
# 6 0.000000 0.000000 0.000000 0.000000 0.000000 -0.020267
#
#
# Mechanical properties :
#
#
# Convention : Reuss Voigt Hill
#
# Bulk Modulus (GPa) = 31.08791 63.78044 47.43418
# Shear Modulus (GPa) = 20.38681 11.40376 15.89528
#
# Velocity S-wave (km/s) = 3.14730 2.35389 2.77906
# Velocity P-wave (km/s) = 5.32092 6.19493 5.77449
#
# Compressibility (1/GPa) = 0.03216684
#
# Stress axis : x y z
#
# Youngs Moduli (GPa) = 158.96307 40.89378 53.37400
#
# Poissons Ratio (x) = 0.09827 0.31195
# Poissons Ratio (y) = 0.38200 0.02182
# Poissons Ratio (z) = 0.92908 0.01672
#
# Static dielectric constant tensor:
#      x y z
#    x 1.826780 0.000000 0.000000 
#    y 0.000000 1.693370 0.000000 
#    z 0.000000 0.000000 1.698290 
# 
# From -- ./inp_files/11834.got.cif
#   From: 2010.05.17/outbox.cif.g08.bks.cpg/sg74_6_cif.got.tgz:11834.got - 2010.06.03 17:57:02.
