data_PCOD9538808
_publ_section_title
;
Structure prediction by ZEFSAII (Michael W. Deem and Ramdas Pophale) SiO2 
 PCOD9538808
Probable space group: I M M A
;
_chemical_formula_sum "Si O2"
_cell_formula_units_Z 100
_cell_length_a 8.936365
_cell_length_b 19.312342
_cell_length_c 33.383914
_cell_angle_alpha 90.000000
_cell_angle_beta 90.000000
_cell_angle_gamma 90.000000
_cell_volume 5761.467223
_symmetry_space_group_name_H-M "I M M A"
_symmetry_group_IT_number 74
_symmetry_cell_setting 'orthorhombic'
loop_
_space_group_symop_operation_xyz
x,y,z
-x,1/2-y,z
x,-y,-z
-x,1/2+y,-z
-x,-y,-z
x,1/2+y,-z
-x,y,z
x,1/2-y,z
1/2+x,1/2+y,1/2+z
1/2-x,-y,1/2+z
1/2+x,1/2-y,1/2-z
1/2-x,y,1/2-z
1/2-x,1/2-y,1/2-z
1/2+x,y,1/2-z
1/2-x,1/2+y,1/2+z
1/2+x,-y,1/2+z
loop_
_atom_site_type_symbol
_atom_site_label
_atom_site_fract_x
_atom_site_fract_y
_atom_site_fract_z
Si Si1 0.820342 0.561446 0.127300
Si Si2 0.178330 0.476252 0.708744
Si Si3 0.750000 0.750000 0.750000
Si Si4 0.179299 0.624663 0.810881
Si Si5 0.677519 0.405239 0.400264
Si Si6 0.178299 0.330861 0.475089
Si Si7 0.680038 0.669644 0.440693
O O1 0.737491 0.563887 0.169708
O O2 0.789177 0.486050 0.107980
O O3 0.776302 0.620881 0.096165
O O4 0.000000 0.564559 0.134059
O O5 0.250000 0.450004 0.750000
O O6 0.236798 0.555164 0.702858
O O7 0.000000 0.475666 0.710929
O O8 0.774421 0.810689 0.784192
O O9 0.211205 0.633185 0.858206
O O10 0.000000 0.613643 0.806720
O O11 0.500000 0.398919 0.407655
O O12 0.763972 0.374555 0.437694
O O13 0.221115 0.250000 0.469214
O O14 0.249473 0.353494 0.517257
O O15 0.000000 0.334868 0.477826
O O16 0.500000 0.666312 0.444246
O O17 0.722354 0.750000 0.434046
#
# Coordination Sequence:
#
# PCOD9538808 Si02
#       7
#    16  16   4  16  16  16  16
#     4   9  19  36  57  82 110 137 173 220 267 317
#     4  11  21  35  56  78 105 140 178 217 262 313
#     4  12  22  32  56  78 106 144 188 236 282 320
#     4  10  22  37  52  75 105 140 184 230 275 317
#     4   9  19  35  54  74 102 141 181 222 265 316
#     4  10  21  35  50  73 107 143 179 223 270 313
#     4   9  18  35  60  85 107 137 174 211 260 326
#
# _framework density 17.35669
#
# number of rings (size 3 to 8) (size 9 to 14) (size 15 to 20)
#    0.000    2.240    0.800    3.120    1.120    5.440 
#    0.000    3.200    0.000    0.480    0.000    0.000 
#    0.000    0.000    0.000    0.000    0.000    0.000 
#
# Total GULP energy -278503.737707 kJ/mol
# GULP energy per Si atom -5570.074754 kJ/mol
# Density = 1.731719 g / cm^3
# Si number density = 17.356690 Si / 1000 Ang^3
#
#
#
# Elastic Constant Matrix: (Units=GPa)
#
#
# Indices 1 2 3 4 5 6 
#
# 1 43.1095 37.2008 73.8632 0.0000 0.0000 0.0000
# 2 37.2008 59.0071 78.5155 0.0000 0.0000 0.0000
# 3 73.8632 78.5155 190.4715 0.0000 0.0000 0.0000
# 4 0.0000 0.0000 0.0000 29.6808 0.0000 0.0000
# 5 0.0000 0.0000 0.0000 0.0000 30.3819 0.0000
# 6 0.0000 0.0000 0.0000 0.0000 0.0000 12.1336
#
#
#
# Elastic Compliance Matrix: (Units=1/GPa)
#
#
# Indices 1 2 3 4 5 6 
#
# 1 0.078406 -0.019875 -0.022213 0.000000 0.000000 0.000000
# 2 -0.019875 0.042573 -0.009842 0.000000 0.000000 0.000000
# 3 -0.022213 -0.009842 0.017921 0.000000 0.000000 0.000000
# 4 0.000000 0.000000 0.000000 0.033692 0.000000 0.000000
# 5 0.000000 0.000000 0.000000 0.000000 0.032914 0.000000
# 6 0.000000 0.000000 0.000000 0.000000 0.000000 0.082416
#
#
# Mechanical properties :
#
#
# Convention : Reuss Voigt Hill
#
# Bulk Modulus (GPa) = 28.53751 74.63856 51.58804
# Shear Modulus (GPa) = 12.39277 21.30651 16.84964
#
# Velocity S-wave (km/s) = 2.67499 3.50747 3.11912
# Velocity P-wave (km/s) = 5.10081 7.71357 6.53902
#
# Compressibility (1/GPa) = 0.03504160
#
# Stress axis : x y z
#
# Youngs Moduli (GPa) = 12.75414 23.48904 55.80038
#
# Poissons Ratio (x) = 0.46683 1.23947
# Poissons Ratio (y) = 0.25348 0.54919
# Poissons Ratio (z) = 0.28330 0.23118
#
# Static dielectric constant tensor:
#      x y z
#    x 1.588120 0.000000 0.000000 
#    y 0.000000 1.572700 0.000000 
#    z 0.000000 0.000000 1.586100 
# 
# From -- ./inp_files/64510.got.cif
#   From: 2010.05.17/outbox.cif.g08.bks.cpg/sg74_33_cif.got.tgz:64510.got - 2010.06.03 17:57:02.
