data_PCOD9538397
_publ_section_title
;
Structure prediction by ZEFSAII (Michael W. Deem and Ramdas Pophale) SiO2 
 PCOD9538397
Probable space group: I M M A
;
_chemical_formula_sum "Si O2"
_cell_formula_units_Z 116
_cell_length_a 23.247592
_cell_length_b 9.431189
_cell_length_c 28.986806
_cell_angle_alpha 90.000000
_cell_angle_beta 90.000000
_cell_angle_gamma 90.000000
_cell_volume 6355.427768
_symmetry_space_group_name_H-M "I M M A"
_symmetry_group_IT_number 74
_symmetry_cell_setting 'orthorhombic'
loop_
_space_group_symop_operation_xyz
x,y,z
-x,1/2-y,z
x,-y,-z
-x,1/2+y,-z
-x,-y,-z
x,1/2+y,-z
-x,y,z
x,1/2-y,z
1/2+x,1/2+y,1/2+z
1/2-x,-y,1/2+z
1/2+x,1/2-y,1/2-z
1/2-x,y,1/2-z
1/2-x,1/2-y,1/2-z
1/2+x,y,1/2-z
1/2-x,1/2+y,1/2+z
1/2+x,-y,1/2+z
loop_
_atom_site_type_symbol
_atom_site_label
_atom_site_fract_x
_atom_site_fract_y
_atom_site_fract_z
Si Si1 0.163680 0.414323 0.356806
Si Si2 0.622557 0.089555 0.305911
Si Si3 0.064038 0.585762 0.120167
Si Si4 0.238356 0.587565 0.195220
Si Si5 0.283229 0.920068 0.952322
Si Si6 0.563937 0.037995 0.210166
Si Si7 0.333695 0.579494 0.452067
Si Si8 0.500000 0.250000 0.779755
O O1 0.179518 0.250000 0.347984
O O2 0.208642 0.513863 0.330331
O O3 0.171008 0.438035 0.411400
O O4 0.100845 0.439547 0.335777
O O5 0.573945 0.015436 0.336620
O O6 0.680043 0.998882 0.312492
O O7 0.549597 0.873963 0.218747
O O8 0.601750 0.089449 0.253130
O O9 0.068155 0.750000 0.135565
O O10 0.114184 0.560696 0.083363
O O11 0.000000 0.565361 0.100617
O O12 0.231428 0.750000 0.179613
O O13 0.250000 0.586805 0.250000
O O14 0.274304 0.750000 0.959396
O O15 0.224342 0.998719 0.936284
O O16 0.298423 0.000000 0.000000
O O17 0.500000 0.102512 0.208240
O O18 0.632542 0.250000 0.321151
O O19 0.347880 0.500000 0.500000
O O20 0.324466 0.750000 0.457935
#
# Coordination Sequence:
#
# PCOD9538397 Si02
#       8
#    16  16  16  16  16  16  16   4
#     4  11  23  39  61  88 123 153 189 240 294 342
#     4  12  24  37  57  82 117 153 194 240 291 338
#     4  10  23  39  57  79 111 152 197 241 287 341
#     4  11  24  36  57  84 116 155 196 235 284 344
#     4  10  21  38  60  89 116 149 185 231 290 347
#     4  10  23  39  60  83 114 153 198 235 279 333
#     4  10  20  37  59  84 109 145 187 236 292 346
#     4   8  24  40  58  86 114 152 206 236 276 336
#
# _framework density 18.252115
#
# number of rings (size 3 to 8) (size 9 to 14) (size 15 to 20)
#    0.414    1.103    1.379    4.138    2.897    7.172 
#    0.000    0.000    0.000    0.414    0.000    0.000 
#    0.000    0.000    0.000    0.000    0.000    0.000 
#
# Total GULP energy -323188.001747 kJ/mol
# GULP energy per Si atom -5572.206927 kJ/mol
# Density = 1.821057 g / cm^3
# Si number density = 18.252115 Si / 1000 Ang^3
#
#
#
# Elastic Constant Matrix: (Units=GPa)
#
#
# Indices 1 2 3 4 5 6 
#
# 1 73.6574 27.0355 21.4772 0.0000 0.0000 0.0000
# 2 27.0355 129.0752 21.3251 0.0000 0.0000 0.0000
# 3 21.4772 21.3251 50.5622 0.0000 0.0000 0.0000
# 4 0.0000 0.0000 0.0000 -12.6277 0.0000 0.0000
# 5 0.0000 0.0000 0.0000 0.0000 16.6990 0.0000
# 6 0.0000 0.0000 0.0000 0.0000 0.0000 35.9920
#
#
#
# Elastic Compliance Matrix: (Units=1/GPa)
#
#
# Indices 1 2 3 4 5 6 
#
# 1 0.016170 -0.002421 -0.005847 0.000000 0.000000 0.000000
# 2 -0.002421 0.008690 -0.002637 0.000000 0.000000 0.000000
# 3 -0.005847 -0.002637 0.023374 0.000000 0.000000 0.000000
# 4 0.000000 0.000000 0.000000 -0.079191 0.000000 0.000000
# 5 0.000000 0.000000 0.000000 0.000000 0.059884 0.000000
# 6 0.000000 0.000000 0.000000 0.000000 0.000000 0.027784
#
#
# Mechanical properties :
#
#
# Convention : Reuss Voigt Hill
#
# Bulk Modulus (GPa) = 37.84533 43.66338 40.75435
# Shear Modulus (GPa) = 57.25541 20.24314 38.74928
#
# Velocity S-wave (km/s) = 5.60690 3.33391 4.61260
# Velocity P-wave (km/s) = 7.91809 6.22850 7.12357
#
# Compressibility (1/GPa) = 0.02642334
#
# Stress axis : x y z
#
# Youngs Moduli (GPa) = 61.84325 115.07325 42.78342
#
# Poissons Ratio (x) = 0.27857 0.25017
# Poissons Ratio (y) = 0.14971 0.11281
# Poissons Ratio (z) = 0.36163 0.30343
#
# Static dielectric constant tensor:
#      x y z
#    x 1.624790 0.000000 0.000000 
#    y 0.000000 1.636320 0.000000 
#    z 0.000000 0.000000 1.638700 
# 
# From -- ./inp_files/68720.got.cif
#   From: 2010.05.17/outbox.cif.g08.bks.cpg/sg74_35_cif.got.tgz:68720.got - 2010.06.03 17:57:02.
