data_PCOD9538804
_publ_section_title
;
Structure prediction by ZEFSAII (Michael W. Deem and Ramdas Pophale) SiO2 
 PCOD9538804
Probable space group: I M M A
;
_chemical_formula_sum "Si O2"
_cell_formula_units_Z 80
_cell_length_a 15.390803
_cell_length_b 9.720670
_cell_length_c 26.790955
_cell_angle_alpha 90.000000
_cell_angle_beta 90.000000
_cell_angle_gamma 90.000000
_cell_volume 4008.165763
_symmetry_space_group_name_H-M "I M M A"
_symmetry_group_IT_number 74
_symmetry_cell_setting 'orthorhombic'
loop_
_space_group_symop_operation_xyz
x,y,z
-x,1/2-y,z
x,-y,-z
-x,1/2+y,-z
-x,-y,-z
x,1/2+y,-z
-x,y,z
x,1/2-y,z
1/2+x,1/2+y,1/2+z
1/2-x,-y,1/2+z
1/2+x,1/2-y,1/2-z
1/2-x,y,1/2-z
1/2-x,1/2-y,1/2-z
1/2+x,y,1/2-z
1/2-x,1/2+y,1/2+z
1/2+x,-y,1/2+z
loop_
_atom_site_type_symbol
_atom_site_label
_atom_site_fract_x
_atom_site_fract_y
_atom_site_fract_z
Si Si1 0.604182 0.594283 0.843927
Si Si2 0.646732 0.404761 0.750866
Si Si3 0.606309 0.091465 0.452237
Si Si4 0.894053 0.589558 0.546079
Si Si5 0.396412 0.092763 0.639546
O O1 0.500000 0.602893 0.847431
O O2 0.637468 0.750000 0.836319
O O3 0.623393 0.498957 0.797279
O O4 0.634515 0.543504 0.898518
O O5 0.610380 0.250000 0.756842
O O6 0.750000 0.395948 0.750000
O O7 0.618606 0.455694 0.696191
O O8 0.500000 0.095377 0.451748
O O9 0.635758 0.250000 0.454900
O O10 0.631280 0.000000 0.500000
O O11 0.636115 0.012339 0.402315
O O12 0.861220 0.500000 0.500000
O O13 0.871438 0.750000 0.540466
O O14 0.000000 0.582272 0.545127
O O15 0.500000 0.102045 0.632164
O O16 0.361424 0.250000 0.634884
#
# Coordination Sequence:
#
# PCOD9538804 Si02
#       5
#    16  16  16  16  16
#     4   9  18  32  50  73 100 128 161 202 243 285
#     4  10  21  35  50  70  97 129 165 204 245 289
#     4   9  16  26  43  69  98 124 151 187 233 283
#     4   8  14  25  42  67  97 124 151 188 234 281
#     4   9  17  30  48  69  94 124 158 197 238 280
#
# _framework density 19.959254000000001
#
# number of rings (size 3 to 8) (size 9 to 14) (size 15 to 20)
#    0.000    3.000    0.000    2.400    0.000    5.600 
#    0.000    4.000    0.000    1.200    0.000    2.800 
#    0.000    0.000    0.000    0.000    0.000    0.000 
#
# Total GULP energy -223015.691108 kJ/mol
# GULP energy per Si atom -5575.392278 kJ/mol
# Density = 1.991383 g / cm^3
# Si number density = 19.959254 Si / 1000 Ang^3
#
#
#
# Elastic Constant Matrix: (Units=GPa)
#
#
# Indices 1 2 3 4 5 6 
#
# 1 21.6511 4.0448 1.7407 0.0000 0.0000 0.0000
# 2 4.0448 120.5432 137.5521 0.0000 0.0000 0.0000
# 3 1.7407 137.5521 241.1140 0.0000 0.0000 0.0000
# 4 0.0000 0.0000 0.0000 51.6952 0.0000 0.0000
# 5 0.0000 0.0000 0.0000 0.0000 -41.1205 0.0000
# 6 0.0000 0.0000 0.0000 0.0000 0.0000 5.7311
#
#
#
# Elastic Compliance Matrix: (Units=1/GPa)
#
#
# Indices 1 2 3 4 5 6 
#
# 1 0.046691 -0.003387 0.001595 0.000000 0.000000 0.000000
# 2 -0.003387 0.024015 -0.013676 0.000000 0.000000 0.000000
# 3 0.001595 -0.013676 0.011938 0.000000 0.000000 0.000000
# 4 0.000000 0.000000 0.000000 0.019344 0.000000 0.000000
# 5 0.000000 0.000000 0.000000 0.000000 -0.024319 0.000000
# 6 0.000000 0.000000 0.000000 0.000000 0.000000 0.174486
#
#
# Mechanical properties :
#
#
# Convention : Reuss Voigt Hill
#
# Bulk Modulus (GPa) = 19.33898 74.44261 46.89079
# Shear Modulus (GPa) = 16.64859 19.25921 17.95390
#
# Velocity S-wave (km/s) = 2.89126 3.10970 3.00247
# Velocity P-wave (km/s) = 4.56685 7.09027 5.96356
#
# Compressibility (1/GPa) = 0.05170904
#
# Stress axis : x y z
#
# Youngs Moduli (GPa) = 21.41719 41.64124 83.76877
#
# Poissons Ratio (x) = 0.14103 -0.13362
# Poissons Ratio (y) = 0.07254 1.14559
# Poissons Ratio (z) = -0.03416 0.56947
#
# Static dielectric constant tensor:
#      x y z
#    x 1.717390 0.000000 0.000000 
#    y 0.000000 1.699700 0.000000 
#    z 0.000000 0.000000 1.706890 
# 
# From -- ./inp_files/67511.got.cif
#   From: 2010.05.17/outbox.cif.g08.bks.cpg/sg74_34_cif.got.tgz:67511.got - 2010.06.03 17:57:02.
