data_PCOD9538987
_publ_section_title
;
Structure prediction by ZEFSAII (Michael W. Deem and Ramdas Pophale) SiO2 
 PCOD9538987
Probable space group: I M M A
;
_chemical_formula_sum "Si O2"
_cell_formula_units_Z 80
_cell_length_a 15.227017
_cell_length_b 10.749330
_cell_length_c 27.420336
_cell_angle_alpha 90.000000
_cell_angle_beta 90.000000
_cell_angle_gamma 90.000000
_cell_volume 4488.166921
_symmetry_space_group_name_H-M "I M M A"
_symmetry_group_IT_number 74
_symmetry_cell_setting 'orthorhombic'
loop_
_space_group_symop_operation_xyz
x,y,z
-x,1/2-y,z
x,-y,-z
-x,1/2+y,-z
-x,-y,-z
x,1/2+y,-z
-x,y,z
x,1/2-y,z
1/2+x,1/2+y,1/2+z
1/2-x,-y,1/2+z
1/2+x,1/2-y,1/2-z
1/2-x,y,1/2-z
1/2-x,1/2-y,1/2-z
1/2+x,y,1/2-z
1/2-x,1/2+y,1/2+z
1/2+x,-y,1/2+z
loop_
_atom_site_type_symbol
_atom_site_label
_atom_site_fract_x
_atom_site_fract_y
_atom_site_fract_z
Si Si1 0.104746 0.999248 0.942406
Si Si2 0.000000 0.388681 0.820328
Si Si3 0.108618 0.250000 0.233420
Si Si4 0.685426 0.604725 0.357539
Si Si5 0.316269 0.491205 0.210019
Si Si6 0.000000 0.113624 0.704023
Si Si7 0.894801 0.250000 0.118546
O O1 0.126356 0.870003 0.914700
O O2 0.000000 0.024758 0.934989
O O3 0.165288 0.098015 0.914651
O O4 0.119275 0.000000 0.000000
O O5 0.907566 0.444089 0.835246
O O6 0.000000 0.379981 0.762756
O O7 0.000000 0.250000 0.842251
O O8 0.151457 0.367147 0.261834
O O9 0.134607 0.250000 0.175714
O O10 0.000000 0.250000 0.236980
O O11 0.701216 0.750000 0.342823
O O12 0.757450 0.508971 0.338061
O O13 0.250000 0.554697 0.250000
O O14 0.407917 0.550707 0.193994
O O15 0.000000 0.250000 0.682270
O O16 0.000000 0.250000 0.123273
#
# Coordination Sequence:
#
# PCOD9538987 Si02
#       7
#    16   8   8  16  16   8   8
#     4  10  21  36  57  83 117 156 202 254 303 357
#     4   9  18  32  50  76 112 157 189 230 278 345
#     4  11  23  41  61  84 121 169 204 244 299 365
#     4  11  22  35  56  85 118 159 203 245 295 351
#     4  12  23  36  57  83 117 157 205 244 290 355
#     4  11  22  35  53  78 119 156 195 241 294 346
#     4   9  20  35  55  81 110 155 204 243 295 354
#
# _framework density 17.824648
#
# number of rings (size 3 to 8) (size 9 to 14) (size 15 to 20)
#    0.000    1.400    4.000    2.100    1.400    1.600 
#    0.000    0.000    0.000    0.000    0.000    0.700 
#    0.000    0.000    0.000    0.000    0.000    0.000 
#
# Total GULP energy -222703.074231 kJ/mol
# GULP energy per Si atom -5567.576856 kJ/mol
# Density = 1.778408 g / cm^3
# Si number density = 17.824648 Si / 1000 Ang^3
#
#
#
# Elastic Constant Matrix: (Units=GPa)
#
#
# Indices 1 2 3 4 5 6 
#
# 1 135.1593 39.7337 49.0948 0.0000 0.0000 0.0000
# 2 39.7337 90.9304 44.8948 0.0000 0.0000 0.0000
# 3 49.0948 44.8948 115.5042 0.0000 0.0000 0.0000
# 4 0.0000 0.0000 0.0000 14.3490 0.0000 0.0000
# 5 0.0000 0.0000 0.0000 0.0000 25.8347 0.0000
# 6 0.0000 0.0000 0.0000 0.0000 0.0000 15.5889
#
#
#
# Elastic Compliance Matrix: (Units=1/GPa)
#
#
# Indices 1 2 3 4 5 6 
#
# 1 0.009218 -0.002591 -0.002911 0.000000 0.000000 0.000000
# 2 -0.002591 0.014337 -0.004472 0.000000 0.000000 0.000000
# 3 -0.002911 -0.004472 0.011633 0.000000 0.000000 0.000000
# 4 0.000000 0.000000 0.000000 0.069691 0.000000 0.000000
# 5 0.000000 0.000000 0.000000 0.000000 0.038708 0.000000
# 6 0.000000 0.000000 0.000000 0.000000 0.000000 0.064148
#
#
# Mechanical properties :
#
#
# Convention : Reuss Voigt Hill
#
# Bulk Modulus (GPa) = 65.60997 67.67116 66.64056
# Shear Modulus (GPa) = 21.48120 25.01256 23.24688
#
# Velocity S-wave (km/s) = 3.47528 3.75007 3.61529
# Velocity P-wave (km/s) = 7.27955 7.53645 7.40911
#
# Compressibility (1/GPa) = 0.01524159
#
# Stress axis : x y z
#
# Youngs Moduli (GPa) = 108.48772 69.74898 85.96209
#
# Poissons Ratio (x) = 0.18069 0.25024
# Poissons Ratio (y) = 0.28104 0.38438
# Poissons Ratio (z) = 0.31581 0.31188
#
# Static dielectric constant tensor:
#      x y z
#    x 2.262770 0.000000 0.000000 
#    y 0.000000 1.748890 0.000000 
#    z 0.000000 0.000000 1.630410 
# 
# From -- ./inp_files/59768.got.cif
#   From: 2010.05.17/outbox.cif.g08.bks.cpg/sg74_30_cif.got.tgz:59768.got - 2010.06.03 17:57:02.
