data_PCOD9538495
_publ_section_title
;
Structure prediction by ZEFSAII (Michael W. Deem and Ramdas Pophale) SiO2 
 PCOD9538495
Probable space group: I M M A
;
_chemical_formula_sum "Si O2"
_cell_formula_units_Z 88
_cell_length_a 26.857678
_cell_length_b 14.407473
_cell_length_c 11.219651
_cell_angle_alpha 90.000000
_cell_angle_beta 90.000000
_cell_angle_gamma 90.000000
_cell_volume 4341.458210
_symmetry_space_group_name_H-M "I M M A"
_symmetry_group_IT_number 74
_symmetry_cell_setting 'orthorhombic'
loop_
_space_group_symop_operation_xyz
x,y,z
-x,1/2-y,z
x,-y,-z
-x,1/2+y,-z
-x,-y,-z
x,1/2+y,-z
-x,y,z
x,1/2-y,z
1/2+x,1/2+y,1/2+z
1/2-x,-y,1/2+z
1/2+x,1/2-y,1/2-z
1/2-x,y,1/2-z
1/2-x,1/2-y,1/2-z
1/2+x,y,1/2-z
1/2-x,1/2+y,1/2+z
1/2+x,-y,1/2+z
loop_
_atom_site_type_symbol
_atom_site_label
_atom_site_fract_x
_atom_site_fract_y
_atom_site_fract_z
Si Si1 0.594976 0.646051 0.635914
Si Si2 0.000000 0.635772 0.721961
Si Si3 0.388913 0.140080 0.895410
Si Si4 0.000000 0.136228 0.554226
Si Si5 0.802925 0.536160 0.253258
Si Si6 0.669903 0.852949 0.858104
Si Si7 0.349192 0.000000 0.500000
O O1 0.582774 0.750000 0.596769
O O2 0.547809 0.604988 0.704357
O O3 0.636544 0.651059 0.739276
O O4 0.615644 0.586755 0.528446
O O5 0.000000 0.750000 0.718398
O O6 0.000000 0.606930 0.584631
O O7 0.388481 0.250000 0.868693
O O8 0.446533 0.107655 0.891553
O O9 0.349934 0.087825 0.811460
O O10 0.366624 0.130467 0.029677
O O11 0.000000 0.250000 0.555560
O O12 0.750000 0.587592 0.250000
O O13 0.796090 0.442125 0.332835
O O14 0.817154 0.515275 0.117635
O O15 0.693325 0.750000 0.874488
#
# Coordination Sequence:
#
# PCOD9538495 Si02
#       7
#    16   8  16   8  16  16   8
#     4   9  17  33  57  84 117 154 196 241 294 357
#     4   9  14  27  57  91 117 155 197 245 303 350
#     4  10  20  37  64  97 129 157 195 252 318 379
#     4   9  16  32  62  97 130 157 196 255 311 366
#     4  11  25  41  62  84 122 164 209 258 311 363
#     4   9  18  36  62  89 117 151 197 256 310 359
#     4  10  24  41  54  80 114 161 202 248 296 362
#
# _framework density 20.269687000000001
#
# number of rings (size 3 to 8) (size 9 to 14) (size 15 to 20)
#    0.000    2.364    1.818    0.545    2.545    1.818 
#    0.000    6.364    0.000    3.273    0.000    0.000 
#    0.000    0.000    0.000    0.000    0.000    0.000 
#
# Total GULP energy -245388.078332 kJ/mol
# GULP energy per Si atom -5577.001780 kJ/mol
# Density = 2.022355 g / cm^3
# Si number density = 20.269687 Si / 1000 Ang^3
#
#
#
# Elastic Constant Matrix: (Units=GPa)
#
#
# Indices 1 2 3 4 5 6 
#
# 1 133.5175 41.8097 46.3889 0.0000 0.0000 0.0000
# 2 41.8097 51.7672 42.8665 0.0000 0.0000 0.0000
# 3 46.3889 42.8665 79.6304 0.0000 0.0000 0.0000
# 4 0.0000 0.0000 0.0000 29.6269 0.0000 0.0000
# 5 0.0000 0.0000 0.0000 0.0000 24.2686 0.0000
# 6 0.0000 0.0000 0.0000 0.0000 0.0000 6.1482
#
#
#
# Elastic Compliance Matrix: (Units=1/GPa)
#
#
# Indices 1 2 3 4 5 6 
#
# 1 0.010351 -0.006074 -0.002760 0.000000 0.000000 0.000000
# 2 -0.006074 0.038418 -0.017143 0.000000 0.000000 0.000000
# 3 -0.002760 -0.017143 0.023394 0.000000 0.000000 0.000000
# 4 0.000000 0.000000 0.000000 0.033753 0.000000 0.000000
# 5 0.000000 0.000000 0.000000 0.000000 0.041205 0.000000
# 6 0.000000 0.000000 0.000000 0.000000 0.000000 0.162650
#
#
# Mechanical properties :
#
#
# Convention : Reuss Voigt Hill
#
# Bulk Modulus (GPa) = 49.48234 58.56062 54.02148
# Shear Modulus (GPa) = 13.56992 20.93206 17.25099
#
# Velocity S-wave (km/s) = 2.59022 3.21702 2.92048
# Velocity P-wave (km/s) = 5.78019 6.53853 6.17102
#
# Compressibility (1/GPa) = 0.02020923
#
# Stress axis : x y z
#
# Youngs Moduli (GPa) = 96.61218 26.02919 42.74599
#
# Poissons Ratio (x) = 0.15811 0.11797
# Poissons Ratio (y) = 0.58686 0.73278
# Poissons Ratio (z) = 0.26664 0.44621
#
# Static dielectric constant tensor:
#      x y z
#    x 1.727920 0.000000 0.000000 
#    y 0.000000 1.813050 0.000000 
#    z 0.000000 0.000000 1.667130 
# 
# From -- ./inp_files/26203.got.cif
#   From: 2010.05.17/outbox.cif.g08.bks.cpg/sg74_14_cif.got.tgz:26203.got - 2010.06.03 17:57:02.
