data_PCOD9538633
_publ_section_title
;
Structure prediction by ZEFSAII (Michael W. Deem and Ramdas Pophale) SiO2 
 PCOD9538633
Probable space group: I M M A
;
_chemical_formula_sum "Si O2"
_cell_formula_units_Z 48
_cell_length_a 16.592951
_cell_length_b 16.390597
_cell_length_c 7.589422
_cell_angle_alpha 90.000000
_cell_angle_beta 90.000000
_cell_angle_gamma 90.000000
_cell_volume 2064.082752
_symmetry_space_group_name_H-M "I M M A"
_symmetry_group_IT_number 74
_symmetry_cell_setting 'orthorhombic'
loop_
_space_group_symop_operation_xyz
x,y,z
-x,1/2-y,z
x,-y,-z
-x,1/2+y,-z
-x,-y,-z
x,1/2+y,-z
-x,y,z
x,1/2-y,z
1/2+x,1/2+y,1/2+z
1/2-x,-y,1/2+z
1/2+x,1/2-y,1/2-z
1/2-x,y,1/2-z
1/2-x,1/2-y,1/2-z
1/2+x,y,1/2-z
1/2-x,1/2+y,1/2+z
1/2+x,-y,1/2+z
loop_
_atom_site_type_symbol
_atom_site_label
_atom_site_fract_x
_atom_site_fract_y
_atom_site_fract_z
Si Si1 0.644138 0.250000 0.565341
Si Si2 0.000000 0.837538 0.112132
Si Si3 0.824330 0.750000 0.486149
Si Si4 0.000000 0.508320 0.709255
Si Si5 0.334384 0.926636 0.854900
O O1 0.585478 0.324901 0.518396
O O2 0.728710 0.250000 0.473002
O O3 0.663375 0.250000 0.774520
O O4 0.000000 0.750000 0.219187
O O5 0.000000 0.918587 0.215456
O O6 0.853099 0.662435 0.559243
O O7 0.000000 0.500000 0.500000
O O8 0.085306 0.548935 0.752957
O O9 0.250000 0.923135 0.750000
O O10 0.324556 0.000000 0.000000
#
# Coordination Sequence:
#
# PCOD9538633 Si02
#       5
#     8   8   8   8  16
#     4   8  18  32  64  90 112 171 203 266 304 405
#     4   8  18  32  57  86 124 149 219 251 333 367
#     4  11  21  38  62  88 133 159 221 249 339 369
#     4  10  20  39  59  92 126 160 215 262 316 386
#     4  11  26  41  65  94 129 168 217 268 327 388
#
# _framework density 23.254881999999998
#
# number of rings (size 3 to 8) (size 9 to 14) (size 15 to 20)
#    1.000    1.000    0.000    4.500    9.333    0.667 
#    0.000    4.167    0.000    0.000    0.000    0.000 
#    0.000    0.000    0.000    0.000    0.000    0.000 
#
# Total GULP energy -133697.153349 kJ/mol
# GULP energy per Si atom -5570.714723 kJ/mol
# Density = 2.320195 g / cm^3
# Si number density = 23.254882 Si / 1000 Ang^3
#
#
#
# Elastic Constant Matrix: (Units=GPa)
#
#
# Indices 1 2 3 4 5 6 
#
# 1 153.9533 34.9649 6.8393 0.0000 0.0000 0.0000
# 2 34.9649 227.5387 65.7991 0.0000 0.0000 0.0000
# 3 6.8393 65.7991 52.5695 0.0000 0.0000 0.0000
# 4 0.0000 0.0000 0.0000 46.3542 0.0000 0.0000
# 5 0.0000 0.0000 0.0000 0.0000 19.7227 0.0000
# 6 0.0000 0.0000 0.0000 0.0000 0.0000 -16.5370
#
#
#
# Elastic Compliance Matrix: (Units=1/GPa)
#
#
# Indices 1 2 3 4 5 6 
#
# 1 0.006745 -0.001227 0.000658 0.000000 0.000000 0.000000
# 2 -0.001227 0.007111 -0.008741 0.000000 0.000000 0.000000
# 3 0.000658 -0.008741 0.029878 0.000000 0.000000 0.000000
# 4 0.000000 0.000000 0.000000 0.021573 0.000000 0.000000
# 5 0.000000 0.000000 0.000000 0.000000 0.050703 0.000000
# 6 0.000000 0.000000 0.000000 0.000000 0.000000 -0.060471
#
#
# Mechanical properties :
#
#
# Convention : Reuss Voigt Hill
#
# Bulk Modulus (GPa) = 39.81860 72.14092 55.97976
# Shear Modulus (GPa) = 60.58388 31.67185 46.12787
#
# Velocity S-wave (km/s) = 5.10966 3.69446 4.45857
# Velocity P-wave (km/s) = 7.20912 7.02053 7.11545
#
# Compressibility (1/GPa) = 0.02511389
#
# Stress axis : x y z
#
# Youngs Moduli (GPa) = 148.26126 140.62570 33.46981
#
# Poissons Ratio (x) = 0.17251 -0.02202
# Poissons Ratio (y) = 0.18187 0.29256
# Poissons Ratio (z) = -0.09754 1.22922
#
# Static dielectric constant tensor:
#      x y z
#    x 1.973970 0.000000 0.000000 
#    y 0.000000 1.858570 0.000000 
#    z 0.000000 0.000000 2.016160 
# 
# From -- ./inp_files/8169.got.cif
#   From: 2010.05.17/outbox.cif.g08.bks.cpg/sg74_5_cif.got.tgz:8169.got - 2010.06.03 17:57:02.
