data_PCOD9538161
_publ_section_title
;
Structure prediction by ZEFSAII (Michael W. Deem and Ramdas Pophale) SiO2 
 PCOD9538161
Probable space group: I M M A
;
_chemical_formula_sum "Si O2"
_cell_formula_units_Z 72
_cell_length_a 20.410996
_cell_length_b 7.603595
_cell_length_c 21.305605
_cell_angle_alpha 90.000000
_cell_angle_beta 90.000000
_cell_angle_gamma 90.000000
_cell_volume 3306.564853
_symmetry_space_group_name_H-M "I M M A"
_symmetry_group_IT_number 74
_symmetry_cell_setting 'orthorhombic'
loop_
_space_group_symop_operation_xyz
x,y,z
-x,1/2-y,z
x,-y,-z
-x,1/2+y,-z
-x,-y,-z
x,1/2+y,-z
-x,y,z
x,1/2-y,z
1/2+x,1/2+y,1/2+z
1/2-x,-y,1/2+z
1/2+x,1/2-y,1/2-z
1/2-x,y,1/2-z
1/2-x,1/2-y,1/2-z
1/2+x,y,1/2-z
1/2-x,1/2+y,1/2+z
1/2+x,-y,1/2+z
loop_
_atom_site_type_symbol
_atom_site_label
_atom_site_fract_x
_atom_site_fract_y
_atom_site_fract_z
Si Si1 0.000000 0.951741 0.268457
Si Si2 0.145041 0.538348 0.570367
Si Si3 0.247301 0.535402 0.676799
Si Si4 0.393360 0.962524 0.664955
Si Si5 0.000000 0.551268 0.592444
Si Si6 0.500000 0.040103 0.428398
O O1 0.000000 0.750000 0.287392
O O2 0.064780 0.986693 0.226568
O O3 0.000000 0.059557 0.332046
O O4 0.170707 0.500000 0.500000
O O5 0.141697 0.750000 0.577208
O O6 0.190831 0.475201 0.628366
O O7 0.070076 0.469287 0.574335
O O8 0.242953 0.750000 0.677195
O O9 0.250000 0.481315 0.750000
O O10 0.319478 0.479151 0.655582
O O11 0.391363 0.750000 0.666598
O O12 0.436789 0.027716 0.607515
O O13 0.000000 0.750000 0.566176
O O14 0.500000 0.250000 0.419897
O O15 0.500000 0.000000 0.500000
#
# Coordination Sequence:
#
# PCOD9538161 Si02
#       6
#     8  16  16  16   8   8
#     4  11  21  32  52  83 110 133 170 224 279 319
#     4  10  21  36  56  82 110 144 184 226 272 320
#     4   9  17  32  56  81 103 135 182 224 258 311
#     4   9  18  34  53  73 102 139 176 214 262 325
#     4  10  20  36  57  77 104 146 187 217 257 321
#     4   9  18  30  46  68  94 129 169 207 251 304
#
# _framework density 21.774864000000001
#
# number of rings (size 3 to 8) (size 9 to 14) (size 15 to 20)
#    0.000    2.444    0.000    3.333    0.000    7.111 
#    0.000    1.111    0.000    2.667    0.000    0.000 
#    0.000    0.000    0.000    0.000    0.000    0.000 
#
# Total GULP energy -200807.690393 kJ/mol
# GULP energy per Si atom -5577.991400 kJ/mol
# Density = 2.172530 g / cm^3
# Si number density = 21.774864 Si / 1000 Ang^3
#
#
#
# Elastic Constant Matrix: (Units=GPa)
#
#
# Indices 1 2 3 4 5 6 
#
# 1 176.5944 12.9627 80.2592 0.0000 0.0000 0.0000
# 2 12.9627 55.0802 -4.4360 0.0000 0.0000 0.0000
# 3 80.2592 -4.4360 158.8678 0.0000 0.0000 0.0000
# 4 0.0000 0.0000 0.0000 21.7084 0.0000 0.0000
# 5 0.0000 0.0000 0.0000 0.0000 -0.5331 0.0000
# 6 0.0000 0.0000 0.0000 0.0000 0.0000 -2.9898
#
#
#
# Elastic Compliance Matrix: (Units=1/GPa)
#
#
# Indices 1 2 3 4 5 6 
#
# 1 0.007585 -0.002098 -0.003890 0.000000 0.000000 0.000000
# 2 -0.002098 0.018777 0.001584 0.000000 0.000000 0.000000
# 3 -0.003890 0.001584 0.008304 0.000000 0.000000 0.000000
# 4 0.000000 0.000000 0.000000 0.046065 0.000000 0.000000
# 5 0.000000 0.000000 0.000000 0.000000 -1.875928 0.000000
# 6 0.000000 0.000000 0.000000 0.000000 0.000000 -0.334474
#
#
# Mechanical properties :
#
#
# Convention : Reuss Voigt Hill
#
# Bulk Modulus (GPa) = 38.67422 63.12380 50.89901
# Shear Modulus (GPa) = -2.36715 23.75422 10.69353
#
# Velocity S-wave (km/s) = -1.04377 3.30646 2.21847
# Velocity P-wave (km/s) = 4.04313 6.60524 5.47613
#
# Compressibility (1/GPa) = 0.02585702
#
# Stress axis : x y z
#
# Youngs Moduli (GPa) = 131.84175 53.25731 120.42099
#
# Poissons Ratio (x) = 0.11175 0.46849
# Poissons Ratio (y) = 0.27665 -0.19079
# Poissons Ratio (z) = 0.51292 -0.08438
#
# Static dielectric constant tensor:
#      x y z
#    x 1.891040 0.000000 0.000000 
#    y 0.000000 1.799360 0.000000 
#    z 0.000000 0.000000 1.369190 
# 
# From -- ./inp_files/53681.got.cif
#   From: 2010.05.17/outbox.cif.g08.bks.cpg/sg74_27_cif.got.tgz:53681.got - 2010.06.03 17:57:02.
