data_PCOD9538760
_publ_section_title
;
Structure prediction by ZEFSAII (Michael W. Deem and Ramdas Pophale) SiO2 
 PCOD9538760
Probable space group: I M M A
;
_chemical_formula_sum "Si O2"
_cell_formula_units_Z 88
_cell_length_a 14.685256
_cell_length_b 18.295059
_cell_length_c 13.520755
_cell_angle_alpha 90.000000
_cell_angle_beta 90.000000
_cell_angle_gamma 90.000000
_cell_volume 3632.589133
_symmetry_space_group_name_H-M "I M M A"
_symmetry_group_IT_number 74
_symmetry_cell_setting 'orthorhombic'
loop_
_space_group_symop_operation_xyz
x,y,z
-x,1/2-y,z
x,-y,-z
-x,1/2+y,-z
-x,-y,-z
x,1/2+y,-z
-x,y,z
x,1/2-y,z
1/2+x,1/2+y,1/2+z
1/2-x,-y,1/2+z
1/2+x,1/2-y,1/2-z
1/2-x,y,1/2-z
1/2-x,1/2-y,1/2-z
1/2+x,y,1/2-z
1/2-x,1/2+y,1/2+z
1/2+x,-y,1/2+z
loop_
_atom_site_type_symbol
_atom_site_label
_atom_site_fract_x
_atom_site_fract_y
_atom_site_fract_z
Si Si1 0.607138 0.837325 0.083617
Si Si2 0.207364 0.979822 0.881460
Si Si3 0.603458 0.371982 0.628540
Si Si4 0.250000 0.853809 0.250000
Si Si5 0.605475 0.667487 0.602894
Si Si6 0.099889 0.058381 0.410630
O O1 0.500000 0.853672 0.107743
O O2 0.619480 0.750000 0.088183
O O3 0.682286 0.875236 0.154336
O O4 0.620155 0.867176 0.971616
O O5 0.311548 0.965654 0.850493
O O6 0.150549 0.049848 0.845274
O O7 0.157370 0.903685 0.859436
O O8 0.209217 0.000000 0.000000
O O9 0.500000 0.372708 0.659993
O O10 0.668599 0.320437 0.688392
O O11 0.605841 0.348381 0.515064
O O12 0.500000 0.665694 0.634880
O O13 0.640563 0.750000 0.621970
O O14 0.000000 0.061918 0.362074
O O15 0.092605 0.000000 0.500000
#
# Coordination Sequence:
#
# PCOD9538760 Si02
#       6
#    16  16  16   8  16  16
#     4  10  21  34  47  67  97 131 165 200 235 273
#     4   9  16  29  48  68  91 120 150 187 239 286
#     4  10  21  34  47  67  96 127 159 195 231 272
#     4  12  21  32  48  64  89 130 174 202 225 268
#     4   9  17  29  47  71  96 121 151 191 240 289
#     4   9  17  30  47  66  88 116 154 196 236 280
#
# _framework density 24.225144
#
# number of rings (size 3 to 8) (size 9 to 14) (size 15 to 20)
#    0.000    2.364    0.000    4.636    0.000    5.818 
#    0.000    2.727    0.000    0.000    0.000    0.636 
#    0.000    1.455    0.000   13.091    0.000    4.364 
#
# Total GULP energy -245012.714926 kJ/mol
# GULP energy per Si atom -5568.470794 kJ/mol
# Density = 2.417001 g / cm^3
# Si number density = 24.225144 Si / 1000 Ang^3
#
#
#
# Elastic Constant Matrix: (Units=GPa)
#
#
# Indices 1 2 3 4 5 6 
#
# 1 199.2342 76.0163 21.7015 0.0000 0.0000 0.0000
# 2 76.0163 197.6565 25.5893 0.0000 0.0000 0.0000
# 3 21.7015 25.5893 36.2196 0.0000 0.0000 0.0000
# 4 0.0000 0.0000 0.0000 42.6915 0.0000 0.0000
# 5 0.0000 0.0000 0.0000 0.0000 11.7835 0.0000
# 6 0.0000 0.0000 0.0000 0.0000 0.0000 2.1309
#
#
#
# Elastic Compliance Matrix: (Units=1/GPa)
#
#
# Indices 1 2 3 4 5 6 
#
# 1 0.006034 -0.002039 -0.002175 0.000000 0.000000 0.000000
# 2 -0.002039 0.006258 -0.003199 0.000000 0.000000 0.000000
# 3 -0.002175 -0.003199 0.031173 0.000000 0.000000 0.000000
# 4 0.000000 0.000000 0.000000 0.023424 0.000000 0.000000
# 5 0.000000 0.000000 0.000000 0.000000 0.084864 0.000000
# 6 0.000000 0.000000 0.000000 0.000000 0.000000 0.469283
#
#
# Mechanical properties :
#
#
# Convention : Reuss Voigt Hill
#
# Bulk Modulus (GPa) = 34.91852 75.52497 55.22175
# Shear Modulus (GPa) = 7.74703 31.97474 19.86088
#
# Velocity S-wave (km/s) = 1.79022 3.63698 2.86640
# Velocity P-wave (km/s) = 4.32650 6.99148 5.81375
#
# Compressibility (1/GPa) = 0.02863810
#
# Stress axis : x y z
#
# Youngs Moduli (GPa) = 165.72469 159.80346 32.07930
#
# Poissons Ratio (x) = 0.32585 0.06977
# Poissons Ratio (y) = 0.33793 0.10263
# Poissons Ratio (z) = 0.36042 0.51127
#
# Static dielectric constant tensor:
#      x y z
#    x 1.922050 0.000000 0.000000 
#    y 0.000000 2.528100 0.000000 
#    z 0.000000 0.000000 2.053790 
# 
# From -- ./inp_files/42775.got.cif
#   From: 2010.05.17/outbox.cif.g08.bks.cpg/sg74_22_cif.got.tgz:42775.got - 2010.06.03 17:57:02.
