data_PCOD9538512
_publ_section_title
;
Structure prediction by ZEFSAII (Michael W. Deem and Ramdas Pophale) SiO2 
 PCOD9538512
Probable space group: I M M A
;
_chemical_formula_sum "Si O2"
_cell_formula_units_Z 60
_cell_length_a 19.708236
_cell_length_b 10.999859
_cell_length_c 11.561506
_cell_angle_alpha 90.000000
_cell_angle_beta 90.000000
_cell_angle_gamma 90.000000
_cell_volume 2506.393649
_symmetry_space_group_name_H-M "I M M A"
_symmetry_group_IT_number 74
_symmetry_cell_setting 'orthorhombic'
loop_
_space_group_symop_operation_xyz
x,y,z
-x,1/2-y,z
x,-y,-z
-x,1/2+y,-z
-x,-y,-z
x,1/2+y,-z
-x,y,z
x,1/2-y,z
1/2+x,1/2+y,1/2+z
1/2-x,-y,1/2+z
1/2+x,1/2-y,1/2-z
1/2-x,y,1/2-z
1/2-x,1/2-y,1/2-z
1/2+x,y,1/2-z
1/2-x,1/2+y,1/2+z
1/2+x,-y,1/2+z
loop_
_atom_site_type_symbol
_atom_site_label
_atom_site_fract_x
_atom_site_fract_y
_atom_site_fract_z
Si Si1 0.775517 0.750000 0.432946
Si Si2 0.919322 0.887333 0.586667
Si Si3 0.238573 0.000000 0.000000
Si Si4 0.863329 0.250000 0.799230
Si Si5 0.115843 0.517311 0.829182
Si Si6 0.000000 0.000000 0.000000
O O1 0.782082 0.621760 0.494819
O O2 0.820414 0.750000 0.318388
O O3 0.694807 0.750000 0.397744
O O4 0.904994 0.750000 0.542273
O O5 0.000000 0.888933 0.613902
O O6 0.910074 0.000000 0.500000
O O7 0.883127 0.913975 0.708452
O O8 0.189164 0.986444 0.889495
O O9 0.904223 0.124915 0.807099
O O10 0.060103 0.562825 0.919274
#
# Coordination Sequence:
#
# PCOD9538512 Si02
#       6
#     8  16   8   8  16   4
#     4   9  18  40  60  86 121 166 205 278 311 394
#     4  10  22  40  59  82 123 176 215 263 309 384
#     4   9  20  35  66  94 126 163 214 273 350 374
#     4   9  20  37  62  83 124 168 216 244 328 384
#     4  10  20  38  60  98 125 169 208 270 323 410
#     4  10  20  38  58 100 136 158 202 260 338 390
#
# _framework density 23.938780000000001
#
# number of rings (size 3 to 8) (size 9 to 14) (size 15 to 20)
#    0.000    2.400    1.333    0.000    3.733    0.533 
#    7.200    0.000    0.000    3.200    0.000    0.000 
#    0.000    0.000    0.000    0.000    0.000    0.000 
#
# Total GULP energy -167318.025396 kJ/mol
# GULP energy per Si atom -5577.267513 kJ/mol
# Density = 2.388429 g / cm^3
# Si number density = 23.938780 Si / 1000 Ang^3
#
#
#
# Elastic Constant Matrix: (Units=GPa)
#
#
# Indices 1 2 3 4 5 6 
#
# 1 63.8757 27.4700 9.6008 0.0000 0.0000 0.0000
# 2 27.4700 168.8364 45.8487 0.0000 0.0000 0.0000
# 3 9.6008 45.8487 107.5994 0.0000 0.0000 0.0000
# 4 0.0000 0.0000 0.0000 33.4272 0.0000 0.0000
# 5 0.0000 0.0000 0.0000 0.0000 4.3896 0.0000
# 6 0.0000 0.0000 0.0000 0.0000 0.0000 18.9707
#
#
#
# Elastic Compliance Matrix: (Units=1/GPa)
#
#
# Indices 1 2 3 4 5 6 
#
# 1 0.016847 -0.002638 -0.000379 0.000000 0.000000 0.000000
# 2 -0.002638 0.007111 -0.002795 0.000000 0.000000 0.000000
# 3 -0.000379 -0.002795 0.010518 0.000000 0.000000 0.000000
# 4 0.000000 0.000000 0.000000 0.029916 0.000000 0.000000
# 5 0.000000 0.000000 0.000000 0.000000 0.227809 0.000000
# 6 0.000000 0.000000 0.000000 0.000000 0.000000 0.052713
#
#
# Mechanical properties :
#
#
# Convention : Reuss Voigt Hill
#
# Bulk Modulus (GPa) = 43.75866 56.23896 49.99881
# Shear Modulus (GPa) = 13.73041 28.51696 21.12369
#
# Velocity S-wave (km/s) = 2.39752 3.45519 2.97375
# Velocity P-wave (km/s) = 5.09737 6.28185 5.72035
#
# Compressibility (1/GPa) = 0.02285262
#
# Stress axis : x y z
#
# Youngs Moduli (GPa) = 59.35810 140.62676 95.07169
#
# Poissons Ratio (x) = 0.37098 0.03604
# Poissons Ratio (y) = 0.15659 0.26569
# Poissons Ratio (z) = 0.02250 0.39300
#
# Static dielectric constant tensor:
#      x y z
#    x 2.184800 0.000000 0.000000 
#    y 0.000000 1.939840 0.000000 
#    z 0.000000 0.000000 1.916650 
# 
# From -- ./inp_files/17371.got.cif
#   From: 2010.05.17/outbox.cif.g08.bks.cpg/sg74_9_cif.got.tgz:17371.got - 2010.06.03 17:57:02.
