data_PCOD9538336
_publ_section_title
;
Structure prediction by ZEFSAII (Michael W. Deem and Ramdas Pophale) SiO2 
 PCOD9538336
Probable space group: I M M A
;
_chemical_formula_sum "Si O2"
_cell_formula_units_Z 80
_cell_length_a 26.845452
_cell_length_b 15.411557
_cell_length_c 8.929755
_cell_angle_alpha 90.000000
_cell_angle_beta 90.000000
_cell_angle_gamma 90.000000
_cell_volume 3694.509444
_symmetry_space_group_name_H-M "I M M A"
_symmetry_group_IT_number 74
_symmetry_cell_setting 'orthorhombic'
loop_
_space_group_symop_operation_xyz
x,y,z
-x,1/2-y,z
x,-y,-z
-x,1/2+y,-z
-x,-y,-z
x,1/2+y,-z
-x,y,z
x,1/2-y,z
1/2+x,1/2+y,1/2+z
1/2-x,-y,1/2+z
1/2+x,1/2-y,1/2-z
1/2-x,y,1/2-z
1/2-x,1/2-y,1/2-z
1/2+x,y,1/2-z
1/2-x,1/2+y,1/2+z
1/2+x,-y,1/2+z
loop_
_atom_site_type_symbol
_atom_site_label
_atom_site_fract_x
_atom_site_fract_y
_atom_site_fract_z
Si Si1 0.154348 0.597465 0.437619
Si Si2 0.554692 0.096536 0.073408
Si Si3 0.243874 0.351716 0.084551
Si Si4 0.555268 0.596599 0.567959
Si Si5 0.848398 0.649173 0.104636
O O1 0.157507 0.500000 0.500000
O O2 0.104137 0.639077 0.506092
O O3 0.205218 0.641036 0.492281
O O4 0.148449 0.598609 0.259934
O O5 0.500000 0.135695 0.041464
O O6 0.560479 0.091767 0.252553
O O7 0.553459 0.000000 0.000000
O O8 0.231766 0.250000 0.105778
O O9 0.250000 0.391229 0.250000
O O10 0.197212 0.387362 0.992906
O O11 0.556171 0.500000 0.500000
O O12 0.500000 0.633563 0.535939
O O13 0.601118 0.644305 0.490644
O O14 0.838258 0.750000 0.143513
#
# Coordination Sequence:
#
# PCOD9538336 Si02
#       5
#    16  16  16  16  16
#     4  11  22  36  59  89 118 155 205 255 303 364
#     4   9  18  34  56  84 118 153 192 241 299 358
#     4  10  22  40  60  83 116 156 196 246 311 374
#     4  10  20  36  61  90 121 158 202 255 309 362
#     4  11  24  41  62  89 125 167 208 254 312 375
#
# _framework density 21.653755
#
# number of rings (size 3 to 8) (size 9 to 14) (size 15 to 20)
#    0.000    1.800    0.000    4.800    0.000    6.800 
#    0.000    1.000    0.000    4.200    0.000    0.000 
#    0.000    0.000    0.000    0.000    0.000    0.000 
#
# Total GULP energy -223458.515105 kJ/mol
# GULP energy per Si atom -5586.462878 kJ/mol
# Density = 2.160447 g / cm^3
# Si number density = 21.653755 Si / 1000 Ang^3
#
#
#
# Elastic Constant Matrix: (Units=GPa)
#
#
# Indices 1 2 3 4 5 6 
#
# 1 192.0301 -3.3559 92.7746 0.0000 0.0000 0.0000
# 2 -3.3559 43.1047 13.6469 0.0000 0.0000 0.0000
# 3 92.7746 13.6469 170.6282 0.0000 0.0000 0.0000
# 4 0.0000 0.0000 0.0000 18.8792 0.0000 0.0000
# 5 0.0000 0.0000 0.0000 0.0000 31.6938 0.0000
# 6 0.0000 0.0000 0.0000 0.0000 0.0000 -17.5599
#
#
#
# Elastic Compliance Matrix: (Units=1/GPa)
#
#
# Indices 1 2 3 4 5 6 
#
# 1 0.007203 0.001848 -0.004064 0.000000 0.000000 0.000000
# 2 0.001848 0.024276 -0.002946 0.000000 0.000000 0.000000
# 3 -0.004064 -0.002946 0.008306 0.000000 0.000000 0.000000
# 4 0.000000 0.000000 0.000000 0.052968 0.000000 0.000000
# 5 0.000000 0.000000 0.000000 0.000000 0.031552 0.000000
# 6 0.000000 0.000000 0.000000 0.000000 0.000000 -0.056948
#
#
# Mechanical properties :
#
#
# Convention : Reuss Voigt Hill
#
# Bulk Modulus (GPa) = 33.94477 67.98825 50.96651
# Shear Modulus (GPa) = 57.14037 26.78246 41.96141
#
# Velocity S-wave (km/s) = 5.14252 3.52070 4.40686
# Velocity P-wave (km/s) = 7.13939 6.92771 7.03435
#
# Compressibility (1/GPa) = 0.02945962
#
# Stress axis : x y z
#
# Youngs Moduli (GPa) = 138.82240 41.19304 120.39091
#
# Poissons Ratio (x) = -0.07611 0.48932
# Poissons Ratio (y) = -0.25649 0.35469
# Poissons Ratio (z) = 0.56424 0.12136
#
# Static dielectric constant tensor:
#      x y z
#    x 1.824150 0.000000 0.000000 
#    y 0.000000 1.818980 0.000000 
#    z 0.000000 0.000000 1.755400 
# 
# From -- ./inp_files/14924.got.cif
#   From: 2010.05.17/outbox.cif.g08.bks.cpg/sg74_8_cif.got.tgz:14924.got - 2010.06.03 17:57:02.
