data_PCOD9538742
_publ_section_title
;
Structure prediction by ZEFSAII (Michael W. Deem and Ramdas Pophale) SiO2 
 PCOD9538742
Probable space group: I M M A
;
_chemical_formula_sum "Si O2"
_cell_formula_units_Z 116
_cell_length_a 9.468168
_cell_length_b 22.039685
_cell_length_c 29.955390
_cell_angle_alpha 90.000000
_cell_angle_beta 90.000000
_cell_angle_gamma 90.000000
_cell_volume 6250.954196
_symmetry_space_group_name_H-M "I M M A"
_symmetry_group_IT_number 74
_symmetry_cell_setting 'orthorhombic'
loop_
_space_group_symop_operation_xyz
x,y,z
-x,1/2-y,z
x,-y,-z
-x,1/2+y,-z
-x,-y,-z
x,1/2+y,-z
-x,y,z
x,1/2-y,z
1/2+x,1/2+y,1/2+z
1/2-x,-y,1/2+z
1/2+x,1/2-y,1/2-z
1/2-x,y,1/2-z
1/2-x,1/2-y,1/2-z
1/2+x,y,1/2-z
1/2-x,1/2+y,1/2+z
1/2+x,-y,1/2+z
loop_
_atom_site_type_symbol
_atom_site_label
_atom_site_fract_x
_atom_site_fract_y
_atom_site_fract_z
Si Si1 0.838824 0.322674 0.459050
Si Si2 0.340781 0.888783 0.611499
Si Si3 0.832219 0.681428 0.367476
Si Si4 0.337954 0.056732 0.829148
Si Si5 0.500000 0.500000 0.000000
Si Si6 0.167808 0.554032 0.792964
Si Si7 0.661830 0.859511 0.454311
Si Si8 0.756750 0.511851 0.426719
O O1 0.840100 0.250000 0.459726
O O2 0.770376 0.346417 0.413422
O O3 0.746120 0.345257 0.500608
O O4 0.000000 0.345175 0.464408
O O5 0.500000 0.864237 0.608448
O O6 0.307997 0.905368 0.662802
O O7 0.332825 0.952949 0.585563
O O8 0.809141 0.750000 0.351353
O O9 0.798788 0.627826 0.332498
O O10 0.742964 0.670780 0.412494
O O11 0.000000 0.674774 0.378185
O O12 0.500000 0.050067 0.813593
O O13 0.326987 0.034686 0.880528
O O14 0.233160 0.012514 0.803047
O O15 0.622944 0.503922 0.961516
O O16 0.250000 0.578353 0.750000
O O17 0.000000 0.550227 0.785885
O O18 0.500000 0.839195 0.457102
O O19 0.669206 0.931429 0.445287
#
# Coordination Sequence:
#
# PCOD9538742 Si02
#       8
#    16  16  16  16   4  16  16  16
#     4  11  25  40  54  74 104 145 190 231 269 316
#     4  10  22  39  59  82 112 143 176 224 280 332
#     4   9  18  32  51  75 106 147 195 238 271 311
#     4   9  17  32  51  76 110 143 178 219 274 322
#     4  12  20  28  46  76 102 144 186 220 256 318
#     4  10  21  37  60  89 114 136 167 213 277 344
#     4  11  22  34  51  74 108 147 189 238 279 318
#     4  10  21  31  51  79 110 140 183 226 272 321
#
# _framework density 18.557165999999999
#
# number of rings (size 3 to 8) (size 9 to 14) (size 15 to 20)
#    0.000    1.931    0.690    2.897    4.828    7.448 
#    0.000    2.069    0.000    0.828    0.000    0.000 
#    0.000    0.000    0.000    0.000    0.000    0.000 
#
# Total GULP energy -323309.227413 kJ/mol
# GULP energy per Si atom -5574.297024 kJ/mol
# Density = 1.851493 g / cm^3
# Si number density = 18.557166 Si / 1000 Ang^3
#
#
#
# Elastic Constant Matrix: (Units=GPa)
#
#
# Indices 1 2 3 4 5 6 
#
# 1 72.9550 6.6919 9.7743 0.0000 0.0000 0.0000
# 2 6.6919 33.2814 4.1936 0.0000 0.0000 0.0000
# 3 9.7743 4.1936 46.5380 0.0000 0.0000 0.0000
# 4 0.0000 0.0000 0.0000 13.7429 0.0000 0.0000
# 5 0.0000 0.0000 0.0000 0.0000 22.6898 0.0000
# 6 0.0000 0.0000 0.0000 0.0000 0.0000 15.8018
#
#
#
# Elastic Compliance Matrix: (Units=1/GPa)
#
#
# Indices 1 2 3 4 5 6 
#
# 1 0.014311 -0.002527 -0.002778 0.000000 0.000000 0.000000
# 2 -0.002527 0.030838 -0.002248 0.000000 0.000000 0.000000
# 3 -0.002778 -0.002248 0.022274 0.000000 0.000000 0.000000
# 4 0.000000 0.000000 0.000000 0.072765 0.000000 0.000000
# 5 0.000000 0.000000 0.000000 0.000000 0.044073 0.000000
# 6 0.000000 0.000000 0.000000 0.000000 0.000000 0.063284
#
#
# Mechanical properties :
#
#
# Convention : Reuss Voigt Hill
#
# Bulk Modulus (GPa) = 19.11454 21.56601 20.34028
# Shear Modulus (GPa) = 17.85137 19.25454 18.55296
#
# Velocity S-wave (km/s) = 3.10492 3.22464 3.16535
# Velocity P-wave (km/s) = 4.81423 5.05085 4.93396
#
# Compressibility (1/GPa) = 0.05231618
#
# Stress axis : x y z
#
# Youngs Moduli (GPa) = 69.87581 32.42727 44.89575
#
# Poissons Ratio (x) = 0.08196 0.12472
# Poissons Ratio (y) = 0.17661 0.10093
# Poissons Ratio (z) = 0.19411 0.07290
#
# Static dielectric constant tensor:
#      x y z
#    x 1.631970 0.000000 0.000000 
#    y 0.000000 1.670590 0.000000 
#    z 0.000000 0.000000 1.627560 
# 
# From -- ./inp_files/70916.got.cif
#   From: 2010.05.17/outbox.cif.g08.bks.cpg/sg74_36_cif.got.tgz:70916.got - 2010.06.03 17:57:02.
