data_PCOD9538525
_publ_section_title
;
Structure prediction by ZEFSAII (Michael W. Deem and Ramdas Pophale) SiO2 
 PCOD9538525
Probable space group: I M M A
;
_chemical_formula_sum "Si O2"
_cell_formula_units_Z 116
_cell_length_a 22.635537
_cell_length_b 16.135139
_cell_length_c 13.094996
_cell_angle_alpha 90.000000
_cell_angle_beta 90.000000
_cell_angle_gamma 90.000000
_cell_volume 4782.653121
_symmetry_space_group_name_H-M "I M M A"
_symmetry_group_IT_number 74
_symmetry_cell_setting 'orthorhombic'
loop_
_space_group_symop_operation_xyz
x,y,z
-x,1/2-y,z
x,-y,-z
-x,1/2+y,-z
-x,-y,-z
x,1/2+y,-z
-x,y,z
x,1/2-y,z
1/2+x,1/2+y,1/2+z
1/2-x,-y,1/2+z
1/2+x,1/2-y,1/2-z
1/2-x,y,1/2-z
1/2-x,1/2-y,1/2-z
1/2+x,y,1/2-z
1/2-x,1/2+y,1/2+z
1/2+x,-y,1/2+z
loop_
_atom_site_type_symbol
_atom_site_label
_atom_site_fract_x
_atom_site_fract_y
_atom_site_fract_z
Si Si1 0.910633 0.114230 0.102798
Si Si2 0.771239 0.845731 0.910267
Si Si3 0.500000 0.750000 0.679263
Si Si4 0.716220 0.846589 0.355177
Si Si5 0.563149 0.946120 0.177818
Si Si6 0.565047 0.342526 0.027587
Si Si7 0.909224 0.582161 0.120274
Si Si8 0.834947 0.051131 0.393626
O O1 0.840072 0.131832 0.106423
O O2 0.922751 0.016276 0.118783
O O3 0.948197 0.176809 0.170062
O O4 0.928429 0.126109 0.983360
O O5 0.762337 0.750000 0.879123
O O6 0.727319 0.912281 0.861027
O O7 0.753837 0.849846 0.032529
O O8 0.697514 0.750000 0.343117
O O9 0.750000 0.867879 0.250000
O O10 0.660516 0.904680 0.371837
O O11 0.500000 0.992221 0.182579
O O12 0.562943 0.902005 0.069343
O O13 0.564874 0.885562 0.273968
O O14 0.624750 0.995064 0.179212
O O15 0.500000 0.344342 0.078305
O O16 0.574299 0.250000 0.990981
O O17 0.620484 0.371848 0.091360
O O18 0.828323 0.000000 0.500000
#
# Coordination Sequence:
#
# PCOD9538525 Si02
#       8
#    16  16   4  16  16  16  16  16
#     4  10  24  43  67  95 118 163 211 266 332 405
#     4  10  20  38  59  88 122 158 209 260 309 376
#     4  12  24  46  76  88 122 160 220 268 346 400
#     4   9  20  35  58  95 137 174 207 261 328 393
#     4  10  22  38  56  91 127 162 209 266 311 372
#     4   9  18  35  56  84 121 162 209 253 300 364
#     4  10  23  39  64  93 129 161 209 263 327 394
#     4  10  21  33  60  84 118 171 205 243 308 366
#
# _framework density 24.254321999999998
#
# number of rings (size 3 to 8) (size 9 to 14) (size 15 to 20)
#    0.000    2.207    0.690    0.828   10.621    2.759 
#    0.000    0.000    3.034    0.828    0.000    0.000 
#    0.000    0.000    0.000    0.000    0.000    0.000 
#
# Total GULP energy -323304.186203 kJ/mol
# GULP energy per Si atom -5574.210107 kJ/mol
# Density = 2.419912 g / cm^3
# Si number density = 24.254322 Si / 1000 Ang^3
#
#
#
# Elastic Constant Matrix: (Units=GPa)
#
#
# Indices 1 2 3 4 5 6 
#
# 1 140.1409 42.7324 15.8472 0.0000 0.0000 0.0000
# 2 42.7324 66.5154 -6.2280 0.0000 0.0000 0.0000
# 3 15.8472 -6.2280 53.2629 0.0000 0.0000 0.0000
# 4 0.0000 0.0000 0.0000 1.3934 0.0000 0.0000
# 5 0.0000 0.0000 0.0000 0.0000 9.4740 0.0000
# 6 0.0000 0.0000 0.0000 0.0000 0.0000 0.9922
#
#
#
# Elastic Compliance Matrix: (Units=1/GPa)
#
#
# Indices 1 2 3 4 5 6 
#
# 1 0.009505 -0.006442 -0.003581 0.000000 0.000000 0.000000
# 2 -0.006442 0.019566 0.004204 0.000000 0.000000 0.000000
# 3 -0.003581 0.004204 0.020332 0.000000 0.000000 0.000000
# 4 0.000000 0.000000 0.000000 0.717690 0.000000 0.000000
# 5 0.000000 0.000000 0.000000 0.000000 0.105552 0.000000
# 6 0.000000 0.000000 0.000000 0.000000 0.000000 1.007911
#
#
# Mechanical properties :
#
#
# Convention : Reuss Voigt Hill
#
# Bulk Modulus (GPa) = 26.47870 40.51358 33.49614
# Shear Modulus (GPa) = 2.62497 16.20975 9.41736
#
# Velocity S-wave (km/s) = 1.04145 2.58800 1.97261
# Velocity P-wave (km/s) = 3.51951 5.06658 4.36218
#
# Compressibility (1/GPa) = 0.03776620
#
# Stress axis : x y z
#
# Youngs Moduli (GPa) = 105.20940 51.10859 49.18371
#
# Poissons Ratio (x) = 0.32922 0.17614
# Poissons Ratio (y) = 0.67772 -0.20679
# Poissons Ratio (z) = 0.37677 -0.21488
#
# Static dielectric constant tensor:
#      x y z
#    x 1.951200 0.000000 0.000000 
#    y 0.000000 1.912680 0.000000 
#    z 0.000000 0.000000 2.009140 
# 
# From -- ./inp_files/36734.got.cif
#   From: 2010.05.17/outbox.cif.g08.bks.cpg/sg74_19_cif.got.tgz:36734.got - 2010.06.03 17:57:02.
