data_PCOD9538761
_publ_section_title
;
Structure prediction by ZEFSAII (Michael W. Deem and Ramdas Pophale) SiO2 
 PCOD9538761
Probable space group: I M M A
;
_chemical_formula_sum "Si O2"
_cell_formula_units_Z 104
_cell_length_a 9.226499
_cell_length_b 20.701823
_cell_length_c 32.703670
_cell_angle_alpha 90.000000
_cell_angle_beta 90.000000
_cell_angle_gamma 90.000000
_cell_volume 6246.575909
_symmetry_space_group_name_H-M "I M M A"
_symmetry_group_IT_number 74
_symmetry_cell_setting 'orthorhombic'
loop_
_space_group_symop_operation_xyz
x,y,z
-x,1/2-y,z
x,-y,-z
-x,1/2+y,-z
-x,-y,-z
x,1/2+y,-z
-x,y,z
x,1/2-y,z
1/2+x,1/2+y,1/2+z
1/2-x,-y,1/2+z
1/2+x,1/2-y,1/2-z
1/2-x,y,1/2-z
1/2-x,1/2-y,1/2-z
1/2+x,y,1/2-z
1/2-x,1/2+y,1/2+z
1/2+x,-y,1/2+z
loop_
_atom_site_type_symbol
_atom_site_label
_atom_site_fract_x
_atom_site_fract_y
_atom_site_fract_z
Si Si1 0.173337 0.175629 0.978487
Si Si2 0.329735 0.250000 0.706768
Si Si3 0.326633 0.676323 0.934299
Si Si4 0.832086 0.578706 0.418034
Si Si5 0.323696 0.945083 0.880867
Si Si6 0.164773 0.869487 0.325683
Si Si7 0.827166 0.010891 0.291815
O O1 0.208069 0.250000 0.965495
O O2 0.239944 0.122619 0.948290
O O3 0.000000 0.169895 0.980345
O O4 0.242921 0.166807 0.023235
O O5 0.500000 0.250000 0.712151
O O6 0.250000 0.250000 0.750000
O O7 0.276333 0.186515 0.683434
O O8 0.500000 0.669806 0.941607
O O9 0.300229 0.750000 0.920379
O O10 0.283582 0.622311 0.901482
O O11 0.778214 0.505722 0.409237
O O12 0.832027 0.610727 0.373103
O O13 0.000000 0.576107 0.432278
O O14 0.500000 0.949388 0.879567
O O15 0.276079 0.954885 0.833896
O O16 0.000000 0.848204 0.315788
O O17 0.195642 0.934454 0.300194
O O18 0.750000 0.030488 0.250000
O O19 0.000000 0.020806 0.288069
#
# Coordination Sequence:
#
# PCOD9538761 Si02
#       7
#    16   8  16  16  16  16  16
#     4  10  21  34  47  68 102 135 163 202 247 288
#     4  12  24  34  46  64  90 124 162 204 250 294
#     4   9  17  32  55  77  95 124 166 201 236 289
#     4   9  18  33  52  71  94 128 166 203 243 288
#     4   8  16  32  52  75 100 124 158 205 246 281
#     4   9  19  34  49  67  91 122 161 204 246 286
#     4   9  17  31  51  72  96 124 156 196 242 288
#
# _framework density 16.649121999999998
#
# number of rings (size 3 to 8) (size 9 to 14) (size 15 to 20)
#    0.000    2.769    0.000    3.462    1.077    4.000 
#    0.000    6.923    0.000    0.462    0.000    0.000 
#    0.000    0.000    0.000    0.000    0.000    0.000 
#
# Total GULP energy -289849.768867 kJ/mol
# GULP energy per Si atom -5574.034017 kJ/mol
# Density = 1.661123 g / cm^3
# Si number density = 16.649122 Si / 1000 Ang^3
#
#
#
# Elastic Constant Matrix: (Units=GPa)
#
#
# Indices 1 2 3 4 5 6 
#
# 1 49.9945 51.5391 38.6574 0.0000 0.0000 0.0000
# 2 51.5391 116.5038 79.9090 0.0000 0.0000 0.0000
# 3 38.6574 79.9090 94.3966 0.0000 0.0000 0.0000
# 4 0.0000 0.0000 0.0000 8.6539 0.0000 0.0000
# 5 0.0000 0.0000 0.0000 0.0000 24.6135 0.0000
# 6 0.0000 0.0000 0.0000 0.0000 0.0000 10.5609
#
#
#
# Elastic Compliance Matrix: (Units=1/GPa)
#
#
# Indices 1 2 3 4 5 6 
#
# 1 0.037150 -0.014306 -0.003104 0.000000 0.000000 0.000000
# 2 -0.014306 0.025976 -0.016131 0.000000 0.000000 0.000000
# 3 -0.003104 -0.016131 0.025520 0.000000 0.000000 0.000000
# 4 0.000000 0.000000 0.000000 0.115555 0.000000 0.000000
# 5 0.000000 0.000000 0.000000 0.000000 0.040628 0.000000
# 6 0.000000 0.000000 0.000000 0.000000 0.000000 0.094689
#
#
# Mechanical properties :
#
#
# Convention : Reuss Voigt Hill
#
# Bulk Modulus (GPa) = 46.37073 66.78954 56.58014
# Shear Modulus (GPa) = 12.08356 14.81829 13.45092
#
# Velocity S-wave (km/s) = 2.69695 2.98658 2.84545
# Velocity P-wave (km/s) = 6.13272 7.21775 6.69725
#
# Compressibility (1/GPa) = 0.02156533
#
# Stress axis : x y z
#
# Youngs Moduli (GPa) = 26.91826 38.49729 39.18551
#
# Poissons Ratio (x) = 0.55072 0.12161
# Poissons Ratio (y) = 0.38508 0.63209
# Poissons Ratio (z) = 0.08354 0.62099
#
# Static dielectric constant tensor:
#      x y z
#    x 1.558850 0.000000 0.000000 
#    y 0.000000 1.557130 0.000000 
#    z 0.000000 0.000000 1.548790 
# 
# From -- ./inp_files/70549.got.cif
#   From: 2010.05.17/outbox.cif.g08.bks.cpg/sg74_36_cif.got.tgz:70549.got - 2010.06.03 17:57:02.
