data_PCOD9538665
_publ_section_title
;
Structure prediction by ZEFSAII (Michael W. Deem and Ramdas Pophale) SiO2 
 PCOD9538665
Probable space group: I M M A
;
_chemical_formula_sum "Si O2"
_cell_formula_units_Z 48
_cell_length_a 7.660449
_cell_length_b 8.997563
_cell_length_c 38.915399
_cell_angle_alpha 90.000000
_cell_angle_beta 90.000000
_cell_angle_gamma 90.000000
_cell_volume 2682.258372
_symmetry_space_group_name_H-M "I M M A"
_symmetry_group_IT_number 74
_symmetry_cell_setting 'orthorhombic'
loop_
_space_group_symop_operation_xyz
x,y,z
-x,1/2-y,z
x,-y,-z
-x,1/2+y,-z
-x,-y,-z
x,1/2+y,-z
-x,y,z
x,1/2-y,z
1/2+x,1/2+y,1/2+z
1/2-x,-y,1/2+z
1/2+x,1/2-y,1/2-z
1/2-x,y,1/2-z
1/2-x,1/2-y,1/2-z
1/2+x,y,1/2-z
1/2-x,1/2+y,1/2+z
1/2+x,-y,1/2+z
loop_
_atom_site_type_symbol
_atom_site_label
_atom_site_fract_x
_atom_site_fract_y
_atom_site_fract_z
Si Si1 0.000000 0.073087 0.664524
Si Si2 0.298270 0.928496 0.536302
Si Si3 0.500000 0.429411 0.089710
Si Si4 0.203824 0.427573 0.210395
O O1 0.000000 0.250000 0.663574
O O2 0.168340 0.013483 0.685141
O O3 0.000000 0.006436 0.626374
O O4 0.500000 0.970112 0.543178
O O5 0.289951 0.750000 0.532770
O O6 0.168762 0.970515 0.566899
O O7 0.246074 0.000000 0.500000
O O8 0.500000 0.250000 0.094237
O O9 0.231577 0.250000 0.206082
O O10 0.250000 0.462831 0.250000
O O11 0.000000 0.459209 0.204338
#
# Coordination Sequence:
#
# PCOD9538665 Si02
#       4
#     8  16   8  16
#     4  12  26  39  55  86 125 156 188 238 299 351
#     4   9  18  33  55  82 109 141 184 233 283 334
#     4  10  21  37  55  76 110 152 196 234 272 335
#     4  10  20  39  66  88 109 144 193 239 281 342
#
# _framework density 17.895367
#
# number of rings (size 3 to 8) (size 9 to 14) (size 15 to 20)
#    0.000    2.000    1.667    2.000    0.000    4.000 
#    0.000    3.333    0.000    0.000    0.000    0.000 
#    0.000    0.000    0.000    0.000    0.000    0.000 
#
# Total GULP energy -134044.730630 kJ/mol
# GULP energy per Si atom -5585.197110 kJ/mol
# Density = 1.785464 g / cm^3
# Si number density = 17.895367 Si / 1000 Ang^3
#
#
#
# Elastic Constant Matrix: (Units=GPa)
#
#
# Indices 1 2 3 4 5 6 
#
# 1 139.7221 70.1137 116.8021 0.0000 0.0000 0.0000
# 2 70.1137 53.3098 82.6074 0.0000 0.0000 0.0000
# 3 116.8021 82.6074 195.1691 0.0000 0.0000 0.0000
# 4 0.0000 0.0000 0.0000 29.4320 0.0000 0.0000
# 5 0.0000 0.0000 0.0000 0.0000 5.5402 0.0000
# 6 0.0000 0.0000 0.0000 0.0000 0.0000 19.3672
#
#
#
# Elastic Compliance Matrix: (Units=1/GPa)
#
#
# Indices 1 2 3 4 5 6 
#
# 1 0.021497 -0.024228 -0.002610 0.000000 0.000000 0.000000
# 2 -0.024228 0.081816 -0.020130 0.000000 0.000000 0.000000
# 3 -0.002610 -0.020130 0.015206 0.000000 0.000000 0.000000
# 4 0.000000 0.000000 0.000000 0.033977 0.000000 0.000000
# 5 0.000000 0.000000 0.000000 0.000000 0.180500 0.000000
# 6 0.000000 0.000000 0.000000 0.000000 0.000000 0.051634
#
#
# Mechanical properties :
#
#
# Convention : Reuss Voigt Hill
#
# Bulk Modulus (GPa) = 40.67930 103.02748 71.85339
# Shear Modulus (GPa) = 10.27196 18.77974 14.52585
#
# Velocity S-wave (km/s) = 2.39843 3.24299 2.85214
# Velocity P-wave (km/s) = 5.51825 8.46875 7.14741
#
# Compressibility (1/GPa) = 0.02458253
#
# Stress axis : x y z
#
# Youngs Moduli (GPa) = 46.51728 12.22249 65.76273
#
# Poissons Ratio (x) = 0.29613 0.17167
# Poissons Ratio (y) = 1.12704 1.32379
# Poissons Ratio (z) = 0.12143 0.24604
#
# Static dielectric constant tensor:
#      x y z
#    x 1.616440 0.000000 0.000000 
#    y 0.000000 1.594270 0.000000 
#    z 0.000000 0.000000 1.569100 
# 
# From -- ./inp_files/69517.got.cif
#   From: 2010.05.17/outbox.cif.g08.bks.cpg/sg74_35_cif.got.tgz:69517.got - 2010.06.03 17:57:02.
