data_PCOD9538038
_publ_section_title
;
Structure prediction by ZEFSAII (Michael W. Deem and Ramdas Pophale) SiO2 
 PCOD9538038
Probable space group: I M M A
;
_chemical_formula_sum "Si O2"
_cell_formula_units_Z 68
_cell_length_a 21.123756
_cell_length_b 7.533415
_cell_length_c 17.652040
_cell_angle_alpha 90.000000
_cell_angle_beta 90.000000
_cell_angle_gamma 90.000000
_cell_volume 2809.040092
_symmetry_space_group_name_H-M "I M M A"
_symmetry_group_IT_number 74
_symmetry_cell_setting 'orthorhombic'
loop_
_space_group_symop_operation_xyz
x,y,z
-x,1/2-y,z
x,-y,-z
-x,1/2+y,-z
-x,-y,-z
x,1/2+y,-z
-x,y,z
x,1/2-y,z
1/2+x,1/2+y,1/2+z
1/2-x,-y,1/2+z
1/2+x,1/2-y,1/2-z
1/2-x,y,1/2-z
1/2-x,1/2-y,1/2-z
1/2+x,y,1/2-z
1/2-x,1/2+y,1/2+z
1/2+x,-y,1/2+z
loop_
_atom_site_type_symbol
_atom_site_label
_atom_site_fract_x
_atom_site_fract_y
_atom_site_fract_z
Si Si1 0.431024 0.453357 0.388371
Si Si2 0.929619 0.963205 0.287871
Si Si3 0.161254 0.039767 0.582836
Si Si4 0.703666 0.044554 0.637086
Si Si5 0.750000 0.250000 0.250000
O O1 0.500000 0.531857 0.410383
O O2 0.430426 0.250000 0.413496
O O3 0.429769 0.460918 0.296434
O O4 0.362902 0.534731 0.406948
O O5 0.920689 0.750000 0.278143
O O6 0.878551 0.035261 0.347137
O O7 0.000000 0.991078 0.320178
O O8 0.159041 0.250000 0.591318
O O9 0.234621 0.987421 0.589069
O O10 0.135408 0.000000 0.500000
O O11 0.711317 0.250000 0.661748
O O12 0.708540 0.907082 0.706141
#
# Coordination Sequence:
#
# PCOD9538038 Si02
#       5
#    16  16  16  16   4
#     4  10  20  35  58  89 120 154 195 244 307 372
#     4   9  18  34  54  79 114 155 197 244 297 350
#     4  10  23  38  56  81 114 159 208 250 290 352
#     4  11  23  38  58  90 123 156 201 252 308 367
#     4  12  22  36  62  90 120 160 190 252 304 362
#
# _framework density 24.207557999999999
#
# number of rings (size 3 to 8) (size 9 to 14) (size 15 to 20)
#    0.000    1.882    1.176    2.471    1.647    4.706 
#    0.000    0.000    0.000    0.706    0.000    0.000 
#    0.000    0.000    0.000    0.000    0.000    0.000 
#
# Total GULP energy -189406.339753 kJ/mol
# GULP energy per Si atom -5570.774699 kJ/mol
# Density = 2.415246 g / cm^3
# Si number density = 24.207558 Si / 1000 Ang^3
#
#
#
# Elastic Constant Matrix: (Units=GPa)
#
#
# Indices 1 2 3 4 5 6 
#
# 1 95.0601 15.3984 30.6560 0.0000 0.0000 0.0000
# 2 15.3984 114.0375 -5.5927 0.0000 0.0000 0.0000
# 3 30.6560 -5.5927 87.1302 0.0000 0.0000 0.0000
# 4 0.0000 0.0000 0.0000 4.5200 0.0000 0.0000
# 5 0.0000 0.0000 0.0000 0.0000 -27.6283 0.0000
# 6 0.0000 0.0000 0.0000 0.0000 0.0000 24.0693
#
#
#
# Elastic Compliance Matrix: (Units=1/GPa)
#
#
# Indices 1 2 3 4 5 6 
#
# 1 0.012252 -0.001872 -0.004431 0.000000 0.000000 0.000000
# 2 -0.001872 0.009083 0.001242 0.000000 0.000000 0.000000
# 3 -0.004431 0.001242 0.013116 0.000000 0.000000 0.000000
# 4 0.000000 0.000000 0.000000 0.221240 0.000000 0.000000
# 5 0.000000 0.000000 0.000000 0.000000 -0.036195 0.000000
# 6 0.000000 0.000000 0.000000 0.000000 0.000000 0.041547
#
#
# Mechanical properties :
#
#
# Convention : Reuss Voigt Hill
#
# Bulk Modulus (GPa) = 41.10450 41.90571 41.50510
# Shear Modulus (GPa) = 17.90360 17.24326 17.57343
#
# Velocity S-wave (km/s) = 2.72249 2.67181 2.69727
# Velocity P-wave (km/s) = 5.18647 5.18331 5.18489
#
# Compressibility (1/GPa) = 0.02432824
#
# Stress axis : x y z
#
# Youngs Moduli (GPa) = 81.62109 110.09995 76.24442
#
# Poissons Ratio (x) = 0.20607 0.33782
# Poissons Ratio (y) = 0.15277 -0.09466
# Poissons Ratio (z) = 0.36165 -0.13669
#
# Static dielectric constant tensor:
#      x y z
#    x 2.026930 0.000000 0.000000 
#    y 0.000000 1.868530 0.000000 
#    z 0.000000 0.000000 1.915620 
# 
# From -- ./inp_files/44845.got.cif
#   From: 2010.05.17/outbox.cif.g08.bks.cpg/sg74_23_cif.got.tgz:44845.got - 2010.06.03 17:57:02.
