data_PCOD9538699
_publ_section_title
;
Structure prediction by ZEFSAII (Michael W. Deem and Ramdas Pophale) SiO2 
 PCOD9538699
Probable space group: I M M A
;
_chemical_formula_sum "Si O2"
_cell_formula_units_Z 96
_cell_length_a 17.394754
_cell_length_b 11.687336
_cell_length_c 25.022739
_cell_angle_alpha 90.000000
_cell_angle_beta 90.000000
_cell_angle_gamma 90.000000
_cell_volume 5087.081167
_symmetry_space_group_name_H-M "I M M A"
_symmetry_group_IT_number 74
_symmetry_cell_setting 'orthorhombic'
loop_
_space_group_symop_operation_xyz
x,y,z
-x,1/2-y,z
x,-y,-z
-x,1/2+y,-z
-x,-y,-z
x,1/2+y,-z
-x,y,z
x,1/2-y,z
1/2+x,1/2+y,1/2+z
1/2-x,-y,1/2+z
1/2+x,1/2-y,1/2-z
1/2-x,y,1/2-z
1/2-x,1/2-y,1/2-z
1/2+x,y,1/2-z
1/2-x,1/2+y,1/2+z
1/2+x,-y,1/2+z
loop_
_atom_site_type_symbol
_atom_site_label
_atom_site_fract_x
_atom_site_fract_y
_atom_site_fract_z
Si Si1 0.090581 0.007264 0.938175
Si Si2 0.087429 0.489425 0.751915
Si Si3 0.681067 0.886473 0.654845
Si Si4 0.140189 0.116200 0.349492
Si Si5 0.088892 0.250000 0.881374
Si Si6 0.338012 0.750000 0.268090
Si Si7 0.407973 0.618857 0.972352
O O1 0.098425 0.136365 0.916342
O O2 0.000000 0.976070 0.934933
O O3 0.139572 0.928124 0.898982
O O4 0.113999 0.000000 0.000000
O O5 0.139319 0.556014 0.794856
O O6 0.093298 0.548130 0.694533
O O7 0.120152 0.362656 0.747345
O O8 0.000000 0.488215 0.771639
O O9 0.676318 0.750000 0.659362
O O10 0.770590 0.919976 0.653468
O O11 0.136522 0.250000 0.335216
O O12 0.109908 0.105214 0.409579
O O13 0.147428 0.250000 0.832017
O O14 0.000000 0.250000 0.860841
O O15 0.250000 0.750000 0.250000
O O16 0.500000 0.621384 0.980568
O O17 0.380056 0.750000 0.987593
O O18 0.379145 0.500000 0.000000
#
# Coordination Sequence:
#
# PCOD9538699 Si02
#       7
#    16  16  16  16   8   8  16
#     4  10  22  38  60  87 118 159 204 250 298 360
#     4  12  24  40  62  89 119 156 202 248 299 363
#     4  11  23  38  59  87 120 155 197 251 302 357
#     4  10  22  40  61  86 121 157 198 247 307 367
#     4  10  20  40  64  88 122 164 205 250 308 365
#     4  12  24  40  64  88 124 166 202 246 304 368
#     4   9  18  36  63  90 118 157 201 252 313 374
#
# _framework density 18.871333
#
# number of rings (size 3 to 8) (size 9 to 14) (size 15 to 20)
#    0.000    1.500    1.667    3.750    1.167    5.000 
#    1.500    0.000    0.000    0.000    0.000    0.000 
#    0.000    0.000    0.000    0.000    0.000    0.000 
#
# Total GULP energy -268072.500800 kJ/mol
# GULP energy per Si atom -5584.843767 kJ/mol
# Density = 1.882838 g / cm^3
# Si number density = 18.871333 Si / 1000 Ang^3
#
#
#
# Elastic Constant Matrix: (Units=GPa)
#
#
# Indices 1 2 3 4 5 6 
#
# 1 34.5310 26.4171 12.7789 0.0000 0.0000 0.0000
# 2 26.4171 95.2927 45.8270 0.0000 0.0000 0.0000
# 3 12.7789 45.8270 86.5410 0.0000 0.0000 0.0000
# 4 0.0000 0.0000 0.0000 36.1451 0.0000 0.0000
# 5 0.0000 0.0000 0.0000 0.0000 99.5448 0.0000
# 6 0.0000 0.0000 0.0000 0.0000 0.0000 17.7641
#
#
#
# Elastic Compliance Matrix: (Units=1/GPa)
#
#
# Indices 1 2 3 4 5 6 
#
# 1 0.036755 -0.010169 -0.000043 0.000000 0.000000 0.000000
# 2 -0.010169 0.016893 -0.007444 0.000000 0.000000 0.000000
# 3 -0.000043 -0.007444 0.015503 0.000000 0.000000 0.000000
# 4 0.000000 0.000000 0.000000 0.027666 0.000000 0.000000
# 5 0.000000 0.000000 0.000000 0.000000 0.010046 0.000000
# 6 0.000000 0.000000 0.000000 0.000000 0.000000 0.056293
#
#
# Mechanical properties :
#
#
# Convention : Reuss Voigt Hill
#
# Bulk Modulus (GPa) = 29.55044 42.93453 36.24249
# Shear Modulus (GPa) = 23.83832 39.44692 31.64262
#
# Velocity S-wave (km/s) = 3.55801 4.57695 4.09926
# Velocity P-wave (km/s) = 5.70720 7.12263 6.45384
#
# Compressibility (1/GPa) = 0.03384044
#
# Stress axis : x y z
#
# Youngs Moduli (GPa) = 27.20754 59.19695 64.50225
#
# Poissons Ratio (x) = 0.60195 0.00274
# Poissons Ratio (y) = 0.27666 0.48015
# Poissons Ratio (z) = 0.00116 0.44065
#
# Static dielectric constant tensor:
#      x y z
#    x 1.661670 0.000000 0.000000 
#    y 0.000000 1.653910 0.000000 
#    z 0.000000 0.000000 1.620040 
# 
# From -- ./inp_files/58907.got.cif
#   From: 2010.05.17/outbox.cif.g08.bks.cpg/sg74_30_cif.got.tgz:58907.got - 2010.06.03 17:57:02.
