data_PCOD9538659
_publ_section_title
;
Structure prediction by ZEFSAII (Michael W. Deem and Ramdas Pophale) SiO2 
 PCOD9538659
Probable space group: I M M A
;
_chemical_formula_sum "Si O2"
_cell_formula_units_Z 104
_cell_length_a 27.664990
_cell_length_b 16.304806
_cell_length_c 11.803217
_cell_angle_alpha 90.000000
_cell_angle_beta 90.000000
_cell_angle_gamma 90.000000
_cell_volume 5324.104180
_symmetry_space_group_name_H-M "I M M A"
_symmetry_group_IT_number 74
_symmetry_cell_setting 'orthorhombic'
loop_
_space_group_symop_operation_xyz
x,y,z
-x,1/2-y,z
x,-y,-z
-x,1/2+y,-z
-x,-y,-z
x,1/2+y,-z
-x,y,z
x,1/2-y,z
1/2+x,1/2+y,1/2+z
1/2-x,-y,1/2+z
1/2+x,1/2-y,1/2-z
1/2-x,y,1/2-z
1/2-x,1/2-y,1/2-z
1/2+x,y,1/2-z
1/2-x,1/2+y,1/2+z
1/2+x,-y,1/2+z
loop_
_atom_site_type_symbol
_atom_site_label
_atom_site_fract_x
_atom_site_fract_y
_atom_site_fract_z
Si Si1 0.237413 0.343870 0.423913
Si Si2 0.250000 0.011461 0.250000
Si Si3 0.132996 0.401965 0.494329
Si Si4 0.166592 0.339140 0.970302
Si Si5 0.648737 0.914707 0.243742
Si Si6 0.594573 0.547507 0.607219
Si Si7 0.444372 0.347313 0.193127
O O1 0.241843 0.250000 0.377664
O O2 0.254176 0.422098 0.350854
O O3 0.182146 0.359521 0.453158
O O4 0.275562 0.347617 0.525882
O O5 0.298061 0.956983 0.231464
O O6 0.139767 0.500000 0.500000
O O7 0.127715 0.380949 0.626751
O O8 0.091200 0.380279 0.405364
O O9 0.154136 0.250000 0.017687
O O10 0.151624 0.347537 0.841229
O O11 0.139193 0.405705 0.046263
O O12 0.615166 0.983965 0.300641
O O13 0.570471 0.500000 0.500000
O O14 0.565345 0.610803 0.684843
O O15 0.500000 0.362749 0.161012
O O16 0.436570 0.250000 0.202898
#
# Coordination Sequence:
#
# PCOD9538659 Si02
#       7
#    16   8  16  16  16  16  16
#     4  11  23  35  55  87 123 164 208 249 302 364
#     4  12  19  34  55  82 124 164 206 252 297 348
#     4  12  23  40  60  89 120 165 207 257 302 359
#     4  10  22  37  57  87 126 167 200 245 298 359
#     4  11  22  35  59  86 119 163 207 249 296 353
#     4  10  20  39  65  94 123 156 201 246 302 367
#     4  11  25  45  68  93 122 156 199 257 319 375
#
# _framework density 19.533802999999999
#
# number of rings (size 3 to 8) (size 9 to 14) (size 15 to 20)
#    0.000    1.077    4.615    2.077    0.000    1.846 
#    0.000    1.923    0.000    0.000    0.000    8.615 
#    0.000    0.000    0.000    0.000    0.000    0.000 
#
# Total GULP energy -289949.082737 kJ/mol
# GULP energy per Si atom -5575.943899 kJ/mol
# Density = 1.948934 g / cm^3
# Si number density = 19.533803 Si / 1000 Ang^3
#
#
#
# Elastic Constant Matrix: (Units=GPa)
#
#
# Indices 1 2 3 4 5 6 
#
# 1 66.3942 31.1529 50.0981 0.0000 0.0000 0.0000
# 2 31.1529 75.1270 23.2173 0.0000 0.0000 0.0000
# 3 50.0981 23.2173 129.3198 0.0000 0.0000 0.0000
# 4 0.0000 0.0000 0.0000 -10.4382 0.0000 0.0000
# 5 0.0000 0.0000 0.0000 0.0000 13.2880 0.0000
# 6 0.0000 0.0000 0.0000 0.0000 0.0000 16.9956
#
#
#
# Elastic Compliance Matrix: (Units=1/GPa)
#
#
# Indices 1 2 3 4 5 6 
#
# 1 0.024958 -0.007794 -0.008270 0.000000 0.000000 0.000000
# 2 -0.007794 0.016527 0.000052 0.000000 0.000000 0.000000
# 3 -0.008270 0.000052 0.010927 0.000000 0.000000 0.000000
# 4 0.000000 0.000000 0.000000 -0.095802 0.000000 0.000000
# 5 0.000000 0.000000 0.000000 0.000000 0.075256 0.000000
# 6 0.000000 0.000000 0.000000 0.000000 0.000000 0.058839
#
#
# Mechanical properties :
#
#
# Convention : Reuss Voigt Hill
#
# Bulk Modulus (GPa) = 49.04468 53.30862 51.17665
# Shear Modulus (GPa) = 38.60293 15.06057 26.83175
#
# Velocity S-wave (km/s) = 4.45028 2.77970 3.71024
# Velocity P-wave (km/s) = 7.18114 6.13612 6.67910
#
# Compressibility (1/GPa) = 0.02038957
#
# Stress axis : x y z
#
# Youngs Moduli (GPa) = 40.06676 60.50872 91.51660
#
# Poissons Ratio (x) = 0.47160 0.75680
# Poissons Ratio (y) = 0.31227 -0.00478
# Poissons Ratio (z) = 0.33133 -0.00316
#
# Static dielectric constant tensor:
#      x y z
#    x 1.657020 0.000000 0.000000 
#    y 0.000000 1.704290 0.000000 
#    z 0.000000 0.000000 1.725100 
# 
# From -- ./inp_files/26355.got.cif
#   From: 2010.05.17/outbox.cif.g08.bks.cpg/sg74_14_cif.got.tgz:26355.got - 2010.06.03 17:57:02.
