data_PCOD9538219
_publ_section_title
;
Structure prediction by ZEFSAII (Michael W. Deem and Ramdas Pophale) SiO2 
 PCOD9538219
Probable space group: I M M A
;
_chemical_formula_sum "Si O2"
_cell_formula_units_Z 120
_cell_length_a 19.226178
_cell_length_b 11.588343
_cell_length_c 26.249112
_cell_angle_alpha 90.000000
_cell_angle_beta 90.000000
_cell_angle_gamma 90.000000
_cell_volume 5848.290217
_symmetry_space_group_name_H-M "I M M A"
_symmetry_group_IT_number 74
_symmetry_cell_setting 'orthorhombic'
loop_
_space_group_symop_operation_xyz
x,y,z
-x,1/2-y,z
x,-y,-z
-x,1/2+y,-z
-x,-y,-z
x,1/2+y,-z
-x,y,z
x,1/2-y,z
1/2+x,1/2+y,1/2+z
1/2-x,-y,1/2+z
1/2+x,1/2-y,1/2-z
1/2-x,y,1/2-z
1/2-x,1/2-y,1/2-z
1/2+x,y,1/2-z
1/2-x,1/2+y,1/2+z
1/2+x,-y,1/2+z
loop_
_atom_site_type_symbol
_atom_site_label
_atom_site_fract_x
_atom_site_fract_y
_atom_site_fract_z
Si Si1 0.500000 0.625411 0.025291
Si Si2 0.581109 0.072123 0.265236
Si Si3 0.829726 0.376704 0.136760
Si Si4 0.421586 0.119428 0.146601
Si Si5 0.798495 0.956066 0.372579
Si Si6 0.583797 0.616306 0.532626
Si Si7 0.344036 0.623617 0.028615
Si Si8 0.823740 0.121359 0.736582
O O1 0.500000 0.750000 0.995375
O O2 0.423706 0.627185 0.049920
O O3 0.500000 0.500000 0.000000
O O4 0.500000 0.081133 0.276765
O O5 0.625388 0.122125 0.311493
O O6 0.591555 0.120889 0.207948
O O7 0.610306 0.943390 0.258540
O O8 0.795873 0.250000 0.132418
O O9 0.771731 0.474893 0.138257
O O10 0.878720 0.392660 0.087469
O O11 0.500000 0.071776 0.138978
O O12 0.421099 0.250000 0.128125
O O13 0.360673 0.048560 0.120887
O O14 0.793032 0.884315 0.423729
O O15 0.823063 0.882575 0.324289
O O16 0.603086 0.500000 0.500000
O O17 0.500000 0.612258 0.538364
O O18 0.599751 0.750000 0.513567
O O19 0.333719 0.750000 0.002252
O O20 0.336345 0.500000 0.000000
O O21 0.821883 0.250000 0.757074
O O22 0.750000 0.061965 0.750000
#
# Coordination Sequence:
#
# PCOD9538219 Si02
#       8
#     8  16  16  16  16  16  16  16
#     4   8  16  34  58  84 110 142 188 242 298 356
#     4  10  20  36  58  86 115 149 197 249 299 350
#     4  11  22  36  57  87 118 154 196 242 297 360
#     4   9  19  34  53  81 117 155 194 241 294 349
#     4  11  22  36  57  85 118 156 198 241 292 353
#     4   9  19  38  62  86 115 151 194 245 302 362
#     4  10  22  40  63  87 117 152 197 249 306 360
#     4  10  20  38  59  80 114 158 197 237 293 355
#
# _framework density 20.518816999999999
#
# number of rings (size 3 to 8) (size 9 to 14) (size 15 to 20)
#    0.000    2.133    1.333    1.600    0.933    3.200 
#    0.000    5.333    0.000    1.600    0.000    0.000 
#    0.000    0.000    0.000    0.000    0.000    0.000 
#
# Total GULP energy -334053.963488 kJ/mol
# GULP energy per Si atom -5567.566058 kJ/mol
# Density = 2.047212 g / cm^3
# Si number density = 20.518817 Si / 1000 Ang^3
#
#
#
# Elastic Constant Matrix: (Units=GPa)
#
#
# Indices 1 2 3 4 5 6 
#
# 1 44.5450 35.3437 9.3475 0.0000 0.0000 0.0000
# 2 35.3437 125.8482 30.5999 0.0000 0.0000 0.0000
# 3 9.3475 30.5999 57.6693 0.0000 0.0000 0.0000
# 4 0.0000 0.0000 0.0000 -4.8047 0.0000 0.0000
# 5 0.0000 0.0000 0.0000 0.0000 27.3269 0.0000
# 6 0.0000 0.0000 0.0000 0.0000 0.0000 17.2657
#
#
#
# Elastic Compliance Matrix: (Units=1/GPa)
#
#
# Indices 1 2 3 4 5 6 
#
# 1 0.028895 -0.008010 -0.000434 0.000000 0.000000 0.000000
# 2 -0.008010 0.011343 -0.004721 0.000000 0.000000 0.000000
# 3 -0.000434 -0.004721 0.019915 0.000000 0.000000 0.000000
# 4 0.000000 0.000000 0.000000 -0.208127 0.000000 0.000000
# 5 0.000000 0.000000 0.000000 0.000000 0.036594 0.000000
# 6 0.000000 0.000000 0.000000 0.000000 0.000000 0.057918
#
#
# Mechanical properties :
#
#
# Convention : Reuss Voigt Hill
#
# Bulk Modulus (GPa) = 29.56279 42.07165 35.81722
# Shear Modulus (GPa) = -315.29715 18.14234 -148.57741
#
# Velocity S-wave (km/s) = -12.40951 2.97674 -8.51866
# Velocity P-wave (km/s) = 13.81626 5.68886 8.90298
#
# Compressibility (1/GPa) = 0.03382631
#
# Stress axis : x y z
#
# Youngs Moduli (GPa) = 34.60763 88.15718 50.21255
#
# Poissons Ratio (x) = 0.70611 0.02177
# Poissons Ratio (y) = 0.27720 0.23704
# Poissons Ratio (z) = 0.01500 0.41616
#
# Static dielectric constant tensor:
#      x y z
#    x 1.714830 0.000000 0.000000 
#    y 0.000000 1.792640 0.000000 
#    z 0.000000 0.000000 1.754320 
# 
# From -- ./inp_files/59099.got.cif
#   From: 2010.05.17/outbox.cif.g08.bks.cpg/sg74_30_cif.got.tgz:59099.got - 2010.06.03 17:57:02.
