data_PCOD9538871
_publ_section_title
;
Structure prediction by ZEFSAII (Michael W. Deem and Ramdas Pophale) SiO2 
 PCOD9538871
Probable space group: I M M A
;
_chemical_formula_sum "Si O2"
_cell_formula_units_Z 64
_cell_length_a 18.059646
_cell_length_b 23.475953
_cell_length_c 8.676098
_cell_angle_alpha 90.000000
_cell_angle_beta 90.000000
_cell_angle_gamma 90.000000
_cell_volume 3678.382717
_symmetry_space_group_name_H-M "I M M A"
_symmetry_group_IT_number 74
_symmetry_cell_setting 'orthorhombic'
loop_
_space_group_symop_operation_xyz
x,y,z
-x,1/2-y,z
x,-y,-z
-x,1/2+y,-z
-x,-y,-z
x,1/2+y,-z
-x,y,z
x,1/2-y,z
1/2+x,1/2+y,1/2+z
1/2-x,-y,1/2+z
1/2+x,1/2-y,1/2-z
1/2-x,y,1/2-z
1/2-x,1/2-y,1/2-z
1/2+x,y,1/2-z
1/2-x,1/2+y,1/2+z
1/2+x,-y,1/2+z
loop_
_atom_site_type_symbol
_atom_site_label
_atom_site_fract_x
_atom_site_fract_y
_atom_site_fract_z
Si Si1 0.173811 0.420369 0.341959
Si Si2 0.411960 0.315666 0.065461
Si Si3 0.673157 0.881339 0.176028
Si Si4 0.587064 0.480223 0.676079
O O1 0.250000 0.420174 0.250000
O O2 0.128245 0.361142 0.323435
O O3 0.189772 0.420678 0.525129
O O4 0.123807 0.472092 0.284498
O O5 0.500000 0.325371 0.063668
O O6 0.397689 0.250000 0.103932
O O7 0.376630 0.331764 0.899163
O O8 0.750000 0.862130 0.250000
O O9 0.627437 0.920604 0.292197
O O10 0.596308 0.500000 0.500000
O O11 0.500000 0.475069 0.710211
#
# Coordination Sequence:
#
# PCOD9538871 Si02
#       4
#    16  16  16  16
#     4  10  21  35  57  82 115 148 184 228 280 328
#     4   9  20  37  59  83 109 147 192 232 274 328
#     4  10  21  35  57  82 115 148 184 228 280 328
#     4  11  22  35  56  83 116 150 185 228 280 339
#
# _framework density 17.398952000000001
#
# number of rings (size 3 to 8) (size 9 to 14) (size 15 to 20)
#    1.500    0.500    0.000    4.500    0.000    2.000 
#    0.000    0.000    0.000    0.000    0.000   10.500 
#    0.000    0.000    0.000    0.000    0.000    0.000 
#
# Total GULP energy -178221.023963 kJ/mol
# GULP energy per Si atom -5569.406999 kJ/mol
# Density = 1.735935 g / cm^3
# Si number density = 17.398952 Si / 1000 Ang^3
#
#
#
# Elastic Constant Matrix: (Units=GPa)
#
#
# Indices 1 2 3 4 5 6 
#
# 1 83.6094 8.2036 6.5974 0.0000 0.0000 0.0000
# 2 8.2036 44.3719 -22.3595 0.0000 0.0000 0.0000
# 3 6.5974 -22.3595 27.2705 0.0000 0.0000 0.0000
# 4 0.0000 0.0000 0.0000 14.1805 0.0000 0.0000
# 5 0.0000 0.0000 0.0000 0.0000 8.9597 0.0000
# 6 0.0000 0.0000 0.0000 0.0000 0.0000 10.0028
#
#
#
# Elastic Compliance Matrix: (Units=1/GPa)
#
#
# Indices 1 2 3 4 5 6 
#
# 1 0.013352 -0.006980 -0.008953 0.000000 0.000000 0.000000
# 2 -0.006980 0.042053 0.036169 0.000000 0.000000 0.000000
# 3 -0.008953 0.036169 0.068491 0.000000 0.000000 0.000000
# 4 0.000000 0.000000 0.000000 0.070520 0.000000 0.000000
# 5 0.000000 0.000000 0.000000 0.000000 0.111611 0.000000
# 6 0.000000 0.000000 0.000000 0.000000 0.000000 0.099972
#
#
# Mechanical properties :
#
#
# Convention : Reuss Voigt Hill
#
# Bulk Modulus (GPa) = 6.08397 15.57052 10.82725
# Shear Modulus (GPa) = 11.89580 17.48262 14.68921
#
# Velocity S-wave (km/s) = 2.61762 3.17331 2.90876
# Velocity P-wave (km/s) = 3.55531 4.73234 4.18541
#
# Compressibility (1/GPa) = 0.16436628
#
# Stress axis : x y z
#
# Youngs Moduli (GPa) = 74.89670 23.77946 14.60049
#
# Poissons Ratio (x) = 0.16598 0.13072
# Poissons Ratio (y) = 0.52279 -0.52808
# Poissons Ratio (z) = 0.67057 -0.86007
#
# Static dielectric constant tensor:
#      x y z
#    x 1.570980 0.000000 0.000000 
#    y 0.000000 1.574670 0.000000 
#    z 0.000000 0.000000 1.593760 
# 
# From -- ./inp_files/8801.got.cif
#   From: 2010.05.17/outbox.cif.g08.bks.cpg/sg74_5_cif.got.tgz:8801.got - 2010.06.03 17:57:02.
