data_PCOD9538158
_publ_section_title
;
Structure prediction by ZEFSAII (Michael W. Deem and Ramdas Pophale) SiO2 
 PCOD9538158
Probable space group: I M M A
;
_chemical_formula_sum "Si O2"
_cell_formula_units_Z 76
_cell_length_a 14.932256
_cell_length_b 23.016760
_cell_length_c 11.726299
_cell_angle_alpha 90.000000
_cell_angle_beta 90.000000
_cell_angle_gamma 90.000000
_cell_volume 4030.236945
_symmetry_space_group_name_H-M "I M M A"
_symmetry_group_IT_number 74
_symmetry_cell_setting 'orthorhombic'
loop_
_space_group_symop_operation_xyz
x,y,z
-x,1/2-y,z
x,-y,-z
-x,1/2+y,-z
-x,-y,-z
x,1/2+y,-z
-x,y,z
x,1/2-y,z
1/2+x,1/2+y,1/2+z
1/2-x,-y,1/2+z
1/2+x,1/2-y,1/2-z
1/2-x,y,1/2-z
1/2-x,1/2-y,1/2-z
1/2+x,y,1/2-z
1/2-x,1/2+y,1/2+z
1/2+x,-y,1/2+z
loop_
_atom_site_type_symbol
_atom_site_label
_atom_site_fract_x
_atom_site_fract_y
_atom_site_fract_z
Si Si1 0.000000 0.549675 0.156439
Si Si2 0.841229 0.913359 0.318434
Si Si3 0.732053 0.000000 0.000000
Si Si4 0.000000 0.750000 0.590005
Si Si5 0.834781 0.813749 0.495669
Si Si6 0.000000 0.913767 0.894133
Si Si7 0.697541 0.891295 0.631636
O O1 0.085223 0.571103 0.226365
O O2 0.000000 0.479753 0.152478
O O3 0.000000 0.577199 0.030781
O O4 0.750000 0.903035 0.250000
O O5 0.826086 0.966923 0.405297
O O6 0.862530 0.857685 0.395966
O O7 0.791271 0.048784 0.061264
O O8 0.080240 0.700152 0.576356
O O9 0.809772 0.750000 0.448838
O O10 0.751744 0.842435 0.561862
O O11 0.091547 0.882124 0.856930
O O12 0.750000 0.898064 0.750000
#
# Coordination Sequence:
#
# PCOD9538158 Si02
#       7
#     8  16   8   4  16   8  16
#     4  11  21  35  60  86 125 171 202 241 320 368
#     4  11  21  35  59  90 121 164 211 252 317 386
#     4  10  20  36  56  90 130 164 200 262 300 380
#     4   8  18  42  62  78 112 148 192 264 320 340
#     4   9  21  40  63  86 119 159 208 271 313 366
#     4  11  22  37  55  89 131 161 199 260 296 373
#     4  11  22  38  63  90 125 169 211 245 322 380
#
# _framework density 18.857451999999999
#
# number of rings (size 3 to 8) (size 9 to 14) (size 15 to 20)
#    0.632    1.053    0.000    7.579    0.000    2.105 
#    0.000    2.632    0.000    0.000    0.000    0.000 
#    0.000    0.000    0.000    0.000    0.000    0.000 
#
# Total GULP energy -211547.171462 kJ/mol
# GULP energy per Si atom -5567.030828 kJ/mol
# Density = 1.881453 g / cm^3
# Si number density = 18.857452 Si / 1000 Ang^3
#
#
#
# Elastic Constant Matrix: (Units=GPa)
#
#
# Indices 1 2 3 4 5 6 
#
# 1 156.7204 31.8187 30.2048 0.0000 0.0000 0.0000
# 2 31.8187 81.4516 8.1660 0.0000 0.0000 0.0000
# 3 30.2048 8.1660 59.4196 0.0000 0.0000 0.0000
# 4 0.0000 0.0000 0.0000 -0.9103 0.0000 0.0000
# 5 0.0000 0.0000 0.0000 0.0000 31.3418 0.0000
# 6 0.0000 0.0000 0.0000 0.0000 0.0000 4.2519
#
#
#
# Elastic Compliance Matrix: (Units=1/GPa)
#
#
# Indices 1 2 3 4 5 6 
#
# 1 0.007585 -0.002613 -0.003497 0.000000 0.000000 0.000000
# 2 -0.002613 0.013349 -0.000506 0.000000 0.000000 0.000000
# 3 -0.003497 -0.000506 0.018677 0.000000 0.000000 0.000000
# 4 0.000000 0.000000 0.000000 -1.098483 0.000001 0.000003
# 5 0.000000 0.000000 0.000000 0.000001 0.031906 0.000000
# 6 0.000000 0.000000 0.000000 0.000003 0.000000 0.235191
#
#
# Mechanical properties :
#
#
# Convention : Reuss Voigt Hill
#
# Bulk Modulus (GPa) = 37.90915 48.66340 43.28627
# Shear Modulus (GPa) = -6.49561 22.09680 7.80059
#
# Velocity S-wave (km/s) = -1.85797 3.42684 2.03607
# Velocity P-wave (km/s) = 3.94258 6.44357 5.34151
#
# Compressibility (1/GPa) = 0.02637886
#
# Stress axis : x y z
#
# Youngs Moduli (GPa) = 131.83688 74.91432 53.54306
#
# Poissons Ratio (x) = 0.19572 0.18722
# Poissons Ratio (y) = 0.34443 0.02712
# Poissons Ratio (z) = 0.46100 0.03794
#
# Static dielectric constant tensor:
#      x y z
#    x 1.642590 0.000000 0.000000 
#    y 0.000000 1.642940 0.000000 
#    z 0.000000 0.000000 1.661550 
# 
# From -- ./inp_files/20591.got.cif
#   From: 2010.05.17/outbox.cif.g08.bks.cpg/sg74_11_cif.got.tgz:20591.got - 2010.06.03 17:57:02.
