data_PCOD9538563
_publ_section_title
;
Structure prediction by ZEFSAII (Michael W. Deem and Ramdas Pophale) SiO2 
 PCOD9538563
Probable space group: I M M A
;
_chemical_formula_sum "Si O2"
_cell_formula_units_Z 104
_cell_length_a 9.533534
_cell_length_b 25.879557
_cell_length_c 23.566206
_cell_angle_alpha 90.000000
_cell_angle_beta 90.000000
_cell_angle_gamma 90.000000
_cell_volume 5814.340044
_symmetry_space_group_name_H-M "I M M A"
_symmetry_group_IT_number 74
_symmetry_cell_setting 'orthorhombic'
loop_
_space_group_symop_operation_xyz
x,y,z
-x,1/2-y,z
x,-y,-z
-x,1/2+y,-z
-x,-y,-z
x,1/2+y,-z
-x,y,z
x,1/2-y,z
1/2+x,1/2+y,1/2+z
1/2-x,-y,1/2+z
1/2+x,1/2-y,1/2-z
1/2-x,y,1/2-z
1/2-x,1/2-y,1/2-z
1/2+x,y,1/2-z
1/2-x,1/2+y,1/2+z
1/2+x,-y,1/2+z
loop_
_atom_site_type_symbol
_atom_site_label
_atom_site_fract_x
_atom_site_fract_y
_atom_site_fract_z
Si Si1 0.336482 0.833969 0.378507
Si Si2 0.668820 0.250000 0.809602
Si Si3 0.671047 0.458384 0.191929
Si Si4 0.500000 0.687040 0.681223
Si Si5 0.738932 0.862200 0.880384
Si Si6 0.167663 0.689382 0.989514
Si Si7 0.500000 0.689752 0.810646
Si Si8 0.832289 0.933928 0.194397
O O1 0.500000 0.817747 0.367715
O O2 0.227442 0.799036 0.344282
O O3 0.310672 0.826353 0.445207
O O4 0.324277 0.892225 0.355632
O O5 0.500000 0.250000 0.803600
O O6 0.750000 0.250000 0.750000
O O7 0.500000 0.461196 0.198582
O O8 0.750000 0.439392 0.250000
O O9 0.707676 0.420232 0.140065
O O10 0.746283 0.513630 0.181710
O O11 0.500000 0.750000 0.677350
O O12 0.374182 0.661015 0.648929
O O13 0.500000 0.669412 0.746689
O O14 0.625867 0.828579 0.848128
O O15 0.751469 0.848082 0.946334
O O16 0.206106 0.750000 0.981209
O O17 0.000000 0.685485 0.978627
O O18 0.500000 0.750000 0.803583
O O19 0.500000 0.943357 0.294365
O O20 0.750000 0.912608 0.250000
#
# Coordination Sequence:
#
# PCOD9538563 Si02
#       8
#    16   8  16   8  16  16   8  16
#     4  10  21  41  64  92 124 163 204 254 303 362
#     4  12  24  38  62  98 132 166 199 244 307 369
#     4  11  23  39  61  87 119 159 202 255 312 366
#     4  11  22  36  56  82 113 152 204 251 314 373
#     4  12  23  36  57  85 117 159 205 247 308 365
#     4  10  20  38  63  85 117 162 211 250 296 359
#     4  11  22  36  52  80 119 152 188 261 314 367
#     4  10  21  37  64  93 121 154 194 249 310 368
#
# _framework density 17.886811000000002
#
# number of rings (size 3 to 8) (size 9 to 14) (size 15 to 20)
#    0.000    1.231    2.308    5.769    2.154    3.692 
#    1.385    0.769    0.000    3.692    0.000    0.000 
#    0.000    0.000    0.000    0.000    0.000    0.000 
#
# Total GULP energy -289940.339688 kJ/mol
# GULP energy per Si atom -5575.775763 kJ/mol
# Density = 1.784610 g / cm^3
# Si number density = 17.886811 Si / 1000 Ang^3
#
#
#
# Elastic Constant Matrix: (Units=GPa)
#
#
# Indices 1 2 3 4 5 6 
#
# 1 146.2107 34.5346 48.0388 0.0000 0.0000 0.0000
# 2 34.5346 82.5368 49.1405 -0.0001 0.0000 0.0000
# 3 48.0388 49.1405 122.5652 -0.0003 0.0000 0.0000
# 4 0.0000 -0.0001 -0.0003 -105.3277 0.0000 0.0000
# 5 0.0000 0.0000 0.0000 0.0000 32.2416 0.0000
# 6 0.0000 0.0000 0.0000 0.0000 0.0000 30.7252
#
#
#
# Elastic Compliance Matrix: (Units=1/GPa)
#
#
# Indices 1 2 3 4 5 6 
#
# 1 0.008086 -0.001966 -0.002381 0.000000 0.000000 0.000000
# 2 -0.001966 0.016393 -0.005802 0.000000 0.000000 0.000000
# 3 -0.002381 -0.005802 0.011418 0.000000 0.000000 0.000000
# 4 0.000000 0.000000 0.000000 -0.009494 0.000000 0.000000
# 5 0.000000 0.000000 0.000000 0.000000 0.031016 0.000000
# 6 0.000000 0.000000 0.000000 0.000000 0.000000 0.032547
#
#
# Mechanical properties :
#
#
# Convention : Reuss Voigt Hill
#
# Bulk Modulus (GPa) = 64.10433 68.30450 66.20442
# Shear Modulus (GPa) = 43.30404 6.16774 24.73589
#
# Velocity S-wave (km/s) = 4.92571 1.85895 3.72279
# Velocity P-wave (km/s) = 8.26237 6.54810 7.45468
#
# Compressibility (1/GPa) = 0.01559957
#
# Stress axis : x y z
#
# Youngs Moduli (GPa) = 123.66920 61.00323 87.57779
#
# Poissons Ratio (x) = 0.11991 0.20854
# Poissons Ratio (y) = 0.24309 0.50812
# Poissons Ratio (z) = 0.29448 0.35394
#
# Static dielectric constant tensor:
#      x y z
#    x 1.591050 0.000000 0.000000 
#    y 0.000000 1.621600 0.000000 
#    z 0.000000 0.000000 1.614180 
# 
# From -- ./inp_files/49366.got.cif
#   From: 2010.05.17/outbox.cif.g08.bks.cpg/sg74_25_cif.got.tgz:49366.got - 2010.06.03 17:57:02.
