data_PCOD9538660
_publ_section_title
;
Structure prediction by ZEFSAII (Michael W. Deem and Ramdas Pophale) SiO2 
 PCOD9538660
Probable space group: I M M A
;
_chemical_formula_sum "Si O2"
_cell_formula_units_Z 112
_cell_length_a 14.067702
_cell_length_b 30.251460
_cell_length_c 12.031929
_cell_angle_alpha 90.000000
_cell_angle_beta 90.000000
_cell_angle_gamma 90.000000
_cell_volume 5120.410270
_symmetry_space_group_name_H-M "I M M A"
_symmetry_group_IT_number 74
_symmetry_cell_setting 'orthorhombic'
loop_
_space_group_symop_operation_xyz
x,y,z
-x,1/2-y,z
x,-y,-z
-x,1/2+y,-z
-x,-y,-z
x,1/2+y,-z
-x,y,z
x,1/2-y,z
1/2+x,1/2+y,1/2+z
1/2-x,-y,1/2+z
1/2+x,1/2-y,1/2-z
1/2-x,y,1/2-z
1/2-x,1/2-y,1/2-z
1/2+x,y,1/2-z
1/2-x,1/2+y,1/2+z
1/2+x,-y,1/2+z
loop_
_atom_site_type_symbol
_atom_site_label
_atom_site_fract_x
_atom_site_fract_y
_atom_site_fract_z
Si Si1 0.606455 0.424233 0.014346
Si Si2 0.109834 0.135239 0.916991
Si Si3 0.139581 0.201124 0.281913
Si Si4 0.362952 0.606690 0.737912
Si Si5 0.891974 0.342566 0.659652
Si Si6 0.325574 0.549765 0.524023
Si Si7 0.234836 0.700547 0.494195
O O1 0.500000 0.443782 0.988624
O O2 0.600768 0.409002 0.142740
O O3 0.709408 0.448712 0.016500
O O4 0.619362 0.384631 0.924010
O O5 0.123468 0.145359 0.787316
O O6 0.181636 0.164595 0.991047
O O7 0.000000 0.143451 0.945800
O O8 0.135866 0.084331 0.934566
O O9 0.099206 0.250000 0.261850
O O10 0.250000 0.204383 0.250000
O O11 0.100918 0.157083 0.224475
O O12 0.152280 0.192861 0.413936
O O13 0.250000 0.611862 0.750000
O O14 0.368602 0.571170 0.638316
O O15 0.818659 0.305826 0.621164
O O16 0.000000 0.327150 0.647390
O O17 0.356114 0.500000 0.500000
O O18 0.272091 0.750000 0.510572
#
# Coordination Sequence:
#
# PCOD9538660 Si02
#       7
#    16  16  16  16  16  16  16
#     4  10  20  39  65  94 127 164 206 260 326 384
#     4  11  24  42  62  88 128 173 216 267 320 379
#     4   9  16  29  56  89 122 160 204 250 302 370
#     4   9  17  36  60  87 125 162 205 251 317 373
#     4  10  21  39  63  90 127 170 213 261 317 381
#     4  11  24  43  68  95 123 163 216 268 325 392
#     4  11  21  37  64  94 128 172 216 263 318 376
#
# _framework density 21.873248
#
# number of rings (size 3 to 8) (size 9 to 14) (size 15 to 20)
#    0.000    1.857    2.857    2.143    0.000    2.857 
#    7.714    1.429    0.000    0.429    0.000    4.000 
#    0.000    0.000    0.000    0.000    0.000    0.000 
#
# Total GULP energy -312099.328130 kJ/mol
# GULP energy per Si atom -5573.202288 kJ/mol
# Density = 2.182346 g / cm^3
# Si number density = 21.873248 Si / 1000 Ang^3
#
#
#
# Elastic Constant Matrix: (Units=GPa)
#
#
# Indices 1 2 3 4 5 6 
#
# 1 68.6372 21.9976 28.8673 -0.0001 0.0000 0.0000
# 2 21.9976 156.4377 32.8447 0.0000 0.0000 0.0000
# 3 28.8673 32.8447 76.5018 0.0002 0.0001 0.0003
# 4 -0.0001 0.0000 0.0002 17.0209 0.0000 0.0000
# 5 0.0000 0.0000 0.0001 0.0000 0.2260 0.0000
# 6 0.0000 0.0000 0.0003 0.0000 0.0000 -1.7630
#
#
#
# Elastic Compliance Matrix: (Units=1/GPa)
#
#
# Indices 1 2 3 4 5 6 
#
# 1 0.017514 -0.001182 -0.006101 0.000000 0.000001 -0.000001
# 2 -0.001182 0.007105 -0.002605 0.000000 0.000001 0.000000
# 3 -0.006101 -0.002605 0.016492 0.000000 -0.000008 0.000002
# 4 0.000000 0.000000 0.000000 0.058751 0.000001 0.000002
# 5 0.000001 0.000001 -0.000008 0.000001 4.425384 -0.000010
# 6 -0.000001 0.000000 0.000002 0.000002 -0.000010 -0.567204
#
#
# Mechanical properties :
#
#
# Convention : Reuss Voigt Hill
#
# Bulk Modulus (GPa) = 46.86907 52.11067 49.48987
# Shear Modulus (GPa) = 1.25473 17.62125 9.43799
#
# Velocity S-wave (km/s) = 0.75821 2.84140 2.07948
# Velocity P-wave (km/s) = 4.71599 5.88561 5.33296
#
# Compressibility (1/GPa) = 0.02133603
#
# Stress axis : x y z
#
# Youngs Moduli (GPa) = 57.09637 140.73910 60.63481
#
# Poissons Ratio (x) = 0.16632 0.36996
# Poissons Ratio (y) = 0.06747 0.15793
# Poissons Ratio (z) = 0.34837 0.36657
#
# Static dielectric constant tensor:
#      x y z
#    x 1.856870 0.000000 0.000000 
#    y 0.000000 1.798470 0.000000 
#    z 0.000000 0.000000 1.921510 
# 
# From -- ./inp_files/21128.got.cif
#   From: 2010.05.17/outbox.cif.g08.bks.cpg/sg74_11_cif.got.tgz:21128.got - 2010.06.03 17:57:02.
