data_PCOD9538981
_publ_section_title
;
Structure prediction by ZEFSAII (Michael W. Deem and Ramdas Pophale) SiO2 
 PCOD9538981
Probable space group: I M M A
;
_chemical_formula_sum "Si O2"
_cell_formula_units_Z 80
_cell_length_a 17.171844
_cell_length_b 9.808558
_cell_length_c 25.625369
_cell_angle_alpha 90.000000
_cell_angle_beta 90.000000
_cell_angle_gamma 90.000000
_cell_volume 4316.107239
_symmetry_space_group_name_H-M "I M M A"
_symmetry_group_IT_number 74
_symmetry_cell_setting 'orthorhombic'
loop_
_space_group_symop_operation_xyz
x,y,z
-x,1/2-y,z
x,-y,-z
-x,1/2+y,-z
-x,-y,-z
x,1/2+y,-z
-x,y,z
x,1/2-y,z
1/2+x,1/2+y,1/2+z
1/2-x,-y,1/2+z
1/2+x,1/2-y,1/2-z
1/2-x,y,1/2-z
1/2-x,1/2-y,1/2-z
1/2+x,y,1/2-z
1/2-x,1/2+y,1/2+z
1/2+x,-y,1/2+z
loop_
_atom_site_type_symbol
_atom_site_label
_atom_site_fract_x
_atom_site_fract_y
_atom_site_fract_z
Si Si1 0.727808 0.250000 0.974069
Si Si2 0.907628 0.250000 0.607379
Si Si3 0.583424 0.750000 0.370038
Si Si4 0.643691 0.972425 0.443711
Si Si5 0.839200 0.750000 0.233179
Si Si6 0.305812 0.250000 0.198857
Si Si7 0.219080 0.750000 0.911453
Si Si8 0.592421 0.476718 0.805080
O O1 0.647203 0.250000 0.943021
O O2 0.779598 0.119616 0.956595
O O3 0.724436 0.250000 0.037160
O O4 0.891259 0.382707 0.643718
O O5 0.000000 0.250000 0.595413
O O6 0.500000 0.750000 0.342469
O O7 0.592097 0.881268 0.406226
O O8 0.652319 0.750000 0.328551
O O9 0.606320 0.000000 0.500000
O O10 0.668279 0.114026 0.418266
O O11 0.750000 0.750000 0.250000
O O12 0.881449 0.618576 0.257173
O O13 0.250000 0.250000 0.250000
O O14 0.258536 0.250000 0.144655
O O15 0.359102 0.114977 0.197605
O O16 0.500000 0.501673 0.803605
#
# Coordination Sequence:
#
# PCOD9538981 Si02
#       8
#     8   8   8  16   8   8   8  16
#     4   9  17  35  60  85 116 157 196 245 289 345
#     4   9  18  34  62  91 116 155 199 245 301 357
#     4  11  24  40  64  91 119 152 194 245 300 357
#     4   9  20  37  61  87 117 155 192 236 296 355
#     4  11  24  39  65  92 110 151 209 254 284 342
#     4  12  25  36  57  87 115 161 206 244 293 359
#     4  10  21  36  56  87 120 153 202 246 287 339
#     4  10  22  40  58  84 125 158 189 245 309 353
#
# _framework density 18.535221
#
# number of rings (size 3 to 8) (size 9 to 14) (size 15 to 20)
#    0.000    2.000    0.000    4.200   11.200    0.400 
#    0.000    1.500    0.000    7.800    0.000    0.000 
#    0.000    0.000    0.000    0.000    0.000    0.000 
#
# Total GULP energy -223311.581182 kJ/mol
# GULP energy per Si atom -5582.789530 kJ/mol
# Density = 1.849303 g / cm^3
# Si number density = 18.535221 Si / 1000 Ang^3
#
#
#
# Elastic Constant Matrix: (Units=GPa)
#
#
# Indices 1 2 3 4 5 6 
#
# 1 87.4449 45.1104 54.3934 0.0000 0.0000 0.0000
# 2 45.1104 161.2465 42.7480 0.0000 0.0000 0.0000
# 3 54.3934 42.7480 108.7341 0.0000 0.0000 0.0000
# 4 0.0000 0.0000 0.0000 9.8008 0.0000 0.0000
# 5 0.0000 0.0000 0.0000 0.0000 30.8873 0.0000
# 6 0.0000 0.0000 0.0000 0.0000 0.0000 33.5860
#
#
#
# Elastic Compliance Matrix: (Units=1/GPa)
#
#
# Indices 1 2 3 4 5 6 
#
# 1 0.017750 -0.002916 -0.007733 0.000000 0.000000 0.000000
# 2 -0.002916 0.007402 -0.001452 0.000000 0.000000 0.000000
# 3 -0.007733 -0.001452 0.013636 0.000000 0.000000 0.000000
# 4 0.000000 0.000000 0.000000 0.102032 0.000000 0.000000
# 5 0.000000 0.000000 0.000000 0.000000 0.032376 0.000000
# 6 0.000000 0.000000 0.000000 0.000000 0.000000 0.029774
#
#
# Mechanical properties :
#
#
# Convention : Reuss Voigt Hill
#
# Bulk Modulus (GPa) = 68.55190 71.32546 69.93868
# Shear Modulus (GPa) = 21.54860 29.19974 25.37417
#
# Velocity S-wave (km/s) = 3.41336 3.97339 3.70397
# Velocity P-wave (km/s) = 7.25256 7.72108 7.49048
#
# Compressibility (1/GPa) = 0.01458749
#
# Stress axis : x y z
#
# Youngs Moduli (GPa) = 56.33768 135.09490 73.33606
#
# Poissons Ratio (x) = 0.39389 0.56711
# Poissons Ratio (y) = 0.16426 0.10645
# Poissons Ratio (z) = 0.43566 0.19610
#
# Static dielectric constant tensor:
#      x y z
#    x 1.619850 0.000000 0.000000 
#    y 0.000000 1.627990 0.000000 
#    z 0.000000 0.000000 1.648220 
# 
# From -- ./inp_files/67616.got.cif
#   From: 2010.05.17/outbox.cif.g08.bks.cpg/sg74_34_cif.got.tgz:67616.got - 2010.06.03 17:57:02.
