data_PCOD9538964
_publ_section_title
;
Structure prediction by ZEFSAII (Michael W. Deem and Ramdas Pophale) SiO2 
 PCOD9538964
Probable space group: I M M A
;
_chemical_formula_sum "Si O2"
_cell_formula_units_Z 72
_cell_length_a 15.430941
_cell_length_b 8.674588
_cell_length_c 26.866570
_cell_angle_alpha 90.000000
_cell_angle_beta 90.000000
_cell_angle_gamma 90.000000
_cell_volume 3596.279955
_symmetry_space_group_name_H-M "I M M A"
_symmetry_group_IT_number 74
_symmetry_cell_setting 'orthorhombic'
loop_
_space_group_symop_operation_xyz
x,y,z
-x,1/2-y,z
x,-y,-z
-x,1/2+y,-z
-x,-y,-z
x,1/2+y,-z
-x,y,z
x,1/2-y,z
1/2+x,1/2+y,1/2+z
1/2-x,-y,1/2+z
1/2+x,1/2-y,1/2-z
1/2-x,y,1/2-z
1/2-x,1/2-y,1/2-z
1/2+x,y,1/2-z
1/2-x,1/2+y,1/2+z
1/2+x,-y,1/2+z
loop_
_atom_site_type_symbol
_atom_site_label
_atom_site_fract_x
_atom_site_fract_y
_atom_site_fract_z
Si Si1 0.000000 0.431430 0.199643
Si Si2 0.333201 0.436332 0.881308
Si Si3 0.500000 0.066626 0.589425
Si Si4 0.848970 0.566619 0.266564
Si Si5 0.500000 0.435542 0.944933
Si Si6 0.818288 0.566352 0.946632
O O1 0.083839 0.477566 0.232008
O O2 0.000000 0.250000 0.188810
O O3 0.000000 0.522496 0.147695
O O4 0.323686 0.250000 0.882767
O O5 0.353571 0.478444 0.824436
O O6 0.414021 0.483127 0.915430
O O7 0.246703 0.509727 0.903659
O O8 0.500000 0.250000 0.583331
O O9 0.413841 0.996993 0.564949
O O10 0.868581 0.750000 0.262680
O O11 0.750000 0.543657 0.250000
O O12 0.500000 0.250000 0.946511
O O13 0.500000 0.500000 0.000000
O O14 0.819480 0.750000 0.948729
O O15 0.788776 0.500000 0.000000
#
# Coordination Sequence:
#
# PCOD9538964 Si02
#       6
#     8  16   8  16   8  16
#     4  12  25  40  62  94 129 162 202 254 309 366
#     4  10  21  39  62  90 122 160 205 252 303 358
#     4  12  25  44  67  90 121 162 207 254 307 366
#     4  10  21  39  64  90 119 160 206 250 301 363
#     4  10  21  36  56  82 116 156 201 250 295 348
#     4  12  25  42  64  93 127 162 203 252 307 366
#
# _framework density 20.020686999999999
#
# number of rings (size 3 to 8) (size 9 to 14) (size 15 to 20)
#    0.000    1.111    0.000    7.000    0.000    7.556 
#    0.000    1.111    0.000    0.000    0.000    0.000 
#    0.000    0.000    0.000    0.000    0.000    0.000 
#
# Total GULP energy -201517.948404 kJ/mol
# GULP energy per Si atom -5597.720789 kJ/mol
# Density = 1.997512 g / cm^3
# Si number density = 20.020687 Si / 1000 Ang^3
#
#
#
# Elastic Constant Matrix: (Units=GPa)
#
#
# Indices 1 2 3 4 5 6 
#
# 1 55.1041 11.5224 -11.1209 0.0000 0.0000 0.0000
# 2 11.5224 72.9584 9.0706 0.0000 0.0000 0.0000
# 3 -11.1209 9.0706 85.2916 0.0000 0.0000 0.0000
# 4 0.0000 0.0000 0.0000 34.0860 0.0000 0.0000
# 5 0.0000 0.0000 0.0000 0.0000 34.9040 0.0000
# 6 0.0000 0.0000 0.0000 0.0000 0.0000 15.9938
#
#
#
# Elastic Compliance Matrix: (Units=1/GPa)
#
#
# Indices 1 2 3 4 5 6 
#
# 1 0.019451 -0.003433 0.002901 0.000000 0.000000 0.000000
# 2 -0.003433 0.014496 -0.001989 0.000000 0.000000 0.000000
# 3 0.002901 -0.001989 0.012314 0.000000 0.000000 0.000000
# 4 0.000000 0.000000 0.000000 0.029338 0.000000 0.000000
# 5 0.000000 0.000000 0.000000 0.000000 0.028650 0.000000
# 6 0.000000 0.000000 0.000000 0.000000 0.000000 0.062524
#
#
# Mechanical properties :
#
#
# Convention : Reuss Voigt Hill
#
# Bulk Modulus (GPa) = 24.26021 25.81092 25.03557
# Shear Modulus (GPa) = 26.94636 30.58888 28.76762
#
# Velocity S-wave (km/s) = 3.67267 3.91303 3.79475
# Velocity P-wave (km/s) = 5.48895 5.77372 5.63313
#
# Compressibility (1/GPa) = 0.04121975
#
# Stress axis : x y z
#
# Youngs Moduli (GPa) = 51.41194 68.98520 81.20638
#
# Poissons Ratio (x) = 0.23680 -0.23559
# Poissons Ratio (y) = 0.17647 0.16153
# Poissons Ratio (z) = -0.14915 0.13722
#
# Static dielectric constant tensor:
#      x y z
#    x 1.698990 0.000000 0.000000 
#    y 0.000000 1.677860 0.000000 
#    z 0.000000 0.000000 1.684080 
# 
# From -- ./inp_files/63650.got.cif
#   From: 2010.05.17/outbox.cif.g08.bks.cpg/sg74_32_cif.got.tgz:63650.got - 2010.06.03 17:57:02.
