data_PCOD9538477
_publ_section_title
;
Structure prediction by ZEFSAII (Michael W. Deem and Ramdas Pophale) SiO2 
 PCOD9538477
Probable space group: I M M A
;
_chemical_formula_sum "Si O2"
_cell_formula_units_Z 108
_cell_length_a 16.445368
_cell_length_b 14.154800
_cell_length_c 22.332888
_cell_angle_alpha 90.000000
_cell_angle_beta 90.000000
_cell_angle_gamma 90.000000
_cell_volume 5198.669656
_symmetry_space_group_name_H-M "I M M A"
_symmetry_group_IT_number 74
_symmetry_cell_setting 'orthorhombic'
loop_
_space_group_symop_operation_xyz
x,y,z
-x,1/2-y,z
x,-y,-z
-x,1/2+y,-z
-x,-y,-z
x,1/2+y,-z
-x,y,z
x,1/2-y,z
1/2+x,1/2+y,1/2+z
1/2-x,-y,1/2+z
1/2+x,1/2-y,1/2-z
1/2-x,y,1/2-z
1/2-x,1/2-y,1/2-z
1/2+x,y,1/2-z
1/2-x,1/2+y,1/2+z
1/2+x,-y,1/2+z
loop_
_atom_site_type_symbol
_atom_site_label
_atom_site_fract_x
_atom_site_fract_y
_atom_site_fract_z
Si Si1 0.346240 0.500000 0.000000
Si Si2 0.000000 0.250000 0.642211
Si Si3 0.092682 0.015580 0.745694
Si Si4 0.907701 0.861927 0.845222
Si Si5 0.910670 0.135728 0.940612
Si Si6 0.710687 0.863371 0.546753
Si Si7 0.803839 0.862754 0.171263
Si Si8 0.873250 0.420939 0.625030
O O1 0.291030 0.421966 0.033725
O O2 0.388869 0.550238 0.056315
O O3 0.929074 0.332174 0.640718
O O4 0.162011 0.087710 0.768984
O O5 0.104563 0.001172 0.675073
O O6 0.000000 0.051863 0.755827
O O7 0.101713 0.922258 0.785368
O O8 0.901697 0.750000 0.833930
O O9 0.838167 0.886858 0.892887
O O10 0.000000 0.878732 0.869094
O O11 0.915357 0.250000 0.942892
O O12 0.874716 0.112726 0.876258
O O13 0.000000 0.096120 0.949267
O O14 0.849170 0.110403 0.992552
O O15 0.724790 0.750000 0.545484
O O16 0.799426 0.750000 0.179996
O O17 0.721090 0.895766 0.138763
#
# Coordination Sequence:
#
# PCOD9538477 Si02
#       8
#     8   4  16  16  16  16  16  16
#     4  12  26  43  71  96 130 170 228 290 329 395
#     4  12  28  50  78  96 128 176 216 278 352 414
#     4  11  24  41  64 100 137 172 219 268 325 404
#     4   9  19  38  63  90 131 181 221 261 314 386
#     4   9  17  31  53  90 137 178 218 259 309 386
#     4  10  20  37  62  95 134 181 225 268 327 385
#     4  11  22  37  64  97 135 177 212 262 331 402
#     4  12  26  47  71  96 131 166 222 277 343 399
#
# _framework density 20.774546000000001
#
# number of rings (size 3 to 8) (size 9 to 14) (size 15 to 20)
#    0.000    1.481    2.963    2.222    2.074    3.556 
#    0.000    1.481    0.000    3.556    0.000    0.000 
#    0.000    0.000    0.000    0.000    0.000    0.000 
#
# Total GULP energy -301168.498532 kJ/mol
# GULP energy per Si atom -5577.194417 kJ/mol
# Density = 2.072726 g / cm^3
# Si number density = 20.774546 Si / 1000 Ang^3
#
#
#
# Elastic Constant Matrix: (Units=GPa)
#
#
# Indices 1 2 3 4 5 6 
#
# 1 56.2978 2.4521 -1.1463 0.0000 0.0000 0.0000
# 2 2.4521 63.2185 24.6535 0.0000 0.0000 0.0000
# 3 -1.1463 24.6535 112.3987 0.0000 0.0000 0.0000
# 4 0.0000 0.0000 0.0000 4.4953 0.0000 0.0000
# 5 0.0000 0.0000 0.0000 0.0000 21.0828 0.0000
# 6 0.0000 0.0000 0.0000 0.0000 0.0000 37.3233
#
#
#
# Elastic Compliance Matrix: (Units=1/GPa)
#
#
# Indices 1 2 3 4 5 6 
#
# 1 0.017806 -0.000833 0.000364 0.000000 0.000000 0.000000
# 2 -0.000833 0.017337 -0.003811 0.000000 0.000000 0.000000
# 3 0.000364 -0.003811 0.009737 0.000000 0.000000 0.000000
# 4 0.000000 0.000000 0.000000 0.222456 0.000000 0.000000
# 5 0.000000 0.000000 0.000000 0.000000 0.047432 0.000000
# 6 0.000000 0.000000 0.000000 0.000000 0.000000 0.026793
#
#
# Mechanical properties :
#
#
# Convention : Reuss Voigt Hill
#
# Bulk Modulus (GPa) = 27.53273 31.53707 29.53490
# Shear Modulus (GPa) = 13.80354 26.31067 20.05710
#
# Velocity S-wave (km/s) = 2.58048 3.56263 3.11056
# Velocity P-wave (km/s) = 4.70748 5.66893 5.21043
#
# Compressibility (1/GPa) = 0.03632040
#
# Stress axis : x y z
#
# Youngs Moduli (GPa) = 56.15972 57.68120 102.70586
#
# Poissons Ratio (x) = 0.04803 -0.03741
# Poissons Ratio (y) = 0.04677 0.39142
# Poissons Ratio (z) = -0.02046 0.21983
#
# Static dielectric constant tensor:
#      x y z
#    x 1.766250 0.000000 0.000000 
#    y 0.000000 1.748420 0.000000 
#    z 0.000000 0.000000 1.763710 
# 
# From -- ./inp_files/60207.got.cif
#   From: 2010.05.17/outbox.cif.g08.bks.cpg/sg74_31_cif.got.tgz:60207.got - 2010.06.03 17:57:02.
