data_PCOD9538218
_publ_section_title
;
Structure prediction by ZEFSAII (Michael W. Deem and Ramdas Pophale) SiO2 
 PCOD9538218
Probable space group: I M M A
;
_chemical_formula_sum "Si O2"
_cell_formula_units_Z 88
_cell_length_a 15.729598
_cell_length_b 18.399024
_cell_length_c 16.610318
_cell_angle_alpha 90.000000
_cell_angle_beta 90.000000
_cell_angle_gamma 90.000000
_cell_volume 4807.179693
_symmetry_space_group_name_H-M "I M M A"
_symmetry_group_IT_number 74
_symmetry_cell_setting 'orthorhombic'
loop_
_space_group_symop_operation_xyz
x,y,z
-x,1/2-y,z
x,-y,-z
-x,1/2+y,-z
-x,-y,-z
x,1/2+y,-z
-x,y,z
x,1/2-y,z
1/2+x,1/2+y,1/2+z
1/2-x,-y,1/2+z
1/2+x,1/2-y,1/2-z
1/2-x,y,1/2-z
1/2-x,1/2-y,1/2-z
1/2+x,y,1/2-z
1/2-x,1/2+y,1/2+z
1/2+x,-y,1/2+z
loop_
_atom_site_type_symbol
_atom_site_label
_atom_site_fract_x
_atom_site_fract_y
_atom_site_fract_z
Si Si1 0.179941 0.917793 0.967701
Si Si2 0.000000 0.161746 0.633708
Si Si3 0.000000 0.939964 0.210878
Si Si4 0.500000 0.086095 0.525384
Si Si5 0.151141 0.336051 0.512286
Si Si6 0.099654 0.832305 0.670871
Si Si7 0.334350 0.457698 0.283342
O O1 0.183009 0.925373 0.871603
O O2 0.258985 0.876408 0.007168
O O3 0.088380 0.884390 0.990718
O O4 0.182397 0.000000 0.000000
O O5 0.916401 0.141717 0.580757
O O6 0.000000 0.250000 0.643570
O O7 0.000000 0.118556 0.717442
O O8 0.000000 0.907187 0.121303
O O9 0.083877 0.990378 0.215673
O O10 0.500000 0.000000 0.500000
O O11 0.165291 0.250000 0.522198
O O12 0.109656 0.346954 0.424162
O O13 0.130565 0.750000 0.685574
O O14 0.147129 0.891440 0.723298
O O15 0.000000 0.835379 0.691200
O O16 0.250000 0.496692 0.250000
#
# Coordination Sequence:
#
# PCOD9538218 Si02
#       7
#    16   8   8   8  16  16  16
#     4  11  22  39  62  85 121 160 202 244 303 360
#     4  10  24  43  66  90 121 162 207 256 318 372
#     4  12  24  41  63  88 121 157 203 256 308 355
#     4  10  20  42  62  78 113 164 199 239 297 352
#     4  10  21  40  61  88 122 160 198 245 303 368
#     4  10  20  36  58  85 125 164 195 238 297 361
#     4  12  23  36  59  94 125 156 201 249 303 365
#
# _framework density 18.305951
#
# number of rings (size 3 to 8) (size 9 to 14) (size 15 to 20)
#    0.000    1.273    7.273    0.000    2.545    1.091 
#    0.000    2.727    0.000    2.727    0.000    0.000 
#    0.000    0.000    0.000    0.000    0.000    0.000 
#
# Total GULP energy -245559.019891 kJ/mol
# GULP energy per Si atom -5580.886816 kJ/mol
# Density = 1.826429 g / cm^3
# Si number density = 18.305951 Si / 1000 Ang^3
#
#
#
# Elastic Constant Matrix: (Units=GPa)
#
#
# Indices 1 2 3 4 5 6 
#
# 1 164.6519 28.3991 52.7482 0.0000 0.0000 0.0000
# 2 28.3991 21.6727 33.2974 0.0000 0.0000 0.0000
# 3 52.7482 33.2974 128.7615 0.0000 0.0000 0.0000
# 4 0.0000 0.0000 0.0000 29.1700 0.0000 0.0000
# 5 0.0000 0.0000 0.0000 0.0000 15.3333 0.0000
# 6 0.0000 0.0000 0.0000 0.0000 0.0000 7.6762
#
#
#
# Elastic Compliance Matrix: (Units=1/GPa)
#
#
# Indices 1 2 3 4 5 6 
#
# 1 0.007913 -0.008941 -0.000930 0.000000 0.000000 0.000000
# 2 -0.008941 0.086660 -0.018747 0.000000 0.000000 0.000000
# 3 -0.000930 -0.018747 0.012995 0.000000 0.000000 0.000000
# 4 0.000000 0.000000 0.000000 0.034282 0.000000 0.000000
# 5 0.000000 0.000000 0.000000 0.000000 0.065218 0.000000
# 6 0.000000 0.000000 0.000000 0.000000 0.000000 0.130273
#
#
# Mechanical properties :
#
#
# Convention : Reuss Voigt Hill
#
# Bulk Modulus (GPa) = 19.86795 60.44173 40.15484
# Shear Modulus (GPa) = 12.15499 23.81199 17.98349
#
# Velocity S-wave (km/s) = 2.57960 3.61054 3.13770
# Velocity P-wave (km/s) = 4.44402 7.10426 5.92536
#
# Compressibility (1/GPa) = 0.05033231
#
# Stress axis : x y z
#
# Youngs Moduli (GPa) = 126.36794 11.53939 76.95210
#
# Poissons Ratio (x) = 0.10318 0.07154
# Poissons Ratio (y) = 1.12987 1.44263
# Poissons Ratio (z) = 0.11748 0.21633
#
# Static dielectric constant tensor:
#      x y z
#    x 1.675850 0.000000 0.000000 
#    y 0.000000 1.609030 0.000000 
#    z 0.000000 0.000000 1.628150 
# 
# From -- ./inp_files/32241.got.cif
#   From: 2010.05.17/outbox.cif.g08.bks.cpg/sg74_17_cif.got.tgz:32241.got - 2010.06.03 17:57:02.
