data_PCOD9538013
_publ_section_title
;
Structure prediction by ZEFSAII (Michael W. Deem and Ramdas Pophale) SiO2 
 PCOD9538013
Probable space group: I M M A
;
_chemical_formula_sum "Si O2"
_cell_formula_units_Z 64
_cell_length_a 14.301736
_cell_length_b 15.163413
_cell_length_c 11.916591
_cell_angle_alpha 90.000000
_cell_angle_beta 90.000000
_cell_angle_gamma 90.000000
_cell_volume 2584.269218
_symmetry_space_group_name_H-M "I M M A"
_symmetry_group_IT_number 74
_symmetry_cell_setting 'orthorhombic'
loop_
_space_group_symop_operation_xyz
x,y,z
-x,1/2-y,z
x,-y,-z
-x,1/2+y,-z
-x,-y,-z
x,1/2+y,-z
-x,y,z
x,1/2-y,z
1/2+x,1/2+y,1/2+z
1/2-x,-y,1/2+z
1/2+x,1/2-y,1/2-z
1/2-x,y,1/2-z
1/2-x,1/2-y,1/2-z
1/2+x,y,1/2-z
1/2-x,1/2+y,1/2+z
1/2+x,-y,1/2+z
loop_
_atom_site_type_symbol
_atom_site_label
_atom_site_fract_x
_atom_site_fract_y
_atom_site_fract_z
Si Si1 0.602232 0.602187 0.036192
Si Si2 0.390834 0.039153 0.719882
Si Si3 0.804456 0.346605 0.970275
Si Si4 0.610817 0.845662 0.713979
O O1 0.500000 0.638881 0.004052
O O2 0.610946 0.601114 0.171328
O O3 0.696431 0.645808 0.993694
O O4 0.601597 0.500000 0.000000
O O5 0.500000 0.033135 0.684184
O O6 0.330968 0.078477 0.618756
O O7 0.358598 0.941372 0.757658
O O8 0.820240 0.250000 0.918346
O O9 0.866535 0.352078 0.081547
O O10 0.500000 0.843457 0.731326
O O11 0.647089 0.750000 0.753534
#
# Coordination Sequence:
#
# PCOD9538013 Si02
#       4
#    16  16  16  16
#     4  10  22  39  56  75 104 146 192 230 264 309
#     4  10  20  35  58  84 110 142 178 221 273 325
#     4  11  22  35  55  83 113 145 179 219 270 325
#     4   9  18  34  58  88 115 136 167 218 280 338
#
# _framework density 24.765221
#
# number of rings (size 3 to 8) (size 9 to 14) (size 15 to 20)
#    0.000    2.000    0.000    3.750    0.000    6.000 
#    0.000    3.750    0.000   10.500    0.000    0.000 
#    0.000    0.000    0.000    0.000    0.000    0.000 
#
# Total GULP energy -178977.630028 kJ/mol
# GULP energy per Si atom -5593.050938 kJ/mol
# Density = 2.470885 g / cm^3
# Si number density = 24.765221 Si / 1000 Ang^3
#
#
#
# Elastic Constant Matrix: (Units=GPa)
#
#
# Indices 1 2 3 4 5 6 
#
# 1 117.8411 15.9726 19.3738 0.0000 0.0000 0.0000
# 2 15.9726 112.6919 20.9760 0.0000 0.0000 0.0000
# 3 19.3738 20.9760 86.3437 0.0000 0.0000 0.0000
# 4 0.0000 0.0000 0.0000 -69.8049 0.0000 0.0000
# 5 0.0000 0.0000 0.0000 0.0000 12.3435 0.0000
# 6 0.0000 0.0000 0.0000 0.0000 0.0000 0.0878
#
#
#
# Elastic Compliance Matrix: (Units=1/GPa)
#
#
# Indices 1 2 3 4 5 6 
#
# 1 0.008904 -0.000932 -0.001771 0.000000 0.000000 0.000000
# 2 -0.000932 0.009392 -0.002072 0.000000 0.000000 0.000000
# 3 -0.001771 -0.002072 0.012483 0.000000 0.000000 0.000000
# 4 0.000000 0.000000 0.000000 -0.014326 0.000000 0.000000
# 5 0.000000 0.000000 0.000000 0.000000 0.081014 0.000000
# 6 0.000000 0.000000 0.000000 0.000000 0.000000 11.389577
#
#
# Mechanical properties :
#
#
# Convention : Reuss Voigt Hill
#
# Bulk Modulus (GPa) = 47.11240 47.72460 47.41850
# Shear Modulus (GPa) = 0.43464 5.89557 3.16511
#
# Velocity S-wave (km/s) = 0.41939 1.54459 1.13173
# Velocity P-wave (km/s) = 4.39311 4.74275 4.57127
#
# Compressibility (1/GPa) = 0.02122583
#
# Stress axis : x y z
#
# Youngs Moduli (GPa) = 112.31442 106.47779 80.11206
#
# Poissons Ratio (x) = 0.09927 0.14190
# Poissons Ratio (y) = 0.10471 0.16602
# Poissons Ratio (z) = 0.19894 0.22066
#
# Static dielectric constant tensor:
#      x y z
#    x 1.967470 0.000000 0.000000 
#    y 0.000000 1.975610 0.000000 
#    z 0.000000 0.000000 1.912770 
# 
# From -- ./inp_files/19905.got.cif
#   From: 2010.05.17/outbox.cif.g08.bks.cpg/sg74_10_cif.got.tgz:19905.got - 2010.06.03 17:57:02.
