data_PCOD9538191
_publ_section_title
;
Structure prediction by ZEFSAII (Michael W. Deem and Ramdas Pophale) SiO2 
 PCOD9538191
Probable space group: I M M A
;
_chemical_formula_sum "Si O2"
_cell_formula_units_Z 96
_cell_length_a 26.452334
_cell_length_b 16.349123
_cell_length_c 10.170468
_cell_angle_alpha 90.000000
_cell_angle_beta 90.000000
_cell_angle_gamma 90.000000
_cell_volume 4398.447338
_symmetry_space_group_name_H-M "I M M A"
_symmetry_group_IT_number 74
_symmetry_cell_setting 'orthorhombic'
loop_
_space_group_symop_operation_xyz
x,y,z
-x,1/2-y,z
x,-y,-z
-x,1/2+y,-z
-x,-y,-z
x,1/2+y,-z
-x,y,z
x,1/2-y,z
1/2+x,1/2+y,1/2+z
1/2-x,-y,1/2+z
1/2+x,1/2-y,1/2-z
1/2-x,y,1/2-z
1/2-x,1/2-y,1/2-z
1/2+x,y,1/2-z
1/2-x,1/2+y,1/2+z
1/2+x,-y,1/2+z
loop_
_atom_site_type_symbol
_atom_site_label
_atom_site_fract_x
_atom_site_fract_y
_atom_site_fract_z
Si Si1 0.115891 0.952953 0.368229
Si Si2 0.554801 0.347854 0.355624
Si Si3 0.202014 0.658164 0.469203
Si Si4 0.339385 0.388691 0.240415
Si Si5 0.908401 0.346700 0.853615
Si Si6 0.808248 0.405436 0.975061
O O1 0.150306 0.877901 0.414419
O O2 0.078935 0.911312 0.261790
O O3 0.096691 0.000000 0.500000
O O4 0.155002 0.016074 0.299030
O O5 0.500000 0.380332 0.314379
O O6 0.552662 0.250000 0.358287
O O7 0.601396 0.368198 0.261543
O O8 0.566461 0.371413 0.506966
O O9 0.211478 0.750000 0.426006
O O10 0.191047 0.653831 0.624998
O O11 0.250641 0.604503 0.432593
O O12 0.314016 0.368735 0.378827
O O13 0.918496 0.250000 0.827154
O O14 0.848678 0.360608 0.883582
O O15 0.821927 0.500000 0.000000
#
# Coordination Sequence:
#
# PCOD9538191 Si02
#       6
#    16  16  16  16  16  16
#     4  10  21  38  54  76 111 155 196 239 293 343
#     4   9  19  36  62  94 119 144 184 239 304 359
#     4  11  23  35  52  81 114 156 203 240 280 345
#     4  10  20  36  58  81 115 155 189 236 294 351
#     4  10  20  36  59  84 115 152 194 246 295 349
#     4  11  20  34  56  82 117 154 194 240 297 346
#
# _framework density 21.825886000000001
#
# number of rings (size 3 to 8) (size 9 to 14) (size 15 to 20)
#    0.000    1.833    1.667    3.500    0.000    3.333 
#    0.000    3.333    0.000    9.000    0.000    9.333 
#    0.000    0.000    0.000    0.000    0.000    0.000 
#
# Total GULP energy -267804.429021 kJ/mol
# GULP energy per Si atom -5579.258938 kJ/mol
# Density = 2.177621 g / cm^3
# Si number density = 21.825886 Si / 1000 Ang^3
#
#
#
# Elastic Constant Matrix: (Units=GPa)
#
#
# Indices 1 2 3 4 5 6 
#
# 1 73.2615 -13.2076 -4.7755 0.0000 0.0000 0.0000
# 2 -13.2076 61.3137 3.2324 0.0000 0.0000 0.0000
# 3 -4.7755 3.2324 69.6341 0.0000 0.0000 0.0000
# 4 0.0000 0.0000 0.0000 27.7912 0.0000 0.0000
# 5 0.0000 0.0000 0.0000 0.0000 2.3664 0.0000
# 6 0.0000 0.0000 0.0000 0.0000 0.0000 10.2447
#
#
#
# Elastic Compliance Matrix: (Units=1/GPa)
#
#
# Indices 1 2 3 4 5 6 
#
# 1 0.014250 0.003025 0.000837 0.000000 0.000000 0.000000
# 2 0.003025 0.016992 -0.000581 0.000000 0.000000 0.000000
# 3 0.000837 -0.000581 0.014445 0.000000 0.000000 0.000000
# 4 0.000000 0.000000 0.000000 0.035983 0.000000 0.000000
# 5 0.000000 0.000000 0.000000 0.000000 0.422576 0.000000
# 6 0.000000 0.000000 0.000000 0.000000 0.000000 0.097612
#
#
# Mechanical properties :
#
#
# Convention : Reuss Voigt Hill
#
# Bulk Modulus (GPa) = 19.13926 19.41200 19.27563
# Shear Modulus (GPa) = 8.16045 22.67780 15.41912
#
# Velocity S-wave (km/s) = 1.93572 3.22690 2.66082
# Velocity P-wave (km/s) = 3.71270 4.77464 4.27676
#
# Compressibility (1/GPa) = 0.05224863
#
# Stress axis : x y z
#
# Youngs Moduli (GPa) = 70.17691 58.85150 69.22743
#
# Poissons Ratio (x) = -0.17805 -0.05793
# Poissons Ratio (y) = -0.21231 0.04024
# Poissons Ratio (z) = -0.05872 0.03421
#
# Static dielectric constant tensor:
#      x y z
#    x 1.802790 0.000000 0.000000 
#    y 0.000000 1.808290 0.000000 
#    z 0.000000 0.000000 1.893300 
# 
# From -- ./inp_files/22689.got.cif
#   From: 2010.05.17/outbox.cif.g08.bks.cpg/sg74_12_cif.got.tgz:22689.got - 2010.06.03 17:57:02.
