data_PCOD9538249
_publ_section_title
;
Structure prediction by ZEFSAII (Michael W. Deem and Ramdas Pophale) SiO2 
 PCOD9538249
Probable space group: I M M A
;
_chemical_formula_sum "Si O2"
_cell_formula_units_Z 112
_cell_length_a 15.720003
_cell_length_b 14.830855
_cell_length_c 23.516946
_cell_angle_alpha 90.000000
_cell_angle_beta 90.000000
_cell_angle_gamma 90.000000
_cell_volume 5482.766309
_symmetry_space_group_name_H-M "I M M A"
_symmetry_group_IT_number 74
_symmetry_cell_setting 'orthorhombic'
loop_
_space_group_symop_operation_xyz
x,y,z
-x,1/2-y,z
x,-y,-z
-x,1/2+y,-z
-x,-y,-z
x,1/2+y,-z
-x,y,z
x,1/2-y,z
1/2+x,1/2+y,1/2+z
1/2-x,-y,1/2+z
1/2+x,1/2-y,1/2-z
1/2-x,y,1/2-z
1/2-x,1/2-y,1/2-z
1/2+x,y,1/2-z
1/2-x,1/2+y,1/2+z
1/2+x,-y,1/2+z
loop_
_atom_site_type_symbol
_atom_site_label
_atom_site_fract_x
_atom_site_fract_y
_atom_site_fract_z
Si Si1 0.349651 0.855403 0.733579
Si Si2 0.903554 0.089382 0.461448
Si Si3 0.094811 0.978246 0.666435
Si Si4 0.857988 0.650540 0.098992
Si Si5 0.403441 0.049103 0.383420
Si Si6 0.213778 0.649511 0.971784
Si Si7 0.294209 0.847570 0.188678
O O1 0.370771 0.750000 0.726018
O O2 0.250000 0.862005 0.750000
O O3 0.373113 0.910688 0.676937
O O4 0.396184 0.900749 0.786760
O O5 0.815948 0.139404 0.477125
O O6 0.000000 0.130051 0.466678
O O7 0.904707 0.000000 0.500000
O O8 0.890208 0.062166 0.395828
O O9 0.153766 0.061974 0.680580
O O10 0.000000 0.014654 0.666790
O O11 0.899376 0.750000 0.104709
O O12 0.905446 0.559465 0.116266
O O13 0.776406 0.652396 0.139820
O O14 0.827183 0.641297 0.034000
O O15 0.500000 0.081508 0.396075
O O16 0.333742 0.080759 0.429777
O O17 0.196306 0.750000 0.949101
O O18 0.340384 0.750000 0.185163
O O19 0.250000 0.851144 0.250000
#
# Coordination Sequence:
#
# PCOD9538249 Si02
#       7
#    16  16  16  16  16  16  16
#     4  11  24  42  64  88 117 157 205 256 309 369
#     4  10  21  38  61  89 122 162 210 262 316 378
#     4  11  22  35  56  85 117 153 191 241 304 365
#     4  10  22  40  63  90 120 159 208 259 312 375
#     4  12  25  41  64  92 126 168 211 260 317 378
#     4  11  23  39  61  89 124 167 213 261 316 379
#     4  10  20  36  59  84 112 150 195 244 302 367
#
# _framework density 20.427644000000001
#
# number of rings (size 3 to 8) (size 9 to 14) (size 15 to 20)
#    0.000    1.286    0.000    6.857    0.000    5.714 
#    0.000    2.857    0.000    9.429    0.000    0.000 
#    0.000    0.000    0.000    0.000    0.000    0.000 
#
# Total GULP energy -312687.598544 kJ/mol
# GULP energy per Si atom -5583.707117 kJ/mol
# Density = 2.038115 g / cm^3
# Si number density = 20.427644 Si / 1000 Ang^3
#
#
#
# Elastic Constant Matrix: (Units=GPa)
#
#
# Indices 1 2 3 4 5 6 
#
# 1 61.6343 36.9722 -3.0611 0.0000 0.0000 0.0000
# 2 36.9722 123.7834 30.0917 0.0000 0.0000 0.0000
# 3 -3.0611 30.0917 100.9824 0.0000 0.0000 0.0000
# 4 0.0000 0.0000 0.0000 18.8042 0.0000 0.0000
# 5 0.0000 0.0000 0.0000 0.0000 49.5433 0.0000
# 6 0.0000 0.0000 0.0000 0.0000 0.0000 76.3458
#
#
#
# Elastic Compliance Matrix: (Units=1/GPa)
#
#
# Indices 1 2 3 4 5 6 
#
# 1 0.020391 -0.006728 0.002623 0.000000 0.000000 0.000000
# 2 -0.006728 0.010930 -0.003461 0.000000 0.000000 0.000000
# 3 0.002623 -0.003461 0.011014 0.000000 0.000000 0.000000
# 4 0.000000 0.000000 0.000000 0.053180 0.000000 0.000000
# 5 0.000000 0.000000 0.000000 0.000000 0.020184 0.000000
# 6 0.000000 0.000000 0.000000 0.000000 0.000000 0.013098
#
#
# Mechanical properties :
#
#
# Convention : Reuss Voigt Hill
#
# Bulk Modulus (GPa) = 36.76181 46.04509 41.40345
# Shear Modulus (GPa) = 32.68067 43.76514 38.22290
#
# Velocity S-wave (km/s) = 4.00412 4.63368 4.33036
# Velocity P-wave (km/s) = 6.27794 7.15664 6.73164
#
# Compressibility (1/GPa) = 0.02720215
#
# Stress axis : x y z
#
# Youngs Moduli (GPa) = 49.04132 91.49515 90.79748
#
# Poissons Ratio (x) = 0.61559 -0.23816
# Poissons Ratio (y) = 0.32996 0.31424
# Poissons Ratio (z) = -0.12864 0.31665
#
# Static dielectric constant tensor:
#      x y z
#    x 1.383920 0.000000 0.000000 
#    y 0.000000 1.740020 0.000000 
#    z 0.000000 0.000000 1.685520 
# 
# From -- ./inp_files/60188.got.cif
#   From: 2010.05.17/outbox.cif.g08.bks.cpg/sg74_31_cif.got.tgz:60188.got - 2010.06.03 17:57:02.
