data_PCOD9538347
_publ_section_title
;
Structure prediction by ZEFSAII (Michael W. Deem and Ramdas Pophale) SiO2 
 PCOD9538347
Probable space group: I M M A
;
_chemical_formula_sum "Si O2"
_cell_formula_units_Z 80
_cell_length_a 15.124074
_cell_length_b 23.377079
_cell_length_c 10.253037
_cell_angle_alpha 90.000000
_cell_angle_beta 90.000000
_cell_angle_gamma 90.000000
_cell_volume 3625.029647
_symmetry_space_group_name_H-M "I M M A"
_symmetry_group_IT_number 74
_symmetry_cell_setting 'orthorhombic'
loop_
_space_group_symop_operation_xyz
x,y,z
-x,1/2-y,z
x,-y,-z
-x,1/2+y,-z
-x,-y,-z
x,1/2+y,-z
-x,y,z
x,1/2-y,z
1/2+x,1/2+y,1/2+z
1/2-x,-y,1/2+z
1/2+x,1/2-y,1/2-z
1/2-x,y,1/2-z
1/2-x,1/2-y,1/2-z
1/2+x,y,1/2-z
1/2-x,1/2+y,1/2+z
1/2+x,-y,1/2+z
loop_
_atom_site_type_symbol
_atom_site_label
_atom_site_fract_x
_atom_site_fract_y
_atom_site_fract_z
Si Si1 0.663253 0.750000 0.840456
Si Si2 0.391198 0.434443 0.465933
Si Si3 0.663194 0.750000 0.160553
Si Si4 0.108279 0.062013 0.545146
Si Si5 0.605104 0.869549 0.283265
Si Si6 0.103960 0.124935 0.295570
O O1 0.750000 0.750000 0.750000
O O2 0.614479 0.692615 0.795078
O O3 0.672533 0.750000 0.001213
O O4 0.365543 0.500000 0.500000
O O5 0.500000 0.434994 0.463206
O O6 0.361531 0.387635 0.574170
O O7 0.359711 0.410370 0.326744
O O8 0.750000 0.750000 0.250000
O O9 0.618779 0.808522 0.213180
O O10 0.140219 0.082640 0.684264
O O11 0.140312 0.104496 0.433630
O O12 0.000000 0.062595 0.551524
O O13 0.135437 0.000000 0.500000
O O14 0.500000 0.875495 0.293721
O O15 0.000000 0.111342 0.297649
#
# Coordination Sequence:
#
# PCOD9538347 Si02
#       6
#     8  16   8  16  16  16
#     4  12  27  43  60  82 116 157 200 249 297 349
#     4   9  18  33  57  94 130 153 182 233 294 351
#     4  12  27  43  60  82 116 157 200 249 297 349
#     4   9  16  29  55  90 118 143 184 239 294 341
#     4  10  20  36  62  90 118 153 194 241 288 341
#     4  10  20  36  62  90 118 153 194 241 288 341
#
# _framework density 22.068787
#
# number of rings (size 3 to 8) (size 9 to 14) (size 15 to 20)
#    0.000    2.000    2.000    1.800    2.800    5.600 
#    0.000    3.000    0.000    7.200    0.000    0.000 
#    0.000    0.000    0.000    0.000    0.000    0.000 
#
# Total GULP energy -223033.378385 kJ/mol
# GULP energy per Si atom -5575.834460 kJ/mol
# Density = 2.201856 g / cm^3
# Si number density = 22.068787 Si / 1000 Ang^3
#
#
#
# Elastic Constant Matrix: (Units=GPa)
#
#
# Indices 1 2 3 4 5 6 
#
# 1 27.4746 -19.5333 15.1302 0.0000 0.0000 0.0000
# 2 -19.5333 79.7011 -1.3150 0.0000 0.0000 0.0000
# 3 15.1302 -1.3150 107.0167 -0.0001 0.0001 0.0001
# 4 0.0000 0.0000 -0.0001 40.4268 0.0000 0.0000
# 5 0.0000 0.0000 0.0001 0.0000 14.0584 0.0000
# 6 0.0000 0.0000 0.0001 0.0000 0.0000 -77.5263
#
#
#
# Elastic Compliance Matrix: (Units=1/GPa)
#
#
# Indices 1 2 3 4 5 6 
#
# 1 0.048454 0.011765 -0.006706 0.000000 0.000000 0.000000
# 2 0.011765 0.015406 -0.001474 0.000000 0.000000 0.000000
# 3 -0.006706 -0.001474 0.010274 0.000000 0.000000 0.000000
# 4 0.000000 0.000000 0.000000 0.024736 0.000000 0.000000
# 5 0.000000 0.000000 0.000000 0.000000 0.071132 0.000000
# 6 0.000000 0.000000 0.000000 0.000000 0.000000 -0.012899
#
#
# Mechanical properties :
#
#
# Convention : Reuss Voigt Hill
#
# Bulk Modulus (GPa) = 12.29951 22.52846 17.41398
# Shear Modulus (GPa) = 28.24291 10.05249 19.14770
#
# Velocity S-wave (km/s) = 3.58126 2.13658 2.94876
# Velocity P-wave (km/s) = 4.76298 4.03944 4.41605
#
# Compressibility (1/GPa) = 0.08130406
#
# Stress axis : x y z
#
# Youngs Moduli (GPa) = 20.63792 64.91026 97.32995
#
# Poissons Ratio (x) = -0.76365 0.65270
# Poissons Ratio (y) = -0.24280 0.14347
# Poissons Ratio (z) = 0.13840 0.09568
#
# Static dielectric constant tensor:
#      x y z
#    x 1.879770 0.000000 0.000000 
#    y 0.000000 1.632600 0.000000 
#    z 0.000000 0.000000 1.902950 
# 
# From -- ./inp_files/12327.got.cif
#   From: 2010.05.17/outbox.cif.g08.bks.cpg/sg74_7_cif.got.tgz:12327.got - 2010.06.03 17:57:02.
