data_PCOD9538188
_publ_section_title
;
Structure prediction by ZEFSAII (Michael W. Deem and Ramdas Pophale) SiO2 
 PCOD9538188
Probable space group: I M M A
;
_chemical_formula_sum "Si O2"
_cell_formula_units_Z 80
_cell_length_a 18.935198
_cell_length_b 7.899974
_cell_length_c 26.223124
_cell_angle_alpha 90.000000
_cell_angle_beta 90.000000
_cell_angle_gamma 90.000000
_cell_volume 3922.653446
_symmetry_space_group_name_H-M "I M M A"
_symmetry_group_IT_number 74
_symmetry_cell_setting 'orthorhombic'
loop_
_space_group_symop_operation_xyz
x,y,z
-x,1/2-y,z
x,-y,-z
-x,1/2+y,-z
-x,-y,-z
x,1/2+y,-z
-x,y,z
x,1/2-y,z
1/2+x,1/2+y,1/2+z
1/2-x,-y,1/2+z
1/2+x,1/2-y,1/2-z
1/2-x,y,1/2-z
1/2-x,1/2-y,1/2-z
1/2+x,y,1/2-z
1/2-x,1/2+y,1/2+z
1/2+x,-y,1/2+z
loop_
_atom_site_type_symbol
_atom_site_label
_atom_site_fract_x
_atom_site_fract_y
_atom_site_fract_z
Si Si1 0.081225 0.542210 0.151029
Si Si2 0.920002 0.050291 0.342603
Si Si3 0.677179 0.046483 0.557230
Si Si4 0.161117 0.952462 0.442594
Si Si5 0.828997 0.050085 0.752635
O O1 0.080328 0.750000 0.151170
O O2 0.124355 0.486894 0.101033
O O3 0.122946 0.482960 0.201294
O O4 0.000000 0.486884 0.150974
O O5 0.921397 0.250000 0.332343
O O6 0.000000 0.983695 0.338582
O O7 0.889059 0.022118 0.398818
O O8 0.868982 0.969839 0.300664
O O9 0.679641 0.250000 0.560365
O O10 0.757914 0.984943 0.564782
O O11 0.654949 0.000000 0.500000
O O12 0.161486 0.750000 0.438256
O O13 0.139589 0.000000 0.500000
O O14 0.821214 0.250000 0.763419
O O15 0.750000 0.976865 0.750000
#
# Coordination Sequence:
#
# PCOD9538188 Si02
#       5
#    16  16  16  16  16
#     4   9  17  30  50  76 106 139 175 217 265 316
#     4  11  24  39  55  80 114 147 180 222 274 331
#     4   9  18  33  53  78 106 137 176 219 261 311
#     4  10  20  36  58  81 107 141 182 227 272 322
#     4  10  20  36  59  83 106 139 186 232 274 326
#
# _framework density 20.394359999999999
#
# number of rings (size 3 to 8) (size 9 to 14) (size 15 to 20)
#    0.000    2.200    0.000    3.000    0.000    7.600 
#    0.000    1.000    0.000    1.200    0.000    0.000 
#    0.000    0.000    0.000    0.000    0.000    0.000 
#
# Total GULP energy -223423.157302 kJ/mol
# GULP energy per Si atom -5585.578933 kJ/mol
# Density = 2.034794 g / cm^3
# Si number density = 20.394360 Si / 1000 Ang^3
#
#
#
# Elastic Constant Matrix: (Units=GPa)
#
#
# Indices 1 2 3 4 5 6 
#
# 1 147.8885 -5.4796 81.7002 0.0000 0.0000 0.0000
# 2 -5.4796 15.7758 -20.6122 0.0000 0.0000 0.0000
# 3 81.7002 -20.6122 111.0041 0.0000 0.0000 0.0000
# 4 0.0000 0.0000 0.0000 27.0095 0.0000 0.0000
# 5 0.0000 0.0000 0.0000 0.0000 32.1750 0.0000
# 6 0.0000 0.0000 0.0000 0.0000 0.0000 -12.4088
#
#
#
# Elastic Compliance Matrix: (Units=1/GPa)
#
#
# Indices 1 2 3 4 5 6 
#
# 1 0.012516 -0.010152 -0.011097 0.000000 0.000000 0.000000
# 2 -0.010152 0.091928 0.024542 0.000000 0.000000 0.000000
# 3 -0.011097 0.024542 0.021733 0.000000 0.000000 0.000000
# 4 0.000000 0.000000 0.000000 0.037024 0.000000 0.000000
# 5 0.000000 0.000000 0.000000 0.000000 0.031080 0.000000
# 6 0.000000 0.000000 0.000000 0.000000 0.000000 -0.080588
#
#
# Mechanical properties :
#
#
# Convention : Reuss Voigt Hill
#
# Bulk Modulus (GPa) = 7.53223 42.87612 25.20418
# Shear Modulus (GPa) = 33.03339 23.95915 28.49627
#
# Velocity S-wave (km/s) = 4.02896 3.43124 3.74205
# Velocity P-wave (km/s) = 5.03434 6.06359 5.57278
#
# Compressibility (1/GPa) = 0.13276276
#
# Stress axis : x y z
#
# Youngs Moduli (GPa) = 79.89594 10.87813 46.01207
#
# Poissons Ratio (x) = 0.11043 0.51060
# Poissons Ratio (y) = 0.81109 -1.12922
# Poissons Ratio (z) = 0.88662 -0.26697
#
# Static dielectric constant tensor:
#      x y z
#    x 1.718320 0.000000 0.000000 
#    y 0.000000 1.729430 0.000000 
#    z 0.000000 0.000000 1.682170 
# 
# From -- ./inp_files/63936.got.cif
#   From: 2010.05.17/outbox.cif.g08.bks.cpg/sg74_32_cif.got.tgz:63936.got - 2010.06.03 17:57:02.
