data_PCOD9538287
_publ_section_title
;
Structure prediction by ZEFSAII (Michael W. Deem and Ramdas Pophale) SiO2 
 PCOD9538287
Probable space group: I M M A
;
_chemical_formula_sum "Si O2"
_cell_formula_units_Z 96
_cell_length_a 19.703938
_cell_length_b 8.259818
_cell_length_c 30.737009
_cell_angle_alpha 90.000000
_cell_angle_beta 90.000000
_cell_angle_gamma 90.000000
_cell_volume 5002.477162
_symmetry_space_group_name_H-M "I M M A"
_symmetry_group_IT_number 74
_symmetry_cell_setting 'orthorhombic'
loop_
_space_group_symop_operation_xyz
x,y,z
-x,1/2-y,z
x,-y,-z
-x,1/2+y,-z
-x,-y,-z
x,1/2+y,-z
-x,y,z
x,1/2-y,z
1/2+x,1/2+y,1/2+z
1/2-x,-y,1/2+z
1/2+x,1/2-y,1/2-z
1/2-x,y,1/2-z
1/2-x,1/2-y,1/2-z
1/2+x,y,1/2-z
1/2-x,1/2+y,1/2+z
1/2+x,-y,1/2+z
loop_
_atom_site_type_symbol
_atom_site_label
_atom_site_fract_x
_atom_site_fract_y
_atom_site_fract_z
Si Si1 0.926574 0.055200 0.950852
Si Si2 0.078315 0.056379 0.451792
Si Si3 0.172641 0.943856 0.371909
Si Si4 0.421695 0.946141 0.300012
Si Si5 0.321241 0.556709 0.773129
Si Si6 0.173823 0.551996 0.120078
O O1 0.925651 0.250000 0.949635
O O2 0.865100 0.994869 0.922473
O O3 0.000000 0.003218 0.932799
O O4 0.922125 0.000000 0.000000
O O5 0.077529 0.750000 0.547465
O O6 0.122587 0.004247 0.409972
O O7 0.000000 0.997427 0.447073
O O8 0.102651 0.000000 0.500000
O O9 0.171274 0.750000 0.374186
O O10 0.249333 0.004369 0.380135
O O11 0.162860 0.992066 0.321453
O O12 0.500000 0.999687 0.304090
O O13 0.422400 0.750000 0.300020
O O14 0.372571 0.998662 0.339379
O O15 0.383853 0.006931 0.257200
O O16 0.315677 0.750000 0.775749
O O17 0.250000 0.497411 0.750000
O O18 0.175326 0.750000 0.120900
#
# Coordination Sequence:
#
# PCOD9538287 Si02
#       6
#    16  16  16  16  16  16
#     4   9  17  31  50  72 102 140 180 221 266 317
#     4  10  22  42  66  91 122 158 198 248 304 363
#     4  11  22  37  62  90 118 153 195 241 293 354
#     4  10  20  36  60  86 111 146 193 242 292 349
#     4  11  23  39  58  82 117 158 197 243 302 357
#     4   9  18  33  54  81 110 143 184 231 282 337
#
# _framework density 19.190491999999999
#
# number of rings (size 3 to 8) (size 9 to 14) (size 15 to 20)
#    0.000    2.000    1.667    2.000    0.000    5.333 
#    0.000    4.167    0.000    2.000    0.000    0.000 
#    0.000    0.000    0.000    0.000    0.000    0.000 
#
# Total GULP energy -267696.494920 kJ/mol
# GULP energy per Si atom -5577.010311 kJ/mol
# Density = 1.914681 g / cm^3
# Si number density = 19.190492 Si / 1000 Ang^3
#
#
#
# Elastic Constant Matrix: (Units=GPa)
#
#
# Indices 1 2 3 4 5 6 
#
# 1 132.6186 19.1191 86.4777 0.0000 0.0000 0.0000
# 2 19.1191 25.5890 18.9851 0.0000 0.0000 0.0000
# 3 86.4777 18.9851 142.1487 0.0000 0.0000 0.0000
# 4 0.0000 0.0000 0.0000 22.7391 0.0000 0.0000
# 5 0.0000 0.0000 0.0000 0.0000 42.4427 0.0000
# 6 0.0000 0.0000 0.0000 0.0000 0.0000 11.9471
#
#
#
# Elastic Compliance Matrix: (Units=1/GPa)
#
#
# Indices 1 2 3 4 5 6 
#
# 1 0.012899 -0.004235 -0.007282 0.000000 0.000000 0.000000
# 2 -0.004235 0.044768 -0.003403 0.000000 0.000000 0.000000
# 3 -0.007282 -0.003403 0.011919 0.000000 0.000000 0.000000
# 4 0.000000 0.000000 0.000000 0.043977 0.000000 0.000000
# 5 0.000000 0.000000 0.000000 0.000000 0.023561 0.000000
# 6 0.000000 0.000000 0.000000 0.000000 0.000000 0.083703
#
#
# Mechanical properties :
#
#
# Convention : Reuss Voigt Hill
#
# Bulk Modulus (GPa) = 25.15887 61.05779 43.10833
# Shear Modulus (GPa) = 18.94543 27.14406 23.04475
#
# Velocity S-wave (km/s) = 3.14543 3.76500 3.46908
# Velocity P-wave (km/s) = 5.13129 7.12644 6.20952
#
# Compressibility (1/GPa) = 0.03974741
#
# Stress axis : x y z
#
# Youngs Moduli (GPa) = 77.52371 22.33733 83.89790
#
# Poissons Ratio (x) = 0.09461 0.61092
# Poissons Ratio (y) = 0.32834 0.28547
# Poissons Ratio (z) = 0.56451 0.07600
#
# Static dielectric constant tensor:
#      x y z
#    x 1.685530 0.000000 0.000000 
#    y 0.000000 1.676800 0.000000 
#    z 0.000000 0.000000 1.639560 
# 
# From -- ./inp_files/68163.got.cif
#   From: 2010.05.17/outbox.cif.g08.bks.cpg/sg74_35_cif.got.tgz:68163.got - 2010.06.03 17:57:02.
