data_PCOD9538767
_publ_section_title
;
Structure prediction by ZEFSAII (Michael W. Deem and Ramdas Pophale) SiO2 
 PCOD9538767
Probable space group: I M M A
;
_chemical_formula_sum "Si O2"
_cell_formula_units_Z 104
_cell_length_a 20.961522
_cell_length_b 8.860723
_cell_length_c 32.239886
_cell_angle_alpha 90.000000
_cell_angle_beta 90.000000
_cell_angle_gamma 90.000000
_cell_volume 5988.050727
_symmetry_space_group_name_H-M "I M M A"
_symmetry_group_IT_number 74
_symmetry_cell_setting 'orthorhombic'
loop_
_space_group_symop_operation_xyz
x,y,z
-x,1/2-y,z
x,-y,-z
-x,1/2+y,-z
-x,-y,-z
x,1/2+y,-z
-x,y,z
x,1/2-y,z
1/2+x,1/2+y,1/2+z
1/2-x,-y,1/2+z
1/2+x,1/2-y,1/2-z
1/2-x,y,1/2-z
1/2-x,1/2-y,1/2-z
1/2+x,y,1/2-z
1/2-x,1/2+y,1/2+z
1/2+x,-y,1/2+z
loop_
_atom_site_type_symbol
_atom_site_label
_atom_site_fract_x
_atom_site_fract_y
_atom_site_fract_z
Si Si1 0.824155 0.077117 0.831897
Si Si2 0.129123 0.075871 0.926594
Si Si3 0.741818 0.069464 0.043315
Si Si4 0.694135 0.566929 0.128692
Si Si5 0.927640 0.069707 0.227422
Si Si6 0.427927 0.068899 0.818262
Si Si7 0.000000 0.070322 0.045608
O O1 0.820830 0.250000 0.816771
O O2 0.853158 0.077273 0.878164
O O3 0.751865 0.021604 0.840082
O O4 0.871603 0.987858 0.802262
O O5 0.125138 0.250000 0.941001
O O6 0.185985 0.990882 0.950139
O O7 0.063116 0.991410 0.932619
O O8 0.740603 0.250000 0.041942
O O9 0.705257 0.008105 0.084020
O O10 0.717725 0.000000 0.000000
O O11 0.699157 0.750000 0.123828
O O12 0.626880 0.527599 0.149278
O O13 0.926978 0.250000 0.228104
O O14 0.000000 0.021101 0.214332
O O15 0.917544 0.007018 0.273705
O O16 0.500000 0.031014 0.832099
O O17 0.424557 0.250000 0.812678
O O18 0.000000 0.250000 0.044035
O O19 0.000000 0.000000 0.000000
#
# Coordination Sequence:
#
# PCOD9538767 Si02
#       7
#    16  16  16  16  16  16   8
#     4   9  19  34  52  73 101 138 176 217 264 315
#     4  10  21  37  53  73 101 136 178 224 272 318
#     4  11  21  35  56  80 106 138 173 213 262 315
#     4   9  19  36  56  81 109 136 173 219 265 316
#     4  10  21  34  49  73 106 142 180 224 266 309
#     4   9  18  35  59  82 105 138 176 213 260 321
#     4  12  24  36  50  70  98 134 178 226 274 324
#
# _framework density 17.367922
#
# number of rings (size 3 to 8) (size 9 to 14) (size 15 to 20)
#    0.000    2.154    0.000    4.385    1.077    5.231 
#    0.000    3.077    0.000    0.462    0.000    0.000 
#    0.000    0.000    0.000    0.000    0.000    0.000 
#
# Total GULP energy -290175.910411 kJ/mol
# GULP energy per Si atom -5580.305969 kJ/mol
# Density = 1.732839 g / cm^3
# Si number density = 17.367922 Si / 1000 Ang^3
#
#
#
# Elastic Constant Matrix: (Units=GPa)
#
#
# Indices 1 2 3 4 5 6 
#
# 1 134.1274 54.3854 78.6281 0.0000 0.0000 0.0000
# 2 54.3854 87.8482 46.2076 0.0000 0.0000 0.0000
# 3 78.6281 46.2076 87.1666 0.0000 0.0000 0.0000
# 4 0.0000 0.0000 0.0000 29.2931 0.0000 0.0000
# 5 0.0000 0.0000 0.0000 0.0000 10.0455 0.0000
# 6 0.0000 0.0000 0.0000 0.0000 0.0000 18.9486
#
#
#
# Elastic Compliance Matrix: (Units=1/GPa)
#
#
# Indices 1 2 3 4 5 6 
#
# 1 0.016487 -0.003306 -0.013119 0.000000 0.000000 0.000000
# 2 -0.003306 0.016447 -0.005737 0.000000 0.000000 0.000000
# 3 -0.013119 -0.005737 0.026348 0.000000 0.000000 0.000000
# 4 0.000000 0.000000 0.000000 0.034138 0.000000 0.000000
# 5 0.000000 0.000000 0.000000 0.000000 0.099547 0.000000
# 6 0.000000 0.000000 0.000000 0.000000 0.000000 0.052774
#
#
# Mechanical properties :
#
#
# Convention : Reuss Voigt Hill
#
# Bulk Modulus (GPa) = 66.85508 74.17605 70.51557
# Shear Modulus (GPa) = 16.94618 20.31883 18.63251
#
# Velocity S-wave (km/s) = 3.12704 3.42410 3.27893
# Velocity P-wave (km/s) = 7.18434 7.64421 7.41784
#
# Compressibility (1/GPa) = 0.01495773
#
# Stress axis : x y z
#
# Youngs Moduli (GPa) = 60.65385 60.79953 37.95408
#
# Poissons Ratio (x) = 0.20101 0.49794
# Poissons Ratio (y) = 0.20053 0.21773
# Poissons Ratio (z) = 0.79574 0.34879
#
# Static dielectric constant tensor:
#      x y z
#    x 1.583970 0.000000 0.000000 
#    y 0.000000 1.586350 0.000000 
#    z 0.000000 0.000000 1.544620 
# 
# From -- ./inp_files/68222.got.cif
#   From: 2010.05.17/outbox.cif.g08.bks.cpg/sg74_35_cif.got.tgz:68222.got - 2010.06.03 17:57:02.
