data_PCOD9538602
_publ_section_title
;
Structure prediction by ZEFSAII (Michael W. Deem and Ramdas Pophale) SiO2 
 PCOD9538602
Probable space group: I M M A
;
_chemical_formula_sum "Si O2"
_cell_formula_units_Z 104
_cell_length_a 15.048606
_cell_length_b 17.477207
_cell_length_c 18.124480
_cell_angle_alpha 90.000000
_cell_angle_beta 90.000000
_cell_angle_gamma 90.000000
_cell_volume 4766.876025
_symmetry_space_group_name_H-M "I M M A"
_symmetry_group_IT_number 74
_symmetry_cell_setting 'orthorhombic'
loop_
_space_group_symop_operation_xyz
x,y,z
-x,1/2-y,z
x,-y,-z
-x,1/2+y,-z
-x,-y,-z
x,1/2+y,-z
-x,y,z
x,1/2-y,z
1/2+x,1/2+y,1/2+z
1/2-x,-y,1/2+z
1/2+x,1/2-y,1/2-z
1/2-x,y,1/2-z
1/2-x,1/2-y,1/2-z
1/2+x,y,1/2-z
1/2-x,1/2+y,1/2+z
1/2+x,-y,1/2+z
loop_
_atom_site_type_symbol
_atom_site_label
_atom_site_fract_x
_atom_site_fract_y
_atom_site_fract_z
Si Si1 0.605669 0.662354 0.907967
Si Si2 0.350132 0.661637 0.069889
Si Si3 0.644626 0.660396 0.462224
Si Si4 0.892708 0.838513 0.873721
Si Si5 0.891466 0.935884 0.731490
Si Si6 0.500000 0.870368 0.348666
Si Si7 0.649920 0.111819 0.768357
O O1 0.500000 0.668527 0.896574
O O2 0.642474 0.750000 0.904285
O O3 0.638587 0.608003 0.842474
O O4 0.620028 0.630396 0.990345
O O5 0.379508 0.750000 0.069992
O O6 0.243514 0.658341 0.068043
O O7 0.377664 0.625991 0.146940
O O8 0.612972 0.750000 0.460377
O O9 0.645259 0.636281 0.547599
O O10 0.577229 0.615009 0.411728
O O11 0.868441 0.750000 0.861931
O O12 0.866555 0.887296 0.803300
O O13 0.000000 0.842233 0.880131
O O14 0.000000 0.942242 0.730348
O O15 0.854812 0.020410 0.740595
O O16 0.578388 0.853857 0.287414
O O17 0.750000 0.139111 0.750000
#
# Coordination Sequence:
#
# PCOD9538602 Si02
#       7
#    16  16  16  16  16   8  16
#     4   9  19  38  65  94 124 160 204 257 315 371
#     4  10  23  41  61  90 124 159 206 259 307 363
#     4  10  20  38  65  94 123 155 200 256 312 367
#     4   9  17  33  62  96 125 157 199 250 309 370
#     4  10  21  39  61  90 128 166 205 251 308 372
#     4  12  23  42  63  89 123 162 207 254 304 370
#     4  12  26  43  62  89 127 167 211 254 309 370
#
# _framework density 21.817224
#
# number of rings (size 3 to 8) (size 9 to 14) (size 15 to 20)
#    0.000    1.846    3.077    0.692    1.077    5.231 
#    0.000    3.077    0.000    4.615    0.000    0.000 
#    0.000    0.000    0.000    0.000    0.000    0.000 
#
# Total GULP energy -289528.267443 kJ/mol
# GULP energy per Si atom -5567.851297 kJ/mol
# Density = 2.176757 g / cm^3
# Si number density = 21.817224 Si / 1000 Ang^3
#
#
#
# Elastic Constant Matrix: (Units=GPa)
#
#
# Indices 1 2 3 4 5 6 
#
# 1 54.1554 8.4080 9.4524 0.0000 0.0000 0.0000
# 2 8.4080 14.3928 15.7690 0.0000 0.0000 0.0000
# 3 9.4524 15.7690 144.3086 0.0000 0.0000 0.0000
# 4 0.0000 0.0000 0.0000 0.1476 0.0000 0.0000
# 5 0.0000 0.0000 0.0000 0.0000 22.3384 0.0000
# 6 0.0000 0.0000 0.0000 0.0000 0.0000 -14.5003
#
#
#
# Elastic Compliance Matrix: (Units=1/GPa)
#
#
# Indices 1 2 3 4 5 6 
#
# 1 0.020307 -0.011821 -0.000038 0.000000 0.000000 0.000000
# 2 -0.011821 0.085810 -0.008602 0.000002 0.000000 0.000000
# 3 -0.000038 -0.008602 0.007872 0.000000 0.000000 0.000000
# 4 0.000000 0.000002 0.000000 6.773008 0.000000 0.000001
# 5 0.000000 0.000000 0.000000 0.000000 0.044766 0.000000
# 6 0.000000 0.000000 0.000000 0.000001 0.000000 -0.068964
#
#
# Mechanical properties :
#
#
# Convention : Reuss Voigt Hill
#
# Bulk Modulus (GPa) = 13.68633 31.12395 22.40514
# Shear Modulus (GPa) = 0.72170 13.54564 7.13367
#
# Velocity S-wave (km/s) = 0.57577 2.49443 1.81020
# Velocity P-wave (km/s) = 2.59400 4.75321 3.82895
#
# Compressibility (1/GPa) = 0.07306559
#
# Stress axis : x y z
#
# Youngs Moduli (GPa) = 49.24318 11.65366 127.03054
#
# Poissons Ratio (x) = 0.13776 0.00488
# Poissons Ratio (y) = 0.58211 1.09277
# Poissons Ratio (z) = 0.00189 0.10025
#
# Static dielectric constant tensor:
#      x y z
#    x 1.809140 0.000000 0.000000 
#    y 0.000000 1.798290 0.000000 
#    z 0.000000 0.000000 1.787010 
# 
# From -- ./inp_files/43010.got.cif
#   From: 2010.05.17/outbox.cif.g08.bks.cpg/sg74_22_cif.got.tgz:43010.got - 2010.06.03 17:57:02.
