data_PCOD9538362
_publ_section_title
;
Structure prediction by ZEFSAII (Michael W. Deem and Ramdas Pophale) SiO2 
 PCOD9538362
Probable space group: I M M A
;
_chemical_formula_sum "Si O2"
_cell_formula_units_Z 112
_cell_length_a 14.532178
_cell_length_b 26.626663
_cell_length_c 14.576730
_cell_angle_alpha 90.000000
_cell_angle_beta 90.000000
_cell_angle_gamma 90.000000
_cell_volume 5640.369558
_symmetry_space_group_name_H-M "I M M A"
_symmetry_group_IT_number 74
_symmetry_cell_setting 'orthorhombic'
loop_
_space_group_symop_operation_xyz
x,y,z
-x,1/2-y,z
x,-y,-z
-x,1/2+y,-z
-x,-y,-z
x,1/2+y,-z
-x,y,z
x,1/2-y,z
1/2+x,1/2+y,1/2+z
1/2-x,-y,1/2+z
1/2+x,1/2-y,1/2-z
1/2-x,y,1/2-z
1/2-x,1/2-y,1/2-z
1/2+x,y,1/2-z
1/2-x,1/2+y,1/2+z
1/2+x,-y,1/2+z
loop_
_atom_site_type_symbol
_atom_site_label
_atom_site_fract_x
_atom_site_fract_y
_atom_site_fract_z
Si Si1 0.110923 0.515223 0.395946
Si Si2 0.243775 0.810384 0.508515
Si Si3 0.390030 0.855495 0.636674
Si Si4 0.263800 0.110203 0.858346
Si Si5 0.106275 0.956244 0.772339
Si Si6 0.105112 0.539864 0.077602
Si Si7 0.896549 0.689900 0.666858
O O1 0.130875 0.500000 0.500000
O O2 0.157524 0.568165 0.372513
O O3 0.147310 0.472350 0.325318
O O4 0.000000 0.518508 0.385019
O O5 0.243405 0.750000 0.499384
O O6 0.339002 0.829752 0.552492
O O7 0.220153 0.838958 0.414840
O O8 0.170512 0.826694 0.586565
O O9 0.500000 0.855348 0.621370
O O10 0.357111 0.911712 0.663531
O O11 0.369388 0.825698 0.730828
O O12 0.250000 0.118110 0.750000
O O13 0.173802 0.084885 0.904810
O O14 0.000000 0.940807 0.754829
O O15 0.104967 0.007240 0.829891
O O16 0.000000 0.555450 0.055478
O O17 0.134045 0.500000 0.000000
O O18 0.898006 0.750000 0.664212
O O19 0.000000 0.670712 0.650862
#
# Coordination Sequence:
#
# PCOD9538362 Si02
#       7
#    16  16  16  16  16  16  16
#     4  10  22  40  62  90 125 160 198 247 302 363
#     4  11  25  42  60  88 122 160 211 264 311 361
#     4  10  20  36  63  96 128 161 194 239 310 382
#     4  12  25  41  62  87 115 162 216 258 305 352
#     4   9  18  34  56  88 123 155 188 232 292 361
#     4  10  20  38  61  85 119 158 198 244 299 364
#     4   9  19  38  62  87 119 158 199 247 306 368
#
# _framework density 19.856853999999998
#
# number of rings (size 3 to 8) (size 9 to 14) (size 15 to 20)
#    0.000    1.857    1.429    2.143    2.000    4.571 
#    2.571    0.000    0.000    0.000    0.000    4.000 
#    0.000    0.000    0.000    0.000    0.000    0.000 
#
# Total GULP energy -312752.169591 kJ/mol
# GULP energy per Si atom -5584.860171 kJ/mol
# Density = 1.981166 g / cm^3
# Si number density = 19.856854 Si / 1000 Ang^3
#
#
#
# Elastic Constant Matrix: (Units=GPa)
#
#
# Indices 1 2 3 4 5 6 
#
# 1 53.1970 17.5634 14.9024 0.0000 0.0000 0.0000
# 2 17.5634 71.3630 31.7803 -0.0001 0.0001 0.0000
# 3 14.9024 31.7803 111.3860 -0.0001 0.0001 0.0000
# 4 0.0000 -0.0001 -0.0001 43.2729 0.0001 0.0000
# 5 0.0000 0.0001 0.0001 0.0001 -1.0952 0.0000
# 6 0.0000 0.0000 0.0000 0.0000 0.0000 13.7739
#
#
#
# Elastic Compliance Matrix: (Units=1/GPa)
#
#
# Indices 1 2 3 4 5 6 
#
# 1 0.020679 -0.004419 -0.001506 0.000000 -0.000001 0.000000
# 2 -0.004419 0.016997 -0.004258 0.000000 0.000001 0.000000
# 3 -0.001506 -0.004258 0.010394 0.000000 0.000001 0.000000
# 4 0.000000 0.000000 0.000000 0.023109 0.000002 0.000000
# 5 -0.000001 0.000001 0.000001 0.000002 -0.913094 0.000001
# 6 0.000000 0.000000 0.000000 0.000000 0.000001 0.072601
#
#
# Mechanical properties :
#
#
# Convention : Reuss Voigt Hill
#
# Bulk Modulus (GPa) = 36.09591 40.49315 38.29453
# Shear Modulus (GPa) = -6.75937 22.63699 7.93881
#
# Velocity S-wave (km/s) = -1.84701 3.38006 2.00167
# Velocity P-wave (km/s) = 3.69715 5.97243 4.96683
#
# Compressibility (1/GPa) = 0.02770397
#
# Stress axis : x y z
#
# Youngs Moduli (GPa) = 48.35876 58.83490 96.20729
#
# Poissons Ratio (x) = 0.25997 0.14488
# Poissons Ratio (y) = 0.21368 0.40968
# Poissons Ratio (z) = 0.07282 0.25054
#
# Static dielectric constant tensor:
#      x y z
#    x 1.759560 0.000000 0.000000 
#    y 0.000000 1.693300 0.000000 
#    z 0.000000 0.000000 1.709990 
# 
# From -- ./inp_files/32979.got.cif
#   From: 2010.05.17/outbox.cif.g08.bks.cpg/sg74_17_cif.got.tgz:32979.got - 2010.06.03 17:57:02.
