data_PCOD9538238
_publ_section_title
;
Structure prediction by ZEFSAII (Michael W. Deem and Ramdas Pophale) SiO2 
 PCOD9538238
Probable space group: I M M A
;
_chemical_formula_sum "Si O2"
_cell_formula_units_Z 100
_cell_length_a 14.833673
_cell_length_b 16.233985
_cell_length_c 21.856896
_cell_angle_alpha 90.000000
_cell_angle_beta 90.000000
_cell_angle_gamma 90.000000
_cell_volume 5263.350929
_symmetry_space_group_name_H-M "I M M A"
_symmetry_group_IT_number 74
_symmetry_cell_setting 'orthorhombic'
loop_
_space_group_symop_operation_xyz
x,y,z
-x,1/2-y,z
x,-y,-z
-x,1/2+y,-z
-x,-y,-z
x,1/2+y,-z
-x,y,z
x,1/2-y,z
1/2+x,1/2+y,1/2+z
1/2-x,-y,1/2+z
1/2+x,1/2-y,1/2-z
1/2-x,y,1/2-z
1/2-x,1/2-y,1/2-z
1/2+x,y,1/2-z
1/2-x,1/2+y,1/2+z
1/2+x,-y,1/2+z
loop_
_atom_site_type_symbol
_atom_site_label
_atom_site_fract_x
_atom_site_fract_y
_atom_site_fract_z
Si Si1 0.757669 0.653321 0.854723
Si Si2 0.893880 0.519711 0.658742
Si Si3 0.598869 0.085179 0.595627
Si Si4 0.896953 0.917714 0.458329
Si Si5 0.780088 0.655976 0.995691
Si Si6 0.000000 0.750000 0.126191
Si Si7 0.106749 0.537240 0.796954
O O1 0.742215 0.750000 0.844966
O O2 0.667216 0.599483 0.852016
O O3 0.830187 0.615887 0.807727
O O4 0.794042 0.641313 0.923925
O O5 0.871858 0.448494 0.609960
O O6 0.880003 0.498480 0.729940
O O7 0.000000 0.538138 0.649357
O O8 0.500000 0.053602 0.575141
O O9 0.664272 0.095175 0.538710
O O10 0.576772 0.175958 0.622319
O O11 0.631851 0.026470 0.649588
O O12 0.824162 0.856511 0.486386
O O13 0.000000 0.887023 0.458359
O O14 0.894186 0.000000 0.500000
O O15 0.808256 0.750000 0.007728
O O16 0.000000 0.556724 0.802182
#
# Coordination Sequence:
#
# PCOD9538238 Si02
#       7
#    16  16  16  16  16   4  16
#     4  11  24  37  54  83 113 150 191 233 277 327
#     4  10  21  39  59  80 108 144 187 234 282 327
#     4   9  18  35  59  85 114 147 183 221 277 335
#     4  10  20  36  59  81 104 139 187 233 281 334
#     4  11  21  35  56  82 115 148 182 229 285 327
#     4   8  16  36  60  86 118 148 176 232 270 334
#     4  10  22  38  58  82 112 149 187 229 276 332
#
# _framework density 18.999303000000001
#
# number of rings (size 3 to 8) (size 9 to 14) (size 15 to 20)
#    0.480    1.440    2.400    1.440    0.000    2.880 
#    0.000    6.400    1.760    0.960    0.000    0.000 
#    0.000    0.000    0.000    0.000    0.000    0.000 
#
# Total GULP energy -278348.725521 kJ/mol
# GULP energy per Si atom -5566.974510 kJ/mol
# Density = 1.895606 g / cm^3
# Si number density = 18.999303 Si / 1000 Ang^3
#
#
#
# Elastic Constant Matrix: (Units=GPa)
#
#
# Indices 1 2 3 4 5 6 
#
# 1 23.4015 -8.9775 15.9619 0.0000 0.0000 0.0000
# 2 -8.9775 28.7519 -1.0381 0.0000 0.0000 0.0000
# 3 15.9619 -1.0381 75.1814 0.0000 0.0000 0.0000
# 4 0.0000 0.0000 0.0000 18.8516 0.0000 0.0000
# 5 0.0000 0.0000 0.0000 0.0000 27.9750 0.0000
# 6 0.0000 0.0000 0.0000 0.0000 0.0000 27.2729
#
#
#
# Elastic Compliance Matrix: (Units=1/GPa)
#
#
# Indices 1 2 3 4 5 6 
#
# 1 0.057656 0.017569 -0.011999 0.000000 0.000000 0.000000
# 2 0.017569 0.040152 -0.003176 0.000000 0.000000 0.000000
# 3 -0.011999 -0.003176 0.015805 0.000000 0.000000 0.000000
# 4 0.000000 0.000000 0.000000 0.053046 0.000000 0.000000
# 5 0.000000 0.000000 0.000000 0.000000 0.035746 0.000000
# 6 0.000000 0.000000 0.000000 0.000000 0.000000 0.036666
#
#
# Mechanical properties :
#
#
# Convention : Reuss Voigt Hill
#
# Bulk Modulus (GPa) = 8.44572 15.46970 11.95771
# Shear Modulus (GPa) = 18.26493 22.91248 20.58871
#
# Velocity S-wave (km/s) = 3.10392 3.47647 3.29546
# Velocity P-wave (km/s) = 4.15941 4.92690 4.55933
#
# Compressibility (1/GPa) = 0.11840323
#
# Stress axis : x y z
#
# Youngs Moduli (GPa) = 17.34410 24.90559 63.27217
#
# Poissons Ratio (x) = -0.43758 0.75917
# Poissons Ratio (y) = -0.30473 0.20094
# Poissons Ratio (z) = 0.20810 0.07909
#
# Static dielectric constant tensor:
#      x y z
#    x 1.690130 0.000000 0.000000 
#    y 0.000000 1.635960 0.000000 
#    z 0.000000 0.000000 1.679210 
# 
# From -- ./inp_files/52152.got.cif
#   From: 2010.05.17/outbox.cif.g08.bks.cpg/sg74_27_cif.got.tgz:52152.got - 2010.06.03 17:57:02.
