data_PCOD9538953
_publ_section_title
;
Structure prediction by ZEFSAII (Michael W. Deem and Ramdas Pophale) SiO2 
 PCOD9538953
Probable space group: I M M A
;
_chemical_formula_sum "Si O2"
_cell_formula_units_Z 72
_cell_length_a 20.232588
_cell_length_b 9.016878
_cell_length_c 20.436712
_cell_angle_alpha 90.000000
_cell_angle_beta 90.000000
_cell_angle_gamma 90.000000
_cell_volume 3728.367009
_symmetry_space_group_name_H-M "I M M A"
_symmetry_group_IT_number 74
_symmetry_cell_setting 'orthorhombic'
loop_
_space_group_symop_operation_xyz
x,y,z
-x,1/2-y,z
x,-y,-z
-x,1/2+y,-z
-x,-y,-z
x,1/2+y,-z
-x,y,z
x,1/2-y,z
1/2+x,1/2+y,1/2+z
1/2-x,-y,1/2+z
1/2+x,1/2-y,1/2-z
1/2-x,y,1/2-z
1/2-x,1/2-y,1/2-z
1/2+x,y,1/2-z
1/2-x,1/2+y,1/2+z
1/2+x,-y,1/2+z
loop_
_atom_site_type_symbol
_atom_site_label
_atom_site_fract_x
_atom_site_fract_y
_atom_site_fract_z
Si Si1 0.813823 0.071378 0.792339
Si Si2 0.353346 0.072118 0.570871
Si Si3 0.919517 0.579816 0.433619
Si Si4 0.500000 0.072562 0.571044
Si Si5 0.922652 0.427336 0.296836
O O1 0.822632 0.250000 0.790323
O O2 0.750000 0.032431 0.750000
O O3 0.806894 0.029345 0.868706
O O4 0.876332 0.996249 0.758150
O O5 0.350757 0.250000 0.562072
O O6 0.427634 0.031770 0.596969
O O7 0.342164 0.000000 0.500000
O O8 0.896582 0.500000 0.500000
O O9 0.896829 0.750000 0.430830
O O10 0.902270 0.493607 0.367429
O O11 0.000000 0.581431 0.436173
O O12 0.500000 0.250000 0.566839
O O13 0.500000 0.000000 0.500000
O O14 0.917379 0.250000 0.298151
O O15 0.000000 0.466104 0.286096
#
# Coordination Sequence:
#
# PCOD9538953 Si02
#       5
#    16  16  16   8  16
#     4  10  22  39  58  81 113 152 191 233 285 347
#     4   9  18  33  55  81 110 143 183 230 281 339
#     4   9  16  28  49  77 109 144 181 228 282 332
#     4   8  14  26  46  76 106 134 167 214 271 326
#     4  10  21  36  55  82 112 145 189 237 286 344
#
# _framework density 19.311404
#
# number of rings (size 3 to 8) (size 9 to 14) (size 15 to 20)
#    0.000    2.667    0.000    1.333    1.556    5.333 
#    0.000    1.111    0.000    2.667    0.000    0.000 
#    0.000    0.000    0.000    0.000    0.000    0.000 
#
# Total GULP energy -200647.325764 kJ/mol
# GULP energy per Si atom -5573.536827 kJ/mol
# Density = 1.926745 g / cm^3
# Si number density = 19.311404 Si / 1000 Ang^3
#
#
#
# Elastic Constant Matrix: (Units=GPa)
#
#
# Indices 1 2 3 4 5 6 
#
# 1 49.3600 36.7523 65.4975 0.0000 0.0000 0.0000
# 2 36.7523 32.2744 50.0072 0.0000 0.0000 0.0000
# 3 65.4975 50.0072 180.0962 0.0000 0.0000 0.0000
# 4 0.0000 0.0000 0.0000 30.8281 0.0000 0.0000
# 5 0.0000 0.0000 0.0000 0.0000 24.8763 0.0000
# 6 0.0000 0.0000 0.0000 0.0000 0.0000 11.5708
#
#
#
# Elastic Compliance Matrix: (Units=1/GPa)
#
#
# Indices 1 2 3 4 5 6 
#
# 1 0.147149 -0.148563 -0.012264 0.000000 0.000000 0.000000
# 2 -0.148563 0.204370 -0.002718 0.000000 0.000000 0.000000
# 3 -0.012264 -0.002718 0.010767 0.000000 0.000000 0.000000
# 4 0.000000 0.000000 0.000000 0.032438 0.000000 0.000000
# 5 0.000000 0.000000 0.000000 0.000000 0.040199 0.000000
# 6 0.000000 0.000000 0.000000 0.000000 0.000000 0.086424
#
#
# Mechanical properties :
#
#
# Convention : Reuss Voigt Hill
#
# Bulk Modulus (GPa) = 28.41105 62.91606 45.66356
# Shear Modulus (GPa) = 5.81280 20.75328 13.28304
#
# Velocity S-wave (km/s) = 1.73683 3.28176 2.62550
# Velocity P-wave (km/s) = 4.33198 6.85642 5.73483
#
# Compressibility (1/GPa) = 0.03519757
#
# Stress axis : x y z
#
# Youngs Moduli (GPa) = 6.79582 4.89308 92.87234
#
# Poissons Ratio (x) = 0.72693 1.13899
# Poissons Ratio (y) = 1.00961 0.25242
# Poissons Ratio (z) = 0.08334 0.01330
#
# Static dielectric constant tensor:
#      x y z
#    x 1.733590 0.000000 0.000000 
#    y 0.000000 1.648870 0.000000 
#    z 0.000000 0.000000 1.663370 
# 
# From -- ./inp_files/39485.got.cif
#   From: 2010.05.17/outbox.cif.g08.bks.cpg/sg74_20_cif.got.tgz:39485.got - 2010.06.03 17:57:02.
