data_PCOD9538954
_publ_section_title
;
Structure prediction by ZEFSAII (Michael W. Deem and Ramdas Pophale) SiO2 
 PCOD9538954
Probable space group: I M M A
;
_chemical_formula_sum "Si O2"
_cell_formula_units_Z 64
_cell_length_a 10.616986
_cell_length_b 13.552273
_cell_length_c 21.731748
_cell_angle_alpha 90.000000
_cell_angle_beta 90.000000
_cell_angle_gamma 90.000000
_cell_volume 3126.857190
_symmetry_space_group_name_H-M "I M M A"
_symmetry_group_IT_number 74
_symmetry_cell_setting 'orthorhombic'
loop_
_space_group_symop_operation_xyz
x,y,z
-x,1/2-y,z
x,-y,-z
-x,1/2+y,-z
-x,-y,-z
x,1/2+y,-z
-x,y,z
x,1/2-y,z
1/2+x,1/2+y,1/2+z
1/2-x,-y,1/2+z
1/2+x,1/2-y,1/2-z
1/2-x,y,1/2-z
1/2-x,1/2-y,1/2-z
1/2+x,y,1/2-z
1/2-x,1/2+y,1/2+z
1/2+x,-y,1/2+z
loop_
_atom_site_type_symbol
_atom_site_label
_atom_site_fract_x
_atom_site_fract_y
_atom_site_fract_z
Si Si1 0.357402 0.133801 0.801410
Si Si2 0.144763 0.134743 0.006180
Si Si3 0.636270 0.138603 0.297081
Si Si4 0.723293 0.007472 0.602349
O O1 0.500000 0.118766 0.777819
O O2 0.346263 0.250000 0.818853
O O3 0.250000 0.115471 0.750000
O O4 0.331465 0.062266 0.859123
O O5 0.167566 0.250000 0.007255
O O6 0.000000 0.116129 0.027335
O O7 0.241609 0.076418 0.050068
O O8 0.155584 0.091898 0.937459
O O9 0.500000 0.132751 0.265657
O O10 0.645143 0.250000 0.324642
O O11 0.750000 0.128510 0.250000
O O12 0.646296 0.053678 0.347142
#
# Coordination Sequence:
#
# PCOD9538954 Si02
#       4
#    16  16  16  16
#     4  10  23  42  63  90 124 159 196 242 298 360
#     4  10  21  36  55  84 122 161 202 249 300 355
#     4  10  21  36  55  82 117 154 192 238 292 350
#     4  11  20  34  59  84 112 151 199 246 292 345
#
# _framework density 20.467835999999998
#
# number of rings (size 3 to 8) (size 9 to 14) (size 15 to 20)
#    0.000    1.750    0.000    5.250    0.000    8.000 
#    0.000    5.000    0.000    3.750    0.000    3.500 
#    0.000    0.000    0.000    0.000    0.000    0.000 
#
# Total GULP energy -178382.914459 kJ/mol
# GULP energy per Si atom -5574.466077 kJ/mol
# Density = 2.042125 g / cm^3
# Si number density = 20.467836 Si / 1000 Ang^3
#
#
#
# Elastic Constant Matrix: (Units=GPa)
#
#
# Indices 1 2 3 4 5 6 
#
# 1 123.8656 47.4230 57.3674 0.0000 0.0000 0.0000
# 2 47.4230 138.8211 53.7704 0.0000 0.0000 0.0000
# 3 57.3674 53.7704 86.3962 0.0000 0.0000 0.0000
# 4 0.0000 0.0000 0.0000 31.0046 0.0000 0.0000
# 5 0.0000 0.0000 0.0000 0.0000 29.0595 0.0000
# 6 0.0000 0.0000 0.0000 0.0000 0.0000 -93.5884
#
#
#
# Elastic Compliance Matrix: (Units=1/GPa)
#
#
# Indices 1 2 3 4 5 6 
#
# 1 0.011839 -0.001317 -0.007041 0.000000 0.000000 0.000000
# 2 -0.001317 0.009638 -0.005124 0.000000 0.000000 0.000000
# 3 -0.007041 -0.005124 0.019439 0.000000 0.000000 0.000000
# 4 0.000000 0.000000 0.000000 0.032253 0.000000 0.000000
# 5 0.000000 0.000000 0.000000 0.000000 0.034412 0.000000
# 6 0.000000 0.000000 0.000000 0.000000 0.000000 -0.010685
#
#
# Mechanical properties :
#
#
# Convention : Reuss Voigt Hill
#
# Bulk Modulus (GPa) = 71.67769 74.02273 72.85021
# Shear Modulus (GPa) = 38.90718 5.99659 22.45189
#
# Velocity S-wave (km/s) = 4.36465 1.71351 3.31559
# Velocity P-wave (km/s) = 7.77792 6.33709 7.09418
#
# Compressibility (1/GPa) = 0.01395134
#
# Stress axis : x y z
#
# Youngs Moduli (GPa) = 84.46981 103.75473 51.44272
#
# Poissons Ratio (x) = 0.13663 0.36222
# Poissons Ratio (y) = 0.11123 0.26360
# Poissons Ratio (z) = 0.59477 0.53165
#
# Static dielectric constant tensor:
#      x y z
#    x 1.718300 0.000000 0.000000 
#    y 0.000000 1.771430 0.000000 
#    z 0.000000 0.000000 1.747670 
# 
# From -- ./inp_files/56403.got.cif
#   From: 2010.05.17/outbox.cif.g08.bks.cpg/sg74_29_cif.got.tgz:56403.got - 2010.06.03 17:57:02.
