data_PCOD9538107
_publ_section_title
;
Structure prediction by ZEFSAII (Michael W. Deem and Ramdas Pophale) SiO2 
 PCOD9538107
Probable space group: I M M A
;
_chemical_formula_sum "Si O2"
_cell_formula_units_Z 120
_cell_length_a 8.674212
_cell_length_b 27.440550
_cell_length_c 28.714675
_cell_angle_alpha 90.000000
_cell_angle_beta 90.000000
_cell_angle_gamma 90.000000
_cell_volume 6834.814769
_symmetry_space_group_name_H-M "I M M A"
_symmetry_group_IT_number 74
_symmetry_cell_setting 'orthorhombic'
loop_
_space_group_symop_operation_xyz
x,y,z
-x,1/2-y,z
x,-y,-z
-x,1/2+y,-z
-x,-y,-z
x,1/2+y,-z
-x,y,z
x,1/2-y,z
1/2+x,1/2+y,1/2+z
1/2-x,-y,1/2+z
1/2+x,1/2-y,1/2-z
1/2-x,y,1/2-z
1/2-x,1/2-y,1/2-z
1/2+x,y,1/2-z
1/2-x,1/2+y,1/2+z
1/2+x,-y,1/2+z
loop_
_atom_site_type_symbol
_atom_site_label
_atom_site_fract_x
_atom_site_fract_y
_atom_site_fract_z
Si Si1 0.185189 0.456306 0.300880
Si Si2 0.815752 0.600689 0.608125
Si Si3 0.312156 0.157478 0.863327
Si Si4 0.679718 0.308293 0.963830
Si Si5 0.813503 0.951855 0.360717
Si Si6 0.316862 0.693970 0.563413
Si Si7 0.812920 0.750000 0.302102
Si Si8 0.185024 0.510056 0.946877
O O1 0.250000 0.447406 0.250000
O O2 0.231152 0.417280 0.340345
O O3 0.234502 0.508664 0.322039
O O4 0.000000 0.456342 0.298315
O O5 0.762432 0.654776 0.596340
O O6 0.743493 0.562227 0.571802
O O7 0.000000 0.596762 0.604773
O O8 0.500000 0.159170 0.863687
O O9 0.263586 0.166977 0.916593
O O10 0.264746 0.103125 0.849352
O O11 0.262068 0.201561 0.830114
O O12 0.500000 0.321492 0.971632
O O13 0.685074 0.250000 0.955981
O O14 0.773698 0.319253 0.010219
O O15 0.000000 0.952948 0.363415
O O16 0.750413 0.970635 0.410241
O O17 0.500000 0.692003 0.569231
O O18 0.265131 0.750000 0.570802
O O19 0.750000 0.750000 0.250000
O O20 0.000000 0.750000 0.301089
O O21 0.000000 0.509068 0.945158
O O22 0.234214 0.500000 0.000000
#
# Coordination Sequence:
#
# PCOD9538107 Si02
#       8
#    16  16  16  16  16  16   8  16
#     4   9  19  35  55  78 102 131 172 221 270 319
#     4  10  21  37  57  81 108 142 185 222 255 313
#     4   9  17  32  53  73  99 136 179 228 270 316
#     4   9  16  29  50  74  98 136 187 223 256 308
#     4   9  19  34  51  75 103 136 181 224 265 319
#     4  10  21  35  52  80 117 150 176 214 266 313
#     4  10  20  36  54  74 102 136 180 232 285 332
#     4  10  21  35  50  75 111 144 174 217 274 326
#
# _framework density 17.557168000000001
#
# number of rings (size 3 to 8) (size 9 to 14) (size 15 to 20)
#    0.000    2.533    0.667    2.000    1.867    5.067 
#    0.000    1.333    0.000    0.400    0.000    0.000 
#    0.000    0.000    0.000    0.000    0.000    0.000 
#
# Total GULP energy -334680.144849 kJ/mol
# GULP energy per Si atom -5578.002414 kJ/mol
# Density = 1.751721 g / cm^3
# Si number density = 17.557168 Si / 1000 Ang^3
#
#
#
# Elastic Constant Matrix: (Units=GPa)
#
#
# Indices 1 2 3 4 5 6 
#
# 1 18.8788 20.4088 22.9179 0.0000 0.0000 0.0000
# 2 20.4088 123.3029 75.8017 0.0000 0.0000 0.0000
# 3 22.9179 75.8017 136.1444 0.0000 0.0000 0.0000
# 4 0.0000 0.0000 0.0000 11.3453 0.0000 0.0000
# 5 0.0000 0.0000 0.0000 0.0000 30.3813 0.0000
# 6 0.0000 0.0000 0.0000 0.0000 0.0000 16.7808
#
#
#
# Elastic Compliance Matrix: (Units=1/GPa)
#
#
# Indices 1 2 3 4 5 6 
#
# 1 0.069933 -0.006596 -0.008100 0.000000 0.000000 0.000000
# 2 -0.006596 0.012953 -0.006101 0.000000 0.000000 0.000000
# 3 -0.008100 -0.006101 0.012106 0.000000 0.000000 0.000000
# 4 0.000000 0.000000 0.000000 0.088142 0.000000 0.000000
# 5 0.000000 0.000000 0.000000 0.000000 0.032915 0.000000
# 6 0.000000 0.000000 0.000000 0.000000 0.000000 0.059592
#
#
# Mechanical properties :
#
#
# Convention : Reuss Voigt Hill
#
# Bulk Modulus (GPa) = 18.72757 57.39809 38.06283
# Shear Modulus (GPa) = 14.92390 22.31466 18.61928
#
# Velocity S-wave (km/s) = 2.91867 3.56894 3.26006
# Velocity P-wave (km/s) = 4.69552 7.05310 5.99142
#
# Compressibility (1/GPa) = 0.05339721
#
# Stress axis : x y z
#
# Youngs Moduli (GPa) = 14.29950 77.20372 82.60518
#
# Poissons Ratio (x) = 0.50920 0.66909
# Poissons Ratio (y) = 0.09431 0.50401
# Poissons Ratio (z) = 0.11582 0.47106
#
# Static dielectric constant tensor:
#      x y z
#    x 1.594920 0.000000 0.000000 
#    y 0.000000 1.606960 0.000000 
#    z 0.000000 0.000000 1.574150 
# 
# From -- ./inp_files/65051.got.cif
#   From: 2010.05.17/outbox.cif.g08.bks.cpg/sg74_33_cif.got.tgz:65051.got - 2010.06.03 17:57:02.
