data_PCOD9538400
_publ_section_title
;
Structure prediction by ZEFSAII (Michael W. Deem and Ramdas Pophale) SiO2 
 PCOD9538400
Probable space group: I M M A
;
_chemical_formula_sum "Si O2"
_cell_formula_units_Z 64
_cell_length_a 14.484447
_cell_length_b 13.833784
_cell_length_c 16.054350
_cell_angle_alpha 90.000000
_cell_angle_beta 90.000000
_cell_angle_gamma 90.000000
_cell_volume 3216.885744
_symmetry_space_group_name_H-M "I M M A"
_symmetry_group_IT_number 74
_symmetry_cell_setting 'orthorhombic'
loop_
_space_group_symop_operation_xyz
x,y,z
-x,1/2-y,z
x,-y,-z
-x,1/2+y,-z
-x,-y,-z
x,1/2+y,-z
-x,y,z
x,1/2-y,z
1/2+x,1/2+y,1/2+z
1/2-x,-y,1/2+z
1/2+x,1/2-y,1/2-z
1/2-x,y,1/2-z
1/2-x,1/2-y,1/2-z
1/2+x,y,1/2-z
1/2-x,1/2+y,1/2+z
1/2+x,-y,1/2+z
loop_
_atom_site_type_symbol
_atom_site_label
_atom_site_fract_x
_atom_site_fract_y
_atom_site_fract_z
Si Si1 0.782965 0.866356 0.127032
Si Si2 0.104237 0.437884 0.711875
Si Si3 0.643188 0.640229 0.725051
Si Si4 0.605416 0.133288 0.466513
O O1 0.775745 0.750000 0.128551
O O2 0.851413 0.897201 0.202100
O O3 0.681629 0.909188 0.144583
O O4 0.827564 0.899149 0.040137
O O5 0.100847 0.553771 0.721925
O O6 0.000000 0.401535 0.698537
O O7 0.607054 0.750000 0.735359
O O8 0.750000 0.642252 0.750000
O O9 0.633073 0.611507 0.628145
O O10 0.500000 0.102980 0.481086
O O11 0.606483 0.250000 0.471042
#
# Coordination Sequence:
#
# PCOD9538400 Si02
#       4
#    16  16  16  16
#     4  10  21  37  55  84 119 151 191 239 284 333
#     4  11  21  35  56  85 116 151 192 230 283 347
#     4  10  20  37  59  84 117 152 185 232 289 344
#     4   9  18  34  59  88 114 145 189 239 288 335
#
# _framework density 19.895018
#
# number of rings (size 3 to 8) (size 9 to 14) (size 15 to 20)
#    0.000    2.000    2.500    3.000    0.000    5.500 
#    0.000    2.500    0.000    4.500    0.000   14.000 
#    0.000    0.000    0.000    0.000    0.000    0.000 
#
# Total GULP energy -178672.946959 kJ/mol
# GULP energy per Si atom -5583.529592 kJ/mol
# Density = 1.984974 g / cm^3
# Si number density = 19.895018 Si / 1000 Ang^3
#
#
#
# Elastic Constant Matrix: (Units=GPa)
#
#
# Indices 1 2 3 4 5 6 
#
# 1 195.9320 33.9173 67.8851 0.0000 0.0000 0.0000
# 2 33.9173 111.5191 37.0238 0.0000 0.0000 0.0000
# 3 67.8851 37.0238 71.9393 0.0000 0.0000 0.0000
# 4 0.0000 0.0000 0.0000 93.9783 0.0000 0.0000
# 5 0.0000 0.0000 0.0000 0.0000 2.1836 0.0000
# 6 0.0000 0.0000 0.0000 0.0000 0.0000 -60.0755
#
#
#
# Elastic Compliance Matrix: (Units=1/GPa)
#
#
# Indices 1 2 3 4 5 6 
#
# 1 0.007584 0.000084 -0.007199 0.000000 0.000000 0.000000
# 2 0.000084 0.010816 -0.005645 0.000000 0.000000 0.000000
# 3 -0.007199 -0.005645 0.023600 0.000000 0.000000 0.000000
# 4 0.000000 0.000000 0.000000 0.010641 0.000000 0.000000
# 5 0.000000 0.000000 0.000000 0.000000 0.457969 0.000000
# 6 0.000000 0.000000 0.000000 0.000000 0.000000 -0.016646
#
#
# Mechanical properties :
#
#
# Convention : Reuss Voigt Hill
#
# Bulk Modulus (GPa) = 60.69040 73.00476 66.84758
# Shear Modulus (GPa) = 9.52421 23.25489 16.38955
#
# Velocity S-wave (km/s) = 2.19035 3.42260 2.87331
# Velocity P-wave (km/s) = 6.08016 7.23834 6.68438
#
# Compressibility (1/GPa) = 0.01647707
#
# Stress axis : x y z
#
# Youngs Moduli (GPa) = 131.86133 92.45671 42.37340
#
# Poissons Ratio (x) = -0.00774 0.30506
# Poissons Ratio (y) = -0.01103 0.23921
# Poissons Ratio (z) = 0.94932 0.52195
#
# Static dielectric constant tensor:
#      x y z
#    x 1.691420 0.000000 0.000000 
#    y 0.000000 1.777060 0.000000 
#    z 0.000000 0.000000 1.677140 
# 
# From -- ./inp_files/31690.got.cif
#   From: 2010.05.17/outbox.cif.g08.bks.cpg/sg74_16_cif.got.tgz:31690.got - 2010.06.03 17:57:02.
