data_PCOD9538267
_publ_section_title
;
Structure prediction by ZEFSAII (Michael W. Deem and Ramdas Pophale) SiO2 
 PCOD9538267
Probable space group: I M M A
;
_chemical_formula_sum "Si O2"
_cell_formula_units_Z 96
_cell_length_a 14.682084
_cell_length_b 22.002689
_cell_length_c 16.344015
_cell_angle_alpha 90.000000
_cell_angle_beta 90.000000
_cell_angle_gamma 90.000000
_cell_volume 5279.857689
_symmetry_space_group_name_H-M "I M M A"
_symmetry_group_IT_number 74
_symmetry_cell_setting 'orthorhombic'
loop_
_space_group_symop_operation_xyz
x,y,z
-x,1/2-y,z
x,-y,-z
-x,1/2+y,-z
-x,-y,-z
x,1/2+y,-z
-x,y,z
x,1/2-y,z
1/2+x,1/2+y,1/2+z
1/2-x,-y,1/2+z
1/2+x,1/2-y,1/2-z
1/2-x,y,1/2-z
1/2-x,1/2-y,1/2-z
1/2+x,y,1/2-z
1/2-x,1/2+y,1/2+z
1/2+x,-y,1/2+z
loop_
_atom_site_type_symbol
_atom_site_label
_atom_site_fract_x
_atom_site_fract_y
_atom_site_fract_z
Si Si1 0.899308 0.505128 0.902775
Si Si2 0.398874 0.750000 0.957725
Si Si3 0.390313 0.435290 0.157962
Si Si4 0.275906 0.250000 0.344199
Si Si5 0.105135 0.884012 0.477818
Si Si6 0.776625 0.558007 0.336368
Si Si7 0.392716 0.365359 0.319585
O O1 0.819029 0.463101 0.872740
O O2 0.880960 0.573585 0.872541
O O3 0.000000 0.488733 0.870105
O O4 0.901774 0.500000 0.000000
O O5 0.500000 0.750000 0.917135
O O6 0.315880 0.750000 0.895677
O O7 0.393100 0.811713 0.009277
O O8 0.500000 0.444172 0.162681
O O9 0.336802 0.496887 0.178555
O O10 0.366920 0.384628 0.226363
O O11 0.368491 0.414086 0.065477
O O12 0.250000 0.250000 0.250000
O O13 0.335254 0.310574 0.356137
O O14 0.168420 0.904401 0.403787
O O15 0.000000 0.902690 0.461962
O O16 0.750000 0.587844 0.250000
O O17 0.500000 0.349624 0.318670
#
# Coordination Sequence:
#
# PCOD9538267 Si02
#       7
#    16   8  16   8  16  16  16
#     4  10  22  38  57  79 116 160 196 236 287 343
#     4  10  24  43  61  84 118 153 196 249 300 350
#     4  10  20  36  59  87 125 156 189 240 292 346
#     4  12  25  33  60  84 121 163 203 231 282 341
#     4  10  22  40  62  88 115 153 194 241 299 354
#     4  12  23  34  60  88 119 147 192 241 298 349
#     4  10  22  39  57  86 123 161 202 241 283 342
#
# _framework density 18.182307999999999
#
# number of rings (size 3 to 8) (size 9 to 14) (size 15 to 20)
#    0.000    1.500    1.667    3.250    7.000    4.000 
#    0.000    0.417    0.000    0.000    0.000    0.000 
#    0.000    0.000    0.000    0.000    0.000    0.000 
#
# Total GULP energy -268247.739082 kJ/mol
# GULP energy per Si atom -5588.494564 kJ/mol
# Density = 1.814092 g / cm^3
# Si number density = 18.182308 Si / 1000 Ang^3
#
#
#
# Elastic Constant Matrix: (Units=GPa)
#
#
# Indices 1 2 3 4 5 6 
#
# 1 118.0445 52.2476 68.2355 0.0000 0.0000 0.0000
# 2 52.2476 57.8426 44.6481 0.0000 0.0000 0.0000
# 3 68.2355 44.6481 120.7252 0.0000 0.0000 0.0000
# 4 0.0000 0.0000 0.0000 20.4351 0.0000 0.0000
# 5 0.0000 0.0000 0.0000 0.0000 30.5281 0.0000
# 6 0.0000 0.0000 0.0000 0.0000 0.0000 21.1606
#
#
#
# Elastic Compliance Matrix: (Units=1/GPa)
#
#
# Indices 1 2 3 4 5 6 
#
# 1 0.016175 -0.010572 -0.005233 0.000000 0.000000 0.000000
# 2 -0.010572 0.031105 -0.005528 0.000000 0.000000 0.000000
# 3 -0.005233 -0.005528 0.013285 0.000000 0.000000 0.000000
# 4 0.000000 0.000000 0.000000 0.048935 0.000000 0.000000
# 5 0.000000 0.000000 0.000000 0.000000 0.032757 0.000000
# 6 0.000000 0.000000 0.000000 0.000000 0.000000 0.047258
#
#
# Mechanical properties :
#
#
# Convention : Reuss Voigt Hill
#
# Bulk Modulus (GPa) = 55.86586 69.65276 62.75931
# Shear Modulus (GPa) = 20.99545 23.19016 22.09280
#
# Velocity S-wave (km/s) = 3.40180 3.57518 3.48957
# Velocity P-wave (km/s) = 6.79866 7.44538 7.12936
#
# Compressibility (1/GPa) = 0.01790002
#
# Stress axis : x y z
#
# Youngs Moduli (GPa) = 61.82285 32.14966 75.27031
#
# Poissons Ratio (x) = 0.33987 0.39387
# Poissons Ratio (y) = 0.65356 0.41612
# Poissons Ratio (z) = 0.32350 0.17773
#
# Static dielectric constant tensor:
#      x y z
#    x 1.695590 0.000000 0.000000 
#    y 0.000000 1.618850 0.000000 
#    z 0.000000 0.000000 1.661780 
# 
# From -- ./inp_files/32428.got.cif
#   From: 2010.05.17/outbox.cif.g08.bks.cpg/sg74_17_cif.got.tgz:32428.got - 2010.06.03 17:57:02.
