data_PCOD9538967
_publ_section_title
;
Structure prediction by ZEFSAII (Michael W. Deem and Ramdas Pophale) SiO2 
 PCOD9538967
Probable space group: I M M A
;
_chemical_formula_sum "Si O2"
_cell_formula_units_Z 80
_cell_length_a 10.837205
_cell_length_b 14.098226
_cell_length_c 23.463059
_cell_angle_alpha 90.000000
_cell_angle_beta 90.000000
_cell_angle_gamma 90.000000
_cell_volume 3584.812040
_symmetry_space_group_name_H-M "I M M A"
_symmetry_group_IT_number 74
_symmetry_cell_setting 'orthorhombic'
loop_
_space_group_symop_operation_xyz
x,y,z
-x,1/2-y,z
x,-y,-z
-x,1/2+y,-z
-x,-y,-z
x,1/2+y,-z
-x,y,z
x,1/2-y,z
1/2+x,1/2+y,1/2+z
1/2-x,-y,1/2+z
1/2+x,1/2-y,1/2-z
1/2-x,y,1/2-z
1/2-x,1/2-y,1/2-z
1/2+x,y,1/2-z
1/2-x,1/2+y,1/2+z
1/2+x,-y,1/2+z
loop_
_atom_site_type_symbol
_atom_site_label
_atom_site_fract_x
_atom_site_fract_y
_atom_site_fract_z
Si Si1 0.641002 0.637724 0.705324
Si Si2 0.136675 0.139549 0.784017
Si Si3 0.134236 0.112547 0.494347
Si Si4 0.863458 0.929484 0.922110
Si Si5 0.814805 0.853664 0.081963
O O1 0.500000 0.623103 0.726992
O O2 0.650564 0.750000 0.691242
O O3 0.750000 0.617453 0.750000
O O4 0.653954 0.581233 0.645985
O O5 0.128009 0.250000 0.765563
O O6 0.250000 0.095391 0.750000
O O7 0.169485 0.141878 0.850491
O O8 0.000000 0.097656 0.776177
O O9 0.367214 0.250000 0.564763
O O10 0.177301 0.147279 0.556266
O O11 0.000000 0.147615 0.476082
O O12 0.251469 0.125271 0.452776
O O13 0.862432 0.042405 0.937471
O O14 0.000000 0.891795 0.935962
O O15 0.624133 0.000000 0.000000
#
# Coordination Sequence:
#
# PCOD9538967 Si02
#       5
#    16  16  16  16  16
#     4   9  19  37  60  86 115 148 190 240 293 347
#     4   9  18  32  49  71 102 141 184 227 269 318
#     4   9  20  38  57  79 110 149 195 245 293 341
#     4  10  21  37  58  85 117 151 189 238 294 349
#     4  10  21  36  56  83 116 154 195 236 281 342
#
# _framework density 22.316371
#
# number of rings (size 3 to 8) (size 9 to 14) (size 15 to 20)
#    0.000    2.600    0.000    0.600    0.000    9.200 
#    0.000    2.000    0.000    0.000    0.000    0.000 
#    0.000    0.000    0.000    0.000    0.000    0.000 
#
# Total GULP energy -222873.185556 kJ/mol
# GULP energy per Si atom -5571.829639 kJ/mol
# Density = 2.226558 g / cm^3
# Si number density = 22.316371 Si / 1000 Ang^3
#
#
#
# Elastic Constant Matrix: (Units=GPa)
#
#
# Indices 1 2 3 4 5 6 
#
# 1 243.7649 20.5015 89.7343 0.0000 0.0000 0.0000
# 2 20.5015 130.7274 8.9626 0.0000 0.0000 0.0000
# 3 89.7343 8.9626 62.0571 0.0000 0.0000 0.0000
# 4 0.0000 0.0000 0.0000 27.8475 0.0000 0.0000
# 5 0.0000 0.0000 0.0000 0.0000 27.1948 0.0000
# 6 0.0000 0.0000 0.0000 0.0000 0.0000 -16.6596
#
#
#
# Elastic Compliance Matrix: (Units=1/GPa)
#
#
# Indices 1 2 3 4 5 6 
#
# 1 0.008805 -0.000513 -0.012658 0.000000 0.000000 0.000000
# 2 -0.000513 0.007756 -0.000378 0.000000 0.000000 0.000000
# 3 -0.012658 -0.000378 0.034472 0.000000 0.000000 0.000000
# 4 0.000000 0.000000 0.000000 0.035910 0.000000 0.000000
# 5 0.000000 0.000000 0.000000 0.000000 0.036772 0.000000
# 6 0.000000 0.000000 0.000000 0.000000 0.000000 -0.060025
#
#
# Mechanical properties :
#
#
# Convention : Reuss Voigt Hill
#
# Bulk Modulus (GPa) = 41.78060 74.99400 58.38730
# Shear Modulus (GPa) = 50.62447 28.83329 39.72888
#
# Velocity S-wave (km/s) = 4.76803 3.59837 4.22389
# Velocity P-wave (km/s) = 7.00534 7.13739 7.07167
#
# Compressibility (1/GPa) = 0.02393455
#
# Stress axis : x y z
#
# Youngs Moduli (GPa) = 113.57014 128.93416 29.00876
#
# Poissons Ratio (x) = 0.06615 0.36720
# Poissons Ratio (y) = 0.05827 0.01097
# Poissons Ratio (z) = 1.43758 0.04877
#
# Static dielectric constant tensor:
#      x y z
#    x 1.855330 0.000000 0.000000 
#    y 0.000000 1.910610 0.000000 
#    z 0.000000 0.000000 1.793830 
# 
# From -- ./inp_files/58518.got.cif
#   From: 2010.05.17/outbox.cif.g08.bks.cpg/sg74_30_cif.got.tgz:58518.got - 2010.06.03 17:57:02.
