data_PCOD9538313
_publ_section_title
;
Structure prediction by ZEFSAII (Michael W. Deem and Ramdas Pophale) SiO2 
 PCOD9538313
Probable space group: I M M A
;
_chemical_formula_sum "Si O2"
_cell_formula_units_Z 112
_cell_length_a 14.210656
_cell_length_b 15.794575
_cell_length_c 23.187081
_cell_angle_alpha 90.000000
_cell_angle_beta 90.000000
_cell_angle_gamma 90.000000
_cell_volume 5204.369824
_symmetry_space_group_name_H-M "I M M A"
_symmetry_group_IT_number 74
_symmetry_cell_setting 'orthorhombic'
loop_
_space_group_symop_operation_xyz
x,y,z
-x,1/2-y,z
x,-y,-z
-x,1/2+y,-z
-x,-y,-z
x,1/2+y,-z
-x,y,z
x,1/2-y,z
1/2+x,1/2+y,1/2+z
1/2-x,-y,1/2+z
1/2+x,1/2-y,1/2-z
1/2-x,y,1/2-z
1/2-x,1/2-y,1/2-z
1/2+x,y,1/2-z
1/2-x,1/2+y,1/2+z
1/2+x,-y,1/2+z
loop_
_atom_site_type_symbol
_atom_site_label
_atom_site_fract_x
_atom_site_fract_y
_atom_site_fract_z
Si Si1 0.112677 0.487662 0.839467
Si Si2 0.110101 0.113911 0.624273
Si Si3 0.231114 0.845105 0.818220
Si Si4 0.605136 0.912601 0.464813
Si Si5 0.614660 0.842838 0.251990
Si Si6 0.109463 0.584669 0.604690
Si Si7 0.798153 0.343735 0.503537
O O1 0.163816 0.577720 0.836640
O O2 0.130107 0.439521 0.899641
O O3 0.144564 0.423489 0.789240
O O4 0.000000 0.500472 0.834901
O O5 0.144049 0.148569 0.685516
O O6 0.162879 0.145348 0.567850
O O7 0.000000 0.136795 0.618214
O O8 0.116506 0.012204 0.625407
O O9 0.194783 0.750000 0.830299
O O10 0.250000 0.851783 0.750000
O O11 0.327880 0.859335 0.852791
O O12 0.500000 0.875125 0.465346
O O13 0.686717 0.857251 0.492474
O O14 0.602535 0.000000 0.500000
O O15 0.500000 0.845196 0.252507
O O16 0.642430 0.750000 0.274794
O O17 0.153927 0.592255 0.541029
O O18 0.000000 0.608738 0.603355
O O19 0.821066 0.250000 0.482214
#
# Coordination Sequence:
#
# PCOD9538313 Si02
#       7
#    16  16  16  16  16  16  16
#     4  10  21  39  64  91 123 166 211 260 321 383
#     4  10  20  36  60  89 124 166 209 256 315 382
#     4  11  24  40  61  91 125 163 209 261 317 380
#     4  10  22  41  63  85 114 157 207 258 314 377
#     4   9  18  34  59  93 130 166 208 259 316 382
#     4  11  24  43  66  90 121 163 209 259 316 377
#     4  12  24  37  59  91 125 161 204 257 315 379
#
# _framework density 21.520375999999999
#
# number of rings (size 3 to 8) (size 9 to 14) (size 15 to 20)
#    0.000    1.571    0.000    5.143    0.000    6.571 
#    0.000    2.857    0.000    9.000    0.000    0.000 
#    0.000    0.000    0.000    0.000    0.000    0.000 
#
# Total GULP energy -313294.202895 kJ/mol
# GULP energy per Si atom -5594.539337 kJ/mol
# Density = 2.147140 g / cm^3
# Si number density = 21.520376 Si / 1000 Ang^3
#
#
#
# Elastic Constant Matrix: (Units=GPa)
#
#
# Indices 1 2 3 4 5 6 
#
# 1 94.8023 39.0078 29.9838 0.0000 0.0000 0.0000
# 2 39.0078 100.3640 21.8103 0.0000 0.0000 0.0000
# 3 29.9838 21.8103 100.8688 0.0000 0.0000 0.0000
# 4 0.0000 0.0000 0.0000 5.4451 0.0000 0.0000
# 5 0.0000 0.0000 0.0000 0.0000 8.5893 0.0000
# 6 0.0000 0.0000 0.0000 0.0000 0.0000 22.9323
#
#
#
# Elastic Compliance Matrix: (Units=1/GPa)
#
#
# Indices 1 2 3 4 5 6 
#
# 1 0.013364 -0.004544 -0.002990 0.000000 0.000000 0.000000
# 2 -0.004544 0.012000 -0.001244 0.000000 0.000000 0.000000
# 3 -0.002990 -0.001244 0.011072 0.000000 0.000000 0.000000
# 4 0.000000 0.000000 0.000000 0.183652 0.000000 0.000000
# 5 0.000000 0.000000 0.000000 0.000000 0.116425 0.000000
# 6 0.000000 0.000000 0.000000 0.000000 0.000000 0.043607
#
#
# Mechanical properties :
#
#
# Convention : Reuss Voigt Hill
#
# Bulk Modulus (GPa) = 52.96770 53.07100 53.01935
# Shear Modulus (GPa) = 12.37722 21.07554 16.72638
#
# Velocity S-wave (km/s) = 2.40081 3.13282 2.79092
# Velocity P-wave (km/s) = 5.68783 6.14820 5.92249
#
# Compressibility (1/GPa) = 0.01887943
#
# Stress axis : x y z
#
# Youngs Moduli (GPa) = 74.82967 83.33165 90.32133
#
# Poissons Ratio (x) = 0.37868 0.27005
# Poissons Ratio (y) = 0.34004 0.11235
# Poissons Ratio (z) = 0.22373 0.10366
#
# Static dielectric constant tensor:
#      x y z
#    x 1.802050 0.000000 0.000000 
#    y 0.000000 1.754890 0.000000 
#    z 0.000000 0.000000 1.756530 
# 
# From -- ./inp_files/60137.got.cif
#   From: 2010.05.17/outbox.cif.g08.bks.cpg/sg74_31_cif.got.tgz:60137.got - 2010.06.03 17:57:02.
