data_PCOD9538376
_publ_section_title
;
Structure prediction by ZEFSAII (Michael W. Deem and Ramdas Pophale) SiO2 
 PCOD9538376
Probable space group: I M M A
;
_chemical_formula_sum "Si O2"
_cell_formula_units_Z 100
_cell_length_a 34.444717
_cell_length_b 7.776429
_cell_length_c 18.200136
_cell_angle_alpha 90.000000
_cell_angle_beta 90.000000
_cell_angle_gamma 90.000000
_cell_volume 4875.031939
_symmetry_space_group_name_H-M "I M M A"
_symmetry_group_IT_number 74
_symmetry_cell_setting 'orthorhombic'
loop_
_space_group_symop_operation_xyz
x,y,z
-x,1/2-y,z
x,-y,-z
-x,1/2+y,-z
-x,-y,-z
x,1/2+y,-z
-x,y,z
x,1/2-y,z
1/2+x,1/2+y,1/2+z
1/2-x,-y,1/2+z
1/2+x,1/2-y,1/2-z
1/2-x,y,1/2-z
1/2-x,1/2-y,1/2-z
1/2+x,y,1/2-z
1/2-x,1/2+y,1/2+z
1/2+x,-y,1/2+z
loop_
_atom_site_type_symbol
_atom_site_label
_atom_site_fract_x
_atom_site_fract_y
_atom_site_fract_z
Si Si1 0.500000 0.750000 0.940471
Si Si2 0.774718 0.042908 0.585940
Si Si3 0.625973 0.557523 0.702175
Si Si4 0.144365 0.446134 0.640150
Si Si5 0.440754 0.542717 0.106709
Si Si6 0.042442 0.046296 0.781056
Si Si7 0.689166 0.955695 0.414152
O O1 0.466580 0.596832 0.933858
O O2 0.773473 0.250000 0.595610
O O3 0.813820 0.973395 0.623368
O O4 0.732050 0.980287 0.610388
O O5 0.777662 0.000000 0.500000
O O6 0.630122 0.750000 0.730497
O O7 0.636791 0.444071 0.772592
O O8 0.580942 0.529035 0.682612
O O9 0.654857 0.528177 0.635328
O O10 0.146998 0.250000 0.613831
O O11 0.104635 0.509332 0.603007
O O12 0.446465 0.750000 0.090112
O O13 0.452482 0.524592 0.193094
O O14 0.042654 0.250000 0.795002
O O15 0.000000 0.976517 0.801842
O O16 0.688235 0.750000 0.406884
O O17 0.684677 0.000000 0.500000
#
# Coordination Sequence:
#
# PCOD9538376 Si02
#       7
#     4  16  16  16  16  16  16
#     4  12  18  24  48  70 106 138 190 208 278 312
#     4   9  19  36  58  80 102 137 177 219 266 322
#     4  11  22  32  50  79 110 140 177 218 265 310
#     4   9  19  35  51  74 112 140 174 216 273 321
#     4   9  18  29  44  70 106 140 175 223 267 319
#     4   9  17  30  47  69 102 137 173 216 265 313
#     4  10  20  37  58  77 103 137 178 217 263 321
#
# _framework density 20.512685999999999
#
# number of rings (size 3 to 8) (size 9 to 14) (size 15 to 20)
#    0.000    2.400    0.800    3.120    4.480    2.240 
#    0.000    3.200    0.000    0.480    0.000    0.560 
#    0.000    0.000    0.000    0.000    0.000    0.000 
#
# Total GULP energy -278362.802626 kJ/mol
# GULP energy per Si atom -5567.256053 kJ/mol
# Density = 2.046600 g / cm^3
# Si number density = 20.512686 Si / 1000 Ang^3
#
#
#
# Elastic Constant Matrix: (Units=GPa)
#
#
# Indices 1 2 3 4 5 6 
#
# 1 232.8359 40.0145 61.8905 0.0000 0.0000 0.0000
# 2 40.0145 74.0207 8.8515 0.0000 0.0000 0.0000
# 3 61.8905 8.8515 33.4223 0.0000 0.0000 0.0000
# 4 0.0000 0.0000 0.0000 16.6017 0.0000 0.0000
# 5 0.0000 0.0000 0.0000 0.0000 31.5272 0.0000
# 6 0.0000 0.0000 0.0000 0.0000 0.0000 24.0188
#
#
#
# Elastic Compliance Matrix: (Units=1/GPa)
#
#
# Indices 1 2 3 4 5 6 
#
# 1 0.009054 -0.002984 -0.015976 0.000000 0.000000 0.000000
# 2 -0.002984 0.014935 0.001571 0.000000 0.000000 0.000000
# 3 -0.015976 0.001571 0.059089 0.000000 0.000000 0.000000
# 4 0.000000 0.000000 0.000000 0.060235 0.000000 0.000000
# 5 0.000000 0.000000 0.000000 0.000000 0.031719 0.000000
# 6 0.000000 0.000000 0.000000 0.000000 0.000000 0.041634
#
#
# Mechanical properties :
#
#
# Convention : Reuss Voigt Hill
#
# Bulk Modulus (GPa) = 20.70453 62.42130 41.56292
# Shear Modulus (GPa) = 18.68841 29.73105 24.20973
#
# Velocity S-wave (km/s) = 3.02166 3.81123 3.43918
# Velocity P-wave (km/s) = 4.72116 7.06144 6.00638
#
# Compressibility (1/GPa) = 0.04829862
#
# Stress axis : x y z
#
# Youngs Moduli (GPa) = 110.44280 66.95628 16.92362
#
# Poissons Ratio (x) = 0.19981 0.27038
# Poissons Ratio (y) = 0.32958 -0.02658
# Poissons Ratio (z) = 1.76449 -0.10517
#
# Static dielectric constant tensor:
#      x y z
#    x 1.793020 0.000000 0.000000 
#    y 0.000000 1.753190 0.000000 
#    z 0.000000 0.000000 1.694810 
# 
# From -- ./inp_files/55661.got.cif
#   From: 2010.05.17/outbox.cif.g08.bks.cpg/sg74_28_cif.got.tgz:55661.got - 2010.06.03 17:57:02.
