data_PCOD9538857
_publ_section_title
;
Structure prediction by ZEFSAII (Michael W. Deem and Ramdas Pophale) SiO2 
 PCOD9538857
Probable space group: I M M A
;
_chemical_formula_sum "Si O2"
_cell_formula_units_Z 104
_cell_length_a 9.397714
_cell_length_b 27.139199
_cell_length_c 21.557804
_cell_angle_alpha 90.000000
_cell_angle_beta 90.000000
_cell_angle_gamma 90.000000
_cell_volume 5498.240957
_symmetry_space_group_name_H-M "I M M A"
_symmetry_group_IT_number 74
_symmetry_cell_setting 'orthorhombic'
loop_
_space_group_symop_operation_xyz
x,y,z
-x,1/2-y,z
x,-y,-z
-x,1/2+y,-z
-x,-y,-z
x,1/2+y,-z
-x,y,z
x,1/2-y,z
1/2+x,1/2+y,1/2+z
1/2-x,-y,1/2+z
1/2+x,1/2-y,1/2-z
1/2-x,y,1/2-z
1/2-x,1/2-y,1/2-z
1/2+x,y,1/2-z
1/2-x,1/2+y,1/2+z
1/2+x,-y,1/2+z
loop_
_atom_site_type_symbol
_atom_site_label
_atom_site_fract_x
_atom_site_fract_y
_atom_site_fract_z
Si Si1 0.162391 0.896046 0.052256
Si Si2 0.239358 0.000000 0.500000
Si Si3 0.329507 0.062833 0.688509
Si Si4 0.341185 0.193195 0.153725
Si Si5 0.332887 0.106200 0.310471
Si Si6 0.666272 0.194680 0.004303
Si Si7 0.839503 0.028387 0.366881
O O1 0.189475 0.905305 0.125692
O O2 0.258184 0.852467 0.025200
O O3 0.000000 0.880576 0.044452
O O4 0.179629 0.949348 0.018427
O O5 0.154224 0.011229 0.437732
O O6 0.500000 0.056302 0.698200
O O7 0.250000 0.082272 0.750000
O O8 0.250520 0.011641 0.671611
O O9 0.500000 0.173099 0.170455
O O10 0.336845 0.250000 0.172207
O O11 0.213221 0.162517 0.182160
O O12 0.328274 0.191202 0.079152
O O13 0.500000 0.098432 0.308821
O O14 0.250000 0.087115 0.250000
O O15 0.253986 0.077613 0.365454
O O16 0.500000 0.193173 0.987158
O O17 0.721083 0.250000 0.987635
O O18 0.000000 0.034822 0.342985
#
# Coordination Sequence:
#
# PCOD9538857 Si02
#       7
#    16   8  16  16  16  16  16
#     4  10  21  35  55  83 115 148 181 225 276 326
#     4  10  22  36  56  86 118 148 180 220 274 334
#     4  10  21  37  55  78 108 142 180 220 266 319
#     4   9  19  37  58  79 105 137 175 222 272 321
#     4  12  25  39  55  76 104 141 183 226 272 320
#     4   9  19  36  58  84 114 147 183 225 274 328
#     4  11  22  37  56  79 108 142 180 219 263 318
#
# _framework density 18.915140000000001
#
# number of rings (size 3 to 8) (size 9 to 14) (size 15 to 20)
#    0.000    1.846    0.000    5.077    0.000    9.538 
#    0.000    1.538    0.000    0.462    0.000    0.000 
#    0.000    0.000    0.000    0.000    0.000    0.000 
#
# Total GULP energy -290093.359801 kJ/mol
# GULP energy per Si atom -5578.718458 kJ/mol
# Density = 1.887209 g / cm^3
# Si number density = 18.915140 Si / 1000 Ang^3
#
#
#
# Elastic Constant Matrix: (Units=GPa)
#
#
# Indices 1 2 3 4 5 6 
#
# 1 137.3725 47.9354 37.1719 0.0000 0.0000 0.0000
# 2 47.9354 92.2369 23.7717 0.0000 0.0000 0.0000
# 3 37.1719 23.7717 67.4397 0.0000 0.0000 0.0000
# 4 0.0000 0.0000 0.0000 22.6424 0.0000 0.0000
# 5 0.0000 0.0000 0.0000 0.0000 15.2298 0.0000
# 6 0.0000 0.0000 0.0000 0.0000 0.0000 13.9444
#
#
#
# Elastic Compliance Matrix: (Units=1/GPa)
#
#
# Indices 1 2 3 4 5 6 
#
# 1 0.009764 -0.004056 -0.003952 0.000000 0.000000 0.000000
# 2 -0.004056 0.013610 -0.002562 0.000000 0.000000 0.000000
# 3 -0.003952 -0.002562 0.017909 0.000000 0.000000 0.000000
# 4 0.000000 0.000000 0.000000 0.044165 0.000000 0.000000
# 5 0.000000 0.000000 0.000000 0.000000 0.065661 0.000000
# 6 0.000000 0.000000 0.000000 0.000000 0.000000 0.071713
#
#
# Mechanical properties :
#
#
# Convention : Reuss Voigt Hill
#
# Bulk Modulus (GPa) = 49.64331 57.20077 53.42204
# Shear Modulus (GPa) = 19.94601 22.90799 21.42700
#
# Velocity S-wave (km/s) = 3.25083 3.48385 3.36936
# Velocity P-wave (km/s) = 6.35553 6.81831 6.59098
#
# Compressibility (1/GPa) = 0.02014370
#
# Stress axis : x y z
#
# Youngs Moduli (GPa) = 102.41506 73.47706 55.83634
#
# Poissons Ratio (x) = 0.29801 0.22068
# Poissons Ratio (y) = 0.41538 0.14304
# Poissons Ratio (z) = 0.40477 0.18823
#
# Static dielectric constant tensor:
#      x y z
#    x 1.645350 0.000000 0.000000 
#    y 0.000000 1.718300 0.000000 
#    z 0.000000 0.000000 1.708930 
# 
# From -- ./inp_files/49316.got.cif
#   From: 2010.05.17/outbox.cif.g08.bks.cpg/sg74_25_cif.got.tgz:49316.got - 2010.06.03 17:57:02.
