data_PCOD9538166
_publ_section_title
;
Structure prediction by ZEFSAII (Michael W. Deem and Ramdas Pophale) SiO2 
 PCOD9538166
Probable space group: I M M A
;
_chemical_formula_sum "Si O2"
_cell_formula_units_Z 96
_cell_length_a 18.665793
_cell_length_b 9.441418
_cell_length_c 30.386252
_cell_angle_alpha 90.000000
_cell_angle_beta 90.000000
_cell_angle_gamma 90.000000
_cell_volume 5355.016411
_symmetry_space_group_name_H-M "I M M A"
_symmetry_group_IT_number 74
_symmetry_cell_setting 'orthorhombic'
loop_
_space_group_symop_operation_xyz
x,y,z
-x,1/2-y,z
x,-y,-z
-x,1/2+y,-z
-x,-y,-z
x,1/2+y,-z
-x,y,z
x,1/2-y,z
1/2+x,1/2+y,1/2+z
1/2-x,-y,1/2+z
1/2+x,1/2-y,1/2-z
1/2-x,y,1/2-z
1/2-x,1/2-y,1/2-z
1/2+x,y,1/2-z
1/2-x,1/2+y,1/2+z
1/2+x,-y,1/2+z
loop_
_atom_site_type_symbol
_atom_site_label
_atom_site_fract_x
_atom_site_fract_y
_atom_site_fract_z
Si Si1 0.182520 0.083735 0.219535
Si Si2 0.085021 0.919244 0.044968
Si Si3 0.847987 0.414880 0.622176
Si Si4 0.820887 0.084184 0.871091
Si Si5 0.413577 0.912457 0.957380
Si Si6 0.915471 0.414366 0.300288
O O1 0.195272 0.250000 0.209681
O O2 0.250000 0.036073 0.250000
O O3 0.113596 0.071143 0.250900
O O4 0.172107 0.000553 0.174399
O O5 0.095771 0.750000 0.039131
O O6 0.130116 0.964146 0.087964
O O7 0.000000 0.943451 0.052291
O O8 0.105428 0.000000 0.000000
O O9 0.868541 0.250000 0.619408
O O10 0.762755 0.425547 0.616375
O O11 0.886571 0.506896 0.585292
O O12 0.871842 0.481262 0.668442
O O13 0.837697 0.250000 0.863141
O O14 0.500000 0.911162 0.956970
O O15 0.388879 0.750000 0.958804
O O16 0.389749 0.000000 0.000000
O O17 0.902059 0.250000 0.313610
O O18 0.000000 0.440700 0.303694
#
# Coordination Sequence:
#
# PCOD9538166 Si02
#       6
#    16  16  16  16  16  16
#     4  10  20  36  57  80 108 145 188 230 279 335
#     4   9  19  38  61  84 113 148 186 231 283 338
#     4  11  22  35  53  79 111 144 181 224 271 328
#     4  10  22  37  56  84 115 147 184 226 278 335
#     4  10  21  37  56  77 104 140 181 225 272 321
#     4  10  21  37  56  79 108 143 185 231 277 328
#
# _framework density 17.927115000000001
#
# number of rings (size 3 to 8) (size 9 to 14) (size 15 to 20)
#    0.000    2.000    1.667    1.500    0.000    7.000 
#    0.000    1.667    0.000    0.000    0.000    0.000 
#    0.000    0.000    0.000    0.000    0.000    0.000 
#
# Total GULP energy -267890.835951 kJ/mol
# GULP energy per Si atom -5581.059082 kJ/mol
# Density = 1.788631 g / cm^3
# Si number density = 17.927115 Si / 1000 Ang^3
#
#
#
# Elastic Constant Matrix: (Units=GPa)
#
#
# Indices 1 2 3 4 5 6 
#
# 1 52.8281 37.9016 40.1700 0.0000 0.0000 0.0000
# 2 37.9016 98.5792 73.3990 0.0000 0.0000 0.0000
# 3 40.1700 73.3990 139.2489 0.0000 0.0000 0.0000
# 4 0.0000 0.0000 0.0000 39.0665 0.0000 0.0000
# 5 0.0000 0.0000 0.0000 0.0000 35.7014 0.0000
# 6 0.0000 0.0000 0.0000 0.0000 0.0000 12.5401
#
#
#
# Elastic Compliance Matrix: (Units=1/GPa)
#
#
# Indices 1 2 3 4 5 6 
#
# 1 0.027346 -0.007638 -0.003863 0.000000 0.000000 0.000000
# 2 -0.007638 0.018831 -0.007722 0.000000 0.000000 0.000000
# 3 -0.003863 -0.007722 0.012366 0.000000 0.000000 0.000000
# 4 0.000000 0.000000 0.000000 0.025597 0.000000 0.000000
# 5 0.000000 0.000000 0.000000 0.000000 0.028010 0.000000
# 6 0.000000 0.000000 0.000000 0.000000 0.000000 0.079744
#
#
# Mechanical properties :
#
#
# Convention : Reuss Voigt Hill
#
# Bulk Modulus (GPa) = 49.75874 65.95527 57.85700
# Shear Modulus (GPa) = 21.09347 26.74063 23.91705
#
# Velocity S-wave (km/s) = 3.43392 3.86635 3.65653
# Velocity P-wave (km/s) = 6.59839 7.53673 7.08311
#
# Compressibility (1/GPa) = 0.02009697
#
# Stress axis : x y z
#
# Youngs Moduli (GPa) = 36.56788 53.10499 80.86569
#
# Poissons Ratio (x) = 0.40562 0.31236
# Poissons Ratio (y) = 0.27931 0.62447
# Poissons Ratio (z) = 0.14125 0.41010
#
# Static dielectric constant tensor:
#      x y z
#    x 1.612360 0.000000 0.000000 
#    y 0.000000 1.611200 0.000000 
#    z 0.000000 0.000000 1.595140 
# 
# From -- ./inp_files/64348.got.cif
#   From: 2010.05.17/outbox.cif.g08.bks.cpg/sg74_33_cif.got.tgz:64348.got - 2010.06.03 17:57:02.
