data_PCOD9538672
_publ_section_title
;
Structure prediction by ZEFSAII (Michael W. Deem and Ramdas Pophale) SiO2 
 PCOD9538672
Probable space group: I M M A
;
_chemical_formula_sum "Si O2"
_cell_formula_units_Z 112
_cell_length_a 13.818059
_cell_length_b 31.231721
_cell_length_c 11.808804
_cell_angle_alpha 90.000000
_cell_angle_beta 90.000000
_cell_angle_gamma 90.000000
_cell_volume 5096.228278
_symmetry_space_group_name_H-M "I M M A"
_symmetry_group_IT_number 74
_symmetry_cell_setting 'orthorhombic'
loop_
_space_group_symop_operation_xyz
x,y,z
-x,1/2-y,z
x,-y,-z
-x,1/2+y,-z
-x,-y,-z
x,1/2+y,-z
-x,y,z
x,1/2-y,z
1/2+x,1/2+y,1/2+z
1/2-x,-y,1/2+z
1/2+x,1/2-y,1/2-z
1/2-x,y,1/2-z
1/2-x,1/2-y,1/2-z
1/2+x,y,1/2-z
1/2-x,1/2+y,1/2+z
1/2+x,-y,1/2+z
loop_
_atom_site_type_symbol
_atom_site_label
_atom_site_fract_x
_atom_site_fract_y
_atom_site_fract_z
Si Si1 0.613837 0.336633 0.565565
Si Si2 0.617603 0.297669 0.801012
Si Si3 0.115639 0.984747 0.320884
Si Si4 0.612542 0.853589 0.995961
Si Si5 0.245337 0.800244 0.621093
Si Si6 0.887438 0.937970 0.085201
Si Si7 0.798257 0.058174 0.454635
O O1 0.500000 0.328871 0.542802
O O2 0.644070 0.307761 0.672345
O O3 0.678084 0.324208 0.458697
O O4 0.622407 0.386617 0.599384
O O5 0.500000 0.297137 0.806544
O O6 0.650786 0.250000 0.835458
O O7 0.645012 0.337818 0.879698
O O8 0.140019 0.962252 0.201676
O O9 0.146636 0.956492 0.429669
O O10 0.000000 0.989887 0.322874
O O11 0.165390 0.029887 0.350369
O O12 0.500000 0.864546 0.997078
O O13 0.638619 0.812006 0.923127
O O14 0.672764 0.892631 0.945258
O O15 0.264263 0.750000 0.614241
O O16 0.250000 0.814378 0.750000
O O17 0.000000 0.947314 0.060138
O O18 0.813987 0.949113 0.984329
#
# Coordination Sequence:
#
# PCOD9538672 Si02
#       7
#    16  16  16  16  16  16  16
#     4  10  20  39  67  97 130 174 222 279 343 404
#     4   9  18  32  55  91 130 167 214 273 338 401
#     4  10  21  37  62  98 133 168 212 267 327 396
#     4  11  22  39  64  94 132 178 225 277 336 402
#     4  11  25  43  62  93 133 179 236 283 325 391
#     4  10  21  39  66  98 132 169 216 274 338 401
#     4  11  20  38  65  95 127 171 219 265 325 405
#
# _framework density 21.977036999999999
#
# number of rings (size 3 to 8) (size 9 to 14) (size 15 to 20)
#    0.000    1.714    1.429    3.857    0.000    5.143 
#    0.000    7.143    0.000    2.571    0.000    0.000 
#    0.000    0.000    0.000    0.000    0.000    0.000 
#
# Total GULP energy -313080.087201 kJ/mol
# GULP energy per Si atom -5590.715843 kJ/mol
# Density = 2.192702 g / cm^3
# Si number density = 21.977037 Si / 1000 Ang^3
#
#
#
# Elastic Constant Matrix: (Units=GPa)
#
#
# Indices 1 2 3 4 5 6 
#
# 1 105.9691 31.2310 33.9262 0.0000 0.0000 0.0000
# 2 31.2310 98.3155 44.1965 0.0001 0.0000 0.0000
# 3 33.9262 44.1965 97.8977 0.0004 0.0001 0.0001
# 4 0.0000 0.0001 0.0004 32.7739 0.0000 0.0000
# 5 0.0000 0.0000 0.0001 0.0000 22.6092 0.0000
# 6 0.0000 0.0000 0.0001 0.0000 0.0000 29.6600
#
#
#
# Elastic Compliance Matrix: (Units=1/GPa)
#
#
# Indices 1 2 3 4 5 6 
#
# 1 0.010991 -0.002232 -0.002801 0.000000 0.000000 0.000000
# 2 -0.002232 0.013215 -0.005192 0.000000 0.000000 0.000000
# 3 -0.002801 -0.005192 0.013530 0.000000 0.000000 0.000000
# 4 0.000000 0.000000 0.000000 0.030512 0.000000 0.000000
# 5 0.000000 0.000000 0.000000 0.000000 0.044230 0.000000
# 6 0.000000 0.000000 0.000000 0.000000 0.000000 0.033715
#
#
# Mechanical properties :
#
#
# Convention : Reuss Voigt Hill
#
# Bulk Modulus (GPa) = 57.85682 57.87663 57.86672
# Shear Modulus (GPa) = 29.00135 29.86384 29.43260
#
# Velocity S-wave (km/s) = 3.63660 3.69028 3.66354
# Velocity P-wave (km/s) = 6.63448 6.67456 6.65455
#
# Compressibility (1/GPa) = 0.01728405
#
# Stress axis : x y z
#
# Youngs Moduli (GPa) = 90.97984 75.67432 73.91213
#
# Poissons Ratio (x) = 0.16893 0.20705
# Poissons Ratio (y) = 0.20309 0.38377
# Poissons Ratio (z) = 0.25486 0.39292
#
# Static dielectric constant tensor:
#      x y z
#    x 1.856670 0.000000 0.000000 
#    y 0.000000 1.817420 0.000000 
#    z 0.000000 0.000000 1.789500 
# 
# From -- ./inp_files/21150.got.cif
#   From: 2010.05.17/outbox.cif.g08.bks.cpg/sg74_11_cif.got.tgz:21150.got - 2010.06.03 17:57:02.
