data_PCOD9538314
_publ_section_title
;
Structure prediction by ZEFSAII (Michael W. Deem and Ramdas Pophale) SiO2 
 PCOD9538314
Probable space group: I M M A
;
_chemical_formula_sum "Si O2"
_cell_formula_units_Z 64
_cell_length_a 18.431985
_cell_length_b 17.926240
_cell_length_c 11.153316
_cell_angle_alpha 90.000000
_cell_angle_beta 90.000000
_cell_angle_gamma 90.000000
_cell_volume 3685.236143
_symmetry_space_group_name_H-M "I M M A"
_symmetry_group_IT_number 74
_symmetry_cell_setting 'orthorhombic'
loop_
_space_group_symop_operation_xyz
x,y,z
-x,1/2-y,z
x,-y,-z
-x,1/2+y,-z
-x,-y,-z
x,1/2+y,-z
-x,y,z
x,1/2-y,z
1/2+x,1/2+y,1/2+z
1/2-x,-y,1/2+z
1/2+x,1/2-y,1/2-z
1/2-x,y,1/2-z
1/2-x,1/2-y,1/2-z
1/2+x,y,1/2-z
1/2-x,1/2+y,1/2+z
1/2+x,-y,1/2+z
loop_
_atom_site_type_symbol
_atom_site_label
_atom_site_fract_x
_atom_site_fract_y
_atom_site_fract_z
Si Si1 0.624436 0.422780 0.039027
Si Si2 0.000000 0.926614 0.181741
Si Si3 0.500000 0.339685 0.434693
Si Si4 0.000000 0.164128 0.573544
Si Si5 0.619427 0.555054 0.681253
Si Si6 0.260018 0.500000 0.500000
O O1 0.571912 0.357282 0.000785
O O2 0.585300 0.500000 0.000000
O O3 0.636586 0.425697 0.181167
O O4 0.701949 0.433521 0.972332
O O5 0.000000 0.869903 0.070868
O O6 0.000000 0.883466 0.305748
O O7 0.931581 0.981972 0.175810
O O8 0.500000 0.250000 0.426360
O O9 0.570861 0.377913 0.373582
O O10 0.000000 0.250000 0.603591
O O11 0.689219 0.532111 0.604030
#
# Coordination Sequence:
#
# PCOD9538314 Si02
#       6
#    16   8   8   8  16   8
#     4  10  22  35  61  84 113 144 196 235 280 335
#     4  11  18  37  62  82 111 155 200 234 278 332
#     4  11  23  35  56  90 120 150 188 239 292 337
#     4  12  23  39  59  86 118 148 187 243 295 337
#     4  11  19  37  63  85 111 154 196 237 277 336
#     4  10  20  36  60  90 110 146 196 234 276 340
#
# _framework density 17.366593999999999
#
# number of rings (size 3 to 8) (size 9 to 14) (size 15 to 20)
#    0.750    0.500    5.000    3.750    0.000    2.000 
#    0.000    1.250    0.000    4.500    0.000    0.000 
#    0.000    0.000    0.000    0.000    0.000    0.000 
#
# Total GULP energy -178261.845710 kJ/mol
# GULP energy per Si atom -5570.682678 kJ/mol
# Density = 1.732707 g / cm^3
# Si number density = 17.366594 Si / 1000 Ang^3
#
#
#
# Elastic Constant Matrix: (Units=GPa)
#
#
# Indices 1 2 3 4 5 6 
#
# 1 123.5164 48.2343 31.1307 0.0000 0.0000 0.0000
# 2 48.2343 117.5091 40.1815 0.0000 0.0000 0.0000
# 3 31.1307 40.1815 101.0220 0.0000 0.0000 0.0000
# 4 0.0000 0.0000 0.0000 13.6259 0.0000 0.0000
# 5 0.0000 0.0000 0.0000 0.0000 88.1219 0.0000
# 6 0.0000 0.0000 0.0000 0.0000 0.0000 25.9768
#
#
#
# Elastic Compliance Matrix: (Units=1/GPa)
#
#
# Indices 1 2 3 4 5 6 
#
# 1 0.009875 -0.003487 -0.001656 0.000000 0.000000 0.000000
# 2 -0.003487 0.011081 -0.003333 0.000000 0.000000 0.000000
# 3 -0.001656 -0.003333 0.011735 0.000000 0.000000 0.000000
# 4 0.000000 0.000000 0.000000 0.073390 0.000000 0.000000
# 5 0.000000 0.000000 0.000000 0.000000 0.011348 0.000000
# 6 0.000000 0.000000 0.000000 0.000000 0.000000 0.038496
#
#
# Mechanical properties :
#
#
# Convention : Reuss Voigt Hill
#
# Bulk Modulus (GPa) = 63.53743 64.57114 64.05428
# Shear Modulus (GPa) = 28.07046 40.37834 34.22440
#
# Velocity S-wave (km/s) = 4.02475 4.82712 4.44408
# Velocity P-wave (km/s) = 7.63305 8.26620 7.95593
#
# Compressibility (1/GPa) = 0.01573875
#
# Stress axis : x y z
#
# Youngs Moduli (GPa) = 101.26286 90.24412 85.21646
#
# Poissons Ratio (x) = 0.31470 0.14113
# Poissons Ratio (y) = 0.35313 0.28402
# Poissons Ratio (z) = 0.16770 0.30077
#
# Static dielectric constant tensor:
#      x y z
#    x 1.633590 0.000000 0.000000 
#    y 0.000000 1.570140 0.000000 
#    z 0.000000 0.000000 1.609470 
# 
# From -- ./inp_files/11880.got.cif
#   From: 2010.05.17/outbox.cif.g08.bks.cpg/sg74_6_cif.got.tgz:11880.got - 2010.06.03 17:57:02.
