data_PCOD9538823
_publ_section_title
;
Structure prediction by ZEFSAII (Michael W. Deem and Ramdas Pophale) SiO2 
 PCOD9538823
Probable space group: I M M A
;
_chemical_formula_sum "Si O2"
_cell_formula_units_Z 96
_cell_length_a 7.632587
_cell_length_b 20.376025
_cell_length_c 27.900423
_cell_angle_alpha 90.000000
_cell_angle_beta 90.000000
_cell_angle_gamma 90.000000
_cell_volume 4339.123546
_symmetry_space_group_name_H-M "I M M A"
_symmetry_group_IT_number 74
_symmetry_cell_setting 'orthorhombic'
loop_
_space_group_symop_operation_xyz
x,y,z
-x,1/2-y,z
x,-y,-z
-x,1/2+y,-z
-x,-y,-z
x,1/2+y,-z
-x,y,z
x,1/2-y,z
1/2+x,1/2+y,1/2+z
1/2-x,-y,1/2+z
1/2+x,1/2-y,1/2-z
1/2-x,y,1/2-z
1/2-x,1/2-y,1/2-z
1/2+x,y,1/2-z
1/2-x,1/2+y,1/2+z
1/2+x,-y,1/2+z
loop_
_atom_site_type_symbol
_atom_site_label
_atom_site_fract_x
_atom_site_fract_y
_atom_site_fract_z
Si Si1 0.209085 0.954288 0.648878
Si Si2 0.792721 0.085595 0.803598
Si Si3 0.710756 0.821604 0.806303
Si Si4 0.787961 0.174534 0.999229
Si Si5 0.713546 0.325595 0.609686
Si Si6 0.294573 0.039995 0.044568
O O1 0.280811 0.884331 0.665661
O O2 0.281300 0.974918 0.596918
O O3 0.000000 0.946645 0.643520
O O4 0.237668 0.010805 0.687512
O O5 0.750000 0.108153 0.750000
O O6 0.719697 0.128779 0.847541
O O7 0.000000 0.088039 0.807954
O O8 0.500000 0.821007 0.811264
O O9 0.777035 0.750000 0.822058
O O10 0.750000 0.828791 0.750000
O O11 0.733515 0.250000 0.009410
O O12 0.731510 0.157363 0.944577
O O13 0.000000 0.173632 0.000492
O O14 0.721446 0.117510 0.033797
O O15 0.500000 0.327845 0.609365
O O16 0.762949 0.250000 0.618313
O O17 0.500000 0.022307 0.046366
O O18 0.215487 0.000000 0.000000
#
# Coordination Sequence:
#
# PCOD9538823 Si02
#       6
#    16  16  16  16  16  16
#     4  10  21  36  53  74 103 137 172 211 253 305
#     4  11  22  35  54  78 104 136 173 215 262 311
#     4   9  18  33  52  72  94 124 162 201 243 292
#     4   9  18  34  56  80 105 136 177 220 259 308
#     4   8  16  33  55  77 103 137 175 213 255 305
#     4  10  21  35  52  77 108 139 172 215 266 315
#
# _framework density 22.124282999999998
#
# number of rings (size 3 to 8) (size 9 to 14) (size 15 to 20)
#    0.000    2.500    0.000    3.000    0.000    4.333 
#    0.000    2.500    0.000    5.500    0.000    0.000 
#    0.000    0.000    0.000    0.000    0.000    0.000 
#
# Total GULP energy -268046.621519 kJ/mol
# GULP energy per Si atom -5584.304615 kJ/mol
# Density = 2.207393 g / cm^3
# Si number density = 22.124283 Si / 1000 Ang^3
#
#
#
# Elastic Constant Matrix: (Units=GPa)
#
#
# Indices 1 2 3 4 5 6 
#
# 1 44.0592 -6.8119 -3.6743 0.0000 0.0000 0.0000
# 2 -6.8119 34.6751 -1.8971 0.0000 0.0000 0.0000
# 3 -3.6743 -1.8971 47.7960 0.0000 0.0000 0.0000
# 4 0.0000 0.0000 0.0000 38.9312 0.0000 0.0000
# 5 0.0000 0.0000 0.0000 0.0000 11.8962 0.0000
# 6 0.0000 0.0000 0.0000 0.0000 0.0000 18.1581
#
#
#
# Elastic Compliance Matrix: (Units=1/GPa)
#
#
# Indices 1 2 3 4 5 6 
#
# 1 0.023597 0.004745 0.002002 0.000000 0.000000 0.000000
# 2 0.004745 0.029856 0.001550 0.000000 0.000000 0.000000
# 3 0.002002 0.001550 0.021138 0.000000 0.000000 0.000000
# 4 0.000000 0.000000 0.000000 0.025686 0.000000 0.000000
# 5 0.000000 0.000000 0.000000 0.000000 0.084061 0.000000
# 6 0.000000 0.000000 0.000000 0.000000 0.000000 0.055072
#
#
# Mechanical properties :
#
#
# Convention : Reuss Voigt Hill
#
# Bulk Modulus (GPa) = 10.96661 11.30711 11.13686
# Shear Modulus (GPa) = 19.74643 23.05800 21.40221
#
# Velocity S-wave (km/s) = 2.99075 3.23182 3.11362
# Velocity P-wave (km/s) = 4.11020 4.36440 4.23921
#
# Compressibility (1/GPa) = 0.09118586
#
# Stress axis : x y z
#
# Youngs Moduli (GPa) = 42.37766 33.49399 47.30883
#
# Poissons Ratio (x) = -0.15894 -0.09473
# Poissons Ratio (y) = -0.20109 -0.07332
# Poissons Ratio (z) = -0.08486 -0.05191
#
# Static dielectric constant tensor:
#      x y z
#    x 1.844430 0.000000 0.000000 
#    y 0.000000 1.808790 0.000000 
#    z 0.000000 0.000000 1.828120 
# 
# From -- ./inp_files/64266.got.cif
#   From: 2010.05.17/outbox.cif.g08.bks.cpg/sg74_33_cif.got.tgz:64266.got - 2010.06.03 17:57:02.
