data_PCOD9538723
_publ_section_title
;
Structure prediction by ZEFSAII (Michael W. Deem and Ramdas Pophale) SiO2 
 PCOD9538723
Probable space group: I M M A
;
_chemical_formula_sum "Si O2"
_cell_formula_units_Z 72
_cell_length_a 7.578742
_cell_length_b 22.289305
_cell_length_c 23.412388
_cell_angle_alpha 90.000000
_cell_angle_beta 90.000000
_cell_angle_gamma 90.000000
_cell_volume 3954.935113
_symmetry_space_group_name_H-M "I M M A"
_symmetry_group_IT_number 74
_symmetry_cell_setting 'orthorhombic'
loop_
_space_group_symop_operation_xyz
x,y,z
-x,1/2-y,z
x,-y,-z
-x,1/2+y,-z
-x,-y,-z
x,1/2+y,-z
-x,y,z
x,1/2-y,z
1/2+x,1/2+y,1/2+z
1/2-x,-y,1/2+z
1/2+x,1/2-y,1/2-z
1/2-x,y,1/2-z
1/2-x,1/2-y,1/2-z
1/2+x,y,1/2-z
1/2-x,1/2+y,1/2+z
1/2+x,-y,1/2+z
loop_
_atom_site_type_symbol
_atom_site_label
_atom_site_fract_x
_atom_site_fract_y
_atom_site_fract_z
Si Si1 0.789457 0.471532 0.315194
Si Si2 0.295057 0.863669 0.893373
Si Si3 0.210139 0.250000 0.182880
Si Si4 0.000000 0.178304 0.887346
Si Si5 0.500000 0.177848 0.478764
Si Si6 0.789353 0.390317 0.683781
O O1 0.750000 0.453453 0.250000
O O2 0.726273 0.422784 0.360487
O O3 0.730425 0.540046 0.323797
O O4 0.000000 0.472394 0.320347
O O5 0.500000 0.871554 0.909834
O O6 0.283741 0.808870 0.848376
O O7 0.171061 0.847346 0.946179
O O8 0.250000 0.250000 0.250000
O O9 0.000000 0.250000 0.174766
O O10 0.000000 0.163249 0.954448
O O11 0.171688 0.150682 0.856723
O O12 0.000000 0.250000 0.881416
O O13 0.500000 0.250000 0.472564
O O14 0.750000 0.375326 0.750000
O O15 0.000000 0.385612 0.673887
#
# Coordination Sequence:
#
# PCOD9538723 Si02
#       6
#    16  16   8   8   8  16
#     4   9  20  33  57  90 121 158 202 241 302 371
#     4  11  21  37  57  84 118 165 207 256 300 346
#     4  12  22  34  52  85 123 158 211 266 306 350
#     4  11  26  43  65  95 117 155 210 244 300 381
#     4  11  24  43  59  81 121 168 212 255 296 356
#     4  10  20  41  65  93 128 156 182 243 312 368
#
# _framework density 18.205103000000001
#
# number of rings (size 3 to 8) (size 9 to 14) (size 15 to 20)
#    0.000    1.556    3.333    1.667    3.111    3.556 
#    0.000    4.444    0.000    4.000    0.000    0.000 
#    0.000    0.000    0.000    0.000    0.000    0.000 
#
# Total GULP energy -201085.452534 kJ/mol
# GULP energy per Si atom -5585.707015 kJ/mol
# Density = 1.816367 g / cm^3
# Si number density = 18.205103 Si / 1000 Ang^3
#
#
#
# Elastic Constant Matrix: (Units=GPa)
#
#
# Indices 1 2 3 4 5 6 
#
# 1 119.5801 42.8298 65.2687 0.0000 0.0000 0.0000
# 2 42.8298 88.2574 89.3431 0.0000 0.0000 0.0000
# 3 65.2687 89.3431 162.5008 0.0000 0.0000 0.0000
# 4 0.0000 0.0000 0.0000 20.7519 0.0000 0.0000
# 5 0.0000 0.0000 0.0000 0.0000 24.7296 0.0000
# 6 0.0000 0.0000 0.0000 0.0000 0.0000 24.9072
#
#
#
# Elastic Compliance Matrix: (Units=1/GPa)
#
#
# Indices 1 2 3 4 5 6 
#
# 1 0.010854 -0.001926 -0.003301 0.000000 0.000000 0.000000
# 2 -0.001926 0.025893 -0.013463 0.000000 0.000000 0.000000
# 3 -0.003301 -0.013463 0.014881 0.000000 0.000000 0.000000
# 4 0.000000 0.000000 0.000000 0.048188 0.000000 0.000000
# 5 0.000000 0.000000 0.000000 0.000000 0.040437 0.000000
# 6 0.000000 0.000000 0.000000 0.000000 0.000000 0.040149
#
#
# Mechanical properties :
#
#
# Convention : Reuss Voigt Hill
#
# Bulk Modulus (GPa) = 70.17484 85.02461 77.59972
# Shear Modulus (GPa) = 22.46869 25.60419 24.03644
#
# Velocity S-wave (km/s) = 3.51693 3.75431 3.63755
# Velocity P-wave (km/s) = 7.42443 8.09927 7.76918
#
# Compressibility (1/GPa) = 0.01425012
#
# Stress axis : x y z
#
# Youngs Moduli (GPa) = 92.13239 38.61981 67.19866
#
# Poissons Ratio (x) = 0.07439 0.22179
# Poissons Ratio (y) = 0.17746 0.90467
# Poissons Ratio (z) = 0.30409 0.51992
#
# Static dielectric constant tensor:
#      x y z
#    x 1.637770 0.000000 0.000000 
#    y 0.000000 1.634290 0.000000 
#    z 0.000000 0.000000 1.593210 
# 
# From -- ./inp_files/48435.got.cif
#   From: 2010.05.17/outbox.cif.g08.bks.cpg/sg74_25_cif.got.tgz:48435.got - 2010.06.03 17:57:02.
