data_PCOD9538523
_publ_section_title
;
Structure prediction by ZEFSAII (Michael W. Deem and Ramdas Pophale) SiO2 
 PCOD9538523
Probable space group: I M M A
;
_chemical_formula_sum "Si O2"
_cell_formula_units_Z 84
_cell_length_a 14.469415
_cell_length_b 28.013293
_cell_length_c 11.387948
_cell_angle_alpha 90.000000
_cell_angle_beta 90.000000
_cell_angle_gamma 90.000000
_cell_volume 4615.944857
_symmetry_space_group_name_H-M "I M M A"
_symmetry_group_IT_number 74
_symmetry_cell_setting 'orthorhombic'
loop_
_space_group_symop_operation_xyz
x,y,z
-x,1/2-y,z
x,-y,-z
-x,1/2+y,-z
-x,-y,-z
x,1/2+y,-z
-x,y,z
x,1/2-y,z
1/2+x,1/2+y,1/2+z
1/2-x,-y,1/2+z
1/2+x,1/2-y,1/2-z
1/2-x,y,1/2-z
1/2-x,1/2-y,1/2-z
1/2+x,y,1/2-z
1/2-x,1/2+y,1/2+z
1/2+x,-y,1/2+z
loop_
_atom_site_type_symbol
_atom_site_label
_atom_site_fract_x
_atom_site_fract_y
_atom_site_fract_z
Si Si1 0.107520 0.989043 0.802650
Si Si2 0.237504 0.576104 0.121063
Si Si3 0.600653 0.891041 0.552345
Si Si4 0.855853 0.666035 0.720086
Si Si5 0.000000 0.750000 0.668241
Si Si6 0.389482 0.429888 0.071316
O O1 0.113503 0.942486 0.885037
O O2 0.130946 0.969365 0.672343
O O3 0.000000 0.004717 0.802632
O O4 0.174306 0.029507 0.852055
O O5 0.250000 0.597074 0.250000
O O6 0.180090 0.612452 0.041688
O O7 0.328858 0.564278 0.045691
O O8 0.500000 0.890227 0.496094
O O9 0.605228 0.853024 0.655745
O O10 0.750000 0.678538 0.750000
O O11 0.862972 0.620591 0.632260
O O12 0.918985 0.708257 0.673659
O O13 0.500000 0.431210 0.049575
#
# Coordination Sequence:
#
# PCOD9538523 Si02
#       6
#    16  16  16  16   4  16
#     4   9  21  37  57  82 110 159 216 260 302 348
#     4  12  25  33  57  84 114 167 221 250 276 363
#     4  10  20  38  59  80 120 162 191 249 318 352
#     4  11  20  38  66  98 125 152 187 242 327 385
#     4  12  22  36  68 114 124 130 198 256 312 416
#     4  10  22  42  60  81 127 170 194 258 328 354
#
# _framework density 18.197790999999999
#
# number of rings (size 3 to 8) (size 9 to 14) (size 15 to 20)
#    0.000    1.524    3.810    2.571    5.333    3.048 
#    0.000    1.905    0.000    0.000    0.000    4.000 
#    0.000    0.000    0.000    0.000    0.000    0.000 
#
# Total GULP energy -234098.195860 kJ/mol
# GULP energy per Si atom -5573.766568 kJ/mol
# Density = 1.815637 g / cm^3
# Si number density = 18.197791 Si / 1000 Ang^3
#
#
#
# Elastic Constant Matrix: (Units=GPa)
#
#
# Indices 1 2 3 4 5 6 
#
# 1 117.7063 23.4632 52.0722 -0.0001 0.0000 0.0000
# 2 23.4632 73.3982 14.8030 -0.0001 0.0000 0.0000
# 3 52.0722 14.8030 114.8088 -0.0002 0.0000 0.0000
# 4 -0.0001 -0.0001 -0.0002 -0.6755 0.0000 0.0000
# 5 0.0000 0.0000 0.0000 0.0000 19.0524 0.0000
# 6 0.0000 0.0000 0.0000 0.0000 0.0000 17.6578
#
#
#
# Elastic Compliance Matrix: (Units=1/GPa)
#
#
# Indices 1 2 3 4 5 6 
#
# 1 0.011091 -0.002598 -0.004695 0.000001 0.000000 0.000000
# 2 -0.002598 0.014597 -0.000704 -0.000002 0.000000 0.000000
# 3 -0.004695 -0.000704 0.010930 -0.000002 0.000000 0.000000
# 4 0.000001 -0.000002 -0.000002 -1.480321 -0.000003 -0.000001
# 5 0.000000 0.000000 0.000000 -0.000003 0.052487 0.000000
# 6 0.000000 0.000000 0.000000 -0.000001 0.000000 0.056632
#
#
# Mechanical properties :
#
#
# Convention : Reuss Voigt Hill
#
# Bulk Modulus (GPa) = 48.48816 54.06557 51.27687
# Shear Modulus (GPa) = -3.81181 21.57859 8.88339
#
# Velocity S-wave (km/s) = -1.44886 3.44725 2.21183
# Velocity P-wave (km/s) = 4.88917 6.75420 5.89590
#
# Compressibility (1/GPa) = 0.02062359
#
# Stress axis : x y z
#
# Youngs Moduli (GPa) = 90.16448 68.50794 91.48781
#
# Poissons Ratio (x) = 0.17802 0.42956
# Poissons Ratio (y) = 0.23429 0.06436
# Poissons Ratio (z) = 0.42335 0.04820
#
# Static dielectric constant tensor:
#      x y z
#    x 1.691220 0.000000 0.000000 
#    y 0.000000 1.600880 0.000000 
#    z 0.000000 0.000000 1.656860 
# 
# From -- ./inp_files/20998.got.cif
#   From: 2010.05.17/outbox.cif.g08.bks.cpg/sg74_11_cif.got.tgz:20998.got - 2010.06.03 17:57:02.
