data_PCOD9538663
_publ_section_title
;
Structure prediction by ZEFSAII (Michael W. Deem and Ramdas Pophale) SiO2 
 PCOD9538663
Probable space group: I M M A
;
_chemical_formula_sum "Si O2"
_cell_formula_units_Z 68
_cell_length_a 16.755071
_cell_length_b 20.722327
_cell_length_c 9.006066
_cell_angle_alpha 90.000000
_cell_angle_beta 90.000000
_cell_angle_gamma 90.000000
_cell_volume 3126.942681
_symmetry_space_group_name_H-M "I M M A"
_symmetry_group_IT_number 74
_symmetry_cell_setting 'orthorhombic'
loop_
_space_group_symop_operation_xyz
x,y,z
-x,1/2-y,z
x,-y,-z
-x,1/2+y,-z
-x,-y,-z
x,1/2+y,-z
-x,y,z
x,1/2-y,z
1/2+x,1/2+y,1/2+z
1/2-x,-y,1/2+z
1/2+x,1/2-y,1/2-z
1/2-x,y,1/2-z
1/2-x,1/2-y,1/2-z
1/2+x,y,1/2-z
1/2-x,1/2+y,1/2+z
1/2+x,-y,1/2+z
loop_
_atom_site_type_symbol
_atom_site_label
_atom_site_fract_x
_atom_site_fract_y
_atom_site_fract_z
Si Si1 0.250000 0.533137 0.250000
Si Si2 0.140120 0.122845 0.554076
Si Si3 0.137530 0.500000 0.000000
Si Si4 0.500000 0.750000 0.826632
Si Si5 0.500000 0.394166 0.126014
Si Si6 0.000000 0.824067 0.246273
Si Si7 0.324724 0.750000 0.860282
Si Si8 0.000000 0.099854 0.022736
O O1 0.206105 0.579152 0.369175
O O2 0.189787 0.492475 0.148284
O O3 0.079148 0.144800 0.683373
O O4 0.173141 0.185473 0.464069
O O5 0.082245 0.081933 0.443821
O O6 0.078277 0.440110 0.978051
O O7 0.500000 0.682579 0.914519
O O8 0.408954 0.750000 0.766506
O O9 0.500000 0.395479 0.301272
O O10 0.000000 0.750000 0.282623
O O11 0.000000 0.835265 0.070141
O O12 0.250000 0.750000 0.750000
#
# Coordination Sequence:
#
# PCOD9538663 Si02
#       8
#     8  16   8   4   8   8   8   8
#     4  12  26  45  66  94 137 184 234 304 354 412
#     4  10  22  42  65 100 132 180 225 276 351 433
#     4  11  28  46  66  93 140 174 244 295 354 406
#     4   8  18  38  56  96 130 170 202 262 328 412
#     4   9  21  38  70  90 131 169 218 265 342 415
#     4  11  20  44  73  97 141 180 225 292 353 432
#     4  10  20  39  66 103 145 177 224 282 347 437
#     4  11  24  46  66 103 127 181 238 289 339 441
#
# _framework density 21.746479999999998
#
# number of rings (size 3 to 8) (size 9 to 14) (size 15 to 20)
#    0.000    1.647    3.529    0.706    5.765    4.235 
#    0.000    1.176    0.000    0.000    0.000    0.824 
#    0.000    0.000    0.000    0.000    0.000    0.000 
#
# Total GULP energy -189744.625730 kJ/mol
# GULP energy per Si atom -5580.724286 kJ/mol
# Density = 2.169698 g / cm^3
# Si number density = 21.746480 Si / 1000 Ang^3
#
#
#
# Elastic Constant Matrix: (Units=GPa)
#
#
# Indices 1 2 3 4 5 6 
#
# 1 129.1754 14.0579 48.2675 0.0000 0.0000 0.0000
# 2 14.0579 31.1351 6.8870 0.0000 0.0000 0.0000
# 3 48.2675 6.8870 126.1465 0.0000 0.0000 0.0000
# 4 0.0000 0.0000 0.0000 24.2638 0.0000 0.0000
# 5 0.0000 0.0000 0.0000 0.0000 21.3529 0.0000
# 6 0.0000 0.0000 0.0000 0.0000 0.0000 85.9978
#
#
#
# Elastic Compliance Matrix: (Units=1/GPa)
#
#
# Indices 1 2 3 4 5 6 
#
# 1 0.009393 -0.003488 -0.003404 0.000000 0.000000 0.000000
# 2 -0.003488 0.033806 -0.000511 0.000000 0.000000 0.000000
# 3 -0.003404 -0.000511 0.009257 0.000000 0.000000 0.000000
# 4 0.000000 0.000000 0.000000 0.041214 0.000000 0.000000
# 5 0.000000 0.000000 0.000000 0.000000 0.046832 0.000000
# 6 0.000000 0.000000 0.000000 0.000000 0.000000 0.011628
#
#
# Mechanical properties :
#
#
# Convention : Reuss Voigt Hill
#
# Bulk Modulus (GPa) = 26.55966 47.20907 36.88437
# Shear Modulus (GPa) = 27.85735 40.80588 34.33161
#
# Velocity S-wave (km/s) = 3.58300 4.33648 3.97762
# Velocity P-wave (km/s) = 5.41821 6.84320 6.17197
#
# Compressibility (1/GPa) = 0.03765109
#
# Stress axis : x y z
#
# Youngs Moduli (GPa) = 106.46479 29.58047 108.02071
#
# Poissons Ratio (x) = 0.10318 0.36765
# Poissons Ratio (y) = 0.37136 0.05520
# Poissons Ratio (z) = 0.36236 0.01512
#
# Static dielectric constant tensor:
#      x y z
#    x 1.734080 0.000000 0.000000 
#    y 0.000000 1.768260 0.000000 
#    z 0.000000 0.000000 1.824190 
# 
# From -- ./inp_files/10528.got.cif
#   From: 2010.05.17/outbox.cif.g08.bks.cpg/sg74_6_cif.got.tgz:10528.got - 2010.06.03 17:57:02.
