data_PCOD9538367
_publ_section_title
;
Structure prediction by ZEFSAII (Michael W. Deem and Ramdas Pophale) SiO2 
 PCOD9538367
Probable space group: I M M A
;
_chemical_formula_sum "Si O2"
_cell_formula_units_Z 68
_cell_length_a 14.249559
_cell_length_b 12.955648
_cell_length_c 13.851431
_cell_angle_alpha 90.000000
_cell_angle_beta 90.000000
_cell_angle_gamma 90.000000
_cell_volume 2557.144127
_symmetry_space_group_name_H-M "I M M A"
_symmetry_group_IT_number 74
_symmetry_cell_setting 'orthorhombic'
loop_
_space_group_symop_operation_xyz
x,y,z
-x,1/2-y,z
x,-y,-z
-x,1/2+y,-z
-x,-y,-z
x,1/2+y,-z
-x,y,z
x,1/2-y,z
1/2+x,1/2+y,1/2+z
1/2-x,-y,1/2+z
1/2+x,1/2-y,1/2-z
1/2-x,y,1/2-z
1/2-x,1/2-y,1/2-z
1/2+x,y,1/2-z
1/2-x,1/2+y,1/2+z
1/2+x,-y,1/2+z
loop_
_atom_site_type_symbol
_atom_site_label
_atom_site_fract_x
_atom_site_fract_y
_atom_site_fract_z
Si Si1 0.821623 0.862396 0.156356
Si Si2 0.363771 0.587569 0.646034
Si Si3 0.000000 0.250000 0.062533
Si Si4 0.636687 0.583126 0.859500
Si Si5 0.131439 0.139861 0.569049
O O1 0.868546 0.750000 0.159334
O O2 0.750000 0.870106 0.250000
O O3 0.744581 0.862596 0.071815
O O4 0.882363 0.964360 0.144853
O O5 0.418505 0.658996 0.572831
O O6 0.391682 0.622599 0.754882
O O7 0.250438 0.591685 0.639846
O O8 0.606082 0.463496 0.874133
O O9 0.602951 0.634016 0.957952
O O10 0.102924 0.250000 0.611356
#
# Coordination Sequence:
#
# PCOD9538367 Si02
#       5
#    16  16   4  16  16
#     4   9  15  31  58  86 108 123 168 239 286 317
#     4  10  20  37  50  79 108 148 184 221 262 318
#     4  12  28  34  50  72 116 166 190 202 252 322
#     4   9  18  32  55  79 106 132 182 230 272 312
#     4   9  16  26  51  92 104 124 161 230 289 319
#
# _framework density 26.592164
#
# number of rings (size 3 to 8) (size 9 to 14) (size 15 to 20)
#    0.000    2.588    4.706    0.000    3.294    0.941 
#    0.000    0.588    0.000   14.118    0.000    0.000 
#    0.000    0.000    0.000    0.000    0.000    0.000 
#
# Total GULP energy -189460.350869 kJ/mol
# GULP energy per Si atom -5572.363261 kJ/mol
# Density = 2.653164 g / cm^3
# Si number density = 26.592164 Si / 1000 Ang^3
#
#
#
# Elastic Constant Matrix: (Units=GPa)
#
#
# Indices 1 2 3 4 5 6 
#
# 1 149.2099 26.1714 4.4521 0.0000 0.0000 0.0000
# 2 26.1714 207.4779 -9.0165 0.0000 0.0000 0.0000
# 3 4.4521 -9.0165 98.3861 0.0000 0.0000 0.0000
# 4 0.0000 0.0000 0.0000 2.4938 0.0000 0.0000
# 5 0.0000 0.0000 0.0000 0.0000 -38.6672 0.0000
# 6 0.0000 0.0000 0.0000 0.0000 0.0000 197.2411
#
#
#
# Elastic Compliance Matrix: (Units=1/GPa)
#
#
# Indices 1 2 3 4 5 6 
#
# 1 0.006869 -0.000883 -0.000392 0.000000 0.000000 0.000000
# 2 -0.000883 0.004953 0.000494 0.000000 0.000000 0.000000
# 3 -0.000392 0.000494 0.010227 0.000000 0.000000 0.000000
# 4 0.000000 0.000000 0.000000 0.400987 0.000000 0.000000
# 5 0.000000 0.000000 0.000000 0.000000 -0.025862 0.000000
# 6 0.000000 0.000000 0.000000 0.000000 0.000000 0.005070
#
#
# Mechanical properties :
#
#
# Convention : Reuss Voigt Hill
#
# Bulk Modulus (GPa) = 48.81471 55.36531 52.09001
# Shear Modulus (GPa) = 12.17626 61.11132 36.64379
#
# Velocity S-wave (km/s) = 2.14216 4.79905 3.71616
# Velocity P-wave (km/s) = 4.95127 7.18144 6.16799
#
# Compressibility (1/GPa) = 0.02048563
#
# Stress axis : x y z
#
# Youngs Moduli (GPa) = 145.58978 201.91044 97.78010
#
# Poissons Ratio (x) = 0.17838 0.03831
# Poissons Ratio (y) = 0.12862 -0.04829
# Poissons Ratio (z) = 0.05704 -0.09972
#
# Static dielectric constant tensor:
#      x y z
#    x 2.083330 0.000000 0.000000 
#    y 0.000000 2.089460 0.000000 
#    z 0.000000 0.000000 2.146430 
# 
# From -- ./inp_files/43801.got.cif
#   From: 2010.05.17/outbox.cif.g08.bks.cpg/sg74_22_cif.got.tgz:43801.got - 2010.06.03 17:57:02.
