data_PCOD9538941
_publ_section_title
;
Structure prediction by ZEFSAII (Michael W. Deem and Ramdas Pophale) SiO2 
 PCOD9538941
Probable space group: I M M A
;
_chemical_formula_sum "Si O2"
_cell_formula_units_Z 112
_cell_length_a 17.735561
_cell_length_b 29.432686
_cell_length_c 12.602516
_cell_angle_alpha 90.000000
_cell_angle_beta 90.000000
_cell_angle_gamma 90.000000
_cell_volume 6578.578859
_symmetry_space_group_name_H-M "I M M A"
_symmetry_group_IT_number 74
_symmetry_cell_setting 'orthorhombic'
loop_
_space_group_symop_operation_xyz
x,y,z
-x,1/2-y,z
x,-y,-z
-x,1/2+y,-z
-x,-y,-z
x,1/2+y,-z
-x,y,z
x,1/2-y,z
1/2+x,1/2+y,1/2+z
1/2-x,-y,1/2+z
1/2+x,1/2-y,1/2-z
1/2-x,y,1/2-z
1/2-x,1/2-y,1/2-z
1/2+x,y,1/2-z
1/2-x,1/2+y,1/2+z
1/2+x,-y,1/2+z
loop_
_atom_site_type_symbol
_atom_site_label
_atom_site_fract_x
_atom_site_fract_y
_atom_site_fract_z
Si Si1 0.090945 0.451782 0.626650
Si Si2 0.827996 0.803557 0.103862
Si Si3 0.908795 0.052973 0.376540
Si Si4 0.089171 0.802774 0.887125
Si Si5 0.411225 0.144014 0.789653
Si Si6 0.341215 0.696194 0.023561
Si Si7 0.833484 0.643842 0.700609
O O1 0.109165 0.445412 0.502366
O O2 0.114150 0.502352 0.661144
O O3 0.115672 0.407774 0.691477
O O4 0.000000 0.451850 0.631154
O O5 0.843221 0.750000 0.123214
O O6 0.862109 0.831773 0.199986
O O7 0.739199 0.808607 0.083327
O O8 0.868850 0.817055 0.994426
O O9 0.865756 0.093799 0.321043
O O10 0.000000 0.057851 0.365486
O O11 0.109963 0.750000 0.868251
O O12 0.114572 0.831484 0.786912
O O13 0.000000 0.805540 0.903109
O O14 0.500000 0.144365 0.761363
O O15 0.400286 0.170910 0.900396
O O16 0.356819 0.750000 0.011908
O O17 0.335532 0.672091 0.909385
O O18 0.750000 0.642777 0.750000
#
# Coordination Sequence:
#
# PCOD9538941 Si02
#       7
#    16  16  16  16  16  16  16
#     4   8  16  32  57  83 106 135 171 218 279 335
#     4  10  21  38  55  75 111 155 189 217 262 330
#     4   9  17  34  58  81 107 138 175 222 274 330
#     4  10  21  36  55  79 107 147 194 229 261 314
#     4  11  21  35  58  86 110 138 181 232 277 322
#     4  11  23  37  54  78 112 150 183 224 279 328
#     4  12  22  35  56  80 112 145 184 228 277 321
#
# _framework density 17.024953
#
# number of rings (size 3 to 8) (size 9 to 14) (size 15 to 20)
#    0.000    1.857    2.857    3.000    0.000    4.000 
#    0.000    1.429    0.000    0.857    0.000    4.000 
#    0.000    0.000    0.000    0.000    0.000    0.000 
#
# Total GULP energy -312488.049708 kJ/mol
# GULP energy per Si atom -5580.143745 kJ/mol
# Density = 1.698620 g / cm^3
# Si number density = 17.024953 Si / 1000 Ang^3
#
#
#
# Elastic Constant Matrix: (Units=GPa)
#
#
# Indices 1 2 3 4 5 6 
#
# 1 20.2160 13.8570 7.9742 0.0004 0.0004 0.0000
# 2 13.8570 109.2624 47.8499 0.0006 0.0011 0.0000
# 3 7.9742 47.8499 71.0071 0.0022 0.0036 0.0000
# 4 0.0004 0.0006 0.0022 -27.4343 -0.0089 -0.0001
# 5 0.0004 0.0011 0.0036 -0.0089 -131.2040 -0.0005
# 6 0.0000 0.0000 0.0000 -0.0001 -0.0005 14.6921
#
#
#
# Elastic Compliance Matrix: (Units=1/GPa)
#
#
# Indices 1 2 3 4 5 6 
#
# 1 0.054389 -0.005991 -0.002071 0.000000 0.000000 0.000000
# 2 -0.005991 0.013644 -0.008522 0.000000 0.000000 0.000000
# 3 -0.002071 -0.008522 0.020058 0.000001 0.000000 0.000000
# 4 0.000000 0.000000 0.000001 -0.036451 0.000002 0.000000
# 5 0.000000 0.000000 0.000000 0.000002 -0.007622 0.000000
# 6 0.000000 0.000000 0.000000 0.000000 0.000000 0.068064
#
#
# Mechanical properties :
#
#
# Convention : Reuss Voigt Hill
#
# Bulk Modulus (GPa) = 18.20682 37.76087 27.98385
# Shear Modulus (GPa) = 30.57043 -20.06893 5.25075
#
# Velocity S-wave (km/s) = 4.24208 -3.43708 1.75808
# Velocity P-wave (km/s) = 5.89161 2.54489 4.53804
#
# Compressibility (1/GPa) = 0.05492447
#
# Stress axis : x y z
#
# Youngs Moduli (GPa) = 18.38610 73.29262 49.85514
#
# Poissons Ratio (x) = 0.43908 0.10324
# Poissons Ratio (y) = 0.11015 0.42484
# Poissons Ratio (z) = 0.03808 0.62457
#
# Static dielectric constant tensor:
#      x y z
#    x 1.568710 0.000000 0.000000 
#    y 0.000000 1.584490 0.000000 
#    z 0.000000 0.000000 1.555370 
# 
# From -- ./inp_files/21117.got.cif
#   From: 2010.05.17/outbox.cif.g08.bks.cpg/sg74_11_cif.got.tgz:21117.got - 2010.06.03 17:57:02.
