data_PCOD9538190
_publ_section_title
;
Structure prediction by ZEFSAII (Michael W. Deem and Ramdas Pophale) SiO2 
 PCOD9538190
Probable space group: I M M A
;
_chemical_formula_sum "Si O2"
_cell_formula_units_Z 88
_cell_length_a 18.669839
_cell_length_b 7.826678
_cell_length_c 29.809051
_cell_angle_alpha 90.000000
_cell_angle_beta 90.000000
_cell_angle_gamma 90.000000
_cell_volume 4355.782539
_symmetry_space_group_name_H-M "I M M A"
_symmetry_group_IT_number 74
_symmetry_cell_setting 'orthorhombic'
loop_
_space_group_symop_operation_xyz
x,y,z
-x,1/2-y,z
x,-y,-z
-x,1/2+y,-z
-x,-y,-z
x,1/2+y,-z
-x,y,z
x,1/2-y,z
1/2+x,1/2+y,1/2+z
1/2-x,-y,1/2+z
1/2+x,1/2-y,1/2-z
1/2-x,y,1/2-z
1/2-x,1/2-y,1/2-z
1/2+x,y,1/2-z
1/2-x,1/2+y,1/2+z
1/2+x,-y,1/2+z
loop_
_atom_site_type_symbol
_atom_site_label
_atom_site_fract_x
_atom_site_fract_y
_atom_site_fract_z
Si Si1 0.000000 0.543711 0.051927
Si Si2 0.158438 0.458419 0.294897
Si Si3 0.580068 0.544922 0.883706
Si Si4 0.789742 0.453475 0.552316
Si Si5 0.324928 0.456190 0.303574
Si Si6 0.143873 0.953026 0.097647
O O1 0.072731 0.476613 0.074407
O O2 0.000000 0.750000 0.057024
O O3 0.000000 0.500000 0.000000
O O4 0.156468 0.250000 0.295099
O O5 0.109240 0.519672 0.335555
O O6 0.241047 0.507545 0.303830
O O7 0.141755 0.512953 0.243938
O O8 0.500000 0.480385 0.893542
O O9 0.575951 0.750000 0.880038
O O10 0.639102 0.509050 0.921433
O O11 0.790266 0.500000 0.500000
O O12 0.787636 0.250000 0.555562
O O13 0.718146 0.523540 0.576944
O O14 0.326445 0.250000 0.304053
O O15 0.359116 0.519568 0.349218
O O16 0.145205 0.750000 0.089213
#
# Coordination Sequence:
#
# PCOD9538190 Si02
#       6
#     8  16  16  16  16  16
#     4  10  22  40  58  78 110 144 180 226 275 328
#     4   8  15  30  52  81 110 140 179 221 264 310
#     4  10  20  36  58  81 110 148 185 224 270 317
#     4  11  23  38  58  82 107 138 180 227 274 327
#     4   9  16  30  56  82 108 142 180 221 263 315
#     4  10  21  37  56  81 111 142 177 222 274 326
#
# _framework density 20.203028
#
# number of rings (size 3 to 8) (size 9 to 14) (size 15 to 20)
#    0.000    2.364    1.818    2.182    0.000    2.182 
#    1.636    2.727    0.000    0.000    0.000    0.000 
#    0.000    0.000    0.000    0.000    0.000    0.000 
#
# Total GULP energy -245541.854855 kJ/mol
# GULP energy per Si atom -5580.496701 kJ/mol
# Density = 2.015705 g / cm^3
# Si number density = 20.203028 Si / 1000 Ang^3
#
#
#
# Elastic Constant Matrix: (Units=GPa)
#
#
# Indices 1 2 3 4 5 6 
#
# 1 128.6628 13.8847 84.5789 0.0000 0.0000 0.0000
# 2 13.8847 22.7723 -5.9283 0.0000 0.0000 0.0000
# 3 84.5789 -5.9283 166.5310 0.0000 0.0000 0.0000
# 4 0.0000 0.0000 0.0000 23.9486 0.0000 0.0000
# 5 0.0000 0.0000 0.0000 0.0000 25.3426 0.0000
# 6 0.0000 0.0000 0.0000 0.0000 0.0000 10.2740
#
#
#
# Elastic Compliance Matrix: (Units=1/GPa)
#
#
# Indices 1 2 3 4 5 6 
#
# 1 0.013689 -0.010251 -0.007317 0.000000 0.000000 0.000000
# 2 -0.010251 0.052001 0.007058 0.000000 0.000000 0.000000
# 3 -0.007317 0.007058 0.009972 0.000000 0.000000 0.000000
# 4 0.000000 0.000000 0.000000 0.041756 0.000000 0.000000
# 5 0.000000 0.000000 0.000000 0.000000 0.039459 0.000000
# 6 0.000000 0.000000 0.000000 0.000000 0.000000 0.097333
#
#
# Mechanical properties :
#
#
# Convention : Reuss Voigt Hill
#
# Bulk Modulus (GPa) = 18.30152 55.89295 37.09724
# Shear Modulus (GPa) = 17.03899 26.94176 21.99038
#
# Velocity S-wave (km/s) = 2.90727 3.65574 3.30278
# Velocity P-wave (km/s) = 4.51088 6.74870 5.73991
#
# Compressibility (1/GPa) = 0.05464026
#
# Stress axis : x y z
#
# Youngs Moduli (GPa) = 73.05351 19.23053 100.27642
#
# Poissons Ratio (x) = 0.19713 0.73374
# Poissons Ratio (y) = 0.74888 -0.70771
# Poissons Ratio (z) = 0.53455 -0.13572
#
# Static dielectric constant tensor:
#      x y z
#    x 1.720800 0.000000 0.000000 
#    y 0.000000 1.747680 0.000000 
#    z 0.000000 0.000000 1.628420 
# 
# From -- ./inp_files/72985.got.cif
#   From: 2010.05.17/outbox.cif.g08.bks.cpg/sg74_37_cif.got.tgz:72985.got - 2010.06.03 17:57:02.
