data_PCOD9538230
_publ_section_title
;
Structure prediction by ZEFSAII (Michael W. Deem and Ramdas Pophale) SiO2 
 PCOD9538230
Probable space group: I M M A
;
_chemical_formula_sum "Si O2"
_cell_formula_units_Z 96
_cell_length_a 15.674102
_cell_length_b 21.292831
_cell_length_c 14.895031
_cell_angle_alpha 90.000000
_cell_angle_beta 90.000000
_cell_angle_gamma 90.000000
_cell_volume 4971.157090
_symmetry_space_group_name_H-M "I M M A"
_symmetry_group_IT_number 74
_symmetry_cell_setting 'orthorhombic'
loop_
_space_group_symop_operation_xyz
x,y,z
-x,1/2-y,z
x,-y,-z
-x,1/2+y,-z
-x,-y,-z
x,1/2+y,-z
-x,y,z
x,1/2-y,z
1/2+x,1/2+y,1/2+z
1/2-x,-y,1/2+z
1/2+x,1/2-y,1/2-z
1/2-x,y,1/2-z
1/2-x,1/2-y,1/2-z
1/2+x,y,1/2-z
1/2-x,1/2+y,1/2+z
1/2+x,-y,1/2+z
loop_
_atom_site_type_symbol
_atom_site_label
_atom_site_fract_x
_atom_site_fract_y
_atom_site_fract_z
Si Si1 0.399406 0.924713 0.839834
Si Si2 0.722906 0.925711 0.002884
Si Si3 0.098262 0.362624 0.007934
Si Si4 0.898367 0.317176 0.205717
Si Si5 0.100122 0.181917 0.806837
Si Si6 0.333275 0.937813 0.198221
O O1 0.500000 0.915063 0.859537
O O2 0.370885 0.879878 0.757549
O O3 0.388143 0.998983 0.817440
O O4 0.339856 0.904584 0.923360
O O5 0.821981 0.909460 0.991211
O O6 0.690569 0.907968 0.101920
O O7 0.715718 0.000000 0.000000
O O8 0.106923 0.325692 0.914486
O O9 0.000000 0.387926 0.010313
O O10 0.110637 0.323604 0.098869
O O11 0.861695 0.250000 0.236414
O O12 0.000000 0.314986 0.221868
O O13 0.137874 0.250000 0.780365
O O14 0.133386 0.119200 0.759229
O O15 0.000000 0.183793 0.785766
O O16 0.250000 0.962101 0.250000
#
# Coordination Sequence:
#
# PCOD9538230 Si02
#       6
#    16  16  16  16  16  16
#     4  10  23  41  64  88 119 163 205 249 300 357
#     4  10  23  39  59  86 122 159 199 253 299 356
#     4  10  20  36  58  87 122 160 196 241 305 364
#     4   9  19  37  61  89 120 155 197 247 299 354
#     4  10  21  38  61  88 120 159 203 251 307 368
#     4  11  22  39  60  88 121 157 202 255 300 357
#
# _framework density 19.311399000000002
#
# number of rings (size 3 to 8) (size 9 to 14) (size 15 to 20)
#    0.000    2.000    1.667    1.000    4.667    6.333 
#    0.000    3.333    0.000    2.000    0.000    0.000 
#    0.000    0.000    0.000    0.000    0.000    0.000 
#
# Total GULP energy -267308.981940 kJ/mol
# GULP energy per Si atom -5568.937124 kJ/mol
# Density = 1.926745 g / cm^3
# Si number density = 19.311399 Si / 1000 Ang^3
#
#
#
# Elastic Constant Matrix: (Units=GPa)
#
#
# Indices 1 2 3 4 5 6 
#
# 1 72.3830 23.7750 43.6819 -0.0004 0.0000 0.0000
# 2 23.7750 76.7624 56.1366 -0.0001 0.0000 0.0000
# 3 43.6819 56.1366 114.1904 0.0030 0.0000 0.0000
# 4 -0.0004 -0.0001 0.0030 2710.5129 0.0000 0.0018
# 5 0.0000 0.0000 0.0000 0.0000 27.9527 0.0000
# 6 0.0000 0.0000 0.0000 0.0018 0.0000 -37.0057
#
#
#
# Elastic Compliance Matrix: (Units=1/GPa)
#
#
# Indices 1 2 3 4 5 6 
#
# 1 0.017997 -0.000842 -0.006470 0.000000 0.000000 0.000000
# 2 -0.000842 0.020379 -0.009696 0.000000 0.000000 0.000000
# 3 -0.006470 -0.009696 0.015999 0.000000 0.000000 0.000000
# 4 0.000000 0.000000 0.000000 0.000369 0.000000 0.000000
# 5 0.000000 0.000000 0.000000 0.000000 0.035775 0.000000
# 6 0.000000 0.000000 0.000000 0.000000 0.000000 -0.027023
#
#
# Mechanical properties :
#
#
# Convention : Reuss Voigt Hill
#
# Bulk Modulus (GPa) = 49.12240 56.72474 52.92357
# Shear Modulus (GPa) = 47.93905 549.60813 298.77359
#
# Velocity S-wave (km/s) = 4.98780 16.88848 12.45189
# Velocity P-wave (km/s) = 7.65918 20.24183 15.30351
#
# Compressibility (1/GPa) = 0.02035731
#
# Stress axis : x y z
#
# Youngs Moduli (GPa) = 55.56542 49.07028 62.50316
#
# Poissons Ratio (x) = 0.04132 0.40442
# Poissons Ratio (y) = 0.04679 0.60604
# Poissons Ratio (z) = 0.35953 0.47580
#
# Static dielectric constant tensor:
#      x y z
#    x 1.695160 0.000000 0.000000 
#    y 0.000000 1.694370 0.000000 
#    z 0.000000 0.000000 1.717570 
# 
# From -- ./inp_files/32387.got.cif
#   From: 2010.05.17/outbox.cif.g08.bks.cpg/sg74_17_cif.got.tgz:32387.got - 2010.06.03 17:57:02.
