data_PCOD9538652
_publ_section_title
;
Structure prediction by ZEFSAII (Michael W. Deem and Ramdas Pophale) SiO2 
 PCOD9538652
Probable space group: I M M A
;
_chemical_formula_sum "Si O2"
_cell_formula_units_Z 88
_cell_length_a 9.861427
_cell_length_b 21.345234
_cell_length_c 22.673234
_cell_angle_alpha 90.000000
_cell_angle_beta 90.000000
_cell_angle_gamma 90.000000
_cell_volume 4772.590303
_symmetry_space_group_name_H-M "I M M A"
_symmetry_group_IT_number 74
_symmetry_cell_setting 'orthorhombic'
loop_
_space_group_symop_operation_xyz
x,y,z
-x,1/2-y,z
x,-y,-z
-x,1/2+y,-z
-x,-y,-z
x,1/2+y,-z
-x,y,z
x,1/2-y,z
1/2+x,1/2+y,1/2+z
1/2-x,-y,1/2+z
1/2+x,1/2-y,1/2-z
1/2-x,y,1/2-z
1/2-x,1/2-y,1/2-z
1/2+x,y,1/2-z
1/2-x,1/2+y,1/2+z
1/2+x,-y,1/2+z
loop_
_atom_site_type_symbol
_atom_site_label
_atom_site_fract_x
_atom_site_fract_y
_atom_site_fract_z
Si Si1 0.335262 0.507396 0.192155
Si Si2 0.840239 0.385142 0.863018
Si Si3 0.742575 0.387701 0.119061
Si Si4 0.000000 0.676840 0.682158
Si Si5 0.500000 0.173107 0.318211
Si Si6 0.342687 0.750000 0.307637
Si Si7 0.161075 0.926346 0.002758
O O1 0.500000 0.509764 0.199665
O O2 0.250000 0.487493 0.250000
O O3 0.266611 0.572884 0.172958
O O4 0.294651 0.457028 0.142361
O O5 0.821590 0.312906 0.845550
O O6 0.000000 0.402052 0.850085
O O7 0.818095 0.399017 0.932132
O O8 0.625785 0.344993 0.144586
O O9 0.761188 0.390841 0.049124
O O10 0.873972 0.358521 0.149541
O O11 0.000000 0.652555 0.749418
O O12 0.000000 0.750000 0.689146
O O13 0.500000 0.250000 0.322216
O O14 0.500000 0.750000 0.288754
O O15 0.250000 0.750000 0.250000
O O16 0.000000 0.922282 0.989518
O O17 0.196954 0.000000 0.000000
#
# Coordination Sequence:
#
# PCOD9538652 Si02
#       7
#    16  16  16   8   8   8  16
#     4  12  25  39  62  96 127 161 212 269 323 385
#     4  10  22  42  66  94 126 170 212 262 326 381
#     4  12  23  40  63  94 123 167 216 261 318 381
#     4  11  24  44  61  86 134 169 204 261 331 379
#     4  11  24  42  65  94 124 167 216 263 317 385
#     4  10  22  42  68  96 130 168 209 263 322 384
#     4  10  20  39  64  92 128 165 208 261 316 379
#
# _framework density 18.438623
#
# number of rings (size 3 to 8) (size 9 to 14) (size 15 to 20)
#    0.000    1.091    3.636    3.273    2.545    3.636 
#    4.909    1.364    0.000    0.000    0.000    0.000 
#    0.000    0.000    0.000    0.000    0.000    0.000 
#
# Total GULP energy -245624.017789 kJ/mol
# GULP energy per Si atom -5582.364041 kJ/mol
# Density = 1.839666 g / cm^3
# Si number density = 18.438623 Si / 1000 Ang^3
#
#
#
# Elastic Constant Matrix: (Units=GPa)
#
#
# Indices 1 2 3 4 5 6 
#
# 1 129.5296 39.7902 39.1177 0.0000 0.0000 0.0000
# 2 39.7902 84.4047 27.0734 0.0000 0.0000 0.0000
# 3 39.1177 27.0734 100.0949 0.0000 0.0000 0.0000
# 4 0.0000 0.0000 0.0000 26.4061 0.0000 0.0000
# 5 0.0000 0.0000 0.0000 0.0000 11.7601 0.0000
# 6 0.0000 0.0000 0.0000 0.0000 0.0000 37.5686
#
#
#
# Elastic Compliance Matrix: (Units=1/GPa)
#
#
# Indices 1 2 3 4 5 6 
#
# 1 0.009692 -0.003673 -0.002794 0.000000 0.000000 0.000000
# 2 -0.003673 0.014365 -0.002450 0.000000 0.000000 0.000000
# 3 -0.002794 -0.002450 0.011745 0.000000 0.000000 0.000000
# 4 0.000000 0.000000 0.000000 0.037870 0.000000 0.000000
# 5 0.000000 0.000000 0.000000 0.000000 0.085033 0.000000
# 6 0.000000 0.000000 0.000000 0.000000 0.000000 0.026618
#
#
# Mechanical properties :
#
#
# Convention : Reuss Voigt Hill
#
# Bulk Modulus (GPa) = 55.65436 58.44353 57.04895
# Shear Modulus (GPa) = 23.90652 29.01681 26.46166
#
# Velocity S-wave (km/s) = 3.60466 3.97129 3.79241
# Velocity P-wave (km/s) = 6.89738 7.26590 7.08404
#
# Compressibility (1/GPa) = 0.01796804
#
# Stress axis : x y z
#
# Youngs Moduli (GPa) = 103.17331 69.61349 85.14061
#
# Poissons Ratio (x) = 0.25568 0.23792
# Poissons Ratio (y) = 0.37894 0.20860
# Poissons Ratio (z) = 0.28831 0.17056
#
# Static dielectric constant tensor:
#      x y z
#    x 1.598960 0.000000 0.000000 
#    y 0.000000 1.681280 0.000000 
#    z 0.000000 0.000000 1.619040 
# 
# From -- ./inp_files/48832.got.cif
#   From: 2010.05.17/outbox.cif.g08.bks.cpg/sg74_25_cif.got.tgz:48832.got - 2010.06.03 17:57:02.
