data_PCOD9538533
_publ_section_title
;
Structure prediction by ZEFSAII (Michael W. Deem and Ramdas Pophale) SiO2 
 PCOD9538533
Probable space group: I M M A
;
_chemical_formula_sum "Si O2"
_cell_formula_units_Z 88
_cell_length_a 9.171679
_cell_length_b 25.118425
_cell_length_c 18.736522
_cell_angle_alpha 90.000000
_cell_angle_beta 90.000000
_cell_angle_gamma 90.000000
_cell_volume 4316.484921
_symmetry_space_group_name_H-M "I M M A"
_symmetry_group_IT_number 74
_symmetry_cell_setting 'orthorhombic'
loop_
_space_group_symop_operation_xyz
x,y,z
-x,1/2-y,z
x,-y,-z
-x,1/2+y,-z
-x,-y,-z
x,1/2+y,-z
-x,y,z
x,1/2-y,z
1/2+x,1/2+y,1/2+z
1/2-x,-y,1/2+z
1/2+x,1/2-y,1/2-z
1/2-x,y,1/2-z
1/2-x,1/2-y,1/2-z
1/2+x,y,1/2-z
1/2-x,1/2+y,1/2+z
1/2+x,-y,1/2+z
loop_
_atom_site_type_symbol
_atom_site_label
_atom_site_fract_x
_atom_site_fract_y
_atom_site_fract_z
Si Si1 0.746495 0.690741 0.398990
Si Si2 0.000000 0.189042 0.779879
Si Si3 0.343522 0.838768 0.552852
Si Si4 0.667985 0.964147 0.570839
Si Si5 0.500000 0.117041 0.859032
Si Si6 0.500000 0.502784 0.912571
Si Si7 0.157384 0.313206 0.314881
O O1 0.812009 0.750000 0.394639
O O2 0.638202 0.684945 0.332250
O O3 0.668484 0.685581 0.474728
O O4 0.860972 0.643650 0.395767
O O5 0.000000 0.250000 0.750318
O O6 0.000000 0.143159 0.720467
O O7 0.500000 0.823712 0.584814
O O8 0.333740 0.902353 0.549247
O O9 0.223412 0.819778 0.607460
O O10 0.500000 0.973431 0.604244
O O11 0.667411 0.000000 0.500000
O O12 0.833522 0.973755 0.604443
O O13 0.500000 0.054586 0.873356
O O14 0.500000 0.500000 0.000000
O O15 0.146174 0.250000 0.302565
O O16 0.250000 0.336270 0.250000
O O17 0.000000 0.338580 0.312921
#
# Coordination Sequence:
#
# PCOD9538533 Si02
#       7
#    16   8  16  16   8   8  16
#     4  11  22  37  60  92 132 173 215 269 319 383
#     4  10  22  42  62  88 131 180 219 266 328 392
#     4  11  22  37  63  96 124 166 217 264 321 391
#     4   9  19  36  60  90 122 159 205 267 332 386
#     4  12  24  38  60  90 119 171 225 267 332 397
#     4  10  20  38  60  88 119 153 207 275 337 385
#     4  10  22  39  61  92 131 172 206 251 314 386
#
# _framework density 20.386959000000001
#
# number of rings (size 3 to 8) (size 9 to 14) (size 15 to 20)
#    0.000    1.636    0.909    4.636    2.545    3.273 
#    1.636    0.000    0.000    4.364    0.000    0.000 
#    0.000    0.000    0.000    0.000    0.000    0.000 
#
# Total GULP energy -245016.586509 kJ/mol
# GULP energy per Si atom -5568.558784 kJ/mol
# Density = 2.034056 g / cm^3
# Si number density = 20.386959 Si / 1000 Ang^3
#
#
#
# Elastic Constant Matrix: (Units=GPa)
#
#
# Indices 1 2 3 4 5 6 
#
# 1 156.0869 28.5204 35.7463 0.0000 0.0000 0.0000
# 2 28.5204 70.1196 13.4093 0.0000 0.0000 0.0000
# 3 35.7463 13.4093 82.6184 0.0001 0.0000 0.0000
# 4 0.0000 0.0000 0.0001 143.0181 0.0000 0.0000
# 5 0.0000 0.0000 0.0000 0.0000 43.6555 0.0000
# 6 0.0000 0.0000 0.0000 0.0000 0.0000 35.4446
#
#
#
# Elastic Compliance Matrix: (Units=1/GPa)
#
#
# Indices 1 2 3 4 5 6 
#
# 1 0.007517 -0.002514 -0.002845 0.000000 0.000000 0.000000
# 2 -0.002514 0.015559 -0.001438 0.000000 0.000000 0.000000
# 3 -0.002845 -0.001438 0.013568 0.000000 0.000000 0.000000
# 4 0.000000 0.000000 0.000000 0.006992 0.000000 0.000000
# 5 0.000000 0.000000 0.000000 0.000000 0.022907 0.000000
# 6 0.000000 0.000000 0.000000 0.000000 0.000000 0.028213
#
#
# Mechanical properties :
#
#
# Convention : Reuss Voigt Hill
#
# Bulk Modulus (GPa) = 43.37969 51.57522 47.47746
# Shear Modulus (GPa) = 43.09166 59.83357 51.46261
#
# Velocity S-wave (km/s) = 4.60247 5.42334 5.02968
# Velocity P-wave (km/s) = 7.04046 8.03554 7.55440
#
# Compressibility (1/GPa) = 0.02305226
#
# Stress axis : x y z
#
# Youngs Moduli (GPa) = 133.02404 64.27283 73.70314
#
# Poissons Ratio (x) = 0.16156 0.20965
# Poissons Ratio (y) = 0.33438 0.10596
# Poissons Ratio (z) = 0.37840 0.09240
#
# Static dielectric constant tensor:
#      x y z
#    x 1.845820 0.000000 0.000000 
#    y 0.000000 1.765410 0.000000 
#    z 0.000000 0.000000 1.666830 
# 
# From -- ./inp_files/48852.got.cif
#   From: 2010.05.17/outbox.cif.g08.bks.cpg/sg74_25_cif.got.tgz:48852.got - 2010.06.03 17:57:02.
