data_PCOD9538073
_publ_section_title
;
Structure prediction by ZEFSAII (Michael W. Deem and Ramdas Pophale) SiO2 
 PCOD9538073
Probable space group: I M M A
;
_chemical_formula_sum "Si O2"
_cell_formula_units_Z 96
_cell_length_a 24.149449
_cell_length_b 13.162458
_cell_length_c 14.504315
_cell_angle_alpha 90.000000
_cell_angle_beta 90.000000
_cell_angle_gamma 90.000000
_cell_volume 4610.430161
_symmetry_space_group_name_H-M "I M M A"
_symmetry_group_IT_number 74
_symmetry_cell_setting 'orthorhombic'
loop_
_space_group_symop_operation_xyz
x,y,z
-x,1/2-y,z
x,-y,-z
-x,1/2+y,-z
-x,-y,-z
x,1/2+y,-z
-x,y,z
x,1/2-y,z
1/2+x,1/2+y,1/2+z
1/2-x,-y,1/2+z
1/2+x,1/2-y,1/2-z
1/2-x,y,1/2-z
1/2-x,1/2-y,1/2-z
1/2+x,y,1/2-z
1/2-x,1/2+y,1/2+z
1/2+x,-y,1/2+z
loop_
_atom_site_type_symbol
_atom_site_label
_atom_site_fract_x
_atom_site_fract_y
_atom_site_fract_z
Si Si1 0.788773 0.575897 0.623811
Si Si2 0.614012 0.369645 0.639663
Si Si3 0.830449 0.432890 0.172755
Si Si4 0.062510 0.371599 0.059292
Si Si5 0.171946 0.133549 0.570069
Si Si6 0.940379 0.628481 0.334697
O O1 0.818513 0.594284 0.721175
O O2 0.724461 0.608277 0.622502
O O3 0.788922 0.453851 0.609971
O O4 0.820762 0.625952 0.539391
O O5 0.628504 0.250000 0.637343
O O6 0.664623 0.445411 0.658281
O O7 0.584034 0.397591 0.543910
O O8 0.574177 0.387036 0.727399
O O9 0.888792 0.396976 0.131414
O O10 0.058506 0.250000 0.058962
O O11 0.000000 0.410614 0.077704
O O12 0.181066 0.250000 0.600765
O O13 0.111327 0.097673 0.603365
O O14 0.943566 0.750000 0.346804
O O15 0.000000 0.583027 0.357574
#
# Coordination Sequence:
#
# PCOD9538073 Si02
#       6
#    16  16  16  16  16  16
#     4  10  24  41  59  89 122 156 207 251 296 362
#     4  10  20  35  59  93 124 158 198 241 302 362
#     4  11  23  41  61  86 124 163 199 250 303 355
#     4  10  23  41  61  89 123 160 205 249 294 358
#     4  10  21  40  63  87 119 157 198 254 304 348
#     4   9  17  33  59  89 120 152 190 241 303 361
#
# _framework density 20.822353
#
# number of rings (size 3 to 8) (size 9 to 14) (size 15 to 20)
#    0.000    2.000    1.667    1.000    4.667    6.000 
#    0.000    5.833    0.000    2.000    0.000    0.000 
#    0.000    0.000    0.000    0.000    0.000    0.000 
#
# Total GULP energy -267753.705679 kJ/mol
# GULP energy per Si atom -5578.202202 kJ/mol
# Density = 2.077496 g / cm^3
# Si number density = 20.822353 Si / 1000 Ang^3
#
#
#
# Elastic Constant Matrix: (Units=GPa)
#
#
# Indices 1 2 3 4 5 6 
#
# 1 130.7988 -0.8208 53.4902 0.0000 0.0000 0.0000
# 2 -0.8208 32.4274 -8.2426 0.0000 0.0000 0.0000
# 3 53.4902 -8.2426 90.2759 0.0000 0.0000 0.0000
# 4 0.0000 0.0000 0.0000 21.7262 0.0000 0.0000
# 5 0.0000 0.0000 0.0000 0.0000 14.0151 0.0000
# 6 0.0000 0.0000 0.0000 0.0000 0.0000 35.7326
#
#
#
# Elastic Compliance Matrix: (Units=1/GPa)
#
#
# Indices 1 2 3 4 5 6 
#
# 1 0.010144 -0.001301 -0.006129 0.000000 0.000000 0.000000
# 2 -0.001301 0.031738 0.003669 0.000000 0.000000 0.000000
# 3 -0.006129 0.003669 0.015044 0.000000 0.000000 0.000000
# 4 0.000000 0.000000 0.000000 0.046027 0.000000 0.000000
# 5 0.000000 0.000000 0.000000 0.000000 0.071352 0.000000
# 6 0.000000 0.000000 0.000000 0.000000 0.000000 0.027986
#
#
# Mechanical properties :
#
#
# Convention : Reuss Voigt Hill
#
# Bulk Modulus (GPa) = 20.24203 38.03951 29.14077
# Shear Modulus (GPa) = 22.09650 28.23314 25.16482
#
# Velocity S-wave (km/s) = 3.26113 3.68626 3.48019
# Velocity P-wave (km/s) = 4.89105 6.03542 5.49311
#
# Compressibility (1/GPa) = 0.04940215
#
# Stress axis : x y z
#
# Youngs Moduli (GPa) = 98.58372 31.50819 66.47280
#
# Poissons Ratio (x) = 0.04100 0.40742
# Poissons Ratio (y) = 0.12828 -0.24387
# Poissons Ratio (z) = 0.60423 -0.11560
#
# Static dielectric constant tensor:
#      x y z
#    x 1.789550 0.000000 0.000000 
#    y 0.000000 1.800500 0.000000 
#    z 0.000000 0.000000 1.737340 
# 
# From -- ./inp_files/35251.got.cif
#   From: 2010.05.17/outbox.cif.g08.bks.cpg/sg74_18_cif.got.tgz:35251.got - 2010.06.03 17:57:02.
