data_PCOD9538752
_publ_section_title
;
Structure prediction by ZEFSAII (Michael W. Deem and Ramdas Pophale) SiO2 
 PCOD9538752
Probable space group: I M M A
;
_chemical_formula_sum "Si O2"
_cell_formula_units_Z 112
_cell_length_a 15.004454
_cell_length_b 27.815697
_cell_length_c 15.159909
_cell_angle_alpha 90.000000
_cell_angle_beta 90.000000
_cell_angle_gamma 90.000000
_cell_volume 6327.129707
_symmetry_space_group_name_H-M "I M M A"
_symmetry_group_IT_number 74
_symmetry_cell_setting 'orthorhombic'
loop_
_space_group_symop_operation_xyz
x,y,z
-x,1/2-y,z
x,-y,-z
-x,1/2+y,-z
-x,-y,-z
x,1/2+y,-z
-x,y,z
x,1/2-y,z
1/2+x,1/2+y,1/2+z
1/2-x,-y,1/2+z
1/2+x,1/2-y,1/2-z
1/2-x,y,1/2-z
1/2-x,1/2-y,1/2-z
1/2+x,y,1/2-z
1/2-x,1/2+y,1/2+z
1/2+x,-y,1/2+z
loop_
_atom_site_type_symbol
_atom_site_label
_atom_site_fract_x
_atom_site_fract_y
_atom_site_fract_z
Si Si1 0.601105 0.306034 0.941883
Si Si2 0.101428 0.693612 0.048501
Si Si3 0.801571 0.557517 0.158077
Si Si4 0.000000 0.558568 0.898929
Si Si5 0.500000 0.442717 0.605542
Si Si6 0.252362 0.623338 0.997210
Si Si7 0.353125 0.807891 0.253472
Si Si8 0.301048 0.443287 0.342297
O O1 0.500000 0.307275 0.972828
O O2 0.632179 0.250000 0.945096
O O3 0.663573 0.341873 0.994406
O O4 0.603844 0.322036 0.838889
O O5 0.127937 0.750000 0.042955
O O6 0.167941 0.659170 0.997842
O O7 0.106741 0.679261 0.152193
O O8 0.000000 0.689659 0.018729
O O9 0.750000 0.564847 0.250000
O O10 0.907562 0.569904 0.154558
O O11 0.756603 0.589598 0.083005
O O12 0.796054 0.500442 0.136976
O O13 0.000000 0.500539 0.900894
O O14 0.906399 0.571028 0.850858
O O15 0.000000 0.574556 0.002670
O O16 0.248912 0.588463 0.914543
O O17 0.356565 0.750000 0.252959
O O18 0.250000 0.822622 0.250000
O O19 0.250000 0.436428 0.250000
#
# Coordination Sequence:
#
# PCOD9538752 Si02
#       8
#    16  16  16   8   8  16  16  16
#     4  10  21  37  55  76 111 156 195 232 278 342
#     4  10  21  33  49  80 119 149 177 226 290 344
#     4  10  22  37  57  88 123 156 188 236 293 345
#     4   9  16  34  64  85 103 147 198 240 288 349
#     4   9  16  34  60  83 113 151 196 232 278 347
#     4  12  22  34  60  86 111 150 196 242 280 348
#     4   9  15  29  49  69 104 150 185 216 266 331
#     4  10  22  41  61  84 115 151 194 250 301 343
#
# _framework density 17.701549
#
# number of rings (size 3 to 8) (size 9 to 14) (size 15 to 20)
#    0.000    2.000    2.857    1.286    4.000    1.714 
#    2.571    0.000    0.000    2.571    0.000    2.000 
#    0.000    0.000    0.000    0.000    0.000    0.000 
#
# Total GULP energy -312391.634447 kJ/mol
# GULP energy per Si atom -5578.422044 kJ/mol
# Density = 1.766126 g / cm^3
# Si number density = 17.701549 Si / 1000 Ang^3
#
#
#
# Elastic Constant Matrix: (Units=GPa)
#
#
# Indices 1 2 3 4 5 6 
#
# 1 113.8356 37.0782 49.4728 0.0000 -0.0001 0.0000
# 2 37.0782 106.1170 52.9208 0.0001 0.0001 0.0000
# 3 49.4728 52.9208 72.2563 0.0001 0.0001 0.0000
# 4 0.0000 0.0001 0.0001 21.2588 0.0001 0.0000
# 5 -0.0001 0.0001 0.0001 0.0001 -27.5327 0.0000
# 6 0.0000 0.0000 0.0000 0.0000 0.0000 16.2599
#
#
#
# Elastic Compliance Matrix: (Units=1/GPa)
#
#
# Indices 1 2 3 4 5 6 
#
# 1 0.012508 -0.000157 -0.008449 0.000000 0.000000 0.000000
# 2 -0.000157 0.014848 -0.010767 0.000000 0.000000 0.000000
# 3 -0.008449 -0.010767 0.027511 0.000000 0.000000 0.000000
# 4 0.000000 0.000000 0.000000 0.047039 0.000000 0.000000
# 5 0.000000 0.000000 0.000000 0.000000 -0.036320 0.000000
# 6 0.000000 0.000000 0.000000 0.000000 0.000000 0.061501
#
#
# Mechanical properties :
#
#
# Convention : Reuss Voigt Hill
#
# Bulk Modulus (GPa) = 62.03492 63.46138 62.74815
# Shear Modulus (GPa) = 29.20462 12.17968 20.69215
#
# Velocity S-wave (km/s) = 4.06622 2.62593 3.42269
# Velocity P-wave (km/s) = 7.56086 6.71734 7.15154
#
# Compressibility (1/GPa) = 0.01611995
#
# Stress axis : x y z
#
# Youngs Moduli (GPa) = 79.95173 67.34867 36.34959
#
# Poissons Ratio (x) = 0.01056 0.30712
# Poissons Ratio (y) = 0.01253 0.39139
# Poissons Ratio (z) = 0.67551 0.72518
#
# Static dielectric constant tensor:
#      x y z
#    x 1.633050 0.000000 0.000000 
#    y 0.000000 1.629390 0.000000 
#    z 0.000000 0.000000 1.585280 
# 
# From -- ./inp_files/33001.got.cif
#   From: 2010.05.17/outbox.cif.g08.bks.cpg/sg74_17_cif.got.tgz:33001.got - 2010.06.03 17:57:02.
