data_PCOD9538776
_publ_section_title
;
Structure prediction by ZEFSAII (Michael W. Deem and Ramdas Pophale) SiO2 
 PCOD9538776
Probable space group: I M M A
;
_chemical_formula_sum "Si O2"
_cell_formula_units_Z 112
_cell_length_a 21.780428
_cell_length_b 14.620919
_cell_length_c 16.325531
_cell_angle_alpha 90.000000
_cell_angle_beta 90.000000
_cell_angle_gamma 90.000000
_cell_volume 5198.863283
_symmetry_space_group_name_H-M "I M M A"
_symmetry_group_IT_number 74
_symmetry_cell_setting 'orthorhombic'
loop_
_space_group_symop_operation_xyz
x,y,z
-x,1/2-y,z
x,-y,-z
-x,1/2+y,-z
-x,-y,-z
x,1/2+y,-z
-x,y,z
x,1/2-y,z
1/2+x,1/2+y,1/2+z
1/2-x,-y,1/2+z
1/2+x,1/2-y,1/2-z
1/2-x,y,1/2-z
1/2-x,1/2-y,1/2-z
1/2+x,y,1/2-z
1/2-x,1/2+y,1/2+z
1/2+x,-y,1/2+z
loop_
_atom_site_type_symbol
_atom_site_label
_atom_site_fract_x
_atom_site_fract_y
_atom_site_fract_z
Si Si1 0.428283 0.144845 0.021539
Si Si2 0.572930 0.351527 0.638466
Si Si3 0.342675 0.446699 0.150847
Si Si4 0.758004 0.896372 0.966183
Si Si5 0.398142 0.646445 0.547762
Si Si6 0.571108 0.960395 0.708180
Si Si7 0.830522 0.348910 0.612986
O O1 0.500000 0.124085 0.017827
O O2 0.420943 0.250000 0.053629
O O3 0.391508 0.073934 0.077979
O O4 0.396247 0.145975 0.932960
O O5 0.500000 0.344586 0.647750
O O6 0.599913 0.250000 0.651776
O O7 0.585055 0.380005 0.544809
O O8 0.590824 0.433716 0.697390
O O9 0.282332 0.396879 0.116562
O O10 0.379073 0.416450 0.231365
O O11 0.324728 0.553839 0.157132
O O12 0.824531 0.857165 0.949920
O O13 0.719026 0.849811 0.038655
O O14 0.765203 0.000000 0.000000
O O15 0.420184 0.750000 0.559538
O O16 0.425003 0.584418 0.618964
O O17 0.500000 0.954839 0.737367
O O18 0.825567 0.250000 0.655890
#
# Coordination Sequence:
#
# PCOD9538776 Si02
#       7
#    16  16  16  16  16  16  16
#     4   9  17  30  49  71  97 136 185 230 267 305
#     4   9  19  37  60  84 108 136 175 225 276 323
#     4  10  21  34  51  77 111 147 176 213 265 321
#     4   9  18  35  58  82 109 142 180 221 265 314
#     4  11  22  37  60  83 104 136 181 230 276 324
#     4  11  23  37  54  80 114 147 179 218 267 324
#     4   9  18  33  53  78 107 139 180 225 264 309
#
# _framework density 21.54317
#
# number of rings (size 3 to 8) (size 9 to 14) (size 15 to 20)
#    0.000    2.286    0.000    3.857    0.000    6.000 
#    0.000    0.714    0.000    0.000    0.000    8.000 
#    0.000    0.000    0.000    0.000    0.000    0.000 
#
# Total GULP energy -312424.723030 kJ/mol
# GULP energy per Si atom -5579.012911 kJ/mol
# Density = 2.149414 g / cm^3
# Si number density = 21.543170 Si / 1000 Ang^3
#
#
#
# Elastic Constant Matrix: (Units=GPa)
#
#
# Indices 1 2 3 4 5 6 
#
# 1 30.2882 9.9449 5.1847 0.0000 0.0000 0.0000
# 2 9.9449 44.6260 -4.9730 0.0000 0.0000 0.0000
# 3 5.1847 -4.9730 34.2627 0.0000 0.0000 0.0000
# 4 0.0000 0.0000 0.0000 -37.5848 0.0000 0.0000
# 5 0.0000 0.0000 0.0000 0.0000 20.3690 0.0000
# 6 0.0000 0.0000 0.0000 0.0000 0.0000 9.7081
#
#
#
# Elastic Compliance Matrix: (Units=1/GPa)
#
#
# Indices 1 2 3 4 5 6 
#
# 1 0.037179 -0.009059 -0.006941 0.000000 0.000000 0.000000
# 2 -0.009059 0.024984 0.004997 0.000000 0.000000 0.000000
# 3 -0.006941 0.004997 0.030962 0.000000 0.000000 0.000000
# 4 0.000000 0.000000 0.000000 -0.026606 0.000000 0.000000
# 5 0.000000 0.000000 0.000000 0.000000 0.049094 0.000000
# 6 0.000000 0.000000 0.000000 0.000000 0.000000 0.103006
#
#
# Mechanical properties :
#
#
# Convention : Reuss Voigt Hill
#
# Bulk Modulus (GPa) = 14.06080 14.38779 14.22429
# Shear Modulus (GPa) = 18.91576 5.09981 12.00778
#
# Velocity S-wave (km/s) = 2.96639 1.54026 2.36346
# Velocity P-wave (km/s) = 4.27476 3.13947 3.75032
#
# Compressibility (1/GPa) = 0.07111971
#
# Stress axis : x y z
#
# Youngs Moduli (GPa) = 26.89724 40.02555 32.29781
#
# Poissons Ratio (x) = 0.36258 0.22417
# Poissons Ratio (y) = 0.24365 -0.16139
# Poissons Ratio (z) = 0.18669 -0.20001
#
# Static dielectric constant tensor:
#      x y z
#    x 1.760320 0.000000 0.000000 
#    y 0.000000 1.784150 0.000000 
#    z 0.000000 0.000000 1.765750 
# 
# From -- ./inp_files/36469.got.cif
#   From: 2010.05.17/outbox.cif.g08.bks.cpg/sg74_19_cif.got.tgz:36469.got - 2010.06.03 17:57:02.
