data_PCOD9538372
_publ_section_title
;
Structure prediction by ZEFSAII (Michael W. Deem and Ramdas Pophale) SiO2 
 PCOD9538372
Probable space group: I M M A
;
_chemical_formula_sum "Si O2"
_cell_formula_units_Z 80
_cell_length_a 17.911417
_cell_length_b 20.199047
_cell_length_c 12.406797
_cell_angle_alpha 90.000000
_cell_angle_beta 90.000000
_cell_angle_gamma 90.000000
_cell_volume 4488.699178
_symmetry_space_group_name_H-M "I M M A"
_symmetry_group_IT_number 74
_symmetry_cell_setting 'orthorhombic'
loop_
_space_group_symop_operation_xyz
x,y,z
-x,1/2-y,z
x,-y,-z
-x,1/2+y,-z
-x,-y,-z
x,1/2+y,-z
-x,y,z
x,1/2-y,z
1/2+x,1/2+y,1/2+z
1/2-x,-y,1/2+z
1/2+x,1/2-y,1/2-z
1/2-x,y,1/2-z
1/2-x,1/2-y,1/2-z
1/2+x,y,1/2-z
1/2-x,1/2+y,1/2+z
1/2+x,-y,1/2+z
loop_
_atom_site_type_symbol
_atom_site_label
_atom_site_fract_x
_atom_site_fract_y
_atom_site_fract_z
Si Si1 0.587804 0.750000 0.646926
Si Si2 0.915195 0.979815 0.875466
Si Si3 0.200649 0.866783 0.857253
Si Si4 0.348716 0.607197 0.967804
Si Si5 0.412676 0.477313 0.849353
Si Si6 0.584954 0.750000 0.907500
O O1 0.500000 0.750000 0.612801
O O2 0.639711 0.688466 0.614162
O O3 0.587238 0.750000 0.777447
O O4 0.850487 0.930208 0.843020
O O5 0.000000 0.951642 0.864348
O O6 0.909101 0.032902 0.779270
O O7 0.906969 0.000000 0.000000
O O8 0.250000 0.849901 0.750000
O O9 0.261173 0.884477 0.947067
O O10 0.382043 0.549762 0.888088
O O11 0.380428 0.680434 0.945527
O O12 0.369063 0.577908 0.083825
O O13 0.500000 0.475006 0.879337
O O14 0.500000 0.750000 0.943889
#
# Coordination Sequence:
#
# PCOD9538372 Si02
#       6
#     8  16  16  16  16   8
#     4  11  22  36  54  77 117 161 192 237 292 357
#     4  10  22  38  57  79 110 151 194 236 284 349
#     4  12  21  34  54  83 117 143 192 238 294 344
#     4  11  21  32  54  85 116 151 187 238 297 343
#     4  10  20  37  55  82 118 153 193 236 297 359
#     4  11  19  31  51  80 115 154 193 232 288 351
#
# _framework density 17.822534999999998
#
# number of rings (size 3 to 8) (size 9 to 14) (size 15 to 20)
#    0.000    1.200    4.000    3.900    2.800    3.200 
#    0.000    0.000    0.000    1.200    0.000    8.400 
#    0.000    0.000    0.000    0.000    0.000    0.000 
#
# Total GULP energy -222789.549253 kJ/mol
# GULP energy per Si atom -5569.738731 kJ/mol
# Density = 1.778197 g / cm^3
# Si number density = 17.822535 Si / 1000 Ang^3
#
#
#
# Elastic Constant Matrix: (Units=GPa)
#
#
# Indices 1 2 3 4 5 6 
#
# 1 145.5036 43.3997 35.5231 0.0000 0.0000 0.0000
# 2 43.3997 72.2143 16.5239 0.0000 0.0000 0.0000
# 3 35.5231 16.5239 103.4749 0.0000 0.0000 0.0000
# 4 0.0000 0.0000 0.0000 5.4324 0.0000 0.0000
# 5 0.0000 0.0000 0.0000 0.0000 -19.4265 0.0000
# 6 0.0000 0.0000 0.0000 0.0000 0.0000 15.1102
#
#
#
# Elastic Compliance Matrix: (Units=1/GPa)
#
#
# Indices 1 2 3 4 5 6 
#
# 1 0.008861 -0.004805 -0.002275 0.000000 0.000000 0.000000
# 2 -0.004805 0.016978 -0.001062 0.000000 0.000000 0.000000
# 3 -0.002275 -0.001062 0.010615 0.000000 0.000000 0.000000
# 4 0.000000 0.000000 0.000000 0.184080 0.000000 0.000000
# 5 0.000000 0.000000 0.000000 0.000000 -0.051476 0.000000
# 6 0.000000 0.000000 0.000000 0.000000 0.000000 0.066180
#
#
# Mechanical properties :
#
#
# Convention : Reuss Voigt Hill
#
# Bulk Modulus (GPa) = 49.57536 56.89846 53.23691
# Shear Modulus (GPa) = 19.36146 15.27298 17.31722
#
# Velocity S-wave (km/s) = 3.29955 2.93054 3.12051
# Velocity P-wave (km/s) = 6.51096 6.59129 6.55125
#
# Compressibility (1/GPa) = 0.02017131
#
# Stress axis : x y z
#
# Youngs Moduli (GPa) = 112.85125 58.89866 94.20935
#
# Poissons Ratio (x) = 0.28301 0.21430
# Poissons Ratio (y) = 0.54224 0.10002
# Poissons Ratio (z) = 0.25671 0.06253
#
# Static dielectric constant tensor:
#      x y z
#    x 1.624820 0.000000 0.000000 
#    y 0.000000 1.657270 0.000000 
#    z 0.000000 0.000000 1.649370 
# 
# From -- ./inp_files/22081.got.cif
#   From: 2010.05.17/outbox.cif.g08.bks.cpg/sg74_12_cif.got.tgz:22081.got - 2010.06.03 17:57:02.
