data_PCOD9538340
_publ_section_title
;
Structure prediction by ZEFSAII (Michael W. Deem and Ramdas Pophale) SiO2 
 PCOD9538340
Probable space group: I M M A
;
_chemical_formula_sum "Si O2"
_cell_formula_units_Z 96
_cell_length_a 14.438257
_cell_length_b 22.921709
_cell_length_c 14.958159
_cell_angle_alpha 90.000000
_cell_angle_beta 90.000000
_cell_angle_gamma 90.000000
_cell_volume 4950.395622
_symmetry_space_group_name_H-M "I M M A"
_symmetry_group_IT_number 74
_symmetry_cell_setting 'orthorhombic'
loop_
_space_group_symop_operation_xyz
x,y,z
-x,1/2-y,z
x,-y,-z
-x,1/2+y,-z
-x,-y,-z
x,1/2+y,-z
-x,y,z
x,1/2-y,z
1/2+x,1/2+y,1/2+z
1/2-x,-y,1/2+z
1/2+x,1/2-y,1/2-z
1/2-x,y,1/2-z
1/2-x,1/2-y,1/2-z
1/2+x,y,1/2-z
1/2-x,1/2+y,1/2+z
1/2+x,-y,1/2+z
loop_
_atom_site_type_symbol
_atom_site_label
_atom_site_fract_x
_atom_site_fract_y
_atom_site_fract_z
Si Si1 0.224167 0.422880 0.156122
Si Si2 0.887961 0.625703 0.008192
Si Si3 0.895830 0.750000 0.073286
Si Si4 0.394977 0.433059 0.028885
Si Si5 0.387767 0.957167 0.321988
Si Si6 0.109652 0.877655 0.347191
Si Si7 0.855907 0.750000 0.276705
O O1 0.250000 0.393425 0.250000
O O2 0.159821 0.390067 0.084729
O O3 0.322489 0.431619 0.108254
O O4 0.170255 0.483437 0.176374
O O5 0.000000 0.626370 0.998693
O O6 0.853687 0.688991 0.042188
O O7 0.869705 0.578556 0.086546
O O8 0.903541 0.750000 0.180119
O O9 0.000000 0.750000 0.036152
O O10 0.500000 0.413073 0.051408
O O11 0.401680 0.500000 0.000000
O O12 0.355048 0.397936 0.943517
O O13 0.500000 0.967753 0.317369
O O14 0.360053 0.916719 0.237362
O O15 0.123405 0.809587 0.327998
O O16 0.000000 0.888650 0.352721
O O17 0.750000 0.750000 0.250000
#
# Coordination Sequence:
#
# PCOD9538340 Si02
#       7
#    16  16   8  16  16  16   8
#     4  12  25  38  57  83 117 157 204 259 295 340
#     4  10  21  38  63  90 119 153 193 245 301 361
#     4  10  20  40  63  88 122 156 189 235 305 374
#     4  10  22  39  58  80 114 163 206 243 290 351
#     4  10  20  36  61  92 123 154 190 240 304 369
#     4  10  21  39  61  87 126 163 194 235 293 369
#     4  12  24  32  58  98 129 160 188 233 294 370
#
# _framework density 19.392389999999999
#
# number of rings (size 3 to 8) (size 9 to 14) (size 15 to 20)
#    0.000    1.500    1.667    3.750    2.333    6.000 
#    0.000    0.417    0.000    0.000    0.000    2.333 
#    0.000    0.000    0.000    0.000    0.000    0.000 
#
# Total GULP energy -268117.438381 kJ/mol
# GULP energy per Si atom -5585.779966 kJ/mol
# Density = 1.934825 g / cm^3
# Si number density = 19.392390 Si / 1000 Ang^3
#
#
#
# Elastic Constant Matrix: (Units=GPa)
#
#
# Indices 1 2 3 4 5 6 
#
# 1 81.5808 2.2971 32.0918 0.0000 0.0000 0.0000
# 2 2.2971 88.8565 35.0066 0.0000 0.0000 0.0000
# 3 32.0918 35.0066 108.6622 -0.0001 0.0000 0.0000
# 4 0.0000 0.0000 -0.0001 23.9949 0.0001 0.0000
# 5 0.0000 0.0000 0.0000 0.0001 20.8791 0.0000
# 6 0.0000 0.0000 0.0000 0.0000 0.0000 14.4746
#
#
#
# Elastic Compliance Matrix: (Units=1/GPa)
#
#
# Indices 1 2 3 4 5 6 
#
# 1 0.014031 0.001454 -0.004612 0.000000 0.000000 0.000000
# 2 0.001454 0.013041 -0.004631 0.000000 0.000000 0.000000
# 3 -0.004612 -0.004631 0.012057 0.000000 0.000000 0.000000
# 4 0.000000 0.000000 0.000000 0.041676 0.000000 0.000000
# 5 0.000000 0.000000 0.000000 0.000000 0.047895 0.000000
# 6 0.000000 0.000000 0.000000 0.000000 0.000000 0.069087
#
#
# Mechanical properties :
#
#
# Convention : Reuss Voigt Hill
#
# Bulk Modulus (GPa) = 42.46037 46.43228 44.44633
# Shear Modulus (GPa) = 22.60254 25.84998 24.22626
#
# Velocity S-wave (km/s) = 3.41770 3.65498 3.53833
# Velocity P-wave (km/s) = 6.12512 6.46586 6.29780
#
# Compressibility (1/GPa) = 0.02355137
#
# Stress axis : x y z
#
# Youngs Moduli (GPa) = 71.26941 76.68190 82.93996
#
# Poissons Ratio (x) = -0.11153 0.38256
# Poissons Ratio (y) = -0.10366 0.38408
# Poissons Ratio (z) = 0.32873 0.35510
#
# Static dielectric constant tensor:
#      x y z
#    x 1.715880 0.000000 0.000000 
#    y 0.000000 1.647430 0.000000 
#    z 0.000000 0.000000 1.644740 
# 
# From -- ./inp_files/32461.got.cif
#   From: 2010.05.17/outbox.cif.g08.bks.cpg/sg74_17_cif.got.tgz:32461.got - 2010.06.03 17:57:02.
