data_PCOD9538350
_publ_section_title
;
Structure prediction by ZEFSAII (Michael W. Deem and Ramdas Pophale) SiO2 
 PCOD9538350
Probable space group: I M M A
;
_chemical_formula_sum "Si O2"
_cell_formula_units_Z 64
_cell_length_a 11.833466
_cell_length_b 8.118747
_cell_length_c 36.296603
_cell_angle_alpha 90.000000
_cell_angle_beta 90.000000
_cell_angle_gamma 90.000000
_cell_volume 3487.120512
_symmetry_space_group_name_H-M "I M M A"
_symmetry_group_IT_number 74
_symmetry_cell_setting 'orthorhombic'
loop_
_space_group_symop_operation_xyz
x,y,z
-x,1/2-y,z
x,-y,-z
-x,1/2+y,-z
-x,-y,-z
x,1/2+y,-z
-x,y,z
x,1/2-y,z
1/2+x,1/2+y,1/2+z
1/2-x,-y,1/2+z
1/2+x,1/2-y,1/2-z
1/2-x,y,1/2-z
1/2-x,1/2-y,1/2-z
1/2+x,y,1/2-z
1/2-x,1/2+y,1/2+z
1/2+x,-y,1/2+z
loop_
_atom_site_type_symbol
_atom_site_label
_atom_site_fract_x
_atom_site_fract_y
_atom_site_fract_z
Si Si1 0.000000 0.448367 0.542426
Si Si2 0.363263 0.250000 0.775828
Si Si3 0.299333 0.940313 0.095631
Si Si4 0.132759 0.066508 0.328278
Si Si5 0.634981 0.059748 0.460116
O O1 0.000000 0.500000 0.500000
O O2 0.892105 0.503241 0.566268
O O3 0.000000 0.250000 0.542196
O O4 0.500000 0.250000 0.762955
O O5 0.250000 0.250000 0.750000
O O6 0.350853 0.415790 0.800301
O O7 0.326183 0.750000 0.104328
O O8 0.301244 0.036483 0.133788
O O9 0.184277 0.955582 0.073175
O O10 0.157468 0.250000 0.313329
O O11 0.000000 0.061912 0.338505
O O12 0.500000 0.047980 0.460719
O O13 0.666727 0.250000 0.454987
O O14 0.677616 0.000000 0.500000
#
# Coordination Sequence:
#
# PCOD9538350 Si02
#       5
#     8   8  16  16  16
#     4  10  22  32  46  74 114 150 188 244 296 338
#     4  10  22  42  68  96 130 162 202 246 308 376
#     4  11  20  34  55  79 111 148 194 245 293 353
#     4  10  20  36  62  92 121 158 196 238 295 364
#     4  10  21  36  51  70 101 145 200 254 304 357
#
# _framework density 18.353249999999999
#
# number of rings (size 3 to 8) (size 9 to 14) (size 15 to 20)
#    0.000    1.750    2.500    2.250    0.000    6.000 
#    0.000    1.250    0.000    1.500    0.000    0.000 
#    0.000    0.000    0.000    0.000    0.000    0.000 
#
# Total GULP energy -178403.694167 kJ/mol
# GULP energy per Si atom -5575.115443 kJ/mol
# Density = 1.831148 g / cm^3
# Si number density = 18.353250 Si / 1000 Ang^3
#
#
#
# Elastic Constant Matrix: (Units=GPa)
#
#
# Indices 1 2 3 4 5 6 
#
# 1 41.7150 28.3941 33.5487 0.0000 0.0000 0.0000
# 2 28.3941 93.0020 37.7839 0.0000 0.0000 0.0000
# 3 33.5487 37.7839 77.1658 0.0000 0.0000 0.0000
# 4 0.0000 0.0000 0.0000 20.9674 0.0000 0.0000
# 5 0.0000 0.0000 0.0000 0.0000 16.4681 0.0000
# 6 0.0000 0.0000 0.0000 0.0000 0.0000 20.7818
#
#
#
# Elastic Compliance Matrix: (Units=1/GPa)
#
#
# Indices 1 2 3 4 5 6 
#
# 1 0.039672 -0.006372 -0.014127 0.000000 0.000000 0.000000
# 2 -0.006372 0.014446 -0.004303 0.000000 0.000000 0.000000
# 3 -0.014127 -0.004303 0.021208 0.000000 0.000000 0.000000
# 4 0.000000 0.000000 0.000000 0.047693 0.000000 0.000000
# 5 0.000000 0.000000 0.000000 0.000000 0.060723 0.000000
# 6 0.000000 0.000000 0.000000 0.000000 0.000000 0.048119
#
#
# Mechanical properties :
#
#
# Convention : Reuss Voigt Hill
#
# Bulk Modulus (GPa) = 38.88015 45.70403 42.29209
# Shear Modulus (GPa) = 17.23897 19.12053 18.17975
#
# Velocity S-wave (km/s) = 3.06810 3.23120 3.15071
# Velocity P-wave (km/s) = 5.81217 6.23517 6.02738
#
# Compressibility (1/GPa) = 0.02572007
#
# Stress axis : x y z
#
# Youngs Moduli (GPa) = 25.20700 69.22240 47.15171
#
# Poissons Ratio (x) = 0.44112 0.66613
# Poissons Ratio (y) = 0.16063 0.20289
# Poissons Ratio (z) = 0.35611 0.29787
#
# Static dielectric constant tensor:
#      x y z
#    x 1.672700 0.000000 0.000000 
#    y 0.000000 1.674020 0.000000 
#    z 0.000000 0.000000 1.602910 
# 
# From -- ./inp_files/69783.got.cif
#   From: 2010.05.17/outbox.cif.g08.bks.cpg/sg74_35_cif.got.tgz:69783.got - 2010.06.03 17:57:02.
