data_PCOD9538155
_publ_section_title
;
Structure prediction by ZEFSAII (Michael W. Deem and Ramdas Pophale) SiO2 
 PCOD9538155
Probable space group: I M M A
;
_chemical_formula_sum "Si O2"
_cell_formula_units_Z 104
_cell_length_a 25.578427
_cell_length_b 23.930804
_cell_length_c 9.127437
_cell_angle_alpha 90.000000
_cell_angle_beta 90.000000
_cell_angle_gamma 90.000000
_cell_volume 5587.016667
_symmetry_space_group_name_H-M "I M M A"
_symmetry_group_IT_number 74
_symmetry_cell_setting 'orthorhombic'
loop_
_space_group_symop_operation_xyz
x,y,z
-x,1/2-y,z
x,-y,-z
-x,1/2+y,-z
-x,-y,-z
x,1/2+y,-z
-x,y,z
x,1/2-y,z
1/2+x,1/2+y,1/2+z
1/2-x,-y,1/2+z
1/2+x,1/2-y,1/2-z
1/2-x,y,1/2-z
1/2-x,1/2-y,1/2-z
1/2+x,y,1/2-z
1/2-x,1/2+y,1/2+z
1/2+x,-y,1/2+z
loop_
_atom_site_type_symbol
_atom_site_label
_atom_site_fract_x
_atom_site_fract_y
_atom_site_fract_z
Si Si1 0.340484 0.500000 0.000000
Si Si2 0.155322 0.184279 0.708545
Si Si3 0.264235 0.905108 0.093881
Si Si4 0.942830 0.043291 0.824877
Si Si5 0.352247 0.391563 0.511603
Si Si6 0.405701 0.067494 0.230604
Si Si7 0.941894 0.627620 0.442784
O O1 0.305681 0.446123 0.972927
O O2 0.371966 0.521530 0.859480
O O3 0.163637 0.250000 0.710171
O O4 0.204912 0.151817 0.636515
O O5 0.145920 0.160606 0.874024
O O6 0.104396 0.167179 0.614085
O O7 0.250000 0.931272 0.250000
O O8 0.209948 0.902752 0.007251
O O9 0.890655 0.064117 0.907513
O O10 0.940631 0.074147 0.666363
O O11 0.000000 0.061545 0.885189
O O12 0.942523 0.976403 0.814024
O O13 0.374511 0.394258 0.346752
O O14 0.431756 0.105389 0.106140
O O15 0.000000 0.652554 0.431630
#
# Coordination Sequence:
#
# PCOD9538155 Si02
#       7
#     8  16  16  16  16  16  16
#     4  12  22  34  57  86 135 164 190 238 292 374
#     4  10  21  45  67  84 113 157 215 261 302 364
#     4  10  22  37  57  91 118 163 202 239 304 356
#     4  10  20  36  56  84 125 169 202 236 292 367
#     4  10  24  36  56  92 119 156 207 251 304 358
#     4  12  20  35  55  86 128 160 201 240 300 366
#     4  10  20  37  59  88 119 156 207 251 299 364
#
# _framework density 18.614585999999999
#
# number of rings (size 3 to 8) (size 9 to 14) (size 15 to 20)
#    0.000    1.538    3.077    2.769    4.308    6.154 
#    0.000    0.769    0.000    0.923    0.000    0.000 
#    0.000    0.000    0.000    0.000    0.000    0.000 
#
# Total GULP energy -289546.064650 kJ/mol
# GULP energy per Si atom -5568.193551 kJ/mol
# Density = 1.857222 g / cm^3
# Si number density = 18.614586 Si / 1000 Ang^3
#
#
#
# Elastic Constant Matrix: (Units=GPa)
#
#
# Indices 1 2 3 4 5 6 
#
# 1 132.8934 34.9831 38.0879 0.0000 0.0000 0.0000
# 2 34.9831 88.7431 22.9882 0.0000 0.0000 0.0000
# 3 38.0879 22.9882 76.8736 0.0000 0.0000 0.0000
# 4 0.0000 0.0000 0.0000 11.0772 0.0000 0.0000
# 5 0.0000 0.0000 0.0000 0.0000 34.2384 0.0000
# 6 0.0000 0.0000 0.0000 0.0000 0.0000 24.7157
#
#
#
# Elastic Compliance Matrix: (Units=1/GPa)
#
#
# Indices 1 2 3 4 5 6 
#
# 1 0.009326 -0.002688 -0.003817 0.000000 0.000000 0.000000
# 2 -0.002688 0.012989 -0.002553 0.000000 0.000000 0.000000
# 3 -0.003817 -0.002553 0.015663 0.000000 0.000000 0.000000
# 4 0.000000 0.000000 0.000000 0.090276 0.000000 0.000000
# 5 0.000000 0.000000 0.000000 0.000000 0.029207 0.000000
# 6 0.000000 0.000000 0.000000 0.000000 0.000000 0.040460
#
#
# Mechanical properties :
#
#
# Convention : Reuss Voigt Hill
#
# Bulk Modulus (GPa) = 50.34334 54.51429 52.42882
# Shear Modulus (GPa) = 22.45603 27.50299 24.97951
#
# Velocity S-wave (km/s) = 3.47705 3.84799 3.66721
# Velocity P-wave (km/s) = 6.57447 7.00657 6.79396
#
# Compressibility (1/GPa) = 0.01986360
#
# Stress axis : x y z
#
# Youngs Moduli (GPa) = 107.22308 76.98685 63.84502
#
# Poissons Ratio (x) = 0.20692 0.24370
# Poissons Ratio (y) = 0.28819 0.16297
# Poissons Ratio (z) = 0.40928 0.19652
#
# Static dielectric constant tensor:
#      x y z
#    x 1.762410 0.000000 0.000000 
#    y 0.000000 1.611070 0.000000 
#    z 0.000000 0.000000 1.696600 
# 
# From -- ./inp_files/15394.got.cif
#   From: 2010.05.17/outbox.cif.g08.bks.cpg/sg74_8_cif.got.tgz:15394.got - 2010.06.03 17:57:02.
