data_PCOD9538198
_publ_section_title
;
Structure prediction by ZEFSAII (Michael W. Deem and Ramdas Pophale) SiO2 
 PCOD9538198
Probable space group: I M M A
;
_chemical_formula_sum "Si O2"
_cell_formula_units_Z 104
_cell_length_a 8.945344
_cell_length_b 20.393387
_cell_length_c 32.316320
_cell_angle_alpha 90.000000
_cell_angle_beta 90.000000
_cell_angle_gamma 90.000000
_cell_volume 5895.332534
_symmetry_space_group_name_H-M "I M M A"
_symmetry_group_IT_number 74
_symmetry_cell_setting 'orthorhombic'
loop_
_space_group_symop_operation_xyz
x,y,z
-x,1/2-y,z
x,-y,-z
-x,1/2+y,-z
-x,-y,-z
x,1/2+y,-z
-x,y,z
x,1/2-y,z
1/2+x,1/2+y,1/2+z
1/2-x,-y,1/2+z
1/2+x,1/2-y,1/2-z
1/2-x,y,1/2-z
1/2-x,1/2-y,1/2-z
1/2+x,y,1/2-z
1/2-x,1/2+y,1/2+z
1/2+x,-y,1/2+z
loop_
_atom_site_type_symbol
_atom_site_label
_atom_site_fract_x
_atom_site_fract_y
_atom_site_fract_z
Si Si1 0.173268 0.250000 0.205745
Si Si2 0.179132 0.941843 0.119670
Si Si3 0.822975 0.326320 0.569297
Si Si4 0.827084 0.931038 0.582241
Si Si5 0.831264 0.125559 0.325341
Si Si6 0.679127 0.517235 0.206546
Si Si7 0.179448 0.674464 0.978474
O O1 0.250000 0.250000 0.250000
O O2 0.222524 0.314914 0.182018
O O3 0.000000 0.250000 0.212041
O O4 0.239361 0.874738 0.100256
O O5 0.000000 0.944291 0.121067
O O6 0.241322 0.000865 0.090603
O O7 0.246551 0.951562 0.165715
O O8 0.806374 0.250000 0.581307
O O9 0.751114 0.333392 0.523821
O O10 0.000000 0.341450 0.567766
O O11 0.829109 0.896769 0.627184
O O12 0.748096 0.881048 0.550983
O O13 0.000000 0.943307 0.570072
O O14 0.794451 0.060931 0.298955
O O15 0.000000 0.146533 0.314539
O O16 0.500000 0.527508 0.205716
O O17 0.750000 0.539003 0.250000
O O18 0.212728 0.750000 0.964689
O O19 0.000000 0.667922 0.980543
#
# Coordination Sequence:
#
# PCOD9538198 Si02
#       7
#     8  16  16  16  16  16  16
#     4  12  24  34  48  68  96 134 180 230 280 332
#     4  11  22  37  59  86 116 147 183 230 280 331
#     4  10  21  39  62  86 113 147 185 224 272 333
#     4  10  21  37  56  79 109 147 190 234 279 331
#     4   9  20  36  52  72 101 138 180 228 276 324
#     4  10  20  36  58  83 110 143 182 225 273 330
#     4  10  21  36  55  82 115 149 189 235 281 333
#
# _framework density 17.641075000000001
#
# number of rings (size 3 to 8) (size 9 to 14) (size 15 to 20)
#    0.000    1.846    0.000    5.308    1.077    7.385 
#    0.000    3.077    0.000    0.462    0.000    0.000 
#    0.000    0.000    0.000    0.000    0.000    0.000 
#
# Total GULP energy -290367.898807 kJ/mol
# GULP energy per Si atom -5583.998054 kJ/mol
# Density = 1.760092 g / cm^3
# Si number density = 17.641075 Si / 1000 Ang^3
#
#
#
# Elastic Constant Matrix: (Units=GPa)
#
#
# Indices 1 2 3 4 5 6 
#
# 1 128.5013 75.3387 60.6964 0.0000 0.0000 0.0000
# 2 75.3387 90.4803 63.2742 0.0000 0.0000 0.0000
# 3 60.6964 63.2742 85.2967 0.0000 0.0000 0.0000
# 4 0.0000 0.0000 0.0000 10.3714 0.0000 0.0000
# 5 0.0000 0.0000 0.0000 0.0000 33.5482 0.0000
# 6 0.0000 0.0000 0.0000 0.0000 0.0000 27.1684
#
#
#
# Elastic Compliance Matrix: (Units=1/GPa)
#
#
# Indices 1 2 3 4 5 6 
#
# 1 0.015575 -0.010843 -0.003040 0.000000 0.000000 0.000000
# 2 -0.010843 0.030514 -0.014920 0.000000 0.000000 0.000000
# 3 -0.003040 -0.014920 0.024955 0.000000 0.000000 0.000000
# 4 0.000000 0.000000 0.000000 0.096419 0.000000 0.000000
# 5 0.000000 0.000000 0.000000 0.000000 0.029808 0.000000
# 6 0.000000 0.000000 0.000000 0.000000 0.000000 0.036807
#
#
# Mechanical properties :
#
#
# Convention : Reuss Voigt Hill
#
# Bulk Modulus (GPa) = 74.41241 78.09964 76.25602
# Shear Modulus (GPa) = 16.88260 21.21555 19.04907
#
# Velocity S-wave (km/s) = 3.09691 3.47165 3.28962
# Velocity P-wave (km/s) = 7.42029 7.77415 7.59928
#
# Compressibility (1/GPa) = 0.01343862
#
# Stress axis : x y z
#
# Youngs Moduli (GPa) = 64.20688 32.77146 40.07241
#
# Poissons Ratio (x) = 0.35533 0.12180
# Poissons Ratio (y) = 0.69617 0.59790
# Poissons Ratio (z) = 0.19516 0.48896
#
# Static dielectric constant tensor:
#      x y z
#    x 1.599390 0.000000 0.000000 
#    y 0.000000 1.577820 0.000000 
#    z 0.000000 0.000000 1.583120 
# 
# From -- ./inp_files/64474.got.cif
#   From: 2010.05.17/outbox.cif.g08.bks.cpg/sg74_33_cif.got.tgz:64474.got - 2010.06.03 17:57:02.
