data_PCOD9538683
_publ_section_title
;
Structure prediction by ZEFSAII (Michael W. Deem and Ramdas Pophale) SiO2 
 PCOD9538683
Probable space group: I M M A
;
_chemical_formula_sum "Si O2"
_cell_formula_units_Z 84
_cell_length_a 14.609569
_cell_length_b 15.507615
_cell_length_c 18.949218
_cell_angle_alpha 90.000000
_cell_angle_beta 90.000000
_cell_angle_gamma 90.000000
_cell_volume 4293.126708
_symmetry_space_group_name_H-M "I M M A"
_symmetry_group_IT_number 74
_symmetry_cell_setting 'orthorhombic'
loop_
_space_group_symop_operation_xyz
x,y,z
-x,1/2-y,z
x,-y,-z
-x,1/2+y,-z
-x,-y,-z
x,1/2+y,-z
-x,y,z
x,1/2-y,z
1/2+x,1/2+y,1/2+z
1/2-x,-y,1/2+z
1/2+x,1/2-y,1/2-z
1/2-x,y,1/2-z
1/2-x,1/2-y,1/2-z
1/2+x,y,1/2-z
1/2-x,1/2+y,1/2+z
1/2+x,-y,1/2+z
loop_
_atom_site_type_symbol
_atom_site_label
_atom_site_fract_x
_atom_site_fract_y
_atom_site_fract_z
Si Si1 0.103001 0.974229 0.349658
Si Si2 0.709206 0.574774 0.412820
Si Si3 0.832647 0.880614 0.930915
Si Si4 0.500000 0.750000 0.590871
Si Si5 0.682456 0.654465 0.816661
Si Si6 0.394018 0.848220 0.283078
O O1 0.183879 0.948840 0.403201
O O2 0.116580 0.913795 0.281372
O O3 0.000000 0.961434 0.376730
O O4 0.116564 0.072980 0.324787
O O5 0.688818 0.622395 0.485831
O O6 0.657864 0.482308 0.413360
O O7 0.672744 0.627671 0.346483
O O8 0.919920 0.824878 0.911739
O O9 0.747157 0.848200 0.885142
O O10 0.640396 0.750000 0.808836
O O11 0.750000 0.640758 0.750000
O O12 0.500000 0.854315 0.307706
O O13 0.378364 0.750000 0.259473
#
# Coordination Sequence:
#
# PCOD9538683 Si02
#       6
#    16  16  16   4  16  16
#     4  10  21  40  61  87 119 160 211 257 300 354
#     4  10  22  39  60  87 127 164 197 245 311 361
#     4  10  23  39  59  92 123 158 195 246 301 369
#     4  12  24  38  62  92 130 152 200 248 302 374
#     4  10  20  40  61  86 121 161 202 251 308 365
#     4  10  22  37  61  92 122 156 203 251 305 364
#
# _framework density 19.566158999999999
#
# number of rings (size 3 to 8) (size 9 to 14) (size 15 to 20)
#    0.000    1.905    0.952    2.857    4.000    2.667 
#    1.714    7.619    0.000    0.000    0.000    0.000 
#    0.000    0.000    0.000    0.000    0.000    0.000 
#
# Total GULP energy -234007.956463 kJ/mol
# GULP energy per Si atom -5571.618011 kJ/mol
# Density = 1.952163 g / cm^3
# Si number density = 19.566159 Si / 1000 Ang^3
#
#
#
# Elastic Constant Matrix: (Units=GPa)
#
#
# Indices 1 2 3 4 5 6 
#
# 1 92.0741 43.8687 16.4880 0.0000 0.0000 0.0000
# 2 43.8687 99.7112 15.8188 0.0000 0.0000 0.0000
# 3 16.4880 15.8188 11.7241 0.0000 0.0000 0.0000
# 4 0.0000 0.0000 0.0000 -106.2099 0.0000 0.0000
# 5 0.0000 0.0000 0.0000 0.0000 -3.0962 0.0000
# 6 0.0000 0.0000 0.0000 0.0000 0.0000 30.5026
#
#
#
# Elastic Compliance Matrix: (Units=1/GPa)
#
#
# Indices 1 2 3 4 5 6 
#
# 1 0.015893 -0.004385 -0.016434 0.000000 0.000000 0.000000
# 2 -0.004385 0.013970 -0.012683 0.000000 0.000000 0.000000
# 3 -0.016434 -0.012683 0.125519 0.000000 0.000000 0.000000
# 4 0.000000 0.000000 0.000000 -0.009415 0.000000 0.000000
# 5 0.000000 0.000000 0.000000 0.000000 -0.322972 0.000000
# 6 0.000000 0.000000 0.000000 0.000000 0.000000 0.032784
#
#
# Mechanical properties :
#
#
# Convention : Reuss Voigt Hill
#
# Bulk Modulus (GPa) = 11.31504 39.54006 25.42755
# Shear Modulus (GPa) = -104.69582 -7.27179 -55.98380
#
# Velocity S-wave (km/s) = -7.32289 -1.92992 -5.35487
# Velocity P-wave (km/s) = 8.10581 3.90975 5.02086
#
# Compressibility (1/GPa) = 0.08837797
#
# Stress axis : x y z
#
# Youngs Moduli (GPa) = 62.92077 71.58069 7.96693
#
# Poissons Ratio (x) = 0.31388 0.13093
# Poissons Ratio (y) = 0.27591 0.10104
# Poissons Ratio (z) = 1.03406 0.90784
#
# Static dielectric constant tensor:
#      x y z
#    x 1.677880 0.000000 0.000000 
#    y 0.000000 1.712050 0.000000 
#    z 0.000000 0.000000 1.672510 
# 
# From -- ./inp_files/51755.got.cif
#   From: 2010.05.17/outbox.cif.g08.bks.cpg/sg74_26_cif.got.tgz:51755.got - 2010.06.03 17:57:02.
