data_PCOD9538814
_publ_section_title
;
Structure prediction by ZEFSAII (Michael W. Deem and Ramdas Pophale) SiO2 
 PCOD9538814
Probable space group: I M M A
;
_chemical_formula_sum "Si O2"
_cell_formula_units_Z 68
_cell_length_a 17.066712
_cell_length_b 7.593730
_cell_length_c 26.399307
_cell_angle_alpha 90.000000
_cell_angle_beta 90.000000
_cell_angle_gamma 90.000000
_cell_volume 3421.350264
_symmetry_space_group_name_H-M "I M M A"
_symmetry_group_IT_number 74
_symmetry_cell_setting 'orthorhombic'
loop_
_space_group_symop_operation_xyz
x,y,z
-x,1/2-y,z
x,-y,-z
-x,1/2+y,-z
-x,-y,-z
x,1/2+y,-z
-x,y,z
x,1/2-y,z
1/2+x,1/2+y,1/2+z
1/2-x,-y,1/2+z
1/2+x,1/2-y,1/2-z
1/2-x,y,1/2-z
1/2-x,1/2-y,1/2-z
1/2+x,y,1/2-z
1/2-x,1/2+y,1/2+z
1/2+x,-y,1/2+z
loop_
_atom_site_type_symbol
_atom_site_label
_atom_site_fract_x
_atom_site_fract_y
_atom_site_fract_z
Si Si1 0.000000 0.750000 0.881304
Si Si2 0.913034 0.538027 0.273011
Si Si3 0.385418 0.047172 0.655474
Si Si4 0.412033 0.961450 0.941421
Si Si5 0.208252 0.954836 0.641529
O O1 0.068055 0.593725 0.877657
O O2 0.910992 0.750000 0.276546
O O3 0.902023 0.493668 0.214026
O O4 0.843931 0.467892 0.307845
O O5 0.000000 0.477515 0.289421
O O6 0.411020 0.250000 0.648905
O O7 0.292371 0.041573 0.647171
O O8 0.500000 0.029111 0.930434
O O9 0.414481 0.750000 0.935249
O O10 0.346614 0.029574 0.903130
O O11 0.394629 0.000000 0.000000
O O12 0.223349 0.750000 0.630903
#
# Coordination Sequence:
#
# PCOD9538814 Si02
#       5
#     4  16  16  16  16
#     4  12  22  40  62  82 108 160 194 240 294 342
#     4  10  21  35  51  76 115 156 194 234 279 335
#     4  11  23  39  57  82 116 150 198 241 282 344
#     4   9  19  36  56  82 116 152 190 231 278 341
#     4  11  22  34  54  84 114 149 195 238 287 340
#
# _framework density 19.875194
#
# number of rings (size 3 to 8) (size 9 to 14) (size 15 to 20)
#    0.000    1.647    2.353    2.471    1.647    6.118 
#    0.000    2.353    0.000    0.000    0.000    0.824 
#    0.000    0.000    0.000    0.000    0.000    0.000 
#
# Total GULP energy -189432.396391 kJ/mol
# GULP energy per Si atom -5571.541070 kJ/mol
# Density = 1.982996 g / cm^3
# Si number density = 19.875194 Si / 1000 Ang^3
#
#
#
# Elastic Constant Matrix: (Units=GPa)
#
#
# Indices 1 2 3 4 5 6 
#
# 1 150.4551 23.9854 24.3243 0.0000 0.0000 0.0000
# 2 23.9854 79.9406 2.9615 0.0000 0.0000 0.0000
# 3 24.3243 2.9615 26.4004 0.0000 0.0000 0.0000
# 4 0.0000 0.0000 0.0000 16.2080 0.0000 0.0000
# 5 0.0000 0.0000 0.0000 0.0000 470.5941 0.0000
# 6 0.0000 0.0000 0.0000 0.0000 0.0000 28.4559
#
#
#
# Elastic Compliance Matrix: (Units=1/GPa)
#
#
# Indices 1 2 3 4 5 6 
#
# 1 0.008172 -0.002182 -0.007285 0.000000 0.000000 0.000000
# 2 -0.002182 0.013144 0.000536 0.000000 0.000000 0.000000
# 3 -0.007285 0.000536 0.044530 0.000000 0.000000 0.000000
# 4 0.000000 0.000000 0.000000 0.061698 0.000000 0.000000
# 5 0.000000 0.000000 0.000000 0.000000 0.002125 0.000000
# 6 0.000000 0.000000 0.000000 0.000000 0.000000 0.035142
#
#
# Mechanical properties :
#
#
# Convention : Reuss Voigt Hill
#
# Bulk Modulus (GPa) = 20.83999 39.92651 30.38325
# Shear Modulus (GPa) = 25.16768 116.75324 70.96046
#
# Velocity S-wave (km/s) = 3.56235 7.67273 5.98168
# Velocity P-wave (km/s) = 5.23724 9.93109 7.93899
#
# Compressibility (1/GPa) = 0.04798466
#
# Stress axis : x y z
#
# Youngs Moduli (GPa) = 122.36769 76.07946 22.45682
#
# Poissons Ratio (x) = 0.16601 0.16359
# Poissons Ratio (y) = 0.26702 -0.01204
# Poissons Ratio (z) = 0.89141 -0.04078
#
# Static dielectric constant tensor:
#      x y z
#    x 1.704160 0.000000 0.000000 
#    y 0.000000 1.721790 0.000000 
#    z 0.000000 0.000000 1.682420 
# 
# From -- ./inp_files/60581.got.cif
#   From: 2010.05.17/outbox.cif.g08.bks.cpg/sg74_31_cif.got.tgz:60581.got - 2010.06.03 17:57:02.
