data_PCOD9538704
_publ_section_title
;
Structure prediction by ZEFSAII (Michael W. Deem and Ramdas Pophale) SiO2 
 PCOD9538704
Probable space group: I M M A
;
_chemical_formula_sum "Si O2"
_cell_formula_units_Z 72
_cell_length_a 13.737198
_cell_length_b 13.862690
_cell_length_c 17.703853
_cell_angle_alpha 90.000000
_cell_angle_beta 90.000000
_cell_angle_gamma 90.000000
_cell_volume 3371.424701
_symmetry_space_group_name_H-M "I M M A"
_symmetry_group_IT_number 74
_symmetry_cell_setting 'orthorhombic'
loop_
_space_group_symop_operation_xyz
x,y,z
-x,1/2-y,z
x,-y,-z
-x,1/2+y,-z
-x,-y,-z
x,1/2+y,-z
-x,y,z
x,1/2-y,z
1/2+x,1/2+y,1/2+z
1/2-x,-y,1/2+z
1/2+x,1/2-y,1/2-z
1/2-x,y,1/2-z
1/2-x,1/2-y,1/2-z
1/2+x,y,1/2-z
1/2-x,1/2+y,1/2+z
1/2+x,-y,1/2+z
loop_
_atom_site_type_symbol
_atom_site_label
_atom_site_fract_x
_atom_site_fract_y
_atom_site_fract_z
Si Si1 0.115096 0.434292 0.737229
Si Si2 0.391002 0.859070 0.923775
Si Si3 0.219617 0.139623 0.872478
Si Si4 0.760795 0.500000 0.000000
Si Si5 0.387405 0.853231 0.741844
O O1 0.142174 0.362491 0.804460
O O2 0.180593 0.402834 0.665720
O O3 0.147311 0.538541 0.772892
O O4 0.000000 0.438374 0.719776
O O5 0.500000 0.893883 0.942511
O O6 0.381099 0.750000 0.952833
O O7 0.385235 0.852654 0.833010
O O8 0.308798 0.927153 0.954861
O O9 0.234893 0.250000 0.896779
O O10 0.186726 0.068675 0.939622
O O11 0.500000 0.851826 0.717798
O O12 0.344730 0.750000 0.714225
#
# Coordination Sequence:
#
# PCOD9538704 Si02
#       5
#    16  16  16   8  16
#     4  10  20  40  65  87 118 157 195 243 298 344
#     4   9  17  29  48  76 110 147 183 225 286 353
#     4  11  25  40  58  89 119 150 201 248 287 354
#     4  12  21  36  53  76 120 154 188 240 296 346
#     4   8  14  28  52  82 112 140 178 227 279 342
#
# _framework density 21.355955999999999
#
# number of rings (size 3 to 8) (size 9 to 14) (size 15 to 20)
#    0.000    2.222    2.222    3.667    0.000    2.667 
#    0.000    5.000    0.000    0.000    0.000    0.000 
#    0.000    0.000    0.000    0.000    0.000    0.000 
#
# Total GULP energy -200637.265747 kJ/mol
# GULP energy per Si atom -5573.257382 kJ/mol
# Density = 2.130735 g / cm^3
# Si number density = 21.355956 Si / 1000 Ang^3
#
#
#
# Elastic Constant Matrix: (Units=GPa)
#
#
# Indices 1 2 3 4 5 6 
#
# 1 55.5076 4.7379 -11.4433 0.0000 0.0000 0.0000
# 2 4.7379 138.2552 18.1167 0.0000 0.0000 0.0000
# 3 -11.4433 18.1167 51.7879 0.0000 0.0000 0.0000
# 4 0.0000 0.0000 0.0000 8.2432 0.0000 0.0000
# 5 0.0000 0.0000 0.0000 0.0000 11.0662 0.0000
# 6 0.0000 0.0000 0.0000 0.0000 0.0000 10.3690
#
#
#
# Elastic Compliance Matrix: (Units=1/GPa)
#
#
# Indices 1 2 3 4 5 6 
#
# 1 0.019084 -0.001265 0.004659 0.000000 0.000000 0.000000
# 2 -0.001265 0.007664 -0.002961 0.000000 0.000000 0.000000
# 3 0.004659 -0.002961 0.021375 0.000000 0.000000 0.000000
# 4 0.000000 0.000000 0.000000 0.121312 0.000000 0.000000
# 5 0.000000 0.000000 0.000000 0.000000 0.090366 0.000000
# 6 0.000000 0.000000 0.000000 0.000000 0.000000 0.096441
#
#
# Mechanical properties :
#
#
# Convention : Reuss Voigt Hill
#
# Bulk Modulus (GPa) = 20.41175 29.81925 25.11550
# Shear Modulus (GPa) = 13.45156 21.54497 17.49826
#
# Velocity S-wave (km/s) = 2.51245 3.17969 2.86556
# Velocity P-wave (km/s) = 4.24207 5.24155 4.76807
#
# Compressibility (1/GPa) = 0.04899140
#
# Stress axis : x y z
#
# Youngs Moduli (GPa) = 52.39981 130.47536 46.78417
#
# Poissons Ratio (x) = 0.16499 -0.21798
# Poissons Ratio (y) = 0.06626 0.13851
# Poissons Ratio (z) = -0.24415 0.38628
#
# Static dielectric constant tensor:
#      x y z
#    x 1.757210 0.000000 0.000000 
#    y 0.000000 1.909150 0.000000 
#    z 0.000000 0.000000 1.764840 
# 
# From -- ./inp_files/42503.got.cif
#   From: 2010.05.17/outbox.cif.g08.bks.cpg/sg74_22_cif.got.tgz:42503.got - 2010.06.03 17:57:02.
