data_PCOD9538601
_publ_section_title
;
Structure prediction by ZEFSAII (Michael W. Deem and Ramdas Pophale) SiO2 
 PCOD9538601
Probable space group: I M M A
;
_chemical_formula_sum "Si O2"
_cell_formula_units_Z 112
_cell_length_a 14.041397
_cell_length_b 23.436789
_cell_length_c 14.672256
_cell_angle_alpha 90.000000
_cell_angle_beta 90.000000
_cell_angle_gamma 90.000000
_cell_volume 4828.423162
_symmetry_space_group_name_H-M "I M M A"
_symmetry_group_IT_number 74
_symmetry_cell_setting 'orthorhombic'
loop_
_space_group_symop_operation_xyz
x,y,z
-x,1/2-y,z
x,-y,-z
-x,1/2+y,-z
-x,-y,-z
x,1/2+y,-z
-x,y,z
x,1/2-y,z
1/2+x,1/2+y,1/2+z
1/2-x,-y,1/2+z
1/2+x,1/2-y,1/2-z
1/2-x,y,1/2-z
1/2-x,1/2-y,1/2-z
1/2+x,y,1/2-z
1/2-x,1/2+y,1/2+z
1/2+x,-y,1/2+z
loop_
_atom_site_type_symbol
_atom_site_label
_atom_site_fract_x
_atom_site_fract_y
_atom_site_fract_z
Si Si1 0.114609 0.122703 0.201134
Si Si2 0.895491 0.086774 0.589124
Si Si3 0.195580 0.187326 0.036119
Si Si4 0.110243 0.511730 0.900166
Si Si5 0.390796 0.645850 0.908992
Si Si6 0.108949 0.685367 0.272794
Si Si7 0.688631 0.600700 0.372407
O O1 0.148346 0.171969 0.132760
O O2 0.139616 0.130312 0.306621
O O3 0.000000 0.121886 0.200586
O O4 0.151370 0.063203 0.158369
O O5 0.890966 0.092829 0.480015
O O6 0.894994 0.150715 0.632623
O O7 0.791917 0.068930 0.625619
O O8 0.000000 0.061489 0.613829
O O9 0.165572 0.250000 0.002839
O O10 0.308848 0.186160 0.052466
O O11 0.174056 0.135354 0.966731
O O12 0.116287 0.450345 0.853393
O O13 0.000000 0.527231 0.915904
O O14 0.154199 0.500000 0.000000
O O15 0.500000 0.667532 0.908226
O O16 0.141359 0.750000 0.285444
O O17 0.169490 0.649304 0.201354
O O18 0.000000 0.686329 0.238165
#
# Coordination Sequence:
#
# PCOD9538601 Si02
#       7
#    16  16  16  16  16  16  16
#     4  10  21  39  63  90 121 159 204 256 311 371
#     4   9  20  38  59  84 119 160 205 253 299 360
#     4  11  23  37  57  90 128 162 200 250 309 374
#     4  10  20  38  65  92 120 158 203 252 311 380
#     4   9  20  39  61  85 115 158 210 254 298 354
#     4  10  21  37  59  90 127 164 203 254 316 378
#     4  11  21  37  64  91 122 159 207 256 315 375
#
# _framework density 23.195978
#
# number of rings (size 3 to 8) (size 9 to 14) (size 15 to 20)
#    0.000    2.000    1.429    1.714    0.000    5.714 
#    0.000    7.143    0.000    3.000    0.000    0.000 
#    0.000    0.000    0.000    0.000    0.000    0.000 
#
# Total GULP energy -312369.990040 kJ/mol
# GULP energy per Si atom -5578.035536 kJ/mol
# Density = 2.314318 g / cm^3
# Si number density = 23.195978 Si / 1000 Ang^3
#
#
#
# Elastic Constant Matrix: (Units=GPa)
#
#
# Indices 1 2 3 4 5 6 
#
# 1 44.2473 -10.6580 16.5832 0.0001 0.0000 0.0000
# 2 -10.6580 52.3996 -8.7944 -0.0001 0.0000 0.0000
# 3 16.5832 -8.7944 90.8295 0.0000 0.0000 0.0000
# 4 0.0001 -0.0001 0.0000 11.0622 0.0000 0.0000
# 5 0.0000 0.0000 0.0000 0.0000 30.0784 0.0000
# 6 0.0000 0.0000 0.0000 0.0000 0.0000 15.7406
#
#
#
# Elastic Compliance Matrix: (Units=1/GPa)
#
#
# Indices 1 2 3 4 5 6 
#
# 1 0.025233 0.004431 -0.004178 0.000000 0.000000 0.000000
# 2 0.004431 0.020178 0.001145 0.000000 0.000000 0.000000
# 3 -0.004178 0.001145 0.011883 0.000000 0.000000 0.000000
# 4 0.000000 0.000000 0.000000 0.090398 0.000000 0.000000
# 5 0.000000 0.000000 0.000000 0.000000 0.033246 0.000000
# 6 0.000000 0.000000 0.000000 0.000000 0.000000 0.063530
#
#
# Mechanical properties :
#
#
# Convention : Reuss Voigt Hill
#
# Bulk Modulus (GPa) = 16.64169 20.19311 18.41740
# Shear Modulus (GPa) = 19.10562 24.06593 21.58578
#
# Velocity S-wave (km/s) = 2.87306 3.22453 3.05385
# Velocity P-wave (km/s) = 4.26567 4.75266 4.51573
#
# Compressibility (1/GPa) = 0.06009004
#
# Stress axis : x y z
#
# Youngs Moduli (GPa) = 39.62992 49.56007 84.15197
#
# Poissons Ratio (x) = -0.21961 0.35158
# Poissons Ratio (y) = -0.17561 -0.09632
# Poissons Ratio (z) = 0.16557 -0.05673
#
# Static dielectric constant tensor:
#      x y z
#    x 1.960850 0.000000 0.000000 
#    y 0.000000 1.849000 0.000000 
#    z 0.000000 0.000000 1.918990 
# 
# From -- ./inp_files/32725.got.cif
#   From: 2010.05.17/outbox.cif.g08.bks.cpg/sg74_17_cif.got.tgz:32725.got - 2010.06.03 17:57:02.
