data_PCOD9538806
_publ_section_title
;
Structure prediction by ZEFSAII (Michael W. Deem and Ramdas Pophale) SiO2 
 PCOD9538806
Probable space group: I M M A
;
_chemical_formula_sum "Si O2"
_cell_formula_units_Z 72
_cell_length_a 13.935920
_cell_length_b 7.410882
_cell_length_c 32.011872
_cell_angle_alpha 90.000000
_cell_angle_beta 90.000000
_cell_angle_gamma 90.000000
_cell_volume 3306.104788
_symmetry_space_group_name_H-M "I M M A"
_symmetry_group_IT_number 74
_symmetry_cell_setting 'orthorhombic'
loop_
_space_group_symop_operation_xyz
x,y,z
-x,1/2-y,z
x,-y,-z
-x,1/2+y,-z
-x,-y,-z
x,1/2+y,-z
-x,y,z
x,1/2-y,z
1/2+x,1/2+y,1/2+z
1/2-x,-y,1/2+z
1/2+x,1/2-y,1/2-z
1/2-x,y,1/2-z
1/2-x,1/2-y,1/2-z
1/2+x,y,1/2-z
1/2-x,1/2+y,1/2+z
1/2+x,-y,1/2+z
loop_
_atom_site_type_symbol
_atom_site_label
_atom_site_fract_x
_atom_site_fract_y
_atom_site_fract_z
Si Si1 0.803738 0.040996 0.411975
Si Si2 0.706345 0.031889 0.815940
Si Si3 0.605572 0.030220 0.732052
Si Si4 0.893498 0.034188 0.049516
Si Si5 0.500000 0.034045 0.049040
O O1 0.800979 0.250000 0.425686
O O2 0.700968 0.963377 0.426733
O O3 0.900674 0.961550 0.431663
O O4 0.812684 0.034108 0.362156
O O5 0.704987 0.250000 0.817415
O O6 0.633377 0.976594 0.779271
O O7 0.810631 0.973290 0.799140
O O8 0.500000 0.968836 0.720475
O O9 0.606585 0.250000 0.731785
O O10 0.896795 0.250000 0.055984
O O11 0.000000 0.964298 0.061708
O O12 0.881924 0.000000 0.000000
O O13 0.500000 0.250000 0.057043
O O14 0.500000 0.000000 0.000000
#
# Coordination Sequence:
#
# PCOD9538806 Si02
#       5
#    16  16  16  16   8
#     4  10  21  35  50  72 105 134 159 202 253 298
#     4   9  18  31  50  76  97 125 170 206 242 293
#     4   8  15  30  50  71 100 131 161 206 252 288
#     4   9  18  33  52  72  95 126 161 199 245 293
#     4  10  22  38  54  74 102 138 172 208 254 298
#
# _framework density 21.777892999999999
#
# number of rings (size 3 to 8) (size 9 to 14) (size 15 to 20)
#    0.000    2.889    0.000    2.000    1.556    2.667 
#    0.000    2.222    0.000    1.333    0.000    0.000 
#    0.000    0.000    0.000    0.000    0.000    0.000 
#
# Total GULP energy -200903.606140 kJ/mol
# GULP energy per Si atom -5580.655726 kJ/mol
# Density = 2.172833 g / cm^3
# Si number density = 21.777893 Si / 1000 Ang^3
#
#
#
# Elastic Constant Matrix: (Units=GPa)
#
#
# Indices 1 2 3 4 5 6 
#
# 1 159.1466 12.7136 65.7971 0.0000 0.0000 0.0000
# 2 12.7136 71.7886 -14.6019 0.0000 0.0000 0.0000
# 3 65.7971 -14.6019 106.9122 0.0000 0.0000 0.0000
# 4 0.0000 0.0000 0.0000 22.7877 0.0000 0.0000
# 5 0.0000 0.0000 0.0000 0.0000 7.1165 0.0000
# 6 0.0000 0.0000 0.0000 0.0000 0.0000 -16.5018
#
#
#
# Elastic Compliance Matrix: (Units=1/GPa)
#
#
# Indices 1 2 3 4 5 6 
#
# 1 0.008936 -0.002778 -0.005879 0.000000 0.000000 0.000000
# 2 -0.002778 0.015192 0.003785 0.000000 0.000000 0.000000
# 3 -0.005879 0.003785 0.013489 0.000000 0.000000 0.000000
# 4 0.000000 0.000000 0.000000 0.043883 0.000000 0.000000
# 5 0.000000 0.000000 0.000000 0.000000 0.140518 0.000000
# 6 0.000000 0.000000 0.000000 0.000000 0.000000 -0.060599
#
#
# Mechanical properties :
#
#
# Convention : Reuss Voigt Hill
#
# Bulk Modulus (GPa) = 35.87958 51.74055 43.81007
# Shear Modulus (GPa) = 27.70800 20.94306 24.32553
#
# Velocity S-wave (km/s) = 3.57080 3.10444 3.34575
# Velocity P-wave (km/s) = 5.78894 6.05474 5.92333
#
# Compressibility (1/GPa) = 0.02787100
#
# Stress axis : x y z
#
# Youngs Moduli (GPa) = 111.90608 65.82566 74.13714
#
# Poissons Ratio (x) = 0.18289 0.43585
# Poissons Ratio (y) = 0.31091 -0.28059
# Poissons Ratio (z) = 0.65790 -0.24913
#
# Static dielectric constant tensor:
#      x y z
#    x 1.821530 0.000000 0.000000 
#    y 0.000000 1.825520 0.000000 
#    z 0.000000 0.000000 1.713640 
# 
# From -- ./inp_files/66728.got.cif
#   From: 2010.05.17/outbox.cif.g08.bks.cpg/sg74_34_cif.got.tgz:66728.got - 2010.06.03 17:57:02.
