data_PCOD9538529
_publ_section_title
;
Structure prediction by ZEFSAII (Michael W. Deem and Ramdas Pophale) SiO2 
 PCOD9538529
Probable space group: I M M A
;
_chemical_formula_sum "Si O2"
_cell_formula_units_Z 96
_cell_length_a 14.022956
_cell_length_b 11.868999
_cell_length_c 25.847401
_cell_angle_alpha 90.000000
_cell_angle_beta 90.000000
_cell_angle_gamma 90.000000
_cell_volume 4302.001378
_symmetry_space_group_name_H-M "I M M A"
_symmetry_group_IT_number 74
_symmetry_cell_setting 'orthorhombic'
loop_
_space_group_symop_operation_xyz
x,y,z
-x,1/2-y,z
x,-y,-z
-x,1/2+y,-z
-x,-y,-z
x,1/2+y,-z
-x,y,z
x,1/2-y,z
1/2+x,1/2+y,1/2+z
1/2-x,-y,1/2+z
1/2+x,1/2-y,1/2-z
1/2-x,y,1/2-z
1/2-x,1/2-y,1/2-z
1/2+x,y,1/2-z
1/2-x,1/2+y,1/2+z
1/2+x,-y,1/2+z
loop_
_atom_site_type_symbol
_atom_site_label
_atom_site_fract_x
_atom_site_fract_y
_atom_site_fract_z
Si Si1 0.233264 0.250000 0.310832
Si Si2 0.792842 0.014094 0.139618
Si Si3 0.107529 0.121616 0.047340
Si Si4 0.887962 0.378629 0.768367
Si Si5 0.687825 0.874541 0.988642
Si Si6 0.608654 0.886089 0.148601
Si Si7 0.390022 0.750000 0.897444
O O1 0.250000 0.250000 0.250000
O O2 0.274231 0.363449 0.335554
O O3 0.127641 0.250000 0.336452
O O4 0.865034 0.035050 0.092468
O O5 0.836567 0.945251 0.187103
O O6 0.698937 0.943956 0.122040
O O7 0.110084 0.250000 0.068639
O O8 0.197113 0.119964 0.008152
O O9 0.000000 0.105520 0.027660
O O10 0.854244 0.250000 0.769119
O O11 0.878982 0.420047 0.709237
O O12 0.000000 0.379469 0.779285
O O13 0.657562 0.750000 0.012520
O O14 0.659954 0.851356 0.928645
O O15 0.649403 0.000000 0.000000
O O16 0.500000 0.918760 0.132564
O O17 0.613181 0.750000 0.145866
O O18 0.500000 0.750000 0.909549
#
# Coordination Sequence:
#
# PCOD9538529 Si02
#       7
#     8  16  16  16  16  16   8
#     4  12  24  38  57  88 132 181 236 273 323 397
#     4  12  19  35  52  80 114 156 211 267 322 370
#     4  10  20  38  60  84 123 169 210 257 324 397
#     4   9  18  32  50  73  98 138 199 262 326 391
#     4   9  19  41  69 103 134 175 221 276 355 432
#     4   9  19  34  51  71  99 143 201 261 328 391
#     4  10  22  44  68  98 138 178 225 287 348 413
#
# _framework density 22.315194999999999
#
# number of rings (size 3 to 8) (size 9 to 14) (size 15 to 20)
#    0.500    1.500    2.500    3.500    0.000    2.667 
#    0.000    3.333    0.000    2.000    0.000    0.000 
#    0.000    0.000    0.000    0.000    0.000    0.000 
#
# Total GULP energy -267490.456441 kJ/mol
# GULP energy per Si atom -5572.717843 kJ/mol
# Density = 2.226440 g / cm^3
# Si number density = 22.315195 Si / 1000 Ang^3
#
#
#
# Elastic Constant Matrix: (Units=GPa)
#
#
# Indices 1 2 3 4 5 6 
#
# 1 64.7507 39.6707 8.9334 0.0000 0.0000 0.0000
# 2 39.6707 99.2661 19.1048 0.0000 0.0000 0.0000
# 3 8.9334 19.1048 43.7357 0.0000 0.0000 0.0000
# 4 0.0000 0.0000 0.0000 40.7241 0.0000 0.0000
# 5 0.0000 0.0000 0.0000 0.0000 8.6924 0.0000
# 6 0.0000 0.0000 0.0000 0.0000 0.0000 -6.0638
#
#
#
# Elastic Compliance Matrix: (Units=1/GPa)
#
#
# Indices 1 2 3 4 5 6 
#
# 1 0.020469 -0.008053 -0.000663 0.000000 0.000000 0.000000
# 2 -0.008053 0.014166 -0.004543 0.000000 0.000000 0.000000
# 3 -0.000663 -0.004543 0.024985 0.000000 0.000000 0.000000
# 4 0.000000 0.000000 0.000000 0.024555 0.000000 0.000000
# 5 0.000000 0.000000 0.000000 0.000000 0.115043 0.000000
# 6 0.000000 0.000000 0.000000 0.000000 0.000000 -0.164914
#
#
# Mechanical properties :
#
#
# Convention : Reuss Voigt Hill
#
# Bulk Modulus (GPa) = 30.21019 38.13004 34.17011
# Shear Modulus (GPa) = 69.58231 18.00679 43.79455
#
# Velocity S-wave (km/s) = 5.59011 2.84373 4.43487
# Velocity P-wave (km/s) = 7.43189 5.28266 6.44746
#
# Compressibility (1/GPa) = 0.03310141
#
# Stress axis : x y z
#
# Youngs Moduli (GPa) = 48.85461 70.58910 40.02430
#
# Poissons Ratio (x) = 0.56842 0.02655
# Poissons Ratio (y) = 0.39340 0.18185
# Poissons Ratio (z) = 0.03241 0.32072
#
# Static dielectric constant tensor:
#      x y z
#    x 1.845510 0.000000 0.000000 
#    y 0.000000 1.810290 0.000000 
#    z 0.000000 0.000000 1.855020 
# 
# From -- ./inp_files/72471.got.cif
#   From: 2010.05.17/outbox.cif.g08.bks.cpg/sg74_37_cif.got.tgz:72471.got - 2010.06.03 17:57:02.
