data_PCOD9538526
_publ_section_title
;
Structure prediction by ZEFSAII (Michael W. Deem and Ramdas Pophale) SiO2 
 PCOD9538526
Probable space group: I M M A
;
_chemical_formula_sum "Si O2"
_cell_formula_units_Z 72
_cell_length_a 13.302592
_cell_length_b 9.052102
_cell_length_c 32.361691
_cell_angle_alpha 90.000000
_cell_angle_beta 90.000000
_cell_angle_gamma 90.000000
_cell_volume 3896.878964
_symmetry_space_group_name_H-M "I M M A"
_symmetry_group_IT_number 74
_symmetry_cell_setting 'orthorhombic'
loop_
_space_group_symop_operation_xyz
x,y,z
-x,1/2-y,z
x,-y,-z
-x,1/2+y,-z
-x,-y,-z
x,1/2+y,-z
-x,y,z
x,1/2-y,z
1/2+x,1/2+y,1/2+z
1/2-x,-y,1/2+z
1/2+x,1/2-y,1/2-z
1/2-x,y,1/2-z
1/2-x,1/2-y,1/2-z
1/2+x,y,1/2-z
1/2-x,1/2+y,1/2+z
1/2+x,-y,1/2+z
loop_
_atom_site_type_symbol
_atom_site_label
_atom_site_fract_x
_atom_site_fract_y
_atom_site_fract_z
Si Si1 0.122150 0.416783 0.778529
Si Si2 0.500000 0.429846 0.045049
Si Si3 0.819659 0.070547 0.395307
Si Si4 0.885767 0.572033 0.864490
Si Si5 0.879519 0.582471 0.696188
O O1 0.158180 0.250000 0.784605
O O2 0.144057 0.515108 0.818803
O O3 0.153043 0.483076 0.734432
O O4 0.000000 0.412565 0.777181
O O5 0.500000 0.250000 0.042612
O O6 0.400126 0.522938 0.929423
O O7 0.500000 0.500000 0.000000
O O8 0.823080 0.250000 0.395979
O O9 0.702205 0.026365 0.396296
O O10 0.855814 0.025810 0.349549
O O11 0.887380 0.750000 0.863274
O O12 0.000000 0.521232 0.873612
O O13 0.839367 0.750000 0.700572
O O14 0.000000 0.592244 0.698612
#
# Coordination Sequence:
#
# PCOD9538526 Si02
#       5
#    16   8  16  16  16
#     4   9  17  28  41  62  97 137 169 205 248 283
#     4  10  20  38  60  82 104 124 152 198 256 312
#     4   9  17  31  53  75  95 123 160 203 247 289
#     4   9  17  30  48  70  95 128 171 207 234 276
#     4   9  15  26  45  66  89 123 168 210 244 283
#
# _framework density 18.476324999999999
#
# number of rings (size 3 to 8) (size 9 to 14) (size 15 to 20)
#    0.000    2.889    1.111    0.667    0.000    3.556 
#    0.000    7.778    0.000    0.667    0.000    0.000 
#    0.000    0.000    0.000    0.000    0.000    0.000 
#
# Total GULP energy -200653.423605 kJ/mol
# GULP energy per Si atom -5573.706211 kJ/mol
# Density = 1.843427 g / cm^3
# Si number density = 18.476325 Si / 1000 Ang^3
#
#
#
# Elastic Constant Matrix: (Units=GPa)
#
#
# Indices 1 2 3 4 5 6 
#
# 1 129.1453 21.3991 80.7570 0.0000 0.0000 0.0000
# 2 21.3991 24.4265 21.3839 0.0000 0.0000 0.0000
# 3 80.7570 21.3839 108.3075 0.0000 0.0000 0.0000
# 4 0.0000 0.0000 0.0000 21.7227 0.0000 0.0000
# 5 0.0000 0.0000 0.0000 0.0000 19.2276 0.0000
# 6 0.0000 0.0000 0.0000 0.0000 0.0000 12.1637
#
#
#
# Elastic Compliance Matrix: (Units=1/GPa)
#
#
# Indices 1 2 3 4 5 6 
#
# 1 0.014824 -0.004002 -0.010263 0.000000 0.000000 0.000000
# 2 -0.004002 0.050574 -0.007001 0.000000 0.000000 0.000000
# 3 -0.010263 -0.007001 0.018268 0.000000 0.000000 0.000000
# 4 0.000000 0.000000 0.000000 0.046035 0.000000 0.000000
# 5 0.000000 0.000000 0.000000 0.000000 0.052009 0.000000
# 6 0.000000 0.000000 0.000000 0.000000 0.000000 0.082212
#
#
# Mechanical properties :
#
#
# Convention : Reuss Voigt Hill
#
# Bulk Modulus (GPa) = 24.31118 56.55105 40.43111
# Shear Modulus (GPa) = 15.61696 19.84543 17.73120
#
# Velocity S-wave (km/s) = 2.91046 3.28090 3.10122
# Velocity P-wave (km/s) = 4.94782 6.71015 5.89521
#
# Compressibility (1/GPa) = 0.04113334
#
# Stress axis : x y z
#
# Youngs Moduli (GPa) = 67.45803 19.77293 54.74165
#
# Poissons Ratio (x) = 0.07913 0.56182
# Poissons Ratio (y) = 0.26998 0.38325
# Poissons Ratio (z) = 0.69232 0.13843
#
# Static dielectric constant tensor:
#      x y z
#    x 1.757570 0.000000 0.000000 
#    y 0.000000 1.641660 0.000000 
#    z 0.000000 0.000000 1.583950 
# 
# From -- ./inp_files/66744.got.cif
#   From: 2010.05.17/outbox.cif.g08.bks.cpg/sg74_34_cif.got.tgz:66744.got - 2010.06.03 17:57:02.
