data_PCOD9538248
_publ_section_title
;
Structure prediction by ZEFSAII (Michael W. Deem and Ramdas Pophale) SiO2 
 PCOD9538248
Probable space group: I M M A
;
_chemical_formula_sum "Si O2"
_cell_formula_units_Z 96
_cell_length_a 7.834352
_cell_length_b 30.810397
_cell_length_c 19.718845
_cell_angle_alpha 90.000000
_cell_angle_beta 90.000000
_cell_angle_gamma 90.000000
_cell_volume 4759.724855
_symmetry_space_group_name_H-M "I M M A"
_symmetry_group_IT_number 74
_symmetry_cell_setting 'orthorhombic'
loop_
_space_group_symop_operation_xyz
x,y,z
-x,1/2-y,z
x,-y,-z
-x,1/2+y,-z
-x,-y,-z
x,1/2+y,-z
-x,y,z
x,1/2-y,z
1/2+x,1/2+y,1/2+z
1/2-x,-y,1/2+z
1/2+x,1/2-y,1/2-z
1/2-x,y,1/2-z
1/2-x,1/2-y,1/2-z
1/2+x,y,1/2-z
1/2-x,1/2+y,1/2+z
1/2+x,-y,1/2+z
loop_
_atom_site_type_symbol
_atom_site_label
_atom_site_fract_x
_atom_site_fract_y
_atom_site_fract_z
Si Si1 0.209334 0.870976 0.420717
Si Si2 0.205908 0.200774 0.329003
Si Si3 0.699157 0.024863 0.431929
Si Si4 0.704930 0.701347 0.177561
Si Si5 0.204307 0.952066 0.329021
Si Si6 0.203142 0.876789 0.573619
O O1 0.266078 0.827572 0.383554
O O2 0.263618 0.911059 0.373844
O O3 0.271647 0.871882 0.497272
O O4 0.000000 0.871988 0.421969
O O5 0.265769 0.250000 0.347857
O O6 0.250000 0.193879 0.250000
O O7 0.269593 0.160343 0.374954
O O8 0.000000 0.201511 0.334090
O O9 0.500000 0.031874 0.445905
O O10 0.772090 0.072036 0.412960
O O11 0.770714 0.000000 0.500000
O O12 0.723151 0.993683 0.367797
O O13 0.500000 0.703513 0.173831
O O14 0.775127 0.750000 0.176193
O O15 0.750000 0.681046 0.250000
O O16 0.250000 0.948937 0.250000
O O17 0.000000 0.953952 0.333737
O O18 0.000000 0.869609 0.571168
#
# Coordination Sequence:
#
# PCOD9538248 Si02
#       6
#    16  16  16  16  16  16
#     4   9  18  32  52  78 106 140 180 223 271 326
#     4   9  19  36  59  86 116 150 188 234 286 342
#     4  11  23  39  58  82 113 148 190 238 290 342
#     4   9  17  30  48  71 101 137 175 217 264 314
#     4  11  22  37  58  82 111 146 188 231 280 337
#     4  10  20  36  59  84 111 147 189 229 280 340
#
# _framework density 20.169232999999998
#
# number of rings (size 3 to 8) (size 9 to 14) (size 15 to 20)
#    0.000    2.167    1.667    1.500    0.000    2.667 
#    0.000    6.667    0.000    0.000    0.000    4.667 
#    0.000    0.000    0.000    0.000    0.000    0.000 
#
# Total GULP energy -267716.152317 kJ/mol
# GULP energy per Si atom -5577.419840 kJ/mol
# Density = 2.012333 g / cm^3
# Si number density = 20.169233 Si / 1000 Ang^3
#
#
#
# Elastic Constant Matrix: (Units=GPa)
#
#
# Indices 1 2 3 4 5 6 
#
# 1 23.3529 2.6839 -0.4216 0.0000 0.0000 0.0000
# 2 2.6839 156.0047 100.3947 0.0000 0.0000 0.0000
# 3 -0.4216 100.3947 144.1272 -0.0001 0.0000 0.0000
# 4 0.0000 0.0000 -0.0001 46.4644 0.0000 0.0000
# 5 0.0000 0.0000 0.0000 0.0000 16.4943 0.0000
# 6 0.0000 0.0000 0.0000 0.0000 0.0000 4.9255
#
#
#
# Elastic Compliance Matrix: (Units=1/GPa)
#
#
# Indices 1 2 3 4 5 6 
#
# 1 0.043013 -0.001488 0.001162 0.000000 0.000000 0.000000
# 2 -0.001488 0.011670 -0.008133 0.000000 0.000000 0.000000
# 3 0.001162 -0.008133 0.012607 0.000000 0.000000 0.000000
# 4 0.000000 0.000000 0.000000 0.021522 0.000000 0.000000
# 5 0.000000 0.000000 0.000000 0.000000 0.060627 0.000000
# 6 0.000000 0.000000 0.000000 0.000000 0.000000 0.203025
#
#
# Mechanical properties :
#
#
# Convention : Reuss Voigt Hill
#
# Bulk Modulus (GPa) = 19.85213 58.75541 39.30377
# Shear Modulus (GPa) = 12.94759 28.29870 20.62314
#
# Velocity S-wave (km/s) = 2.53642 3.74981 3.20113
# Velocity P-wave (km/s) = 4.29442 6.92406 5.76128
#
# Compressibility (1/GPa) = 0.05037242
#
# Stress axis : x y z
#
# Youngs Moduli (GPa) = 23.24862 85.69313 79.32149
#
# Poissons Ratio (x) = 0.12751 -0.09220
# Poissons Ratio (y) = 0.03459 0.64512
# Poissons Ratio (z) = -0.02702 0.69694
#
# Static dielectric constant tensor:
#      x y z
#    x 1.727160 0.000000 0.000000 
#    y 0.000000 1.732330 0.000000 
#    z 0.000000 0.000000 1.702900 
# 
# From -- ./inp_files/49172.got.cif
#   From: 2010.05.17/outbox.cif.g08.bks.cpg/sg74_25_cif.got.tgz:49172.got - 2010.06.03 17:57:02.
