data_PCOD9538413
_publ_section_title
;
Structure prediction by ZEFSAII (Michael W. Deem and Ramdas Pophale) SiO2 
 PCOD9538413
Probable space group: I M M A
;
_chemical_formula_sum "Si O2"
_cell_formula_units_Z 104
_cell_length_a 21.014408
_cell_length_b 9.101316
_cell_length_c 30.524726
_cell_angle_alpha 90.000000
_cell_angle_beta 90.000000
_cell_angle_gamma 90.000000
_cell_volume 5838.121481
_symmetry_space_group_name_H-M "I M M A"
_symmetry_group_IT_number 74
_symmetry_cell_setting 'orthorhombic'
loop_
_space_group_symop_operation_xyz
x,y,z
-x,1/2-y,z
x,-y,-z
-x,1/2+y,-z
-x,-y,-z
x,1/2+y,-z
-x,y,z
x,1/2-y,z
1/2+x,1/2+y,1/2+z
1/2-x,-y,1/2+z
1/2+x,1/2-y,1/2-z
1/2-x,y,1/2-z
1/2-x,1/2-y,1/2-z
1/2+x,y,1/2-z
1/2-x,1/2+y,1/2+z
1/2+x,-y,1/2+z
loop_
_atom_site_type_symbol
_atom_site_label
_atom_site_fract_x
_atom_site_fract_y
_atom_site_fract_z
Si Si1 0.126011 0.574870 0.369477
Si Si2 0.927232 0.073588 0.282599
Si Si3 0.640874 0.427278 0.547935
Si Si4 0.811075 0.426734 0.220329
Si Si5 0.000000 0.574255 0.047381
Si Si6 0.576815 0.918612 0.956103
Si Si7 0.276368 0.073997 0.630545
O O1 0.117185 0.750000 0.369590
O O2 0.091921 0.504619 0.327607
O O3 0.098664 0.504917 0.413476
O O4 0.201269 0.542403 0.368007
O O5 0.922861 0.250000 0.289032
O O6 0.875336 0.032843 0.246076
O O7 0.000000 0.038435 0.270626
O O8 0.649152 0.500000 0.500000
O O9 0.644519 0.250000 0.542543
O O10 0.569552 0.464442 0.566042
O O11 0.691803 0.472615 0.584607
O O12 0.808795 0.250000 0.215994
O O13 0.750000 0.470919 0.250000
O O14 0.806956 0.498498 0.172806
O O15 0.000000 0.750000 0.042890
O O16 0.000000 0.500000 0.000000
O O17 0.500000 0.917493 0.956809
O O18 0.598783 0.750000 0.955112
O O19 0.599192 0.000000 0.000000
O O20 0.284675 0.250000 0.633844
#
# Coordination Sequence:
#
# PCOD9538413 Si02
#       7
#    16  16  16  16   8  16  16
#     4  11  22  35  54  80 110 144 183 224 270 326
#     4  10  21  38  59  82 109 140 179 229 277 323
#     4   9  18  34  54  78 107 139 177 219 264 315
#     4  10  20  37  60  82 106 142 186 224 268 327
#     4   8  14  28  52  74  98 134 174 214 258 308
#     4  10  21  37  56  78 107 143 182 226 275 323
#     4  10  22  37  54  80 113 145 179 220 269 322
#
# _framework density 17.813949999999998
#
# number of rings (size 3 to 8) (size 9 to 14) (size 15 to 20)
#    0.000    2.154    1.538    1.385    0.000    5.846 
#    1.385    1.538    0.000    0.000    0.000    0.000 
#    0.000    0.000    0.000    0.000    0.000    0.000 
#
# Total GULP energy -290069.924498 kJ/mol
# GULP energy per Si atom -5578.267779 kJ/mol
# Density = 1.777340 g / cm^3
# Si number density = 17.813950 Si / 1000 Ang^3
#
#
#
# Elastic Constant Matrix: (Units=GPa)
#
#
# Indices 1 2 3 4 5 6 
#
# 1 103.1784 40.0736 52.6062 0.0000 0.0000 0.0000
# 2 40.0736 24.8391 37.6798 0.0000 0.0000 0.0000
# 3 52.6062 37.6798 122.8739 0.0000 0.0000 0.0000
# 4 0.0000 0.0000 0.0000 35.3376 0.0000 0.0000
# 5 0.0000 0.0000 0.0000 0.0000 34.3107 0.0000
# 6 0.0000 0.0000 0.0000 0.0000 0.0000 16.9842
#
#
#
# Elastic Compliance Matrix: (Units=1/GPa)
#
#
# Indices 1 2 3 4 5 6 
#
# 1 0.026661 -0.048050 0.003320 0.000000 0.000000 0.000000
# 2 -0.048050 0.161874 -0.029068 0.000000 0.000000 0.000000
# 3 0.003320 -0.029068 0.015631 0.000000 0.000000 0.000000
# 4 0.000000 0.000000 0.000000 0.028298 0.000000 0.000000
# 5 0.000000 0.000000 0.000000 0.000000 0.029145 0.000000
# 6 0.000000 0.000000 0.000000 0.000000 0.000000 0.058878
#
#
# Mechanical properties :
#
#
# Convention : Reuss Voigt Hill
#
# Bulk Modulus (GPa) = 17.67692 56.84564 37.26128
# Shear Modulus (GPa) = 10.26820 25.36198 17.81509
#
# Velocity S-wave (km/s) = 2.40347 3.77731 3.16581
# Velocity P-wave (km/s) = 4.20081 7.14172 5.85879
#
# Compressibility (1/GPa) = 0.05657095
#
# Stress axis : x y z
#
# Youngs Moduli (GPa) = 37.50737 6.17764 63.97694
#
# Poissons Ratio (x) = 0.29684 -0.21242
# Poissons Ratio (y) = 1.80224 1.85966
# Poissons Ratio (z) = -0.12453 0.17957
#
# Static dielectric constant tensor:
#      x y z
#    x 1.633990 0.000000 0.000000 
#    y 0.000000 1.598240 0.000000 
#    z 0.000000 0.000000 1.563910 
# 
# From -- ./inp_files/73403.got.cif
#   From: 2010.05.17/outbox.cif.g08.bks.cpg/sg74_37_cif.got.tgz:73403.got - 2010.06.03 17:57:02.
