data_PCOD9538334
_publ_section_title
;
Structure prediction by ZEFSAII (Michael W. Deem and Ramdas Pophale) SiO2 
 PCOD9538334
Probable space group: I M M A
;
_chemical_formula_sum "Si O2"
_cell_formula_units_Z 80
_cell_length_a 14.020000
_cell_length_b 24.666876
_cell_length_c 9.757434
_cell_angle_alpha 90.000000
_cell_angle_beta 90.000000
_cell_angle_gamma 90.000000
_cell_volume 3374.409512
_symmetry_space_group_name_H-M "I M M A"
_symmetry_group_IT_number 74
_symmetry_cell_setting 'orthorhombic'
loop_
_space_group_symop_operation_xyz
x,y,z
-x,1/2-y,z
x,-y,-z
-x,1/2+y,-z
-x,-y,-z
x,1/2+y,-z
-x,y,z
x,1/2-y,z
1/2+x,1/2+y,1/2+z
1/2-x,-y,1/2+z
1/2+x,1/2-y,1/2-z
1/2-x,y,1/2-z
1/2-x,1/2-y,1/2-z
1/2+x,y,1/2-z
1/2-x,1/2+y,1/2+z
1/2+x,-y,1/2+z
loop_
_atom_site_type_symbol
_atom_site_label
_atom_site_fract_x
_atom_site_fract_y
_atom_site_fract_z
Si Si1 0.389502 0.964732 0.125906
Si Si2 0.108288 0.872108 0.825628
Si Si3 0.891866 0.442639 0.926256
Si Si4 0.110449 0.353864 0.470736
Si Si5 0.719075 0.250000 0.907041
Si Si6 0.343813 0.250000 0.350386
O O1 0.500000 0.985258 0.141066
O O2 0.349388 0.958608 0.278995
O O3 0.390582 0.903666 0.072859
O O4 0.346469 0.000000 0.000000
O O5 0.151169 0.877721 0.673209
O O6 0.105816 0.807031 0.831905
O O7 0.000000 0.894731 0.819231
O O8 0.150363 0.899760 0.963220
O O9 0.000000 0.422076 0.895927
O O10 0.897493 0.500000 0.000000
O O11 0.163204 0.302977 0.537925
O O12 0.000000 0.337790 0.444250
O O13 0.750000 0.250000 0.750000
O O14 0.815037 0.250000 0.992651
O O15 0.250000 0.250000 0.250000
#
# Coordination Sequence:
#
# PCOD9538334 Si02
#       6
#    16  16  16  16   8   8
#     4   9  17  30  52  84 119 152 187 236 295 351
#     4  10  20  36  61  89 117 153 199 249 297 356
#     4   9  17  30  52  86 119 147 187 241 295 347
#     4  10  20  38  61  86 117 155 199 245 299 360
#     4  12  27  41  57  85 118 162 202 247 301 361
#     4  12  23  41  59  83 116 159 200 243 298 357
#
# _framework density 23.707853
#
# number of rings (size 3 to 8) (size 9 to 14) (size 15 to 20)
#    0.000    2.000    2.000    1.800    2.800    6.400 
#    0.000    1.000    0.000    1.200    0.000    0.000 
#    0.000    0.000    0.000    0.000    0.000    0.000 
#
# Total GULP energy -223132.300309 kJ/mol
# GULP energy per Si atom -5578.307508 kJ/mol
# Density = 2.365389 g / cm^3
# Si number density = 23.707853 Si / 1000 Ang^3
#
#
#
# Elastic Constant Matrix: (Units=GPa)
#
#
# Indices 1 2 3 4 5 6 
#
# 1 67.4162 5.0725 38.1660 0.0000 0.0000 0.0001
# 2 5.0725 117.3506 60.2636 0.0001 0.0001 0.0003
# 3 38.1660 60.2636 262.0674 -0.0003 0.0004 0.0000
# 4 0.0000 0.0001 -0.0003 35.2696 0.0003 -0.0003
# 5 0.0000 0.0001 0.0004 0.0003 22.2773 -0.0001
# 6 0.0001 0.0003 0.0000 -0.0003 -0.0001 -119.6471
#
#
#
# Elastic Compliance Matrix: (Units=1/GPa)
#
#
# Indices 1 2 3 4 5 6 
#
# 1 0.016201 0.000580 -0.002493 0.000000 0.000000 0.000000
# 2 0.000580 0.009683 -0.002311 0.000000 0.000000 0.000000
# 3 -0.002493 -0.002311 0.004710 0.000000 0.000000 0.000000
# 4 0.000000 0.000000 0.000000 0.028353 0.000000 0.000000
# 5 0.000000 0.000000 0.000000 0.000000 0.044889 0.000000
# 6 0.000000 0.000000 0.000000 0.000000 0.000000 -0.008358
#
#
# Mechanical properties :
#
#
# Convention : Reuss Voigt Hill
#
# Bulk Modulus (GPa) = 45.15439 72.64872 58.90155
# Shear Modulus (GPa) = 44.92024 10.46876 27.69450
#
# Velocity S-wave (km/s) = 4.35758 2.10365 3.42154
# Velocity P-wave (km/s) = 6.66375 6.05064 6.36458
#
# Compressibility (1/GPa) = 0.02214624
#
# Stress axis : x y z
#
# Youngs Moduli (GPa) = 61.72540 103.27090 212.30075
#
# Poissons Ratio (x) = -0.05988 0.52921
# Poissons Ratio (y) = -0.03579 0.49066
# Poissons Ratio (z) = 0.15386 0.23868
#
# Static dielectric constant tensor:
#      x y z
#    x 2.016970 0.000000 0.000000 
#    y 0.000000 1.910290 0.000000 
#    z 0.000000 0.000000 2.078580 
# 
# From -- ./inp_files/11019.got.cif
#   From: 2010.05.17/outbox.cif.g08.bks.cpg/sg74_6_cif.got.tgz:11019.got - 2010.06.03 17:57:02.
