data_PCOD9538139
_publ_section_title
;
Structure prediction by ZEFSAII (Michael W. Deem and Ramdas Pophale) SiO2 
 PCOD9538139
Probable space group: I M M A
;
_chemical_formula_sum "Si O2"
_cell_formula_units_Z 116
_cell_length_a 25.981910
_cell_length_b 9.561902
_cell_length_c 25.677887
_cell_angle_alpha 90.000000
_cell_angle_beta 90.000000
_cell_angle_gamma 90.000000
_cell_volume 6379.323788
_symmetry_space_group_name_H-M "I M M A"
_symmetry_group_IT_number 74
_symmetry_cell_setting 'orthorhombic'
loop_
_space_group_symop_operation_xyz
x,y,z
-x,1/2-y,z
x,-y,-z
-x,1/2+y,-z
-x,-y,-z
x,1/2+y,-z
-x,y,z
x,1/2-y,z
1/2+x,1/2+y,1/2+z
1/2-x,-y,1/2+z
1/2+x,1/2-y,1/2-z
1/2-x,y,1/2-z
1/2-x,1/2-y,1/2-z
1/2+x,y,1/2-z
1/2-x,1/2+y,1/2+z
1/2+x,-y,1/2+z
loop_
_atom_site_type_symbol
_atom_site_label
_atom_site_fract_x
_atom_site_fract_y
_atom_site_fract_z
Si Si1 0.337531 0.913963 0.947137
Si Si2 0.440741 0.081330 0.755358
Si Si3 0.870402 0.409249 0.954040
Si Si4 0.220129 0.086807 0.094104
Si Si5 0.000000 0.250000 0.120321
Si Si6 0.130393 0.587622 0.350735
Si Si7 0.442737 0.529656 0.360123
Si Si8 0.747903 0.089492 0.810823
O O1 0.350201 0.750000 0.952885
O O2 0.277233 0.922372 0.930575
O O3 0.368977 0.988698 0.900859
O O4 0.344723 0.000000 0.000000
O O5 0.500000 0.033555 0.760507
O O6 0.439963 0.250000 0.754926
O O7 0.406883 0.037675 0.804517
O O8 0.421400 0.034397 0.698580
O O9 0.859674 0.250000 0.970438
O O10 0.819156 0.493701 0.938856
O O11 0.906077 0.406877 0.903147
O O12 0.896088 0.500000 0.000000
O O13 0.205403 0.250000 0.096009
O O14 0.223199 0.017171 0.151307
O O15 0.044155 0.372550 0.123274
O O16 0.117857 0.750000 0.364059
O O17 0.188367 0.588160 0.328284
O O18 0.500000 0.597546 0.357667
O O19 0.767245 0.250000 0.817588
O O20 0.750000 0.054428 0.750000
#
# Coordination Sequence:
#
# PCOD9538139 Si02
#       8
#    16  16  16  16   4  16  16  16
#     4  10  20  36  56  80 108 145 183 225 268 323
#     4   9  17  33  57  83 112 142 183 228 272 328
#     4  12  26  39  59  82 110 144 188 235 284 335
#     4  10  22  37  55  78 112 145 186 228 276 330
#     4   8  20  40  60  80 110 142 188 224 286 342
#     4   9  18  32  52  80 109 144 181 223 271 321
#     4   9  21  39  59  80 108 143 185 226 281 331
#     4   9  18  32  51  77 111 148 187 226 271 330
#
# _framework density 18.183745999999999
#
# number of rings (size 3 to 8) (size 9 to 14) (size 15 to 20)
#    0.414    1.931    0.000    2.069    3.862    4.138 
#    1.241    0.000    0.000    0.414    0.000    0.000 
#    0.000    0.000    0.000    0.000    0.000    0.000 
#
# Total GULP energy -322871.446329 kJ/mol
# GULP energy per Si atom -5566.749075 kJ/mol
# Density = 1.814236 g / cm^3
# Si number density = 18.183746 Si / 1000 Ang^3
#
#
#
# Elastic Constant Matrix: (Units=GPa)
#
#
# Indices 1 2 3 4 5 6 
#
# 1 30.2884 23.9216 29.9061 0.0000 0.0000 0.0000
# 2 23.9216 125.4073 63.8092 0.0000 0.0000 0.0000
# 3 29.9061 63.8092 134.6026 0.0000 0.0000 0.0000
# 4 0.0000 0.0000 0.0000 14.4148 0.0000 0.0000
# 5 0.0000 0.0000 0.0000 0.0000 17.4274 0.0000
# 6 0.0000 0.0000 0.0000 0.0000 0.0000 588.3308
#
#
#
# Elastic Compliance Matrix: (Units=1/GPa)
#
#
# Indices 1 2 3 4 5 6 
#
# 1 0.044158 -0.004522 -0.007667 0.000000 0.000000 0.000000
# 2 -0.004522 0.010972 -0.004197 0.000000 0.000000 0.000000
# 3 -0.007667 -0.004197 0.011122 0.000000 0.000000 0.000000
# 4 0.000000 0.000000 0.000000 0.069373 0.000000 0.000000
# 5 0.000000 0.000000 0.000000 0.000000 0.057381 0.000000
# 6 0.000000 0.000000 0.000000 0.000000 0.000000 0.001700
#
#
# Mechanical properties :
#
#
# Convention : Reuss Voigt Hill
#
# Bulk Modulus (GPa) = 29.86833 58.39686 44.13260
# Shear Modulus (GPa) = 20.95225 135.54535 78.24880
#
# Velocity S-wave (km/s) = 3.39817 8.64314 6.56702
# Velocity P-wave (km/s) = 5.64431 11.47997 9.04566
#
# Compressibility (1/GPa) = 0.03348027
#
# Stress axis : x y z
#
# Youngs Moduli (GPa) = 22.64599 91.14216 89.90985
#
# Poissons Ratio (x) = 0.41213 0.68937
# Poissons Ratio (y) = 0.10240 0.37732
# Poissons Ratio (z) = 0.17364 0.38249
#
# Static dielectric constant tensor:
#      x y z
#    x 1.637970 0.000000 0.000000 
#    y 0.000000 1.622620 0.000000 
#    z 0.000000 0.000000 1.629850 
# 
# From -- ./inp_files/62415.got.cif
#   From: 2010.05.17/outbox.cif.g08.bks.cpg/sg74_32_cif.got.tgz:62415.got - 2010.06.03 17:57:02.
