data_PCOD9539098
_publ_section_title
;
Structure prediction by ZEFSAII (Michael W. Deem and Ramdas Pophale) SiO2 
 PCOD9539098
Probable space group: I M M A
;
_chemical_formula_sum "Si O2"
_cell_formula_units_Z 96
_cell_length_a 29.463610
_cell_length_b 9.093553
_cell_length_c 19.303920
_cell_angle_alpha 90.000000
_cell_angle_beta 90.000000
_cell_angle_gamma 90.000000
_cell_volume 5172.078034
_symmetry_space_group_name_H-M "I M M A"
_symmetry_group_IT_number 74
_symmetry_cell_setting 'orthorhombic'
loop_
_space_group_symop_operation_xyz
x,y,z
-x,1/2-y,z
x,-y,-z
-x,1/2+y,-z
-x,-y,-z
x,1/2+y,-z
-x,y,z
x,1/2-y,z
1/2+x,1/2+y,1/2+z
1/2-x,-y,1/2+z
1/2+x,1/2-y,1/2-z
1/2-x,y,1/2-z
1/2-x,1/2-y,1/2-z
1/2+x,y,1/2-z
1/2-x,1/2+y,1/2+z
1/2+x,-y,1/2+z
loop_
_atom_site_type_symbol
_atom_site_label
_atom_site_fract_x
_atom_site_fract_y
_atom_site_fract_z
Si Si1 0.384949 0.922729 0.664908
Si Si2 0.724731 0.075439 0.821717
Si Si3 0.054197 0.082940 0.931796
Si Si4 0.052480 0.926273 0.424486
Si Si5 0.306961 0.424126 0.574689
Si Si6 0.871976 0.424006 0.328227
O O1 0.382317 0.750000 0.649572
O O2 0.382174 0.943408 0.746749
O O3 0.430444 0.992181 0.634291
O O4 0.345088 0.005975 0.624162
O O5 0.714851 0.250000 0.814126
O O6 0.750000 0.028777 0.750000
O O7 0.759706 0.055021 0.884568
O O8 0.678387 0.990145 0.836662
O O9 0.071027 0.250000 0.929571
O O10 0.000000 0.087137 0.936133
O O11 0.071972 0.000000 0.000000
O O12 0.058072 0.750000 0.429383
O O13 0.000000 0.955146 0.402055
O O14 0.057875 0.000000 0.500000
O O15 0.089998 0.994244 0.373556
O O16 0.306987 0.500000 0.500000
O O17 0.314635 0.250000 0.567195
O O18 0.872339 0.250000 0.344168
#
# Coordination Sequence:
#
# PCOD9539098 Si02
#       6
#    16  16  16  16  16  16
#     4  11  23  38  57  84 118 156 196 241 294 351
#     4  10  21  40  63  86 117 160 205 253 306 361
#     4  10  21  37  57  80 109 148 193 242 294 347
#     4  10  22  42  68  95 126 164 206 256 312 372
#     4  11  23  39  61  87 117 154 198 247 299 357
#     4  11  24  39  62  93 125 162 201 248 304 365
#
# _framework density 18.561204
#
# number of rings (size 3 to 8) (size 9 to 14) (size 15 to 20)
#    0.000    1.500    1.667    3.000    0.000    7.000 
#    0.000    5.000    0.000    0.000    0.000    0.000 
#    0.000    0.000    0.000    0.000    0.000    0.000 
#
# Total GULP energy -268186.216198 kJ/mol
# GULP energy per Si atom -5587.212837 kJ/mol
# Density = 1.851896 g / cm^3
# Si number density = 18.561204 Si / 1000 Ang^3
#
#
#
# Elastic Constant Matrix: (Units=GPa)
#
#
# Indices 1 2 3 4 5 6 
#
# 1 117.9367 78.9729 68.9445 0.0000 0.0000 0.0000
# 2 78.9729 133.2025 87.7283 0.0000 0.0000 0.0000
# 3 68.9445 87.7283 98.0075 0.0000 0.0000 0.0000
# 4 0.0000 0.0000 0.0000 31.5101 0.0000 0.0000
# 5 0.0000 0.0000 0.0000 0.0000 21.9107 0.0000
# 6 0.0000 0.0000 0.0000 0.0000 0.0000 30.4532
#
#
#
# Elastic Compliance Matrix: (Units=1/GPa)
#
#
# Indices 1 2 3 4 5 6 
#
# 1 0.015628 -0.004933 -0.006578 0.000000 0.000000 0.000000
# 2 -0.004933 0.019847 -0.014295 0.000000 0.000000 0.000000
# 3 -0.006578 -0.014295 0.027626 0.000000 0.000000 0.000000
# 4 0.000000 0.000000 0.000000 0.031736 0.000000 0.000000
# 5 0.000000 0.000000 0.000000 0.000000 0.045640 0.000000
# 6 0.000000 0.000000 0.000000 0.000000 0.000000 0.032837
#
#
# Mechanical properties :
#
#
# Convention : Reuss Voigt Hill
#
# Bulk Modulus (GPa) = 87.03985 91.15979 89.09982
# Shear Modulus (GPa) = 21.85736 24.34154 23.09945
#
# Velocity S-wave (km/s) = 3.43532 3.62528 3.53158
# Velocity P-wave (km/s) = 7.92025 8.16966 8.04592
#
# Compressibility (1/GPa) = 0.01148899
#
# Stress axis : x y z
#
# Youngs Moduli (GPa) = 63.98861 50.38524 36.19743
#
# Poissons Ratio (x) = 0.24856 0.23810
# Poissons Ratio (y) = 0.31567 0.51745
# Poissons Ratio (z) = 0.42090 0.72026
#
# Static dielectric constant tensor:
#      x y z
#    x 1.647040 0.000000 0.000000 
#    y 0.000000 1.631520 0.000000 
#    z 0.000000 0.000000 1.627120 
# 
# From -- ./inp_files/55061.got.cif
#   From: 2010.05.17/outbox.cif.g08.bks.cpg/sg74_28_cif.got.tgz:55061.got - 2010.06.03 17:57:02.
