data_PCOD9539906
_publ_section_title
;
Structure prediction by ZEFSAII (Michael W. Deem and Ramdas Pophale) SiO2 
 PCOD9539906
Probable space group: I M M A
;
_chemical_formula_sum "Si O2"
_cell_formula_units_Z 72
_cell_length_a 14.228323
_cell_length_b 26.538727
_cell_length_c 9.682954
_cell_angle_alpha 90.000000
_cell_angle_beta 90.000000
_cell_angle_gamma 90.000000
_cell_volume 3656.298727
_symmetry_space_group_name_H-M "I M M A"
_symmetry_group_IT_number 74
_symmetry_cell_setting 'orthorhombic'
loop_
_space_group_symop_operation_xyz
x,y,z
-x,1/2-y,z
x,-y,-z
-x,1/2+y,-z
-x,-y,-z
x,1/2+y,-z
-x,y,z
x,1/2-y,z
1/2+x,1/2+y,1/2+z
1/2-x,-y,1/2+z
1/2+x,1/2-y,1/2-z
1/2-x,y,1/2-z
1/2-x,1/2-y,1/2-z
1/2+x,y,1/2-z
1/2-x,1/2+y,1/2+z
1/2+x,-y,1/2+z
loop_
_atom_site_type_symbol
_atom_site_label
_atom_site_fract_x
_atom_site_fract_y
_atom_site_fract_z
Si Si1 0.750000 0.408868 0.750000
Si Si2 0.387091 0.645295 0.032304
Si Si3 0.109008 0.136296 0.217124
Si Si4 0.297427 0.750000 0.099771
Si Si5 0.606968 0.940500 0.475219
Si Si6 0.662371 0.750000 0.647315
O O1 0.678669 0.380528 0.853675
O O2 0.679204 0.436631 0.649123
O O3 0.500000 0.635865 0.045634
O O4 0.362678 0.703146 0.061209
O O5 0.354022 0.632992 0.874698
O O6 0.115408 0.195261 0.171774
O O7 0.000000 0.123874 0.232344
O O8 0.141090 0.095791 0.101705
O O9 0.250000 0.750000 0.250000
O O10 0.206023 0.750000 0.003268
O O11 0.500000 0.922973 0.440912
O O12 0.601193 0.000000 0.500000
O O13 0.750000 0.750000 0.750000
#
# Coordination Sequence:
#
# PCOD9539906 Si02
#       6
#     8  16  16   8  16   8
#     4  12  24  39  64  94 124 163 212 268 336 394
#     4  11  23  40  62  90 129 173 217 267 325 393
#     4  10  22  41  64  90 127 171 215 267 325 389
#     4  12  23  37  55  88 131 172 215 262 328 384
#     4  10  24  46  69  96 130 170 220 277 333 394
#     4  12  21  35  61  95 124 163 217 266 311 396
#
# _framework density 19.692046000000001
#
# number of rings (size 3 to 8) (size 9 to 14) (size 15 to 20)
#    0.000    1.111    3.333    2.667    0.000    3.556 
#    0.000    1.111    0.000    6.667    0.000    0.000 
#    0.000    0.000    0.000    0.000    0.000    0.000 
#
# Total GULP energy -200497.333016 kJ/mol
# GULP energy per Si atom -5569.370362 kJ/mol
# Density = 1.964723 g / cm^3
# Si number density = 19.692046 Si / 1000 Ang^3
#
#
#
# Elastic Constant Matrix: (Units=GPa)
#
#
# Indices 1 2 3 4 5 6 
#
# 1 113.5974 36.4766 59.5507 0.0000 0.0000 0.0000
# 2 36.4766 94.6947 52.7333 0.0001 0.0001 -0.0002
# 3 59.5507 52.7333 166.7436 0.0010 0.0004 -0.0012
# 4 0.0000 0.0001 0.0010 44.0578 0.0001 0.0003
# 5 0.0000 0.0001 0.0004 0.0001 43.4504 0.0001
# 6 0.0000 -0.0002 -0.0012 0.0003 0.0001 26.1784
#
#
#
# Elastic Compliance Matrix: (Units=1/GPa)
#
#
# Indices 1 2 3 4 5 6 
#
# 1 0.011320 -0.002560 -0.003233 0.000000 0.000000 0.000000
# 2 -0.002560 0.013397 -0.003322 0.000000 0.000000 0.000000
# 3 -0.003233 -0.003322 0.008203 0.000000 0.000000 0.000000
# 4 0.000000 0.000000 0.000000 0.022697 0.000000 0.000000
# 5 0.000000 0.000000 0.000000 0.000000 0.023015 0.000000
# 6 0.000000 0.000000 0.000000 0.000000 0.000000 0.038199
#
#
# Mechanical properties :
#
#
# Convention : Reuss Voigt Hill
#
# Bulk Modulus (GPa) = 68.08303 74.72854 71.40578
# Shear Modulus (GPa) = 35.72499 37.82234 36.77366
#
# Velocity S-wave (km/s) = 4.26394 4.38732 4.32607
# Velocity P-wave (km/s) = 7.67402 7.98096 7.82900
#
# Compressibility (1/GPa) = 0.01468795
#
# Stress axis : x y z
#
# Youngs Moduli (GPa) = 88.33943 74.64608 121.91155
#
# Poissons Ratio (x) = 0.19109 0.39417
# Poissons Ratio (y) = 0.22615 0.40504
# Poissons Ratio (z) = 0.28562 0.24801
#
# Static dielectric constant tensor:
#      x y z
#    x 1.724650 0.000000 0.000000 
#    y 0.000000 1.510020 0.000000 
#    z 0.000000 0.000000 1.660470 
# 
# From -- ./inp_files/9178.got.cif
#   From: 2010.05.17/outbox.cif.g08.bks.cpg/sg74_5_cif.got.tgz:9178.got - 2010.06.03 17:57:02.
