data_PCOD9539057
_publ_section_title
;
Structure prediction by ZEFSAII (Michael W. Deem and Ramdas Pophale) SiO2 
 PCOD9539057
Probable space group: I M M A
;
_chemical_formula_sum "Si O2"
_cell_formula_units_Z 104
_cell_length_a 9.317385
_cell_length_b 28.218006
_cell_length_c 19.255525
_cell_angle_alpha 90.000000
_cell_angle_beta 90.000000
_cell_angle_gamma 90.000000
_cell_volume 5062.624619
_symmetry_space_group_name_H-M "I M M A"
_symmetry_group_IT_number 74
_symmetry_cell_setting 'orthorhombic'
loop_
_space_group_symop_operation_xyz
x,y,z
-x,1/2-y,z
x,-y,-z
-x,1/2+y,-z
-x,-y,-z
x,1/2+y,-z
-x,y,z
x,1/2-y,z
1/2+x,1/2+y,1/2+z
1/2-x,-y,1/2+z
1/2+x,1/2-y,1/2-z
1/2-x,y,1/2-z
1/2-x,1/2-y,1/2-z
1/2+x,y,1/2-z
1/2-x,1/2+y,1/2+z
1/2+x,-y,1/2+z
loop_
_atom_site_type_symbol
_atom_site_label
_atom_site_fract_x
_atom_site_fract_y
_atom_site_fract_z
Si Si1 0.173584 0.855107 0.678546
Si Si2 0.672789 0.698979 0.094938
Si Si3 0.833427 0.548159 0.857022
Si Si4 0.160864 0.063495 0.993834
Si Si5 0.660109 0.096232 0.867904
Si Si6 0.250000 0.530918 0.250000
Si Si7 0.334302 0.827045 0.544169
O O1 0.250000 0.839814 0.750000
O O2 0.227665 0.909618 0.666647
O O3 0.240804 0.825644 0.614350
O O4 0.000000 0.853073 0.681136
O O5 0.500000 0.698508 0.085067
O O6 0.709722 0.750000 0.127671
O O7 0.712760 0.650841 0.136169
O O8 0.752630 0.696047 0.020790
O O9 0.794785 0.535185 0.936904
O O10 0.824775 0.504589 0.804250
O O11 0.000000 0.565151 0.857481
O O12 0.159639 0.117381 0.023587
O O13 0.000000 0.050287 0.974135
O O14 0.252382 0.068114 0.925426
O O15 0.500000 0.099043 0.895682
O O16 0.660665 0.066844 0.797428
O O17 0.500000 0.811023 0.552636
#
# Coordination Sequence:
#
# PCOD9539057 Si02
#       7
#    16  16  16  16  16   8  16
#     4  11  20  31  51  79 115 155 197 236 279 334
#     4   9  18  36  62  87 111 142 186 240 296 354
#     4  10  21  37  55  78 109 152 204 247 290 341
#     4   8  17  35  57  78 105 144 189 238 288 340
#     4  10  22  39  58  84 114 149 191 238 295 355
#     4  12  24  36  55  80 118 158 199 244 294 344
#     4   9  17  31  53  83 115 145 185 234 288 346
#
# _framework density 20.542705000000002
#
# number of rings (size 3 to 8) (size 9 to 14) (size 15 to 20)
#    0.000    2.308    0.769    3.231    0.000    6.462 
#    0.000    2.692    0.000    0.462    0.000    0.000 
#    0.000    0.000    0.000    0.000    0.000    0.000 
#
# Total GULP energy -289877.959363 kJ/mol
# GULP energy per Si atom -5574.576142 kJ/mol
# Density = 2.049595 g / cm^3
# Si number density = 20.542705 Si / 1000 Ang^3
#
#
#
# Elastic Constant Matrix: (Units=GPa)
#
#
# Indices 1 2 3 4 5 6 
#
# 1 67.7072 3.5739 13.8342 -0.0001 0.0000 0.0000
# 2 3.5739 85.9821 12.0121 -0.0001 0.0000 0.0000
# 3 13.8342 12.0121 75.5884 -0.0003 0.0000 0.0000
# 4 -0.0001 -0.0001 -0.0003 18.7460 0.0000 0.0000
# 5 0.0000 0.0000 0.0000 0.0000 22.9006 0.0000
# 6 0.0000 0.0000 0.0000 0.0000 0.0000 13.7592
#
#
#
# Elastic Compliance Matrix: (Units=1/GPa)
#
#
# Indices 1 2 3 4 5 6 
#
# 1 0.015349 -0.000251 -0.002769 0.000000 0.000000 0.000000
# 2 -0.000251 0.011898 -0.001845 0.000000 0.000000 0.000000
# 3 -0.002769 -0.001845 0.014030 0.000000 0.000000 0.000000
# 4 0.000000 0.000000 0.000000 0.053345 0.000000 0.000000
# 5 0.000000 0.000000 0.000000 0.000000 0.043667 0.000000
# 6 0.000000 0.000000 0.000000 0.000000 0.000000 0.072679
#
#
# Mechanical properties :
#
#
# Convention : Reuss Voigt Hill
#
# Bulk Modulus (GPa) = 31.69953 32.01313 31.85633
# Shear Modulus (GPa) = 21.62510 24.40499 23.01505
#
# Velocity S-wave (km/s) = 3.24804 3.45050 3.35080
# Velocity P-wave (km/s) = 5.43423 5.61178 5.52372
#
# Compressibility (1/GPa) = 0.03154621
#
# Stress axis : x y z
#
# Youngs Moduli (GPa) = 65.15277 84.04423 71.27819
#
# Poissons Ratio (x) = 0.02110 0.19738
# Poissons Ratio (y) = 0.01636 0.13150
# Poissons Ratio (z) = 0.18042 0.15505
#
# Static dielectric constant tensor:
#      x y z
#    x 1.718770 0.000000 0.000000 
#    y 0.000000 1.813910 0.000000 
#    z 0.000000 0.000000 1.741000 
# 
# From -- ./inp_files/49582.got.cif
#   From: 2010.05.17/outbox.cif.g08.bks.cpg/sg74_25_cif.got.tgz:49582.got - 2010.06.03 17:57:02.
