data_PCOD9539030
_publ_section_title
;
Structure prediction by ZEFSAII (Michael W. Deem and Ramdas Pophale) SiO2 
 PCOD9539030
Probable space group: I M M A
;
_chemical_formula_sum "Si O2"
_cell_formula_units_Z 116
_cell_length_a 8.040935
_cell_length_b 28.424036
_cell_length_c 26.623882
_cell_angle_alpha 90.000000
_cell_angle_beta 90.000000
_cell_angle_gamma 90.000000
_cell_volume 6085.043340
_symmetry_space_group_name_H-M "I M M A"
_symmetry_group_IT_number 74
_symmetry_cell_setting 'orthorhombic'
loop_
_space_group_symop_operation_xyz
x,y,z
-x,1/2-y,z
x,-y,-z
-x,1/2+y,-z
-x,-y,-z
x,1/2+y,-z
-x,y,z
x,1/2-y,z
1/2+x,1/2+y,1/2+z
1/2-x,-y,1/2+z
1/2+x,1/2-y,1/2-z
1/2-x,y,1/2-z
1/2-x,1/2-y,1/2-z
1/2+x,y,1/2-z
1/2-x,1/2+y,1/2+z
1/2+x,-y,1/2+z
loop_
_atom_site_type_symbol
_atom_site_label
_atom_site_fract_x
_atom_site_fract_y
_atom_site_fract_z
Si Si1 0.802836 0.514315 0.192589
Si Si2 0.800822 0.118668 0.808177
Si Si3 0.195053 0.675672 0.602089
Si Si4 0.500000 0.750000 0.614786
Si Si5 0.798244 0.052716 0.487406
Si Si6 0.801635 0.696992 0.388401
Si Si7 0.802138 0.427986 0.375699
Si Si8 0.692983 0.849109 0.491683
O O1 0.750000 0.508093 0.250000
O O2 0.737272 0.566163 0.176480
O O3 0.752847 0.468541 0.161613
O O4 0.000000 0.517368 0.190175
O O5 0.750000 0.126418 0.750000
O O6 0.742353 0.159276 0.845613
O O7 0.000000 0.118295 0.810066
O O8 0.348429 0.709929 0.613359
O O9 0.229665 0.627155 0.632517
O O10 0.205512 0.664744 0.541856
O O11 0.000000 0.689781 0.612014
O O12 0.735174 0.061643 0.431145
O O13 0.729878 0.096008 0.519620
O O14 0.000000 0.055223 0.489563
O O15 0.748405 0.000000 0.500000
O O16 0.742028 0.750000 0.376485
O O17 0.734184 0.680871 0.442578
O O18 0.000000 0.698109 0.392480
O O19 0.000000 0.432056 0.379001
O O20 0.500000 0.842846 0.504163
#
# Coordination Sequence:
#
# PCOD9539030 Si02
#       8
#    16  16  16   4  16  16  16  16
#     4  10  21  36  60  89 120 150 192 239 296 363
#     4  10  22  41  61  86 113 146 188 242 301 364
#     4  10  22  39  58  88 124 161 204 253 295 353
#     4  12  22  36  64  90 116 168 210 240 310 342
#     4   9  19  35  54  80 113 159 199 234 293 360
#     4  11  25  41  59  82 109 151 199 250 305 357
#     4   9  19  35  56  83 123 156 191 243 293 349
#     4  11  22  37  55  82 117 153 201 248 299 356
#
# _framework density 19.063134999999999
#
# number of rings (size 3 to 8) (size 9 to 14) (size 15 to 20)
#    0.000    1.931    0.690    3.517    3.862    3.862 
#    0.000    0.000    0.000    0.000    0.000    0.483 
#    0.000    0.000    0.000    0.000    0.000    0.000 
#
# Total GULP energy -322874.111123 kJ/mol
# GULP energy per Si atom -5566.795019 kJ/mol
# Density = 1.901975 g / cm^3
# Si number density = 19.063135 Si / 1000 Ang^3
#
#
#
# Elastic Constant Matrix: (Units=GPa)
#
#
# Indices 1 2 3 4 5 6 
#
# 1 80.9867 59.1996 9.9999 0.0000 0.0000 0.0000
# 2 59.1996 173.9120 62.7585 0.0000 0.0000 0.0000
# 3 9.9999 62.7585 47.7452 0.0001 0.0000 0.0000
# 4 0.0000 0.0000 0.0001 -59.1768 0.0000 0.0000
# 5 0.0000 0.0000 0.0000 0.0000 24.6443 0.0000
# 6 0.0000 0.0000 0.0000 0.0000 0.0000 31.5194
#
#
#
# Elastic Compliance Matrix: (Units=1/GPa)
#
#
# Indices 1 2 3 4 5 6 
#
# 1 0.017956 -0.009046 0.008130 0.000000 0.000000 0.000000
# 2 -0.009046 0.015496 -0.018474 0.000000 0.000000 0.000000
# 3 0.008130 -0.018474 0.043525 0.000000 0.000000 0.000000
# 4 0.000000 0.000000 0.000000 -0.016899 0.000000 0.000000
# 5 0.000000 0.000000 0.000000 0.000000 0.040577 0.000000
# 6 0.000000 0.000000 0.000000 0.000000 0.000000 0.031726
#
#
# Mechanical properties :
#
#
# Convention : Reuss Voigt Hill
#
# Bulk Modulus (GPa) = 26.18038 62.95108 44.56573
# Shear Modulus (GPa) = 27.18948 10.77643 18.98295
#
# Velocity S-wave (km/s) = 3.78072 2.38019 3.15904
# Velocity P-wave (km/s) = 5.72903 6.37556 6.06092
#
# Compressibility (1/GPa) = 0.03819654
#
# Stress axis : x y z
#
# Youngs Moduli (GPa) = 55.69059 64.53349 22.97550
#
# Poissons Ratio (x) = 0.58377 -0.18678
# Poissons Ratio (y) = 0.50378 0.42444
# Poissons Ratio (z) = -0.45275 1.19218
#
# Static dielectric constant tensor:
#      x y z
#    x 1.668580 0.000000 0.000000 
#    y 0.000000 1.718450 0.000000 
#    z 0.000000 0.000000 1.674880 
# 
# From -- ./inp_files/57721.got.cif
#   From: 2010.05.17/outbox.cif.g08.bks.cpg/sg74_29_cif.got.tgz:57721.got - 2010.06.03 17:57:02.
