data_PCOD9539375
_publ_section_title
;
Structure prediction by ZEFSAII (Michael W. Deem and Ramdas Pophale) SiO2 
 PCOD9539375
Probable space group: I M M A
;
_chemical_formula_sum "Si O2"
_cell_formula_units_Z 68
_cell_length_a 14.607013
_cell_length_b 21.439407
_cell_length_c 9.933595
_cell_angle_alpha 90.000000
_cell_angle_beta 90.000000
_cell_angle_gamma 90.000000
_cell_volume 3110.861200
_symmetry_space_group_name_H-M "I M M A"
_symmetry_group_IT_number 74
_symmetry_cell_setting 'orthorhombic'
loop_
_space_group_symop_operation_xyz
x,y,z
-x,1/2-y,z
x,-y,-z
-x,1/2+y,-z
-x,-y,-z
x,1/2+y,-z
-x,y,z
x,1/2-y,z
1/2+x,1/2+y,1/2+z
1/2-x,-y,1/2+z
1/2+x,1/2-y,1/2-z
1/2-x,y,1/2-z
1/2-x,1/2-y,1/2-z
1/2+x,y,1/2-z
1/2-x,1/2+y,1/2+z
1/2+x,-y,1/2+z
loop_
_atom_site_type_symbol
_atom_site_label
_atom_site_fract_x
_atom_site_fract_y
_atom_site_fract_z
Si Si1 0.392918 0.322443 0.980545
Si Si2 0.287598 0.866380 0.583750
Si Si3 0.897033 0.016765 0.159229
Si Si4 0.891906 0.120343 0.806565
Si Si5 0.250000 0.250000 0.250000
O O1 0.500000 0.332511 0.010617
O O2 0.369388 0.250000 0.016238
O O3 0.379977 0.335220 0.821559
O O4 0.321118 0.366298 0.054686
O O5 0.328674 0.925944 0.658257
O O6 0.334460 0.861700 0.436852
O O7 0.305851 0.804932 0.668711
O O8 0.000000 0.034007 0.203619
O O9 0.869175 0.951904 0.229830
O O10 0.902089 0.000000 0.000000
O O11 0.000000 0.120133 0.841366
#
# Coordination Sequence:
#
# PCOD9539375 Si02
#       5
#    16  16  16  16   4
#     4  10  21  38  63  91 122 156 195 251 310 356
#     4  11  21  40  58  84 123 165 198 242 289 354
#     4   8  16  36  63  91 118 146 191 250 300 347
#     4   9  19  38  68  99 116 142 199 261 312 352
#     4  12  28  40  52  84 128 170 214 230 274 376
#
# _framework density 21.858898
#
# number of rings (size 3 to 8) (size 9 to 14) (size 15 to 20)
#    0.000    2.353    1.176    2.824    1.647    0.941 
#   12.706    6.471    0.000    6.353    0.000    0.000 
#    0.000    0.000    0.000    0.000    0.000    0.000 
#
# Total GULP energy -189364.956792 kJ/mol
# GULP energy per Si atom -5569.557553 kJ/mol
# Density = 2.180915 g / cm^3
# Si number density = 21.858898 Si / 1000 Ang^3
#
#
#
# Elastic Constant Matrix: (Units=GPa)
#
#
# Indices 1 2 3 4 5 6 
#
# 1 115.1803 60.5615 34.8707 0.0000 0.0000 0.0000
# 2 60.5615 123.3941 16.2520 0.0000 0.0000 0.0000
# 3 34.8707 16.2520 42.1842 0.0000 0.0000 0.0000
# 4 0.0000 0.0000 0.0000 -33.9856 0.0000 0.0000
# 5 0.0000 0.0000 0.0000 0.0000 7.2703 0.0000
# 6 0.0000 0.0000 0.0000 0.0000 0.0000 40.6798
#
#
#
# Elastic Compliance Matrix: (Units=1/GPa)
#
#
# Indices 1 2 3 4 5 6 
#
# 1 0.014838 -0.005970 -0.009966 0.000000 0.000000 0.000000
# 2 -0.005970 0.010939 0.000720 0.000000 0.000000 0.000000
# 3 -0.009966 0.000720 0.031666 0.000000 0.000000 0.000000
# 4 0.000000 0.000000 0.000000 -0.029424 0.000000 0.000000
# 5 0.000000 0.000000 0.000000 0.000000 0.137545 0.000000
# 6 0.000000 0.000000 0.000000 0.000000 0.000000 0.024582
#
#
# Mechanical properties :
#
#
# Convention : Reuss Voigt Hill
#
# Bulk Modulus (GPa) = 37.01921 56.01412 46.51667
# Shear Modulus (GPa) = 21.77880 14.06454 17.92167
#
# Velocity S-wave (km/s) = 3.15990 2.53933 2.86646
# Velocity P-wave (km/s) = 5.50324 5.85479 5.68173
#
# Compressibility (1/GPa) = 0.02701300
#
# Stress axis : x y z
#
# Youngs Moduli (GPa) = 67.39402 91.41381 31.57972
#
# Poissons Ratio (x) = 0.54574 0.31471
# Poissons Ratio (y) = 0.40234 -0.02275
# Poissons Ratio (z) = 0.67162 -0.06586
#
# Static dielectric constant tensor:
#      x y z
#    x 1.818300 0.000000 0.000000 
#    y 0.000000 1.833470 0.000000 
#    z 0.000000 0.000000 1.852300 
# 
# From -- ./inp_files/20240.got.cif
#   From: 2010.05.17/outbox.cif.g08.bks.cpg/sg74_11_cif.got.tgz:20240.got - 2010.06.03 17:57:02.
