data_PCOD9539867
_publ_section_title
;
Structure prediction by ZEFSAII (Michael W. Deem and Ramdas Pophale) SiO2 
 PCOD9539867
Probable space group: I M M A
;
_chemical_formula_sum "Si O2"
_cell_formula_units_Z 68
_cell_length_a 9.468304
_cell_length_b 17.524438
_cell_length_c 22.078369
_cell_angle_alpha 90.000000
_cell_angle_beta 90.000000
_cell_angle_gamma 90.000000
_cell_volume 3663.391051
_symmetry_space_group_name_H-M "I M M A"
_symmetry_group_IT_number 74
_symmetry_cell_setting 'orthorhombic'
loop_
_space_group_symop_operation_xyz
x,y,z
-x,1/2-y,z
x,-y,-z
-x,1/2+y,-z
-x,-y,-z
x,1/2+y,-z
-x,y,z
x,1/2-y,z
1/2+x,1/2+y,1/2+z
1/2-x,-y,1/2+z
1/2+x,1/2-y,1/2-z
1/2-x,y,1/2-z
1/2-x,1/2-y,1/2-z
1/2+x,y,1/2-z
1/2-x,1/2+y,1/2+z
1/2+x,-y,1/2+z
loop_
_atom_site_type_symbol
_atom_site_label
_atom_site_fract_x
_atom_site_fract_y
_atom_site_fract_z
Si Si1 0.250000 0.870890 0.750000
Si Si2 0.500000 0.750000 0.774762
Si Si3 0.832627 0.619223 0.091317
Si Si4 0.832498 0.660318 0.530611
Si Si5 0.165456 0.943171 0.875108
Si Si6 0.167923 0.750000 0.187379
O O1 0.376684 0.816572 0.771884
O O2 0.199307 0.921923 0.806209
O O3 0.809189 0.531819 0.110120
O O4 0.798910 0.676279 0.146242
O O5 0.000000 0.628772 0.077053
O O6 0.741078 0.641033 0.033080
O O7 0.811778 0.750000 0.544412
O O8 0.759828 0.609106 0.581530
O O9 0.000000 0.646062 0.527794
O O10 0.000000 0.927059 0.887064
O O11 0.250000 0.750000 0.250000
O O12 0.000000 0.750000 0.198935
#
# Coordination Sequence:
#
# PCOD9539867 Si02
#       6
#     8   4  16  16  16   8
#     4  11  24  42  64  93 128 168 208 263 308 376
#     4  10  24  42  64  82 128 166 214 246 310 366
#     4  10  22  44  66  90 126 165 211 255 311 375
#     4  11  25  41  64  94 125 164 210 259 313 370
#     4  11  25  41  63  93 127 165 208 258 316 371
#     4  10  22  40  66  94 124 166 207 253 306 370
#
# _framework density 18.562035999999999
#
# number of rings (size 3 to 8) (size 9 to 14) (size 15 to 20)
#    0.000    1.412    2.353    1.412    6.588    6.118 
#    0.000    0.000    0.000    0.000    0.000    0.000 
#    0.000    0.000    0.000    0.000    0.000    0.000 
#
# Total GULP energy -189533.579769 kJ/mol
# GULP energy per Si atom -5574.517052 kJ/mol
# Density = 1.851979 g / cm^3
# Si number density = 18.562036 Si / 1000 Ang^3
#
#
#
# Elastic Constant Matrix: (Units=GPa)
#
#
# Indices 1 2 3 4 5 6 
#
# 1 101.7517 89.4345 58.5064 0.0000 0.0000 0.0000
# 2 89.4345 144.9659 81.0969 0.0000 0.0000 0.0000
# 3 58.5064 81.0969 138.6088 0.0000 0.0000 0.0000
# 4 0.0000 0.0000 0.0000 -3.3483 0.0000 0.0000
# 5 0.0000 0.0000 0.0000 0.0000 28.1445 0.0000
# 6 0.0000 0.0000 0.0000 0.0000 0.0000 26.9452
#
#
#
# Elastic Compliance Matrix: (Units=1/GPa)
#
#
# Indices 1 2 3 4 5 6 
#
# 1 0.021831 -0.012358 -0.001984 0.000000 0.000000 0.000000
# 2 -0.012358 0.017250 -0.004876 0.000000 0.000000 0.000000
# 3 -0.001984 -0.004876 0.010905 0.000000 0.000000 0.000000
# 4 0.000000 0.000000 0.000000 -0.298659 0.000000 0.000000
# 5 0.000000 0.000000 0.000000 0.000000 0.035531 0.000000
# 6 0.000000 0.000000 0.000000 0.000000 0.000000 0.037112
#
#
# Mechanical properties :
#
#
# Convention : Reuss Voigt Hill
#
# Bulk Modulus (GPa) = 86.58995 93.71133 90.15064
# Shear Modulus (GPa) = -37.38559 20.76751 -8.30904
#
# Velocity S-wave (km/s) = -4.49273 3.34850 -2.11804
# Velocity P-wave (km/s) = 4.45392 8.09599 6.53385
#
# Compressibility (1/GPa) = 0.01154868
#
# Stress axis : x y z
#
# Youngs Moduli (GPa) = 45.80615 57.96958 91.69945
#
# Poissons Ratio (x) = 0.71641 0.18196
# Poissons Ratio (y) = 0.56609 0.44716
# Poissons Ratio (z) = 0.09089 0.28268
#
# Static dielectric constant tensor:
#      x y z
#    x 1.621000 0.000000 0.000000 
#    y 0.000000 1.615120 0.000000 
#    z 0.000000 0.000000 1.616090 
# 
# From -- ./inp_files/48152.got.cif
#   From: 2010.05.17/outbox.cif.g08.bks.cpg/sg74_25_cif.got.tgz:48152.got - 2010.06.03 17:57:02.
