data_PCOD9539640
_publ_section_title
;
Structure prediction by ZEFSAII (Michael W. Deem and Ramdas Pophale) SiO2 
 PCOD9539640
Probable space group: I M M A
;
_chemical_formula_sum "Si O2"
_cell_formula_units_Z 80
_cell_length_a 14.659098
_cell_length_b 25.142763
_cell_length_c 9.986823
_cell_angle_alpha 90.000000
_cell_angle_beta 90.000000
_cell_angle_gamma 90.000000
_cell_volume 3680.845618
_symmetry_space_group_name_H-M "I M M A"
_symmetry_group_IT_number 74
_symmetry_cell_setting 'orthorhombic'
loop_
_space_group_symop_operation_xyz
x,y,z
-x,1/2-y,z
x,-y,-z
-x,1/2+y,-z
-x,-y,-z
x,1/2+y,-z
-x,y,z
x,1/2-y,z
1/2+x,1/2+y,1/2+z
1/2-x,-y,1/2+z
1/2+x,1/2-y,1/2-z
1/2-x,y,1/2-z
1/2-x,1/2-y,1/2-z
1/2+x,y,1/2-z
1/2-x,1/2+y,1/2+z
1/2+x,-y,1/2+z
loop_
_atom_site_type_symbol
_atom_site_label
_atom_site_fract_x
_atom_site_fract_y
_atom_site_fract_z
Si Si1 0.395132 0.915797 0.945243
Si Si2 0.891466 0.416327 0.966992
Si Si3 0.737338 0.347090 0.903658
Si Si4 0.339877 0.307439 0.158755
Si Si5 0.110343 0.009765 0.218727
O O1 0.500000 0.924413 0.988314
O O2 0.393177 0.863722 0.845412
O O3 0.359383 0.965779 0.859506
O O4 0.328909 0.897949 0.064837
O O5 0.835871 0.362674 0.960255
O O6 0.862705 0.453014 0.840584
O O7 0.000000 0.409520 0.963033
O O8 0.867771 0.448600 0.100830
O O9 0.750000 0.333489 0.750000
O O10 0.692524 0.305499 0.003803
O O11 0.382991 0.250000 0.192705
O O12 0.250000 0.313583 0.250000
O O13 0.000000 0.008751 0.227341
#
# Coordination Sequence:
#
# PCOD9539640 Si02
#       5
#    16  16  16  16  16
#     4   9  19  35  58  84 116 152 193 243 293 345
#     4   9  17  32  54  78 111 149 189 235 286 346
#     4  10  22  36  51  84 113 153 192 232 294 345
#     4   9  19  36  61  86 112 146 191 243 296 352
#     4   8  15  31  54  80 106 143 188 236 289 334
#
# _framework density 21.734134999999998
#
# number of rings (size 3 to 8) (size 9 to 14) (size 15 to 20)
#    1.200    1.800    0.000    2.400    0.000    1.600 
#    7.200    0.000    0.000    5.400    0.000    0.000 
#    0.000    0.000    0.000    0.000    0.000    0.000 
#
# Total GULP energy -222735.847140 kJ/mol
# GULP energy per Si atom -5568.396178 kJ/mol
# Density = 2.168467 g / cm^3
# Si number density = 21.734135 Si / 1000 Ang^3
#
#
#
# Elastic Constant Matrix: (Units=GPa)
#
#
# Indices 1 2 3 4 5 6 
#
# 1 66.3288 -1.7124 12.2526 -0.0001 0.0000 -0.0020
# 2 -1.7124 39.1015 0.2459 0.0005 0.0000 0.0054
# 3 12.2526 0.2459 97.3534 -0.0013 0.0000 0.0514
# 4 -0.0001 0.0005 -0.0013 55.8412 -0.0002 0.0627
# 5 0.0000 0.0000 0.0000 -0.0002 -1.3361 -0.0116
# 6 -0.0020 0.0054 0.0514 0.0627 -0.0116-1941.8790
#
#
#
# Elastic Compliance Matrix: (Units=1/GPa)
#
#
# Indices 1 2 3 4 5 6 
#
# 1 0.015454 0.000689 -0.001947 0.000000 0.000000 0.000000
# 2 0.000689 0.025606 -0.000151 0.000000 0.000000 0.000000
# 3 -0.001947 -0.000151 0.010517 0.000000 0.000000 0.000000
# 4 0.000000 0.000000 0.000000 0.017908 -0.000003 0.000001
# 5 0.000000 0.000000 0.000000 -0.000003 -0.748422 0.000004
# 6 0.000000 0.000000 0.000000 0.000001 0.000004 -0.000515
#
#
# Mechanical properties :
#
#
# Convention : Reuss Voigt Hill
#
# Bulk Modulus (GPa) = 20.50925 24.92843 22.71884
# Shear Modulus (GPa) = -7.57138 -364.67496 -186.12317
#
# Velocity S-wave (km/s) = -1.86847 -12.96739 -9.26403
# Velocity P-wave (km/s) = 2.19134 14.58457 10.19578
#
# Compressibility (1/GPa) = 0.04875848
#
# Stress axis : x y z
#
# Youngs Moduli (GPa) = 64.70898 39.05398 95.08194
#
# Poissons Ratio (x) = -0.02691 0.18510
# Poissons Ratio (y) = -0.04459 0.01440
# Poissons Ratio (z) = 0.12597 0.00591
#
# Static dielectric constant tensor:
#      x y z
#    x 1.811290 0.000000 0.000000 
#    y 0.000000 1.818800 0.000000 
#    z 0.000000 0.000000 1.818910 
# 
# From -- ./inp_files/20480.got.cif
#   From: 2010.05.17/outbox.cif.g08.bks.cpg/sg74_11_cif.got.tgz:20480.got - 2010.06.03 17:57:02.
