data_PCOD9539682
_publ_section_title
;
Structure prediction by ZEFSAII (Michael W. Deem and Ramdas Pophale) SiO2 
 PCOD9539682
Probable space group: I M M A
;
_chemical_formula_sum "Si O2"
_cell_formula_units_Z 60
_cell_length_a 7.567293
_cell_length_b 15.520271
_cell_length_c 24.970430
_cell_angle_alpha 90.000000
_cell_angle_beta 90.000000
_cell_angle_gamma 90.000000
_cell_volume 2932.688061
_symmetry_space_group_name_H-M "I M M A"
_symmetry_group_IT_number 74
_symmetry_cell_setting 'orthorhombic'
loop_
_space_group_symop_operation_xyz
x,y,z
-x,1/2-y,z
x,-y,-z
-x,1/2+y,-z
-x,-y,-z
x,1/2+y,-z
-x,y,z
x,1/2-y,z
1/2+x,1/2+y,1/2+z
1/2-x,-y,1/2+z
1/2+x,1/2-y,1/2-z
1/2-x,y,1/2-z
1/2-x,1/2-y,1/2-z
1/2+x,y,1/2-z
1/2-x,1/2+y,1/2+z
1/2+x,-y,1/2+z
loop_
_atom_site_type_symbol
_atom_site_label
_atom_site_fract_x
_atom_site_fract_y
_atom_site_fract_z
Si Si1 0.214866 0.750000 0.352373
Si Si2 0.210248 0.750000 0.813115
Si Si3 0.500000 0.594141 0.526448
Si Si4 0.710319 0.065305 0.810378
Si Si5 0.500000 0.250000 0.555973
Si Si6 0.794698 0.912575 0.614908
O O1 0.268104 0.663068 0.321153
O O2 0.325670 0.750000 0.406901
O O3 0.000000 0.750000 0.359712
O O4 0.250000 0.750000 0.750000
O O5 0.283512 0.665756 0.842960
O O6 0.000000 0.750000 0.820327
O O7 0.500000 0.500000 0.500000
O O8 0.500000 0.666124 0.481044
O O9 0.329345 0.604990 0.564499
O O10 0.500000 0.064709 0.815910
O O11 0.750000 0.037968 0.750000
O O12 0.775525 0.997509 0.854217
O O13 0.000000 0.924368 0.599457
#
# Coordination Sequence:
#
# PCOD9539682 Si02
#       6
#     8   8   8  16   4  16
#     4  10  23  43  61  93 133 160 213 268 307 384
#     4  12  23  40  65  97 132 173 211 259 329 399
#     4  12  26  44  68  94 126 174 226 276 324 372
#     4  10  22  37  63  95 128 172 205 249 322 381
#     4  12  26  42  68  92 116 176 222 260 338 354
#     4  11  24  43  64  94 132 167 216 272 321 385
#
# _framework density 20.459045
#
# number of rings (size 3 to 8) (size 9 to 14) (size 15 to 20)
#    0.000    1.067    1.333    4.800    3.733    3.733 
#    0.000    0.000    0.000    0.000    0.000    0.000 
#    0.000    0.000    0.000    0.000    0.000    0.000 
#
# Total GULP energy -167800.012760 kJ/mol
# GULP energy per Si atom -5593.333759 kJ/mol
# Density = 2.041248 g / cm^3
# Si number density = 20.459045 Si / 1000 Ang^3
#
#
#
# Elastic Constant Matrix: (Units=GPa)
#
#
# Indices 1 2 3 4 5 6 
#
# 1 95.4464 -8.3168 19.3639 0.0000 0.0000 0.0000
# 2 -8.3168 68.5456 -6.3118 0.0000 0.0000 0.0000
# 3 19.3639 -6.3118 82.2561 0.0000 0.0000 0.0000
# 4 0.0000 0.0000 0.0000 48.5103 0.0000 0.0000
# 5 0.0000 0.0000 0.0000 0.0000 44.7622 0.0000
# 6 0.0000 0.0000 0.0000 0.0000 0.0000 -5.1541
#
#
#
# Elastic Compliance Matrix: (Units=1/GPa)
#
#
# Indices 1 2 3 4 5 6 
#
# 1 0.011086 0.001113 -0.002524 0.000000 0.000000 0.000000
# 2 0.001113 0.014804 0.000874 0.000000 0.000000 0.000000
# 3 -0.002524 0.000874 0.012818 0.000000 0.000000 0.000000
# 4 0.000000 0.000000 0.000000 0.020614 0.000000 0.000000
# 5 0.000000 0.000000 0.000000 0.000000 0.022340 0.000000
# 6 0.000000 0.000000 0.000000 0.000000 0.000000 -0.194020
#
#
# Mechanical properties :
#
#
# Convention : Reuss Voigt Hill
#
# Bulk Modulus (GPa) = 26.57201 28.41318 27.49260
# Shear Modulus (GPa) = -50.63977 33.72454 -8.45761
#
# Velocity S-wave (km/s) = -4.98051 4.06444 -2.03541
# Velocity P-wave (km/s) = 4.47861 5.99535 2.81836
#
# Compressibility (1/GPa) = 0.03763359
#
# Stress axis : x y z
#
# Youngs Moduli (GPa) = 90.20231 67.54791 78.01229
#
# Poissons Ratio (x) = -0.07516 0.19694
# Poissons Ratio (y) = -0.10036 -0.06819
# Poissons Ratio (z) = 0.22771 -0.05904
#
# Static dielectric constant tensor:
#      x y z
#    x 1.725580 0.000000 0.000000 
#    y 0.000000 1.732050 0.000000 
#    z 0.000000 0.000000 1.697990 
# 
# From -- ./inp_files/56354.got.cif
#   From: 2010.05.17/outbox.cif.g08.bks.cpg/sg74_29_cif.got.tgz:56354.got - 2010.06.03 17:57:02.
