data_PCOD9539954
_publ_section_title
;
Structure prediction by ZEFSAII (Michael W. Deem and Ramdas Pophale) SiO2 
 PCOD9539954
Probable space group: I M M A
;
_chemical_formula_sum "Si O2"
_cell_formula_units_Z 64
_cell_length_a 11.895139
_cell_length_b 14.550812
_cell_length_c 17.643566
_cell_angle_alpha 90.000000
_cell_angle_beta 90.000000
_cell_angle_gamma 90.000000
_cell_volume 3053.817765
_symmetry_space_group_name_H-M "I M M A"
_symmetry_group_IT_number 74
_symmetry_cell_setting 'orthorhombic'
loop_
_space_group_symop_operation_xyz
x,y,z
-x,1/2-y,z
x,-y,-z
-x,1/2+y,-z
-x,-y,-z
x,1/2+y,-z
-x,y,z
x,1/2-y,z
1/2+x,1/2+y,1/2+z
1/2-x,-y,1/2+z
1/2+x,1/2-y,1/2-z
1/2-x,y,1/2-z
1/2-x,1/2-y,1/2-z
1/2+x,y,1/2-z
1/2-x,1/2+y,1/2+z
1/2+x,-y,1/2+z
loop_
_atom_site_type_symbol
_atom_site_label
_atom_site_fract_x
_atom_site_fract_y
_atom_site_fract_z
Si Si1 0.677457 0.936928 0.562817
Si Si2 0.375523 0.405175 0.265882
Si Si3 0.272755 0.750000 0.160810
Si Si4 0.634296 0.250000 0.516485
Si Si5 0.874062 0.050302 0.634768
O O1 0.622240 0.924278 0.644770
O O2 0.687103 0.838363 0.524123
O O3 0.618925 0.000000 0.500000
O O4 0.791130 0.990929 0.583375
O O5 0.500000 0.362855 0.246378
O O6 0.250000 0.361336 0.250000
O O7 0.371191 0.498741 0.216434
O O8 0.250000 0.750000 0.250000
O O9 0.164931 0.750000 0.105245
O O10 0.336991 0.655512 0.142202
O O11 0.500000 0.250000 0.505079
O O12 0.000000 0.045703 0.605505
#
# Coordination Sequence:
#
# PCOD9539954 Si02
#       5
#    16  16   8   8  16
#     4  11  22  43  63  94 132 169 220 275 333 403
#     4   9  19  37  62  91 123 169 216 265 323 389
#     4  12  23  43  62 100 139 173 224 273 326 408
#     4  12  28  43  63  98 132 171 218 276 342 401
#     4  10  22  42  68  96 131 177 224 273 335 403
#
# _framework density 20.957373
#
# number of rings (size 3 to 8) (size 9 to 14) (size 15 to 20)
#    0.000    1.500    2.500    3.375    0.000    3.500 
#    0.000    6.250    0.000    6.000    0.000    0.000 
#    0.000    0.000    0.000    0.000    0.000    0.000 
#
# Total GULP energy -178373.647800 kJ/mol
# GULP energy per Si atom -5574.176494 kJ/mol
# Density = 2.090967 g / cm^3
# Si number density = 20.957373 Si / 1000 Ang^3
#
#
#
# Elastic Constant Matrix: (Units=GPa)
#
#
# Indices 1 2 3 4 5 6 
#
# 1 200.6017 53.3011 33.4891 0.0000 0.0000 0.0000
# 2 53.3011 158.9661 44.3270 0.0000 0.0000 0.0000
# 3 33.4891 44.3270 147.6407 0.0000 0.0000 0.0000
# 4 0.0000 0.0000 0.0000 17.1361 0.0000 0.0000
# 5 0.0000 0.0000 0.0000 0.0000 4.0872 0.0000
# 6 0.0000 0.0000 0.0000 0.0000 0.0000 21.6590
#
#
#
# Elastic Compliance Matrix: (Units=1/GPa)
#
#
# Indices 1 2 3 4 5 6 
#
# 1 0.005550 -0.001648 -0.000764 0.000000 0.000000 0.000000
# 2 -0.001648 0.007355 -0.001834 0.000000 0.000000 0.000000
# 3 -0.000764 -0.001834 0.007497 0.000000 0.000000 0.000000
# 4 0.000000 0.000000 0.000000 0.058356 0.000000 0.000000
# 5 0.000000 0.000000 0.000000 0.000000 0.244667 0.000000
# 6 0.000000 0.000000 0.000000 0.000000 0.000000 0.046170
#
#
# Mechanical properties :
#
#
# Convention : Reuss Voigt Hill
#
# Bulk Modulus (GPa) = 83.96732 85.49365 84.73048
# Shear Modulus (GPa) = 13.08697 33.64921 23.36809
#
# Velocity S-wave (km/s) = 2.50162 4.01134 3.34283
# Velocity P-wave (km/s) = 6.96397 7.89539 7.44426
#
# Compressibility (1/GPa) = 0.01190940
#
# Stress axis : x y z
#
# Youngs Moduli (GPa) = 180.16536 135.96738 133.38166
#
# Poissons Ratio (x) = 0.22407 0.10193
# Poissons Ratio (y) = 0.29691 0.24467
# Poissons Ratio (z) = 0.13769 0.24941
#
# Static dielectric constant tensor:
#      x y z
#    x 1.804690 0.000000 0.000000 
#    y 0.000000 1.737000 0.000000 
#    z 0.000000 0.000000 1.764800 
# 
# From -- ./inp_files/40733.got.cif
#   From: 2010.05.17/outbox.cif.g08.bks.cpg/sg74_21_cif.got.tgz:40733.got - 2010.06.03 17:57:02.
