data_PCOD9539535
_publ_section_title
;
Structure prediction by ZEFSAII (Michael W. Deem and Ramdas Pophale) SiO2 
 PCOD9539535
Probable space group: I M M A
;
_chemical_formula_sum "Si O2"
_cell_formula_units_Z 80
_cell_length_a 17.957809
_cell_length_b 19.362528
_cell_length_c 11.381040
_cell_angle_alpha 90.000000
_cell_angle_beta 90.000000
_cell_angle_gamma 90.000000
_cell_volume 3957.285253
_symmetry_space_group_name_H-M "I M M A"
_symmetry_group_IT_number 74
_symmetry_cell_setting 'orthorhombic'
loop_
_space_group_symop_operation_xyz
x,y,z
-x,1/2-y,z
x,-y,-z
-x,1/2+y,-z
-x,-y,-z
x,1/2+y,-z
-x,y,z
x,1/2-y,z
1/2+x,1/2+y,1/2+z
1/2-x,-y,1/2+z
1/2+x,1/2-y,1/2-z
1/2-x,y,1/2-z
1/2-x,1/2-y,1/2-z
1/2+x,y,1/2-z
1/2-x,1/2+y,1/2+z
1/2+x,-y,1/2+z
loop_
_atom_site_type_symbol
_atom_site_label
_atom_site_fract_x
_atom_site_fract_y
_atom_site_fract_z
Si Si1 0.785950 0.110387 0.133115
Si Si2 0.357882 0.065713 0.060140
Si Si3 0.000000 0.250000 0.978010
Si Si4 0.500000 0.750000 0.869743
Si Si5 0.000000 0.125853 0.552385
Si Si6 0.373861 0.250000 0.326624
Si Si7 0.417028 0.474540 0.320446
Si Si8 0.000000 0.387359 0.820170
O O1 0.750000 0.076480 0.250000
O O2 0.709976 0.120156 0.060871
O O3 0.823610 0.182113 0.167454
O O4 0.853588 0.059817 0.099580
O O5 0.395027 0.048415 0.187106
O O6 0.425780 0.083988 0.976039
O O7 0.320039 0.000000 0.000000
O O8 0.000000 0.321923 0.905394
O O9 0.071967 0.250000 0.061438
O O10 0.427515 0.750000 0.786657
O O11 0.500000 0.685634 0.956280
O O12 0.000000 0.143230 0.688848
O O13 0.500000 0.444731 0.346657
O O14 0.431467 0.556940 0.330143
#
# Coordination Sequence:
#
# PCOD9539535 Si02
#       8
#    16  16   4   4   8   8  16   8
#     4  10  22  36  62  92 125 159 203 253 320 373
#     4  11  19  34  60  95 120 153 196 259 325 362
#     4  11  27  42  64  82 121 189 224 240 306 373
#     4  11  23  34  66  92 115 159 206 248 330 371
#     4  12  20  37  65  95 125 153 203 267 320 373
#     4  11  25  44  57  86 133 166 208 264 299 377
#     4   9  18  35  62  90 125 154 198 257 307 369
#     4  10  21  40  64  87 129 164 215 260 299 371
#
# _framework density 20.215879999999999
#
# number of rings (size 3 to 8) (size 9 to 14) (size 15 to 20)
#    0.600    1.000    3.000    3.300    2.800    2.400 
#    0.000    1.000    0.000    1.200    0.000    0.000 
#    0.000    0.000    0.000    0.000    0.000    0.000 
#
# Total GULP energy -222789.093145 kJ/mol
# GULP energy per Si atom -5569.727329 kJ/mol
# Density = 2.016987 g / cm^3
# Si number density = 20.215880 Si / 1000 Ang^3
#
#
#
# Elastic Constant Matrix: (Units=GPa)
#
#
# Indices 1 2 3 4 5 6 
#
# 1 155.7894 47.2962 28.6101 0.0000 0.0000 0.0000
# 2 47.2962 100.5019 24.5694 0.0000 0.0000 0.0000
# 3 28.6101 24.5694 68.6964 0.0000 0.0000 0.0000
# 4 0.0000 0.0000 0.0000 12.3846 0.0000 0.0000
# 5 0.0000 0.0000 0.0000 0.0000 27.2226 0.0000
# 6 0.0000 0.0000 0.0000 0.0000 0.0000 -31.4414
#
#
#
# Elastic Compliance Matrix: (Units=1/GPa)
#
#
# Indices 1 2 3 4 5 6 
#
# 1 0.007758 -0.003135 -0.002110 0.000000 0.000000 0.000000
# 2 -0.003135 0.012170 -0.003047 0.000000 0.000000 0.000000
# 3 -0.002110 -0.003047 0.016525 0.000000 0.000000 0.000000
# 4 0.000000 0.000000 0.000000 0.080746 0.000000 0.000000
# 5 0.000000 0.000000 0.000000 0.000000 0.036734 0.000000
# 6 0.000000 0.000000 0.000000 0.000000 0.000000 -0.031805
#
#
# Mechanical properties :
#
#
# Convention : Reuss Voigt Hill
#
# Bulk Modulus (GPa) = 50.32764 58.43768 54.38266
# Shear Modulus (GPa) = 34.40311 16.60062 25.50187
#
# Velocity S-wave (km/s) = 4.12975 2.86871 3.55558
# Velocity P-wave (km/s) = 6.90571 6.31999 6.61933
#
# Compressibility (1/GPa) = 0.01986980
#
# Stress axis : x y z
#
# Youngs Moduli (GPa) = 128.89588 82.16650 60.51358
#
# Poissons Ratio (x) = 0.25761 0.12767
# Poissons Ratio (y) = 0.40412 0.18439
# Poissons Ratio (z) = 0.27194 0.25036
#
# Static dielectric constant tensor:
#      x y z
#    x 1.809340 0.000000 0.000000 
#    y 0.000000 1.874000 0.000000 
#    z 0.000000 0.000000 1.742570 
# 
# From -- ./inp_files/22148.got.cif
#   From: 2010.05.17/outbox.cif.g08.bks.cpg/sg74_12_cif.got.tgz:22148.got - 2010.06.03 17:57:02.
