data_PCOD9539531
_publ_section_title
;
Structure prediction by ZEFSAII (Michael W. Deem and Ramdas Pophale) SiO2 
 PCOD9539531
Probable space group: I M M A
;
_chemical_formula_sum "Si O2"
_cell_formula_units_Z 64
_cell_length_a 18.290073
_cell_length_b 21.776299
_cell_length_c 7.662467
_cell_angle_alpha 90.000000
_cell_angle_beta 90.000000
_cell_angle_gamma 90.000000
_cell_volume 3051.884735
_symmetry_space_group_name_H-M "I M M A"
_symmetry_group_IT_number 74
_symmetry_cell_setting 'orthorhombic'
loop_
_space_group_symop_operation_xyz
x,y,z
-x,1/2-y,z
x,-y,-z
-x,1/2+y,-z
-x,-y,-z
x,1/2+y,-z
-x,y,z
x,1/2-y,z
1/2+x,1/2+y,1/2+z
1/2-x,-y,1/2+z
1/2+x,1/2-y,1/2-z
1/2-x,y,1/2-z
1/2-x,1/2-y,1/2-z
1/2+x,y,1/2-z
1/2-x,1/2+y,1/2+z
1/2+x,-y,1/2+z
loop_
_atom_site_type_symbol
_atom_site_label
_atom_site_fract_x
_atom_site_fract_y
_atom_site_fract_z
Si Si1 0.347851 0.618247 0.886277
Si Si2 0.915266 0.750000 0.132181
Si Si3 0.337668 0.250000 0.263097
Si Si4 0.804628 0.069083 0.025387
Si Si5 0.083468 0.885526 0.261568
O O1 0.364564 0.687527 0.826983
O O2 0.265408 0.613610 0.964264
O O3 0.345086 0.577862 0.710787
O O4 0.400473 0.596997 0.039473
O O5 0.904737 0.687969 0.241203
O O6 0.000000 0.750000 0.071011
O O7 0.863948 0.750000 0.963087
O O8 0.250000 0.250000 0.250000
O O9 0.859424 0.084361 0.870296
O O10 0.777081 0.000000 0.000000
O O11 0.000000 0.899294 0.212757
#
# Coordination Sequence:
#
# PCOD9539531 Si02
#       5
#    16   8   8  16  16
#     4  11  24  40  69  98 126 168 217 266 322 380
#     4  10  21  40  63  92 133 172 203 256 332 388
#     4  12  19  40  66 101 127 157 217 273 319 370
#     4  11  25  43  66  92 128 169 216 268 318 376
#     4  11  24  42  65  95 130 169 212 261 323 389
#
# _framework density 20.970649000000002
#
# number of rings (size 3 to 8) (size 9 to 14) (size 15 to 20)
#    0.000    1.000    5.000    1.500    7.000    2.500 
#    0.000    5.000    0.000    0.000    0.000    0.000 
#    0.000    0.000    0.000    0.000    0.000    0.000 
#
# Total GULP energy -178921.918228 kJ/mol
# GULP energy per Si atom -5591.309945 kJ/mol
# Density = 2.092292 g / cm^3
# Si number density = 20.970649 Si / 1000 Ang^3
#
#
#
# Elastic Constant Matrix: (Units=GPa)
#
#
# Indices 1 2 3 4 5 6 
#
# 1 11.6345 2.1703 5.6068 0.0000 0.0000 0.0000
# 2 2.1703 61.3603 7.5451 0.0000 0.0000 0.0000
# 3 5.6068 7.5451 87.6831 0.0000 0.0000 0.0000
# 4 0.0000 0.0000 0.0000 2.4842 0.0000 0.0000
# 5 0.0000 0.0000 0.0000 0.0000 25.5410 0.0000
# 6 0.0000 0.0000 0.0000 0.0000 0.0000 6.6435
#
#
#
# Elastic Compliance Matrix: (Units=1/GPa)
#
#
# Indices 1 2 3 4 5 6 
#
# 1 0.089054 -0.002476 -0.005481 0.000000 0.000000 0.000000
# 2 -0.002476 0.016540 -0.001265 0.000000 0.000000 0.000000
# 3 -0.005481 -0.001265 0.011864 0.000000 0.000000 0.000000
# 4 0.000000 0.000000 0.000000 0.402537 0.000000 0.000000
# 5 0.000000 0.000000 0.000000 0.000000 0.039153 0.000000
# 6 0.000000 0.000000 0.000000 0.000000 0.000000 0.150522
#
#
# Mechanical properties :
#
#
# Convention : Reuss Voigt Hill
#
# Bulk Modulus (GPa) = 10.09956 21.25804 15.67880
# Shear Modulus (GPa) = 6.56926 16.62413 11.59670
#
# Velocity S-wave (km/s) = 1.77183 2.81861 2.35414
# Velocity P-wave (km/s) = 3.00206 4.55541 3.85773
#
# Compressibility (1/GPa) = 0.09901420
#
# Stress axis : x y z
#
# Youngs Moduli (GPa) = 11.22910 60.45838 84.28818
#
# Poissons Ratio (x) = 0.14969 0.46202
# Poissons Ratio (y) = 0.02780 0.10662
# Poissons Ratio (z) = 0.06155 0.07648
#
# Static dielectric constant tensor:
#      x y z
#    x 1.730860 0.000000 0.000000 
#    y 0.000000 1.758620 0.000000 
#    z 0.000000 0.000000 1.740870 
# 
# From -- ./inp_files/10324.got.cif
#   From: 2010.05.17/outbox.cif.g08.bks.cpg/sg74_6_cif.got.tgz:10324.got - 2010.06.03 17:57:02.
