data_PCOD9539887
_publ_section_title
;
Structure prediction by ZEFSAII (Michael W. Deem and Ramdas Pophale) SiO2 
 PCOD9539887
Probable space group: I M M A
;
_chemical_formula_sum "Si O2"
_cell_formula_units_Z 96
_cell_length_a 23.553381
_cell_length_b 19.199990
_cell_length_c 12.283031
_cell_angle_alpha 90.000000
_cell_angle_beta 90.000000
_cell_angle_gamma 90.000000
_cell_volume 5554.689759
_symmetry_space_group_name_H-M "I M M A"
_symmetry_group_IT_number 74
_symmetry_cell_setting 'orthorhombic'
loop_
_space_group_symop_operation_xyz
x,y,z
-x,1/2-y,z
x,-y,-z
-x,1/2+y,-z
-x,-y,-z
x,1/2+y,-z
-x,y,z
x,1/2-y,z
1/2+x,1/2+y,1/2+z
1/2-x,-y,1/2+z
1/2+x,1/2-y,1/2-z
1/2-x,y,1/2-z
1/2-x,1/2-y,1/2-z
1/2+x,y,1/2-z
1/2-x,1/2+y,1/2+z
1/2+x,-y,1/2+z
loop_
_atom_site_type_symbol
_atom_site_label
_atom_site_fract_x
_atom_site_fract_y
_atom_site_fract_z
Si Si1 0.500000 0.983342 0.871549
Si Si2 0.311151 0.392699 0.199591
Si Si3 0.879837 0.537034 0.286668
Si Si4 0.293959 0.919089 0.038949
Si Si5 0.335341 0.575103 0.442468
Si Si6 0.885061 0.827923 0.871355
Si Si7 0.000000 0.834198 0.740521
O O1 0.500000 0.899255 0.845536
O O2 0.443753 0.019250 0.821358
O O3 0.500000 0.000000 0.000000
O O4 0.250000 0.408556 0.250000
O O5 0.348380 0.462136 0.214387
O O6 0.340059 0.334716 0.273227
O O7 0.306000 0.377070 0.071827
O O8 0.844336 0.583184 0.373567
O O9 0.870954 0.569314 0.167907
O O10 0.230364 0.903803 0.080677
O O11 0.293229 0.000000 0.000000
O O12 0.332572 0.500000 0.500000
O O13 0.364518 0.623731 0.531430
O O14 0.888176 0.750000 0.913044
O O15 0.944913 0.845354 0.815660
O O16 0.000000 0.750000 0.706321
#
# Coordination Sequence:
#
# PCOD9539887 Si02
#       7
#     8  16  16  16  16  16   8
#     4  12  22  37  59  91 119 145 198 252 283 332
#     4  11  17  33  54  82 113 142 189 236 293 341
#     4  11  21  32  55  85 116 150 189 238 290 346
#     4   9  18  30  52  82 115 148 179 236 296 345
#     4  11  18  35  57  81 113 147 195 237 285 353
#     4  11  23  37  57  85 117 154 193 240 294 349
#     4  10  22  41  59  81 123 161 185 233 302 353
#
# _framework density 17.282693999999999
#
# number of rings (size 3 to 8) (size 9 to 14) (size 15 to 20)
#    0.000    1.333    5.000    4.000    0.000    1.000 
#    0.000    1.667    0.000    4.000    0.000    0.000 
#    0.000    0.000    0.000    0.000    0.000    0.000 
#
# Total GULP energy -267609.864076 kJ/mol
# GULP energy per Si atom -5575.205502 kJ/mol
# Density = 1.724336 g / cm^3
# Si number density = 17.282694 Si / 1000 Ang^3
#
#
#
# Elastic Constant Matrix: (Units=GPa)
#
#
# Indices 1 2 3 4 5 6 
#
# 1 155.1805 37.4854 69.7757 0.0000 0.0000 0.0000
# 2 37.4854 58.3971 43.8217 0.0000 0.0000 0.0000
# 3 69.7757 43.8217 133.6887 0.0000 0.0000 0.0000
# 4 0.0000 0.0000 0.0000 12.5161 0.0000 0.0000
# 5 0.0000 0.0000 0.0000 0.0000 16.7304 0.0000
# 6 0.0000 0.0000 0.0000 0.0000 0.0000 15.1606
#
#
#
# Elastic Compliance Matrix: (Units=1/GPa)
#
#
# Indices 1 2 3 4 5 6 
#
# 1 0.008779 -0.002913 -0.003627 0.000000 0.000000 0.000000
# 2 -0.002913 0.023677 -0.006241 0.000000 0.000000 0.000000
# 3 -0.003627 -0.006241 0.011419 0.000000 0.000000 0.000000
# 4 0.000000 0.000000 0.000000 0.079897 0.000000 0.000000
# 5 0.000000 0.000000 0.000000 0.000000 0.059771 0.000000
# 6 0.000000 0.000000 0.000000 0.000000 0.000000 0.065961
#
#
# Mechanical properties :
#
#
# Convention : Reuss Voigt Hill
#
# Bulk Modulus (GPa) = 54.60644 72.15911 63.38278
# Shear Modulus (GPa) = 17.78287 21.96032 19.87159
#
# Velocity S-wave (km/s) = 3.21119 3.56849 3.39454
# Velocity P-wave (km/s) = 6.73896 7.66953 7.21926
#
# Compressibility (1/GPa) = 0.01831286
#
# Stress axis : x y z
#
# Youngs Moduli (GPa) = 113.91272 42.23463 87.57659
#
# Poissons Ratio (x) = 0.12305 0.31762
# Poissons Ratio (y) = 0.33188 0.54652
# Poissons Ratio (z) = 0.41314 0.26357
#
# Static dielectric constant tensor:
#      x y z
#    x 1.625460 0.000000 0.000000 
#    y 0.000000 1.591810 0.000000 
#    z 0.000000 0.000000 1.599090 
# 
# From -- ./inp_files/23958.got.cif
#   From: 2010.05.17/outbox.cif.g08.bks.cpg/sg74_12_cif.got.tgz:23958.got - 2010.06.03 17:57:02.
