data_PCOD9539740
_publ_section_title
;
Structure prediction by ZEFSAII (Michael W. Deem and Ramdas Pophale) SiO2 
 PCOD9539740
Probable space group: I M M A
;
_chemical_formula_sum "Si O2"
_cell_formula_units_Z 72
_cell_length_a 23.117318
_cell_length_b 26.626326
_cell_length_c 5.153036
_cell_angle_alpha 90.000000
_cell_angle_beta 90.000000
_cell_angle_gamma 90.000000
_cell_volume 3171.844360
_symmetry_space_group_name_H-M "I M M A"
_symmetry_group_IT_number 74
_symmetry_cell_setting 'orthorhombic'
loop_
_space_group_symop_operation_xyz
x,y,z
-x,1/2-y,z
x,-y,-z
-x,1/2+y,-z
-x,-y,-z
x,1/2+y,-z
-x,y,z
x,1/2-y,z
1/2+x,1/2+y,1/2+z
1/2-x,-y,1/2+z
1/2+x,1/2-y,1/2-z
1/2-x,y,1/2-z
1/2-x,1/2-y,1/2-z
1/2+x,y,1/2-z
1/2-x,1/2+y,1/2+z
1/2+x,-y,1/2+z
loop_
_atom_site_type_symbol
_atom_site_label
_atom_site_fract_x
_atom_site_fract_y
_atom_site_fract_z
Si Si1 0.890189 0.808976 0.473350
Si Si2 0.000000 0.965243 0.255412
Si Si3 0.565673 0.360900 0.454847
Si Si4 0.789346 0.612270 0.495805
Si Si5 0.127480 0.552640 0.147931
O O1 0.880166 0.750000 0.456643
O O2 0.930304 0.824070 0.713032
O O3 0.831821 0.840433 0.526105
O O4 0.919349 0.829901 0.212201
O O5 0.936225 0.941918 0.275276
O O6 0.000000 0.000000 0.500000
O O7 0.000000 0.000000 0.000000
O O8 0.500000 0.382404 0.459434
O O9 0.616442 0.403248 0.436234
O O10 0.750000 0.626184 0.250000
O O11 0.826396 0.566105 0.368863
O O12 0.750000 0.601384 0.750000
O O13 0.136180 0.500000 0.000000
#
# Coordination Sequence:
#
# PCOD9539740 Si02
#       5
#    16   8  16  16  16
#     4  11  25  44  69 102 138 181 236 293 355 421
#     4  10  22  38  66 100 131 172 223 278 340 406
#     4  11  23  41  68 104 146 185 224 282 355 429
#     4  11  25  47  72 100 140 187 241 295 351 412
#     4  10  23  46  71 107 142 184 236 290 348 421
#
# _framework density 22.699725000000001
#
# number of rings (size 3 to 8) (size 9 to 14) (size 15 to 20)
#    0.000    1.333    1.111    4.000    0.000   14.222 
#    0.000    4.444    0.000    0.000    0.000    0.000 
#    0.000    0.000    0.000    0.000    0.000    0.000 
#
# Total GULP energy -201053.224446 kJ/mol
# GULP energy per Si atom -5584.811790 kJ/mol
# Density = 2.264806 g / cm^3
# Si number density = 22.699725 Si / 1000 Ang^3
#
#
#
# Elastic Constant Matrix: (Units=GPa)
#
#
# Indices 1 2 3 4 5 6 
#
# 1 139.7083 46.4512 50.9111 0.0000 0.0000 0.0000
# 2 46.4512 161.8078 67.8224 0.0000 0.0000 0.0000
# 3 50.9111 67.8224 150.2459 0.0000 0.0000 0.0000
# 4 0.0000 0.0000 0.0000 22.6331 0.0000 0.0000
# 5 0.0000 0.0000 0.0000 0.0000 -64.0221 0.0000
# 6 0.0000 0.0000 0.0000 0.0000 0.0000 19.6980
#
#
#
# Elastic Compliance Matrix: (Units=1/GPa)
#
#
# Indices 1 2 3 4 5 6 
#
# 1 0.008456 -0.001513 -0.002182 0.000000 0.000000 0.000000
# 2 -0.001513 0.007893 -0.003050 0.000000 0.000000 0.000000
# 3 -0.002182 -0.003050 0.008772 0.000000 0.000000 0.000000
# 4 0.000000 0.000000 0.000000 0.044183 0.000000 0.000000
# 5 0.000000 0.000000 0.000000 0.000000 -0.015620 0.000000
# 6 0.000000 0.000000 0.000000 0.000000 0.000000 0.050767
#
#
# Mechanical properties :
#
#
# Convention : Reuss Voigt Hill
#
# Bulk Modulus (GPa) = 85.98363 86.90351 86.44357
# Shear Modulus (GPa) = 41.04439 14.76695 27.90567
#
# Velocity S-wave (km/s) = 4.25684 2.55332 3.51000
# Velocity P-wave (km/s) = 7.88174 6.86001 7.38856
#
# Compressibility (1/GPa) = 0.01163012
#
# Stress axis : x y z
#
# Youngs Moduli (GPa) = 118.25846 126.69406 113.99559
#
# Poissons Ratio (x) = 0.19165 0.24879
# Poissons Ratio (y) = 0.17889 0.34773
# Poissons Ratio (z) = 0.25810 0.38647
#
# Static dielectric constant tensor:
#      x y z
#    x 1.853630 0.000000 0.000000 
#    y 0.000000 1.911810 0.000000 
#    z 0.000000 0.000000 1.891360 
# 
# From -- ./inp_files/3733.got.cif
#   From: 2010.05.17/outbox.cif.g08.bks.cpg/sg74_2_cif.got.tgz:3733.got - 2010.06.03 17:57:02.
