data_PCOD9539980
_publ_section_title
;
Structure prediction by ZEFSAII (Michael W. Deem and Ramdas Pophale) SiO2 
 PCOD9539980
Probable space group: I M M A
;
_chemical_formula_sum "Si O2"
_cell_formula_units_Z 84
_cell_length_a 14.446346
_cell_length_b 22.561749
_cell_length_c 12.166399
_cell_angle_alpha 90.000000
_cell_angle_beta 90.000000
_cell_angle_gamma 90.000000
_cell_volume 3965.453219
_symmetry_space_group_name_H-M "I M M A"
_symmetry_group_IT_number 74
_symmetry_cell_setting 'orthorhombic'
loop_
_space_group_symop_operation_xyz
x,y,z
-x,1/2-y,z
x,-y,-z
-x,1/2+y,-z
-x,-y,-z
x,1/2+y,-z
-x,y,z
x,1/2-y,z
1/2+x,1/2+y,1/2+z
1/2-x,-y,1/2+z
1/2+x,1/2-y,1/2-z
1/2-x,y,1/2-z
1/2-x,1/2-y,1/2-z
1/2+x,y,1/2-z
1/2-x,1/2+y,1/2+z
1/2+x,-y,1/2+z
loop_
_atom_site_type_symbol
_atom_site_label
_atom_site_fract_x
_atom_site_fract_y
_atom_site_fract_z
Si Si1 0.105819 0.040109 0.357915
Si Si2 0.347001 0.646614 0.694923
Si Si3 0.157542 0.183729 0.677375
Si Si4 0.102762 0.069642 0.800447
Si Si5 0.000000 0.250000 0.196380
Si Si6 0.748019 0.098155 0.515243
O O1 0.117690 0.090696 0.265467
O O2 0.181056 0.056587 0.449422
O O3 0.000000 0.041953 0.399625
O O4 0.120960 0.977964 0.295716
O O5 0.250000 0.665313 0.750000
O O6 0.419936 0.698405 0.696111
O O7 0.323176 0.624925 0.572726
O O8 0.118561 0.250000 0.661986
O O9 0.250000 0.189821 0.750000
O O10 0.101120 0.134660 0.744883
O O11 0.190672 0.151449 0.566456
O O12 0.185097 0.069304 0.889186
O O13 0.000000 0.056715 0.846512
#
# Coordination Sequence:
#
# PCOD9539980 Si02
#       6
#    16  16  16  16   4  16
#     4  10  22  44  65  97 132 174 223 274 331 397
#     4  10  23  40  64  97 136 180 223 275 329 392
#     4   9  20  40  60  90 130 173 216 264 317 384
#     4  10  23  41  69  98 133 170 215 276 340 396
#     4  12  22  40  64  92 146 180 222 270 338 382
#     4  10  23  41  68  97 128 173 223 275 329 396
#
# _framework density 21.182950000000002
#
# number of rings (size 3 to 8) (size 9 to 14) (size 15 to 20)
#    0.000    2.095    0.952    0.286    2.667   11.048 
#    1.714    3.810    0.000    1.143    0.000    0.000 
#    0.000    0.000    0.000    0.000    0.000    0.000 
#
# Total GULP energy -234190.329805 kJ/mol
# GULP energy per Si atom -5575.960233 kJ/mol
# Density = 2.113474 g / cm^3
# Si number density = 21.182950 Si / 1000 Ang^3
#
#
#
# Elastic Constant Matrix: (Units=GPa)
#
#
# Indices 1 2 3 4 5 6 
#
# 1 158.5758 70.8766 42.9640 0.0000 0.0000 0.0000
# 2 70.8766 133.7026 45.1140 -0.0001 0.0000 -0.0001
# 3 42.9640 45.1140 87.9293 -0.0001 0.0000 0.0000
# 4 0.0000 -0.0001 -0.0001 -5.1199 0.0000 0.0001
# 5 0.0000 0.0000 0.0000 0.0000 -39.1187 0.0001
# 6 0.0000 -0.0001 0.0000 0.0001 0.0001 63.8799
#
#
#
# Elastic Compliance Matrix: (Units=1/GPa)
#
#
# Indices 1 2 3 4 5 6 
#
# 1 0.008620 -0.003807 -0.002258 0.000000 0.000000 0.000000
# 2 -0.003807 0.010727 -0.003643 0.000000 0.000000 0.000000
# 3 -0.002258 -0.003643 0.014346 0.000000 0.000000 0.000000
# 4 0.000000 0.000000 0.000000 -0.195315 0.000000 0.000000
# 5 0.000000 0.000000 0.000000 0.000000 -0.025563 0.000000
# 6 0.000000 0.000000 0.000000 0.000000 0.000000 0.015654
#
#
# Mechanical properties :
#
#
# Convention : Reuss Voigt Hill
#
# Bulk Modulus (GPa) = 70.05672 77.56856 73.81264
# Shear Modulus (GPa) = -33.93143 18.67847 -7.62648
#
# Velocity S-wave (km/s) = -4.00663 2.97268 -1.89950
# Velocity P-wave (km/s) = 3.42636 6.96278 5.48727
#
# Compressibility (1/GPa) = 0.01427415
#
# Stress axis : x y z
#
# Youngs Moduli (GPa) = 116.01293 93.22336 69.70826
#
# Poissons Ratio (x) = 0.35494 0.15742
# Poissons Ratio (y) = 0.44170 0.25397
# Poissons Ratio (z) = 0.26199 0.33964
#
# Static dielectric constant tensor:
#      x y z
#    x 1.762810 0.000000 0.000000 
#    y 0.000000 1.757890 0.000000 
#    z 0.000000 0.000000 1.772460 
# 
# From -- ./inp_files/20656.got.cif
#   From: 2010.05.17/outbox.cif.g08.bks.cpg/sg74_11_cif.got.tgz:20656.got - 2010.06.03 17:57:02.
