data_PCOD9539573
_publ_section_title
;
Structure prediction by ZEFSAII (Michael W. Deem and Ramdas Pophale) SiO2 
 PCOD9539573
Probable space group: I M M A
;
_chemical_formula_sum "Si O2"
_cell_formula_units_Z 92
_cell_length_a 20.630894
_cell_length_b 12.137026
_cell_length_c 19.026762
_cell_angle_alpha 90.000000
_cell_angle_beta 90.000000
_cell_angle_gamma 90.000000
_cell_volume 4764.257384
_symmetry_space_group_name_H-M "I M M A"
_symmetry_group_IT_number 74
_symmetry_cell_setting 'orthorhombic'
loop_
_space_group_symop_operation_xyz
x,y,z
-x,1/2-y,z
x,-y,-z
-x,1/2+y,-z
-x,-y,-z
x,1/2+y,-z
-x,y,z
x,1/2-y,z
1/2+x,1/2+y,1/2+z
1/2-x,-y,1/2+z
1/2+x,1/2-y,1/2-z
1/2-x,y,1/2-z
1/2-x,1/2-y,1/2-z
1/2+x,y,1/2-z
1/2-x,1/2+y,1/2+z
1/2+x,-y,1/2+z
loop_
_atom_site_type_symbol
_atom_site_label
_atom_site_fract_x
_atom_site_fract_y
_atom_site_fract_z
Si Si1 0.864725 0.250000 0.720359
Si Si2 0.421629 0.250000 0.622329
Si Si3 0.500000 0.506868 0.082460
Si Si4 0.345856 0.958722 0.421072
Si Si5 0.000000 0.750000 0.358869
Si Si6 0.614908 0.119442 0.159250
Si Si7 0.776988 0.957585 0.325703
Si Si8 0.075063 0.119429 0.178019
O O1 0.882185 0.250000 0.803197
O O2 0.823982 0.144339 0.694309
O O3 0.934860 0.250000 0.685909
O O4 0.500000 0.250000 0.632160
O O5 0.396160 0.142673 0.581499
O O6 0.500000 0.635580 0.100234
O O7 0.438778 0.444141 0.114993
O O8 0.500000 0.500000 0.000000
O O9 0.280052 0.926808 0.379470
O O10 0.333681 0.000000 0.500000
O O11 0.379489 0.053916 0.374701
O O12 0.614889 0.250000 0.145829
O O13 0.597485 0.101813 0.241576
O O14 0.682364 0.059467 0.144404
O O15 0.750000 0.993456 0.250000
O O16 0.077809 0.250000 0.164586
O O17 0.000000 0.083178 0.171862
#
# Coordination Sequence:
#
# PCOD9539573 Si02
#       8
#     8   8   8  16   4  16  16  16
#     4  12  22  44  75 110 130 171 237 298 351 422
#     4  12  25  43  76 104 136 177 229 298 368 415
#     4  12  27  46  69 104 146 177 223 292 355 412
#     4  12  28  45  63  97 143 184 226 283 344 423
#     4  12  26  44  78 104 136 176 232 298 348 424
#     4  11  23  42  71 102 132 178 231 283 340 406
#     4  12  23  42  70  98 138 178 233 282 343 416
#     4  10  21  40  70  98 127 171 226 282 338 400
#
# _framework density 19.310459999999999
#
# number of rings (size 3 to 8) (size 9 to 14) (size 15 to 20)
#    0.000    0.522    6.522    1.565    2.435    3.130 
#    0.000    0.000    0.000    0.000    0.000    0.000 
#    0.000    0.000    0.000    0.000    0.000    0.000 
#
# Total GULP energy -257160.612446 kJ/mol
# GULP energy per Si atom -5590.448097 kJ/mol
# Density = 1.926651 g / cm^3
# Si number density = 19.310460 Si / 1000 Ang^3
#
#
#
# Elastic Constant Matrix: (Units=GPa)
#
#
# Indices 1 2 3 4 5 6 
#
# 1 132.3721 49.9934 39.9419 0.0000 0.0000 0.0000
# 2 49.9934 106.8708 49.1527 0.0000 0.0000 0.0000
# 3 39.9419 49.1527 101.2575 0.0000 0.0000 0.0000
# 4 0.0000 0.0000 0.0000-1475.6792 0.0000 0.0000
# 5 0.0000 0.0000 0.0000 0.0000 10.8711 0.0000
# 6 0.0000 0.0000 0.0000 0.0000 0.0000 -14.9984
#
#
#
# Elastic Compliance Matrix: (Units=1/GPa)
#
#
# Indices 1 2 3 4 5 6 
#
# 1 0.009494 -0.003500 -0.002046 0.000000 0.000000 0.000000
# 2 -0.003500 0.013337 -0.005093 0.000000 0.000000 0.000000
# 3 -0.002046 -0.005093 0.013155 0.000000 0.000000 0.000000
# 4 0.000000 0.000000 0.000000 -0.000678 0.000000 0.000000
# 5 0.000000 0.000000 0.000000 0.000000 0.091987 0.000000
# 6 0.000000 0.000000 0.000000 0.000000 0.000000 -0.066674
#
#
# Mechanical properties :
#
#
# Convention : Reuss Voigt Hill
#
# Bulk Modulus (GPa) = 67.99394 68.74181 68.36788
# Shear Modulus (GPa) = 57.60219 -282.53379 -112.46580
#
# Velocity S-wave (km/s) = 5.46757 -12.10904 -7.63985
# Velocity P-wave (km/s) = 8.66870 12.64238 6.50704
#
# Compressibility (1/GPa) = 0.01470719
#
# Stress axis : x y z
#
# Youngs Moduli (GPa) = 105.33326 74.97914 76.01513
#
# Poissons Ratio (x) = 0.26244 0.15551
# Poissons Ratio (y) = 0.36868 0.38718
# Poissons Ratio (z) = 0.21549 0.38190
#
# Static dielectric constant tensor:
#      x y z
#    x 1.690860 0.000000 0.000000 
#    y 0.000000 1.659360 0.000000 
#    z 0.000000 0.000000 1.640930 
# 
# From -- ./inp_files/45188.got.cif
#   From: 2010.05.17/outbox.cif.g08.bks.cpg/sg74_23_cif.got.tgz:45188.got - 2010.06.03 17:57:02.
