data_PCOD9539081
_publ_section_title
;
Structure prediction by ZEFSAII (Michael W. Deem and Ramdas Pophale) SiO2 
 PCOD9539081
Probable space group: I M M A
;
_chemical_formula_sum "Si O2"
_cell_formula_units_Z 96
_cell_length_a 20.734095
_cell_length_b 8.849088
_cell_length_c 28.536940
_cell_angle_alpha 90.000000
_cell_angle_beta 90.000000
_cell_angle_gamma 90.000000
_cell_volume 5235.895862
_symmetry_space_group_name_H-M "I M M A"
_symmetry_group_IT_number 74
_symmetry_cell_setting 'orthorhombic'
loop_
_space_group_symop_operation_xyz
x,y,z
-x,1/2-y,z
x,-y,-z
-x,1/2+y,-z
-x,-y,-z
x,1/2+y,-z
-x,y,z
x,1/2-y,z
1/2+x,1/2+y,1/2+z
1/2-x,-y,1/2+z
1/2+x,1/2-y,1/2-z
1/2-x,y,1/2-z
1/2-x,1/2-y,1/2-z
1/2+x,y,1/2-z
1/2-x,1/2+y,1/2+z
1/2+x,-y,1/2+z
loop_
_atom_site_type_symbol
_atom_site_label
_atom_site_fract_x
_atom_site_fract_y
_atom_site_fract_z
Si Si1 0.424966 0.569405 0.449224
Si Si2 0.925331 0.932017 0.394750
Si Si3 0.814662 0.932396 0.776829
Si Si4 0.315622 0.567596 0.614802
Si Si5 0.806525 0.931033 0.551073
Si Si6 0.425901 0.431882 0.786121
O O1 0.408960 0.500000 0.500000
O O2 0.500000 0.532388 0.439209
O O3 0.418760 0.750000 0.451447
O O4 0.376993 0.502613 0.411009
O O5 0.919889 0.750000 0.398507
O O6 0.912113 0.973541 0.340354
O O7 0.000000 0.971592 0.404982
O O8 0.873830 0.009595 0.428141
O O9 0.816764 0.750000 0.775704
O O10 0.750000 0.981669 0.750000
O O11 0.812541 0.979784 0.831037
O O12 0.876020 0.995289 0.749350
O O13 0.320429 0.750000 0.613304
O O14 0.251161 0.524619 0.586383
O O15 0.807829 0.750000 0.547882
O O16 0.794771 0.000000 0.500000
O O17 0.500000 0.475216 0.776051
O O18 0.421960 0.250000 0.783291
#
# Coordination Sequence:
#
# PCOD9539081 Si02
#       6
#    16  16  16  16  16  16
#     4  10  21  37  58  83 110 142 180 222 269 322
#     4   9  19  37  59  82 110 144 181 222 268 318
#     4  10  21  37  56  80 111 144 181 226 271 318
#     4  10  22  38  56  80 110 144 182 225 271 319
#     4  11  23  38  57  81 109 142 181 225 272 323
#     4   9  19  36  57  82 112 144 180 223 268 317
#
# _framework density 18.334972
#
# number of rings (size 3 to 8) (size 9 to 14) (size 15 to 20)
#    0.000    2.167    0.000    3.500    0.000    8.333 
#    0.000    5.000    0.000    0.000    0.000    0.000 
#    0.000    0.000    0.000    0.000    0.000    0.000 
#
# Total GULP energy -268103.651250 kJ/mol
# GULP energy per Si atom -5585.492734 kJ/mol
# Density = 1.829324 g / cm^3
# Si number density = 18.334972 Si / 1000 Ang^3
#
#
#
# Elastic Constant Matrix: (Units=GPa)
#
#
# Indices 1 2 3 4 5 6 
#
# 1 72.7730 22.9509 48.5105 0.0000 0.0000 0.0000
# 2 22.9509 17.1144 26.4372 0.0000 0.0000 0.0000
# 3 48.5105 26.4372 86.6592 0.0000 0.0000 0.0000
# 4 0.0000 0.0000 0.0000 30.8444 0.0000 0.0000
# 5 0.0000 0.0000 0.0000 0.0000 41.9494 0.0000
# 6 0.0000 0.0000 0.0000 0.0000 0.0000 34.5803
#
#
#
# Elastic Compliance Matrix: (Units=1/GPa)
#
#
# Indices 1 2 3 4 5 6 
#
# 1 0.026127 -0.023536 -0.007445 0.000000 0.000000 0.000000
# 2 -0.023536 0.131710 -0.027006 0.000000 0.000000 0.000000
# 3 -0.007445 -0.027006 0.023946 0.000000 0.000000 0.000000
# 4 0.000000 0.000000 0.000000 0.032421 0.000000 0.000000
# 5 0.000000 0.000000 0.000000 0.000000 0.023838 0.000000
# 6 0.000000 0.000000 0.000000 0.000000 0.000000 0.028918
#
#
# Mechanical properties :
#
#
# Convention : Reuss Voigt Hill
#
# Bulk Modulus (GPa) = 15.19562 41.37150 28.28356
# Shear Modulus (GPa) = 12.34963 26.71802 19.53383
#
# Velocity S-wave (km/s) = 2.59811 3.82149 3.26757
# Velocity P-wave (km/s) = 4.16005 6.48729 5.44936
#
# Compressibility (1/GPa) = 0.06580845
#
# Stress axis : x y z
#
# Youngs Moduli (GPa) = 38.27420 7.59246 41.76082
#
# Poissons Ratio (x) = 0.17870 0.31093
# Poissons Ratio (y) = 0.90083 1.12777
# Poissons Ratio (z) = 0.28497 0.20504
#
# Static dielectric constant tensor:
#      x y z
#    x 1.612980 0.000000 0.000000 
#    y 0.000000 1.616920 0.000000 
#    z 0.000000 0.000000 1.607280 
# 
# From -- ./inp_files/64315.got.cif
#   From: 2010.05.17/outbox.cif.g08.bks.cpg/sg74_33_cif.got.tgz:64315.got - 2010.06.03 17:57:02.
