data_PCOD9539647
_publ_section_title
;
Structure prediction by ZEFSAII (Michael W. Deem and Ramdas Pophale) SiO2 
 PCOD9539647
Probable space group: I M M A
;
_chemical_formula_sum "Si O2"
_cell_formula_units_Z 112
_cell_length_a 14.016234
_cell_length_b 22.808654
_cell_length_c 17.697321
_cell_angle_alpha 90.000000
_cell_angle_beta 90.000000
_cell_angle_gamma 90.000000
_cell_volume 5657.681888
_symmetry_space_group_name_H-M "I M M A"
_symmetry_group_IT_number 74
_symmetry_cell_setting 'orthorhombic'
loop_
_space_group_symop_operation_xyz
x,y,z
-x,1/2-y,z
x,-y,-z
-x,1/2+y,-z
-x,-y,-z
x,1/2+y,-z
-x,y,z
x,1/2-y,z
1/2+x,1/2+y,1/2+z
1/2-x,-y,1/2+z
1/2+x,1/2-y,1/2-z
1/2-x,y,1/2-z
1/2-x,1/2-y,1/2-z
1/2+x,y,1/2-z
1/2-x,1/2+y,1/2+z
1/2+x,-y,1/2+z
loop_
_atom_site_type_symbol
_atom_site_label
_atom_site_fract_x
_atom_site_fract_y
_atom_site_fract_z
Si Si1 0.613148 0.820482 0.146080
Si Si2 0.390408 0.508528 0.327383
Si Si3 0.893976 0.073951 0.312192
Si Si4 0.224770 0.896371 0.084867
Si Si5 0.201974 0.405689 0.091286
Si Si6 0.851216 0.184144 0.208318
Si Si7 0.613411 0.315258 0.684540
O O1 0.500000 0.827286 0.135615
O O2 0.631950 0.750000 0.136184
O O3 0.673304 0.865407 0.096403
O O4 0.638680 0.838627 0.232332
O O5 0.500000 0.531776 0.332877
O O6 0.377613 0.481567 0.243586
O O7 0.309073 0.552193 0.358158
O O8 0.375867 0.452341 0.380794
O O9 0.803867 0.080536 0.367726
O O10 0.897127 0.132037 0.258514
O O11 0.000000 0.068035 0.347085
O O12 0.151484 0.847015 0.111956
O O13 0.212496 0.911116 0.997789
O O14 0.167801 0.343297 0.125475
O O15 0.892565 0.250000 0.206743
O O16 0.750000 0.189549 0.250000
O O17 0.500000 0.313684 0.683598
O O18 0.652092 0.250000 0.683636
#
# Coordination Sequence:
#
# PCOD9539647 Si02
#       7
#    16  16  16  16  16  16  16
#     4   9  20  39  59  81 115 158 198 232 270 325
#     4  10  22  41  61  79 105 147 196 239 280 336
#     4   9  19  38  61  81 107 148 193 233 275 329
#     4  12  22  33  57  89 116 144 184 233 287 341
#     4  10  22  36  54  84 121 150 177 228 299 352
#     4   8  15  31  54  78 107 146 192 233 267 318
#     4   9  19  36  56  79 109 147 192 238 279 324
#
# _framework density 19.796094
#
# number of rings (size 3 to 8) (size 9 to 14) (size 15 to 20)
#    0.000    2.429    0.000    3.857    0.000    7.143 
#    0.000    2.143    0.000    1.714    0.000    0.000 
#    0.000    0.000    0.000    0.000    0.000    0.000 
#
# Total GULP energy -311898.533301 kJ/mol
# GULP energy per Si atom -5569.616666 kJ/mol
# Density = 1.975104 g / cm^3
# Si number density = 19.796094 Si / 1000 Ang^3
#
#
#
# Elastic Constant Matrix: (Units=GPa)
#
#
# Indices 1 2 3 4 5 6 
#
# 1 -69.5244 -23.6742 -77.5278 0.0001 0.0000 0.0000
# 2 -23.6742 50.8909 -12.3262 0.0001 0.0000 0.0000
# 3 -77.5278 -12.3262 4.9330 0.0001 0.0000 0.0000
# 4 0.0001 0.0001 0.0001 13.9037 0.0000 0.0000
# 5 0.0000 0.0000 0.0000 0.0000 23.9731 0.0000
# 6 0.0000 0.0000 0.0000 0.0000 0.0000 23.2395
#
#
#
# Elastic Compliance Matrix: (Units=1/GPa)
#
#
# Indices 1 2 3 4 5 6 
#
# 1 -0.000275 -0.002972 -0.011745 0.000000 0.000000 0.000000
# 2 -0.002972 0.017610 -0.002712 0.000000 0.000000 0.000000
# 3 -0.011745 -0.002712 0.011360 0.000000 0.000000 0.000000
# 4 0.000000 0.000000 0.000000 0.071923 0.000000 0.000000
# 5 0.000000 0.000000 0.000000 0.000000 0.041713 0.000000
# 6 0.000000 0.000000 0.000000 0.000000 0.000000 0.043030
#
#
# Mechanical properties :
#
#
# Convention : Reuss Voigt Hill
#
# Bulk Modulus (GPa) = -162.28273 -26.75077 -94.51675
# Shear Modulus (GPa) = 22.91826 18.87844 20.89835
#
# Velocity S-wave (km/s) = 3.40621 3.09146 3.25265
# Velocity P-wave (km/s) = 8.16611 0.89422 5.80883
#
# Compressibility (1/GPa) = -0.00616209
#
# Stress axis : x y z
#
# Youngs Moduli (GPa) = -3640.22746 56.78507 88.02589
#
# Poissons Ratio (x) = 0.16879 1.03383
# Poissons Ratio (y) = -10.82032 0.23872
# Poissons Ratio (z) = -42.75293 0.15400
#
# Static dielectric constant tensor:
#      x y z
#    x 1.728480 0.000000 0.000000 
#    y 0.000000 1.773960 0.000000 
#    z 0.000000 0.000000 1.669510 
# 
# From -- ./inp_files/32689.got.cif
#   From: 2010.05.17/outbox.cif.g08.bks.cpg/sg74_17_cif.got.tgz:32689.got - 2010.06.03 17:57:02.
