data_PCOD9539152
_publ_section_title
;
Structure prediction by ZEFSAII (Michael W. Deem and Ramdas Pophale) SiO2 
 PCOD9539152
Probable space group: I M M A
;
_chemical_formula_sum "Si O2"
_cell_formula_units_Z 100
_cell_length_a 25.859805
_cell_length_b 7.540464
_cell_length_c 19.938163
_cell_angle_alpha 90.000000
_cell_angle_beta 90.000000
_cell_angle_gamma 90.000000
_cell_volume 3887.840672
_symmetry_space_group_name_H-M "I M M A"
_symmetry_group_IT_number 74
_symmetry_cell_setting 'orthorhombic'
loop_
_space_group_symop_operation_xyz
x,y,z
-x,1/2-y,z
x,-y,-z
-x,1/2+y,-z
-x,-y,-z
x,1/2+y,-z
-x,y,z
x,1/2-y,z
1/2+x,1/2+y,1/2+z
1/2-x,-y,1/2+z
1/2+x,1/2-y,1/2-z
1/2-x,y,1/2-z
1/2-x,1/2-y,1/2-z
1/2+x,y,1/2-z
1/2-x,1/2+y,1/2+z
1/2+x,-y,1/2+z
loop_
_atom_site_type_symbol
_atom_site_label
_atom_site_fract_x
_atom_site_fract_y
_atom_site_fract_z
Si Si1 0.000000 0.250000 0.133513
Si Si2 0.803628 0.958908 0.612058
Si Si3 0.414925 0.461167 0.073309
Si Si4 0.808867 0.553691 0.095321
Si Si5 0.170514 0.545780 0.757425
Si Si6 0.576622 0.964430 0.424740
Si Si7 0.555680 0.455096 0.779284
O O1 0.044722 0.408515 0.123849
O O2 0.812097 0.750000 0.619259
O O3 0.854930 0.027206 0.575287
O O4 0.805672 0.028183 0.688554
O O5 0.747764 0.981426 0.580031
O O6 0.417057 0.250000 0.082490
O O7 0.440748 0.539631 0.139586
O O8 0.436665 0.500000 0.000000
O O9 0.809462 0.750000 0.066716
O O10 0.813684 0.553911 0.175990
O O11 0.863498 0.472402 0.075092
O O12 0.186858 0.750000 0.767254
O O13 0.108633 0.540025 0.746243
O O14 0.573835 0.750000 0.410404
O O15 0.556994 0.000000 0.500000
O O16 0.500000 0.537836 0.760569
O O17 0.556314 0.250000 0.757817
#
# Coordination Sequence:
#
# PCOD9539152 Si02
#       7
#     4  16  16  16  16  16  16
#     4  12  24  44  74  86 118 170 192 252 310 352
#     4   9  20  37  59  84 117 158 195 241 294 354
#     4  10  21  37  58  87 117 154 201 242 291 354
#     4  11  24  39  58  91 124 151 196 249 292 351
#     4  10  21  38  61  86 116 157 201 239 293 361
#     4  11  25  42  65  96 121 155 208 248 300 370
#     4  10  21  38  59  83 117 155 194 246 300 347
#
# _framework density 25.721219000000001
#
# number of rings (size 3 to 8) (size 9 to 14) (size 15 to 20)
#    0.000    1.760    0.800    3.840    2.240    8.000 
#    1.440    3.200    0.000    0.000    0.000    0.000 
#    0.000    0.000    0.000    0.000    0.000    0.000 
#
# Total GULP energy -279228.509363 kJ/mol
# GULP energy per Si atom -5584.570187 kJ/mol
# Density = 2.566268 g / cm^3
# Si number density = 25.721219 Si / 1000 Ang^3
#
#
#
# Elastic Constant Matrix: (Units=GPa)
#
#
# Indices 1 2 3 4 5 6 
#
# 1 183.8207 6.8402 20.4331 0.0000 0.0000 0.0000
# 2 6.8402 115.5387 -15.7824 0.0000 0.0000 0.0000
# 3 20.4331 -15.7824 108.1416 0.0000 0.0000 0.0000
# 4 0.0000 0.0000 0.0000 -8.4189 0.0000 0.0000
# 5 0.0000 0.0000 0.0000 0.0000 -35.3620 0.0000
# 6 0.0000 0.0000 0.0000 0.0000 0.0000 28.6060
#
#
#
# Elastic Compliance Matrix: (Units=1/GPa)
#
#
# Indices 1 2 3 4 5 6 
#
# 1 0.005583 -0.000484 -0.001126 0.000000 0.000000 0.000000
# 2 -0.000484 0.008873 0.001386 0.000000 0.000000 0.000000
# 3 -0.001126 0.001386 0.009662 0.000000 0.000000 0.000000
# 4 0.000000 0.000000 0.000000 -0.118781 0.000000 0.000000
# 5 0.000000 0.000000 0.000000 0.000000 -0.028279 0.000000
# 6 0.000000 0.000000 0.000000 0.000000 0.000000 0.034958
#
#
# Mechanical properties :
#
#
# Convention : Reuss Voigt Hill
#
# Bulk Modulus (GPa) = 42.24456 47.83141 45.03799
# Shear Modulus (GPa) = -62.77789 23.36570 -19.70609
#
# Velocity S-wave (km/s) = -4.94571 3.01727 -2.77093
# Velocity P-wave (km/s) = 4.01917 5.54753 2.70382
#
# Compressibility (1/GPa) = 0.02367168
#
# Stress axis : x y z
#
# Youngs Moduli (GPa) = 179.10796 112.69929 103.49650
#
# Poissons Ratio (x) = 0.05458 0.11650
# Poissons Ratio (y) = 0.08674 -0.14350
# Poissons Ratio (z) = 0.20161 -0.15625
#
# Static dielectric constant tensor:
#      x y z
#    x 2.041020 0.000000 0.000000 
#    y 0.000000 1.949260 0.000000 
#    z 0.000000 0.000000 2.053610 
# 
# From -- ./inp_files/55243.got.cif
#   From: 2010.05.17/outbox.cif.g08.bks.cpg/sg74_28_cif.got.tgz:55243.got - 2010.06.03 17:57:02.
