data_PCOD9539261
_publ_section_title
;
Structure prediction by ZEFSAII (Michael W. Deem and Ramdas Pophale) SiO2 
 PCOD9539261
Probable space group: I M M A
;
_chemical_formula_sum "Si O2"
_cell_formula_units_Z 96
_cell_length_a 16.470226
_cell_length_b 21.774408
_cell_length_c 15.661379
_cell_angle_alpha 90.000000
_cell_angle_beta 90.000000
_cell_angle_gamma 90.000000
_cell_volume 5616.631279
_symmetry_space_group_name_H-M "I M M A"
_symmetry_group_IT_number 74
_symmetry_cell_setting 'orthorhombic'
loop_
_space_group_symop_operation_xyz
x,y,z
-x,1/2-y,z
x,-y,-z
-x,1/2+y,-z
-x,-y,-z
x,1/2+y,-z
-x,y,z
x,1/2-y,z
1/2+x,1/2+y,1/2+z
1/2-x,-y,1/2+z
1/2+x,1/2-y,1/2-z
1/2-x,y,1/2-z
1/2-x,1/2-y,1/2-z
1/2+x,y,1/2-z
1/2-x,1/2+y,1/2+z
1/2+x,-y,1/2+z
loop_
_atom_site_type_symbol
_atom_site_label
_atom_site_fract_x
_atom_site_fract_y
_atom_site_fract_z
Si Si1 0.823573 0.322899 0.644385
Si Si2 0.596806 0.409276 0.978404
Si Si3 0.331809 0.477398 0.130580
Si Si4 0.000000 0.440581 0.062174
Si Si5 0.500000 0.180973 0.551493
Si Si6 0.140598 0.134111 0.830859
Si Si7 0.643605 0.489478 0.329931
O O1 0.815894 0.250000 0.648517
O O2 0.874170 0.346284 0.563887
O O3 0.864767 0.346618 0.731814
O O4 0.733452 0.352078 0.642873
O O5 0.500000 0.414475 0.982645
O O6 0.631971 0.461745 0.914523
O O7 0.635581 0.423106 0.070564
O O8 0.357875 0.475078 0.229101
O O9 0.234251 0.480364 0.133604
O O10 0.920393 0.448887 0.119706
O O11 0.000000 0.500000 0.000000
O O12 0.000000 0.375768 0.014124
O O13 0.500000 0.250000 0.515281
O O14 0.421551 0.171407 0.611462
O O15 0.123534 0.061743 0.839734
#
# Coordination Sequence:
#
# PCOD9539261 Si02
#       7
#    16  16  16   8   8  16  16
#     4  11  22  37  57  83 119 163 195 233 285 355
#     4  11  23  34  57  82 114 152 195 240 281 345
#     4  10  21  38  58  83 116 153 188 233 305 343
#     4  12  26  36  62  92 121 150 200 248 293 345
#     4  12  26  40  58  87 122 162 197 237 289 358
#     4  11  20  39  57  85 122 155 192 231 296 355
#     4  11  21  38  62  87 121 152 186 249 295 347
#
# _framework density 17.092096000000002
#
# number of rings (size 3 to 8) (size 9 to 14) (size 15 to 20)
#    0.000    1.000    5.000    4.000    8.167    0.333 
#    0.000    0.000    0.000    1.000    0.000    2.333 
#    0.000    0.000    0.000    0.000    0.000    0.000 
#
# Total GULP energy -268180.210031 kJ/mol
# GULP energy per Si atom -5587.087709 kJ/mol
# Density = 1.705319 g / cm^3
# Si number density = 17.092096 Si / 1000 Ang^3
#
#
#
# Elastic Constant Matrix: (Units=GPa)
#
#
# Indices 1 2 3 4 5 6 
#
# 1 73.6771 30.5813 55.4479 0.0000 0.0000 0.0000
# 2 30.5813 99.0629 42.0517 0.0000 0.0000 0.0000
# 3 55.4479 42.0517 77.7824 0.0000 0.0000 0.0000
# 4 0.0000 0.0000 0.0000 19.1854 0.0000 0.0000
# 5 0.0000 0.0000 0.0000 0.0000 26.4001 0.0000
# 6 0.0000 0.0000 0.0000 0.0000 0.0000 7.2697
#
#
#
# Elastic Compliance Matrix: (Units=1/GPa)
#
#
# Indices 1 2 3 4 5 6 
#
# 1 0.029286 -0.000232 -0.020752 0.000000 0.000000 0.000000
# 2 -0.000232 0.013103 -0.006919 0.000000 0.000000 0.000000
# 3 -0.020752 -0.006919 0.031390 0.000000 0.000000 0.000000
# 4 0.000000 0.000000 0.000000 0.052123 0.000000 0.000000
# 5 0.000000 0.000000 0.000000 0.000000 0.037879 0.000000
# 6 0.000000 0.000000 0.000000 0.000000 0.000000 0.137558
#
#
# Mechanical properties :
#
#
# Convention : Reuss Voigt Hill
#
# Bulk Modulus (GPa) = 55.63330 56.29825 55.96578
# Shear Modulus (GPa) = 13.76901 18.73381 16.25141
#
# Velocity S-wave (km/s) = 2.84135 3.31426 3.08687
# Velocity P-wave (km/s) = 6.58666 6.90329 6.74684
#
# Compressibility (1/GPa) = 0.01797485
#
# Stress axis : x y z
#
# Youngs Moduli (GPa) = 34.14580 76.31769 31.85749
#
# Poissons Ratio (x) = 0.01770 0.66109
# Poissons Ratio (y) = 0.00792 0.22041
# Poissons Ratio (z) = 0.70858 0.52802
#
# Static dielectric constant tensor:
#      x y z
#    x 1.579330 0.000000 0.000000 
#    y 0.000000 1.578770 0.000000 
#    z 0.000000 0.000000 1.573830 
# 
# From -- ./inp_files/32451.got.cif
#   From: 2010.05.17/outbox.cif.g08.bks.cpg/sg74_17_cif.got.tgz:32451.got - 2010.06.03 17:57:02.
