data_PCOD9539641
_publ_section_title
;
Structure prediction by ZEFSAII (Michael W. Deem and Ramdas Pophale) SiO2 
 PCOD9539641
Probable space group: I M M A
;
_chemical_formula_sum "Si O2"
_cell_formula_units_Z 88
_cell_length_a 8.160779
_cell_length_b 18.211873
_cell_length_c 30.277605
_cell_angle_alpha 90.000000
_cell_angle_beta 90.000000
_cell_angle_gamma 90.000000
_cell_volume 4499.950629
_symmetry_space_group_name_H-M "I M M A"
_symmetry_group_IT_number 74
_symmetry_cell_setting 'orthorhombic'
loop_
_space_group_symop_operation_xyz
x,y,z
-x,1/2-y,z
x,-y,-z
-x,1/2+y,-z
-x,-y,-z
x,1/2+y,-z
-x,y,z
x,1/2-y,z
1/2+x,1/2+y,1/2+z
1/2-x,-y,1/2+z
1/2+x,1/2-y,1/2-z
1/2-x,y,1/2-z
1/2-x,1/2-y,1/2-z
1/2+x,y,1/2-z
1/2-x,1/2+y,1/2+z
1/2+x,-y,1/2+z
loop_
_atom_site_type_symbol
_atom_site_label
_atom_site_fract_x
_atom_site_fract_y
_atom_site_fract_z
Si Si1 0.304932 0.037092 0.699589
Si Si2 0.695743 0.106079 0.146873
Si Si3 0.798740 0.165521 0.862911
Si Si4 0.802013 0.750000 0.699268
Si Si5 0.810857 0.160584 0.959543
Si Si6 0.198136 0.334832 0.055543
O O1 0.500000 0.040800 0.699622
O O2 0.250000 0.030921 0.750000
O O3 0.242816 0.110242 0.674875
O O4 0.254019 0.966903 0.671000
O O5 0.500000 0.107403 0.147845
O O6 0.757412 0.177291 0.174014
O O7 0.751346 0.115658 0.096479
O O8 0.749739 0.250000 0.855554
O O9 0.740072 0.140437 0.911787
O O10 0.000000 0.165171 0.864378
O O11 0.750000 0.750000 0.750000
O O12 0.000000 0.750000 0.697720
O O13 0.814022 0.250000 0.959746
O O14 0.000000 0.135005 0.959415
O O15 0.738978 0.140078 0.007213
O O16 0.252651 0.250000 0.063345
O O17 0.000000 0.333239 0.053081
#
# Coordination Sequence:
#
# PCOD9539641 Si02
#       6
#    16  16  16   8  16  16
#     4  11  23  38  56  79 106 139 177 220 274 322
#     4  11  22  37  53  74 106 144 183 220 264 315
#     4   8  15  31  56  83 109 137 173 218 264 316
#     4  10  22  36  52  72  94 130 178 222 261 306
#     4   7  11  23  47  79 109 135 169 214 260 305
#     4   9  16  28  51  82 110 138 175 219 263 307
#
# _framework density 19.555769999999999
#
# number of rings (size 3 to 8) (size 9 to 14) (size 15 to 20)
#    0.000    2.727    0.909    3.818    0.000    3.273 
#    0.000    0.909    0.000    9.273    0.000    5.091 
#    0.000    0.000    0.000    0.000    0.000    0.000 
#
# Total GULP energy -245311.757626 kJ/mol
# GULP energy per Si atom -5575.267219 kJ/mol
# Density = 1.951126 g / cm^3
# Si number density = 19.555770 Si / 1000 Ang^3
#
#
#
# Elastic Constant Matrix: (Units=GPa)
#
#
# Indices 1 2 3 4 5 6 
#
# 1 17.7965 13.0385 17.8840 0.0000 0.0000 0.0000
# 2 13.0385 99.8883 71.1409 0.0000 0.0000 0.0000
# 3 17.8840 71.1409 127.5724 0.0000 0.0000 0.0000
# 4 0.0000 0.0000 0.0000 30.1812 0.0000 0.0000
# 5 0.0000 0.0000 0.0000 0.0000 18.3190 0.0000
# 6 0.0000 0.0000 0.0000 0.0000 0.0000 10.1734
#
#
#
# Elastic Compliance Matrix: (Units=1/GPa)
#
#
# Indices 1 2 3 4 5 6 
#
# 1 0.066079 -0.003364 -0.007388 0.000000 0.000000 0.000000
# 2 -0.003364 0.016778 -0.008885 0.000000 0.000000 0.000000
# 3 -0.007388 -0.008885 0.013829 0.000000 0.000000 0.000000
# 4 0.000000 0.000000 0.000000 0.033133 0.000000 0.000000
# 5 0.000000 0.000000 0.000000 0.000000 0.054588 0.000000
# 6 0.000000 0.000000 0.000000 0.000000 0.000000 0.098295
#
#
# Mechanical properties :
#
#
# Convention : Reuss Voigt Hill
#
# Bulk Modulus (GPa) = 17.41738 49.93154 33.67446
# Shear Modulus (GPa) = 14.65788 21.28097 17.96943
#
# Velocity S-wave (km/s) = 2.74075 3.30240 3.03459
# Velocity P-wave (km/s) = 4.35218 6.33478 5.43465
#
# Compressibility (1/GPa) = 0.05741393
#
# Stress axis : x y z
#
# Youngs Moduli (GPa) = 15.13330 59.60187 72.31236
#
# Poissons Ratio (x) = 0.20050 0.53422
# Poissons Ratio (y) = 0.05091 0.64247
# Poissons Ratio (z) = 0.11180 0.52954
#
# Static dielectric constant tensor:
#      x y z
#    x 1.708030 0.000000 0.000000 
#    y 0.000000 1.683120 0.000000 
#    z 0.000000 0.000000 1.675300 
# 
# From -- ./inp_files/70232.got.cif
#   From: 2010.05.17/outbox.cif.g08.bks.cpg/sg74_36_cif.got.tgz:70232.got - 2010.06.03 17:57:02.
