data_PCOD9539792
_publ_section_title
;
Structure prediction by ZEFSAII (Michael W. Deem and Ramdas Pophale) SiO2 
 PCOD9539792
Probable space group: I M M A
;
_chemical_formula_sum "Si O2"
_cell_formula_units_Z 52
_cell_length_a 7.358067
_cell_length_b 10.776117
_cell_length_c 29.945980
_cell_angle_alpha 90.000000
_cell_angle_beta 90.000000
_cell_angle_gamma 90.000000
_cell_volume 2374.458406
_symmetry_space_group_name_H-M "I M M A"
_symmetry_group_IT_number 74
_symmetry_cell_setting 'orthorhombic'
loop_
_space_group_symop_operation_xyz
x,y,z
-x,1/2-y,z
x,-y,-z
-x,1/2+y,-z
-x,-y,-z
x,1/2+y,-z
-x,y,z
x,1/2-y,z
1/2+x,1/2+y,1/2+z
1/2-x,-y,1/2+z
1/2+x,1/2-y,1/2-z
1/2-x,y,1/2-z
1/2-x,1/2-y,1/2-z
1/2+x,y,1/2-z
1/2-x,1/2+y,1/2+z
1/2+x,-y,1/2+z
loop_
_atom_site_type_symbol
_atom_site_label
_atom_site_fract_x
_atom_site_fract_y
_atom_site_fract_z
Si Si1 0.210726 0.036645 0.886065
Si Si2 0.780092 0.113065 0.469453
Si Si3 0.283542 0.609417 0.698729
Si Si4 0.500000 0.250000 0.907248
O O1 0.341543 0.141518 0.905273
O O2 0.000000 0.076594 0.883068
O O3 0.222658 0.919650 0.919428
O O4 0.279239 0.989041 0.837841
O O5 0.719363 0.250000 0.483438
O O6 0.000000 0.113800 0.471839
O O7 0.714714 0.000000 0.500000
O O8 0.500000 0.615974 0.692433
O O9 0.211445 0.750000 0.692555
O O10 0.250000 0.573251 0.750000
#
# Coordination Sequence:
#
# PCOD9539792 Si02
#       4
#    16  16  16   4
#     4  11  24  43  67  93 131 170 222 272 331 387
#     4  10  22  39  66 101 137 177 219 269 326 390
#     4   9  19  36  63  96 126 160 209 268 328 392
#     4  12  26  44  66  94 124 188 212 278 318 414
#
# _framework density 21.899729000000001
#
# number of rings (size 3 to 8) (size 9 to 14) (size 15 to 20)
#    0.000    1.846    1.538    1.385    4.308    2.462 
#    0.000    0.769    0.000    0.000    0.000    0.000 
#    0.000    0.000    0.000    0.000    0.000    0.000 
#
# Total GULP energy -144810.933910 kJ/mol
# GULP energy per Si atom -5569.651304 kJ/mol
# Density = 2.184988 g / cm^3
# Si number density = 21.899729 Si / 1000 Ang^3
#
#
#
# Elastic Constant Matrix: (Units=GPa)
#
#
# Indices 1 2 3 4 5 6 
#
# 1 123.8768 30.8998 -3.7701 0.0000 0.0000 0.0000
# 2 30.8998 132.8297 36.9962 0.0000 0.0000 0.0000
# 3 -3.7701 36.9962 71.7732 0.0000 0.0000 0.0000
# 4 0.0000 0.0000 0.0000 0.0036 0.0000 0.0000
# 5 0.0000 0.0000 0.0000 0.0000 3.4735 0.0000
# 6 0.0000 0.0000 0.0000 0.0000 0.0000 47.9407
#
#
#
# Elastic Compliance Matrix: (Units=1/GPa)
#
#
# Indices 1 2 3 4 5 6 
#
# 1 0.008757 -0.002528 0.001763 -0.000003 0.000000 0.000000
# 2 -0.002528 0.009520 -0.005040 0.000012 0.000000 0.000000
# 3 0.001763 -0.005040 0.016623 0.000005 0.000000 0.000000
# 4 -0.000003 0.000012 0.000005279.164058 0.000093 -0.000003
# 5 0.000000 0.000000 0.000000 0.000093 0.287890 0.000000
# 6 0.000000 0.000000 0.000000 -0.000003 0.000000 0.020859
#
#
# Mechanical properties :
#
#
# Convention : Reuss Voigt Hill
#
# Bulk Modulus (GPa) = 42.93647 50.74794 46.84221
# Shear Modulus (GPa) = 0.01789 27.90717 13.96253
#
# Velocity S-wave (km/s) = 0.09047 3.57363 2.52775
# Velocity P-wave (km/s) = 4.43389 6.34436 5.47313
#
# Compressibility (1/GPa) = 0.02329022
#
# Stress axis : x y z
#
# Youngs Moduli (GPa) = 114.19680 105.03811 60.15621
#
# Poissons Ratio (x) = 0.26555 -0.10606
# Poissons Ratio (y) = 0.28871 0.30320
# Poissons Ratio (z) = -0.20134 0.52941
#
# Static dielectric constant tensor:
#      x y z
#    x 1.845070 0.000000 0.000000 
#    y 0.000000 1.781620 0.000000 
#    z 0.000000 0.000000 1.829680 
# 
# From -- ./inp_files/63135.got.cif
#   From: 2010.05.17/outbox.cif.g08.bks.cpg/sg74_32_cif.got.tgz:63135.got - 2010.06.03 17:57:02.
