data_PCOD9539513
_publ_section_title
;
Structure prediction by ZEFSAII (Michael W. Deem and Ramdas Pophale) SiO2 
 PCOD9539513
Probable space group: I M M A
;
_chemical_formula_sum "Si O2"
_cell_formula_units_Z 56
_cell_length_a 14.773845
_cell_length_b 14.550111
_cell_length_c 11.803994
_cell_angle_alpha 90.000000
_cell_angle_beta 90.000000
_cell_angle_gamma 90.000000
_cell_volume 2537.399353
_symmetry_space_group_name_H-M "I M M A"
_symmetry_group_IT_number 74
_symmetry_cell_setting 'orthorhombic'
loop_
_space_group_symop_operation_xyz
x,y,z
-x,1/2-y,z
x,-y,-z
-x,1/2+y,-z
-x,-y,-z
x,1/2+y,-z
-x,y,z
x,1/2-y,z
1/2+x,1/2+y,1/2+z
1/2-x,-y,1/2+z
1/2+x,1/2-y,1/2-z
1/2-x,y,1/2-z
1/2-x,1/2-y,1/2-z
1/2+x,y,1/2-z
1/2-x,1/2+y,1/2+z
1/2+x,-y,1/2+z
loop_
_atom_site_type_symbol
_atom_site_label
_atom_site_fract_x
_atom_site_fract_y
_atom_site_fract_z
Si Si1 0.649277 0.750000 0.297180
Si Si2 0.500000 0.588682 0.925670
Si Si3 0.000000 0.250000 0.606551
Si Si4 0.308770 0.640033 0.855752
Si Si5 0.642081 0.607916 0.497255
Si Si6 0.000000 0.750000 0.909234
O O1 0.750000 0.750000 0.250000
O O2 0.584646 0.750000 0.189831
O O3 0.630942 0.661101 0.377364
O O4 0.407770 0.597434 0.856616
O O5 0.500000 0.500000 0.000000
O O6 0.500000 0.666950 0.020175
O O7 0.319956 0.750000 0.849075
O O8 0.250000 0.606966 0.750000
O O9 0.246849 0.618162 0.964575
O O10 0.618836 0.500000 0.500000
O O11 0.579474 0.669339 0.580050
#
# Coordination Sequence:
#
# PCOD9539513 Si02
#       6
#     8   8   4  16  16   4
#     4  11  23  42  68  97 139 187 233 303 374 438
#     4  12  26  48  74 106 146 192 243 302 374 454
#     4  12  25  44  69  96 142 184 239 298 365 450
#     4  11  23  44  71 101 139 187 240 302 374 435
#     4  11  23  42  67 100 140 187 246 306 370 447
#     4  10  21  40  59  88 132 176 221 292 363 412
#
# _framework density 22.069839999999999
#
# number of rings (size 3 to 8) (size 9 to 14) (size 15 to 20)
#    0.000    0.857    4.286    4.714    0.000    4.571 
#    0.000    0.000    0.000    0.000    0.000    0.000 
#    0.000    0.000    0.000    0.000    0.000    0.000 
#
# Total GULP energy -156133.391040 kJ/mol
# GULP energy per Si atom -5576.192537 kJ/mol
# Density = 2.201961 g / cm^3
# Si number density = 22.069840 Si / 1000 Ang^3
#
#
#
# Elastic Constant Matrix: (Units=GPa)
#
#
# Indices 1 2 3 4 5 6 
#
# 1 194.4401 39.8143 31.9803 0.0000 0.0000 0.0000
# 2 39.8143 190.1048 28.5486 0.0000 0.0000 0.0000
# 3 31.9803 28.5486 78.8877 0.0000 0.0000 0.0000
# 4 0.0000 0.0000 0.0000 7.1621 0.0000 0.0000
# 5 0.0000 0.0000 0.0000 0.0000 43.7412 0.0000
# 6 0.0000 0.0000 0.0000 0.0000 0.0000 32.7993
#
#
#
# Elastic Compliance Matrix: (Units=1/GPa)
#
#
# Indices 1 2 3 4 5 6 
#
# 1 0.005648 -0.000887 -0.001969 0.000000 0.000000 0.000000
# 2 -0.000887 0.005702 -0.001704 0.000000 0.000000 0.000000
# 3 -0.001969 -0.001704 0.014091 0.000000 0.000000 0.000000
# 4 0.000000 0.000000 0.000000 0.139623 0.000000 0.000000
# 5 0.000000 0.000000 0.000000 0.000000 0.022862 0.000000
# 6 0.000000 0.000000 0.000000 0.000000 0.000000 0.030488
#
#
# Mechanical properties :
#
#
# Convention : Reuss Voigt Hill
#
# Bulk Modulus (GPa) = 61.26805 73.79100 67.52953
# Shear Modulus (GPa) = 21.46153 40.94648 31.20400
#
# Velocity S-wave (km/s) = 3.12178 4.31201 3.76423
# Velocity P-wave (km/s) = 6.38868 7.63538 7.03968
#
# Compressibility (1/GPa) = 0.01632172
#
# Stress axis : x y z
#
# Youngs Moduli (GPa) = 177.03914 175.37850 70.96768
#
# Poissons Ratio (x) = 0.15562 0.13972
# Poissons Ratio (y) = 0.15709 0.12091
# Poissons Ratio (z) = 0.34854 0.29880
#
# Static dielectric constant tensor:
#      x y z
#    x 1.797990 0.000000 0.000000 
#    y 0.000000 1.763400 0.000000 
#    z 0.000000 0.000000 1.848220 
# 
# From -- ./inp_files/19655.got.cif
#   From: 2010.05.17/outbox.cif.g08.bks.cpg/sg74_10_cif.got.tgz:19655.got - 2010.06.03 17:57:02.
