data_PCOD9539207
_publ_section_title
;
Structure prediction by ZEFSAII (Michael W. Deem and Ramdas Pophale) SiO2 
 PCOD9539207
Probable space group: I M M A
;
_chemical_formula_sum "Si O2"
_cell_formula_units_Z 96
_cell_length_a 21.586542
_cell_length_b 14.954124
_cell_length_c 14.198469
_cell_angle_alpha 90.000000
_cell_angle_beta 90.000000
_cell_angle_gamma 90.000000
_cell_volume 4583.376908
_symmetry_space_group_name_H-M "I M M A"
_symmetry_group_IT_number 74
_symmetry_cell_setting 'orthorhombic'
loop_
_space_group_symop_operation_xyz
x,y,z
-x,1/2-y,z
x,-y,-z
-x,1/2+y,-z
-x,-y,-z
x,1/2+y,-z
-x,y,z
x,1/2-y,z
1/2+x,1/2+y,1/2+z
1/2-x,-y,1/2+z
1/2+x,1/2-y,1/2-z
1/2-x,y,1/2-z
1/2-x,1/2-y,1/2-z
1/2+x,y,1/2-z
1/2-x,1/2+y,1/2+z
1/2+x,-y,1/2+z
loop_
_atom_site_type_symbol
_atom_site_label
_atom_site_fract_x
_atom_site_fract_y
_atom_site_fract_z
Si Si1 0.396163 0.989257 0.231738
Si Si2 0.203057 0.143884 0.041662
Si Si3 0.195110 0.351160 0.824940
Si Si4 0.567767 0.400830 0.956678
Si Si5 0.065931 0.073908 0.082102
Si Si6 0.835193 0.354009 0.390713
O O1 0.436472 0.029112 0.315477
O O2 0.367992 0.075193 0.177725
O O3 0.347803 0.928124 0.286274
O O4 0.423786 0.922118 0.153357
O O5 0.206940 0.250000 0.050163
O O6 0.134057 0.117895 0.073841
O O7 0.264637 0.111882 0.095433
O O8 0.212586 0.122695 0.931318
O O9 0.167501 0.250000 0.830287
O O10 0.250000 0.345951 0.750000
O O11 0.500000 0.358643 0.974508
O O12 0.565714 0.500000 0.000000
O O13 0.625480 0.356143 0.010854
O O14 0.000000 0.125436 0.069643
O O15 0.066584 0.000000 0.000000
O O16 0.835565 0.250000 0.357901
#
# Coordination Sequence:
#
# PCOD9539207 Si02
#       6
#    16  16  16  16  16  16
#     4  11  22  38  66  94 129 170 213 264 323 379
#     4  10  22  42  63  87 127 169 214 269 320 383
#     4  10  21  37  60  92 126 164 215 269 321 380
#     4   9  19  37  60  89 126 166 210 258 315 380
#     4  11  24  41  62  90 126 168 217 268 321 381
#     4  10  23  41  64  99 136 171 211 259 322 395
#
# _framework density 20.945256000000001
#
# number of rings (size 3 to 8) (size 9 to 14) (size 15 to 20)
#    0.000    1.833    1.667    1.500    2.333    6.000 
#    0.000    1.667    0.000    1.500    0.000    0.000 
#    0.000    0.000    0.000    0.000    0.000    0.000 
#
# Total GULP energy -267466.430665 kJ/mol
# GULP energy per Si atom -5572.217306 kJ/mol
# Density = 2.089758 g / cm^3
# Si number density = 20.945256 Si / 1000 Ang^3
#
#
#
# Elastic Constant Matrix: (Units=GPa)
#
#
# Indices 1 2 3 4 5 6 
#
# 1 141.3258 20.0026 33.2903 0.0000 0.0000 0.0000
# 2 20.0026 54.7460 13.9167 0.0000 0.0000 0.0000
# 3 33.2903 13.9167 97.1417 0.0000 0.0000 0.0000
# 4 0.0000 0.0000 0.0000 28.3812 0.0000 0.0000
# 5 0.0000 0.0000 0.0000 0.0000 69.9985 0.0000
# 6 0.0000 0.0000 0.0000 0.0000 0.0000 5.6700
#
#
#
# Elastic Compliance Matrix: (Units=1/GPa)
#
#
# Indices 1 2 3 4 5 6 
#
# 1 0.007967 -0.002301 -0.002401 0.000000 0.000000 0.000000
# 2 -0.002301 0.019621 -0.002023 0.000000 0.000000 0.000000
# 3 -0.002401 -0.002023 0.011407 0.000000 0.000000 0.000000
# 4 0.000000 0.000000 0.000000 0.035235 0.000000 0.000000
# 5 0.000000 0.000000 0.000000 0.000000 0.014286 0.000000
# 6 0.000000 0.000000 0.000000 0.000000 0.000000 0.176366
#
#
# Mechanical properties :
#
#
# Convention : Reuss Voigt Hill
#
# Bulk Modulus (GPa) = 39.14366 47.51476 43.32921
# Shear Modulus (GPa) = 17.43102 35.87686 26.65394
#
# Velocity S-wave (km/s) = 2.88795 4.14319 3.57116
# Velocity P-wave (km/s) = 5.46347 6.75445 6.14296
#
# Compressibility (1/GPa) = 0.02554692
#
# Stress axis : x y z
#
# Youngs Moduli (GPa) = 125.51831 50.96607 87.66782
#
# Poissons Ratio (x) = 0.11725 0.21046
# Poissons Ratio (y) = 0.28877 0.17731
# Poissons Ratio (z) = 0.30133 0.10308
#
# Static dielectric constant tensor:
#      x y z
#    x 1.680840 0.000000 0.000000 
#    y 0.000000 1.764770 0.000000 
#    z 0.000000 0.000000 1.719500 
# 
# From -- ./inp_files/32308.got.cif
#   From: 2010.05.17/outbox.cif.g08.bks.cpg/sg74_17_cif.got.tgz:32308.got - 2010.06.03 17:57:02.
