data_PCOD9539146
_publ_section_title
;
Structure prediction by ZEFSAII (Michael W. Deem and Ramdas Pophale) SiO2 
 PCOD9539146
Probable space group: I M M A
;
_chemical_formula_sum "Si O2"
_cell_formula_units_Z 96
_cell_length_a 15.427354
_cell_length_b 14.865174
_cell_length_c 21.440988
_cell_angle_alpha 90.000000
_cell_angle_beta 90.000000
_cell_angle_gamma 90.000000
_cell_volume 4917.068244
_symmetry_space_group_name_H-M "I M M A"
_symmetry_group_IT_number 74
_symmetry_cell_setting 'orthorhombic'
loop_
_space_group_symop_operation_xyz
x,y,z
-x,1/2-y,z
x,-y,-z
-x,1/2+y,-z
-x,-y,-z
x,1/2+y,-z
-x,y,z
x,1/2-y,z
1/2+x,1/2+y,1/2+z
1/2-x,-y,1/2+z
1/2+x,1/2-y,1/2-z
1/2-x,y,1/2-z
1/2-x,1/2-y,1/2-z
1/2+x,y,1/2-z
1/2-x,1/2+y,1/2+z
1/2+x,-y,1/2+z
loop_
_atom_site_type_symbol
_atom_site_label
_atom_site_fract_x
_atom_site_fract_y
_atom_site_fract_z
Si Si1 0.400910 0.850941 0.936173
Si Si2 0.735571 0.146698 0.639166
Si Si3 0.399720 0.852505 0.613396
Si Si4 0.404417 0.025458 0.851189
Si Si5 0.659296 0.009406 0.280931
Si Si6 0.727207 0.392414 0.500802
O O1 0.500000 0.860701 0.960024
O O2 0.394764 0.750000 0.908372
O O3 0.386043 0.932455 0.887997
O O4 0.324690 0.859293 0.986328
O O5 0.742065 0.250000 0.658670
O O6 0.828905 0.097038 0.636849
O O7 0.699546 0.140512 0.568850
O O8 0.679385 0.085598 0.685658
O O9 0.500000 0.868865 0.595532
O O10 0.392860 0.750000 0.636594
O O11 0.372528 0.921732 0.667057
O O12 0.336491 0.862350 0.554294
O O13 0.500000 0.056958 0.870131
O O14 0.402443 0.003754 0.777806
O O15 0.750000 0.040680 0.250000
O O16 0.728745 0.500000 0.500000
#
# Coordination Sequence:
#
# PCOD9539146 Si02
#       6
#    16  16  16  16  16  16
#     4  10  21  37  61  94 127 157 192 239 300 369
#     4  11  23  39  59  83 114 155 203 249 295 348
#     4  11  24  41  63  93 124 155 197 247 302 365
#     4  10  21  37  58  86 120 154 194 242 294 355
#     4  10  21  39  61  87 117 155 199 246 298 352
#     4  12  21  40  64  87 118 161 200 245 303 358
#
# _framework density 19.52383
#
# number of rings (size 3 to 8) (size 9 to 14) (size 15 to 20)
#    0.000    1.333    3.333    3.000    0.000    5.667 
#    0.000    1.667    0.000    2.500    0.000    0.000 
#    0.000    0.000    0.000    0.000    0.000    0.000 
#
# Total GULP energy -268089.753288 kJ/mol
# GULP energy per Si atom -5585.203193 kJ/mol
# Density = 1.947939 g / cm^3
# Si number density = 19.523830 Si / 1000 Ang^3
#
#
#
# Elastic Constant Matrix: (Units=GPa)
#
#
# Indices 1 2 3 4 5 6 
#
# 1 70.1468 27.0906 15.9750 0.0000 0.0000 0.0000
# 2 27.0906 115.5006 2.3662 0.0000 0.0000 0.0000
# 3 15.9750 2.3662 77.1923 0.0000 0.0000 0.0000
# 4 0.0000 0.0000 0.0000 -1.4180 0.0000 0.0000
# 5 0.0000 0.0000 0.0000 0.0000 10.3192 0.0000
# 6 0.0000 0.0000 0.0000 0.0000 0.0000 43.7629
#
#
#
# Elastic Compliance Matrix: (Units=1/GPa)
#
#
# Indices 1 2 3 4 5 6 
#
# 1 0.016472 -0.003796 -0.003292 0.000000 0.000000 0.000000
# 2 -0.003796 0.009538 0.000493 0.000000 0.000000 0.000000
# 3 -0.003292 0.000493 0.013621 0.000000 0.000000 0.000000
# 4 0.000000 0.000000 0.000000 -0.705207 0.000000 0.000000
# 5 0.000000 0.000000 0.000000 0.000000 0.096907 0.000000
# 6 0.000000 0.000000 0.000000 0.000000 0.000000 0.022850
#
#
# Mechanical properties :
#
#
# Convention : Reuss Voigt Hill
#
# Bulk Modulus (GPa) = 37.82102 39.30035 38.56068
# Shear Modulus (GPa) = -9.54534 25.02667 7.74066
#
# Velocity S-wave (km/s) = -2.21352 3.58418 1.99332
# Velocity P-wave (km/s) = 3.58899 6.10750 5.00911
#
# Compressibility (1/GPa) = 0.02644032
#
# Stress axis : x y z
#
# Youngs Moduli (GPa) = 60.71045 104.84158 73.41645
#
# Poissons Ratio (x) = 0.39797 0.24172
# Poissons Ratio (y) = 0.23045 -0.03621
# Poissons Ratio (z) = 0.19989 -0.05171
#
# Static dielectric constant tensor:
#      x y z
#    x 1.712320 0.000000 0.000000 
#    y 0.000000 1.677300 0.000000 
#    z 0.000000 0.000000 1.671860 
# 
# From -- ./inp_files/51839.got.cif
#   From: 2010.05.17/outbox.cif.g08.bks.cpg/sg74_26_cif.got.tgz:51839.got - 2010.06.03 17:57:02.
