data_PCOD9539048
_publ_section_title
;
Structure prediction by ZEFSAII (Michael W. Deem and Ramdas Pophale) SiO2 
 PCOD9539048
Probable space group: I M M A
;
_chemical_formula_sum "Si O2"
_cell_formula_units_Z 64
_cell_length_a 15.817663
_cell_length_b 9.532759
_cell_length_c 23.963472
_cell_angle_alpha 90.000000
_cell_angle_beta 90.000000
_cell_angle_gamma 90.000000
_cell_volume 3613.355354
_symmetry_space_group_name_H-M "I M M A"
_symmetry_group_IT_number 74
_symmetry_cell_setting 'orthorhombic'
loop_
_space_group_symop_operation_xyz
x,y,z
-x,1/2-y,z
x,-y,-z
-x,1/2+y,-z
-x,-y,-z
x,1/2+y,-z
-x,y,z
x,1/2-y,z
1/2+x,1/2+y,1/2+z
1/2-x,-y,1/2+z
1/2+x,1/2-y,1/2-z
1/2-x,y,1/2-z
1/2-x,1/2-y,1/2-z
1/2+x,y,1/2-z
1/2-x,1/2+y,1/2+z
1/2+x,-y,1/2+z
loop_
_atom_site_type_symbol
_atom_site_label
_atom_site_fract_x
_atom_site_fract_y
_atom_site_fract_z
Si Si1 0.617359 0.750000 0.583696
Si Si2 0.402683 0.750000 0.029535
Si Si3 0.500000 0.502746 0.388324
Si Si4 0.500000 0.250000 0.521234
Si Si5 0.500000 0.250000 0.700888
Si Si6 0.899307 0.467490 0.628498
Si Si7 0.817410 0.250000 0.411090
Si Si8 0.660802 0.750000 0.218377
O O1 0.577978 0.606963 0.609462
O O2 0.580590 0.750000 0.520307
O O3 0.716708 0.750000 0.589970
O O4 0.500000 0.750000 0.009769
O O5 0.390421 0.881743 0.070511
O O6 0.344888 0.750000 0.975839
O O7 0.500000 0.609777 0.441084
O O8 0.500000 0.609616 0.336876
O O9 0.583802 0.250000 0.738170
O O10 0.857589 0.615944 0.618587
O O11 0.853197 0.382315 0.677401
O O12 0.000000 0.473796 0.640402
O O13 0.750000 0.750000 0.250000
#
# Coordination Sequence:
#
# PCOD9539048 Si02
#       8
#     8   8   8   4   4  16   8   8
#     4  10  21  37  53  87 131 148 185 241 290 340
#     4   9  19  36  58  82 117 160 194 226 277 346
#     4   9  21  39  62  84 112 160 196 232 290 353
#     4   9  18  38  60  82 116 168 194 227 292 348
#     4  11  22  44  72  84 104 154 202 245 298 344
#     4  10  21  41  59  83 121 156 191 235 294 350
#     4  12  23  32  57  94 121 153 190 238 286 346
#     4  11  24  43  67  87 110 146 201 254 297 346
#
# _framework density 17.712069
#
# number of rings (size 3 to 8) (size 9 to 14) (size 15 to 20)
#    0.000    2.000    1.250    4.125    3.500    6.000 
#    4.500    3.125    0.000    0.000    0.000    0.000 
#    0.000    0.000    0.000    0.000    0.000    0.000 
#
# Total GULP energy -178609.032170 kJ/mol
# GULP energy per Si atom -5581.532255 kJ/mol
# Density = 1.767176 g / cm^3
# Si number density = 17.712069 Si / 1000 Ang^3
#
#
#
# Elastic Constant Matrix: (Units=GPa)
#
#
# Indices 1 2 3 4 5 6 
#
# 1 163.9276 91.3123 80.6492 0.0000 0.0000 0.0000
# 2 91.3123 178.5590 65.4343 0.0000 0.0000 0.0000
# 3 80.6492 65.4343 104.7470 0.0000 0.0000 0.0000
# 4 0.0000 0.0000 0.0000 -32.4828 0.0000 0.0000
# 5 0.0000 0.0000 0.0000 0.0000 4.1954 0.0000
# 6 0.0000 0.0000 0.0000 0.0000 0.0000 14.9667
#
#
#
# Elastic Compliance Matrix: (Units=1/GPa)
#
#
# Indices 1 2 3 4 5 6 
#
# 1 0.011153 -0.003316 -0.006516 0.000000 0.000000 0.000000
# 2 -0.003316 0.008249 -0.002600 0.000000 0.000000 0.000000
# 3 -0.006516 -0.002600 0.016188 0.000000 0.000000 0.000000
# 4 0.000000 0.000000 0.000000 -0.030786 0.000000 0.000000
# 5 0.000000 0.000000 0.000000 0.000000 0.238358 0.000000
# 6 0.000000 0.000000 0.000000 0.000000 0.000000 0.066815
#
#
# Mechanical properties :
#
#
# Convention : Reuss Voigt Hill
#
# Bulk Modulus (GPa) = 93.22762 102.44725 97.83743
# Shear Modulus (GPa) = 14.77476 11.32505 13.04990
#
# Velocity S-wave (km/s) = 2.89132 2.53137 2.71731
# Velocity P-wave (km/s) = 7.99348 8.15535 8.07482
#
# Compressibility (1/GPa) = 0.01072644
#
# Stress axis : x y z
#
# Youngs Moduli (GPa) = 89.66384 121.23040 61.77485
#
# Poissons Ratio (x) = 0.40195 0.40251
# Poissons Ratio (y) = 0.29729 0.16062
# Poissons Ratio (z) = 0.58423 0.31521
#
# Static dielectric constant tensor:
#      x y z
#    x 1.577140 0.000000 0.000000 
#    y 0.000000 1.627090 0.000000 
#    z 0.000000 0.000000 1.591180 
# 
# From -- ./inp_files/59588.got.cif
#   From: 2010.05.17/outbox.cif.g08.bks.cpg/sg74_30_cif.got.tgz:59588.got - 2010.06.03 17:57:02.
