data_PCOD9539335
_publ_section_title
;
Structure prediction by ZEFSAII (Michael W. Deem and Ramdas Pophale) SiO2 
 PCOD9539335
Probable space group: I M M A
;
_chemical_formula_sum "Si O2"
_cell_formula_units_Z 60
_cell_length_a 24.426266
_cell_length_b 13.673645
_cell_length_c 9.187326
_cell_angle_alpha 90.000000
_cell_angle_beta 90.000000
_cell_angle_gamma 90.000000
_cell_volume 3068.530961
_symmetry_space_group_name_H-M "I M M A"
_symmetry_group_IT_number 74
_symmetry_cell_setting 'orthorhombic'
loop_
_space_group_symop_operation_xyz
x,y,z
-x,1/2-y,z
x,-y,-z
-x,1/2+y,-z
-x,-y,-z
x,1/2+y,-z
-x,y,z
x,1/2-y,z
1/2+x,1/2+y,1/2+z
1/2-x,-y,1/2+z
1/2+x,1/2-y,1/2-z
1/2-x,y,1/2-z
1/2-x,1/2-y,1/2-z
1/2+x,y,1/2-z
1/2-x,1/2+y,1/2+z
1/2+x,-y,1/2+z
loop_
_atom_site_type_symbol
_atom_site_label
_atom_site_fract_x
_atom_site_fract_y
_atom_site_fract_z
Si Si1 0.096723 0.362039 0.045103
Si Si2 0.062645 0.363341 0.729952
Si Si3 0.879839 0.500000 0.500000
Si Si4 0.812761 0.366330 0.279059
Si Si5 0.000000 0.500000 0.000000
O O1 0.079893 0.250000 0.075766
O O2 0.101523 0.368659 0.870252
O O3 0.151352 0.381725 0.133678
O O4 0.048456 0.435265 0.082540
O O5 0.061644 0.250000 0.681162
O O6 0.082321 0.434485 0.605038
O O7 0.000000 0.386596 0.786546
O O8 0.841806 0.429025 0.403918
O O9 0.814482 0.250000 0.314142
O O10 0.750000 0.393593 0.250000
#
# Coordination Sequence:
#
# PCOD9539335 Si02
#       5
#    16  16   8  16   4
#     4  10  21  38  61  88 120 162 206 253 313 375
#     4  10  21  39  59  88 129 163 199 254 317 384
#     4  12  23  37  62  92 121 163 214 254 322 380
#     4  10  24  45  64  88 127 169 216 270 317 373
#     4  12  18  30  60  96 122 140 198 264 312 370
#
# _framework density 19.553331
#
# number of rings (size 3 to 8) (size 9 to 14) (size 15 to 20)
#    0.000    1.600    1.333    3.200    0.000    3.200 
#    2.400    0.000    0.000    8.000    0.000    0.000 
#    0.000    0.000    0.000    0.000    0.000    0.000 
#
# Total GULP energy -167131.244990 kJ/mol
# GULP energy per Si atom -5571.041500 kJ/mol
# Density = 1.950883 g / cm^3
# Si number density = 19.553331 Si / 1000 Ang^3
#
#
#
# Elastic Constant Matrix: (Units=GPa)
#
#
# Indices 1 2 3 4 5 6 
#
# 1 138.1123 54.6936 64.8019 0.0000 0.0000 0.0000
# 2 54.6936 88.9680 42.3416 0.0000 0.0000 0.0000
# 3 64.8019 42.3416 111.4031 0.0000 0.0000 0.0000
# 4 0.0000 0.0000 0.0000 27.6300 0.0000 0.0000
# 5 0.0000 0.0000 0.0000 0.0000 31.2584 0.0000
# 6 0.0000 0.0000 0.0000 0.0000 0.0000 26.6736
#
#
#
# Elastic Compliance Matrix: (Units=1/GPa)
#
#
# Indices 1 2 3 4 5 6 
#
# 1 0.011362 -0.004687 -0.004827 0.000000 0.000000 0.000000
# 2 -0.004687 0.015656 -0.003224 0.000000 0.000000 0.000000
# 3 -0.004827 -0.003224 0.013010 0.000000 0.000000 0.000000
# 4 0.000000 0.000000 0.000000 0.036193 0.000000 0.000000
# 5 0.000000 0.000000 0.000000 0.000000 0.031991 0.000000
# 6 0.000000 0.000000 0.000000 0.000000 0.000000 0.037490
#
#
# Mechanical properties :
#
#
# Convention : Reuss Voigt Hill
#
# Bulk Modulus (GPa) = 68.72769 73.57308 71.15039
# Shear Modulus (GPa) = 28.40446 28.88882 28.64664
#
# Velocity S-wave (km/s) = 3.81552 3.84791 3.83175
# Velocity P-wave (km/s) = 7.39162 7.57961 7.48621
#
# Compressibility (1/GPa) = 0.01455018
#
# Stress axis : x y z
#
# Youngs Moduli (GPa) = 88.01510 63.87419 76.86495
#
# Poissons Ratio (x) = 0.29939 0.37106
# Poissons Ratio (y) = 0.41254 0.24780
# Poissons Ratio (z) = 0.42489 0.20592
#
# Static dielectric constant tensor:
#      x y z
#    x 1.640330 0.000000 0.000000 
#    y 0.000000 1.439010 0.000000 
#    z 0.000000 0.000000 1.619410 
# 
# From -- ./inp_files/13247.got.cif
#   From: 2010.05.17/outbox.cif.g08.bks.cpg/sg74_7_cif.got.tgz:13247.got - 2010.06.03 17:57:02.
