data_PCOD9539809
_publ_section_title
;
Structure prediction by ZEFSAII (Michael W. Deem and Ramdas Pophale) SiO2 
 PCOD9539809
Probable space group: I M M A
;
_chemical_formula_sum "Si O2"
_cell_formula_units_Z 96
_cell_length_a 18.896149
_cell_length_b 24.059572
_cell_length_c 12.006960
_cell_angle_alpha 90.000000
_cell_angle_beta 90.000000
_cell_angle_gamma 90.000000
_cell_volume 5458.763336
_symmetry_space_group_name_H-M "I M M A"
_symmetry_group_IT_number 74
_symmetry_cell_setting 'orthorhombic'
loop_
_space_group_symop_operation_xyz
x,y,z
-x,1/2-y,z
x,-y,-z
-x,1/2+y,-z
-x,-y,-z
x,1/2+y,-z
-x,y,z
x,1/2-y,z
1/2+x,1/2+y,1/2+z
1/2-x,-y,1/2+z
1/2+x,1/2-y,1/2-z
1/2-x,y,1/2-z
1/2-x,1/2-y,1/2-z
1/2+x,y,1/2-z
1/2-x,1/2+y,1/2+z
1/2+x,-y,1/2+z
loop_
_atom_site_type_symbol
_atom_site_label
_atom_site_fract_x
_atom_site_fract_y
_atom_site_fract_z
Si Si1 0.154455 0.312883 0.041120
Si Si2 0.500000 0.527881 0.378726
Si Si3 0.151141 0.434652 0.380442
Si Si4 0.000000 0.187426 0.153795
Si Si5 0.351237 0.592679 0.352518
Si Si6 0.000000 0.924870 0.705823
Si Si7 0.250000 0.647928 0.750000
Si Si8 0.302093 0.058889 0.871736
O O1 0.166351 0.250000 0.000988
O O2 0.208829 0.322623 0.145787
O O3 0.073295 0.316673 0.085109
O O4 0.158763 0.356766 0.939494
O O5 0.500000 0.500000 0.500000
O O6 0.428104 0.564392 0.365738
O O7 0.500000 0.476610 0.291946
O O8 0.190537 0.391212 0.302989
O O9 0.173673 0.424989 0.506356
O O10 0.170107 0.497391 0.346395
O O11 0.068559 0.428715 0.368400
O O12 0.000000 0.134373 0.233116
O O13 0.000000 0.250000 0.204956
O O14 0.333750 0.600874 0.220835
O O15 0.282921 0.554281 0.377574
#
# Coordination Sequence:
#
# PCOD9539809 Si02
#       8
#    16   8  16   8  16   8   8  16
#     4  11  23  40  65  90 119 162 210 258 309 369
#     4  12  26  33  58  96 126 158 201 255 302 380
#     4  11  23  37  62  89 124 163 199 246 309 369
#     4  10  22  40  59  88 127 160 195 252 312 353
#     4  11  22  41  58  86 128 159 200 253 314 357
#     4  12  22  40  59  93 122 162 212 246 302 372
#     4  12  21  38  62  90 124 154 203 262 304 362
#     4  10  23  39  60  87 125 165 196 246 307 374
#
# _framework density 17.586400999999999
#
# number of rings (size 3 to 8) (size 9 to 14) (size 15 to 20)
#    0.000    1.000    5.000    2.750    2.333    2.000 
#    0.000    1.667    0.000    0.000    0.000    0.000 
#    0.000    0.000    0.000    0.000    0.000    0.000 
#
# Total GULP energy -267478.184213 kJ/mol
# GULP energy per Si atom -5572.462171 kJ/mol
# Density = 1.754637 g / cm^3
# Si number density = 17.586401 Si / 1000 Ang^3
#
#
#
# Elastic Constant Matrix: (Units=GPa)
#
#
# Indices 1 2 3 4 5 6 
#
# 1 147.7919 24.8350 33.9932 0.0000 0.0000 0.0000
# 2 24.8350 73.8999 28.8422 0.0000 0.0000 0.0000
# 3 33.9932 28.8422 99.8783 0.0000 0.0000 0.0000
# 4 0.0000 0.0000 0.0000 46.2826 0.0000 0.0000
# 5 0.0000 0.0000 0.0000 0.0000 28.9317 0.0000
# 6 0.0000 0.0000 0.0000 0.0000 0.0000 23.6744
#
#
#
# Elastic Compliance Matrix: (Units=1/GPa)
#
#
# Indices 1 2 3 4 5 6 
#
# 1 0.007531 -0.001725 -0.002065 0.000000 0.000000 0.000000
# 2 -0.001725 0.015646 -0.003931 0.000000 0.000000 0.000000
# 3 -0.002065 -0.003931 0.011850 0.000000 0.000000 0.000000
# 4 0.000000 0.000000 0.000000 0.021606 0.000000 0.000000
# 5 0.000000 0.000000 0.000000 0.000000 0.034564 0.000000
# 6 0.000000 0.000000 0.000000 0.000000 0.000000 0.042240
#
#
# Mechanical properties :
#
#
# Convention : Reuss Voigt Hill
#
# Bulk Modulus (GPa) = 51.05946 55.21232 53.13589
# Shear Modulus (GPa) = 32.17346 35.37107 33.77226
#
# Velocity S-wave (km/s) = 4.28185 4.48959 4.38695
# Velocity P-wave (km/s) = 7.31725 7.63795 7.47932
#
# Compressibility (1/GPa) = 0.01958501
#
# Stress axis : x y z
#
# Youngs Moduli (GPa) = 132.78246 63.91518 84.38685
#
# Poissons Ratio (x) = 0.11025 0.17426
# Poissons Ratio (y) = 0.22904 0.33172
# Poissons Ratio (z) = 0.27420 0.25125
#
# Static dielectric constant tensor:
#      x y z
#    x 1.532500 0.000000 0.000000 
#    y 0.000000 1.598880 0.000000 
#    z 0.000000 0.000000 1.619120 
# 
# From -- ./inp_files/22550.got.cif
#   From: 2010.05.17/outbox.cif.g08.bks.cpg/sg74_12_cif.got.tgz:22550.got - 2010.06.03 17:57:02.
