data_PCOD9539702
_publ_section_title
;
Structure prediction by ZEFSAII (Michael W. Deem and Ramdas Pophale) SiO2 
 PCOD9539702
Probable space group: I M M A
;
_chemical_formula_sum "Si O2"
_cell_formula_units_Z 64
_cell_length_a 14.744452
_cell_length_b 10.832499
_cell_length_c 19.377644
_cell_angle_alpha 90.000000
_cell_angle_beta 90.000000
_cell_angle_gamma 90.000000
_cell_volume 3094.982990
_symmetry_space_group_name_H-M "I M M A"
_symmetry_group_IT_number 74
_symmetry_cell_setting 'orthorhombic'
loop_
_space_group_symop_operation_xyz
x,y,z
-x,1/2-y,z
x,-y,-z
-x,1/2+y,-z
-x,-y,-z
x,1/2+y,-z
-x,y,z
x,1/2-y,z
1/2+x,1/2+y,1/2+z
1/2-x,-y,1/2+z
1/2+x,1/2-y,1/2-z
1/2-x,y,1/2-z
1/2-x,1/2-y,1/2-z
1/2+x,y,1/2-z
1/2-x,1/2+y,1/2+z
1/2+x,-y,1/2+z
loop_
_atom_site_type_symbol
_atom_site_label
_atom_site_fract_x
_atom_site_fract_y
_atom_site_fract_z
Si Si1 0.109367 0.112569 0.302280
Si Si2 0.099417 0.038891 0.079421
Si Si3 0.391886 0.885670 0.289917
Si Si4 0.205696 0.113859 0.446828
O O1 0.138722 0.250000 0.278969
O O2 0.142184 0.095554 0.380581
O O3 0.000000 0.111690 0.300393
O O4 0.142914 0.000137 0.255077
O O5 0.191143 0.115606 0.081816
O O6 0.000000 0.092119 0.099678
O O7 0.115882 0.923333 0.129977
O O8 0.092556 0.000000 0.000000
O O9 0.500000 0.879435 0.276171
O O10 0.353750 0.750000 0.276001
O O11 0.186625 0.250000 0.477610
O O12 0.197278 0.000000 0.500000
#
# Coordination Sequence:
#
# PCOD9539702 Si02
#       4
#    16  16  16  16
#     4   9  19  37  58  80 110 145 178 218 271 326
#     4   9  19  35  54  77 108 143 176 217 269 317
#     4   9  18  34  57  84 111 141 182 227 267 315
#     4  10  22  38  56  81 110 141 182 226 268 322
#
# _framework density 20.678626999999999
#
# number of rings (size 3 to 8) (size 9 to 14) (size 15 to 20)
#    0.000    2.750    0.000    0.000    0.000    8.000 
#    0.000   11.250    0.000    0.000    0.000    0.000 
#    0.000    0.000    0.000    0.000    0.000    0.000 
#
# Total GULP energy -178307.161895 kJ/mol
# GULP energy per Si atom -5572.098809 kJ/mol
# Density = 2.063156 g / cm^3
# Si number density = 20.678627 Si / 1000 Ang^3
#
#
#
# Elastic Constant Matrix: (Units=GPa)
#
#
# Indices 1 2 3 4 5 6 
#
# 1 50.6068 28.3862 22.2721 0.0000 0.0000 0.0000
# 2 28.3862 219.1662 96.1557 0.0000 0.0000 0.0000
# 3 22.2721 96.1557 78.7267 0.0000 0.0000 0.0000
# 4 0.0000 0.0000 0.0000 17.2761 0.0000 0.0000
# 5 0.0000 0.0000 0.0000 0.0000 40.0028 0.0000
# 6 0.0000 0.0000 0.0000 0.0000 0.0000 -45.9310
#
#
#
# Elastic Compliance Matrix: (Units=1/GPa)
#
#
# Indices 1 2 3 4 5 6 
#
# 1 0.022577 -0.000263 -0.006066 0.000000 0.000000 0.000000
# 2 -0.000263 0.009834 -0.011936 0.000000 0.000000 0.000000
# 3 -0.006066 -0.011936 0.028997 0.000000 0.000000 0.000000
# 4 0.000000 0.000000 0.000000 0.057883 0.000000 0.000000
# 5 0.000000 0.000000 0.000000 0.000000 0.024998 0.000000
# 6 0.000000 0.000000 0.000000 0.000000 0.000000 -0.021772
#
#
# Mechanical properties :
#
#
# Convention : Reuss Voigt Hill
#
# Bulk Modulus (GPa) = 40.19712 71.34753 55.77233
# Shear Modulus (GPa) = 29.87895 15.71528 22.79711
#
# Velocity S-wave (km/s) = 3.80533 2.75976 3.32392
# Velocity P-wave (km/s) = 6.22805 6.68827 6.46226
#
# Compressibility (1/GPa) = 0.02487740
#
# Stress axis : x y z
#
# Youngs Moduli (GPa) = 44.29214 101.69125 34.48584
#
# Poissons Ratio (x) = 0.02671 0.20921
# Poissons Ratio (y) = 0.01163 0.41164
# Poissons Ratio (z) = 0.26870 1.21383
#
# Static dielectric constant tensor:
#      x y z
#    x 1.770190 0.000000 0.000000 
#    y 0.000000 1.760900 0.000000 
#    z 0.000000 0.000000 1.707690 
# 
# From -- ./inp_files/40697.got.cif
#   From: 2010.05.17/outbox.cif.g08.bks.cpg/sg74_21_cif.got.tgz:40697.got - 2010.06.03 17:57:02.
