data_PCOD9539576
_publ_section_title
;
Structure prediction by ZEFSAII (Michael W. Deem and Ramdas Pophale) SiO2 
 PCOD9539576
Probable space group: I M M A
;
_chemical_formula_sum "Si O2"
_cell_formula_units_Z 60
_cell_length_a 18.847172
_cell_length_b 12.365746
_cell_length_c 13.109147
_cell_angle_alpha 90.000000
_cell_angle_beta 90.000000
_cell_angle_gamma 90.000000
_cell_volume 3055.209171
_symmetry_space_group_name_H-M "I M M A"
_symmetry_group_IT_number 74
_symmetry_cell_setting 'orthorhombic'
loop_
_space_group_symop_operation_xyz
x,y,z
-x,1/2-y,z
x,-y,-z
-x,1/2+y,-z
-x,-y,-z
x,1/2+y,-z
-x,y,z
x,1/2-y,z
1/2+x,1/2+y,1/2+z
1/2-x,-y,1/2+z
1/2+x,1/2-y,1/2-z
1/2-x,y,1/2-z
1/2-x,1/2-y,1/2-z
1/2+x,y,1/2-z
1/2-x,1/2+y,1/2+z
1/2+x,-y,1/2+z
loop_
_atom_site_type_symbol
_atom_site_label
_atom_site_fract_x
_atom_site_fract_y
_atom_site_fract_z
Si Si1 0.500000 0.878500 0.702921
Si Si2 0.750000 0.750000 0.750000
Si Si3 0.500000 0.543429 0.114148
Si Si4 0.656093 0.936906 0.674616
Si Si5 0.755018 0.000000 0.500000
Si Si6 0.153243 0.625036 0.333199
O O1 0.500000 0.750000 0.712647
O O2 0.573641 0.915534 0.651682
O O3 0.500000 0.939597 0.811311
O O4 0.687976 0.844638 0.747218
O O5 0.429316 0.610320 0.137928
O O6 0.500000 0.500000 0.000000
O O7 0.703866 0.932178 0.573921
O O8 0.664735 0.050754 0.733189
O O9 0.802577 0.074465 0.573047
O O10 0.170668 0.750000 0.316670
#
# Coordination Sequence:
#
# PCOD9539576 Si02
#       6
#     8   4   8  16   8  16
#     4  10  22  40  65  89 126 166 209 263 314 376
#     4  12  20  42  66  92 134 154 212 274 310 380
#     4  10  21  41  61  96 126 165 209 255 328 392
#     4  11  25  43  65  95 128 168 212 266 321 377
#     4  12  24  40  64  94 124 172 214 262 316 376
#     4  11  24  42  64  95 132 165 210 266 326 386
#
# _framework density 19.638590000000001
#
# number of rings (size 3 to 8) (size 9 to 14) (size 15 to 20)
#    0.000    1.067    5.333    0.400    1.867    3.733 
#    0.000    0.000    0.000    0.000    0.000    0.000 
#    0.000    0.000    0.000    0.000    0.000    0.000 
#
# Total GULP energy -167091.733245 kJ/mol
# GULP energy per Si atom -5569.724441 kJ/mol
# Density = 1.959389 g / cm^3
# Si number density = 19.638590 Si / 1000 Ang^3
#
#
#
# Elastic Constant Matrix: (Units=GPa)
#
#
# Indices 1 2 3 4 5 6 
#
# 1 168.1946 32.8049 30.8135 0.0000 0.0000 0.0000
# 2 32.8049 142.1534 11.9115 0.0000 0.0000 0.0000
# 3 30.8135 11.9115 47.5459 0.0000 0.0000 0.0000
# 4 0.0000 0.0000 0.0000 3.0412 0.0000 0.0000
# 5 0.0000 0.0000 0.0000 0.0000 31.3276 0.0000
# 6 0.0000 0.0000 0.0000 0.0000 0.0000 21.0415
#
#
#
# Elastic Compliance Matrix: (Units=1/GPa)
#
#
# Indices 1 2 3 4 5 6 
#
# 1 0.006959 -0.001254 -0.004196 0.000000 0.000000 0.000000
# 2 -0.001254 0.007412 -0.001044 0.000000 0.000000 0.000000
# 3 -0.004196 -0.001044 0.024013 0.000000 0.000000 0.000000
# 4 0.000000 0.000000 0.000000 0.328819 0.000000 0.000000
# 5 0.000000 0.000000 0.000000 0.000000 0.031921 0.000000
# 6 0.000000 0.000000 0.000000 0.000000 0.000000 0.047525
#
#
# Mechanical properties :
#
#
# Convention : Reuss Voigt Hill
#
# Bulk Modulus (GPa) = 39.37684 56.55041 47.96362
# Shear Modulus (GPa) = 10.68146 29.90634 20.29390
#
# Velocity S-wave (km/s) = 2.33470 3.90659 3.21809
# Velocity P-wave (km/s) = 5.23087 7.01474 6.18743
#
# Compressibility (1/GPa) = 0.02539564
#
# Stress axis : x y z
#
# Youngs Moduli (GPa) = 143.70341 134.92383 41.64430
#
# Poissons Ratio (x) = 0.16924 0.17472
# Poissons Ratio (y) = 0.18025 0.04347
# Poissons Ratio (z) = 0.60292 0.14085
#
# Static dielectric constant tensor:
#      x y z
#    x 1.727010 0.000000 0.000000 
#    y 0.000000 1.662960 0.000000 
#    z 0.000000 0.000000 1.708490 
# 
# From -- ./inp_files/23259.got.cif
#   From: 2010.05.17/outbox.cif.g08.bks.cpg/sg74_12_cif.got.tgz:23259.got - 2010.06.03 17:57:02.
