data_PCOD9539060
_publ_section_title
;
Structure prediction by ZEFSAII (Michael W. Deem and Ramdas Pophale) SiO2 
 PCOD9539060
Probable space group: I M M A
;
_chemical_formula_sum "Si O2"
_cell_formula_units_Z 64
_cell_length_a 7.414912
_cell_length_b 14.804872
_cell_length_c 32.727790
_cell_angle_alpha 90.000000
_cell_angle_beta 90.000000
_cell_angle_gamma 90.000000
_cell_volume 3592.752812
_symmetry_space_group_name_H-M "I M M A"
_symmetry_group_IT_number 74
_symmetry_cell_setting 'orthorhombic'
loop_
_space_group_symop_operation_xyz
x,y,z
-x,1/2-y,z
x,-y,-z
-x,1/2+y,-z
-x,-y,-z
x,1/2+y,-z
-x,y,z
x,1/2-y,z
1/2+x,1/2+y,1/2+z
1/2-x,-y,1/2+z
1/2+x,1/2-y,1/2-z
1/2-x,y,1/2-z
1/2-x,1/2-y,1/2-z
1/2+x,y,1/2-z
1/2-x,1/2+y,1/2+z
1/2+x,-y,1/2+z
loop_
_atom_site_type_symbol
_atom_site_label
_atom_site_fract_x
_atom_site_fract_y
_atom_site_fract_z
Si Si1 0.285044 0.147437 0.296802
Si Si2 0.500000 0.350773 0.076656
Si Si3 0.785761 0.852696 0.083506
Si Si4 0.500000 0.603186 0.014656
Si Si5 0.283687 0.036280 0.374790
O O1 0.500000 0.152892 0.301270
O O2 0.213640 0.250000 0.302935
O O3 0.250000 0.121046 0.250000
O O4 0.224685 0.076522 0.331007
O O5 0.500000 0.250000 0.094230
O O6 0.673938 0.405625 0.092200
O O7 0.500000 0.345592 0.027990
O O8 0.744142 0.750000 0.096635
O O9 0.670960 0.874546 0.043122
O O10 0.000000 0.857550 0.075096
O O11 0.743867 0.931152 0.116320
O O12 0.500000 0.500000 0.000000
O O13 0.500000 0.048108 0.379061
#
# Coordination Sequence:
#
# PCOD9539060 Si02
#       5
#    16   8  16   8  16
#     4   9  18  32  51  76 106 141 176 216 271 334
#     4  12  24  35  54  81 110 148 184 225 278 326
#     4  10  21  38  60  81 106 146 191 230 276 326
#     4  12  22  39  57  80 113 147 186 231 277 330
#     4  10  21  37  55  79 110 142 183 230 272 322
#
# _framework density 17.813638000000001
#
# number of rings (size 3 to 8) (size 9 to 14) (size 15 to 20)
#    0.000    1.750    2.500    1.875    1.750    3.000 
#    0.000    0.000    0.000    0.750    0.000    0.000 
#    0.000    0.000    0.000    0.000    0.000    0.000 
#
# Total GULP energy -178480.087767 kJ/mol
# GULP energy per Si atom -5577.502743 kJ/mol
# Density = 1.777309 g / cm^3
# Si number density = 17.813638 Si / 1000 Ang^3
#
#
#
# Elastic Constant Matrix: (Units=GPa)
#
#
# Indices 1 2 3 4 5 6 
#
# 1 63.2586 42.4047 30.4915 0.0000 0.0000 0.0000
# 2 42.4047 177.2292 81.9191 0.0000 0.0000 0.0000
# 3 30.4915 81.9191 146.6935 0.0000 0.0000 0.0000
# 4 0.0000 0.0000 0.0000 17.3179 0.0000 0.0000
# 5 0.0000 0.0000 0.0000 0.0000 24.4437 0.0000
# 6 0.0000 0.0000 0.0000 0.0000 0.0000 -7.2398
#
#
#
# Elastic Compliance Matrix: (Units=1/GPa)
#
#
# Indices 1 2 3 4 5 6 
#
# 1 0.019222 -0.003710 -0.001924 0.000000 0.000000 0.000000
# 2 -0.003710 0.008322 -0.003876 0.000000 0.000000 0.000000
# 3 -0.001924 -0.003876 0.009381 0.000000 0.000000 0.000000
# 4 0.000000 0.000000 0.000000 0.057744 0.000000 0.000000
# 5 0.000000 0.000000 0.000000 0.000000 0.040910 0.000000
# 6 0.000000 0.000000 0.000000 0.000000 0.000000 -0.138126
#
#
# Mechanical properties :
#
#
# Convention : Reuss Voigt Hill
#
# Bulk Modulus (GPa) = 55.84764 77.42355 66.63560
# Shear Modulus (GPa) = 222.80535 22.39545 122.60040
#
# Velocity S-wave (km/s) = 11.19586 3.54956 8.30502
# Velocity P-wave (km/s) = 14.09073 7.76895 11.37773
#
# Compressibility (1/GPa) = 0.01790586
#
# Stress axis : x y z
#
# Youngs Moduli (GPa) = 52.02274 120.16868 106.59547
#
# Poissons Ratio (x) = 0.44583 0.20506
# Poissons Ratio (y) = 0.19301 0.41316
# Poissons Ratio (z) = 0.10008 0.46577
#
# Static dielectric constant tensor:
#      x y z
#    x 1.627000 0.000000 0.000000 
#    y 0.000000 1.641610 0.000000 
#    z 0.000000 0.000000 1.590790 
# 
# From -- ./inp_files/63501.got.cif
#   From: 2010.05.17/outbox.cif.g08.bks.cpg/sg74_32_cif.got.tgz:63501.got - 2010.06.03 17:57:02.
