data_PCOD9539925
_publ_section_title
;
Structure prediction by ZEFSAII (Michael W. Deem and Ramdas Pophale) SiO2 
 PCOD9539925
Probable space group: I M M A
;
_chemical_formula_sum "Si O2"
_cell_formula_units_Z 116
_cell_length_a 25.244540
_cell_length_b 24.556881
_cell_length_c 9.633332
_cell_angle_alpha 90.000000
_cell_angle_beta 90.000000
_cell_angle_gamma 90.000000
_cell_volume 5971.964193
_symmetry_space_group_name_H-M "I M M A"
_symmetry_group_IT_number 74
_symmetry_cell_setting 'orthorhombic'
loop_
_space_group_symop_operation_xyz
x,y,z
-x,1/2-y,z
x,-y,-z
-x,1/2+y,-z
-x,-y,-z
x,1/2+y,-z
-x,y,z
x,1/2-y,z
1/2+x,1/2+y,1/2+z
1/2-x,-y,1/2+z
1/2+x,1/2-y,1/2-z
1/2-x,y,1/2-z
1/2-x,1/2-y,1/2-z
1/2+x,y,1/2-z
1/2-x,1/2+y,1/2+z
1/2+x,-y,1/2+z
loop_
_atom_site_type_symbol
_atom_site_label
_atom_site_fract_x
_atom_site_fract_y
_atom_site_fract_z
Si Si1 0.117375 0.595622 0.255974
Si Si2 0.437570 0.084728 0.468160
Si Si3 0.936479 0.811202 0.789290
Si Si4 0.000000 0.000000 0.500000
Si Si5 0.696150 0.310991 0.660170
Si Si6 0.124951 0.129291 0.449217
Si Si7 0.101102 0.520908 0.706950
Si Si8 0.733776 0.814022 0.903037
O O1 0.159754 0.639266 0.203899
O O2 0.097399 0.619916 0.402114
O O3 0.135326 0.534168 0.291280
O O4 0.077560 0.585600 0.129072
O O5 0.500000 0.076201 0.454251
O O6 0.423829 0.144332 0.406024
O O7 0.410658 0.041796 0.363462
O O8 0.920173 0.750000 0.826018
O O9 0.908562 0.830989 0.649075
O O10 0.000000 0.812267 0.769978
O O11 0.952976 0.008815 0.379418
O O12 0.672407 0.250000 0.678162
O O13 0.750000 0.311504 0.750000
O O14 0.715973 0.318006 0.503220
O O15 0.127348 0.071472 0.372039
O O16 0.183634 0.153688 0.462510
O O17 0.718965 0.750000 0.895812
O O18 0.750000 0.832675 0.750000
#
# Coordination Sequence:
#
# PCOD9539925 Si02
#       8
#    16  16  16   4  16  16  16  16
#     4  12  24  38  61  92 125 159 204 257 312 370
#     4  10  23  39  61  89 127 165 208 256 305 373
#     4   9  20  38  58  85 123 164 200 248 312 369
#     4  12  20  40  70  88 118 172 218 264 296 362
#     4  10  22  42  65  89 121 159 201 254 317 377
#     4  11  22  38  63  90 123 155 212 254 306 368
#     4  11  24  40  62  90 124 167 215 255 307 366
#     4  10  22  41  67  93 117 155 208 260 312 374
#
# _framework density 19.424094
#
# number of rings (size 3 to 8) (size 9 to 14) (size 15 to 20)
#    0.000    1.517    3.448    0.828    5.793    2.207 
#    0.000    0.690    0.000    1.655    0.000    0.000 
#    0.000    0.000    0.000    0.000    0.000    0.000 
#
# Total GULP energy -323157.831963 kJ/mol
# GULP energy per Si atom -5571.686758 kJ/mol
# Density = 1.937988 g / cm^3
# Si number density = 19.424094 Si / 1000 Ang^3
#
#
#
# Elastic Constant Matrix: (Units=GPa)
#
#
# Indices 1 2 3 4 5 6 
#
# 1 22.1952 32.8945 0.0660 0.0000 0.0000 0.0000
# 2 32.8945 119.8808 8.9956 0.0000 0.0000 0.0000
# 3 0.0660 8.9956 105.4991 0.0000 0.0000 0.0000
# 4 0.0000 0.0000 0.0000 18.8349 0.0000 0.0000
# 5 0.0000 0.0000 0.0000 0.0000 21.9312 0.0000
# 6 0.0000 0.0000 0.0000 0.0000 0.0000 12.3732
#
#
#
# Elastic Compliance Matrix: (Units=1/GPa)
#
#
# Indices 1 2 3 4 5 6 
#
# 1 0.076254 -0.021055 0.001748 0.000000 0.000000 0.000000
# 2 -0.021055 0.014209 -0.001198 0.000000 0.000000 0.000000
# 3 0.001748 -0.001198 0.009580 0.000000 0.000000 0.000000
# 4 0.000000 0.000000 0.000000 0.053093 0.000000 0.000000
# 5 0.000000 0.000000 0.000000 0.000000 0.045597 0.000000
# 6 0.000000 0.000000 0.000000 0.000000 0.000000 0.080820
#
#
# Mechanical properties :
#
#
# Convention : Reuss Voigt Hill
#
# Bulk Modulus (GPa) = 16.94009 36.83191 26.88600
# Shear Modulus (GPa) = 14.69549 24.33579 19.51564
#
# Velocity S-wave (km/s) = 2.75355 3.54342 3.17316
# Velocity P-wave (km/s) = 4.34160 5.97865 5.22464
#
# Compressibility (1/GPa) = 0.05903155
#
# Stress axis : x y z
#
# Youngs Moduli (GPa) = 13.11409 70.37884 104.38580
#
# Poissons Ratio (x) = 1.48180 -0.18242
# Poissons Ratio (y) = 0.27611 0.12509
# Poissons Ratio (z) = -0.02292 0.08434
#
# Static dielectric constant tensor:
#      x y z
#    x 1.648420 0.000000 0.000000 
#    y 0.000000 1.694170 0.000000 
#    z 0.000000 0.000000 1.717300 
# 
# From -- ./inp_files/15446.got.cif
#   From: 2010.05.17/outbox.cif.g08.bks.cpg/sg74_8_cif.got.tgz:15446.got - 2010.06.03 17:57:02.
