data_PCOD9539025
_publ_section_title
;
Structure prediction by ZEFSAII (Michael W. Deem and Ramdas Pophale) SiO2 
 PCOD9539025
Probable space group: I M M A
;
_chemical_formula_sum "Si O2"
_cell_formula_units_Z 80
_cell_length_a 10.217847
_cell_length_b 15.528475
_cell_length_c 24.677293
_cell_angle_alpha 90.000000
_cell_angle_beta 90.000000
_cell_angle_gamma 90.000000
_cell_volume 3915.486403
_symmetry_space_group_name_H-M "I M M A"
_symmetry_group_IT_number 74
_symmetry_cell_setting 'orthorhombic'
loop_
_space_group_symop_operation_xyz
x,y,z
-x,1/2-y,z
x,-y,-z
-x,1/2+y,-z
-x,-y,-z
x,1/2+y,-z
-x,y,z
x,1/2-y,z
1/2+x,1/2+y,1/2+z
1/2-x,-y,1/2+z
1/2+x,1/2-y,1/2-z
1/2-x,y,1/2-z
1/2-x,1/2-y,1/2-z
1/2+x,y,1/2-z
1/2-x,1/2+y,1/2+z
1/2+x,-y,1/2+z
loop_
_atom_site_type_symbol
_atom_site_label
_atom_site_fract_x
_atom_site_fract_y
_atom_site_fract_z
Si Si1 0.156124 0.600427 0.908306
Si Si2 0.000000 0.856001 0.309643
Si Si3 0.747724 0.908235 0.119836
Si Si4 0.000000 0.850538 0.185632
Si Si5 0.151217 0.105465 0.502738
Si Si6 0.858143 0.350027 0.211954
O O1 0.210447 0.505674 0.894227
O O2 0.246945 0.634515 0.956650
O O3 0.172378 0.649077 0.851526
O O4 0.000000 0.598570 0.921822
O O5 0.874219 0.893802 0.340512
O O6 0.000000 0.750000 0.313487
O O7 0.000000 0.885631 0.246952
O O8 0.873235 0.872282 0.150567
O O9 0.705122 0.869141 0.061825
O O10 0.000000 0.750000 0.194577
O O11 0.000000 0.133049 0.495090
O O12 0.149690 0.000000 0.500000
O O13 0.869026 0.250000 0.228426
O O14 0.750000 0.391747 0.250000
O O15 0.000000 0.392043 0.218586
#
# Coordination Sequence:
#
# PCOD9539025 Si02
#       6
#    16   8  16   8  16  16
#     4  10  21  36  59  91 118 150 191 241 289 344
#     4  11  24  42  61  82 119 163 201 248 303 352
#     4  11  21  39  61  87 115 152 197 246 290 350
#     4  11  24  40  59  84 117 159 201 244 303 356
#     4   9  19  35  59  85 114 148 187 234 294 346
#     4   9  19  37  57  80 115 154 186 224 281 341
#
# _framework density 20.431688999999999
#
# number of rings (size 3 to 8) (size 9 to 14) (size 15 to 20)
#    0.000    2.000    2.000    1.200    2.800    5.200 
#    0.000    2.000    0.000    0.000    0.000    0.000 
#    0.000    0.000    0.000    0.000    0.000    0.000 
#
# Total GULP energy -223097.858855 kJ/mol
# GULP energy per Si atom -5577.446471 kJ/mol
# Density = 2.038519 g / cm^3
# Si number density = 20.431689 Si / 1000 Ang^3
#
#
#
# Elastic Constant Matrix: (Units=GPa)
#
#
# Indices 1 2 3 4 5 6 
#
# 1 222.7236 14.3273 138.8316 0.0000 0.0000 0.0000
# 2 14.3273 18.4747 14.7947 0.0000 0.0000 0.0000
# 3 138.8316 14.7947 182.0221 0.0000 0.0000 0.0000
# 4 0.0000 0.0000 0.0000 19.8867 0.0000 0.0000
# 5 0.0000 0.0000 0.0000 0.0000 60.1671 0.0000
# 6 0.0000 0.0000 0.0000 0.0000 0.0000 6.7343
#
#
#
# Elastic Compliance Matrix: (Units=1/GPa)
#
#
# Indices 1 2 3 4 5 6 
#
# 1 0.008599 -0.001515 -0.006435 0.000000 0.000000 0.000000
# 2 -0.001515 0.058163 -0.003572 0.000000 0.000000 0.000000
# 3 -0.006435 -0.003572 0.010692 0.000000 0.000000 0.000000
# 4 0.000000 0.000000 0.000000 0.050285 0.000000 0.000000
# 5 0.000000 0.000000 0.000000 0.000000 0.016620 0.000000
# 6 0.000000 0.000000 0.000000 0.000000 0.000000 0.148494
#
#
# Mechanical properties :
#
#
# Convention : Reuss Voigt Hill
#
# Bulk Modulus (GPa) = 18.37892 84.34751 51.36321
# Shear Modulus (GPa) = 14.96848 34.37539 24.67194
#
# Velocity S-wave (km/s) = 2.70962 4.10622 3.47873
# Velocity P-wave (km/s) = 4.33638 7.99085 6.42876
#
# Compressibility (1/GPa) = 0.05441017
#
# Stress axis : x y z
#
# Youngs Moduli (GPa) = 116.29795 17.19292 93.52435
#
# Poissons Ratio (x) = 0.02605 0.60185
# Poissons Ratio (y) = 0.17619 0.33407
# Poissons Ratio (z) = 0.74840 0.06141
#
# Static dielectric constant tensor:
#      x y z
#    x 1.811270 0.000000 0.000000 
#    y 0.000000 1.764250 0.000000 
#    z 0.000000 0.000000 1.726450 
# 
# From -- ./inp_files/56898.got.cif
#   From: 2010.05.17/outbox.cif.g08.bks.cpg/sg74_29_cif.got.tgz:56898.got - 2010.06.03 17:57:02.
