data_PCOD9539519
_publ_section_title
;
Structure prediction by ZEFSAII (Michael W. Deem and Ramdas Pophale) SiO2 
 PCOD9539519
Probable space group: I M M A
;
_chemical_formula_sum "Si O2"
_cell_formula_units_Z 60
_cell_length_a 9.185355
_cell_length_b 22.856134
_cell_length_c 15.354798
_cell_angle_alpha 90.000000
_cell_angle_beta 90.000000
_cell_angle_gamma 90.000000
_cell_volume 3223.612468
_symmetry_space_group_name_H-M "I M M A"
_symmetry_group_IT_number 74
_symmetry_cell_setting 'orthorhombic'
loop_
_space_group_symop_operation_xyz
x,y,z
-x,1/2-y,z
x,-y,-z
-x,1/2+y,-z
-x,-y,-z
x,1/2+y,-z
-x,y,z
x,1/2-y,z
1/2+x,1/2+y,1/2+z
1/2-x,-y,1/2+z
1/2+x,1/2-y,1/2-z
1/2-x,y,1/2-z
1/2-x,1/2-y,1/2-z
1/2+x,y,1/2-z
1/2-x,1/2+y,1/2+z
1/2+x,-y,1/2+z
loop_
_atom_site_type_symbol
_atom_site_label
_atom_site_fract_x
_atom_site_fract_y
_atom_site_fract_z
Si Si1 0.826660 0.921265 0.336099
Si Si2 0.166114 0.126040 0.474708
Si Si3 0.000000 0.250000 0.221053
Si Si4 0.174548 0.047521 0.161581
Si Si5 0.787616 0.250000 0.387959
O O1 0.750000 0.895883 0.250000
O O2 0.808947 0.883488 0.422991
O O3 0.000000 0.930679 0.321559
O O4 0.745800 0.983498 0.350577
O O5 0.277171 0.087574 0.418349
O O6 0.179157 0.192326 0.443751
O O7 0.000000 0.105295 0.455975
O O8 0.879790 0.250000 0.299960
O O9 0.875163 0.250000 0.145852
O O10 0.250000 0.071732 0.250000
O O11 0.000000 0.044956 0.170822
#
# Coordination Sequence:
#
# PCOD9539519 Si02
#       5
#    16  16   4  16   8
#     4  10  21  40  61  85 116 155 196 245 295 344
#     4  11  23  39  61  86 119 156 197 241 291 349
#     4  10  24  42  64  82 126 156 192 234 282 344
#     4  11  23  36  58  88 121 156 195 240 294 351
#     4  11  24  42  61  90 119 156 194 233 289 345
#
# _framework density 18.612660000000002
#
# number of rings (size 3 to 8) (size 9 to 14) (size 15 to 20)
#    0.000    1.333    1.333    5.600    5.600    5.333 
#    0.000    0.667    0.000    0.000    0.000    0.000 
#    0.000    0.000    0.000    0.000    0.000    0.000 
#
# Total GULP energy -167005.738304 kJ/mol
# GULP energy per Si atom -5566.857943 kJ/mol
# Density = 1.857030 g / cm^3
# Si number density = 18.612660 Si / 1000 Ang^3
#
#
#
# Elastic Constant Matrix: (Units=GPa)
#
#
# Indices 1 2 3 4 5 6 
#
# 1 193.0978 28.1076 76.0376 0.0000 0.0000 0.0000
# 2 28.1076 40.9907 50.2311 0.0000 0.0000 0.0000
# 3 76.0376 50.2311 143.9222 -0.0001 0.0000 0.0000
# 4 0.0000 0.0000 -0.0001 -44.1077 0.0000 0.0000
# 5 0.0000 0.0000 0.0000 0.0000 36.4608 0.0000
# 6 0.0000 0.0000 0.0000 0.0000 0.0000 21.5306
#
#
#
# Elastic Compliance Matrix: (Units=1/GPa)
#
#
# Indices 1 2 3 4 5 6 
#
# 1 0.006544 -0.000438 -0.003304 0.000000 0.000000 0.000000
# 2 -0.000438 0.042656 -0.014656 0.000000 0.000000 0.000000
# 3 -0.003304 -0.014656 0.013809 0.000000 0.000000 0.000000
# 4 0.000000 0.000000 0.000000 -0.022672 0.000000 0.000000
# 5 0.000000 0.000000 0.000000 0.000000 0.027427 0.000000
# 6 0.000000 0.000000 0.000000 0.000000 0.000000 0.046446
#
#
# Mechanical properties :
#
#
# Convention : Reuss Voigt Hill
#
# Bulk Modulus (GPa) = 38.15025 76.30703 57.22864
# Shear Modulus (GPa) = 31.30000 17.68571 24.49285
#
# Velocity S-wave (km/s) = 4.10524 3.08587 3.63150
# Velocity P-wave (km/s) = 6.55836 7.33370 6.95684
#
# Compressibility (1/GPa) = 0.02621215
#
# Stress axis : x y z
#
# Youngs Moduli (GPa) = 152.82030 23.44314 72.41482
#
# Poissons Ratio (x) = 0.01026 0.23929
# Poissons Ratio (y) = 0.06689 1.06135
# Poissons Ratio (z) = 0.50498 0.34359
#
# Static dielectric constant tensor:
#      x y z
#    x 1.651330 0.000000 0.000000 
#    y 0.000000 1.646450 0.000000 
#    z 0.000000 0.000000 1.639980 
# 
# From -- ./inp_files/28746.got.cif
#   From: 2010.05.17/outbox.cif.g08.bks.cpg/sg74_15_cif.got.tgz:28746.got - 2010.06.03 17:57:02.
