data_PCOD9539241
_publ_section_title
;
Structure prediction by ZEFSAII (Michael W. Deem and Ramdas Pophale) SiO2 
 PCOD9539241
Probable space group: I M M A
;
_chemical_formula_sum "Si O2"
_cell_formula_units_Z 96
_cell_length_a 22.880312
_cell_length_b 8.784905
_cell_length_c 24.632375
_cell_angle_alpha 90.000000
_cell_angle_beta 90.000000
_cell_angle_gamma 90.000000
_cell_volume 4951.141055
_symmetry_space_group_name_H-M "I M M A"
_symmetry_group_IT_number 74
_symmetry_cell_setting 'orthorhombic'
loop_
_space_group_symop_operation_xyz
x,y,z
-x,1/2-y,z
x,-y,-z
-x,1/2+y,-z
-x,-y,-z
x,1/2+y,-z
-x,y,z
x,1/2-y,z
1/2+x,1/2+y,1/2+z
1/2-x,-y,1/2+z
1/2+x,1/2-y,1/2-z
1/2-x,y,1/2-z
1/2-x,1/2-y,1/2-z
1/2+x,y,1/2-z
1/2-x,1/2+y,1/2+z
1/2+x,-y,1/2+z
loop_
_atom_site_type_symbol
_atom_site_label
_atom_site_fract_x
_atom_site_fract_y
_atom_site_fract_z
Si Si1 0.738419 0.432278 0.163212
Si Si2 0.679436 0.069602 0.942415
Si Si3 0.620374 0.568318 0.777461
Si Si4 0.932489 0.068886 0.393920
Si Si5 0.133285 0.068167 0.832672
Si Si6 0.568500 0.066594 0.557552
O O1 0.743053 0.250000 0.165026
O O2 0.715393 0.488061 0.105057
O O3 0.686720 0.476055 0.205085
O O4 0.801208 0.504781 0.171882
O O5 0.688200 0.250000 0.940943
O O6 0.612065 0.027442 0.929750
O O7 0.695992 0.000000 0.000000
O O8 0.619860 0.750000 0.769056
O O9 0.581543 0.535441 0.830600
O O10 0.601904 0.488291 0.722108
O O11 0.920070 0.250000 0.401616
O O12 0.000000 0.040824 0.405962
O O13 0.134163 0.250000 0.833372
O O14 0.103685 0.015777 0.889027
O O15 0.500000 0.024657 0.563552
O O16 0.571929 0.250000 0.554726
O O17 0.589597 0.000000 0.500000
#
# Coordination Sequence:
#
# PCOD9539241 Si02
#       6
#    16  16  16  16  16  16
#     4  10  21  38  57  78 109 145 181 225 273 320
#     4  11  22  37  57  81 110 144 184 228 275 326
#     4   9  19  35  54  78 109 145 182 221 267 318
#     4   9  19  37  58  80 110 147 186 229 275 322
#     4  11  22  34  54  84 112 140 178 222 269 326
#     4   9  20  39  58  77 105 139 174 216 265 314
#
# _framework density 19.389468999999998
#
# number of rings (size 3 to 8) (size 9 to 14) (size 15 to 20)
#    0.000    2.167    0.000    4.000    0.000    8.667 
#    0.000    1.667    0.000    0.000    0.000    0.000 
#    0.000    0.000    0.000    0.000    0.000    0.000 
#
# Total GULP energy -268055.149584 kJ/mol
# GULP energy per Si atom -5584.482283 kJ/mol
# Density = 1.934534 g / cm^3
# Si number density = 19.389469 Si / 1000 Ang^3
#
#
#
# Elastic Constant Matrix: (Units=GPa)
#
#
# Indices 1 2 3 4 5 6 
#
# 1 10.0887 -3.4212 -5.0046 0.0000 0.0000 0.0000
# 2 -3.4212 18.4544 18.7220 0.0000 0.0000 0.0000
# 3 -5.0046 18.7220 121.8769 0.0000 0.0000 0.0000
# 4 0.0000 0.0000 0.0000 34.4503 0.0000 0.0000
# 5 0.0000 0.0000 0.0000 0.0000 11.0606 0.0000
# 6 0.0000 0.0000 0.0000 0.0000 0.0000 14.9649
#
#
#
# Elastic Compliance Matrix: (Units=1/GPa)
#
#
# Indices 1 2 3 4 5 6 
#
# 1 0.106027 0.018052 0.001581 0.000000 0.000000 0.000000
# 2 0.018052 0.067265 -0.009592 0.000000 0.000000 0.000000
# 3 0.001581 -0.009592 0.009743 0.000000 0.000000 0.000000
# 4 0.000000 0.000000 0.000000 0.029027 0.000000 0.000000
# 5 0.000000 0.000000 0.000000 0.000000 0.090411 0.000000
# 6 0.000000 0.000000 0.000000 0.000000 0.000000 0.066823
#
#
# Mechanical properties :
#
#
# Convention : Reuss Voigt Hill
#
# Bulk Modulus (GPa) = 4.92324 19.00138 11.96231
# Shear Modulus (GPa) = 11.99272 21.43673 16.71472
#
# Velocity S-wave (km/s) = 2.48970 3.32864 2.93926
# Velocity P-wave (km/s) = 3.28777 4.95926 4.20736
#
# Compressibility (1/GPa) = 0.20311810
#
# Stress axis : x y z
#
# Youngs Moduli (GPa) = 9.43159 14.86655 102.63451
#
# Poissons Ratio (x) = -0.26838 -0.16223
# Poissons Ratio (y) = -0.17026 0.98443
# Poissons Ratio (z) = -0.01491 0.14259
#
# Static dielectric constant tensor:
#      x y z
#    x 1.684330 0.000000 0.000000 
#    y 0.000000 1.648390 0.000000 
#    z 0.000000 0.000000 1.598340 
# 
# From -- ./inp_files/61920.got.cif
#   From: 2010.05.17/outbox.cif.g08.bks.cpg/sg74_31_cif.got.tgz:61920.got - 2010.06.03 17:57:02.
