data_PCOD9539814
_publ_section_title
;
Structure prediction by ZEFSAII (Michael W. Deem and Ramdas Pophale) SiO2 
 PCOD9539814
Probable space group: I M M A
;
_chemical_formula_sum "Si O2"
_cell_formula_units_Z 96
_cell_length_a 29.021001
_cell_length_b 9.053307
_cell_length_c 18.992503
_cell_angle_alpha 90.000000
_cell_angle_beta 90.000000
_cell_angle_gamma 90.000000
_cell_volume 4990.014866
_symmetry_space_group_name_H-M "I M M A"
_symmetry_group_IT_number 74
_symmetry_cell_setting 'orthorhombic'
loop_
_space_group_symop_operation_xyz
x,y,z
-x,1/2-y,z
x,-y,-z
-x,1/2+y,-z
-x,-y,-z
x,1/2+y,-z
-x,y,z
x,1/2-y,z
1/2+x,1/2+y,1/2+z
1/2-x,-y,1/2+z
1/2+x,1/2-y,1/2-z
1/2-x,y,1/2-z
1/2-x,1/2-y,1/2-z
1/2+x,y,1/2-z
1/2-x,1/2+y,1/2+z
1/2+x,-y,1/2+z
loop_
_atom_site_type_symbol
_atom_site_label
_atom_site_fract_x
_atom_site_fract_y
_atom_site_fract_z
Si Si1 0.793782 0.582023 0.681288
Si Si2 0.278103 0.072164 0.577301
Si Si3 0.849572 0.571574 0.824029
Si Si4 0.364106 0.087124 0.058933
Si Si5 0.049838 0.075057 0.615670
Si Si6 0.553073 0.426618 0.715988
O O1 0.774387 0.750000 0.684469
O O2 0.759297 0.479126 0.636736
O O3 0.815302 0.538030 0.756814
O O4 0.837794 0.590917 0.631444
O O5 0.278324 0.250000 0.571798
O O6 0.270409 0.000000 0.500000
O O7 0.325655 0.006956 0.609480
O O8 0.850455 0.750000 0.830389
O O9 0.901747 0.511095 0.812943
O O10 0.371994 0.250000 0.032292
O O11 0.410677 0.004313 0.074429
O O12 0.336241 0.000000 0.000000
O O13 0.051878 0.250000 0.604712
O O14 0.054638 0.051674 0.699515
O O15 0.000000 0.018440 0.593912
O O16 0.500000 0.468742 0.693955
O O17 0.557730 0.250000 0.702698
#
# Coordination Sequence:
#
# PCOD9539814 Si02
#       6
#    16  16  16  16  16  16
#     4  10  22  40  60  87 120 156 199 247 296 348
#     4  12  26  43  64  90 121 160 201 246 302 361
#     4  11  22  39  64  94 126 159 199 248 297 354
#     4  11  22  35  51  75 107 150 196 243 297 349
#     4   9  18  33  52  74 104 144 190 242 296 348
#     4   9  18  34  58  89 123 157 197 246 297 351
#
# _framework density 19.238419
#
# number of rings (size 3 to 8) (size 9 to 14) (size 15 to 20)
#    0.000    1.667    1.667    4.500    0.000    7.000 
#    0.000    1.667    0.000    0.500    0.000    0.000 
#    0.000    0.000    0.000    0.000    0.000    0.000 
#
# Total GULP energy -267655.651140 kJ/mol
# GULP energy per Si atom -5576.159399 kJ/mol
# Density = 1.919463 g / cm^3
# Si number density = 19.238419 Si / 1000 Ang^3
#
#
#
# Elastic Constant Matrix: (Units=GPa)
#
#
# Indices 1 2 3 4 5 6 
#
# 1 133.7892 70.7303 60.2277 0.0000 0.0000 0.0000
# 2 70.7303 105.3906 48.9443 0.0000 0.0000 0.0000
# 3 60.2277 48.9443 79.0314 0.0000 0.0000 0.0000
# 4 0.0000 0.0000 0.0000 21.4046 0.0000 0.0000
# 5 0.0000 0.0000 0.0000 0.0000 -19.0046 0.0000
# 6 0.0000 0.0000 0.0000 0.0000 0.0000 20.0565
#
#
#
# Elastic Compliance Matrix: (Units=1/GPa)
#
#
# Indices 1 2 3 4 5 6 
#
# 1 0.013698 -0.006099 -0.006661 0.000000 0.000000 0.000000
# 2 -0.006099 0.016035 -0.005282 0.000000 0.000000 0.000000
# 3 -0.006661 -0.005282 0.021001 0.000000 0.000000 0.000000
# 4 0.000000 0.000000 0.000000 0.046719 0.000000 0.000000
# 5 0.000000 0.000000 0.000000 0.000000 -0.052619 0.000000
# 6 0.000000 0.000000 0.000000 0.000000 0.000000 0.049859
#
#
# Mechanical properties :
#
#
# Convention : Reuss Voigt Hill
#
# Bulk Modulus (GPa) = 68.27021 75.33509 71.80265
# Shear Modulus (GPa) = 36.85639 13.71191 25.28415
#
# Velocity S-wave (km/s) = 4.38170 2.67261 3.62920
# Velocity P-wave (km/s) = 7.82065 6.98337 7.41384
#
# Compressibility (1/GPa) = 0.01464768
#
# Stress axis : x y z
#
# Youngs Moduli (GPa) = 73.00506 62.36315 47.61658
#
# Poissons Ratio (x) = 0.38037 0.31719
# Poissons Ratio (y) = 0.44528 0.25153
# Poissons Ratio (z) = 0.48631 0.32943
#
# Static dielectric constant tensor:
#      x y z
#    x 1.696180 0.000000 0.000000 
#    y 0.000000 1.675230 0.000000 
#    z 0.000000 0.000000 1.643440 
# 
# From -- ./inp_files/55088.got.cif
#   From: 2010.05.17/outbox.cif.g08.bks.cpg/sg74_28_cif.got.tgz:55088.got - 2010.06.03 17:57:02.
