data_PCOD9539092
_publ_section_title
;
Structure prediction by ZEFSAII (Michael W. Deem and Ramdas Pophale) SiO2 
 PCOD9539092
Probable space group: I M M A
;
_chemical_formula_sum "Si O2"
_cell_formula_units_Z 104
_cell_length_a 22.061447
_cell_length_b 8.628650
_cell_length_c 29.572249
_cell_angle_alpha 90.000000
_cell_angle_beta 90.000000
_cell_angle_gamma 90.000000
_cell_volume 5629.388243
_symmetry_space_group_name_H-M "I M M A"
_symmetry_group_IT_number 74
_symmetry_cell_setting 'orthorhombic'
loop_
_space_group_symop_operation_xyz
x,y,z
-x,1/2-y,z
x,-y,-z
-x,1/2+y,-z
-x,-y,-z
x,1/2+y,-z
-x,y,z
x,1/2-y,z
1/2+x,1/2+y,1/2+z
1/2-x,-y,1/2+z
1/2+x,1/2-y,1/2-z
1/2-x,y,1/2-z
1/2-x,1/2-y,1/2-z
1/2+x,y,1/2-z
1/2-x,1/2+y,1/2+z
1/2+x,-y,1/2+z
loop_
_atom_site_type_symbol
_atom_site_label
_atom_site_fract_x
_atom_site_fract_y
_atom_site_fract_z
Si Si1 0.500000 0.936235 0.551765
Si Si2 0.181721 0.064828 0.706831
Si Si3 0.150240 0.069345 0.383084
Si Si4 0.877677 0.437422 0.902016
Si Si5 0.572320 0.925012 0.046204
Si Si6 0.741392 0.437034 0.450068
Si Si7 0.678790 0.438546 0.693414
O O1 0.500000 0.750000 0.549987
O O2 0.500000 0.000000 0.500000
O O3 0.440305 0.995286 0.578523
O O4 0.185162 0.250000 0.709554
O O5 0.250392 0.011724 0.694272
O O6 0.158850 0.011643 0.756085
O O7 0.143376 0.015049 0.664288
O O8 0.158626 0.250000 0.374828
O O9 0.207572 0.014622 0.413451
O O10 0.092784 0.033387 0.413566
O O11 0.880703 0.250000 0.902920
O O12 0.822620 0.495392 0.933422
O O13 0.858908 0.488402 0.850655
O O14 0.500000 0.917793 0.043698
O O15 0.595661 0.750000 0.051973
O O16 0.595441 0.000000 0.000000
O O17 0.755086 0.500000 0.500000
O O18 0.739417 0.250000 0.451181
O O19 0.678118 0.250000 0.691714
#
# Coordination Sequence:
#
# PCOD9539092 Si02
#       7
#     8  16  16  16  16  16  16
#     4  12  26  44  62  84 114 152 194 242 291 350
#     4   9  16  32  56  84 114 146 183 223 270 326
#     4  11  22  34  52  82 115 148 184 225 276 329
#     4  11  21  38  62  86 111 146 189 235 285 338
#     4  10  21  37  57  79 105 142 186 228 273 326
#     4  11  23  36  51  78 114 148 183 224 276 332
#     4   8  16  31  57  86 111 142 182 224 271 330
#
# _framework density 18.474475000000002
#
# number of rings (size 3 to 8) (size 9 to 14) (size 15 to 20)
#    0.000    1.846    1.538    4.385    0.000    4.000 
#    0.000    3.077    1.692    0.000    0.000    0.000 
#    0.000    0.000    0.000    0.000    0.000    0.000 
#
# Total GULP energy -290046.094127 kJ/mol
# GULP energy per Si atom -5577.809502 kJ/mol
# Density = 1.843243 g / cm^3
# Si number density = 18.474475 Si / 1000 Ang^3
#
#
#
# Elastic Constant Matrix: (Units=GPa)
#
#
# Indices 1 2 3 4 5 6 
#
# 1 52.9290 22.3408 31.8191 0.0000 0.0000 0.0000
# 2 22.3408 41.0409 21.1117 0.0000 0.0000 0.0000
# 3 31.8191 21.1117 154.6950 0.0000 0.0000 0.0000
# 4 0.0000 0.0000 0.0000 23.1333 0.0000 0.0000
# 5 0.0000 0.0000 0.0000 0.0000 6.2233 0.0000
# 6 0.0000 0.0000 0.0000 0.0000 0.0000 42.5478
#
#
#
# Elastic Compliance Matrix: (Units=1/GPa)
#
#
# Indices 1 2 3 4 5 6 
#
# 1 0.026389 -0.012446 -0.003729 0.000000 0.000000 0.000000
# 2 -0.012446 0.032076 -0.001817 0.000000 0.000000 0.000000
# 3 -0.003729 -0.001817 0.007479 0.000000 0.000000 0.000000
# 4 0.000000 0.000000 0.000000 0.043228 0.000000 0.000000
# 5 0.000000 0.000000 0.000000 0.000000 0.160686 0.000000
# 6 0.000000 0.000000 0.000000 0.000000 0.000000 0.023503
#
#
# Mechanical properties :
#
#
# Convention : Reuss Voigt Hill
#
# Bulk Modulus (GPa) = 33.38011 44.35645 38.86828
# Shear Modulus (GPa) = 14.73477 25.94044 20.33760
#
# Velocity S-wave (km/s) = 2.82720 3.75123 3.32150
# Velocity P-wave (km/s) = 5.36329 6.54400 5.98284
#
# Compressibility (1/GPa) = 0.02995796
#
# Stress axis : x y z
#
# Youngs Moduli (GPa) = 37.89510 31.17587 133.69994
#
# Poissons Ratio (x) = 0.38803 0.49860
# Poissons Ratio (y) = 0.47166 0.24299
# Poissons Ratio (z) = 0.14132 0.05666
#
# Static dielectric constant tensor:
#      x y z
#    x 1.641480 0.000000 0.000000 
#    y 0.000000 1.646500 0.000000 
#    z 0.000000 0.000000 1.650210 
# 
# From -- ./inp_files/68265.got.cif
#   From: 2010.05.17/outbox.cif.g08.bks.cpg/sg74_35_cif.got.tgz:68265.got - 2010.06.03 17:57:02.
