data_PCOD9539846
_publ_section_title
;
Structure prediction by ZEFSAII (Michael W. Deem and Ramdas Pophale) SiO2 
 PCOD9539846
Probable space group: I M M A
;
_chemical_formula_sum "Si O2"
_cell_formula_units_Z 64
_cell_length_a 10.823133
_cell_length_b 27.285431
_cell_length_c 9.339573
_cell_angle_alpha 90.000000
_cell_angle_beta 90.000000
_cell_angle_gamma 90.000000
_cell_volume 2758.105248
_symmetry_space_group_name_H-M "I M M A"
_symmetry_group_IT_number 74
_symmetry_cell_setting 'orthorhombic'
loop_
_space_group_symop_operation_xyz
x,y,z
-x,1/2-y,z
x,-y,-z
-x,1/2+y,-z
-x,-y,-z
x,1/2+y,-z
-x,y,z
x,1/2-y,z
1/2+x,1/2+y,1/2+z
1/2-x,-y,1/2+z
1/2+x,1/2-y,1/2-z
1/2-x,y,1/2-z
1/2-x,1/2-y,1/2-z
1/2+x,y,1/2-z
1/2-x,1/2+y,1/2+z
1/2+x,-y,1/2+z
loop_
_atom_site_type_symbol
_atom_site_label
_atom_site_fract_x
_atom_site_fract_y
_atom_site_fract_z
Si Si1 0.283896 0.802969 0.416003
Si Si2 0.287905 0.457110 0.090570
Si Si3 0.134155 0.152013 0.352953
Si Si4 0.135622 0.592300 0.138182
O O1 0.335005 0.750000 0.461260
O O2 0.250000 0.799721 0.250000
O O3 0.162195 0.815734 0.507575
O O4 0.363109 0.852418 0.424976
O O5 0.250000 0.472886 0.250000
O O6 0.358801 0.405600 0.106272
O O7 0.351140 0.500000 0.000000
O O8 0.169087 0.442731 0.993963
O O9 0.250000 0.161319 0.250000
O O10 0.000000 0.162813 0.291066
O O11 0.250000 0.589301 0.250000
O O12 0.000000 0.581968 0.199867
#
# Coordination Sequence:
#
# PCOD9539846 Si02
#       4
#    16  16  16  16
#     4   9  20  38  61  90 124 162 205 254 308 365
#     4  10  22  40  63  92 125 164 210 263 319 377
#     4  10  23  43  66  93 127 167 212 262 316 378
#     4  10  22  41  64  92 127 166 211 262 316 377
#
# _framework density 23.204333999999999
#
# number of rings (size 3 to 8) (size 9 to 14) (size 15 to 20)
#    0.000    2.250    0.000    0.750    0.000   21.500 
#    0.000   10.000    0.000    0.000    0.000    0.000 
#    0.000    0.000    0.000    0.000    0.000    0.000 
#
# Total GULP energy -178593.877882 kJ/mol
# GULP energy per Si atom -5581.058684 kJ/mol
# Density = 2.315152 g / cm^3
# Si number density = 23.204334 Si / 1000 Ang^3
#
#
#
# Elastic Constant Matrix: (Units=GPa)
#
#
# Indices 1 2 3 4 5 6 
#
# 1 181.1945 15.5095 55.0903 -0.0012 0.0000 0.0000
# 2 15.5095 111.6344 48.3234 0.0005 0.0000 0.0000
# 3 55.0903 48.3234 127.1100 -0.0025 -0.0007 -0.0001
# 4 -0.0012 0.0005 -0.0025 107.6521 -0.0006 -0.0001
# 5 0.0000 0.0000 -0.0007 -0.0006 23.4003 0.0000
# 6 0.0000 0.0000 -0.0001 -0.0001 0.0000 -10.9773
#
#
#
# Elastic Compliance Matrix: (Units=1/GPa)
#
#
# Indices 1 2 3 4 5 6 
#
# 1 0.006369 0.000371 -0.002902 0.000000 0.000000 0.000000
# 2 0.000371 0.010744 -0.004245 0.000000 0.000000 0.000000
# 3 -0.002902 -0.004245 0.010739 0.000000 0.000000 0.000000
# 4 0.000000 0.000000 0.000000 0.009289 0.000000 0.000000
# 5 0.000000 0.000000 0.000000 0.000000 0.042735 0.000000
# 6 0.000000 0.000000 0.000000 0.000000 0.000000 -0.091097
#
#
# Mechanical properties :
#
#
# Convention : Reuss Voigt Hill
#
# Bulk Modulus (GPa) = 69.92844 73.08727 71.50786
# Shear Modulus (GPa) = 704.51209 44.08272 374.29741
#
# Velocity S-wave (km/s) = 17.44338 4.36335 12.71437
# Velocity P-wave (km/s) = 20.87814 7.54657 15.69789
#
# Compressibility (1/GPa) = 0.01430033
#
# Stress axis : x y z
#
# Youngs Moduli (GPa) = 157.00136 93.07558 93.12076
#
# Poissons Ratio (x) = -0.03454 0.27020
# Poissons Ratio (y) = -0.05827 0.39533
# Poissons Ratio (z) = 0.45556 0.39514
#
# Static dielectric constant tensor:
#      x y z
#    x 1.697610 0.000000 0.000010 
#    y 0.000000 1.917180 0.000000 
#    z 0.000010 0.000000 1.894380 
# 
# From -- ./inp_files/7332.got.cif
#   From: 2010.05.17/outbox.cif.g08.bks.cpg/sg74_4_cif.got.tgz:7332.got - 2010.06.03 17:57:02.
