data_PCOD9539199
_publ_section_title
;
Structure prediction by ZEFSAII (Michael W. Deem and Ramdas Pophale) SiO2 
 PCOD9539199
Probable space group: I M M A
;
_chemical_formula_sum "Si O2"
_cell_formula_units_Z 80
_cell_length_a 9.850947
_cell_length_b 26.862621
_cell_length_c 17.242951
_cell_angle_alpha 90.000000
_cell_angle_beta 90.000000
_cell_angle_gamma 90.000000
_cell_volume 4562.868589
_symmetry_space_group_name_H-M "I M M A"
_symmetry_group_IT_number 74
_symmetry_cell_setting 'orthorhombic'
loop_
_space_group_symop_operation_xyz
x,y,z
-x,1/2-y,z
x,-y,-z
-x,1/2+y,-z
-x,-y,-z
x,1/2+y,-z
-x,y,z
x,1/2-y,z
1/2+x,1/2+y,1/2+z
1/2-x,-y,1/2+z
1/2+x,1/2-y,1/2-z
1/2-x,y,1/2-z
1/2-x,1/2-y,1/2-z
1/2+x,y,1/2-z
1/2-x,1/2+y,1/2+z
1/2+x,-y,1/2+z
loop_
_atom_site_type_symbol
_atom_site_label
_atom_site_fract_x
_atom_site_fract_y
_atom_site_fract_z
Si Si1 0.737246 0.151654 0.561942
Si Si2 0.500000 0.309215 0.668745
Si Si3 0.340623 0.443890 0.469439
Si Si4 0.159418 0.194331 0.406441
Si Si5 0.662523 0.090892 0.173926
Si Si6 0.500000 0.689330 0.148114
O O1 0.625685 0.169797 0.621610
O O2 0.706722 0.095607 0.534600
O O3 0.748836 0.182291 0.481241
O O4 0.873981 0.163533 0.607026
O O5 0.500000 0.250000 0.663163
O O6 0.500000 0.320766 0.759926
O O7 0.333510 0.500000 0.500000
O O8 0.500000 0.433209 0.449363
O O9 0.237996 0.435905 0.397823
O O10 0.186332 0.250000 0.377398
O O11 0.176105 0.149881 0.345525
O O12 0.000000 0.192329 0.431044
O O13 0.500000 0.079952 0.179451
O O14 0.750000 0.079204 0.250000
O O15 0.500000 0.750000 0.136917
#
# Coordination Sequence:
#
# PCOD9539199 Si02
#       6
#    16   8  16  16  16   8
#     4  11  20  36  57  84 113 155 197 242 292 357
#     4  11  22  34  53  84 119 157 202 243 292 350
#     4  10  22  42  66  86 113 151 196 253 306 347
#     4   9  17  31  54  81 111 152 193 229 275 335
#     4  10  21  37  60  88 120 153 190 236 287 349
#     4  11  22  36  55  80 123 167 194 239 298 352
#
# _framework density 17.532830000000001
#
# number of rings (size 3 to 8) (size 9 to 14) (size 15 to 20)
#    0.000    1.800    2.000    3.000    1.400    2.400 
#    0.000    2.000    0.000    0.000    0.000    0.000 
#    0.000    0.000    0.000    0.000    0.000    0.000 
#
# Total GULP energy -223002.619138 kJ/mol
# GULP energy per Si atom -5575.065478 kJ/mol
# Density = 1.749292 g / cm^3
# Si number density = 17.532830 Si / 1000 Ang^3
#
#
#
# Elastic Constant Matrix: (Units=GPa)
#
#
# Indices 1 2 3 4 5 6 
#
# 1 157.3428 44.5871 66.1870 0.0000 0.0000 0.0000
# 2 44.5871 85.5226 35.4742 0.0000 0.0000 0.0000
# 3 66.1870 35.4742 103.2115 0.0001 0.0000 0.0000
# 4 0.0000 0.0000 0.0001 7.8545 0.0000 0.0000
# 5 0.0000 0.0000 0.0000 0.0000 0.9076 0.0000
# 6 0.0000 0.0000 0.0000 0.0000 0.0000 22.4118
#
#
#
# Elastic Compliance Matrix: (Units=1/GPa)
#
#
# Indices 1 2 3 4 5 6 
#
# 1 0.009226 -0.002747 -0.004972 0.000000 0.000000 0.000000
# 2 -0.002747 0.014455 -0.003206 0.000000 0.000000 0.000000
# 3 -0.004972 -0.003206 0.013979 0.000000 -0.000001 0.000000
# 4 0.000000 0.000000 0.000000 0.127316 -0.000004 0.000000
# 5 0.000000 0.000000 -0.000001 -0.000004 1.101833 0.000000
# 6 0.000000 0.000000 0.000000 0.000000 0.000000 0.044619
#
#
# Mechanical properties :
#
#
# Convention : Reuss Voigt Hill
#
# Bulk Modulus (GPa) = 63.25687 70.95263 67.10475
# Shear Modulus (GPa) = 3.73539 19.55669 11.64604
#
# Velocity S-wave (km/s) = 1.46121 3.34343 2.58008
# Velocity P-wave (km/s) = 6.24534 7.44721 6.87260
#
# Compressibility (1/GPa) = 0.01580856
#
# Stress axis : x y z
#
# Youngs Moduli (GPa) = 108.39505 69.17928 71.53489
#
# Poissons Ratio (x) = 0.19007 0.35566
# Poissons Ratio (y) = 0.29781 0.22937
# Poissons Ratio (z) = 0.53892 0.22182
#
# Static dielectric constant tensor:
#      x y z
#    x 1.561720 0.000000 0.000000 
#    y 0.000000 1.582710 0.000000 
#    z 0.000000 0.000000 1.582630 
# 
# From -- ./inp_files/39803.got.cif
#   From: 2010.05.17/outbox.cif.g08.bks.cpg/sg74_20_cif.got.tgz:39803.got - 2010.06.03 17:57:02.
