data_PCOD9539582
_publ_section_title
;
Structure prediction by ZEFSAII (Michael W. Deem and Ramdas Pophale) SiO2 
 PCOD9539582
Probable space group: I M M A
;
_chemical_formula_sum "Si O2"
_cell_formula_units_Z 112
_cell_length_a 28.062998
_cell_length_b 15.165068
_cell_length_c 11.863591
_cell_angle_alpha 90.000000
_cell_angle_beta 90.000000
_cell_angle_gamma 90.000000
_cell_volume 5048.874705
_symmetry_space_group_name_H-M "I M M A"
_symmetry_group_IT_number 74
_symmetry_cell_setting 'orthorhombic'
loop_
_space_group_symop_operation_xyz
x,y,z
-x,1/2-y,z
x,-y,-z
-x,1/2+y,-z
-x,-y,-z
x,1/2+y,-z
-x,y,z
x,1/2-y,z
1/2+x,1/2+y,1/2+z
1/2-x,-y,1/2+z
1/2+x,1/2-y,1/2-z
1/2-x,y,1/2-z
1/2-x,1/2-y,1/2-z
1/2+x,y,1/2-z
1/2-x,1/2+y,1/2+z
1/2+x,-y,1/2+z
loop_
_atom_site_type_symbol
_atom_site_label
_atom_site_fract_x
_atom_site_fract_y
_atom_site_fract_z
Si Si1 0.128714 0.652613 0.976899
Si Si2 0.051213 0.849273 0.612178
Si Si3 0.312256 0.531699 0.155477
Si Si4 0.709501 0.424256 0.588331
Si Si5 0.581819 0.925549 0.093482
Si Si6 0.944488 0.355975 0.835130
Si Si7 0.149347 0.356534 0.279250
O O1 0.108652 0.750000 0.955876
O O2 0.179226 0.655787 0.040893
O O3 0.090787 0.611663 0.064537
O O4 0.141323 0.620896 0.851718
O O5 0.049285 0.750000 0.657118
O O6 0.061006 0.845303 0.478990
O O7 0.099199 0.885696 0.665953
O O8 0.000000 0.891054 0.638159
O O9 0.307926 0.560229 0.285114
O O10 0.266485 0.572234 0.094151
O O11 0.361117 0.566914 0.102706
O O12 0.313071 0.424255 0.164699
O O13 0.695154 0.500000 0.500000
O O14 0.563981 0.912064 0.220713
O O15 0.566197 0.000000 0.000000
O O16 0.934441 0.250000 0.814530
O O17 0.000000 0.363073 0.867203
O O18 0.158074 0.250000 0.293099
#
# Coordination Sequence:
#
# PCOD9539582 Si02
#       7
#    16  16  16  16  16  16  16
#     4  10  21  41  67  94 124 160 204 257 311 367
#     4  10  22  39  59  87 125 167 207 252 307 365
#     4  11  23  40  61  93 118 164 204 250 312 368
#     4  11  22  40  66  85 124 161 200 256 313 364
#     4  12  22  37  60  87 126 161 210 253 303 361
#     4  10  22  40  62  89 123 165 209 252 305 366
#     4  10  21  41  65  91 123 159 203 256 310 369
#
# _framework density 22.183160000000001
#
# number of rings (size 3 to 8) (size 9 to 14) (size 15 to 20)
#    0.000    1.429    4.286    1.286    0.000    2.857 
#    0.000    7.857    0.000    1.286    0.000    0.000 
#    0.000    0.000    0.000    0.000    0.000    0.000 
#
# Total GULP energy -311792.216716 kJ/mol
# GULP energy per Si atom -5567.718156 kJ/mol
# Density = 2.213267 g / cm^3
# Si number density = 22.183160 Si / 1000 Ang^3
#
#
#
# Elastic Constant Matrix: (Units=GPa)
#
#
# Indices 1 2 3 4 5 6 
#
# 1 108.6750 23.3029 25.0315 0.0000 0.0000 0.0000
# 2 23.3029 45.7175 3.2220 0.0000 0.0000 0.0000
# 3 25.0315 3.2220 93.6764 0.0000 0.0000 0.0000
# 4 0.0000 0.0000 0.0000 19.2705 0.0000 0.0000
# 5 0.0000 0.0000 0.0000 0.0000 22.1894 0.0000
# 6 0.0000 0.0000 0.0000 0.0000 0.0000 21.4016
#
#
#
# Elastic Compliance Matrix: (Units=1/GPa)
#
#
# Indices 1 2 3 4 5 6 
#
# 1 0.010996 -0.005411 -0.002752 0.000000 0.000000 0.000000
# 2 -0.005411 0.024589 0.000600 0.000000 0.000000 0.000000
# 3 -0.002752 0.000600 0.011390 0.000000 0.000000 0.000000
# 4 0.000000 0.000000 0.000000 0.051893 0.000000 0.000000
# 5 0.000000 0.000000 0.000000 0.000000 0.045067 0.000000
# 6 0.000000 0.000000 0.000000 0.000000 0.000000 0.046725
#
#
# Mechanical properties :
#
#
# Convention : Reuss Voigt Hill
#
# Bulk Modulus (GPa) = 31.39800 39.02017 35.20908
# Shear Modulus (GPa) = 23.10517 25.67313 24.38915
#
# Velocity S-wave (km/s) = 3.23083 3.40564 3.31938
# Velocity P-wave (km/s) = 5.30117 5.75262 5.53150
#
# Compressibility (1/GPa) = 0.03184916
#
# Stress axis : x y z
#
# Youngs Moduli (GPa) = 90.94323 40.66833 87.79776
#
# Poissons Ratio (x) = 0.22005 0.24163
# Poissons Ratio (y) = 0.49208 -0.05269
# Poissons Ratio (z) = 0.25029 -0.02440
#
# Static dielectric constant tensor:
#      x y z
#    x 1.842510 0.000000 0.000000 
#    y 0.000000 2.008990 0.000000 
#    z 0.000000 0.000000 1.820600 
# 
# From -- ./inp_files/27193.got.cif
#   From: 2010.05.17/outbox.cif.g08.bks.cpg/sg74_14_cif.got.tgz:27193.got - 2010.06.03 17:57:02.
