data_PCOD9539634
_publ_section_title
;
Structure prediction by ZEFSAII (Michael W. Deem and Ramdas Pophale) SiO2 
 PCOD9539634
Probable space group: I M M A
;
_chemical_formula_sum "Si O2"
_cell_formula_units_Z 112
_cell_length_a 29.186053
_cell_length_b 14.641967
_cell_length_c 15.068062
_cell_angle_alpha 90.000000
_cell_angle_beta 90.000000
_cell_angle_gamma 90.000000
_cell_volume 6439.204072
_symmetry_space_group_name_H-M "I M M A"
_symmetry_group_IT_number 74
_symmetry_cell_setting 'orthorhombic'
loop_
_space_group_symop_operation_xyz
x,y,z
-x,1/2-y,z
x,-y,-z
-x,1/2+y,-z
-x,-y,-z
x,1/2+y,-z
-x,y,z
x,1/2-y,z
1/2+x,1/2+y,1/2+z
1/2-x,-y,1/2+z
1/2+x,1/2-y,1/2-z
1/2-x,y,1/2-z
1/2-x,1/2-y,1/2-z
1/2+x,y,1/2-z
1/2-x,1/2+y,1/2+z
1/2+x,-y,1/2+z
loop_
_atom_site_type_symbol
_atom_site_label
_atom_site_fract_x
_atom_site_fract_y
_atom_site_fract_z
Si Si1 0.813285 0.608982 0.484768
Si Si2 0.319874 0.850893 0.330361
Si Si3 0.946261 0.487226 0.394033
Si Si4 0.209107 0.108763 0.012587
Si Si5 0.630784 0.146656 0.159897
Si Si6 0.298282 0.559027 0.707194
Si Si7 0.383517 0.852171 0.170747
O O1 0.812933 0.500000 0.500000
O O2 0.760765 0.641076 0.490091
O O3 0.841948 0.647570 0.566741
O O4 0.839494 0.629635 0.393361
O O5 0.299310 0.750000 0.307438
O O6 0.323829 0.852550 0.436932
O O7 0.365451 0.856166 0.271264
O O8 0.296055 0.948773 0.308970
O O9 0.940148 0.500000 0.500000
O O10 0.917613 0.400333 0.360665
O O11 0.921775 0.574104 0.350093
O O12 0.000000 0.481171 0.375103
O O13 0.197027 0.115799 0.115768
O O14 0.209725 0.000000 0.000000
O O15 0.626790 0.250000 0.192950
O O16 0.660729 0.084960 0.226826
O O17 0.250000 0.585673 0.750000
O O18 0.399826 0.750000 0.150906
#
# Coordination Sequence:
#
# PCOD9539634 Si02
#       7
#    16  16  16  16  16  16  16
#     4  11  18  34  53  75 116 157 191 232 277 328
#     4  10  22  35  55  81 110 149 193 240 283 330
#     4  11  23  40  61  83 113 148 185 237 292 345
#     4   9  21  34  52  79 113 155 196 236 272 323
#     4  12  23  37  57  81 112 155 195 233 279 335
#     4  11  21  39  56  79 117 157 196 233 280 334
#     4  11  21  35  57  83 111 148 187 231 290 349
#
# _framework density 17.393453999999998
#
# number of rings (size 3 to 8) (size 9 to 14) (size 15 to 20)
#    0.000    1.286    5.714    0.429    4.000    2.857 
#    0.000    1.429    0.000    0.000    0.000    2.000 
#    0.000    2.286    0.000    0.000    0.000    0.000 
#
# Total GULP energy -312324.476025 kJ/mol
# GULP energy per Si atom -5577.222786 kJ/mol
# Density = 1.735387 g / cm^3
# Si number density = 17.393454 Si / 1000 Ang^3
#
#
#
# Elastic Constant Matrix: (Units=GPa)
#
#
# Indices 1 2 3 4 5 6 
#
# 1 84.5656 26.4604 57.7047 0.0000 0.0000 0.0000
# 2 26.4604 106.0346 31.4470 0.0000 0.0000 0.0000
# 3 57.7047 31.4470 110.3386 0.0000 0.0000 0.0000
# 4 0.0000 0.0000 0.0000 17.0893 0.0000 0.0000
# 5 0.0000 0.0000 0.0000 0.0000 10.1655 0.0000
# 6 0.0000 0.0000 0.0000 0.0000 0.0000 -6.9259
#
#
#
# Elastic Compliance Matrix: (Units=1/GPa)
#
#
# Indices 1 2 3 4 5 6 
#
# 1 0.018743 -0.001934 -0.009251 0.000000 0.000000 0.000000
# 2 -0.001934 0.010501 -0.001982 0.000000 0.000000 0.000000
# 3 -0.009251 -0.001982 0.014466 0.000000 0.000000 0.000000
# 4 0.000000 0.000000 0.000000 0.058516 0.000000 0.000000
# 5 0.000000 0.000000 0.000000 0.000000 0.098372 0.000000
# 6 0.000000 0.000000 0.000000 0.000000 0.000000 -0.144386
#
#
# Mechanical properties :
#
#
# Convention : Reuss Voigt Hill
#
# Bulk Modulus (GPa) = 57.54631 59.12920 58.33776
# Shear Modulus (GPa) = 56.60185 16.42090 36.51138
#
# Velocity S-wave (km/s) = 5.71075 3.07593 4.58661
# Velocity P-wave (km/s) = 8.75445 6.83257 7.85253
#
# Compressibility (1/GPa) = 0.01737731
#
# Stress axis : x y z
#
# Youngs Moduli (GPa) = 53.35419 95.22810 69.12840
#
# Poissons Ratio (x) = 0.18413 0.63950
# Poissons Ratio (y) = 0.10316 0.13699
# Poissons Ratio (z) = 0.49358 0.18871
#
# Static dielectric constant tensor:
#      x y z
#    x 1.550150 0.000000 0.000000 
#    y 0.000000 1.641700 0.000000 
#    z 0.000000 0.000000 1.614920 
# 
# From -- ./inp_files/37411.got.cif
#   From: 2010.05.17/outbox.cif.g08.bks.cpg/sg74_19_cif.got.tgz:37411.got - 2010.06.03 17:57:02.
