data_PCOD9539424
_publ_section_title
;
Structure prediction by ZEFSAII (Michael W. Deem and Ramdas Pophale) SiO2 
 PCOD9539424
Probable space group: I M M A
;
_chemical_formula_sum "Si O2"
_cell_formula_units_Z 104
_cell_length_a 26.778803
_cell_length_b 8.163137
_cell_length_c 22.133584
_cell_angle_alpha 90.000000
_cell_angle_beta 90.000000
_cell_angle_gamma 90.000000
_cell_volume 4838.380161
_symmetry_space_group_name_H-M "I M M A"
_symmetry_group_IT_number 74
_symmetry_cell_setting 'orthorhombic'
loop_
_space_group_symop_operation_xyz
x,y,z
-x,1/2-y,z
x,-y,-z
-x,1/2+y,-z
-x,-y,-z
x,1/2+y,-z
-x,y,z
x,1/2-y,z
1/2+x,1/2+y,1/2+z
1/2-x,-y,1/2+z
1/2+x,1/2-y,1/2-z
1/2-x,y,1/2-z
1/2-x,1/2-y,1/2-z
1/2+x,y,1/2-z
1/2-x,1/2+y,1/2+z
1/2+x,-y,1/2+z
loop_
_atom_site_type_symbol
_atom_site_label
_atom_site_fract_x
_atom_site_fract_y
_atom_site_fract_z
Si Si1 0.206464 0.056821 0.563605
Si Si2 0.893230 0.553361 0.385046
Si Si3 0.057149 0.052254 0.152933
Si Si4 0.639113 0.448109 0.247141
Si Si5 0.863432 0.558971 0.068059
Si Si6 0.000000 0.551557 0.430310
Si Si7 0.782674 0.561260 0.839603
O O1 0.203665 0.250000 0.559348
O O2 0.150515 0.986994 0.571429
O O3 0.229594 0.000000 0.500000
O O4 0.237088 0.016909 0.624249
O O5 0.894967 0.750000 0.391880
O O6 0.874321 0.514423 0.318038
O O7 0.948712 0.490910 0.399466
O O8 0.059313 0.250000 0.146419
O O9 0.093513 0.006713 0.208247
O O10 0.000000 0.005124 0.163295
O O11 0.081308 0.970717 0.094084
O O12 0.641707 0.250000 0.244822
O O13 0.691032 0.505374 0.278600
O O14 0.849558 0.750000 0.073383
O O15 0.827389 0.454462 0.111384
O O16 0.859385 0.500000 0.000000
O O17 0.000000 0.500000 0.500000
O O18 0.000000 0.750000 0.426964
O O19 0.769603 0.750000 0.828758
#
# Coordination Sequence:
#
# PCOD9539424 Si02
#       7
#    16  16  16  16  16   8  16
#     4  11  23  39  60  88 119 155 197 244 296 353
#     4  10  23  40  60  88 123 157 194 244 300 353
#     4   9  19  36  55  77 109 147 190 243 293 346
#     4   9  20  37  59  86 115 151 196 239 288 347
#     4  11  21  34  53  78 109 147 192 239 292 352
#     4  10  22  42  64  90 122 160 201 246 299 354
#     4  10  21  39  60  84 116 154 193 240 291 348
#
# _framework density 21.494796999999998
#
# number of rings (size 3 to 8) (size 9 to 14) (size 15 to 20)
#    0.000    2.000    0.000    4.154    1.077    6.154 
#    0.000    3.077    0.000    0.000    0.000    0.000 
#    0.000    0.000    0.000    0.000    0.000    0.000 
#
# Total GULP energy -290412.584541 kJ/mol
# GULP energy per Si atom -5584.857395 kJ/mol
# Density = 2.144587 g / cm^3
# Si number density = 21.494797 Si / 1000 Ang^3
#
#
#
# Elastic Constant Matrix: (Units=GPa)
#
#
# Indices 1 2 3 4 5 6 
#
# 1 141.2006 9.1977 45.1609 0.0000 0.0000 0.0000
# 2 9.1977 20.6362 -4.1011 0.0000 0.0000 0.0000
# 3 45.1609 -4.1011 113.4940 0.0000 0.0000 0.0000
# 4 0.0000 0.0000 0.0000 29.9083 0.0000 0.0000
# 5 0.0000 0.0000 0.0000 0.0000 21.1751 0.0000
# 6 0.0000 0.0000 0.0000 0.0000 0.0000 34.2119
#
#
#
# Elastic Compliance Matrix: (Units=1/GPa)
#
#
# Indices 1 2 3 4 5 6 
#
# 1 0.008510 -0.004498 -0.003549 0.000000 0.000000 0.000000
# 2 -0.004498 0.051187 0.003640 0.000000 0.000000 0.000000
# 3 -0.003549 0.003640 0.010355 0.000000 0.000000 0.000000
# 4 0.000000 0.000000 0.000000 0.033436 0.000000 0.000000
# 5 0.000000 0.000000 0.000000 0.000000 0.047225 0.000000
# 6 0.000000 0.000000 0.000000 0.000000 0.000000 0.029230
#
#
# Mechanical properties :
#
#
# Convention : Reuss Voigt Hill
#
# Bulk Modulus (GPa) = 16.33018 41.76065 29.04542
# Shear Modulus (GPa) = 23.90409 32.06396 27.98402
#
# Velocity S-wave (km/s) = 3.33841 3.86645 3.61210
# Velocity P-wave (km/s) = 4.74065 6.27718 5.56223
#
# Compressibility (1/GPa) = 0.06123630
#
# Stress axis : x y z
#
# Youngs Moduli (GPa) = 117.50614 19.53634 96.57447
#
# Poissons Ratio (x) = 0.08788 0.34273
# Poissons Ratio (y) = 0.52858 -0.35149
# Poissons Ratio (z) = 0.41701 -0.07110
#
# Static dielectric constant tensor:
#      x y z
#    x 1.827470 0.000000 0.000000 
#    y 0.000000 1.765680 0.000000 
#    z 0.000000 0.000000 1.762470 
# 
# From -- ./inp_files/55270.got.cif
#   From: 2010.05.17/outbox.cif.g08.bks.cpg/sg74_28_cif.got.tgz:55270.got - 2010.06.03 17:57:02.
