data_PCOD9539056
_publ_section_title
;
Structure prediction by ZEFSAII (Michael W. Deem and Ramdas Pophale) SiO2 
 PCOD9539056
Probable space group: I M M A
;
_chemical_formula_sum "Si O2"
_cell_formula_units_Z 96
_cell_length_a 29.350939
_cell_length_b 8.848572
_cell_length_c 20.554784
_cell_angle_alpha 90.000000
_cell_angle_beta 90.000000
_cell_angle_gamma 90.000000
_cell_volume 5338.363055
_symmetry_space_group_name_H-M "I M M A"
_symmetry_group_IT_number 74
_symmetry_cell_setting 'orthorhombic'
loop_
_space_group_symop_operation_xyz
x,y,z
-x,1/2-y,z
x,-y,-z
-x,1/2+y,-z
-x,-y,-z
x,1/2+y,-z
-x,y,z
x,1/2-y,z
1/2+x,1/2+y,1/2+z
1/2-x,-y,1/2+z
1/2+x,1/2-y,1/2-z
1/2-x,y,1/2-z
1/2-x,1/2-y,1/2-z
1/2+x,y,1/2-z
1/2-x,1/2+y,1/2+z
1/2+x,-y,1/2+z
loop_
_atom_site_type_symbol
_atom_site_label
_atom_site_fract_x
_atom_site_fract_y
_atom_site_fract_z
Si Si1 0.554162 0.580450 0.064180
Si Si2 0.947585 0.432319 0.826822
Si Si3 0.631537 0.431573 0.571685
Si Si4 0.690917 0.567518 0.803837
Si Si5 0.713519 0.432416 0.346803
Si Si6 0.088178 0.930969 0.691913
O O1 0.500000 0.593091 0.054884
O O2 0.572573 0.750000 0.072017
O O3 0.561582 0.484238 0.128671
O O4 0.573477 0.500000 0.000000
O O5 0.946375 0.250000 0.822103
O O6 0.910980 0.477234 0.881912
O O7 0.932014 0.499818 0.757838
O O8 0.000000 0.476727 0.841152
O O9 0.626652 0.500000 0.500000
O O10 0.632391 0.250000 0.568146
O O11 0.678127 0.490281 0.604917
O O12 0.691696 0.750000 0.808216
O O13 0.699209 0.533283 0.727747
O O14 0.733520 0.516654 0.847792
O O15 0.640264 0.515910 0.819208
O O16 0.711127 0.250000 0.355451
O O17 0.087705 0.750000 0.697968
#
# Coordination Sequence:
#
# PCOD9539056 Si02
#       6
#    16  16  16  16  16  16
#     4  10  21  37  55  76 106 145 185 224 270 324
#     4  10  22  39  56  78 111 148 188 235 284 333
#     4  11  23  38  57  81 110 147 190 237 286 336
#     4   8  16  30  55  84 110 139 173 216 267 321
#     4   9  16  34  58  80 107 141 178 217 266 324
#     4  11  20  33  56  87 115 143 181 225 274 328
#
# _framework density 17.983042000000001
#
# number of rings (size 3 to 8) (size 9 to 14) (size 15 to 20)
#    0.000    2.167    1.667    3.000    0.000    4.333 
#    0.000    4.167    0.000    0.000    0.000    0.000 
#    0.000    0.000    0.000    0.000    0.000    0.000 
#
# Total GULP energy -267622.797521 kJ/mol
# GULP energy per Si atom -5575.474948 kJ/mol
# Density = 1.794211 g / cm^3
# Si number density = 17.983042 Si / 1000 Ang^3
#
#
#
# Elastic Constant Matrix: (Units=GPa)
#
#
# Indices 1 2 3 4 5 6 
#
# 1 99.1962 32.1778 55.2181 0.0000 0.0000 0.0000
# 2 32.1778 32.4899 34.4858 0.0000 0.0000 0.0000
# 3 55.2181 34.4858 129.6323 0.0000 0.0000 0.0000
# 4 0.0000 0.0000 0.0000 22.7925 0.0000 0.0000
# 5 0.0000 0.0000 0.0000 0.0000 16.0458 0.0000
# 6 0.0000 0.0000 0.0000 0.0000 0.0000 -9.4705
#
#
#
# Elastic Compliance Matrix: (Units=1/GPa)
#
#
# Indices 1 2 3 4 5 6 
#
# 1 0.015985 -0.011990 -0.003619 0.000000 0.000000 0.000000
# 2 -0.011990 0.051882 -0.008695 0.000000 0.000000 0.000000
# 3 -0.003619 -0.008695 0.011569 0.000000 0.000000 0.000000
# 4 0.000000 0.000000 0.000000 0.043874 0.000000 0.000000
# 5 0.000000 0.000000 0.000000 0.000000 0.062321 0.000000
# 6 0.000000 0.000000 0.000000 0.000000 0.000000 -0.105591
#
#
# Mechanical properties :
#
#
# Convention : Reuss Voigt Hill
#
# Bulk Modulus (GPa) = 32.43788 56.12019 44.27904
# Shear Modulus (GPa) = 35.99041 15.16934 25.57988
#
# Velocity S-wave (km/s) = 4.47850 2.90752 3.77562
# Velocity P-wave (km/s) = 6.69476 6.52278 6.60933
#
# Compressibility (1/GPa) = 0.03082815
#
# Stress axis : x y z
#
# Youngs Moduli (GPa) = 62.55825 19.27432 86.43830
#
# Poissons Ratio (x) = 0.23110 0.31285
# Poissons Ratio (y) = 0.75006 0.75158
# Poissons Ratio (z) = 0.22642 0.16759
#
# Static dielectric constant tensor:
#      x y z
#    x 1.650830 0.000000 0.000000 
#    y 0.000000 1.619980 0.000000 
#    z 0.000000 0.000000 1.574830 
# 
# From -- ./inp_files/55092.got.cif
#   From: 2010.05.17/outbox.cif.g08.bks.cpg/sg74_28_cif.got.tgz:55092.got - 2010.06.03 17:57:02.
