data_PCOD9539447
_publ_section_title
;
Structure prediction by ZEFSAII (Michael W. Deem and Ramdas Pophale) SiO2 
 PCOD9539447
Probable space group: I M M A
;
_chemical_formula_sum "Si O2"
_cell_formula_units_Z 112
_cell_length_a 13.979754
_cell_length_b 14.056818
_cell_length_c 24.896883
_cell_angle_alpha 90.000000
_cell_angle_beta 90.000000
_cell_angle_gamma 90.000000
_cell_volume 4892.507831
_symmetry_space_group_name_H-M "I M M A"
_symmetry_group_IT_number 74
_symmetry_cell_setting 'orthorhombic'
loop_
_space_group_symop_operation_xyz
x,y,z
-x,1/2-y,z
x,-y,-z
-x,1/2+y,-z
-x,-y,-z
x,1/2+y,-z
-x,y,z
x,1/2-y,z
1/2+x,1/2+y,1/2+z
1/2-x,-y,1/2+z
1/2+x,1/2-y,1/2-z
1/2-x,y,1/2-z
1/2-x,1/2-y,1/2-z
1/2+x,y,1/2-z
1/2-x,1/2+y,1/2+z
1/2+x,-y,1/2+z
loop_
_atom_site_type_symbol
_atom_site_label
_atom_site_fract_x
_atom_site_fract_y
_atom_site_fract_z
Si Si1 0.695582 0.139001 0.066518
Si Si2 0.892120 0.364083 0.547339
Si Si3 0.303352 0.357669 0.836413
Si Si4 0.109373 0.446932 0.835127
Si Si5 0.113776 0.053367 0.325478
Si Si6 0.604285 0.949905 0.557146
Si Si7 0.616448 0.353441 0.282038
O O1 0.673220 0.250000 0.073249
O O2 0.655104 0.082752 0.117232
O O3 0.808503 0.121097 0.063953
O O4 0.651101 0.105171 0.009714
O O5 0.899944 0.250000 0.542528
O O6 0.827021 0.376234 0.600204
O O7 0.000000 0.402239 0.556299
O O8 0.334735 0.250000 0.823920
O O9 0.191276 0.370891 0.824016
O O10 0.356242 0.446381 0.808829
O O11 0.108882 0.466997 0.898667
O O12 0.142284 0.550273 0.812897
O O13 0.000000 0.426828 0.817606
O O14 0.144734 0.127213 0.279514
O O15 0.000000 0.056522 0.328573
O O16 0.500000 0.903196 0.563901
O O17 0.610177 0.000000 0.500000
O O18 0.500000 0.351770 0.284344
O O19 0.650002 0.250000 0.301353
#
# Coordination Sequence:
#
# PCOD9539447 Si02
#       7
#    16  16  16  16  16  16  16
#     4  11  22  36  60  96 133 170 218 268 322 389
#     4   9  19  36  59  88 124 168 212 258 315 379
#     4  11  23  41  62  89 125 164 215 269 322 382
#     4  10  21  41  66  92 122 161 214 265 318 383
#     4  11  23  40  63  94 132 173 218 265 321 386
#     4  10  21  39  62  87 126 170 212 265 320 377
#     4   9  20  41  68  96 131 171 210 260 322 386
#
# _framework density 22.892144999999999
#
# number of rings (size 3 to 8) (size 9 to 14) (size 15 to 20)
#    0.000    1.857    1.429    2.143    0.000    4.000 
#    0.000    5.000    0.000    7.714    0.000    0.000 
#    0.000    0.000    0.000    0.000    0.000    0.000 
#
# Total GULP energy -313094.830795 kJ/mol
# GULP energy per Si atom -5590.979121 kJ/mol
# Density = 2.284004 g / cm^3
# Si number density = 22.892145 Si / 1000 Ang^3
#
#
#
# Elastic Constant Matrix: (Units=GPa)
#
#
# Indices 1 2 3 4 5 6 
#
# 1 122.0170 23.1221 8.1337 0.0000 0.0000 0.0000
# 2 23.1221 107.9131 2.3982 0.0000 0.0000 0.0000
# 3 8.1337 2.3982 22.7083 0.0000 0.0000 0.0000
# 4 0.0000 0.0000 0.0000 21.9690 0.0000 0.0000
# 5 0.0000 0.0000 0.0000 0.0000 24.1753 0.0000
# 6 0.0000 0.0000 0.0000 0.0000 0.0000 28.8902
#
#
#
# Elastic Compliance Matrix: (Units=1/GPa)
#
#
# Indices 1 2 3 4 5 6 
#
# 1 0.008734 -0.001806 -0.002938 0.000000 0.000000 0.000000
# 2 -0.001806 0.009662 -0.000374 0.000000 0.000000 0.000000
# 3 -0.002938 -0.000374 0.045128 0.000000 0.000000 0.000000
# 4 0.000000 0.000000 0.000000 0.045519 0.000000 0.000000
# 5 0.000000 0.000000 0.000000 0.000000 0.041364 0.000000
# 6 0.000000 0.000000 0.000000 0.000000 0.000000 0.034614
#
#
# Mechanical properties :
#
#
# Convention : Reuss Voigt Hill
#
# Bulk Modulus (GPa) = 18.76527 35.54960 27.15743
# Shear Modulus (GPa) = 23.47214 29.60585 26.53900
#
# Velocity S-wave (km/s) = 3.20556 3.60012 3.40855
# Velocity P-wave (km/s) = 4.68144 5.73097 5.23258
#
# Compressibility (1/GPa) = 0.05328994
#
# Stress axis : x y z
#
# Youngs Moduli (GPa) = 114.49985 103.49832 22.15899
#
# Poissons Ratio (x) = 0.18692 0.06509
# Poissons Ratio (y) = 0.20679 0.00828
# Poissons Ratio (z) = 0.33634 0.03866
#
# Static dielectric constant tensor:
#      x y z
#    x 1.876040 0.000000 0.000000 
#    y 0.000000 1.829350 0.000000 
#    z 0.000000 0.000000 1.866260 
# 
# From -- ./inp_files/60166.got.cif
#   From: 2010.05.17/outbox.cif.g08.bks.cpg/sg74_31_cif.got.tgz:60166.got - 2010.06.03 17:57:02.
