data_PCOD9539565
_publ_section_title
;
Structure prediction by ZEFSAII (Michael W. Deem and Ramdas Pophale) SiO2 
 PCOD9539565
Probable space group: I M M A
;
_chemical_formula_sum "Si O2"
_cell_formula_units_Z 64
_cell_length_a 21.837934
_cell_length_b 7.657884
_cell_length_c 15.725813
_cell_angle_alpha 90.000000
_cell_angle_beta 90.000000
_cell_angle_gamma 90.000000
_cell_volume 2629.864905
_symmetry_space_group_name_H-M "I M M A"
_symmetry_group_IT_number 74
_symmetry_cell_setting 'orthorhombic'
loop_
_space_group_symop_operation_xyz
x,y,z
-x,1/2-y,z
x,-y,-z
-x,1/2+y,-z
-x,-y,-z
x,1/2+y,-z
-x,y,z
x,1/2-y,z
1/2+x,1/2+y,1/2+z
1/2-x,-y,1/2+z
1/2+x,1/2-y,1/2-z
1/2-x,y,1/2-z
1/2-x,1/2-y,1/2-z
1/2+x,y,1/2-z
1/2-x,1/2+y,1/2+z
1/2+x,-y,1/2+z
loop_
_atom_site_type_symbol
_atom_site_label
_atom_site_fract_x
_atom_site_fract_y
_atom_site_fract_z
Si Si1 0.338326 0.000000 0.500000
Si Si2 0.874675 0.449817 0.680345
Si Si3 0.251471 0.548504 0.649388
Si Si4 0.427351 0.464227 0.639362
Si Si5 0.500000 0.043577 0.097498
O O1 0.289878 0.948792 0.423968
O O2 0.391110 0.936726 0.565957
O O3 0.854670 0.250000 0.686252
O O4 0.820909 0.545509 0.630911
O O5 0.891024 0.512167 0.775019
O O6 0.939293 0.462203 0.635479
O O7 0.272604 0.750000 0.646179
O O8 0.250000 0.491620 0.750000
O O9 0.500000 0.501590 0.644421
O O10 0.421685 0.250000 0.627946
O O11 0.500000 0.250000 0.114264
O O12 0.500000 0.000000 0.000000
#
# Coordination Sequence:
#
# PCOD9539565 Si02
#       5
#     8  16  16  16   8
#     4  12  23  42  68  97 136 190 236 288 358 427
#     4  11  23  44  71  98 133 181 229 282 353 423
#     4  11  25  44  65  97 140 183 232 290 350 421
#     4  10  21  40  67  99 133 171 226 290 352 423
#     4  12  26  46  72 103 138 177 228 287 350 418
#
# _framework density 24.335851000000002
#
# number of rings (size 3 to 8) (size 9 to 14) (size 15 to 20)
#    0.000    1.000    3.750    3.000    1.750    2.500 
#    0.000    0.000    0.000    0.000    0.000    0.000 
#    0.000    0.000    0.000    0.000    0.000    0.000 
#
# Total GULP energy -178183.120474 kJ/mol
# GULP energy per Si atom -5568.222515 kJ/mol
# Density = 2.428046 g / cm^3
# Si number density = 24.335851 Si / 1000 Ang^3
#
#
#
# Elastic Constant Matrix: (Units=GPa)
#
#
# Indices 1 2 3 4 5 6 
#
# 1 162.4600 29.1102 22.4505 0.0000 0.0000 0.0000
# 2 29.1102 95.0954 13.9112 0.0000 0.0000 0.0000
# 3 22.4505 13.9112 137.0428 0.0000 0.0000 0.0000
# 4 0.0000 0.0000 0.0000 -82.3574 0.0000 0.0000
# 5 0.0000 0.0000 0.0000 0.0000 61.4119 0.0000
# 6 0.0000 0.0000 0.0000 0.0000 0.0000 12.7928
#
#
#
# Elastic Compliance Matrix: (Units=1/GPa)
#
#
# Indices 1 2 3 4 5 6 
#
# 1 0.006618 -0.001895 -0.000892 0.000000 0.000000 0.000000
# 2 -0.001895 0.011217 -0.000828 0.000000 0.000000 0.000000
# 3 -0.000892 -0.000828 0.007527 0.000000 0.000000 0.000000
# 4 0.000000 0.000000 0.000000 -0.012142 0.000000 0.000000
# 5 0.000000 0.000000 0.000000 0.000000 0.016283 0.000000
# 6 0.000000 0.000000 0.000000 0.000000 0.000000 0.078169
#
#
# Mechanical properties :
#
#
# Convention : Reuss Voigt Hill
#
# Bulk Modulus (GPa) = 55.15205 58.39357 56.77281
# Shear Modulus (GPa) = 41.34032 20.31122 30.82577
#
# Velocity S-wave (km/s) = 4.12605 2.89212 3.56291
# Velocity P-wave (km/s) = 6.73878 5.93291 6.34864
#
# Compressibility (1/GPa) = 0.01813169
#
# Stress axis : x y z
#
# Youngs Moduli (GPa) = 151.09760 89.14929 132.85236
#
# Poissons Ratio (x) = 0.16898 0.11848
# Poissons Ratio (y) = 0.28640 0.11002
# Poissons Ratio (z) = 0.13475 0.07383
#
# Static dielectric constant tensor:
#      x y z
#    x 1.854180 0.000000 0.000000 
#    y 0.000000 2.053380 0.000000 
#    z 0.000000 0.000000 1.935040 
# 
# From -- ./inp_files/35989.got.cif
#   From: 2010.05.17/outbox.cif.g08.bks.cpg/sg74_18_cif.got.tgz:35989.got - 2010.06.03 17:57:02.
