data_PCOD9539191
_publ_section_title
;
Structure prediction by ZEFSAII (Michael W. Deem and Ramdas Pophale) SiO2 
 PCOD9539191
Probable space group: I M M A
;
_chemical_formula_sum "Si O2"
_cell_formula_units_Z 112
_cell_length_a 24.023766
_cell_length_b 14.426751
_cell_length_c 14.731981
_cell_angle_alpha 90.000000
_cell_angle_beta 90.000000
_cell_angle_gamma 90.000000
_cell_volume 5105.882017
_symmetry_space_group_name_H-M "I M M A"
_symmetry_group_IT_number 74
_symmetry_cell_setting 'orthorhombic'
loop_
_space_group_symop_operation_xyz
x,y,z
-x,1/2-y,z
x,-y,-z
-x,1/2+y,-z
-x,-y,-z
x,1/2+y,-z
-x,y,z
x,1/2-y,z
1/2+x,1/2+y,1/2+z
1/2-x,-y,1/2+z
1/2+x,1/2-y,1/2-z
1/2-x,y,1/2-z
1/2-x,1/2-y,1/2-z
1/2+x,y,1/2-z
1/2-x,1/2+y,1/2+z
1/2+x,-y,1/2+z
loop_
_atom_site_type_symbol
_atom_site_label
_atom_site_fract_x
_atom_site_fract_y
_atom_site_fract_z
Si Si1 0.270099 0.110554 0.000115
Si Si2 0.625760 0.504812 0.717228
Si Si3 0.936697 0.643473 0.112126
Si Si4 0.438694 0.862123 0.068545
Si Si5 0.354148 0.147347 0.442888
Si Si6 0.380750 0.357389 0.114558
Si Si7 0.672083 0.854498 0.184017
O O1 0.209886 0.145204 0.027711
O O2 0.319152 0.140382 0.069066
O O3 0.285478 0.142407 0.898980
O O4 0.270047 0.000000 0.000000
O O5 0.577721 0.433212 0.686727
O O6 0.637608 0.568815 0.631239
O O7 0.615522 0.574454 0.800557
O O8 0.676730 0.435565 0.742789
O O9 0.931518 0.750000 0.146640
O O10 0.000000 0.632163 0.080133
O O11 0.893667 0.632164 0.029644
O O12 0.500000 0.896572 0.094418
O O13 0.441055 0.750000 0.065571
O O14 0.387010 0.879503 0.134991
O O15 0.421076 0.890591 0.966913
O O16 0.367525 0.250000 0.406038
O O17 0.393301 0.250000 0.137525
O O18 0.671269 0.750000 0.221152
#
# Coordination Sequence:
#
# PCOD9539191 Si02
#       7
#    16  16  16  16  16  16  16
#     4  11  20  41  67  93 131 176 223 263 323 396
#     4  12  23  39  62  99 129 162 214 271 329 397
#     4  10  24  48  72  94 127 172 224 283 342 395
#     4   8  16  33  56  83 121 170 214 249 301 379
#     4  11  25  45  69  94 124 170 223 274 332 401
#     4  10  21  37  59  91 136 179 215 267 325 384
#     4  10  21  38  62  92 129 170 211 265 325 383
#
# _framework density 21.935485
#
# number of rings (size 3 to 8) (size 9 to 14) (size 15 to 20)
#    0.000    1.714    1.429    4.286    0.000    2.857 
#    2.571    3.571    0.000    7.714    0.000    0.000 
#    0.000    0.000    0.000    0.000    0.000    0.000 
#
# Total GULP energy -313131.571344 kJ/mol
# GULP energy per Si atom -5591.635203 kJ/mol
# Density = 2.188556 g / cm^3
# Si number density = 21.935485 Si / 1000 Ang^3
#
#
#
# Elastic Constant Matrix: (Units=GPa)
#
#
# Indices 1 2 3 4 5 6 
#
# 1 83.5191 7.1726 23.0132 0.0000 0.0000 0.0000
# 2 7.1726 160.8160 53.4352 0.0000 0.0000 0.0000
# 3 23.0132 53.4352 64.5432 0.0000 0.0000 0.0000
# 4 0.0000 0.0000 0.0000 -16.7894 0.0000 0.0000
# 5 0.0000 0.0000 0.0000 0.0000 13.5838 0.0000
# 6 0.0000 0.0000 0.0000 0.0000 0.0000 -3.0879
#
#
#
# Elastic Compliance Matrix: (Units=1/GPa)
#
#
# Indices 1 2 3 4 5 6 
#
# 1 0.013495 0.001375 -0.005950 0.000000 0.000000 0.000000
# 2 0.001375 0.008718 -0.007708 0.000000 0.000000 0.000000
# 3 -0.005950 -0.007708 0.023997 0.000000 0.000000 0.000000
# 4 0.000000 0.000000 0.000000 -0.059561 0.000000 0.000000
# 5 0.000000 0.000000 0.000000 0.000000 0.073617 0.000000
# 6 0.000000 0.000000 0.000000 0.000000 0.000000 -0.323845
#
#
# Mechanical properties :
#
#
# Convention : Reuss Voigt Hill
#
# Bulk Modulus (GPa) = 46.20342 52.90223 49.55283
# Shear Modulus (GPa) = -21.57043 13.75845 -3.90599
#
# Velocity S-wave (km/s) = -3.13926 2.50716 -1.33587
# Velocity P-wave (km/s) = 2.82297 5.70532 4.50110
#
# Compressibility (1/GPa) = 0.02164342
#
# Stress axis : x y z
#
# Youngs Moduli (GPa) = 74.10301 114.70323 41.67267
#
# Poissons Ratio (x) = -0.15774 0.24796
# Poissons Ratio (y) = -0.10191 0.32122
# Poissons Ratio (z) = 0.44092 0.88414
#
# Static dielectric constant tensor:
#      x y z
#    x 1.800780 0.000000 0.000000 
#    y 0.000000 1.824670 0.000000 
#    z 0.000000 0.000000 1.810620 
# 
# From -- ./inp_files/36554.got.cif
#   From: 2010.05.17/outbox.cif.g08.bks.cpg/sg74_19_cif.got.tgz:36554.got - 2010.06.03 17:57:02.
