data_PCOD9539363
_publ_section_title
;
Structure prediction by ZEFSAII (Michael W. Deem and Ramdas Pophale) SiO2 
 PCOD9539363
Probable space group: I M M A
;
_chemical_formula_sum "Si O2"
_cell_formula_units_Z 80
_cell_length_a 13.861339
_cell_length_b 13.393927
_cell_length_c 24.392959
_cell_angle_alpha 90.000000
_cell_angle_beta 90.000000
_cell_angle_gamma 90.000000
_cell_volume 4528.742193
_symmetry_space_group_name_H-M "I M M A"
_symmetry_group_IT_number 74
_symmetry_cell_setting 'orthorhombic'
loop_
_space_group_symop_operation_xyz
x,y,z
-x,1/2-y,z
x,-y,-z
-x,1/2+y,-z
-x,-y,-z
x,1/2+y,-z
-x,y,z
x,1/2-y,z
1/2+x,1/2+y,1/2+z
1/2-x,-y,1/2+z
1/2+x,1/2-y,1/2-z
1/2-x,y,1/2-z
1/2-x,1/2-y,1/2-z
1/2+x,y,1/2-z
1/2-x,1/2+y,1/2+z
1/2+x,-y,1/2+z
loop_
_atom_site_type_symbol
_atom_site_label
_atom_site_fract_x
_atom_site_fract_y
_atom_site_fract_z
Si Si1 0.214037 0.455113 0.338479
Si Si2 0.390697 0.750000 0.428207
Si Si3 0.387755 0.250000 0.991564
Si Si4 0.385046 0.528376 0.268242
Si Si5 0.616800 0.750000 0.877139
Si Si6 0.610428 0.750000 0.296762
Si Si7 0.744636 0.076776 0.950482
O O1 0.318103 0.459799 0.307551
O O2 0.140551 0.501695 0.294096
O O3 0.170623 0.347402 0.353570
O O4 0.225219 0.519411 0.393797
O O5 0.500000 0.750000 0.447459
O O6 0.388386 0.750000 0.362327
O O7 0.335822 0.650448 0.446353
O O8 0.500000 0.250000 0.981896
O O9 0.341602 0.348066 0.965135
O O10 0.370580 0.250000 0.056960
O O11 0.500000 0.519908 0.279286
O O12 0.351327 0.642780 0.278405
O O13 0.500000 0.750000 0.866095
O O14 0.500000 0.750000 0.276794
O O15 0.756539 0.000000 0.000000
#
# Coordination Sequence:
#
# PCOD9539363 Si02
#       7
#    16   8   8  16   8   8  16
#     4  11  23  39  63  87 118 160 201 247 304 353
#     4  10  21  38  62  91 125 164 195 238 303 355
#     4  10  23  38  59  88 122 159 196 246 302 352
#     4  10  22  39  61  91 123 158 199 246 298 357
#     4  11  23  42  62  84 117 158 203 250 301 357
#     4   9  17  34  59  87 121 152 189 238 296 353
#     4  11  22  39  62  91 124 154 202 249 290 358
#
# _framework density 17.664949
#
# number of rings (size 3 to 8) (size 9 to 14) (size 15 to 20)
#    0.000    1.600    4.000    0.600    0.000    7.200 
#    0.000    2.500    0.000    0.000    0.000    0.000 
#    0.000    0.000    0.000    0.000    0.000    0.000 
#
# Total GULP energy -223103.142520 kJ/mol
# GULP energy per Si atom -5577.578563 kJ/mol
# Density = 1.762474 g / cm^3
# Si number density = 17.664949 Si / 1000 Ang^3
#
#
#
# Elastic Constant Matrix: (Units=GPa)
#
#
# Indices 1 2 3 4 5 6 
#
# 1 137.0471 70.6090 57.1831 0.0000 0.0000 0.0000
# 2 70.6090 146.8398 73.5356 0.0000 0.0000 0.0000
# 3 57.1831 73.5356 120.5724 0.0000 0.0000 0.0000
# 4 0.0000 0.0000 0.0000 32.5157 0.0000 0.0000
# 5 0.0000 0.0000 0.0000 0.0000 22.9094 0.0000
# 6 0.0000 0.0000 0.0000 0.0000 0.0000 -95.8081
#
#
#
# Elastic Compliance Matrix: (Units=1/GPa)
#
#
# Indices 1 2 3 4 5 6 
#
# 1 0.010266 -0.003597 -0.002675 0.000000 0.000000 0.000000
# 2 -0.003597 0.011065 -0.005043 0.000000 0.000000 0.000000
# 3 -0.002675 -0.005043 0.012638 0.000000 0.000000 0.000000
# 4 0.000000 0.000000 0.000000 0.030754 0.000000 0.000000
# 5 0.000000 0.000000 0.000000 0.000000 0.043650 0.000000
# 6 0.000000 0.000000 0.000000 0.000000 0.000000 -0.010438
#
#
# Mechanical properties :
#
#
# Convention : Reuss Voigt Hill
#
# Bulk Modulus (GPa) = 88.18444 89.67942 88.93193
# Shear Modulus (GPa) = 40.21068 5.46551 22.83810
#
# Velocity S-wave (km/s) = 4.77623 1.76088 3.59952
# Velocity P-wave (km/s) = 8.96914 7.41696 8.22973
#
# Compressibility (1/GPa) = 0.01133987
#
# Stress axis : x y z
#
# Youngs Moduli (GPa) = 97.40756 90.37549 79.12718
#
# Poissons Ratio (x) = 0.32507 0.21168
# Poissons Ratio (y) = 0.35036 0.39900
# Poissons Ratio (z) = 0.26058 0.45572
#
# Static dielectric constant tensor:
#      x y z
#    x 1.615380 0.000000 0.000000 
#    y 0.000000 1.593260 0.000000 
#    z 0.000000 0.000000 1.585670 
# 
# From -- ./inp_files/58586.got.cif
#   From: 2010.05.17/outbox.cif.g08.bks.cpg/sg74_30_cif.got.tgz:58586.got - 2010.06.03 17:57:02.
