data_PCOD9539710
_publ_section_title
;
Structure prediction by ZEFSAII (Michael W. Deem and Ramdas Pophale) SiO2 
 PCOD9539710
Probable space group: I M M A
;
_chemical_formula_sum "Si O2"
_cell_formula_units_Z 112
_cell_length_a 14.915158
_cell_length_b 15.805318
_cell_length_c 22.770384
_cell_angle_alpha 90.000000
_cell_angle_beta 90.000000
_cell_angle_gamma 90.000000
_cell_volume 5367.863346
_symmetry_space_group_name_H-M "I M M A"
_symmetry_group_IT_number 74
_symmetry_cell_setting 'orthorhombic'
loop_
_space_group_symop_operation_xyz
x,y,z
-x,1/2-y,z
x,-y,-z
-x,1/2+y,-z
-x,-y,-z
x,1/2+y,-z
-x,y,z
x,1/2-y,z
1/2+x,1/2+y,1/2+z
1/2-x,-y,1/2+z
1/2+x,1/2-y,1/2-z
1/2-x,y,1/2-z
1/2-x,1/2-y,1/2-z
1/2+x,y,1/2-z
1/2-x,1/2+y,1/2+z
1/2+x,-y,1/2+z
loop_
_atom_site_type_symbol
_atom_site_label
_atom_site_fract_x
_atom_site_fract_y
_atom_site_fract_z
Si Si1 0.397428 0.502157 0.130469
Si Si2 0.651173 0.481402 0.263102
Si Si3 0.709081 0.843196 0.917952
Si Si4 0.098820 0.653537 0.052049
Si Si5 0.400322 0.150661 0.362164
Si Si6 0.897060 0.157502 0.807239
Si Si7 0.788764 0.084649 0.535573
O O1 0.500000 0.507361 0.110224
O O2 0.394568 0.499840 0.200787
O O3 0.350557 0.414433 0.112029
O O4 0.339552 0.575161 0.097361
O O5 0.750000 0.447368 0.250000
O O6 0.607222 0.414954 0.307984
O O7 0.657650 0.574164 0.291969
O O8 0.691592 0.750000 0.893874
O O9 0.814350 0.863646 0.904395
O O10 0.688288 0.844816 0.987456
O O11 0.113833 0.750000 0.028891
O O12 0.097015 0.660907 0.122515
O O13 0.182216 0.593408 0.041334
O O14 0.000000 0.625236 0.032743
O O15 0.500000 0.139011 0.388776
O O16 0.394971 0.250000 0.343814
O O17 0.864087 0.250000 0.786705
O O18 0.000000 0.146577 0.785677
O O19 0.811238 0.000000 0.500000
#
# Coordination Sequence:
#
# PCOD9539710 Si02
#       7
#    16  16  16  16  16  16  16
#     4  11  24  42  61  88 123 165 214 264 316 375
#     4  12  22  38  65  91 126 171 208 261 326 386
#     4  10  22  41  63  89 121 163 212 264 318 377
#     4   9  18  34  57  85 118 154 193 243 302 367
#     4  10  22  40  63  96 135 170 208 262 327 395
#     4   9  19  35  55  83 119 156 199 249 301 369
#     4  10  22  38  58  85 119 158 205 260 309 366
#
# _framework density 20.864913999999999
#
# number of rings (size 3 to 8) (size 9 to 14) (size 15 to 20)
#    0.000    1.857    1.429    3.429    2.000    4.857 
#    0.000    2.857    0.000    3.000    0.000    0.000 
#    0.000    0.000    0.000    0.000    0.000    0.000 
#
# Total GULP energy -312137.660818 kJ/mol
# GULP energy per Si atom -5573.886800 kJ/mol
# Density = 2.081742 g / cm^3
# Si number density = 20.864914 Si / 1000 Ang^3
#
#
#
# Elastic Constant Matrix: (Units=GPa)
#
#
# Indices 1 2 3 4 5 6 
#
# 1 84.6223 13.8412 16.7689 0.0000 0.0000 0.0000
# 2 13.8412 72.7511 33.7759 0.0000 0.0000 0.0000
# 3 16.7689 33.7759 87.9540 0.0000 0.0000 0.0000
# 4 0.0000 0.0000 0.0000 10.7309 0.0000 0.0000
# 5 0.0000 0.0000 0.0000 0.0000 -5.4479 0.0000
# 6 0.0000 0.0000 0.0000 0.0000 0.0000 24.8793
#
#
#
# Elastic Compliance Matrix: (Units=1/GPa)
#
#
# Indices 1 2 3 4 5 6 
#
# 1 0.012421 -0.001538 -0.001778 0.000000 0.000000 0.000000
# 2 -0.001538 0.016918 -0.006204 0.000000 0.000000 0.000000
# 3 -0.001778 -0.006204 0.014091 0.000000 0.000000 0.000000
# 4 0.000000 0.000000 0.000000 0.093189 0.000000 0.000000
# 5 0.000000 0.000000 0.000000 0.000000 -0.183559 0.000000
# 6 0.000000 0.000000 0.000000 0.000000 0.000000 0.040194
#
#
# Mechanical properties :
#
#
# Convention : Reuss Voigt Hill
#
# Bulk Modulus (GPa) = 40.99740 41.56658 41.28199
# Shear Modulus (GPa) = 244.82097 18.09525 131.45811
#
# Velocity S-wave (km/s) = 10.84394 2.94812 7.94614
# Velocity P-wave (km/s) = 13.28456 5.61725 10.19885
#
# Compressibility (1/GPa) = 0.02439179
#
# Stress axis : x y z
#
# Youngs Moduli (GPa) = 80.50881 59.10778 70.96823
#
# Poissons Ratio (x) = 0.09090 0.12615
# Poissons Ratio (y) = 0.12381 0.44027
# Poissons Ratio (z) = 0.14311 0.36669
#
# Static dielectric constant tensor:
#      x y z
#    x 1.767230 0.000000 0.000000 
#    y 0.000000 1.744380 0.000000 
#    z 0.000000 0.000000 1.786940 
# 
# From -- ./inp_files/60101.got.cif
#   From: 2010.05.17/outbox.cif.g08.bks.cpg/sg74_31_cif.got.tgz:60101.got - 2010.06.03 17:57:02.
