data_PCOD9539070
_publ_section_title
;
Structure prediction by ZEFSAII (Michael W. Deem and Ramdas Pophale) SiO2 
 PCOD9539070
Probable space group: I M M A
;
_chemical_formula_sum "Si O2"
_cell_formula_units_Z 104
_cell_length_a 9.108626
_cell_length_b 21.434147
_cell_length_c 29.226582
_cell_angle_alpha 90.000000
_cell_angle_beta 90.000000
_cell_angle_gamma 90.000000
_cell_volume 5706.070110
_symmetry_space_group_name_H-M "I M M A"
_symmetry_group_IT_number 74
_symmetry_cell_setting 'orthorhombic'
loop_
_space_group_symop_operation_xyz
x,y,z
-x,1/2-y,z
x,-y,-z
-x,1/2+y,-z
-x,-y,-z
x,1/2+y,-z
-x,y,z
x,1/2-y,z
1/2+x,1/2+y,1/2+z
1/2-x,-y,1/2+z
1/2+x,1/2-y,1/2-z
1/2-x,y,1/2-z
1/2-x,1/2-y,1/2-z
1/2+x,y,1/2-z
1/2-x,1/2+y,1/2+z
1/2+x,-y,1/2+z
loop_
_atom_site_type_symbol
_atom_site_label
_atom_site_fract_x
_atom_site_fract_y
_atom_site_fract_z
Si Si1 0.174919 0.927024 0.046197
Si Si2 0.676081 0.368293 0.147533
Si Si3 0.320931 0.750000 0.698597
Si Si4 0.162293 0.176645 0.792632
Si Si5 0.325766 0.110385 0.865292
Si Si6 0.174374 0.497146 0.298930
Si Si7 0.675841 0.574917 0.558044
O O1 0.262425 0.890625 0.084298
O O2 0.000000 0.919475 0.051220
O O3 0.206001 0.000315 0.056639
O O4 0.212354 0.907436 0.994430
O O5 0.500000 0.356222 0.145271
O O6 0.761017 0.310361 0.170647
O O7 0.700042 0.429121 0.179323
O O8 0.737986 0.388471 0.097559
O O9 0.500000 0.750000 0.701377
O O10 0.250000 0.750000 0.750000
O O11 0.146948 0.250000 0.784344
O O12 0.250000 0.148732 0.750000
O O13 0.257121 0.166587 0.837262
O O14 0.000000 0.149086 0.796786
O O15 0.500000 0.111863 0.865750
O O16 0.277748 0.049198 0.835934
O O17 0.250000 0.502491 0.250000
O O18 0.000000 0.505036 0.292796
O O19 0.500000 0.582711 0.564944
#
# Coordination Sequence:
#
# PCOD9539070 Si02
#       7
#    16  16   8  16  16  16  16
#     4   9  18  33  55  84 117 150 187 226 277 336
#     4  11  22  39  60  85 116 152 193 238 292 348
#     4  12  26  44  64  88 116 154 202 248 297 354
#     4  10  21  37  56  78 106 144 187 228 273 327
#     4  11  21  34  53  82 114 147 186 228 280 333
#     4  10  22  35  50  78 113 146 181 224 276 334
#     4   9  18  34  57  85 114 149 188 229 277 337
#
# _framework density 18.226205
#
# number of rings (size 3 to 8) (size 9 to 14) (size 15 to 20)
#    0.000    1.846    1.538    3.923    0.000    6.462 
#    0.000    1.538    1.692    0.000    0.000    0.000 
#    0.000    0.000    0.000    0.000    0.000    0.000 
#
# Total GULP energy -290104.352090 kJ/mol
# GULP energy per Si atom -5578.929848 kJ/mol
# Density = 1.818472 g / cm^3
# Si number density = 18.226205 Si / 1000 Ang^3
#
#
#
# Elastic Constant Matrix: (Units=GPa)
#
#
# Indices 1 2 3 4 5 6 
#
# 1 65.9135 37.6781 79.5564 0.0000 0.0000 0.0000
# 2 37.6781 50.7964 29.7478 0.0000 0.0000 0.0000
# 3 79.5564 29.7478 153.7863 0.0000 0.0000 0.0000
# 4 0.0000 0.0000 0.0000 44.2725 0.0000 0.0000
# 5 0.0000 0.0000 0.0000 0.0000 39.1583 0.0000
# 6 0.0000 0.0000 0.0000 0.0000 0.0000 42.7672
#
#
#
# Elastic Compliance Matrix: (Units=1/GPa)
#
#
# Indices 1 2 3 4 5 6 
#
# 1 0.072845 -0.036047 -0.030711 0.000000 0.000000 0.000000
# 2 -0.036047 0.040039 0.010903 0.000000 0.000000 0.000000
# 3 -0.030711 0.010903 0.020281 0.000000 0.000000 0.000000
# 4 0.000000 0.000000 0.000000 0.022587 0.000000 0.000000
# 5 0.000000 0.000000 0.000000 0.000000 0.025537 0.000000
# 6 0.000000 0.000000 0.000000 0.000000 0.000000 0.023382
#
#
# Mechanical properties :
#
#
# Convention : Reuss Voigt Hill
#
# Bulk Modulus (GPa) = 46.61102 62.71786 54.66444
# Shear Modulus (GPa) = 15.45428 33.47384 24.46406
#
# Velocity S-wave (km/s) = 2.91506 4.29018 3.66764
# Velocity P-wave (km/s) = 6.07941 7.68286 6.92768
#
# Compressibility (1/GPa) = 0.02145415
#
# Stress axis : x y z
#
# Youngs Moduli (GPa) = 13.72780 24.97540 49.30731
#
# Poissons Ratio (x) = 0.90029 1.51428
# Poissons Ratio (y) = 0.49485 -0.53759
# Poissons Ratio (z) = 0.42160 -0.27230
#
# Static dielectric constant tensor:
#      x y z
#    x 1.629850 0.000000 0.000000 
#    y 0.000000 1.695470 0.000000 
#    z 0.000000 0.000000 1.601960 
# 
# From -- ./inp_files/64798.got.cif
#   From: 2010.05.17/outbox.cif.g08.bks.cpg/sg74_33_cif.got.tgz:64798.got - 2010.06.03 17:57:02.
