data_PCOD9539432
_publ_section_title
;
Structure prediction by ZEFSAII (Michael W. Deem and Ramdas Pophale) SiO2 
 PCOD9539432
Probable space group: I M M A
;
_chemical_formula_sum "Si O2"
_cell_formula_units_Z 112
_cell_length_a 14.547636
_cell_length_b 31.657771
_cell_length_c 11.784688
_cell_angle_alpha 90.000000
_cell_angle_beta 90.000000
_cell_angle_gamma 90.000000
_cell_volume 5427.387727
_symmetry_space_group_name_H-M "I M M A"
_symmetry_group_IT_number 74
_symmetry_cell_setting 'orthorhombic'
loop_
_space_group_symop_operation_xyz
x,y,z
-x,1/2-y,z
x,-y,-z
-x,1/2+y,-z
-x,-y,-z
x,1/2+y,-z
-x,y,z
x,1/2-y,z
1/2+x,1/2+y,1/2+z
1/2-x,-y,1/2+z
1/2+x,1/2-y,1/2-z
1/2-x,y,1/2-z
1/2-x,1/2-y,1/2-z
1/2+x,y,1/2-z
1/2-x,1/2+y,1/2+z
1/2+x,-y,1/2+z
loop_
_atom_site_type_symbol
_atom_site_label
_atom_site_fract_x
_atom_site_fract_y
_atom_site_fract_z
Si Si1 0.107962 0.851194 0.535464
Si Si2 0.105067 0.050740 0.069334
Si Si3 0.893122 0.865276 0.791375
Si Si4 0.167853 0.533033 0.168588
Si Si5 0.718825 0.297919 0.428535
Si Si6 0.890435 0.881634 0.296256
Si Si7 0.610936 0.297261 0.665208
O O1 0.117167 0.872957 0.657597
O O2 0.178061 0.812338 0.541716
O O3 0.136212 0.879767 0.428430
O O4 0.000000 0.839244 0.521173
O O5 0.125368 0.092321 0.139759
O O6 0.000000 0.054382 0.023153
O O7 0.108335 0.009367 0.148818
O O8 0.175028 0.046504 0.963997
O O9 0.827820 0.828900 0.838178
O O10 0.000000 0.853096 0.810891
O O11 0.250000 0.518602 0.250000
O O12 0.136936 0.576002 0.231178
O O13 0.716871 0.250000 0.388393
O O14 0.658637 0.300942 0.543279
O O15 0.859329 0.837554 0.239380
O O16 0.000000 0.880791 0.292103
O O17 0.500000 0.299346 0.652692
O O18 0.632347 0.250000 0.711861
#
# Coordination Sequence:
#
# PCOD9539432 Si02
#       7
#    16  16  16  16  16  16  16
#     4  10  24  41  57  84 124 171 214 253 310 384
#     4  10  22  45  70  91 124 171 214 255 317 393
#     4  10  22  42  67  91 118 161 212 265 321 380
#     4  11  23  37  62 100 127 153 206 263 314 368
#     4  11  23  38  61  91 121 160 214 272 324 376
#     4  10  21  39  61  86 124 167 205 256 320 380
#     4   9  19  36  60  90 120 156 208 266 321 378
#
# _framework density 20.63608
#
# number of rings (size 3 to 8) (size 9 to 14) (size 15 to 20)
#    0.000    1.857    0.000    3.429    4.000    6.286 
#    2.571    4.286    0.000    3.429    0.000    0.000 
#    0.000    0.000    0.000    0.000    0.000    0.000 
#
# Total GULP energy -312436.366577 kJ/mol
# GULP energy per Si atom -5579.220832 kJ/mol
# Density = 2.058911 g / cm^3
# Si number density = 20.636080 Si / 1000 Ang^3
#
#
#
# Elastic Constant Matrix: (Units=GPa)
#
#
# Indices 1 2 3 4 5 6 
#
# 1 69.4780 38.6819 49.4369 0.0000 0.0001 0.0000
# 2 38.6819 138.3938 76.9172 -0.0001 0.0000 0.0000
# 3 49.4369 76.9172 125.3017 0.0006 0.0004 0.0001
# 4 0.0000 -0.0001 0.0006 -3.3286 0.0001 0.0000
# 5 0.0001 0.0000 0.0004 0.0001 25.5627 0.0000
# 6 0.0000 0.0000 0.0001 0.0000 0.0000 27.5847
#
#
#
# Elastic Compliance Matrix: (Units=1/GPa)
#
#
# Indices 1 2 3 4 5 6 
#
# 1 0.020321 -0.001858 -0.006877 -0.000001 0.000000 0.000000
# 2 -0.001858 0.011137 -0.006104 -0.000001 0.000000 0.000000
# 3 -0.006877 -0.006104 0.014441 0.000003 0.000000 0.000000
# 4 -0.000001 -0.000001 0.000003 -0.300425 0.000001 0.000000
# 5 0.000000 0.000000 0.000000 0.000001 0.039119 0.000000
# 6 0.000000 0.000000 0.000000 0.000000 0.000000 0.036252
#
#
# Mechanical properties :
#
#
# Convention : Reuss Voigt Hill
#
# Bulk Modulus (GPa) = 61.64494 73.69393 67.66943
# Shear Modulus (GPa) = -34.70526 21.17294 -6.76616
#
# Velocity S-wave (km/s) = -4.10539 3.20662 -1.81271
# Velocity P-wave (km/s) = 2.73220 7.03553 5.33683
#
# Compressibility (1/GPa) = 0.01622193
#
# Stress axis : x y z
#
# Youngs Moduli (GPa) = 49.21113 89.78761 69.24752
#
# Poissons Ratio (x) = 0.16678 0.47622
# Poissons Ratio (y) = 0.09141 0.42268
# Poissons Ratio (z) = 0.33843 0.54805
#
# Static dielectric constant tensor:
#      x y z
#    x 1.773500 0.000000 0.000000 
#    y 0.000000 1.716050 0.000000 
#    z 0.000000 0.000000 1.734960 
# 
# From -- ./inp_files/21144.got.cif
#   From: 2010.05.17/outbox.cif.g08.bks.cpg/sg74_11_cif.got.tgz:21144.got - 2010.06.03 17:57:02.
