data_PCOD9539736
_publ_section_title
;
Structure prediction by ZEFSAII (Michael W. Deem and Ramdas Pophale) SiO2 
 PCOD9539736
Probable space group: I M M A
;
_chemical_formula_sum "Si O2"
_cell_formula_units_Z 84
_cell_length_a 14.277938
_cell_length_b 23.115493
_cell_length_c 11.595308
_cell_angle_alpha 90.000000
_cell_angle_beta 90.000000
_cell_angle_gamma 90.000000
_cell_volume 3826.933725
_symmetry_space_group_name_H-M "I M M A"
_symmetry_group_IT_number 74
_symmetry_cell_setting 'orthorhombic'
loop_
_space_group_symop_operation_xyz
x,y,z
-x,1/2-y,z
x,-y,-z
-x,1/2+y,-z
-x,-y,-z
x,1/2+y,-z
-x,y,z
x,1/2-y,z
1/2+x,1/2+y,1/2+z
1/2-x,-y,1/2+z
1/2+x,1/2-y,1/2-z
1/2-x,y,1/2-z
1/2-x,1/2-y,1/2-z
1/2+x,y,1/2-z
1/2-x,1/2+y,1/2+z
1/2+x,-y,1/2+z
loop_
_atom_site_type_symbol
_atom_site_label
_atom_site_fract_x
_atom_site_fract_y
_atom_site_fract_z
Si Si1 0.826039 0.144986 0.469737
Si Si2 0.208731 0.250000 0.122608
Si Si3 0.640027 0.072357 0.244225
Si Si4 0.500000 0.750000 0.557043
Si Si5 0.000000 0.014078 0.635443
Si Si6 0.000000 0.142313 0.883972
Si Si7 0.000000 0.651410 0.371601
Si Si8 0.154843 0.069459 0.997888
O O1 0.751324 0.194489 0.441750
O O2 0.872515 0.122799 0.350076
O O3 0.761816 0.091615 0.514063
O O4 0.906707 0.165059 0.555991
O O5 0.250000 0.250000 0.250000
O O6 0.097142 0.250000 0.125702
O O7 0.750000 0.060088 0.250000
O O8 0.615981 0.087879 0.375280
O O9 0.586705 0.016893 0.197283
O O10 0.500000 0.693121 0.477279
O O11 0.000000 0.082103 0.643782
O O12 0.000000 0.000000 0.500000
O O13 0.000000 0.172202 0.759116
O O14 0.089684 0.100835 0.904909
O O15 0.150092 0.000000 0.000000
#
# Coordination Sequence:
#
# PCOD9539736 Si02
#       8
#    16   8  16   4   8   8   8  16
#     4  11  25  44  70 109 143 183 239 301 363 418
#     4  12  26  53  82 111 139 185 236 294 368 416
#     4  10  22  38  65 104 142 183 230 299 356 414
#     4  12  28  52  76 108 146 182 246 302 334 428
#     4  12  21  41  67 101 150 185 234 284 355 430
#     4  12  26  48  69 102 140 202 245 287 360 420
#     4  12  28  44  67 104 146 195 245 285 355 435
#     4  11  23  42  70 103 147 184 242 292 362 433
#
# _framework density 21.949687999999998
#
# number of rings (size 3 to 8) (size 9 to 14) (size 15 to 20)
#    0.000    0.762    3.810    3.714    5.333    2.667 
#    0.000    0.952    0.000    0.000    0.000    0.000 
#    0.000    0.000    0.000    0.000    0.000    0.000 
#
# Total GULP energy -235021.865888 kJ/mol
# GULP energy per Si atom -5595.758712 kJ/mol
# Density = 2.189973 g / cm^3
# Si number density = 21.949688 Si / 1000 Ang^3
#
#
#
# Elastic Constant Matrix: (Units=GPa)
#
#
# Indices 1 2 3 4 5 6 
#
# 1 138.1342 22.6831 63.7800 0.0000 0.0000 0.0000
# 2 22.6831 87.1071 -3.0402 0.0000 0.0000 0.0000
# 3 63.7800 -3.0402 115.6105 -0.0001 0.0000 0.0000
# 4 0.0000 0.0000 -0.0001 15.2658 0.0000 0.0000
# 5 0.0000 0.0000 0.0000 0.0000 20.4859 0.0000
# 6 0.0000 0.0000 0.0000 0.0000 0.0000 29.7329
#
#
#
# Elastic Compliance Matrix: (Units=1/GPa)
#
#
# Indices 1 2 3 4 5 6 
#
# 1 0.010403 -0.002912 -0.005816 0.000000 0.000000 0.000000
# 2 -0.002912 0.012306 0.001930 0.000000 0.000000 0.000000
# 3 -0.005816 0.001930 0.011909 0.000000 0.000000 0.000000
# 4 0.000000 0.000000 0.000000 0.065506 0.000000 0.000000
# 5 0.000000 0.000000 0.000000 0.000000 0.048814 0.000000
# 6 0.000000 0.000000 0.000000 0.000000 0.000000 0.033633
#
#
# Mechanical properties :
#
#
# Convention : Reuss Voigt Hill
#
# Bulk Modulus (GPa) = 47.56816 56.41084 51.98950
# Shear Modulus (GPa) = 24.60965 30.25883 27.43424
#
# Velocity S-wave (km/s) = 3.35204 3.71692 3.53918
# Velocity P-wave (km/s) = 6.05806 6.64654 6.35911
#
# Compressibility (1/GPa) = 0.02102246
#
# Stress axis : x y z
#
# Youngs Moduli (GPa) = 96.12933 81.26292 83.97166
#
# Poissons Ratio (x) = 0.23663 0.48834
# Poissons Ratio (y) = 0.27992 -0.16207
# Poissons Ratio (z) = 0.55904 -0.15684
#
# Static dielectric constant tensor:
#      x y z
#    x 1.795790 0.000000 0.000000 
#    y 0.000000 1.820630 0.000000 
#    z 0.000000 0.000000 1.868490 
# 
# From -- ./inp_files/20721.got.cif
#   From: 2010.05.17/outbox.cif.g08.bks.cpg/sg74_11_cif.got.tgz:20721.got - 2010.06.03 17:57:02.
