data_PCOD9539234
_publ_section_title
;
Structure prediction by ZEFSAII (Michael W. Deem and Ramdas Pophale) SiO2 
 PCOD9539234
Probable space group: I M M A
;
_chemical_formula_sum "Si O2"
_cell_formula_units_Z 96
_cell_length_a 30.757306
_cell_length_b 16.727596
_cell_length_c 9.017386
_cell_angle_alpha 90.000000
_cell_angle_beta 90.000000
_cell_angle_gamma 90.000000
_cell_volume 4639.407123
_symmetry_space_group_name_H-M "I M M A"
_symmetry_group_IT_number 74
_symmetry_cell_setting 'orthorhombic'
loop_
_space_group_symop_operation_xyz
x,y,z
-x,1/2-y,z
x,-y,-z
-x,1/2+y,-z
-x,-y,-z
x,1/2+y,-z
-x,y,z
x,1/2-y,z
1/2+x,1/2+y,1/2+z
1/2-x,-y,1/2+z
1/2+x,1/2-y,1/2-z
1/2-x,y,1/2-z
1/2-x,1/2-y,1/2-z
1/2+x,y,1/2-z
1/2-x,1/2+y,1/2+z
1/2+x,-y,1/2+z
loop_
_atom_site_type_symbol
_atom_site_label
_atom_site_fract_x
_atom_site_fract_y
_atom_site_fract_z
Si Si1 0.383309 0.338788 0.209847
Si Si2 0.050142 0.415805 0.082110
Si Si3 0.948994 0.341544 0.773161
Si Si4 0.706893 0.107545 0.342870
Si Si5 0.624088 0.583156 0.093079
Si Si6 0.203940 0.914312 0.183405
O O1 0.398399 0.250000 0.245885
O O2 0.416192 0.399915 0.287890
O O3 0.335294 0.354411 0.270389
O O4 0.380353 0.351978 0.035585
O O5 0.000000 0.412505 0.132723
O O6 0.057071 0.500000 0.000000
O O7 0.056835 0.352412 0.949626
O O8 0.938134 0.250000 0.732144
O O9 0.919263 0.405910 0.690036
O O10 0.000000 0.355439 0.742152
O O11 0.750000 0.131852 0.250000
O O12 0.703178 0.122807 0.518968
O O13 0.704499 0.011025 0.330423
O O14 0.664178 0.600293 0.204045
O O15 0.629464 0.500000 0.000000
O O16 0.250000 0.889331 0.250000
#
# Coordination Sequence:
#
# PCOD9539234 Si02
#       6
#    16  16  16  16  16  16
#     4  12  25  38  60  93 131 170 209 263 328 386
#     4  10  22  41  66  95 125 165 219 271 319 380
#     4  10  22  41  63  87 123 169 213 262 323 385
#     4  10  21  39  64  91 123 160 209 263 320 384
#     4  12  23  39  62  92 127 168 217 267 318 381
#     4  10  21  37  65  94 120 159 211 265 320 383
#
# _framework density 20.692298999999998
#
# number of rings (size 3 to 8) (size 9 to 14) (size 15 to 20)
#    0.000    1.333    1.667    4.000    4.667    2.333 
#    0.000    0.833    0.000    3.500    0.000    0.000 
#    0.000    0.000    0.000    0.000    0.000    0.000 
#
# Total GULP energy -268091.900897 kJ/mol
# GULP energy per Si atom -5585.247935 kJ/mol
# Density = 2.064520 g / cm^3
# Si number density = 20.692299 Si / 1000 Ang^3
#
#
#
# Elastic Constant Matrix: (Units=GPa)
#
#
# Indices 1 2 3 4 5 6 
#
# 1 128.8126 33.5196 89.0671 0.0000 0.0000 0.0000
# 2 33.5196 41.4959 19.1576 0.0000 0.0000 0.0000
# 3 89.0671 19.1576 136.5508 0.0000 0.0000 0.0000
# 4 0.0000 0.0000 0.0000 19.2733 0.0000 0.0000
# 5 0.0000 0.0000 0.0000 0.0000 28.6557 0.0000
# 6 0.0000 0.0000 0.0000 0.0000 0.0000 -15.7682
#
#
#
# Elastic Compliance Matrix: (Units=1/GPa)
#
#
# Indices 1 2 3 4 5 6 
#
# 1 0.016855 -0.009131 -0.009713 0.000000 0.000000 0.000000
# 2 -0.009131 0.030714 0.001647 0.000000 0.000000 0.000000
# 3 -0.009713 0.001647 0.013428 0.000000 0.000000 0.000000
# 4 0.000000 0.000000 0.000000 0.051885 0.000000 0.000000
# 5 0.000000 0.000000 0.000000 0.000000 0.034897 0.000000
# 6 0.000000 0.000000 0.000000 0.000000 0.000000 -0.063419
#
#
# Mechanical properties :
#
#
# Convention : Reuss Voigt Hill
#
# Bulk Modulus (GPa) = 37.59024 65.59420 51.59222
# Shear Modulus (GPa) = 39.17768 17.43983 28.30876
#
# Velocity S-wave (km/s) = 4.35598 2.90628 3.70277
# Velocity P-wave (km/s) = 6.59584 6.55977 6.57783
#
# Compressibility (1/GPa) = 0.02660265
#
# Stress axis : x y z
#
# Youngs Moduli (GPa) = 59.32806 32.55799 74.47267
#
# Poissons Ratio (x) = 0.29729 0.72336
# Poissons Ratio (y) = 0.54174 -0.12264
# Poissons Ratio (z) = 0.57626 -0.05362
#
# Static dielectric constant tensor:
#      x y z
#    x 1.705910 0.000000 0.000000 
#    y 0.000000 1.757030 0.000000 
#    z 0.000000 0.000000 1.777170 
# 
# From -- ./inp_files/15083.got.cif
#   From: 2010.05.17/outbox.cif.g08.bks.cpg/sg74_8_cif.got.tgz:15083.got - 2010.06.03 17:57:02.
