data_PCOD9539042
_publ_section_title
;
Structure prediction by ZEFSAII (Michael W. Deem and Ramdas Pophale) SiO2 
 PCOD9539042
Probable space group: I M M A
;
_chemical_formula_sum "Si O2"
_cell_formula_units_Z 52
_cell_length_a 7.807042
_cell_length_b 19.733249
_cell_length_c 13.925435
_cell_angle_alpha 90.000000
_cell_angle_beta 90.000000
_cell_angle_gamma 90.000000
_cell_volume 2145.328895
_symmetry_space_group_name_H-M "I M M A"
_symmetry_group_IT_number 74
_symmetry_cell_setting 'orthorhombic'
loop_
_space_group_symop_operation_xyz
x,y,z
-x,1/2-y,z
x,-y,-z
-x,1/2+y,-z
-x,-y,-z
x,1/2+y,-z
-x,y,z
x,1/2-y,z
1/2+x,1/2+y,1/2+z
1/2-x,-y,1/2+z
1/2+x,1/2-y,1/2-z
1/2-x,y,1/2-z
1/2-x,1/2-y,1/2-z
1/2+x,y,1/2-z
1/2-x,1/2+y,1/2+z
1/2+x,-y,1/2+z
loop_
_atom_site_type_symbol
_atom_site_label
_atom_site_fract_x
_atom_site_fract_y
_atom_site_fract_z
Si Si1 0.796830 0.133271 0.644843
Si Si2 0.000000 0.750000 0.866216
Si Si3 0.198556 0.842860 0.562869
Si Si4 0.698485 0.476271 0.357790
O O1 0.750000 0.160977 0.750000
O O2 0.747173 0.171699 0.547689
O O3 0.000000 0.129238 0.642169
O O4 0.729660 0.056398 0.637204
O O5 0.844725 0.691672 0.872859
O O6 0.202841 0.924145 0.575131
O O7 0.000000 0.822442 0.580448
O O8 0.500000 0.465293 0.376182
O O9 0.750000 0.456474 0.250000
#
# Coordination Sequence:
#
# PCOD9539042 Si02
#       4
#    16   4  16  16
#     4  10  21  36  63  97 129 160 197 256 323 382
#     4  12  26  44  66  86 116 182 220 260 292 360
#     4  11  24  43  65  89 128 162 214 262 308 360
#     4  11  21  36  64  98 129 161 198 254 323 386
#
# _framework density 24.238707999999999
#
# number of rings (size 3 to 8) (size 9 to 14) (size 15 to 20)
#    0.000    1.231    1.538    6.923    4.308    3.692 
#    0.000    1.538    0.000    0.000    0.000    0.000 
#    0.000    0.000    0.000    0.000    0.000    0.000 
#
# Total GULP energy -144823.023310 kJ/mol
# GULP energy per Si atom -5570.116281 kJ/mol
# Density = 2.418354 g / cm^3
# Si number density = 24.238708 Si / 1000 Ang^3
#
#
#
# Elastic Constant Matrix: (Units=GPa)
#
#
# Indices 1 2 3 4 5 6 
#
# 1 109.0053 4.6917 3.0772 0.0000 0.0000 0.0000
# 2 4.6917 75.0595 1.5910 0.0000 0.0000 0.0000
# 3 3.0772 1.5910 59.2569 0.0000 0.0000 0.0000
# 4 0.0000 0.0000 0.0000 -48.4666 0.0000 0.0000
# 5 0.0000 0.0000 0.0000 0.0000 24.0282 0.0000
# 6 0.0000 0.0000 0.0000 0.0000 0.0000 -5.0429
#
#
#
# Elastic Compliance Matrix: (Units=1/GPa)
#
#
# Indices 1 2 3 4 5 6 
#
# 1 0.009211 -0.000566 -0.000463 0.000000 0.000000 0.000000
# 2 -0.000566 0.013365 -0.000329 0.000000 0.000000 0.000000
# 3 -0.000463 -0.000329 0.016909 0.000000 0.000000 0.000000
# 4 0.000000 0.000000 0.000000 -0.020633 0.000000 0.000000
# 5 0.000000 0.000000 0.000000 0.000000 0.041618 0.000000
# 6 0.000000 0.000000 0.000000 0.000000 0.000000 -0.198300
#
#
# Mechanical properties :
#
#
# Convention : Reuss Voigt Hill
#
# Bulk Modulus (GPa) = 27.19765 29.11573 28.15669
# Shear Modulus (GPa) = -40.69766 9.70119 -15.49823
#
# Velocity S-wave (km/s) = -4.10205 2.00276 -2.53138
# Velocity P-wave (km/s) = 3.34524 4.16968 1.76005
#
# Compressibility (1/GPa) = 0.03676788
#
# Stress axis : x y z
#
# Youngs Moduli (GPa) = 108.56233 74.82159 59.14160
#
# Poissons Ratio (x) = 0.04235 0.02739
# Poissons Ratio (y) = 0.06144 0.01948
# Poissons Ratio (z) = 0.05028 0.02465
#
# Static dielectric constant tensor:
#      x y z
#    x 1.851790 0.000000 0.000000 
#    y 0.000000 1.951850 0.000000 
#    z 0.000000 0.000000 2.057000 
# 
# From -- ./inp_files/28393.got.cif
#   From: 2010.05.17/outbox.cif.g08.bks.cpg/sg74_15_cif.got.tgz:28393.got - 2010.06.03 17:57:02.
