data_PCOD9539832
_publ_section_title
;
Structure prediction by ZEFSAII (Michael W. Deem and Ramdas Pophale) SiO2 
 PCOD9539832
Probable space group: I M M A
;
_chemical_formula_sum "Si O2"
_cell_formula_units_Z 56
_cell_length_a 24.973682
_cell_length_b 23.724065
_cell_length_c 5.112130
_cell_angle_alpha 90.000000
_cell_angle_beta 90.000000
_cell_angle_gamma 90.000000
_cell_volume 3028.820750
_symmetry_space_group_name_H-M "I M M A"
_symmetry_group_IT_number 74
_symmetry_cell_setting 'orthorhombic'
loop_
_space_group_symop_operation_xyz
x,y,z
-x,1/2-y,z
x,-y,-z
-x,1/2+y,-z
-x,-y,-z
x,1/2+y,-z
-x,y,z
x,1/2-y,z
1/2+x,1/2+y,1/2+z
1/2-x,-y,1/2+z
1/2+x,1/2-y,1/2-z
1/2-x,y,1/2-z
1/2-x,1/2-y,1/2-z
1/2+x,y,1/2-z
1/2-x,1/2+y,1/2+z
1/2+x,-y,1/2+z
loop_
_atom_site_type_symbol
_atom_site_label
_atom_site_fract_x
_atom_site_fract_y
_atom_site_fract_z
Si Si1 0.873084 0.347105 0.616418
Si Si2 0.187007 0.460976 0.749119
Si Si3 0.062502 0.815693 0.867260
Si Si4 0.711686 0.750000 0.001932
O O1 0.847676 0.405103 0.717064
O O2 0.911411 0.352149 0.364310
O O3 0.826383 0.304566 0.522714
O O4 0.905849 0.322265 0.861467
O O5 0.177842 0.500000 0.500000
O O6 0.250000 0.444928 0.750000
O O7 0.176092 0.500000 0.000000
O O8 0.066583 0.750000 0.783851
O O9 0.000000 0.828887 0.904721
O O10 0.750000 0.750000 0.250000
O O11 0.750000 0.750000 0.750000
#
# Coordination Sequence:
#
# PCOD9539832 Si02
#       4
#    16  16  16   8
#     4  12  22  40  62  89 125 159 199 254 308 360
#     4  10  22  40  62  87 117 163 212 245 290 363
#     4  11  22  39  62  90 122 159 206 249 302 373
#     4  12  24  36  55  92 131 158 188 242 318 376
#
# _framework density 18.489044
#
# number of rings (size 3 to 8) (size 9 to 14) (size 15 to 20)
#    0.000    0.857    2.857    5.143    0.000    5.714 
#    0.000    0.000    0.000   17.143    0.000    0.000 
#    0.000    0.000    0.000    0.000    0.000    0.000 
#
# Total GULP energy -156516.269460 kJ/mol
# GULP energy per Si atom -5589.866766 kJ/mol
# Density = 1.844696 g / cm^3
# Si number density = 18.489044 Si / 1000 Ang^3
#
#
#
# Elastic Constant Matrix: (Units=GPa)
#
#
# Indices 1 2 3 4 5 6 
#
# 1 129.4349 69.2531 68.1721 0.0000 0.0000 0.0000
# 2 69.2531 96.1648 37.6585 0.0000 0.0000 0.0000
# 3 68.1721 37.6585 158.4090 0.0000 0.0000 0.0000
# 4 0.0000 0.0000 0.0000 -144.1496 0.0000 0.0000
# 5 0.0000 0.0000 0.0000 0.0000 33.5441 0.0000
# 6 0.0000 0.0000 0.0000 0.0000 0.0000 21.0298
#
#
#
# Elastic Compliance Matrix: (Units=1/GPa)
#
#
# Indices 1 2 3 4 5 6 
#
# 1 0.014742 -0.008967 -0.004213 0.000000 0.000000 0.000000
# 2 -0.008967 0.016920 -0.000163 0.000000 0.000000 0.000000
# 3 -0.004213 -0.000163 0.008165 0.000000 0.000000 0.000000
# 4 0.000000 0.000000 0.000000 -0.006937 0.000000 0.000000
# 5 0.000000 0.000000 0.000000 0.000000 0.029811 0.000000
# 6 0.000000 0.000000 0.000000 0.000000 0.000000 0.047552
#
#
# Mechanical properties :
#
#
# Convention : Reuss Voigt Hill
#
# Bulk Modulus (GPa) = 76.09795 81.57513 78.83654
# Shear Modulus (GPa) = 35.38064 -3.98681 15.69692
#
# Velocity S-wave (km/s) = 4.37922 -1.47003 2.91690
# Velocity P-wave (km/s) = 8.17422 6.42925 7.35368
#
# Compressibility (1/GPa) = 0.01314096
#
# Stress axis : x y z
#
# Youngs Moduli (GPa) = 67.83129 59.10006 122.47964
#
# Poissons Ratio (x) = 0.52995 0.51598
# Poissons Ratio (y) = 0.60825 0.02002
# Poissons Ratio (z) = 0.28576 0.00966
#
# Static dielectric constant tensor:
#      x y z
#    x 1.575450 0.000000 0.000000 
#    y 0.000000 1.588440 0.000000 
#    z 0.000000 0.000000 1.617670 
# 
# From -- ./inp_files/2825.got.cif
#   From: 2010.05.17/outbox.cif.g08.bks.cpg/sg74_2_cif.got.tgz:2825.got - 2010.06.03 17:57:02.
