data_PCOD9539156
_publ_section_title
;
Structure prediction by ZEFSAII (Michael W. Deem and Ramdas Pophale) SiO2 
 PCOD9539156
Probable space group: I M M A
;
_chemical_formula_sum "Si O2"
_cell_formula_units_Z 72
_cell_length_a 26.085795
_cell_length_b 17.466606
_cell_length_c 8.072354
_cell_angle_alpha 90.000000
_cell_angle_beta 90.000000
_cell_angle_gamma 90.000000
_cell_volume 3678.009103
_symmetry_space_group_name_H-M "I M M A"
_symmetry_group_IT_number 74
_symmetry_cell_setting 'orthorhombic'
loop_
_space_group_symop_operation_xyz
x,y,z
-x,1/2-y,z
x,-y,-z
-x,1/2+y,-z
-x,-y,-z
x,1/2+y,-z
-x,y,z
x,1/2-y,z
1/2+x,1/2+y,1/2+z
1/2-x,-y,1/2+z
1/2+x,1/2-y,1/2-z
1/2-x,y,1/2-z
1/2-x,1/2-y,1/2-z
1/2+x,y,1/2-z
1/2-x,1/2+y,1/2+z
1/2+x,-y,1/2+z
loop_
_atom_site_type_symbol
_atom_site_label
_atom_site_fract_x
_atom_site_fract_y
_atom_site_fract_z
Si Si1 0.250000 0.556321 0.250000
Si Si2 0.737480 0.836949 0.942878
Si Si3 0.057108 0.575218 0.382616
Si Si4 0.120322 0.335363 0.367702
Si Si5 0.643029 0.009163 0.306889
O O1 0.258097 0.607625 0.414762
O O2 0.302022 0.508473 0.223424
O O3 0.756451 0.750000 0.970848
O O4 0.750000 0.854642 0.750000
O O5 0.675889 0.836737 0.955606
O O6 0.054981 0.500000 0.500000
O O7 0.077219 0.643443 0.498456
O O8 0.100883 0.551963 0.253598
O O9 0.000000 0.588577 0.315892
O O10 0.113337 0.250000 0.297719
O O11 0.123831 0.405860 0.240145
O O12 0.649817 0.000000 0.500000
#
# Coordination Sequence:
#
# PCOD9539156 Si02
#       5
#     8  16  16  16  16
#     4  12  23  36  61  88 130 170 218 254 311 400
#     4  10  21  37  58  88 125 166 207 260 323 379
#     4   9  19  39  64  87 115 156 210 262 312 373
#     4  10  21  40  60  86 122 161 210 260 314 378
#     4  11  24  37  60  94 124 170 210 262 324 386
#
# _framework density 19.575809
#
# number of rings (size 3 to 8) (size 9 to 14) (size 15 to 20)
#    0.000    1.778    2.222    1.667    4.667    0.889 
#    0.000    2.222    0.000    0.000    0.000    0.000 
#    0.000    0.000    0.000    0.000    0.000    0.000 
#
# Total GULP energy -200943.519219 kJ/mol
# GULP energy per Si atom -5581.764423 kJ/mol
# Density = 1.953125 g / cm^3
# Si number density = 19.575809 Si / 1000 Ang^3
#
#
#
# Elastic Constant Matrix: (Units=GPa)
#
#
# Indices 1 2 3 4 5 6 
#
# 1 122.8236 28.8748 22.3898 0.0000 0.0000 0.0000
# 2 28.8748 127.6855 49.1337 0.0000 0.0000 0.0000
# 3 22.3898 49.1337 82.2956 0.0000 0.0000 0.0000
# 4 0.0000 0.0000 0.0000 14.0811 0.0000 0.0000
# 5 0.0000 0.0000 0.0000 0.0000 23.1820 0.0000
# 6 0.0000 0.0000 0.0000 0.0000 0.0000 8.7084
#
#
#
# Elastic Compliance Matrix: (Units=1/GPa)
#
#
# Indices 1 2 3 4 5 6 
#
# 1 0.008750 -0.001380 -0.001557 0.000000 0.000000 0.000000
# 2 -0.001380 0.010385 -0.005825 0.000000 0.000000 0.000000
# 3 -0.001557 -0.005825 0.016053 0.000000 0.000000 0.000000
# 4 0.000000 0.000000 0.000000 0.071017 0.000000 0.000000
# 5 0.000000 0.000000 0.000000 0.000000 0.043137 0.000000
# 6 0.000000 0.000000 0.000000 0.000000 0.000000 0.114831
#
#
# Mechanical properties :
#
#
# Convention : Reuss Voigt Hill
#
# Bulk Modulus (GPa) = 56.60994 59.28904 57.94949
# Shear Modulus (GPa) = 17.38620 24.68806 21.03713
#
# Velocity S-wave (km/s) = 2.98341 3.55512 3.28174
# Velocity P-wave (km/s) = 6.39130 6.87055 6.63526
#
# Compressibility (1/GPa) = 0.01766474
#
# Stress axis : x y z
#
# Youngs Moduli (GPa) = 114.28703 96.29076 62.29503
#
# Poissons Ratio (x) = 0.13284 0.09698
# Poissons Ratio (y) = 0.15767 0.36287
# Poissons Ratio (z) = 0.17793 0.56090
#
# Static dielectric constant tensor:
#      x y z
#    x 1.705170 0.000000 0.000000 
#    y 0.000000 1.736050 0.000000 
#    z 0.000000 0.000000 1.670750 
# 
# From -- ./inp_files/13477.got.cif
#   From: 2010.05.17/outbox.cif.g08.bks.cpg/sg74_7_cif.got.tgz:13477.got - 2010.06.03 17:57:02.
