data_PCOD9539783
_publ_section_title
;
Structure prediction by ZEFSAII (Michael W. Deem and Ramdas Pophale) SiO2 
 PCOD9539783
Probable space group: I M M A
;
_chemical_formula_sum "Si O2"
_cell_formula_units_Z 60
_cell_length_a 14.042603
_cell_length_b 25.004367
_cell_length_c 9.011131
_cell_angle_alpha 90.000000
_cell_angle_beta 90.000000
_cell_angle_gamma 90.000000
_cell_volume 3164.045979
_symmetry_space_group_name_H-M "I M M A"
_symmetry_group_IT_number 74
_symmetry_cell_setting 'orthorhombic'
loop_
_space_group_symop_operation_xyz
x,y,z
-x,1/2-y,z
x,-y,-z
-x,1/2+y,-z
-x,-y,-z
x,1/2+y,-z
-x,y,z
x,1/2-y,z
1/2+x,1/2+y,1/2+z
1/2-x,-y,1/2+z
1/2+x,1/2-y,1/2-z
1/2-x,y,1/2-z
1/2-x,1/2-y,1/2-z
1/2+x,y,1/2-z
1/2-x,1/2+y,1/2+z
1/2+x,-y,1/2+z
loop_
_atom_site_type_symbol
_atom_site_label
_atom_site_fract_x
_atom_site_fract_y
_atom_site_fract_z
Si Si1 0.000000 0.250000 0.968951
Si Si2 0.500000 0.435191 0.495530
Si Si3 0.800520 0.149075 0.591633
Si Si4 0.000000 0.649406 0.256464
Si Si5 0.791465 0.944208 0.912752
Si Si6 0.713816 0.750000 0.581151
O O1 0.000000 0.197883 0.862340
O O2 0.901194 0.250000 0.061510
O O3 0.500000 0.500000 0.500000
O O4 0.500000 0.404742 0.654932
O O5 0.399908 0.421305 0.416501
O O6 0.750000 0.145433 0.750000
O O7 0.909714 0.153596 0.636735
O O8 0.775768 0.096716 0.498918
O O9 0.757332 0.198754 0.502458
O O10 0.750000 0.952133 0.750000
O O11 0.792929 0.000000 0.000000
O O12 0.750000 0.750000 0.750000
#
# Coordination Sequence:
#
# PCOD9539783 Si02
#       6
#     4   8  16   8  16   8
#     4  12  22  42  70  98 136 182 220 264 350 392
#     4  10  22  39  64  91 132 174 216 273 347 389
#     4  12  23  43  67  98 130 174 225 271 330 396
#     4  12  24  40  72 100 131 179 227 279 331 408
#     4  11  24  42  66  95 132 173 221 276 336 399
#     4  12  26  43  69 102 142 175 220 276 333 399
#
# _framework density 18.963062000000001
#
# number of rings (size 3 to 8) (size 9 to 14) (size 15 to 20)
#    0.000    0.533    5.333    2.800    3.733    2.133 
#    0.000    1.333    0.000    0.000    0.000    0.000 
#    0.000    0.000    0.000    0.000    0.000    0.000 
#
# Total GULP energy -167627.763501 kJ/mol
# GULP energy per Si atom -5587.592117 kJ/mol
# Density = 1.891990 g / cm^3
# Si number density = 18.963062 Si / 1000 Ang^3
#
#
#
# Elastic Constant Matrix: (Units=GPa)
#
#
# Indices 1 2 3 4 5 6 
#
# 1 210.8901 30.0501 79.5425 -0.0015 0.0000 0.0000
# 2 30.0501 111.3161 54.1771 -0.0028 0.0000 -0.0001
# 3 79.5425 54.1771 163.5112 -0.0042 0.0000 -0.0001
# 4 -0.0015 -0.0028 -0.0042 -2.3836 -0.0004 0.0000
# 5 0.0000 0.0000 0.0000 -0.0004 26.0431 -0.0001
# 6 0.0000 -0.0001 -0.0001 0.0000 -0.0001 28.3102
#
#
#
# Elastic Compliance Matrix: (Units=1/GPa)
#
#
# Indices 1 2 3 4 5 6 
#
# 1 0.005812 -0.000230 -0.002751 0.000001 0.000000 0.000000
# 2 -0.000230 0.010720 -0.003440 -0.000006 0.000000 0.000000
# 3 -0.002751 -0.003440 0.008594 -0.000009 0.000000 0.000000
# 4 0.000001 -0.000006 -0.000009 -0.419525 -0.000006 0.000000
# 5 0.000000 0.000000 0.000000 -0.000006 0.038398 0.000000
# 6 0.000000 0.000000 0.000000 0.000000 0.000000 0.035323
#
#
# Mechanical properties :
#
#
# Convention : Reuss Voigt Hill
#
# Bulk Modulus (GPa) = 81.40973 90.36185 85.88579
# Shear Modulus (GPa) = -16.46136 31.85710 7.69787
#
# Velocity S-wave (km/s) = -2.94951 4.10317 2.01698
# Velocity P-wave (km/s) = 5.60575 8.37872 7.12837
#
# Compressibility (1/GPa) = 0.01228354
#
# Stress axis : x y z
#
# Youngs Moduli (GPa) = 172.04928 93.28601 116.36084
#
# Poissons Ratio (x) = 0.02146 0.32014
# Poissons Ratio (y) = 0.03957 0.40027
# Poissons Ratio (z) = 0.47335 0.32090
#
# Static dielectric constant tensor:
#      x y z
#    x 1.658970 0.000000 0.000000 
#    y 0.000000 1.699150 0.000000 
#    z 0.000000 0.000000 1.612620 
# 
# From -- ./inp_files/7173.got.cif
#   From: 2010.05.17/outbox.cif.g08.bks.cpg/sg74_4_cif.got.tgz:7173.got - 2010.06.03 17:57:02.
