data_PCOD9539903
_publ_section_title
;
Structure prediction by ZEFSAII (Michael W. Deem and Ramdas Pophale) SiO2 
 PCOD9539903
Probable space group: I M M A
;
_chemical_formula_sum "Si O2"
_cell_formula_units_Z 96
_cell_length_a 19.344748
_cell_length_b 17.273334
_cell_length_c 15.186657
_cell_angle_alpha 90.000000
_cell_angle_beta 90.000000
_cell_angle_gamma 90.000000
_cell_volume 5074.595518
_symmetry_space_group_name_H-M "I M M A"
_symmetry_group_IT_number 74
_symmetry_cell_setting 'orthorhombic'
loop_
_space_group_symop_operation_xyz
x,y,z
-x,1/2-y,z
x,-y,-z
-x,1/2+y,-z
-x,-y,-z
x,1/2+y,-z
-x,y,z
x,1/2-y,z
1/2+x,1/2+y,1/2+z
1/2-x,-y,1/2+z
1/2+x,1/2-y,1/2-z
1/2-x,y,1/2-z
1/2-x,1/2-y,1/2-z
1/2+x,y,1/2-z
1/2-x,1/2+y,1/2+z
1/2+x,-y,1/2+z
loop_
_atom_site_type_symbol
_atom_site_label
_atom_site_fract_x
_atom_site_fract_y
_atom_site_fract_z
Si Si1 0.580925 0.842698 0.374031
Si Si2 0.159986 0.660269 0.487868
Si Si3 0.689019 0.408503 0.487536
Si Si4 0.081765 0.581289 0.647659
Si Si5 0.174834 0.341767 0.205281
Si Si6 0.918346 0.398369 0.678174
O O1 0.500000 0.860859 0.389993
O O2 0.588325 0.750000 0.372332
O O3 0.629144 0.878104 0.448586
O O4 0.599515 0.876113 0.278013
O O5 0.156248 0.750000 0.514522
O O6 0.238953 0.632862 0.488698
O O7 0.117756 0.609419 0.558185
O O8 0.126222 0.647723 0.392714
O O9 0.697001 0.500000 0.500000
O O10 0.672487 0.386371 0.386923
O O11 0.117864 0.626545 0.727490
O O12 0.092082 0.489654 0.661733
O O13 0.000000 0.596419 0.644023
O O14 0.166286 0.250000 0.190068
O O15 0.250000 0.353565 0.250000
O O16 0.000000 0.381053 0.665630
#
# Coordination Sequence:
#
# PCOD9539903 Si02
#       6
#    16  16  16  16  16  16
#     4  10  22  42  66  92 124 162 206 257 312 372
#     4  12  24  39  61  92 128 166 211 258 313 376
#     4  12  25  42  65  93 124 165 209 259 313 371
#     4  11  23  40  64  94 125 162 212 261 308 376
#     4  11  23  41  63  88 125 167 203 251 314 371
#     4  10  22  41  63  91 128 166 205 257 317 369
#
# _framework density 18.917764999999999
#
# number of rings (size 3 to 8) (size 9 to 14) (size 15 to 20)
#    0.000    1.000    1.667    5.500    0.000    6.000 
#    0.000    1.667    0.000    0.000    0.000    0.000 
#    0.000    0.000    0.000    0.000    0.000    0.000 
#
# Total GULP energy -268586.027120 kJ/mol
# GULP energy per Si atom -5595.542232 kJ/mol
# Density = 1.887471 g / cm^3
# Si number density = 18.917765 Si / 1000 Ang^3
#
#
#
# Elastic Constant Matrix: (Units=GPa)
#
#
# Indices 1 2 3 4 5 6 
#
# 1 71.1884 22.3367 38.5098 0.0000 0.0000 0.0000
# 2 22.3367 54.6620 14.4922 0.0000 0.0000 0.0000
# 3 38.5098 14.4922 108.1178 0.0000 0.0000 0.0000
# 4 0.0000 0.0000 0.0000 37.1468 0.0000 0.0000
# 5 0.0000 0.0000 0.0000 0.0000 37.7030 0.0000
# 6 0.0000 0.0000 0.0000 0.0000 0.0000 22.3929
#
#
#
# Elastic Compliance Matrix: (Units=1/GPa)
#
#
# Indices 1 2 3 4 5 6 
#
# 1 0.019277 -0.006280 -0.006024 0.000000 0.000000 0.000000
# 2 -0.006280 0.021014 -0.000580 0.000000 0.000000 0.000000
# 3 -0.006024 -0.000580 0.011473 0.000000 0.000000 0.000000
# 4 0.000000 0.000000 0.000000 0.026920 0.000000 0.000000
# 5 0.000000 0.000000 0.000000 0.000000 0.026523 0.000000
# 6 0.000000 0.000000 0.000000 0.000000 0.000000 0.044657
#
#
# Mechanical properties :
#
#
# Convention : Reuss Voigt Hill
#
# Bulk Modulus (GPa) = 38.46864 42.73841 40.60352
# Shear Modulus (GPa) = 27.13015 30.02384 28.57700
#
# Velocity S-wave (km/s) = 3.79107 3.98813 3.89085
# Velocity P-wave (km/s) = 6.28823 6.62175 6.45714
#
# Compressibility (1/GPa) = 0.02599520
#
# Stress axis : x y z
#
# Youngs Moduli (GPa) = 51.87660 47.58695 87.16392
#
# Poissons Ratio (x) = 0.29884 0.52509
# Poissons Ratio (y) = 0.32578 0.05055
# Poissons Ratio (z) = 0.31252 0.02760
#
# Static dielectric constant tensor:
#      x y z
#    x 1.627200 0.000000 0.000000 
#    y 0.000000 1.637000 0.000000 
#    z 0.000000 0.000000 1.623270 
# 
# From -- ./inp_files/32354.got.cif
#   From: 2010.05.17/outbox.cif.g08.bks.cpg/sg74_17_cif.got.tgz:32354.got - 2010.06.03 17:57:02.
