data_PCOD9539399
_publ_section_title
;
Structure prediction by ZEFSAII (Michael W. Deem and Ramdas Pophale) SiO2 
 PCOD9539399
Probable space group: I M M A
;
_chemical_formula_sum "Si O2"
_cell_formula_units_Z 112
_cell_length_a 26.393761
_cell_length_b 16.274580
_cell_length_c 11.889016
_cell_angle_alpha 90.000000
_cell_angle_beta 90.000000
_cell_angle_gamma 90.000000
_cell_volume 5106.895613
_symmetry_space_group_name_H-M "I M M A"
_symmetry_group_IT_number 74
_symmetry_cell_setting 'orthorhombic'
loop_
_space_group_symop_operation_xyz
x,y,z
-x,1/2-y,z
x,-y,-z
-x,1/2+y,-z
-x,-y,-z
x,1/2+y,-z
-x,y,z
x,1/2-y,z
1/2+x,1/2+y,1/2+z
1/2-x,-y,1/2+z
1/2+x,1/2-y,1/2-z
1/2-x,y,1/2-z
1/2-x,1/2-y,1/2-z
1/2+x,y,1/2-z
1/2-x,1/2+y,1/2+z
1/2+x,-y,1/2+z
loop_
_atom_site_type_symbol
_atom_site_label
_atom_site_fract_x
_atom_site_fract_y
_atom_site_fract_z
Si Si1 0.944617 0.069619 0.905007
Si Si2 0.056941 0.485967 0.337820
Si Si3 0.215047 0.840166 0.589420
Si Si4 0.651277 0.425543 0.917489
Si Si5 0.653984 0.155638 0.683405
Si Si6 0.125060 0.656216 0.758800
Si Si7 0.184518 0.407940 0.035906
O O1 0.899044 0.131910 0.878650
O O2 0.000000 0.108573 0.928001
O O3 0.947647 0.022251 0.787067
O O4 0.937073 0.000000 0.000000
O O5 0.091338 0.552347 0.405620
O O6 0.088884 0.403050 0.314169
O O7 0.000000 0.472167 0.380246
O O8 0.239037 0.750000 0.587740
O O9 0.176323 0.851213 0.485160
O O10 0.178591 0.845785 0.695362
O O11 0.260743 0.903634 0.593179
O O12 0.664512 0.407400 0.786486
O O13 0.669539 0.500000 0.000000
O O14 0.653166 0.250000 0.722305
O O15 0.691724 0.142892 0.579564
O O16 0.106366 0.750000 0.763026
O O17 0.140319 0.624473 0.882358
O O18 0.172985 0.500000 0.000000
#
# Coordination Sequence:
#
# PCOD9539399 Si02
#       7
#    16  16  16  16  16  16  16
#     4   9  18  35  60  90 127 168 211 262 323 398
#     4  10  21  38  65  96 126 168 220 268 326 399
#     4  11  24  43  66  93 128 175 224 273 332 396
#     4  11  22  42  64  89 129 170 223 270 335 395
#     4  11  23  39  62  93 131 169 216 278 339 395
#     4  11  23  42  66  94 135 173 215 274 336 398
#     4  12  25  41  66  97 130 171 223 276 334 409
#
# _framework density 21.931132000000002
#
# number of rings (size 3 to 8) (size 9 to 14) (size 15 to 20)
#    0.000    1.286    1.429    5.571    0.000    2.571 
#    2.571    1.429    0.000    5.571    0.000    0.000 
#    0.000    0.000    0.000    0.000    0.000    0.000 
#
# Total GULP energy -312139.893832 kJ/mol
# GULP energy per Si atom -5573.926676 kJ/mol
# Density = 2.188122 g / cm^3
# Si number density = 21.931132 Si / 1000 Ang^3
#
#
#
# Elastic Constant Matrix: (Units=GPa)
#
#
# Indices 1 2 3 4 5 6 
#
# 1 67.6659 27.7043 8.3694 0.0000 0.0000 0.0000
# 2 27.7043 68.9864 6.5005 0.0000 0.0000 0.0000
# 3 8.3694 6.5005 107.9019 0.0000 0.0000 0.0000
# 4 0.0000 0.0000 0.0000 29.4731 0.0000 0.0000
# 5 0.0000 0.0000 0.0000 0.0000 19.8110 0.0000
# 6 0.0000 0.0000 0.0000 0.0000 0.0000 11.5997
#
#
#
# Elastic Compliance Matrix: (Units=1/GPa)
#
#
# Indices 1 2 3 4 5 6 
#
# 1 0.017784 -0.007052 -0.000955 0.000000 0.000000 0.000000
# 2 -0.007052 0.017375 -0.000500 0.000000 0.000000 0.000000
# 3 -0.000955 -0.000500 0.009372 0.000000 0.000000 0.000000
# 4 0.000000 0.000000 0.000000 0.033929 0.000000 0.000000
# 5 0.000000 0.000000 0.000000 0.000000 0.050477 0.000000
# 6 0.000000 0.000000 0.000000 0.000000 0.000000 0.086209
#
#
# Mechanical properties :
#
#
# Convention : Reuss Voigt Hill
#
# Bulk Modulus (GPa) = 36.33996 36.63364 36.48680
# Shear Modulus (GPa) = 20.71847 25.64210 23.18028
#
# Velocity S-wave (km/s) = 3.07694 3.42308 3.25462
# Velocity P-wave (km/s) = 5.40642 5.68889 5.54946
#
# Compressibility (1/GPa) = 0.02751792
#
# Stress axis : x y z
#
# Youngs Moduli (GPa) = 56.23098 57.55512 106.70284
#
# Poissons Ratio (x) = 0.40587 0.10186
# Poissons Ratio (y) = 0.39653 0.05332
# Poissons Ratio (z) = 0.05368 0.02876
#
# Static dielectric constant tensor:
#      x y z
#    x 1.830790 0.000000 0.000000 
#    y 0.000000 1.821890 0.000000 
#    z 0.000000 0.000000 1.857620 
# 
# From -- ./inp_files/27227.got.cif
#   From: 2010.05.17/outbox.cif.g08.bks.cpg/sg74_14_cif.got.tgz:27227.got - 2010.06.03 17:57:02.
