data_PCOD9539583
_publ_section_title
;
Structure prediction by ZEFSAII (Michael W. Deem and Ramdas Pophale) SiO2 
 PCOD9539583
Probable space group: I M M A
;
_chemical_formula_sum "Si O2"
_cell_formula_units_Z 80
_cell_length_a 24.970344
_cell_length_b 18.989845
_cell_length_c 9.049295
_cell_angle_alpha 90.000000
_cell_angle_beta 90.000000
_cell_angle_gamma 90.000000
_cell_volume 4291.021509
_symmetry_space_group_name_H-M "I M M A"
_symmetry_group_IT_number 74
_symmetry_cell_setting 'orthorhombic'
loop_
_space_group_symop_operation_xyz
x,y,z
-x,1/2-y,z
x,-y,-z
-x,1/2+y,-z
-x,-y,-z
x,1/2+y,-z
-x,y,z
x,1/2-y,z
1/2+x,1/2+y,1/2+z
1/2-x,-y,1/2+z
1/2+x,1/2-y,1/2-z
1/2-x,y,1/2-z
1/2-x,1/2-y,1/2-z
1/2+x,y,1/2-z
1/2-x,1/2+y,1/2+z
1/2+x,-y,1/2+z
loop_
_atom_site_type_symbol
_atom_site_label
_atom_site_fract_x
_atom_site_fract_y
_atom_site_fract_z
Si Si1 0.211771 0.330403 0.892346
Si Si2 0.779197 0.431122 0.399744
Si Si3 0.000000 0.060433 0.226934
Si Si4 0.500000 0.100100 0.615716
Si Si5 0.102737 0.165821 0.740354
Si Si6 0.399786 0.079664 0.062236
O O1 0.203154 0.250000 0.943669
O O2 0.250000 0.328723 0.750000
O O3 0.155681 0.359447 0.828885
O O4 0.242743 0.374469 0.015325
O O5 0.782328 0.500000 0.500000
O O6 0.750000 0.450156 0.250000
O O7 0.840421 0.407702 0.372574
O O8 0.947740 0.084382 0.319685
O O9 0.000000 0.975444 0.201449
O O10 0.000000 0.088983 0.060030
O O11 0.448183 0.142781 0.665945
O O12 0.107012 0.250000 0.724385
O O13 0.096654 0.130606 0.579544
O O14 0.402669 0.000000 0.000000
#
# Coordination Sequence:
#
# PCOD9539583 Si02
#       6
#    16  16   8   8  16  16
#     4  10  21  41  65  91 126 166 207 251 308 376
#     4  11  25  38  62  96 129 163 206 261 314 372
#     4  11  24  40  64  95 126 162 205 269 317 370
#     4  11  24  41  63  96 125 162 212 260 324 372
#     4  11  23  42  68  92 125 170 213 257 310 380
#     4  11  22  41  64  93 124 165 211 258 308 378
#
# _framework density 18.643581000000001
#
# number of rings (size 3 to 8) (size 9 to 14) (size 15 to 20)
#    0.000    1.200    4.000    1.800    5.600    0.400 
#    0.000    2.000    0.000    0.000    0.000    0.000 
#    0.000    0.000    0.000    0.000    0.000    0.000 
#
# Total GULP energy -223381.822297 kJ/mol
# GULP energy per Si atom -5584.545557 kJ/mol
# Density = 1.860115 g / cm^3
# Si number density = 18.643581 Si / 1000 Ang^3
#
#
#
# Elastic Constant Matrix: (Units=GPa)
#
#
# Indices 1 2 3 4 5 6 
#
# 1 187.8547 30.3454 81.8372 0.0000 0.0000 0.0000
# 2 30.3454 55.0323 23.7456 0.0000 0.0000 0.0000
# 3 81.8372 23.7456 95.6008 0.0000 0.0000 0.0000
# 4 0.0000 0.0000 0.0000 31.8687 0.0000 0.0000
# 5 0.0000 0.0000 0.0000 0.0000 27.4333 0.0000
# 6 0.0000 0.0000 0.0000 0.0000 0.0000 27.1009
#
#
#
# Elastic Compliance Matrix: (Units=1/GPa)
#
#
# Indices 1 2 3 4 5 6 
#
# 1 0.008639 -0.001761 -0.006958 0.000000 0.000000 0.000000
# 2 -0.001761 0.020712 -0.003637 0.000000 0.000000 0.000000
# 3 -0.006958 -0.003637 0.017319 0.000000 0.000000 0.000000
# 4 0.000000 0.000000 0.000000 0.031379 0.000000 0.000000
# 5 0.000000 0.000000 0.000000 0.000000 0.036452 0.000000
# 6 0.000000 0.000000 0.000000 0.000000 0.000000 0.036899
#
#
# Mechanical properties :
#
#
# Convention : Reuss Voigt Hill
#
# Bulk Modulus (GPa) = 45.54034 67.81602 56.67818
# Shear Modulus (GPa) = 27.25833 30.78457 29.02145
#
# Velocity S-wave (km/s) = 3.82786 4.06792 3.94972
# Velocity P-wave (km/s) = 6.63449 7.64970 7.16011
#
# Compressibility (1/GPa) = 0.02195856
#
# Stress axis : x y z
#
# Youngs Moduli (GPa) = 115.75676 48.28224 57.73902
#
# Poissons Ratio (x) = 0.08505 0.40172
# Poissons Ratio (y) = 0.20390 0.20997
# Poissons Ratio (z) = 0.80539 0.17558
#
# Static dielectric constant tensor:
#      x y z
#    x 1.676460 0.000000 0.000000 
#    y 0.000000 1.645780 0.000000 
#    z 0.000000 0.000000 1.609370 
# 
# From -- ./inp_files/14972.got.cif
#   From: 2010.05.17/outbox.cif.g08.bks.cpg/sg74_8_cif.got.tgz:14972.got - 2010.06.03 17:57:02.
