data_PCOD9539150
_publ_section_title
;
Structure prediction by ZEFSAII (Michael W. Deem and Ramdas Pophale) SiO2 
 PCOD9539150
Probable space group: I M M A
;
_chemical_formula_sum "Si O2"
_cell_formula_units_Z 112
_cell_length_a 16.752549
_cell_length_b 25.708885
_cell_length_c 12.618136
_cell_angle_alpha 90.000000
_cell_angle_beta 90.000000
_cell_angle_gamma 90.000000
_cell_volume 5434.496864
_symmetry_space_group_name_H-M "I M M A"
_symmetry_group_IT_number 74
_symmetry_cell_setting 'orthorhombic'
loop_
_space_group_symop_operation_xyz
x,y,z
-x,1/2-y,z
x,-y,-z
-x,1/2+y,-z
-x,-y,-z
x,1/2+y,-z
-x,y,z
x,1/2-y,z
1/2+x,1/2+y,1/2+z
1/2-x,-y,1/2+z
1/2+x,1/2-y,1/2-z
1/2-x,y,1/2-z
1/2-x,1/2-y,1/2-z
1/2+x,y,1/2-z
1/2-x,1/2+y,1/2+z
1/2+x,-y,1/2+z
loop_
_atom_site_type_symbol
_atom_site_label
_atom_site_fract_x
_atom_site_fract_y
_atom_site_fract_z
Si Si1 0.903171 0.516384 0.187054
Si Si2 0.846909 0.192449 0.757507
Si Si3 0.662701 0.691235 0.804702
Si Si4 0.405989 0.104140 0.342528
Si Si5 0.592294 0.958991 0.078982
Si Si6 0.654293 0.146441 0.963332
Si Si7 0.666515 0.890304 0.431844
O O1 0.882115 0.455406 0.183446
O O2 0.876484 0.538970 0.301344
O O3 0.860078 0.551822 0.100081
O O4 0.000000 0.521454 0.173639
O O5 0.873562 0.250000 0.789734
O O6 0.750000 0.193400 0.750000
O O7 0.873607 0.178892 0.638687
O O8 0.868821 0.148854 0.843197
O O9 0.631279 0.750000 0.788215
O O10 0.750000 0.689457 0.750000
O O11 0.614403 0.645115 0.748728
O O12 0.835042 0.679021 0.570005
O O13 0.500000 0.103188 0.360308
O O14 0.364365 0.121290 0.450999
O O15 0.500000 0.974817 0.092967
O O16 0.596827 0.902790 0.026391
O O17 0.632059 0.000000 0.000000
O O18 0.739115 0.119858 0.933926
#
# Coordination Sequence:
#
# PCOD9539150 Si02
#       7
#    16  16  16  16  16  16  16
#     4  10  21  39  61  88 130 171 204 253 316 383
#     4   9  19  35  58  88 122 160 201 245 304 367
#     4  11  24  44  66  91 125 165 210 259 316 371
#     4  11  24  43  65  92 126 166 211 255 314 381
#     4  10  21  37  58  86 123 167 206 248 308 372
#     4  11  21  39  63  92 121 159 205 266 308 364
#     4  11  21  37  61  97 125 162 207 255 313 375
#
# _framework density 20.609083999999999
#
# number of rings (size 3 to 8) (size 9 to 14) (size 15 to 20)
#    0.000    1.571    2.857    2.143    0.000    5.429 
#    2.571    0.000    0.000    4.286    0.000    0.000 
#    0.000    0.000    0.000    0.000    0.000    0.000 
#
# Total GULP energy -312668.580184 kJ/mol
# GULP energy per Si atom -5583.367503 kJ/mol
# Density = 2.056218 g / cm^3
# Si number density = 20.609084 Si / 1000 Ang^3
#
#
#
# Elastic Constant Matrix: (Units=GPa)
#
#
# Indices 1 2 3 4 5 6 
#
# 1 18.3424 8.6581 2.5784 0.0000 0.0000 0.0000
# 2 8.6581 122.8615 27.2116 0.0000 0.0000 0.0000
# 3 2.5784 27.2116 94.8817 0.0000 0.0000 0.0000
# 4 0.0000 0.0000 0.0000 30.8479 0.0000 0.0000
# 5 0.0000 0.0000 0.0000 0.0000 17.9778 0.0000
# 6 0.0000 0.0000 0.0000 0.0000 0.0000 22.0673
#
#
#
# Elastic Compliance Matrix: (Units=1/GPa)
#
#
# Indices 1 2 3 4 5 6 
#
# 1 0.056410 -0.003882 -0.000419 0.000000 0.000000 0.000000
# 2 -0.003882 0.008959 -0.002464 0.000000 0.000000 0.000000
# 3 -0.000419 -0.002464 0.011257 0.000000 0.000000 0.000000
# 4 0.000000 0.000000 0.000000 0.032417 0.000000 0.000000
# 5 0.000000 0.000000 0.000000 0.000000 0.055624 0.000000
# 6 0.000000 0.000000 0.000000 0.000000 0.000000 0.045316
#
#
# Mechanical properties :
#
#
# Convention : Reuss Voigt Hill
#
# Bulk Modulus (GPa) = 15.84918 34.77577 25.31247
# Shear Modulus (GPa) = 20.44607 27.35444 23.90025
#
# Velocity S-wave (km/s) = 3.15316 3.64717 3.40912
# Velocity P-wave (km/s) = 4.57861 5.88612 5.27305
#
# Compressibility (1/GPa) = 0.06309475
#
# Stress axis : x y z
#
# Youngs Moduli (GPa) = 17.72737 111.62559 88.83023
#
# Poissons Ratio (x) = 0.43337 0.03726
# Poissons Ratio (y) = 0.06882 0.21886
# Poissons Ratio (z) = 0.00744 0.27502
#
# Static dielectric constant tensor:
#      x y z
#    x 1.754210 0.000000 0.000000 
#    y 0.000000 1.733190 0.000000 
#    z 0.000000 0.000000 1.757470 
# 
# From -- ./inp_files/24166.got.cif
#   From: 2010.05.17/outbox.cif.g08.bks.cpg/sg74_13_cif.got.tgz:24166.got - 2010.06.03 17:57:02.
