data_PCOD9539115
_publ_section_title
;
Structure prediction by ZEFSAII (Michael W. Deem and Ramdas Pophale) SiO2 
 PCOD9539115
Probable space group: I M M A
;
_chemical_formula_sum "Si O2"
_cell_formula_units_Z 112
_cell_length_a 28.663318
_cell_length_b 14.769490
_cell_length_c 12.305783
_cell_angle_alpha 90.000000
_cell_angle_beta 90.000000
_cell_angle_gamma 90.000000
_cell_volume 5209.562030
_symmetry_space_group_name_H-M "I M M A"
_symmetry_group_IT_number 74
_symmetry_cell_setting 'orthorhombic'
loop_
_space_group_symop_operation_xyz
x,y,z
-x,1/2-y,z
x,-y,-z
-x,1/2+y,-z
-x,-y,-z
x,1/2+y,-z
-x,y,z
x,1/2-y,z
1/2+x,1/2+y,1/2+z
1/2-x,-y,1/2+z
1/2+x,1/2-y,1/2-z
1/2-x,y,1/2-z
1/2-x,1/2-y,1/2-z
1/2+x,y,1/2-z
1/2-x,1/2+y,1/2+z
1/2+x,-y,1/2+z
loop_
_atom_site_type_symbol
_atom_site_label
_atom_site_fract_x
_atom_site_fract_y
_atom_site_fract_z
Si Si1 0.053052 0.974623 0.737833
Si Si2 0.204735 0.894763 0.508229
Si Si3 0.200045 0.852836 0.263806
Si Si4 0.365568 0.146354 0.198129
Si Si5 0.947466 0.355395 0.044755
Si Si6 0.214691 0.641068 0.845963
Si Si7 0.102461 0.858149 0.176288
O O1 0.092194 0.920298 0.671425
O O2 0.055739 0.922982 0.854671
O O3 0.000000 0.966638 0.698555
O O4 0.068045 0.078107 0.755475
O O5 0.193229 0.851869 0.392807
O O6 0.172653 0.854263 0.602562
O O7 0.259116 0.885554 0.543537
O O8 0.193961 0.000000 0.500000
O O9 0.204633 0.750000 0.220924
O O10 0.250000 0.900243 0.250000
O O11 0.154697 0.889982 0.204919
O O12 0.381339 0.250000 0.212958
O O13 0.336930 0.114757 0.306227
O O14 0.943669 0.250000 0.079743
O O15 0.000000 0.366197 0.997442
O O16 0.910674 0.370759 0.949559
O O17 0.213711 0.750000 0.845816
O O18 0.250000 0.611409 0.750000
O O19 0.098479 0.750000 0.200000
#
# Coordination Sequence:
#
# PCOD9539115 Si02
#       7
#    16  16  16  16  16  16  16
#     4  11  22  36  58  88 117 146 191 249 300 348
#     4  11  21  34  57  85 116 153 191 234 283 340
#     4  10  22  39  57  79 110 148 189 230 272 327
#     4  10  21  38  60  85 117 156 196 241 296 353
#     4   9  18  34  57  85 116 150 188 233 289 346
#     4   8  16  33  56  81 108 143 187 230 276 334
#     4  10  21  37  57  82 116 157 194 231 287 356
#
# _framework density 21.498927999999999
#
# number of rings (size 3 to 8) (size 9 to 14) (size 15 to 20)
#    0.000    2.143    0.000    4.286    0.000    6.857 
#    0.000    2.857    0.000    4.714    0.000    6.000 
#    0.000    0.000    0.000    0.000    0.000    0.000 
#
# Total GULP energy -312621.187049 kJ/mol
# GULP energy per Si atom -5582.521197 kJ/mol
# Density = 2.145000 g / cm^3
# Si number density = 21.498928 Si / 1000 Ang^3
#
#
#
# Elastic Constant Matrix: (Units=GPa)
#
#
# Indices 1 2 3 4 5 6 
#
# 1 123.5543 12.9557 29.1676 0.0000 0.0000 0.0000
# 2 12.9557 91.6527 -9.2115 0.0000 0.0000 0.0000
# 3 29.1676 -9.2115 50.4634 0.0000 0.0000 0.0000
# 4 0.0000 0.0000 0.0000 33.2100 0.0000 0.0000
# 5 0.0000 0.0000 0.0000 0.0000 29.3874 0.0000
# 6 0.0000 0.0000 0.0000 0.0000 0.0000 43.0760
#
#
#
# Elastic Compliance Matrix: (Units=1/GPa)
#
#
# Indices 1 2 3 4 5 6 
#
# 1 0.009710 -0.001973 -0.005973 0.000000 0.000000 0.000000
# 2 -0.001973 0.011516 0.003242 0.000000 0.000000 0.000000
# 3 -0.005973 0.003242 0.023860 0.000000 0.000000 0.000000
# 4 0.000000 0.000000 0.000000 0.030111 0.000000 0.000000
# 5 0.000000 0.000000 0.000000 0.000000 0.034028 0.000000
# 6 0.000000 0.000000 0.000000 0.000000 0.000000 0.023215
#
#
# Mechanical properties :
#
#
# Convention : Reuss Voigt Hill
#
# Bulk Modulus (GPa) = 28.02704 36.83263 32.42984
# Shear Modulus (GPa) = 32.52231 36.65194 34.58713
#
# Velocity S-wave (km/s) = 3.89362 4.13343 4.01532
# Velocity P-wave (km/s) = 5.76875 6.32059 6.05096
#
# Compressibility (1/GPa) = 0.03567982
#
# Stress axis : x y z
#
# Youngs Moduli (GPa) = 102.98155 86.83940 41.91040
#
# Poissons Ratio (x) = 0.17133 0.25032
# Poissons Ratio (y) = 0.20317 -0.13589
# Poissons Ratio (z) = 0.61508 -0.28157
#
# Static dielectric constant tensor:
#      x y z
#    x 1.827470 0.000000 0.000000 
#    y 0.000000 1.788690 0.000000 
#    z 0.000000 0.000000 1.789370 
# 
# From -- ./inp_files/27252.got.cif
#   From: 2010.05.17/outbox.cif.g08.bks.cpg/sg74_14_cif.got.tgz:27252.got - 2010.06.03 17:57:02.
