data_PCOD9539849
_publ_section_title
;
Structure prediction by ZEFSAII (Michael W. Deem and Ramdas Pophale) SiO2 
 PCOD9539849
Probable space group: I M M A
;
_chemical_formula_sum "Si O2"
_cell_formula_units_Z 60
_cell_length_a 12.251345
_cell_length_b 7.392523
_cell_length_c 30.142889
_cell_angle_alpha 90.000000
_cell_angle_beta 90.000000
_cell_angle_gamma 90.000000
_cell_volume 2729.991712
_symmetry_space_group_name_H-M "I M M A"
_symmetry_group_IT_number 74
_symmetry_cell_setting 'orthorhombic'
loop_
_space_group_symop_operation_xyz
x,y,z
-x,1/2-y,z
x,-y,-z
-x,1/2+y,-z
-x,-y,-z
x,1/2+y,-z
-x,y,z
x,1/2-y,z
1/2+x,1/2+y,1/2+z
1/2-x,-y,1/2+z
1/2+x,1/2-y,1/2-z
1/2-x,y,1/2-z
1/2-x,1/2-y,1/2-z
1/2+x,y,1/2-z
1/2-x,1/2+y,1/2+z
1/2+x,-y,1/2+z
loop_
_atom_site_type_symbol
_atom_site_label
_atom_site_fract_x
_atom_site_fract_y
_atom_site_fract_z
Si Si1 0.762523 0.533858 0.447824
Si Si2 0.807257 0.957673 0.703607
Si Si3 0.877169 0.469642 0.867866
Si Si4 0.500000 0.750000 0.190021
Si Si5 0.000000 0.965706 0.446998
O O1 0.747839 0.500000 0.500000
O O2 0.768421 0.750000 0.443220
O O3 0.666104 0.471359 0.416225
O O4 0.882055 0.463393 0.432187
O O5 0.845216 0.750000 0.707729
O O6 0.750000 0.011001 0.750000
O O7 0.711835 0.967690 0.667165
O O8 0.904026 0.092486 0.691390
O O9 0.878275 0.250000 0.866670
O O10 0.000000 0.530979 0.858731
O O11 0.000000 0.750000 0.438027
O O12 0.000000 0.000000 0.500000
#
# Coordination Sequence:
#
# PCOD9539849 Si02
#       5
#    16  16  16   4   8
#     4   9  18  33  54  86 121 169 222 277 335 405
#     4  11  26  45  71 106 138 177 231 282 336 412
#     4  10  22  40  63  92 131 181 230 279 345 414
#     4  12  24  46  74 102 140 186 216 288 346 404
#     4   8  14  27  48  72 107 148 201 259 319 371
#
# _framework density 21.978089000000001
#
# number of rings (size 3 to 8) (size 9 to 14) (size 15 to 20)
#    0.000    2.133    1.333    0.800    1.867    3.200 
#    2.400    0.000    0.000    3.200    0.000    0.000 
#    0.000    0.000    0.000    0.000    0.000    0.000 
#
# Total GULP energy -167038.190577 kJ/mol
# GULP energy per Si atom -5567.939686 kJ/mol
# Density = 2.192807 g / cm^3
# Si number density = 21.978089 Si / 1000 Ang^3
#
#
#
# Elastic Constant Matrix: (Units=GPa)
#
#
# Indices 1 2 3 4 5 6 
#
# 1 192.4015 47.1983 59.9229 0.0000 0.0000 0.0000
# 2 47.1983 105.0096 1.1223 0.0000 0.0000 0.0000
# 3 59.9229 1.1223 88.7434 0.0000 0.0000 0.0000
# 4 0.0000 0.0000 0.0000 13.1949 0.0000 0.0000
# 5 0.0000 0.0000 0.0000 0.0000 -8.1342 0.0000
# 6 0.0000 0.0000 0.0000 0.0000 0.0000 -1.1668
#
#
#
# Elastic Compliance Matrix: (Units=1/GPa)
#
#
# Indices 1 2 3 4 5 6 
#
# 1 0.007610 -0.003366 -0.005096 0.000000 0.000000 0.000000
# 2 -0.003366 0.011013 0.002134 0.000000 0.000000 0.000000
# 3 -0.005096 0.002134 0.014683 0.000000 0.000000 0.000000
# 4 0.000000 0.000000 0.000000 0.075787 0.000000 0.000000
# 5 0.000000 0.000000 0.000000 0.000000 -0.122938 0.000000
# 6 0.000000 0.000000 0.000000 0.000000 0.000000 -0.857044
#
#
# Mechanical properties :
#
#
# Convention : Reuss Voigt Hill
#
# Bulk Modulus (GPa) = 48.42924 66.96016 57.69470
# Shear Modulus (GPa) = -5.87304 19.30618 6.71657
#
# Velocity S-wave (km/s) = -1.63647 2.96705 1.75005
# Velocity P-wave (km/s) = 4.30260 6.50159 5.51285
#
# Compressibility (1/GPa) = 0.02064868
#
# Stress axis : x y z
#
# Youngs Moduli (GPa) = 131.39821 90.80080 68.10747
#
# Poissons Ratio (x) = 0.30565 0.34710
# Poissons Ratio (y) = 0.44231 -0.14532
# Poissons Ratio (z) = 0.66964 -0.19374
#
# Static dielectric constant tensor:
#      x y z
#    x 1.779250 0.000000 0.000000 
#    y 0.000000 1.798280 0.000000 
#    z 0.000000 0.000000 1.842990 
# 
# From -- ./inp_files/65524.got.cif
#   From: 2010.05.17/outbox.cif.g08.bks.cpg/sg74_33_cif.got.tgz:65524.got - 2010.06.03 17:57:02.
