data_PCOD9539891
_publ_section_title
;
Structure prediction by ZEFSAII (Michael W. Deem and Ramdas Pophale) SiO2 
 PCOD9539891
Probable space group: I M M A
;
_chemical_formula_sum "Si O2"
_cell_formula_units_Z 96
_cell_length_a 8.791339
_cell_length_b 23.598808
_cell_length_c 24.673755
_cell_angle_alpha 90.000000
_cell_angle_beta 90.000000
_cell_angle_gamma 90.000000
_cell_volume 5118.943570
_symmetry_space_group_name_H-M "I M M A"
_symmetry_group_IT_number 74
_symmetry_cell_setting 'orthorhombic'
loop_
_space_group_symop_operation_xyz
x,y,z
-x,1/2-y,z
x,-y,-z
-x,1/2+y,-z
-x,-y,-z
x,1/2+y,-z
-x,y,z
x,1/2-y,z
1/2+x,1/2+y,1/2+z
1/2-x,-y,1/2+z
1/2+x,1/2-y,1/2-z
1/2-x,y,1/2-z
1/2-x,1/2-y,1/2-z
1/2+x,y,1/2-z
1/2-x,1/2+y,1/2+z
1/2+x,-y,1/2+z
loop_
_atom_site_type_symbol
_atom_site_label
_atom_site_fract_x
_atom_site_fract_y
_atom_site_fract_z
Si Si1 0.316319 0.814940 0.373208
Si Si2 0.182450 0.116908 0.088739
Si Si3 0.681264 0.419944 0.693451
Si Si4 0.317905 0.183007 0.191211
Si Si5 0.682801 0.515754 0.416376
Si Si6 0.818845 0.879464 0.475667
O O1 0.500000 0.819273 0.379464
O O2 0.275793 0.750000 0.364060
O O3 0.271819 0.856533 0.324209
O O4 0.240899 0.839655 0.427315
O O5 0.249758 0.146832 0.141842
O O6 0.000000 0.121806 0.089599
O O7 0.222649 0.050104 0.085417
O O8 0.249076 0.140548 0.032576
O O9 0.500000 0.421329 0.698159
O O10 0.750000 0.437813 0.750000
O O11 0.722863 0.458783 0.642448
O O12 0.500000 0.176665 0.192504
O O13 0.282668 0.250000 0.183013
O O14 0.250000 0.166728 0.250000
O O15 0.500000 0.520659 0.424373
O O16 0.760080 0.557290 0.459852
O O17 0.000000 0.879371 0.478152
#
# Coordination Sequence:
#
# PCOD9539891 Si02
#       6
#    16  16  16  16  16  16
#     4   9  19  37  57  75 102 144 188 227 269 320
#     4  11  22  37  60  85 109 144 186 224 267 324
#     4   9  18  33  52  76 106 139 177 220 266 315
#     4  10  22  41  62  84 113 146 181 225 274 324
#     4   9  20  38  56  77 109 147 184 223 269 322
#     4  11  22  35  54  82 114 144 177 225 279 327
#
# _framework density 18.753869000000002
#
# number of rings (size 3 to 8) (size 9 to 14) (size 15 to 20)
#    0.000    2.167    0.000    4.000    0.000    9.000 
#    0.000    1.667    0.000    0.000    0.000    0.000 
#    0.000    0.000    0.000    0.000    0.000    0.000 
#
# Total GULP energy -267982.414213 kJ/mol
# GULP energy per Si atom -5582.966963 kJ/mol
# Density = 1.871118 g / cm^3
# Si number density = 18.753869 Si / 1000 Ang^3
#
#
#
# Elastic Constant Matrix: (Units=GPa)
#
#
# Indices 1 2 3 4 5 6 
#
# 1 33.8057 10.6579 27.2962 0.0000 0.0000 0.0000
# 2 10.6579 26.5597 8.0748 0.0000 0.0000 0.0000
# 3 27.2962 8.0748 125.2146 0.0000 0.0000 0.0000
# 4 0.0000 0.0000 0.0000 17.5254 0.0000 0.0000
# 5 0.0000 0.0000 0.0000 0.0000 31.3108 0.0000
# 6 0.0000 0.0000 0.0000 0.0000 0.0000 20.0601
#
#
#
# Elastic Compliance Matrix: (Units=1/GPa)
#
#
# Indices 1 2 3 4 5 6 
#
# 1 0.040298 -0.013770 -0.007897 0.000000 0.000000 0.000000
# 2 -0.013770 0.043109 0.000222 0.000000 0.000000 0.000000
# 3 -0.007897 0.000222 0.009693 0.000000 0.000000 0.000000
# 4 0.000000 0.000000 0.000000 0.057060 0.000000 0.000000
# 5 0.000000 0.000000 0.000000 0.000000 0.031938 0.000000
# 6 0.000000 0.000000 0.000000 0.000000 0.000000 0.049850
#
#
# Mechanical properties :
#
#
# Convention : Reuss Voigt Hill
#
# Bulk Modulus (GPa) = 19.91605 30.84866 25.38236
# Shear Modulus (GPa) = 17.14816 23.08266 20.11541
#
# Velocity S-wave (km/s) = 3.02715 3.51211 3.27861
# Velocity P-wave (km/s) = 4.78131 5.73860 5.28169
#
# Compressibility (1/GPa) = 0.05021075
#
# Stress axis : x y z
#
# Youngs Moduli (GPa) = 24.81493 23.19686 103.16233
#
# Poissons Ratio (x) = 0.31942 0.81466
# Poissons Ratio (y) = 0.34170 -0.02288
# Poissons Ratio (z) = 0.19596 -0.00514
#
# Static dielectric constant tensor:
#      x y z
#    x 1.629080 0.000000 0.000000 
#    y 0.000000 1.657710 0.000000 
#    z 0.000000 0.000000 1.632080 
# 
# From -- ./inp_files/57271.got.cif
#   From: 2010.05.17/outbox.cif.g08.bks.cpg/sg74_29_cif.got.tgz:57271.got - 2010.06.03 17:57:02.
