data_PCOD9539703
_publ_section_title
;
Structure prediction by ZEFSAII (Michael W. Deem and Ramdas Pophale) SiO2 
 PCOD9539703
Probable space group: I M M A
;
_chemical_formula_sum "Si O2"
_cell_formula_units_Z 80
_cell_length_a 13.007556
_cell_length_b 11.115580
_cell_length_c 25.464852
_cell_angle_alpha 90.000000
_cell_angle_beta 90.000000
_cell_angle_gamma 90.000000
_cell_volume 3681.874570
_symmetry_space_group_name_H-M "I M M A"
_symmetry_group_IT_number 74
_symmetry_cell_setting 'orthorhombic'
loop_
_space_group_symop_operation_xyz
x,y,z
-x,1/2-y,z
x,-y,-z
-x,1/2+y,-z
-x,-y,-z
x,1/2+y,-z
-x,y,z
x,1/2-y,z
1/2+x,1/2+y,1/2+z
1/2-x,-y,1/2+z
1/2+x,1/2-y,1/2-z
1/2-x,y,1/2-z
1/2-x,1/2-y,1/2-z
1/2+x,y,1/2-z
1/2-x,1/2+y,1/2+z
1/2+x,-y,1/2+z
loop_
_atom_site_type_symbol
_atom_site_label
_atom_site_fract_x
_atom_site_fract_y
_atom_site_fract_z
Si Si1 0.819199 0.878801 0.021414
Si Si2 0.762898 0.535124 0.373523
Si Si3 0.618865 0.883341 0.225137
Si Si4 0.115758 0.619162 0.550507
Si Si5 0.379450 0.611663 0.697351
O O1 0.866980 0.750000 0.008719
O O2 0.801885 0.892267 0.083478
O O3 0.706168 0.879262 0.992908
O O4 0.870675 0.000000 0.000000
O O5 0.807941 0.607545 0.324946
O O6 0.856452 0.479160 0.406618
O O7 0.693138 0.427533 0.350491
O O8 0.500000 0.888728 0.208306
O O9 0.631965 0.750000 0.250645
O O10 0.634690 0.003342 0.260309
O O11 0.120854 0.750000 0.576821
O O12 0.000000 0.607550 0.529546
O O13 0.500000 0.607513 0.682658
O O14 0.358148 0.750000 0.714704
#
# Coordination Sequence:
#
# PCOD9539703 Si02
#       5
#    16  16  16  16  16
#     4   9  19  33  51  78 112 147 179 213 259 319
#     4  11  20  32  57  84 110 144 188 232 277 329
#     4  10  22  38  56  83 118 151 184 228 284 343
#     4   9  18  32  51  80 117 150 179 217 269 331
#     4  10  23  42  60  79 107 146 193 243 291 337
#
# _framework density 21.728062999999999
#
# number of rings (size 3 to 8) (size 9 to 14) (size 15 to 20)
#    0.000    2.200    0.000    2.400    0.000   10.000 
#    0.000    4.000    0.000    5.400    0.000    5.600 
#    0.000    0.000    0.000    0.000    0.000    0.000 
#
# Total GULP energy -222930.895573 kJ/mol
# GULP energy per Si atom -5573.272389 kJ/mol
# Density = 2.167861 g / cm^3
# Si number density = 21.728063 Si / 1000 Ang^3
#
#
#
# Elastic Constant Matrix: (Units=GPa)
#
#
# Indices 1 2 3 4 5 6 
#
# 1 74.6896 12.0720 16.3067 0.0000 0.0000 0.0000
# 2 12.0720 202.9703 34.9227 0.0000 0.0000 0.0000
# 3 16.3067 34.9227 58.8426 0.0000 0.0000 0.0000
# 4 0.0000 0.0000 0.0000 25.1665 0.0000 0.0000
# 5 0.0000 0.0000 0.0000 0.0000 1.4052 0.0000
# 6 0.0000 0.0000 0.0000 0.0000 0.0000 4.7558
#
#
#
# Elastic Compliance Matrix: (Units=1/GPa)
#
#
# Indices 1 2 3 4 5 6 
#
# 1 0.014257 -0.000187 -0.003840 0.000000 0.000000 0.000000
# 2 -0.000187 0.005490 -0.003206 0.000000 0.000000 0.000000
# 3 -0.003840 -0.003206 0.019961 0.000000 0.000000 0.000000
# 4 0.000000 0.000000 0.000000 0.039735 0.000000 0.000000
# 5 0.000000 0.000000 0.000000 0.000000 0.711644 0.000000
# 6 0.000000 0.000000 0.000000 0.000000 0.000000 0.210270
#
#
# Mechanical properties :
#
#
# Convention : Reuss Voigt Hill
#
# Bulk Modulus (GPa) = 39.61693 51.45616 45.53655
# Shear Modulus (GPa) = 4.88168 24.47891 14.68029
#
# Velocity S-wave (km/s) = 1.50053 3.36013 2.60212
# Velocity P-wave (km/s) = 4.61246 6.22794 5.48006
#
# Compressibility (1/GPa) = 0.02524173
#
# Stress axis : x y z
#
# Youngs Moduli (GPa) = 70.13916 182.16224 50.09657
#
# Poissons Ratio (x) = 0.03412 0.19237
# Poissons Ratio (y) = 0.01314 0.16062
# Poissons Ratio (z) = 0.26933 0.58404
#
# Static dielectric constant tensor:
#      x y z
#    x 1.790040 0.000000 0.000000 
#    y 0.000000 1.855450 0.000000 
#    z 0.000000 0.000000 1.763480 
# 
# From -- ./inp_files/59722.got.cif
#   From: 2010.05.17/outbox.cif.g08.bks.cpg/sg74_30_cif.got.tgz:59722.got - 2010.06.03 17:57:02.
