data_PCOD9539302
_publ_section_title
;
Structure prediction by ZEFSAII (Michael W. Deem and Ramdas Pophale) SiO2 
 PCOD9539302
Probable space group: I M M A
;
_chemical_formula_sum "Si O2"
_cell_formula_units_Z 80
_cell_length_a 26.572036
_cell_length_b 16.244520
_cell_length_c 8.751351
_cell_angle_alpha 90.000000
_cell_angle_beta 90.000000
_cell_angle_gamma 90.000000
_cell_volume 3777.520399
_symmetry_space_group_name_H-M "I M M A"
_symmetry_group_IT_number 74
_symmetry_cell_setting 'orthorhombic'
loop_
_space_group_symop_operation_xyz
x,y,z
-x,1/2-y,z
x,-y,-z
-x,1/2+y,-z
-x,-y,-z
x,1/2+y,-z
-x,y,z
x,1/2-y,z
1/2+x,1/2+y,1/2+z
1/2-x,-y,1/2+z
1/2+x,1/2-y,1/2-z
1/2-x,y,1/2-z
1/2-x,1/2-y,1/2-z
1/2+x,y,1/2-z
1/2-x,1/2+y,1/2+z
1/2+x,-y,1/2+z
loop_
_atom_site_type_symbol
_atom_site_label
_atom_site_fract_x
_atom_site_fract_y
_atom_site_fract_z
Si Si1 0.942588 0.406879 0.439081
Si Si2 0.253446 0.407679 0.068175
Si Si3 0.849650 0.908617 0.068960
Si Si4 0.152662 0.342598 0.607837
Si Si5 0.943180 0.845986 0.895097
O O1 0.938364 0.500000 0.500000
O O2 0.900086 0.354992 0.523044
O O3 0.934428 0.399723 0.257061
O O4 0.000000 0.378480 0.467757
O O5 0.250000 0.410796 0.250000
O O6 0.257455 0.500000 0.000000
O O7 0.201345 0.371499 0.002302
O O8 0.302003 0.359759 0.008387
O O9 0.844233 0.905321 0.250723
O O10 0.900246 0.863332 0.017457
O O11 0.853237 0.000000 0.000000
O O12 0.156664 0.250000 0.669093
O O13 0.941195 0.750000 0.849489
O O14 0.000000 0.863030 0.951856
#
# Coordination Sequence:
#
# PCOD9539302 Si02
#       5
#    16  16  16  16  16
#     4  10  21  39  63  89 119 159 206 253 304 367
#     4  11  23  42  66  90 120 161 209 256 307 369
#     4  11  23  40  62  88 120 161 208 256 306 363
#     4  12  25  39  61  94 129 163 203 257 315 372
#     4  10  21  38  60  86 119 159 201 248 303 362
#
# _framework density 21.177914000000001
#
# number of rings (size 3 to 8) (size 9 to 14) (size 15 to 20)
#    0.000    1.200    0.000    7.200    0.000    5.200 
#    0.000    0.000    0.000    0.000    0.000    0.000 
#    0.000    0.000    0.000    0.000    0.000    0.000 
#
# Total GULP energy -223737.974615 kJ/mol
# GULP energy per Si atom -5593.449365 kJ/mol
# Density = 2.112971 g / cm^3
# Si number density = 21.177914 Si / 1000 Ang^3
#
#
#
# Elastic Constant Matrix: (Units=GPa)
#
#
# Indices 1 2 3 4 5 6 
#
# 1 139.0091 20.5933 66.0782 0.0000 0.0000 0.0000
# 2 20.5933 51.4904 4.9762 0.0000 0.0000 0.0000
# 3 66.0782 4.9762 120.1962 0.0000 0.0000 0.0000
# 4 0.0000 0.0000 0.0000 18.9106 0.0000 0.0000
# 5 0.0000 0.0000 0.0000 0.0000 34.4713 0.0000
# 6 0.0000 0.0000 0.0000 0.0000 0.0000 677.5347
#
#
#
# Elastic Compliance Matrix: (Units=1/GPa)
#
#
# Indices 1 2 3 4 5 6 
#
# 1 0.010367 -0.003610 -0.005550 0.000000 0.000000 0.000000
# 2 -0.003610 0.020756 0.001125 0.000000 0.000000 0.000000
# 3 -0.005550 0.001125 0.011324 0.000000 0.000000 0.000000
# 4 0.000000 0.000000 0.000000 0.052881 0.000000 0.000000
# 5 0.000000 0.000000 0.000000 0.000000 0.029010 0.000000
# 6 0.000000 0.000000 0.000000 0.000000 0.000000 0.001476
#
#
# Mechanical properties :
#
#
# Convention : Reuss Voigt Hill
#
# Bulk Modulus (GPa) = 37.90992 54.88790 46.39891
# Shear Modulus (GPa) = 33.18426 160.78652 96.98539
#
# Velocity S-wave (km/s) = 3.96274 8.72276 6.77458
# Velocity P-wave (km/s) = 6.23516 11.28816 9.11866
#
# Compressibility (1/GPa) = 0.02637832
#
# Stress axis : x y z
#
# Youngs Moduli (GPa) = 96.46426 48.17872 88.30763
#
# Poissons Ratio (x) = 0.17391 0.49007
# Poissons Ratio (y) = 0.34821 -0.09936
# Poissons Ratio (z) = 0.53534 -0.05421
#
# Static dielectric constant tensor:
#      x y z
#    x 1.758680 0.000000 0.000000 
#    y 0.000000 1.770880 0.000000 
#    z 0.000000 0.000000 1.727590 
# 
# From -- ./inp_files/14919.got.cif
#   From: 2010.05.17/outbox.cif.g08.bks.cpg/sg74_8_cif.got.tgz:14919.got - 2010.06.03 17:57:02.
