data_PCOD9539055
_publ_section_title
;
Structure prediction by ZEFSAII (Michael W. Deem and Ramdas Pophale) SiO2 
 PCOD9539055
Probable space group: I M M A
;
_chemical_formula_sum "Si O2"
_cell_formula_units_Z 96
_cell_length_a 8.336986
_cell_length_b 20.636919
_cell_length_c 30.124471
_cell_angle_alpha 90.000000
_cell_angle_beta 90.000000
_cell_angle_gamma 90.000000
_cell_volume 5182.906342
_symmetry_space_group_name_H-M "I M M A"
_symmetry_group_IT_number 74
_symmetry_cell_setting 'orthorhombic'
loop_
_space_group_symop_operation_xyz
x,y,z
-x,1/2-y,z
x,-y,-z
-x,1/2+y,-z
-x,-y,-z
x,1/2+y,-z
-x,y,z
x,1/2-y,z
1/2+x,1/2+y,1/2+z
1/2-x,-y,1/2+z
1/2+x,1/2-y,1/2-z
1/2-x,y,1/2-z
1/2-x,1/2-y,1/2-z
1/2+x,y,1/2-z
1/2-x,1/2+y,1/2+z
1/2+x,-y,1/2+z
loop_
_atom_site_type_symbol
_atom_site_label
_atom_site_fract_x
_atom_site_fract_y
_atom_site_fract_z
Si Si1 0.189333 0.551785 0.345208
Si Si2 0.308162 0.597399 0.964372
Si Si3 0.808848 0.420151 0.199421
Si Si4 0.193565 0.445690 0.556027
Si Si5 0.691757 0.179430 0.699604
Si Si6 0.306746 0.175589 0.378975
O O1 0.264075 0.491128 0.319322
O O2 0.257211 0.563120 0.394621
O O3 0.219562 0.618787 0.320912
O O4 0.000000 0.537770 0.348678
O O5 0.500000 0.608010 0.964084
O O6 0.279568 0.521832 0.953074
O O7 0.237240 0.641959 0.925803
O O8 0.247708 0.599488 0.015529
O O9 0.750000 0.411227 0.250000
O O10 0.747950 0.367907 0.162778
O O11 0.000000 0.415026 0.200571
O O12 0.000000 0.436870 0.556439
O O13 0.500000 0.169887 0.697984
O O14 0.728340 0.250000 0.678941
O O15 0.750000 0.182313 0.750000
O O16 0.500000 0.176703 0.376343
O O17 0.248987 0.250000 0.376998
#
# Coordination Sequence:
#
# PCOD9539055 Si02
#       6
#    16  16  16  16  16  16
#     4  11  20  34  57  84 112 143 179 224 274 323
#     4   9  16  33  57  81 106 137 179 220 262 316
#     4  11  23  38  56  79 109 144 186 235 282 332
#     4   8  16  30  54  83 110 136 170 221 267 310
#     4  10  21  37  55  76 105 142 182 221 265 321
#     4  10  22  39  56  78 112 149 184 230 285 334
#
# _framework density 18.522425999999999
#
# number of rings (size 3 to 8) (size 9 to 14) (size 15 to 20)
#    0.000    2.167    1.667    3.000    0.000    2.333 
#    0.000    4.167    0.000    5.000    0.000    0.000 
#    0.000    0.000    0.000    0.000    0.000    0.000 
#
# Total GULP energy -267461.391888 kJ/mol
# GULP energy per Si atom -5572.112331 kJ/mol
# Density = 1.848027 g / cm^3
# Si number density = 18.522426 Si / 1000 Ang^3
#
#
#
# Elastic Constant Matrix: (Units=GPa)
#
#
# Indices 1 2 3 4 5 6 
#
# 1 21.4594 10.6932 15.0289 0.0000 0.0000 0.0000
# 2 10.6932 105.7290 75.3462 0.0000 0.0000 0.0000
# 3 15.0289 75.3462 151.7843 0.0000 0.0000 0.0000
# 4 0.0000 0.0000 0.0000 26.8999 0.0000 0.0000
# 5 0.0000 0.0000 0.0000 0.0000 21.7681 0.0000
# 6 0.0000 0.0000 0.0000 0.0000 0.0000 -41.1897
#
#
#
# Elastic Compliance Matrix: (Units=1/GPa)
#
#
# Indices 1 2 3 4 5 6 
#
# 1 0.050458 -0.002387 -0.003811 0.000000 0.000000 0.000000
# 2 -0.002387 0.014748 -0.007085 0.000000 0.000000 0.000000
# 3 -0.003811 -0.007085 0.010483 0.000000 0.000000 0.000000
# 4 0.000000 0.000000 0.000000 0.037175 0.000000 0.000000
# 5 0.000000 0.000000 0.000000 0.000000 0.045939 0.000000
# 6 0.000000 0.000000 0.000000 0.000000 0.000000 -0.024278
#
#
# Mechanical properties :
#
#
# Convention : Reuss Voigt Hill
#
# Bulk Modulus (GPa) = 20.35707 53.45658 36.90683
# Shear Modulus (GPa) = 28.17446 13.35597 20.76522
#
# Velocity S-wave (km/s) = 3.90436 2.68819 3.35189
# Velocity P-wave (km/s) = 5.59819 6.20953 5.91177
#
# Compressibility (1/GPa) = 0.04912297
#
# Stress axis : x y z
#
# Youngs Moduli (GPa) = 19.81833 67.80368 95.39661
#
# Poissons Ratio (x) = 0.16187 0.36356
# Poissons Ratio (y) = 0.04731 0.67587
# Poissons Ratio (z) = 0.07553 0.48037
#
# Static dielectric constant tensor:
#      x y z
#    x 1.649390 0.000000 0.000000 
#    y 0.000000 1.836120 0.000000 
#    z 0.000000 0.000000 1.652410 
# 
# From -- ./inp_files/64369.got.cif
#   From: 2010.05.17/outbox.cif.g08.bks.cpg/sg74_33_cif.got.tgz:64369.got - 2010.06.03 17:57:02.
