data_PCOD9539380
_publ_section_title
;
Structure prediction by ZEFSAII (Michael W. Deem and Ramdas Pophale) SiO2 
 PCOD9539380
Probable space group: I M M A
;
_chemical_formula_sum "Si O2"
_cell_formula_units_Z 96
_cell_length_a 14.216153
_cell_length_b 21.519012
_cell_length_c 14.536264
_cell_angle_alpha 90.000000
_cell_angle_beta 90.000000
_cell_angle_gamma 90.000000
_cell_volume 4446.898516
_symmetry_space_group_name_H-M "I M M A"
_symmetry_group_IT_number 74
_symmetry_cell_setting 'orthorhombic'
loop_
_space_group_symop_operation_xyz
x,y,z
-x,1/2-y,z
x,-y,-z
-x,1/2+y,-z
-x,-y,-z
x,1/2+y,-z
-x,y,z
x,1/2-y,z
1/2+x,1/2+y,1/2+z
1/2-x,-y,1/2+z
1/2+x,1/2-y,1/2-z
1/2-x,y,1/2-z
1/2-x,1/2-y,1/2-z
1/2+x,y,1/2-z
1/2-x,1/2+y,1/2+z
1/2+x,-y,1/2+z
loop_
_atom_site_type_symbol
_atom_site_label
_atom_site_fract_x
_atom_site_fract_y
_atom_site_fract_z
Si Si1 0.391321 0.568241 0.728017
Si Si2 0.836051 0.936650 0.179953
Si Si3 0.105199 0.318898 0.706352
Si Si4 0.386911 0.940500 0.936393
Si Si5 0.611265 0.181212 0.398463
Si Si6 0.258080 0.144911 0.956136
O O1 0.500000 0.584990 0.742568
O O2 0.387020 0.502235 0.676880
O O3 0.353159 0.555601 0.830767
O O4 0.354332 0.625763 0.668397
O O5 0.750000 0.945461 0.250000
O O6 0.888184 0.876607 0.223665
O O7 0.796399 0.914890 0.083356
O O8 0.113421 0.250000 0.749485
O O9 0.188234 0.325213 0.631239
O O10 0.000000 0.322524 0.663832
O O11 0.500000 0.937214 0.938264
O O12 0.340561 0.879720 0.979001
O O13 0.362695 0.000000 0.000000
O O14 0.500000 0.170857 0.422069
O O15 0.617011 0.250000 0.355265
O O16 0.679460 0.180742 0.486729
#
# Coordination Sequence:
#
# PCOD9539380 Si02
#       6
#    16  16  16  16  16  16
#     4  10  22  41  64  86 119 163 210 265 314 376
#     4  10  22  36  59  91 125 164 203 257 312 380
#     4  10  21  39  63  93 130 167 209 260 318 384
#     4  10  21  38  63  94 126 162 205 258 321 379
#     4  10  24  44  63  87 123 171 220 265 318 379
#     4  11  23  37  62  92 128 166 207 263 313 376
#
# _framework density 21.588080000000001
#
# number of rings (size 3 to 8) (size 9 to 14) (size 15 to 20)
#    0.000    1.833    0.000    3.500    4.667    6.333 
#    0.000    5.833    0.000    4.000    0.000    0.000 
#    0.000    0.000    0.000    0.000    0.000    0.000 
#
# Total GULP energy -267766.554603 kJ/mol
# GULP energy per Si atom -5578.469888 kJ/mol
# Density = 2.153894 g / cm^3
# Si number density = 21.588080 Si / 1000 Ang^3
#
#
#
# Elastic Constant Matrix: (Units=GPa)
#
#
# Indices 1 2 3 4 5 6 
#
# 1 79.8444 38.9865 23.6566 0.0000 0.0000 -0.0011
# 2 38.9865 140.1030 45.6090 0.0000 0.0000 -0.0033
# 3 23.6566 45.6090 65.1981 -0.0001 0.0000 -0.0079
# 4 0.0000 0.0000 -0.0001 13.4196 0.0000 -0.0056
# 5 0.0000 0.0000 0.0000 0.0000 24.1562 0.0011
# 6 -0.0011 -0.0033 -0.0079 -0.0056 0.0011 -632.8292
#
#
#
# Elastic Compliance Matrix: (Units=1/GPa)
#
#
# Indices 1 2 3 4 5 6 
#
# 1 0.015013 -0.003113 -0.003269 0.000000 0.000000 0.000000
# 2 -0.003113 0.009888 -0.005787 0.000000 0.000000 0.000000
# 3 -0.003269 -0.005787 0.020573 0.000000 0.000000 0.000000
# 4 0.000000 0.000000 0.000000 0.074518 0.000000 -0.000001
# 5 0.000000 0.000000 0.000000 0.000000 0.041397 0.000000
# 6 0.000000 0.000000 0.000000 -0.000001 0.000000 -0.001580
#
#
# Mechanical properties :
#
#
# Convention : Reuss Voigt Hill
#
# Bulk Modulus (GPa) = 47.31849 55.73888 51.52869
# Shear Modulus (GPa) = 26.15144 -107.25779 -40.55318
#
# Velocity S-wave (km/s) = 3.48427 -7.05632 -4.33887
# Velocity P-wave (km/s) = 6.17683 6.36503 1.08635
#
# Compressibility (1/GPa) = 0.02113339
#
# Stress axis : x y z
#
# Youngs Moduli (GPa) = 66.60772 101.13259 48.60796
#
# Poissons Ratio (x) = 0.31487 0.15892
# Poissons Ratio (y) = 0.20738 0.28132
# Poissons Ratio (z) = 0.21777 0.58530
#
# Static dielectric constant tensor:
#      x y z
#    x 1.816930 0.000000 0.000000 
#    y 0.000000 1.808850 0.000000 
#    z 0.000000 0.000000 1.782220 
# 
# From -- ./inp_files/32407.got.cif
#   From: 2010.05.17/outbox.cif.g08.bks.cpg/sg74_17_cif.got.tgz:32407.got - 2010.06.03 17:57:02.
