data_PCOD9539501
_publ_section_title
;
Structure prediction by ZEFSAII (Michael W. Deem and Ramdas Pophale) SiO2 
 PCOD9539501
Probable space group: I M M A
;
_chemical_formula_sum "Si O2"
_cell_formula_units_Z 68
_cell_length_a 9.494325
_cell_length_b 17.004028
_cell_length_c 22.053295
_cell_angle_alpha 90.000000
_cell_angle_beta 90.000000
_cell_angle_gamma 90.000000
_cell_volume 3560.322938
_symmetry_space_group_name_H-M "I M M A"
_symmetry_group_IT_number 74
_symmetry_cell_setting 'orthorhombic'
loop_
_space_group_symop_operation_xyz
x,y,z
-x,1/2-y,z
x,-y,-z
-x,1/2+y,-z
-x,-y,-z
x,1/2+y,-z
-x,y,z
x,1/2-y,z
1/2+x,1/2+y,1/2+z
1/2-x,-y,1/2+z
1/2+x,1/2-y,1/2-z
1/2-x,y,1/2-z
1/2-x,1/2-y,1/2-z
1/2+x,y,1/2-z
1/2-x,1/2+y,1/2+z
1/2+x,-y,1/2+z
loop_
_atom_site_type_symbol
_atom_site_label
_atom_site_fract_x
_atom_site_fract_y
_atom_site_fract_z
Si Si1 0.836719 0.063557 0.809105
Si Si2 0.165574 0.084150 0.469640
Si Si3 0.750000 0.250000 0.250000
Si Si4 0.161877 0.841136 0.403994
Si Si5 0.165548 0.883094 0.847430
O O1 0.750000 0.087423 0.750000
O O2 0.767599 0.105201 0.866779
O O3 0.000000 0.084622 0.803042
O O4 0.826255 0.969770 0.817960
O O5 0.180152 0.145651 0.524366
O O6 0.255684 0.108600 0.411689
O O7 0.000000 0.078326 0.452410
O O8 0.205247 0.000000 0.500000
O O9 0.768610 0.318807 0.197278
O O10 0.180148 0.750000 0.388495
O O11 0.000000 0.864684 0.389997
O O12 0.000000 0.863943 0.855675
#
# Coordination Sequence:
#
# PCOD9539501 Si02
#       5
#    16  16   4  16  16
#     4  11  23  41  65  92 123 165 213 262 320 383
#     4  10  21  39  66  95 127 172 217 266 328 390
#     4  12  26  48  64  94 140 180 218 274 338 412
#     4  10  22  41  63  93 130 167 212 263 319 385
#     4  11  25  42  64  95 129 171 219 269 324 390
#
# _framework density 19.099391000000001
#
# number of rings (size 3 to 8) (size 9 to 14) (size 15 to 20)
#    0.000    1.412    3.529    1.059    1.647    5.176 
#    0.000    0.000    0.000    0.000    0.000    0.000 
#    0.000    0.000    0.000    0.000    0.000    0.000 
#
# Total GULP energy -189391.902716 kJ/mol
# GULP energy per Si atom -5570.350080 kJ/mol
# Density = 1.905592 g / cm^3
# Si number density = 19.099391 Si / 1000 Ang^3
#
#
#
# Elastic Constant Matrix: (Units=GPa)
#
#
# Indices 1 2 3 4 5 6 
#
# 1 92.5329 48.6328 79.1513 0.0000 0.0000 0.0000
# 2 48.6328 82.0486 41.7338 0.0000 0.0000 0.0000
# 3 79.1513 41.7338 136.1071 0.0000 0.0000 0.0000
# 4 0.0000 0.0000 0.0000 41.9231 0.0000 0.0000
# 5 0.0000 0.0000 0.0000 0.0000 22.9198 0.0000
# 6 0.0000 0.0000 0.0000 0.0000 0.0000 -0.7165
#
#
#
# Elastic Compliance Matrix: (Units=1/GPa)
#
#
# Indices 1 2 3 4 5 6 
#
# 1 0.026363 -0.009274 -0.012487 0.000000 0.000000 0.000000
# 2 -0.009274 0.017703 -0.000035 0.000000 0.000000 0.000000
# 3 -0.012487 -0.000035 0.014619 0.000000 0.000000 0.000000
# 4 0.000000 0.000000 0.000000 0.023853 0.000000 0.000000
# 5 0.000000 0.000000 0.000000 0.000000 0.043630 0.000000
# 6 0.000000 0.000000 0.000000 0.000000 0.000000 -1.395633
#
#
# Mechanical properties :
#
#
# Convention : Reuss Voigt Hill
#
# Bulk Modulus (GPa) = 66.25801 72.19160 69.22481
# Shear Modulus (GPa) = -4.09554 22.23664 9.07055
#
# Velocity S-wave (km/s) = -1.46594 3.41583 2.18161
# Velocity P-wave (km/s) = 5.64811 7.31007 6.53216
#
# Compressibility (1/GPa) = 0.01509251
#
# Stress axis : x y z
#
# Youngs Moduli (GPa) = 37.93252 56.48822 68.40195
#
# Poissons Ratio (x) = 0.52390 0.85414
# Poissons Ratio (y) = 0.35180 0.00237
# Poissons Ratio (z) = 0.47367 0.00196
#
# Static dielectric constant tensor:
#      x y z
#    x 1.661030 0.000000 0.000000 
#    y 0.000000 1.660870 0.000000 
#    z 0.000000 0.000000 1.633470 
# 
# From -- ./inp_files/48116.got.cif
#   From: 2010.05.17/outbox.cif.g08.bks.cpg/sg74_25_cif.got.tgz:48116.got - 2010.06.03 17:57:02.
