data_PCOD9539551
_publ_section_title
;
Structure prediction by ZEFSAII (Michael W. Deem and Ramdas Pophale) SiO2 
 PCOD9539551
Probable space group: I M M A
;
_chemical_formula_sum "Si O2"
_cell_formula_units_Z 64
_cell_length_a 16.764260
_cell_length_b 15.001077
_cell_length_c 11.330050
_cell_angle_alpha 90.000000
_cell_angle_beta 90.000000
_cell_angle_gamma 90.000000
_cell_volume 2849.303125
_symmetry_space_group_name_H-M "I M M A"
_symmetry_group_IT_number 74
_symmetry_cell_setting 'orthorhombic'
loop_
_space_group_symop_operation_xyz
x,y,z
-x,1/2-y,z
x,-y,-z
-x,1/2+y,-z
-x,-y,-z
x,1/2+y,-z
-x,y,z
x,1/2-y,z
1/2+x,1/2+y,1/2+z
1/2-x,-y,1/2+z
1/2+x,1/2-y,1/2-z
1/2-x,y,1/2-z
1/2-x,1/2-y,1/2-z
1/2+x,y,1/2-z
1/2-x,1/2+y,1/2+z
1/2+x,-y,1/2+z
loop_
_atom_site_type_symbol
_atom_site_label
_atom_site_fract_x
_atom_site_fract_y
_atom_site_fract_z
Si Si1 0.162019 0.100491 0.548731
Si Si2 0.000000 0.937976 0.116111
Si Si3 0.591946 0.250000 0.109475
Si Si4 0.000000 0.948975 0.370896
Si Si5 0.327042 0.750000 0.663479
Si Si6 0.165596 0.103835 0.963025
O O1 0.138578 0.165313 0.441914
O O2 0.083118 0.103901 0.628051
O O3 0.249119 0.122482 0.599276
O O4 0.167135 0.000000 0.500000
O O5 0.000000 0.992906 0.240309
O O6 0.082366 0.882888 0.104414
O O7 0.000000 0.000000 0.000000
O O8 0.500000 0.250000 0.070940
O O9 0.598520 0.250000 0.248967
O O10 0.000000 0.000000 0.500000
O O11 0.250000 0.750000 0.750000
O O12 0.330420 0.835529 0.579420
O O13 0.166269 0.000000 0.000000
#
# Coordination Sequence:
#
# PCOD9539551 Si02
#       6
#    16   8   8   8   8  16
#     4  10  21  40  66 101 142 182 238 309 369 427
#     4  10  24  45  66 105 150 196 248 303 377 455
#     4  12  24  40  70 112 145 185 255 319 366 427
#     4  10  22  41  68 103 138 188 250 301 353 443
#     4  12  24  44  74 111 146 196 264 308 356 468
#     4  10  23  44  65 102 149 192 234 306 384 428
#
# _framework density 22.461632000000002
#
# number of rings (size 3 to 8) (size 9 to 14) (size 15 to 20)
#    0.000    1.500    3.750    0.000    1.750    9.000 
#    0.000    2.500    0.000    3.000    0.000    0.000 
#    0.000    0.000    0.000    0.000    0.000    0.000 
#
# Total GULP energy -178286.371317 kJ/mol
# GULP energy per Si atom -5571.449104 kJ/mol
# Density = 2.241051 g / cm^3
# Si number density = 22.461632 Si / 1000 Ang^3
#
#
#
# Elastic Constant Matrix: (Units=GPa)
#
#
# Indices 1 2 3 4 5 6 
#
# 1 266.8762 12.3389 39.6619 0.0000 0.0000 0.0000
# 2 12.3389 123.8169 44.1150 0.0000 0.0000 0.0000
# 3 39.6619 44.1150 145.9879 0.0000 0.0000 0.0000
# 4 0.0000 0.0000 0.0000 23.4028 0.0000 0.0000
# 5 0.0000 0.0000 0.0000 0.0000 17.8152 0.0000
# 6 0.0000 0.0000 0.0000 0.0000 0.0000 30.0161
#
#
#
# Elastic Compliance Matrix: (Units=1/GPa)
#
#
# Indices 1 2 3 4 5 6 
#
# 1 0.003905 -0.000013 -0.001057 0.000000 0.000000 0.000000
# 2 -0.000013 0.009051 -0.002732 0.000000 0.000000 0.000000
# 3 -0.001057 -0.002732 0.007963 0.000000 0.000000 0.000000
# 4 0.000000 0.000000 0.000000 0.042730 0.000000 0.000000
# 5 0.000000 0.000000 0.000000 0.000000 0.056132 0.000000
# 6 0.000000 0.000000 0.000000 0.000000 0.000000 0.033315
#
#
# Mechanical properties :
#
#
# Convention : Reuss Voigt Hill
#
# Bulk Modulus (GPa) = 75.09880 80.99030 78.04455
# Shear Modulus (GPa) = 30.27802 43.61785 36.94794
#
# Velocity S-wave (km/s) = 3.67548 4.41146 4.06018
# Velocity P-wave (km/s) = 7.17768 7.87930 7.53666
#
# Compressibility (1/GPa) = 0.01331579
#
# Stress axis : x y z
#
# Youngs Moduli (GPa) = 256.09975 110.48564 125.58835
#
# Poissons Ratio (x) = 0.00138 0.13275
# Poissons Ratio (y) = 0.00320 0.34306
# Poissons Ratio (z) = 0.27071 0.30181
#
# Static dielectric constant tensor:
#      x y z
#    x 1.941430 0.000000 0.000000 
#    y 0.000000 1.894220 0.000000 
#    z 0.000000 0.000000 1.841570 
# 
# From -- ./inp_files/21645.got.cif
#   From: 2010.05.17/outbox.cif.g08.bks.cpg/sg74_11_cif.got.tgz:21645.got - 2010.06.03 17:57:02.
