data_PCOD9539090
_publ_section_title
;
Structure prediction by ZEFSAII (Michael W. Deem and Ramdas Pophale) SiO2 
 PCOD9539090
Probable space group: I M M A
;
_chemical_formula_sum "Si O2"
_cell_formula_units_Z 88
_cell_length_a 8.578831
_cell_length_b 18.729652
_cell_length_c 28.904941
_cell_angle_alpha 90.000000
_cell_angle_beta 90.000000
_cell_angle_gamma 90.000000
_cell_volume 4644.403117
_symmetry_space_group_name_H-M "I M M A"
_symmetry_group_IT_number 74
_symmetry_cell_setting 'orthorhombic'
loop_
_space_group_symop_operation_xyz
x,y,z
-x,1/2-y,z
x,-y,-z
-x,1/2+y,-z
-x,-y,-z
x,1/2+y,-z
-x,y,z
x,1/2-y,z
1/2+x,1/2+y,1/2+z
1/2-x,-y,1/2+z
1/2+x,1/2-y,1/2-z
1/2-x,y,1/2-z
1/2-x,1/2-y,1/2-z
1/2+x,y,1/2-z
1/2-x,1/2+y,1/2+z
1/2+x,-y,1/2+z
loop_
_atom_site_type_symbol
_atom_site_label
_atom_site_fract_x
_atom_site_fract_y
_atom_site_fract_z
Si Si1 0.312368 0.064730 0.532496
Si Si2 0.687099 0.539718 0.362217
Si Si3 0.813036 0.330197 0.697863
Si Si4 0.686578 0.250000 0.302344
Si Si5 0.312645 0.832274 0.959620
Si Si6 0.312553 0.614444 0.859572
O O1 0.500000 0.064181 0.532902
O O2 0.259118 0.053866 0.584920
O O3 0.255634 0.134813 0.506161
O O4 0.256737 0.000000 0.500000
O O5 0.500000 0.534888 0.361672
O O6 0.741686 0.606394 0.331976
O O7 0.755358 0.464048 0.345459
O O8 0.771951 0.250000 0.680742
O O9 0.750000 0.335699 0.750000
O O10 0.000000 0.336030 0.698108
O O11 0.500000 0.250000 0.301911
O O12 0.750000 0.250000 0.250000
O O13 0.746461 0.179268 0.329030
O O14 0.500000 0.836627 0.961699
O O15 0.268036 0.750000 0.954109
O O16 0.261376 0.873196 0.913055
O O17 0.500000 0.617852 0.857844
#
# Coordination Sequence:
#
# PCOD9539090 Si02
#       6
#    16  16  16   8  16  16
#     4  10  21  37  56  84 121 159 202 247 295 350
#     4  11  23  39  62  93 128 164 208 256 307 366
#     4  10  22  42  67  93 122 158 200 249 310 374
#     4  12  26  44  66  92 124 162 206 260 317 370
#     4  10  21  37  58  85 117 157 204 249 298 358
#     4  11  22  40  63  89 122 160 207 256 309 367
#
# _framework density 18.947537000000001
#
# number of rings (size 3 to 8) (size 9 to 14) (size 15 to 20)
#    0.000    1.455    2.727    2.455    0.000    5.455 
#    0.000    7.273    0.000    0.000    0.000    0.000 
#    0.000    0.000    0.000    0.000    0.000    0.000 
#
# Total GULP energy -245832.269418 kJ/mol
# GULP energy per Si atom -5587.097032 kJ/mol
# Density = 1.890441 g / cm^3
# Si number density = 18.947537 Si / 1000 Ang^3
#
#
#
# Elastic Constant Matrix: (Units=GPa)
#
#
# Indices 1 2 3 4 5 6 
#
# 1 61.9347 45.6718 34.0358 0.0000 0.0000 0.0000
# 2 45.6718 164.0596 75.6338 0.0000 0.0000 0.0000
# 3 34.0358 75.6338 102.9389 0.0000 0.0000 0.0000
# 4 0.0000 0.0000 0.0000 207.4935 0.0000 0.0000
# 5 0.0000 0.0000 0.0000 0.0000 28.8178 0.0000
# 6 0.0000 0.0000 0.0000 0.0000 0.0000 32.9370
#
#
#
# Elastic Compliance Matrix: (Units=1/GPa)
#
#
# Indices 1 2 3 4 5 6 
#
# 1 0.021393 -0.004075 -0.004079 0.000000 0.000000 0.000000
# 2 -0.004075 0.009994 -0.005996 0.000000 0.000000 0.000000
# 3 -0.004079 -0.005996 0.015469 0.000000 0.000000 0.000000
# 4 0.000000 0.000000 0.000000 0.004819 0.000000 0.000000
# 5 0.000000 0.000000 0.000000 0.000000 0.034701 0.000000
# 6 0.000000 0.000000 0.000000 0.000000 0.000000 0.030361
#
#
# Mechanical properties :
#
#
# Convention : Reuss Voigt Hill
#
# Bulk Modulus (GPa) = 53.89236 71.06844 62.48040
# Shear Modulus (GPa) = 33.06425 65.42243 49.24334
#
# Velocity S-wave (km/s) = 4.18190 5.88244 5.10350
# Velocity P-wave (km/s) = 7.19878 9.15024 8.23254
#
# Compressibility (1/GPa) = 0.01855550
#
# Stress axis : x y z
#
# Youngs Moduli (GPa) = 46.74505 100.06261 64.64739
#
# Poissons Ratio (x) = 0.40773 0.26372
# Poissons Ratio (y) = 0.19047 0.38760
# Poissons Ratio (z) = 0.19069 0.59993
#
# Static dielectric constant tensor:
#      x y z
#    x 1.642580 0.000000 0.000000 
#    y 0.000000 1.652890 0.000000 
#    z 0.000000 0.000000 1.642900 
# 
# From -- ./inp_files/70293.got.cif
#   From: 2010.05.17/outbox.cif.g08.bks.cpg/sg74_36_cif.got.tgz:70293.got - 2010.06.03 17:57:02.
