data_PCOD9539393
_publ_section_title
;
Structure prediction by ZEFSAII (Michael W. Deem and Ramdas Pophale) SiO2 
 PCOD9539393
Probable space group: I M M A
;
_chemical_formula_sum "Si O2"
_cell_formula_units_Z 112
_cell_length_a 24.779047
_cell_length_b 15.189680
_cell_length_c 13.939006
_cell_angle_alpha 90.000000
_cell_angle_beta 90.000000
_cell_angle_gamma 90.000000
_cell_volume 5246.443850
_symmetry_space_group_name_H-M "I M M A"
_symmetry_group_IT_number 74
_symmetry_cell_setting 'orthorhombic'
loop_
_space_group_symop_operation_xyz
x,y,z
-x,1/2-y,z
x,-y,-z
-x,1/2+y,-z
-x,-y,-z
x,1/2+y,-z
-x,y,z
x,1/2-y,z
1/2+x,1/2+y,1/2+z
1/2-x,-y,1/2+z
1/2+x,1/2-y,1/2-z
1/2-x,y,1/2-z
1/2-x,1/2-y,1/2-z
1/2+x,y,1/2-z
1/2-x,1/2+y,1/2+z
1/2+x,-y,1/2+z
loop_
_atom_site_type_symbol
_atom_site_label
_atom_site_fract_x
_atom_site_fract_y
_atom_site_fract_z
Si Si1 0.874574 0.400926 0.462784
Si Si2 0.839406 0.345252 0.942010
Si Si3 0.701832 0.488756 0.697892
Si Si4 0.244579 0.653753 0.591571
Si Si5 0.062686 0.845667 0.351484
Si Si6 0.060254 0.090753 0.060989
Si Si7 0.092202 0.466967 0.273721
O O1 0.863411 0.500000 0.500000
O O2 0.817657 0.358019 0.435785
O O3 0.902132 0.354024 0.552707
O O4 0.914863 0.411098 0.371322
O O5 0.845756 0.250000 0.893842
O O6 0.832730 0.427789 0.872454
O O7 0.783130 0.345182 0.998970
O O8 0.889136 0.357705 0.015668
O O9 0.750000 0.436719 0.750000
O O10 0.732005 0.570281 0.648313
O O11 0.657010 0.527247 0.767663
O O12 0.251921 0.750000 0.638491
O O13 0.073394 0.750000 0.304994
O O14 0.000000 0.848001 0.378528
O O15 0.072495 0.932853 0.288418
O O16 0.070451 0.071996 0.174011
O O17 0.000000 0.130033 0.049695
O O18 0.059891 0.000000 0.000000
#
# Coordination Sequence:
#
# PCOD9539393 Si02
#       7
#    16  16  16  16  16  16  16
#     4  10  21  38  64  95 132 176 219 273 335 407
#     4  11  24  42  65  91 130 176 219 274 336 396
#     4  12  23  41  64  93 134 173 217 277 329 396
#     4  11  22  38  63  92 125 170 216 265 335 404
#     4  10  23  43  65  95 134 173 223 284 342 405
#     4  11  22  41  66  91 126 174 224 273 328 393
#     4  11  22  39  66  95 127 176 223 276 333 401
#
# _framework density 21.347792999999999
#
# number of rings (size 3 to 8) (size 9 to 14) (size 15 to 20)
#    0.000    1.143    4.286    2.143    2.000    4.571 
#    0.000    1.429    0.000    0.000    0.000    0.000 
#    0.000    0.000    0.000    0.000    0.000    0.000 
#
# Total GULP energy -312563.285760 kJ/mol
# GULP energy per Si atom -5581.487246 kJ/mol
# Density = 2.129920 g / cm^3
# Si number density = 21.347793 Si / 1000 Ang^3
#
#
#
# Elastic Constant Matrix: (Units=GPa)
#
#
# Indices 1 2 3 4 5 6 
#
# 1 103.1987 31.5465 18.1046 0.0000 0.0000 0.0000
# 2 31.5465 95.5511 19.5760 0.0000 0.0000 0.0000
# 3 18.1046 19.5760 72.6393 0.0000 0.0000 0.0000
# 4 0.0000 0.0000 0.0000 -604.8665 0.0000 0.0000
# 5 0.0000 0.0000 0.0000 0.0000 24.3164 0.0000
# 6 0.0000 0.0000 0.0000 0.0000 0.0000 58.2433
#
#
#
# Elastic Compliance Matrix: (Units=1/GPa)
#
#
# Indices 1 2 3 4 5 6 
#
# 1 0.011012 -0.003253 -0.001868 0.000000 0.000000 0.000000
# 2 -0.003253 0.012038 -0.002433 0.000000 0.000000 0.000000
# 3 -0.001868 -0.002433 0.014888 0.000000 0.000000 0.000000
# 4 0.000000 0.000000 0.000000 -0.001653 0.000000 0.000000
# 5 0.000000 0.000000 0.000000 0.000000 0.041124 0.000000
# 6 0.000000 0.000000 0.000000 0.000000 0.000000 0.017169
#
#
# Mechanical properties :
#
#
# Convention : Reuss Voigt Hill
#
# Bulk Modulus (GPa) = 43.80311 45.53816 44.67064
# Shear Modulus (GPa) = 42.62661 -90.98390 -24.17864
#
# Velocity S-wave (km/s) = 4.47337 -6.53547 -3.36907
# Velocity P-wave (km/s) = 6.87348 5.96422 2.41587
#
# Compressibility (1/GPa) = 0.02282943
#
# Stress axis : x y z
#
# Youngs Moduli (GPa) = 90.80868 83.06926 67.16804
#
# Poissons Ratio (x) = 0.27022 0.12547
# Poissons Ratio (y) = 0.29540 0.16345
# Poissons Ratio (z) = 0.16963 0.20215
#
# Static dielectric constant tensor:
#      x y z
#    x 1.763450 0.000000 0.000000 
#    y 0.000000 1.804110 0.000000 
#    z 0.000000 0.000000 1.807970 
# 
# From -- ./inp_files/36499.got.cif
#   From: 2010.05.17/outbox.cif.g08.bks.cpg/sg74_19_cif.got.tgz:36499.got - 2010.06.03 17:57:02.
