data_PCOD9539169
_publ_section_title
;
Structure prediction by ZEFSAII (Michael W. Deem and Ramdas Pophale) SiO2 
 PCOD9539169
Probable space group: I M M A
;
_chemical_formula_sum "Si O2"
_cell_formula_units_Z 100
_cell_length_a 21.781438
_cell_length_b 7.786703
_cell_length_c 27.146066
_cell_angle_alpha 90.000000
_cell_angle_beta 90.000000
_cell_angle_gamma 90.000000
_cell_volume 4604.124503
_symmetry_space_group_name_H-M "I M M A"
_symmetry_group_IT_number 74
_symmetry_cell_setting 'orthorhombic'
loop_
_space_group_symop_operation_xyz
x,y,z
-x,1/2-y,z
x,-y,-z
-x,1/2+y,-z
-x,-y,-z
x,1/2+y,-z
-x,y,z
x,1/2-y,z
1/2+x,1/2+y,1/2+z
1/2-x,-y,1/2+z
1/2+x,1/2-y,1/2-z
1/2-x,y,1/2-z
1/2-x,1/2-y,1/2-z
1/2+x,y,1/2-z
1/2-x,1/2+y,1/2+z
1/2+x,-y,1/2+z
loop_
_atom_site_type_symbol
_atom_site_label
_atom_site_fract_x
_atom_site_fract_y
_atom_site_fract_z
Si Si1 0.180486 0.956579 0.760578
Si Si2 0.328082 0.047759 0.370192
Si Si3 0.569834 0.454661 0.554391
Si Si4 0.500000 0.750000 0.960539
Si Si5 0.226923 0.543592 0.554281
Si Si6 0.568327 0.954524 0.188609
Si Si7 0.911183 0.051189 0.572632
O O1 0.183695 0.750000 0.761176
O O2 0.250000 0.018912 0.750000
O O3 0.164459 0.022396 0.815313
O O4 0.126635 0.994725 0.721608
O O5 0.315459 0.250000 0.364703
O O6 0.271830 0.978089 0.402736
O O7 0.388204 0.026826 0.402908
O O8 0.593507 0.500000 0.500000
O O9 0.500000 0.520265 0.557511
O O10 0.569093 0.250000 0.558823
O O11 0.447360 0.597445 0.955219
O O12 0.251502 0.500000 0.500000
O O13 0.221225 0.750000 0.558030
O O14 0.160231 0.461750 0.560111
O O15 0.500000 0.024665 0.202229
O O16 0.564721 0.750000 0.192816
O O17 0.579403 0.990546 0.130792
O O18 0.931884 0.250000 0.564031
#
# Coordination Sequence:
#
# PCOD9539169 Si02
#       7
#    16  16  16   4  16  16  16
#     4  10  22  39  60  88 120 158 204 253 306 367
#     4  10  22  39  60  90 123 159 206 257 311 373
#     4  10  21  37  59  86 118 158 200 248 306 369
#     4  12  22  40  70  94 128 176 206 260 316 380
#     4  11  23  41  65  91 124 164 208 262 319 375
#     4  10  22  39  61  90 124 161 207 256 306 371
#     4  11  23  41  66  96 130 166 216 261 311 376
#
# _framework density 21.719657000000002
#
# number of rings (size 3 to 8) (size 9 to 14) (size 15 to 20)
#    0.000    1.600    1.600    2.640    1.120    6.720 
#    0.000    3.600    0.000    0.000    0.000    0.000 
#    0.000    0.000    0.000    0.000    0.000    0.000 
#
# Total GULP energy -278997.676478 kJ/mol
# GULP energy per Si atom -5579.953530 kJ/mol
# Density = 2.167022 g / cm^3
# Si number density = 21.719657 Si / 1000 Ang^3
#
#
#
# Elastic Constant Matrix: (Units=GPa)
#
#
# Indices 1 2 3 4 5 6 
#
# 1 132.8051 21.6583 66.8777 0.0000 0.0000 0.0000
# 2 21.6583 79.7346 31.0292 0.0000 0.0000 0.0000
# 3 66.8777 31.0292 140.6817 0.0000 0.0000 0.0000
# 4 0.0000 0.0000 0.0000 24.1014 0.0000 0.0000
# 5 0.0000 0.0000 0.0000 0.0000 59.1632 0.0000
# 6 0.0000 0.0000 0.0000 0.0000 0.0000 31.9255
#
#
#
# Elastic Compliance Matrix: (Units=1/GPa)
#
#
# Indices 1 2 3 4 5 6 
#
# 1 0.009964 -0.000944 -0.004529 0.000000 0.000000 0.000000
# 2 -0.000944 0.013809 -0.002597 0.000000 0.000000 0.000000
# 3 -0.004529 -0.002597 0.009834 0.000000 0.000000 0.000000
# 4 0.000000 0.000000 0.000000 0.041491 0.000000 0.000000
# 5 0.000000 0.000000 0.000000 0.000000 0.016902 0.000000
# 6 0.000000 0.000000 0.000000 0.000000 0.000000 0.031323
#
#
# Mechanical properties :
#
#
# Convention : Reuss Voigt Hill
#
# Bulk Modulus (GPa) = 57.24928 65.81687 61.53307
# Shear Modulus (GPa) = 34.41507 38.61512 36.51509
#
# Velocity S-wave (km/s) = 3.98491 4.22108 4.10469
# Velocity P-wave (km/s) = 6.89842 7.35699 7.13139
#
# Compressibility (1/GPa) = 0.01746747
#
# Stress axis : x y z
#
# Youngs Moduli (GPa) = 100.35802 72.41839 101.68986
#
# Poissons Ratio (x) = 0.06838 0.46051
# Poissons Ratio (y) = 0.09477 0.26407
# Poissons Ratio (z) = 0.45448 0.18805
#
# Static dielectric constant tensor:
#      x y z
#    x 1.784100 0.000000 0.000000 
#    y 0.000000 1.792950 0.000000 
#    z 0.000000 0.000000 1.800810 
# 
# From -- ./inp_files/68221.got.cif
#   From: 2010.05.17/outbox.cif.g08.bks.cpg/sg74_35_cif.got.tgz:68221.got - 2010.06.03 17:57:02.
