data_PCOD9539716
_publ_section_title
;
Structure prediction by ZEFSAII (Michael W. Deem and Ramdas Pophale) SiO2 
 PCOD9539716
Probable space group: I M M A
;
_chemical_formula_sum "Si O2"
_cell_formula_units_Z 72
_cell_length_a 14.479631
_cell_length_b 15.423141
_cell_length_c 16.967464
_cell_angle_alpha 90.000000
_cell_angle_beta 90.000000
_cell_angle_gamma 90.000000
_cell_volume 3789.197654
_symmetry_space_group_name_H-M "I M M A"
_symmetry_group_IT_number 74
_symmetry_cell_setting 'orthorhombic'
loop_
_space_group_symop_operation_xyz
x,y,z
-x,1/2-y,z
x,-y,-z
-x,1/2+y,-z
-x,-y,-z
x,1/2+y,-z
-x,y,z
x,1/2-y,z
1/2+x,1/2+y,1/2+z
1/2-x,-y,1/2+z
1/2+x,1/2-y,1/2-z
1/2-x,y,1/2-z
1/2-x,1/2-y,1/2-z
1/2+x,y,1/2-z
1/2-x,1/2+y,1/2+z
1/2+x,-y,1/2+z
loop_
_atom_site_type_symbol
_atom_site_label
_atom_site_fract_x
_atom_site_fract_y
_atom_site_fract_z
Si Si1 0.200572 0.650526 0.051432
Si Si2 0.696523 0.962517 0.175511
Si Si3 0.500000 0.932192 0.427114
Si Si4 0.705344 0.151792 0.116535
Si Si5 0.000000 0.986954 0.256324
Si Si6 0.500000 0.346361 0.148411
O O1 0.211837 0.750000 0.077490
O O2 0.267880 0.587090 0.099275
O O3 0.094914 0.621361 0.063662
O O4 0.231814 0.646042 0.960606
O O5 0.750000 0.925648 0.250000
O O6 0.722159 0.064659 0.166030
O O7 0.590201 0.952651 0.198781
O O8 0.500000 0.000000 0.500000
O O9 0.500000 0.970672 0.337486
O O10 0.718626 0.250000 0.150034
O O11 0.594737 0.143962 0.099627
O O12 0.000000 0.088467 0.278544
O O13 0.500000 0.250000 0.181072
#
# Coordination Sequence:
#
# PCOD9539716 Si02
#       6
#    16  16   8  16   8   8
#     4  11  24  41  60  87 119 161 204 242 293 353
#     4  11  21  38  61  85 120 156 198 247 299 352
#     4  12  23  41  63  83 118 162 201 248 289 346
#     4   9  19  36  61  90 119 151 192 244 305 362
#     4  10  22  38  58  92 114 153 200 241 300 351
#     4   8  16  35  62  91 123 145 177 246 311 363
#
# _framework density 19.001384000000002
#
# number of rings (size 3 to 8) (size 9 to 14) (size 15 to 20)
#    0.000    1.778    2.222    2.333    0.000    1.778 
#    0.000    6.111    0.000    0.000    0.000    0.000 
#    0.000    0.000    0.000    0.000    0.000    0.000 
#
# Total GULP energy -200560.813110 kJ/mol
# GULP energy per Si atom -5571.133697 kJ/mol
# Density = 1.895814 g / cm^3
# Si number density = 19.001384 Si / 1000 Ang^3
#
#
#
# Elastic Constant Matrix: (Units=GPa)
#
#
# Indices 1 2 3 4 5 6 
#
# 1 110.4117 57.1156 56.5253 0.0000 0.0000 0.0000
# 2 57.1156 81.0389 36.0409 0.0000 0.0000 0.0000
# 3 56.5253 36.0409 73.0676 0.0000 0.0000 0.0000
# 4 0.0000 0.0000 0.0000 5.5977 0.0000 0.0000
# 5 0.0000 0.0000 0.0000 0.0000 27.5939 0.0000
# 6 0.0000 0.0000 0.0000 0.0000 0.0000 -100.7055
#
#
#
# Elastic Compliance Matrix: (Units=1/GPa)
#
#
# Indices 1 2 3 4 5 6 
#
# 1 0.018806 -0.008691 -0.010262 0.000000 0.000000 0.000000
# 2 -0.008691 0.019824 -0.003055 0.000000 0.000000 0.000000
# 3 -0.010262 -0.003055 0.023131 0.000000 0.000000 0.000000
# 4 0.000000 0.000000 0.000000 0.178644 0.000000 0.000000
# 5 0.000000 0.000000 0.000000 0.000000 0.036240 0.000000
# 6 0.000000 0.000000 0.000000 0.000000 0.000000 -0.009930
#
#
# Mechanical properties :
#
#
# Convention : Reuss Voigt Hill
#
# Bulk Modulus (GPa) = 56.34979 62.65354 59.50166
# Shear Modulus (GPa) = 15.79055 -5.84701 4.97177
#
# Velocity S-wave (km/s) = 2.88587 -1.75608 1.61932
# Velocity P-wave (km/s) = 6.38939 5.37894 5.90581
#
# Compressibility (1/GPa) = 0.01774629
#
# Stress axis : x y z
#
# Youngs Moduli (GPa) = 53.17388 50.44515 43.23140
#
# Poissons Ratio (x) = 0.43840 0.44363
# Poissons Ratio (y) = 0.46212 0.13207
# Poissons Ratio (z) = 0.54566 0.15410
#
# Static dielectric constant tensor:
#      x y z
#    x 1.763230 0.000000 0.000000 
#    y 0.000000 1.683060 0.000000 
#    z 0.000000 0.000000 1.616260 
# 
# From -- ./inp_files/42550.got.cif
#   From: 2010.05.17/outbox.cif.g08.bks.cpg/sg74_22_cif.got.tgz:42550.got - 2010.06.03 17:57:02.
