data_PCOD9539674
_publ_section_title
;
Structure prediction by ZEFSAII (Michael W. Deem and Ramdas Pophale) SiO2 
 PCOD9539674
Probable space group: I M M A
;
_chemical_formula_sum "Si O2"
_cell_formula_units_Z 88
_cell_length_a 19.224955
_cell_length_b 28.214174
_cell_length_c 8.300850
_cell_angle_alpha 90.000000
_cell_angle_beta 90.000000
_cell_angle_gamma 90.000000
_cell_volume 4502.515726
_symmetry_space_group_name_H-M "I M M A"
_symmetry_group_IT_number 74
_symmetry_cell_setting 'orthorhombic'
loop_
_space_group_symop_operation_xyz
x,y,z
-x,1/2-y,z
x,-y,-z
-x,1/2+y,-z
-x,-y,-z
x,1/2+y,-z
-x,y,z
x,1/2-y,z
1/2+x,1/2+y,1/2+z
1/2-x,-y,1/2+z
1/2+x,1/2-y,1/2-z
1/2-x,y,1/2-z
1/2-x,1/2-y,1/2-z
1/2+x,y,1/2-z
1/2-x,1/2+y,1/2+z
1/2+x,-y,1/2+z
loop_
_atom_site_type_symbol
_atom_site_label
_atom_site_fract_x
_atom_site_fract_y
_atom_site_fract_z
Si Si1 0.500000 0.695171 0.570212
Si Si2 0.103288 0.473919 0.339865
Si Si3 0.750000 0.871612 0.250000
Si Si4 0.255077 0.573130 0.923739
Si Si5 0.623628 0.697202 0.319462
Si Si6 0.364951 0.000000 0.500000
Si Si7 0.500000 0.302879 0.934565
Si Si8 0.500000 0.888072 0.824703
O O1 0.500000 0.750000 0.630346
O O2 0.570474 0.690685 0.466719
O O3 0.500000 0.650060 0.683540
O O4 0.076863 0.500000 0.500000
O O5 0.184414 0.463776 0.375883
O O6 0.065211 0.423589 0.321951
O O7 0.095170 0.502173 0.171031
O O8 0.773252 0.900046 0.410903
O O9 0.684421 0.840369 0.304923
O O10 0.250000 0.600583 0.750000
O O11 0.184796 0.545356 0.972149
O O12 0.654373 0.750000 0.329934
O O13 0.570109 0.696141 0.170652
O O14 0.500000 0.250000 0.013719
O O15 0.500000 0.352085 0.027521
#
# Coordination Sequence:
#
# PCOD9539674 Si02
#       8
#     8  16   8  16  16   8   8   8
#     4   9  21  42  61  82 121 164 200 239 297 374
#     4  11  23  41  59  87 124 155 205 247 300 354
#     4  12  21  34  66  94 120 152 196 258 309 330
#     4  10  22  37  59  87 118 158 202 236 289 371
#     4   9  20  39  61  88 120 157 198 242 302 369
#     4  10  22  41  62  79 118 168 194 238 302 362
#     4   9  19  40  63  85 119 163 203 239 298 378
#     4  12  24  37  60  94 118 151 201 261 297 343
#
# _framework density 19.544627999999999
#
# number of rings (size 3 to 8) (size 9 to 14) (size 15 to 20)
#    0.000    1.818    0.909    4.091    6.364    0.364 
#    3.273    0.000    0.000    1.091    0.000    0.000 
#    0.000    0.000    0.000    0.000    0.000    0.000 
#
# Total GULP energy -245034.454674 kJ/mol
# GULP energy per Si atom -5568.964879 kJ/mol
# Density = 1.950014 g / cm^3
# Si number density = 19.544628 Si / 1000 Ang^3
#
#
#
# Elastic Constant Matrix: (Units=GPa)
#
#
# Indices 1 2 3 4 5 6 
#
# 1 46.9647 10.6672 22.5183 0.0000 0.0000 0.0000
# 2 10.6672 86.9624 71.6951 0.0000 0.0000 0.0000
# 3 22.5183 71.6951 168.5506 0.0000 0.0000 0.0000
# 4 0.0000 0.0000 0.0000 37.5844 0.0000 0.0000
# 5 0.0000 0.0000 0.0000 0.0000 3.5604 0.0000
# 6 0.0000 0.0000 0.0000 0.0000 0.0000 33.1244
#
#
#
# Elastic Compliance Matrix: (Units=1/GPa)
#
#
# Indices 1 2 3 4 5 6 
#
# 1 0.022761 -0.000439 -0.002854 0.000000 0.000000 0.000000
# 2 -0.000439 0.017718 -0.007478 0.000000 0.000000 0.000000
# 3 -0.002854 -0.007478 0.009495 0.000000 0.000000 0.000000
# 4 0.000000 0.000000 0.000000 0.026607 0.000000 0.000000
# 5 0.000000 0.000000 0.000000 0.000000 0.280870 0.000000
# 6 0.000000 0.000000 0.000000 0.000000 0.000000 0.030189
#
#
# Mechanical properties :
#
#
# Convention : Reuss Voigt Hill
#
# Bulk Modulus (GPa) = 35.17162 56.91541 46.04352
# Shear Modulus (GPa) = 11.94287 28.02698 19.98492
#
# Velocity S-wave (km/s) = 2.47464 3.79093 3.20117
# Velocity P-wave (km/s) = 5.11857 6.95309 6.10513
#
# Compressibility (1/GPa) = 0.02843202
#
# Stress axis : x y z
#
# Youngs Moduli (GPa) = 43.93527 56.43909 105.31726
#
# Poissons Ratio (x) = 0.02477 0.30059
# Poissons Ratio (y) = 0.01928 0.78757
# Poissons Ratio (z) = 0.12540 0.42205
#
# Static dielectric constant tensor:
#      x y z
#    x 1.678910 0.000000 0.000000 
#    y 0.000000 1.673450 0.000000 
#    z 0.000000 0.000000 1.810840 
# 
# From -- ./inp_files/12529.got.cif
#   From: 2010.05.17/outbox.cif.g08.bks.cpg/sg74_7_cif.got.tgz:12529.got - 2010.06.03 17:57:02.
