data_PCOD9539907
_publ_section_title
;
Structure prediction by ZEFSAII (Michael W. Deem and Ramdas Pophale) SiO2 
 PCOD9539907
Probable space group: I M M A
;
_chemical_formula_sum "Si O2"
_cell_formula_units_Z 68
_cell_length_a 7.440480
_cell_length_b 14.584906
_cell_length_c 26.969069
_cell_angle_alpha 90.000000
_cell_angle_beta 90.000000
_cell_angle_gamma 90.000000
_cell_volume 2926.648346
_symmetry_space_group_name_H-M "I M M A"
_symmetry_group_IT_number 74
_symmetry_cell_setting 'orthorhombic'
loop_
_space_group_symop_operation_xyz
x,y,z
-x,1/2-y,z
x,-y,-z
-x,1/2+y,-z
-x,-y,-z
x,1/2+y,-z
-x,y,z
x,1/2-y,z
1/2+x,1/2+y,1/2+z
1/2-x,-y,1/2+z
1/2+x,1/2-y,1/2-z
1/2-x,y,1/2-z
1/2-x,1/2-y,1/2-z
1/2+x,y,1/2-z
1/2-x,1/2+y,1/2+z
1/2+x,-y,1/2+z
loop_
_atom_site_type_symbol
_atom_site_label
_atom_site_fract_x
_atom_site_fract_y
_atom_site_fract_z
Si Si1 0.202022 0.564019 0.645111
Si Si2 0.209481 0.547925 0.050270
Si Si3 0.714946 0.110200 0.806503
Si Si4 0.778614 0.750000 0.598144
Si Si5 0.714746 0.750000 0.016972
Si Si6 0.000000 0.750000 0.154021
O O1 0.197136 0.497507 0.597067
O O2 0.274650 0.495686 0.686590
O O3 0.284073 0.658695 0.626250
O O4 0.000000 0.587618 0.660751
O O5 0.224627 0.656850 0.043357
O O6 0.000000 0.524145 0.055237
O O7 0.278328 0.500000 0.000000
O O8 0.500000 0.118764 0.816405
O O9 0.750000 0.139750 0.750000
O O10 0.841611 0.170962 0.840894
O O11 0.722684 0.750000 0.540430
O O12 0.000000 0.750000 0.596630
O O13 0.500000 0.750000 0.016914
#
# Coordination Sequence:
#
# PCOD9539907 Si02
#       6
#    16  16  16   8   8   4
#     4  10  22  41  64  92 121 162 212 258 308 375
#     4  11  23  37  57  86 126 161 203 258 313 368
#     4  11  24  41  68 100 130 166 212 258 318 384
#     4   9  18  37  65  88 116 162 209 254 308 365
#     4  11  21  36  61  84 111 162 213 252 307 362
#     4  12  24  42  72  92 134 172 204 262 318 388
#
# _framework density 23.234769
#
# number of rings (size 3 to 8) (size 9 to 14) (size 15 to 20)
#    0.000    1.412    3.529    1.765    1.647    1.882 
#    0.000    2.353    0.000    0.000    0.000    0.000 
#    0.000    0.000    0.000    0.000    0.000    0.000 
#
# Total GULP energy -189567.838616 kJ/mol
# GULP energy per Si atom -5575.524665 kJ/mol
# Density = 2.318189 g / cm^3
# Si number density = 23.234769 Si / 1000 Ang^3
#
#
#
# Elastic Constant Matrix: (Units=GPa)
#
#
# Indices 1 2 3 4 5 6 
#
# 1 130.1113 10.5214 3.8337 0.0000 0.0000 0.0000
# 2 10.5214 191.0189 24.3107 0.0000 0.0000 0.0000
# 3 3.8337 24.3107 53.8260 0.0000 0.0000 0.0000
# 4 0.0000 0.0000 0.0000 -21.1322 0.0000 0.0000
# 5 0.0000 0.0000 0.0000 0.0000 6.3931 0.0000
# 6 0.0000 0.0000 0.0000 0.0000 0.0000 8.7921
#
#
#
# Elastic Compliance Matrix: (Units=1/GPa)
#
#
# Indices 1 2 3 4 5 6 
#
# 1 0.007727 -0.000377 -0.000380 0.000000 0.000000 0.000000
# 2 -0.000377 0.005573 -0.002490 0.000000 0.000000 0.000000
# 3 -0.000380 -0.002490 0.019730 0.000000 0.000000 0.000000
# 4 0.000000 0.000000 0.000000 -0.047321 0.000000 0.000000
# 5 0.000000 0.000000 0.000000 0.000000 0.156418 0.000000
# 6 0.000000 0.000000 0.000000 0.000000 0.000000 0.113739
#
#
# Mechanical properties :
#
#
# Convention : Reuss Voigt Hill
#
# Bulk Modulus (GPa) = 37.68520 50.25419 43.96969
# Shear Modulus (GPa) = 18.43619 21.22996 19.83308
#
# Velocity S-wave (km/s) = 2.81992 3.02605 2.92480
# Velocity P-wave (km/s) = 5.18239 5.82109 5.51100
#
# Compressibility (1/GPa) = 0.02653562
#
# Stress axis : x y z
#
# Youngs Moduli (GPa) = 129.40912 179.44385 50.68401
#
# Poissons Ratio (x) = 0.06770 0.01926
# Poissons Ratio (y) = 0.04882 0.12621
# Poissons Ratio (z) = 0.04917 0.44683
#
# Static dielectric constant tensor:
#      x y z
#    x 1.873670 0.000000 0.000000 
#    y 0.000000 1.883860 0.000000 
#    z 0.000000 0.000000 1.904720 
# 
# From -- ./inp_files/63558.got.cif
#   From: 2010.05.17/outbox.cif.g08.bks.cpg/sg74_32_cif.got.tgz:63558.got - 2010.06.03 17:57:02.
