data_PCOD9539457
_publ_section_title
;
Structure prediction by ZEFSAII (Michael W. Deem and Ramdas Pophale) SiO2 
 PCOD9539457
Probable space group: I M M A
;
_chemical_formula_sum "Si O2"
_cell_formula_units_Z 88
_cell_length_a 11.243132
_cell_length_b 16.890248
_cell_length_c 22.531728
_cell_angle_alpha 90.000000
_cell_angle_beta 90.000000
_cell_angle_gamma 90.000000
_cell_volume 4278.759100
_symmetry_space_group_name_H-M "I M M A"
_symmetry_group_IT_number 74
_symmetry_cell_setting 'orthorhombic'
loop_
_space_group_symop_operation_xyz
x,y,z
-x,1/2-y,z
x,-y,-z
-x,1/2+y,-z
-x,-y,-z
x,1/2+y,-z
-x,y,z
x,1/2-y,z
1/2+x,1/2+y,1/2+z
1/2-x,-y,1/2+z
1/2+x,1/2-y,1/2-z
1/2-x,y,1/2-z
1/2-x,1/2-y,1/2-z
1/2+x,y,1/2-z
1/2-x,1/2+y,1/2+z
1/2+x,-y,1/2+z
loop_
_atom_site_type_symbol
_atom_site_label
_atom_site_fract_x
_atom_site_fract_y
_atom_site_fract_z
Si Si1 0.798075 0.080904 0.683037
Si Si2 0.136060 0.414919 0.031517
Si Si3 0.374037 0.750000 0.214900
Si Si4 0.869700 0.572809 0.612671
Si Si5 0.626283 0.342648 0.228465
Si Si6 0.859044 0.337733 0.908708
O O1 0.750000 0.068409 0.750000
O O2 0.870236 0.164168 0.683283
O O3 0.692781 0.099405 0.636811
O O4 0.861755 0.004791 0.655206
O O5 0.248860 0.419436 0.075134
O O6 0.000000 0.397410 0.054421
O O7 0.128189 0.500000 0.000000
O O8 0.166801 0.356009 0.977403
O O9 0.500000 0.750000 0.250105
O O10 0.250000 0.750000 0.250000
O O11 0.872372 0.645964 0.658073
O O12 0.000000 0.569552 0.581380
O O13 0.500000 0.377000 0.250726
O O14 0.626221 0.250000 0.244470
O O15 0.750000 0.378643 0.250000
O O16 0.815500 0.250000 0.892948
O O17 0.000000 0.339391 0.903621
#
# Coordination Sequence:
#
# PCOD9539457 Si02
#       6
#    16  16   8  16  16  16
#     4  11  22  37  58  89 123 160 203 242 292 355
#     4  10  21  40  62  84 111 148 198 247 294 348
#     4  10  22  38  54  78 116 158 198 240 283 338
#     4  11  23  38  59  89 124 158 196 245 303 358
#     4   9  19  37  59  85 119 156 195 242 296 356
#     4  10  21  39  63  89 117 154 201 253 303 352
#
# _framework density 20.566711000000002
#
# number of rings (size 3 to 8) (size 9 to 14) (size 15 to 20)
#    0.000    1.818    2.727    1.091    0.000    5.455 
#    0.000    0.000    0.000    0.000    0.000    0.000 
#    0.000    0.000    0.000    0.000    0.000    0.000 
#
# Total GULP energy -244941.111052 kJ/mol
# GULP energy per Si atom -5566.843433 kJ/mol
# Density = 2.051990 g / cm^3
# Si number density = 20.566711 Si / 1000 Ang^3
#
#
#
# Elastic Constant Matrix: (Units=GPa)
#
#
# Indices 1 2 3 4 5 6 
#
# 1 193.1985 11.5229 73.8298 0.0000 0.0000 0.0000
# 2 11.5229 37.3782 3.7672 0.0000 0.0000 0.0000
# 3 73.8298 3.7672 63.9689 0.0000 0.0000 0.0000
# 4 0.0000 0.0000 0.0000 29.3722 0.0000 0.0000
# 5 0.0000 0.0000 0.0000 0.0000 30.4923 0.0000
# 6 0.0000 0.0000 0.0000 0.0000 0.0000 -6.0979
#
#
#
# Elastic Compliance Matrix: (Units=1/GPa)
#
#
# Indices 1 2 3 4 5 6 
#
# 1 0.009381 -0.001811 -0.010720 0.000000 0.000000 0.000000
# 2 -0.001811 0.027263 0.000485 0.000000 0.000000 0.000000
# 3 -0.010720 0.000485 0.027977 0.000000 0.000000 0.000000
# 4 0.000000 0.000000 0.000000 0.034046 0.000000 0.000000
# 5 0.000000 0.000000 0.000000 0.000000 0.032795 0.000000
# 6 0.000000 0.000000 0.000000 0.000000 0.000000 -0.163990
#
#
# Mechanical properties :
#
#
# Convention : Reuss Voigt Hill
#
# Bulk Modulus (GPa) = 24.67455 52.53173 38.60314
# Shear Modulus (GPa) = 985.56869 24.44836 505.00852
#
# Velocity S-wave (km/s) = 21.91452 3.45154 15.68693
# Velocity P-wave (km/s) = 25.54117 6.44063 18.62570
#
# Compressibility (1/GPa) = 0.04052758
#
# Stress axis : x y z
#
# Youngs Moduli (GPa) = 106.60231 36.67966 35.74424
#
# Poissons Ratio (x) = 0.06644 0.38318
# Poissons Ratio (y) = 0.19310 -0.01734
# Poissons Ratio (z) = 1.14278 -0.01779
#
# Static dielectric constant tensor:
#      x y z
#    x 1.808090 0.000000 0.000000 
#    y 0.000000 1.788800 0.000000 
#    z 0.000000 0.000000 1.760580 
# 
# From -- ./inp_files/50509.got.cif
#   From: 2010.05.17/outbox.cif.g08.bks.cpg/sg74_26_cif.got.tgz:50509.got - 2010.06.03 17:57:02.
