data_PCOD9539618
_publ_section_title
;
Structure prediction by ZEFSAII (Michael W. Deem and Ramdas Pophale) SiO2 
 PCOD9539618
Probable space group: I M M A
;
_chemical_formula_sum "Si O2"
_cell_formula_units_Z 48
_cell_length_a 19.324858
_cell_length_b 11.045713
_cell_length_c 10.036430
_cell_angle_alpha 90.000000
_cell_angle_beta 90.000000
_cell_angle_gamma 90.000000
_cell_volume 2142.344585
_symmetry_space_group_name_H-M "I M M A"
_symmetry_group_IT_number 74
_symmetry_cell_setting 'orthorhombic'
loop_
_space_group_symop_operation_xyz
x,y,z
-x,1/2-y,z
x,-y,-z
-x,1/2+y,-z
-x,-y,-z
x,1/2+y,-z
-x,y,z
x,1/2-y,z
1/2+x,1/2+y,1/2+z
1/2-x,-y,1/2+z
1/2+x,1/2-y,1/2-z
1/2-x,y,1/2-z
1/2-x,1/2-y,1/2-z
1/2+x,y,1/2-z
1/2-x,1/2+y,1/2+z
1/2+x,-y,1/2+z
loop_
_atom_site_type_symbol
_atom_site_label
_atom_site_fract_x
_atom_site_fract_y
_atom_site_fract_z
Si Si1 0.370603 0.385415 0.412306
Si Si2 0.737782 0.250000 0.533186
Si Si3 0.080383 0.995899 0.652090
Si Si4 0.364804 0.250000 0.788640
O O1 0.396370 0.500000 0.500000
O O2 0.401371 0.250000 0.440953
O O3 0.290022 0.363987 0.449512
O O4 0.380536 0.412837 0.257663
O O5 0.688122 0.250000 0.664642
O O6 0.815207 0.250000 0.581704
O O7 0.000000 0.959386 0.650386
O O8 0.105264 0.000000 0.500000
O O9 0.089742 0.130738 0.708649
#
# Coordination Sequence:
#
# PCOD9539618 Si02
#       4
#    16   8  16   8
#     4  10  21  44  70 105 137 184 244 297 365 429
#     4   9  22  41  70  95 141 177 232 296 355 429
#     4  11  25  43  67  98 141 188 240 298 363 434
#     4  11  21  45  66 101 138 188 225 298 364 438
#
# _framework density 22.405358
#
# number of rings (size 3 to 8) (size 9 to 14) (size 15 to 20)
#    1.000    0.667    3.333    0.500    2.333    2.667 
#    0.000    1.667    0.000    0.000    0.000    0.000 
#    0.000    0.000    0.000    0.000    0.000    0.000 
#
# Total GULP energy -133752.756894 kJ/mol
# GULP energy per Si atom -5573.031537 kJ/mol
# Density = 2.235436 g / cm^3
# Si number density = 22.405358 Si / 1000 Ang^3
#
#
#
# Elastic Constant Matrix: (Units=GPa)
#
#
# Indices 1 2 3 4 5 6 
#
# 1 39.4639 -3.4892 39.6791 0.0000 0.0000 0.0000
# 2 -3.4892 136.5227 39.3627 0.0000 0.0000 0.0000
# 3 39.6791 39.3627 146.8362 0.0000 0.0000 0.0000
# 4 0.0000 0.0000 0.0000 39.7823 0.0000 0.0000
# 5 0.0000 0.0000 0.0000 0.0000 24.5186 0.0000
# 6 0.0000 0.0000 0.0000 0.0000 0.0000 20.1348
#
#
#
# Elastic Compliance Matrix: (Units=1/GPa)
#
#
# Indices 1 2 3 4 5 6 
#
# 1 0.036822 0.004129 -0.011057 0.000000 0.000000 0.000000
# 2 0.004129 0.008401 -0.003368 0.000000 0.000000 0.000000
# 3 -0.011057 -0.003368 0.010701 0.000000 0.000000 0.000000
# 4 0.000000 0.000000 0.000000 0.025137 0.000000 0.000000
# 5 0.000000 0.000000 0.000000 0.000000 0.040785 0.000000
# 6 0.000000 0.000000 0.000000 0.000000 0.000000 0.049665
#
#
# Mechanical properties :
#
#
# Convention : Reuss Voigt Hill
#
# Bulk Modulus (GPa) = 28.30248 52.65868 40.48058
# Shear Modulus (GPa) = 24.52400 33.37182 28.94791
#
# Velocity S-wave (km/s) = 3.31200 3.86354 3.59835
# Velocity P-wave (km/s) = 5.22353 6.59214 5.94733
#
# Compressibility (1/GPa) = 0.03533259
#
# Stress axis : x y z
#
# Youngs Moduli (GPa) = 27.15749 119.02791 93.44795
#
# Poissons Ratio (x) = -0.49149 1.03328
# Poissons Ratio (y) = -0.11214 0.31473
# Poissons Ratio (z) = 0.30029 0.40088
#
# Static dielectric constant tensor:
#      x y z
#    x 1.801180 0.000000 0.000000 
#    y 0.000000 1.899510 0.000000 
#    z 0.000000 0.000000 1.866570 
# 
# From -- ./inp_files/18196.got.cif
#   From: 2010.05.17/outbox.cif.g08.bks.cpg/sg74_10_cif.got.tgz:18196.got - 2010.06.03 17:57:02.
