data_PCOD9539965
_publ_section_title
;
Structure prediction by ZEFSAII (Michael W. Deem and Ramdas Pophale) SiO2 
 PCOD9539965
Probable space group: I M M A
;
_chemical_formula_sum "Si O2"
_cell_formula_units_Z 68
_cell_length_a 10.033140
_cell_length_b 26.738983
_cell_length_c 13.693902
_cell_angle_alpha 90.000000
_cell_angle_beta 90.000000
_cell_angle_gamma 90.000000
_cell_volume 3673.744704
_symmetry_space_group_name_H-M "I M M A"
_symmetry_group_IT_number 74
_symmetry_cell_setting 'orthorhombic'
loop_
_space_group_symop_operation_xyz
x,y,z
-x,1/2-y,z
x,-y,-z
-x,1/2+y,-z
-x,-y,-z
x,1/2+y,-z
-x,y,z
x,1/2-y,z
1/2+x,1/2+y,1/2+z
1/2-x,-y,1/2+z
1/2+x,1/2-y,1/2-z
1/2-x,y,1/2-z
1/2-x,1/2-y,1/2-z
1/2+x,y,1/2-z
1/2-x,1/2+y,1/2+z
1/2+x,-y,1/2+z
loop_
_atom_site_type_symbol
_atom_site_label
_atom_site_fract_x
_atom_site_fract_y
_atom_site_fract_z
Si Si1 0.500000 0.554345 0.954901
Si Si2 0.500000 0.250000 0.559191
Si Si3 0.000000 0.359540 0.615455
Si Si4 0.208438 0.342084 0.949315
Si Si5 0.000000 0.404699 0.830640
Si Si6 0.500000 0.516398 0.613739
Si Si7 0.237765 0.094002 0.140336
O O1 0.627797 0.566248 0.890566
O O2 0.500000 0.500000 0.000000
O O3 0.500000 0.592574 0.044991
O O4 0.616208 0.206130 0.558905
O O5 0.858731 0.333347 0.590331
O O6 0.000000 0.377781 0.726458
O O7 0.131532 0.385506 0.888220
O O8 0.213678 0.362947 0.060068
O O9 0.000000 0.464683 0.826403
O O10 0.500000 0.500000 0.500000
O O11 0.624774 0.551892 0.634679
O O12 0.250000 0.114039 0.250000
#
# Coordination Sequence:
#
# PCOD9539965 Si02
#       7
#     8   4   8  16   8   8  16
#     4  10  23  37  51  85 126 161 206 245 284 347
#     4  10  22  44  76  86 112 156 194 266 326 370
#     4  10  23  38  60  86 128 163 194 253 302 355
#     4  10  22  43  61  90 120 153 205 257 311 365
#     4  11  22  37  59  88 126 169 207 241 296 355
#     4  12  21  37  58  89 127 174 213 243 283 354
#     4  11  23  38  60  87 125 165 203 250 298 354
#
# _framework density 18.509725
#
# number of rings (size 3 to 8) (size 9 to 14) (size 15 to 20)
#    0.000    1.412    2.353    2.824    6.588    0.471 
#    0.000   10.000    0.000    0.000    0.000    0.000 
#    0.000    0.000    0.000    0.000    0.000    0.000 
#
# Total GULP energy -189369.862258 kJ/mol
# GULP energy per Si atom -5569.701831 kJ/mol
# Density = 1.846760 g / cm^3
# Si number density = 18.509725 Si / 1000 Ang^3
#
#
#
# Elastic Constant Matrix: (Units=GPa)
#
#
# Indices 1 2 3 4 5 6 
#
# 1 173.7333 49.3106 35.6132 0.0001 0.0000 -0.0001
# 2 49.3106 75.4915 1.7337 0.0000 0.0000 0.0000
# 3 35.6132 1.7337 129.0187 -0.0004 0.0000 -0.0001
# 4 0.0001 0.0000 -0.0004 -1.3145 0.0000 0.0000
# 5 0.0000 0.0000 0.0000 0.0000 18.0193 0.0000
# 6 -0.0001 0.0000 -0.0001 0.0000 0.0000 83.5294
#
#
#
# Elastic Compliance Matrix: (Units=1/GPa)
#
#
# Indices 1 2 3 4 5 6 
#
# 1 0.007558 -0.004891 -0.002021 0.000001 0.000000 0.000000
# 2 -0.004891 0.016415 0.001129 -0.000001 0.000000 0.000000
# 3 -0.002021 0.001129 0.008293 -0.000003 0.000000 0.000000
# 4 0.000001 -0.000001 -0.000003 -0.760735 0.000001 0.000000
# 5 0.000000 0.000000 0.000000 0.000001 0.055496 0.000000
# 6 0.000000 0.000000 0.000000 0.000000 0.000000 0.011972
#
#
# Mechanical properties :
#
#
# Convention : Reuss Voigt Hill
#
# Bulk Modulus (GPa) = 48.30197 61.28429 54.79313
# Shear Modulus (GPa) = -7.78166 39.48592 15.85213
#
# Velocity S-wave (km/s) = -2.05261 4.62373 2.92964
# Velocity P-wave (km/s) = 4.53150 7.85406 6.41174
#
# Compressibility (1/GPa) = 0.02070309
#
# Stress axis : x y z
#
# Youngs Moduli (GPa) = 132.30603 60.91957 120.57807
#
# Poissons Ratio (x) = 0.29793 0.24364
# Poissons Ratio (y) = 0.64705 -0.13618
# Poissons Ratio (z) = 0.26734 -0.06880
#
# Static dielectric constant tensor:
#      x y z
#    x 1.543890 0.000000 0.000000 
#    y 0.000000 1.583150 0.000000 
#    z 0.000000 0.000000 1.665850 
# 
# From -- ./inp_files/29116.got.cif
#   From: 2010.05.17/outbox.cif.g08.bks.cpg/sg74_15_cif.got.tgz:29116.got - 2010.06.03 17:57:02.
