data_PCOD9539732
_publ_section_title
;
Structure prediction by ZEFSAII (Michael W. Deem and Ramdas Pophale) SiO2 
 PCOD9539732
Probable space group: I M M A
;
_chemical_formula_sum "Si O2"
_cell_formula_units_Z 68
_cell_length_a 17.632767
_cell_length_b 9.704704
_cell_length_c 19.934852
_cell_angle_alpha 90.000000
_cell_angle_beta 90.000000
_cell_angle_gamma 90.000000
_cell_volume 3411.267512
_symmetry_space_group_name_H-M "I M M A"
_symmetry_group_IT_number 74
_symmetry_cell_setting 'orthorhombic'
loop_
_space_group_symop_operation_xyz
x,y,z
-x,1/2-y,z
x,-y,-z
-x,1/2+y,-z
-x,-y,-z
x,1/2+y,-z
-x,y,z
x,1/2-y,z
1/2+x,1/2+y,1/2+z
1/2-x,-y,1/2+z
1/2+x,1/2-y,1/2-z
1/2-x,y,1/2-z
1/2-x,1/2-y,1/2-z
1/2+x,y,1/2-z
1/2-x,1/2+y,1/2+z
1/2+x,-y,1/2+z
loop_
_atom_site_type_symbol
_atom_site_label
_atom_site_fract_x
_atom_site_fract_y
_atom_site_fract_z
Si Si1 0.664663 0.250000 0.781696
Si Si2 0.202479 0.250000 0.053316
Si Si3 0.751949 0.250000 0.904967
Si Si4 0.871066 0.014236 0.895705
Si Si5 0.000000 0.250000 0.919047
Si Si6 0.588555 0.965948 0.751778
Si Si7 0.694675 0.750000 0.813972
O O1 0.750000 0.250000 0.750000
O O2 0.676559 0.250000 0.861467
O O3 0.616277 0.121093 0.758826
O O4 0.151098 0.387803 0.055904
O O5 0.257037 0.250000 0.118302
O O6 0.250332 0.250000 0.985100
O O7 0.797509 0.111040 0.884981
O O8 0.894847 0.937665 0.826644
O O9 0.934409 0.126283 0.915690
O O10 0.500000 0.946902 0.764565
O O11 0.640003 0.879376 0.802200
O O12 0.750000 0.750000 0.750000
#
# Coordination Sequence:
#
# PCOD9539732 Si02
#       7
#     8   8   8  16   4  16   8
#     4  12  21  38  69  94 122 166 214 267 314 370
#     4  12  25  41  63  92 128 166 214 265 307 371
#     4  11  24  40  62  93 125 164 212 269 315 360
#     4  11  21  39  63  88 130 165 204 255 319 376
#     4  10  22  38  62  88 130 170 204 246 306 396
#     4  12  23  38  65  96 130 161 206 270 326 375
#     4  12  23  41  64  94 123 168 219 260 314 372
#
# _framework density 19.933938999999999
#
# number of rings (size 3 to 8) (size 9 to 14) (size 15 to 20)
#    0.000    0.471    5.882    4.235    0.000    0.471 
#    0.000    9.412    0.000    4.235    0.000    0.000 
#    0.000    0.000    0.000    0.000    0.000    0.000 
#
# Total GULP energy -189506.305039 kJ/mol
# GULP energy per Si atom -5573.714854 kJ/mol
# Density = 1.988857 g / cm^3
# Si number density = 19.933939 Si / 1000 Ang^3
#
#
#
# Elastic Constant Matrix: (Units=GPa)
#
#
# Indices 1 2 3 4 5 6 
#
# 1 80.2970 12.1536 41.6971 0.0000 0.0000 0.0000
# 2 12.1536 112.3336 8.6062 0.0000 0.0000 0.0000
# 3 41.6971 8.6062 120.1640 0.0000 0.0000 0.0000
# 4 0.0000 0.0000 0.0000 24.2812 0.0000 0.0000
# 5 0.0000 0.0000 0.0000 0.0000 12.4985 0.0000
# 6 0.0000 0.0000 0.0000 0.0000 0.0000 36.2705
#
#
#
# Elastic Compliance Matrix: (Units=1/GPa)
#
#
# Indices 1 2 3 4 5 6 
#
# 1 0.015367 -0.001261 -0.005242 0.000000 0.000000 0.000000
# 2 -0.001261 0.009055 -0.000211 0.000000 0.000000 0.000000
# 3 -0.005242 -0.000211 0.010156 0.000000 0.000000 0.000000
# 4 0.000000 0.000000 0.000000 0.041184 0.000000 0.000000
# 5 0.000000 0.000000 0.000000 0.000000 0.080010 0.000000
# 6 0.000000 0.000000 0.000000 0.000000 0.000000 0.027571
#
#
# Mechanical properties :
#
#
# Convention : Reuss Voigt Hill
#
# Bulk Modulus (GPa) = 47.28210 48.63429 47.95820
# Shear Modulus (GPa) = 24.53150 31.29921 27.91536
#
# Velocity S-wave (km/s) = 3.51185 3.96681 3.74624
# Velocity P-wave (km/s) = 6.34153 6.74028 6.54395
#
# Compressibility (1/GPa) = 0.02114965
#
# Stress axis : x y z
#
# Youngs Moduli (GPa) = 65.07582 110.44061 98.46361
#
# Poissons Ratio (x) = 0.13926 0.51614
# Poissons Ratio (y) = 0.08206 0.02077
# Poissons Ratio (z) = 0.34112 0.02330
#
# Static dielectric constant tensor:
#      x y z
#    x 1.663120 0.000000 0.000000 
#    y 0.000000 1.654200 0.000000 
#    z 0.000000 0.000000 1.808320 
# 
# From -- ./inp_files/52665.got.cif
#   From: 2010.05.17/outbox.cif.g08.bks.cpg/sg74_27_cif.got.tgz:52665.got - 2010.06.03 17:57:02.
