data_PCOD9539562
_publ_section_title
;
Structure prediction by ZEFSAII (Michael W. Deem and Ramdas Pophale) SiO2 
 PCOD9539562
Probable space group: I M M A
;
_chemical_formula_sum "Si O2"
_cell_formula_units_Z 64
_cell_length_a 24.008130
_cell_length_b 18.767638
_cell_length_c 7.070736
_cell_angle_alpha 90.000000
_cell_angle_beta 90.000000
_cell_angle_gamma 90.000000
_cell_volume 3185.903187
_symmetry_space_group_name_H-M "I M M A"
_symmetry_group_IT_number 74
_symmetry_cell_setting 'orthorhombic'
loop_
_space_group_symop_operation_xyz
x,y,z
-x,1/2-y,z
x,-y,-z
-x,1/2+y,-z
-x,-y,-z
x,1/2+y,-z
-x,y,z
x,1/2-y,z
1/2+x,1/2+y,1/2+z
1/2-x,-y,1/2+z
1/2+x,1/2-y,1/2-z
1/2-x,y,1/2-z
1/2-x,1/2-y,1/2-z
1/2+x,y,1/2-z
1/2-x,1/2+y,1/2+z
1/2+x,-y,1/2+z
loop_
_atom_site_type_symbol
_atom_site_label
_atom_site_fract_x
_atom_site_fract_y
_atom_site_fract_z
Si Si1 0.435982 0.424994 0.104820
Si Si2 0.626986 0.834323 0.161303
Si Si3 0.852094 0.583545 0.950209
Si Si4 0.269699 0.418211 0.967439
O O1 0.500000 0.428490 0.168314
O O2 0.394731 0.409514 0.278369
O O3 0.422652 0.500000 0.000000
O O4 0.426272 0.364181 0.948937
O O5 0.628904 0.750000 0.175970
O O6 0.630546 0.870416 0.367796
O O7 0.679273 0.863876 0.037321
O O8 0.786387 0.598989 0.914718
O O9 0.852663 0.500000 0.000000
O O10 0.250000 0.417366 0.750000
O O11 0.288076 0.500000 0.000000
#
# Coordination Sequence:
#
# PCOD9539562 Si02
#       4
#    16  16  16  16
#     4  11  24  42  67  94 124 167 226 276 315 375
#     4  11  24  41  63  95 136 169 206 263 334 392
#     4  10  21  40  66  96 123 164 214 267 319 385
#     4   9  20  35  62  92 125 163 207 259 315 383
#
# _framework density 20.088495000000002
#
# number of rings (size 3 to 8) (size 9 to 14) (size 15 to 20)
#    0.000    1.750    2.500    0.750    7.000    7.500 
#    0.000    1.250    0.000    0.000    0.000    0.000 
#    0.000    0.000    0.000    0.000    0.000    0.000 
#
# Total GULP energy -178708.340764 kJ/mol
# GULP energy per Si atom -5584.635649 kJ/mol
# Density = 2.004277 g / cm^3
# Si number density = 20.088495 Si / 1000 Ang^3
#
#
#
# Elastic Constant Matrix: (Units=GPa)
#
#
# Indices 1 2 3 4 5 6 
#
# 1 122.9322 39.3550 84.2523 0.0000 0.0000 0.0000
# 2 39.3550 114.3458 42.3161 0.0000 0.0000 0.0000
# 3 84.2523 42.3161 110.8694 0.0000 0.0000 0.0000
# 4 0.0000 0.0000 0.0000 27.5588 0.0000 0.0000
# 5 0.0000 0.0000 0.0000 0.0000 25.1772 0.0000
# 6 0.0000 0.0000 0.0000 0.0000 0.0000 -98.1272
#
#
#
# Elastic Compliance Matrix: (Units=1/GPa)
#
#
# Indices 1 2 3 4 5 6 
#
# 1 0.017129 -0.001256 -0.012538 0.000000 0.000000 0.000000
# 2 -0.001256 0.010276 -0.002968 0.000000 0.000000 0.000000
# 3 -0.012538 -0.002968 0.019680 0.000000 0.000000 0.000000
# 4 0.000000 0.000000 0.000000 0.036286 0.000000 0.000000
# 5 0.000000 0.000000 0.000000 0.000000 0.039718 0.000000
# 6 0.000000 0.000000 0.000000 0.000000 0.000000 -0.010191
#
#
# Mechanical properties :
#
#
# Convention : Reuss Voigt Hill
#
# Bulk Modulus (GPa) = 73.73085 75.55492 74.64288
# Shear Modulus (GPa) = 33.12516 3.07003 18.09759
#
# Velocity S-wave (km/s) = 4.06515 1.23757 3.00475
# Velocity P-wave (km/s) = 7.66920 6.30355 7.01966
#
# Compressibility (1/GPa) = 0.01356284
#
# Stress axis : x y z
#
# Youngs Moduli (GPa) = 58.37916 97.31522 50.81256
#
# Poissons Ratio (x) = 0.12219 0.63708
# Poissons Ratio (y) = 0.07330 0.15081
# Poissons Ratio (z) = 0.73195 0.28882
#
# Static dielectric constant tensor:
#      x y z
#    x 1.762670 0.000000 0.000000 
#    y 0.000000 1.656560 0.000000 
#    z 0.000000 0.000000 1.756360 
# 
# From -- ./inp_files/3036.got.cif
#   From: 2010.05.17/outbox.cif.g08.bks.cpg/sg74_2_cif.got.tgz:3036.got - 2010.06.03 17:57:02.
