data_PCOD9539157
_publ_section_title
;
Structure prediction by ZEFSAII (Michael W. Deem and Ramdas Pophale) SiO2 
 PCOD9539157
Probable space group: I M M A
;
_chemical_formula_sum "Si O2"
_cell_formula_units_Z 56
_cell_length_a 34.312094
_cell_length_b 15.843702
_cell_length_c 5.018752
_cell_angle_alpha 90.000000
_cell_angle_beta 90.000000
_cell_angle_gamma 90.000000
_cell_volume 2728.347123
_symmetry_space_group_name_H-M "I M M A"
_symmetry_group_IT_number 74
_symmetry_cell_setting 'orthorhombic'
loop_
_space_group_symop_operation_xyz
x,y,z
-x,1/2-y,z
x,-y,-z
-x,1/2+y,-z
-x,-y,-z
x,1/2+y,-z
-x,y,z
x,1/2-y,z
1/2+x,1/2+y,1/2+z
1/2-x,-y,1/2+z
1/2+x,1/2-y,1/2-z
1/2-x,y,1/2-z
1/2-x,1/2-y,1/2-z
1/2+x,y,1/2-z
1/2-x,1/2+y,1/2+z
1/2+x,-y,1/2+z
loop_
_atom_site_type_symbol
_atom_site_label
_atom_site_fract_x
_atom_site_fract_y
_atom_site_fract_z
Si Si1 0.614848 0.649781 0.985527
Si Si2 0.838153 0.403609 0.984764
Si Si3 0.278348 0.750000 0.505039
Si Si4 0.956709 0.939186 0.247946
O O1 0.617635 0.750000 0.959111
O O2 0.646324 0.613593 0.189568
O O3 0.574584 0.626672 0.137182
O O4 0.626696 0.610778 0.699424
O O5 0.805678 0.332466 0.026732
O O6 0.824520 0.500000 0.000000
O O7 0.250000 0.750000 0.750000
O O8 0.250000 0.750000 0.250000
O O9 0.000000 0.903760 0.183807
O O10 0.960432 0.000000 0.500000
O O11 0.945268 0.000000 0.000000
#
# Coordination Sequence:
#
# PCOD9539157 Si02
#       4
#    16  16   8  16
#     4  12  22  40  65  95 132 171 225 278 323 386
#     4  12  25  44  69  98 130 173 219 266 332 402
#     4  12  26  46  70  98 135 162 209 274 336 404
#     4  10  21  37  58  89 129 173 222 273 326 382
#
# _framework density 20.525248000000001
#
# number of rings (size 3 to 8) (size 9 to 14) (size 15 to 20)
#    0.000    0.571    2.857    6.857    0.000    1.714 
#    0.000    0.000    0.000    8.571    0.000    0.000 
#    0.000    0.000    0.000    0.000    0.000    0.000 
#
# Total GULP energy -156289.574474 kJ/mol
# GULP energy per Si atom -5581.770517 kJ/mol
# Density = 2.047853 g / cm^3
# Si number density = 20.525248 Si / 1000 Ang^3
#
#
#
# Elastic Constant Matrix: (Units=GPa)
#
#
# Indices 1 2 3 4 5 6 
#
# 1 90.0641 54.5848 7.3654 -0.0004 1.9064 0.0003
# 2 54.5848 164.6948 19.4278 -0.0001 0.1482 0.0001
# 3 7.3654 19.4278 124.8438 0.0005 -2.5088 -0.0020
# 4 -0.0004 -0.0001 0.0005 24.1736 -0.9504 -0.0001
# 5 1.9064 0.1482 -2.5088 -0.950428412.2133 -1.9603
# 6 0.0003 0.0001 -0.0020 -0.0001 -1.9603 8.1068
#
#
#
# Elastic Compliance Matrix: (Units=1/GPa)
#
#
# Indices 1 2 3 4 5 6 
#
# 1 0.013895 -0.004593 -0.000105 0.000000 -0.000001 -0.000001
# 2 -0.004593 0.007704 -0.000928 0.000000 0.000000 0.000000
# 3 -0.000105 -0.000928 0.008161 0.000000 0.000001 0.000002
# 4 0.000000 0.000000 0.000000 0.041367 0.000001 0.000001
# 5 -0.000001 0.000000 0.000001 0.000001 0.000035 0.000009
# 6 -0.000001 0.000000 0.000002 0.000001 0.000009 0.123355
#
#
# Mechanical properties :
#
#
# Convention : Reuss Voigt Hill
#
# Bulk Modulus (GPa) = 54.03104 60.26206 57.14655
# Shear Modulus (GPa) = 23.59172 5708.78038 2866.18605
#
# Velocity S-wave (km/s) = 3.39396 52.79568 37.40924
# Velocity P-wave (km/s) = 6.46064 61.20404 43.51824
#
# Compressibility (1/GPa) = 0.01850788
#
# Stress axis : x y z
#
# Youngs Moduli (GPa) = 71.96593 129.81051 122.53987
#
# Poissons Ratio (x) = 0.59622 0.01287
# Poissons Ratio (y) = 0.33054 0.11370
# Poissons Ratio (z) = 0.00756 0.12044
#
# Static dielectric constant tensor:
#      x y z
#    x 1.809300 0.000000 0.000000 
#    y 0.000000 1.685710 0.000000 
#    z 0.000000 0.000000 1.695250 
# 
# From -- ./inp_files/1483.got.cif
#   From: 2010.05.17/outbox.cif.g08.bks.cpg/sg74_1_cif.got.tgz:1483.got - 2010.06.03 17:57:02.
