data_PCOD9539997
_publ_section_title
;
Structure prediction by ZEFSAII (Michael W. Deem and Ramdas Pophale) SiO2 
 PCOD9539997
Probable space group: I M M A
;
_chemical_formula_sum "Si O2"
_cell_formula_units_Z 64
_cell_length_a 24.931883
_cell_length_b 15.328486
_cell_length_c 8.742794
_cell_angle_alpha 90.000000
_cell_angle_beta 90.000000
_cell_angle_gamma 90.000000
_cell_volume 3341.216268
_symmetry_space_group_name_H-M "I M M A"
_symmetry_group_IT_number 74
_symmetry_cell_setting 'orthorhombic'
loop_
_space_group_symop_operation_xyz
x,y,z
-x,1/2-y,z
x,-y,-z
-x,1/2+y,-z
-x,-y,-z
x,1/2+y,-z
-x,y,z
x,1/2-y,z
1/2+x,1/2+y,1/2+z
1/2-x,-y,1/2+z
1/2+x,1/2-y,1/2-z
1/2-x,y,1/2-z
1/2-x,1/2-y,1/2-z
1/2+x,y,1/2-z
1/2-x,1/2+y,1/2+z
1/2+x,-y,1/2+z
loop_
_atom_site_type_symbol
_atom_site_label
_atom_site_fract_x
_atom_site_fract_y
_atom_site_fract_z
Si Si1 0.849531 0.250000 0.940931
Si Si2 0.438374 0.406910 0.082947
Si Si3 0.250000 0.599605 0.750000
Si Si4 0.638039 0.571316 0.626412
Si Si5 0.111564 0.750000 0.388981
Si Si6 0.231145 0.750000 0.504891
O O1 0.888384 0.250000 0.794834
O O2 0.858104 0.335717 0.042502
O O3 0.785524 0.250000 0.906530
O O4 0.500000 0.384460 0.120434
O O5 0.402760 0.416985 0.234425
O O6 0.437477 0.500000 0.000000
O O7 0.414680 0.334024 0.969092
O O8 0.302734 0.548674 0.694600
O O9 0.233110 0.664688 0.613365
O O10 0.622579 0.500000 0.500000
O O11 0.174596 0.750000 0.424633
#
# Coordination Sequence:
#
# PCOD9539997 Si02
#       6
#     8  16   8  16   8   8
#     4  10  23  38  60  97 127 158 200 245 308 373
#     4  11  25  43  64  89 119 163 213 258 306 360
#     4   9  18  36  58  91 122 154 198 245 302 369
#     4  11  22  41  63  90 126 164 205 253 313 368
#     4  12  20  41  65  89 124 160 207 248 303 368
#     4   9  17  35  61  86 123 161 189 246 300 361
#
# _framework density 19.154700999999999
#
# number of rings (size 3 to 8) (size 9 to 14) (size 15 to 20)
#    0.000    1.500    2.500    3.750    0.000    1.500 
#    9.000    2.500    0.000    0.000    0.000    0.000 
#    0.000    0.000    0.000    0.000    0.000    0.000 
#
# Total GULP energy -178724.875563 kJ/mol
# GULP energy per Si atom -5585.152361 kJ/mol
# Density = 1.911110 g / cm^3
# Si number density = 19.154701 Si / 1000 Ang^3
#
#
#
# Elastic Constant Matrix: (Units=GPa)
#
#
# Indices 1 2 3 4 5 6 
#
# 1 132.4001 35.8525 74.5595 0.0000 0.0000 0.0000
# 2 35.8525 86.0903 31.8332 0.0000 0.0000 0.0000
# 3 74.5595 31.8332 113.5030 0.0000 0.0000 0.0000
# 4 0.0000 0.0000 0.0000 29.9238 0.0000 0.0000
# 5 0.0000 0.0000 0.0000 0.0000 25.3996 0.0000
# 6 0.0000 0.0000 0.0000 0.0000 0.0000 30.6347
#
#
#
# Elastic Compliance Matrix: (Units=1/GPa)
#
#
# Indices 1 2 3 4 5 6 
#
# 1 0.012418 -0.002405 -0.007483 0.000000 0.000000 0.000000
# 2 -0.002405 0.013425 -0.002186 0.000000 0.000000 0.000000
# 3 -0.007483 -0.002186 0.014339 0.000000 0.000000 0.000000
# 4 0.000000 0.000000 0.000000 0.033418 0.000000 0.000000
# 5 0.000000 0.000000 0.000000 0.000000 0.039371 0.000000
# 6 0.000000 0.000000 0.000000 0.000000 0.000000 0.032643
#
#
# Mechanical properties :
#
#
# Convention : Reuss Voigt Hill
#
# Bulk Modulus (GPa) = 62.36091 68.49820 65.42956
# Shear Modulus (GPa) = 28.55428 29.84149 29.19788
#
# Velocity S-wave (km/s) = 3.86517 3.95133 3.90849
# Velocity P-wave (km/s) = 7.24890 7.52699 7.38925
#
# Compressibility (1/GPa) = 0.01603569
#
# Stress axis : x y z
#
# Youngs Moduli (GPa) = 80.52921 74.48625 69.74096
#
# Poissons Ratio (x) = 0.17911 0.52186
# Poissons Ratio (y) = 0.19364 0.15244
# Poissons Ratio (z) = 0.60259 0.16281
#
# Static dielectric constant tensor:
#      x y z
#    x 1.670880 0.000000 0.000000 
#    y 0.000000 1.739000 0.000000 
#    z 0.000000 0.000000 1.667970 
# 
# From -- ./inp_files/8919.got.cif
#   From: 2010.05.17/outbox.cif.g08.bks.cpg/sg74_5_cif.got.tgz:8919.got - 2010.06.03 17:57:02.
