data_PCOD9539139
_publ_section_title
;
Structure prediction by ZEFSAII (Michael W. Deem and Ramdas Pophale) SiO2 
 PCOD9539139
Probable space group: I M M A
;
_chemical_formula_sum "Si O2"
_cell_formula_units_Z 88
_cell_length_a 15.616685
_cell_length_b 22.999542
_cell_length_c 13.331117
_cell_angle_alpha 90.000000
_cell_angle_beta 90.000000
_cell_angle_gamma 90.000000
_cell_volume 4788.225312
_symmetry_space_group_name_H-M "I M M A"
_symmetry_group_IT_number 74
_symmetry_cell_setting 'orthorhombic'
loop_
_space_group_symop_operation_xyz
x,y,z
-x,1/2-y,z
x,-y,-z
-x,1/2+y,-z
-x,-y,-z
x,1/2+y,-z
-x,y,z
x,1/2-y,z
1/2+x,1/2+y,1/2+z
1/2-x,-y,1/2+z
1/2+x,1/2-y,1/2-z
1/2-x,y,1/2-z
1/2-x,1/2-y,1/2-z
1/2+x,y,1/2-z
1/2-x,1/2+y,1/2+z
1/2+x,-y,1/2+z
loop_
_atom_site_type_symbol
_atom_site_label
_atom_site_fract_x
_atom_site_fract_y
_atom_site_fract_z
Si Si1 0.749962 0.315827 0.033539
Si Si2 0.901303 0.681971 0.377825
Si Si3 0.097794 0.949903 0.792103
Si Si4 0.647878 0.424150 0.735201
Si Si5 0.901871 0.595513 0.006836
Si Si6 0.250000 0.638988 0.750000
O O1 0.772335 0.250000 0.008987
O O2 0.733715 0.323485 0.151228
O O3 0.667489 0.330658 0.965406
O O4 0.830673 0.356149 0.012558
O O5 0.887371 0.750000 0.344336
O O6 0.888175 0.631991 0.294021
O O7 0.000000 0.678811 0.412349
O O8 0.167774 0.902786 0.760939
O O9 0.000000 0.932697 0.770691
O O10 0.116539 0.010960 0.736905
O O11 0.105542 0.950309 0.914657
O O12 0.750000 0.422281 0.750000
O O13 0.618429 0.422475 0.619915
O O14 0.000000 0.616537 0.002886
#
# Coordination Sequence:
#
# PCOD9539139 Si02
#       6
#    16  16  16  16  16   8
#     4  10  21  38  59  84 114 149 192 239 287 338
#     4  10  22  39  58  83 117 153 188 230 282 342
#     4  10  21  38  59  84 115 150 191 236 282 335
#     4  12  21  36  60  87 115 152 190 228 285 345
#     4  10  21  37  58  84 117 153 188 233 283 336
#     4  10  21  38  60  84 113 148 192 240 288 338
#
# _framework density 18.378416000000001
#
# number of rings (size 3 to 8) (size 9 to 14) (size 15 to 20)
#    0.000    1.636    2.727    2.455    0.000    3.636 
#    0.000    0.909    0.000    5.455    0.000    0.000 
#    0.000    0.000    0.000    0.000    0.000    0.000 
#
# Total GULP energy -245126.050475 kJ/mol
# GULP energy per Si atom -5571.046602 kJ/mol
# Density = 1.833659 g / cm^3
# Si number density = 18.378416 Si / 1000 Ang^3
#
#
#
# Elastic Constant Matrix: (Units=GPa)
#
#
# Indices 1 2 3 4 5 6 
#
# 1 149.7490 54.7524 30.2650 0.0000 0.0000 0.0000
# 2 54.7524 92.1320 32.9112 0.0000 0.0000 0.0000
# 3 30.2650 32.9112 50.3729 0.0002 0.0000 0.0001
# 4 0.0000 0.0000 0.0002 60.6948 0.0000 0.0000
# 5 0.0000 0.0000 0.0000 0.0000 22.3576 0.0000
# 6 0.0000 0.0000 0.0001 0.0000 0.0000 42.1405
#
#
#
# Elastic Compliance Matrix: (Units=1/GPa)
#
#
# Indices 1 2 3 4 5 6 
#
# 1 0.008753 -0.004335 -0.002427 0.000000 0.000000 0.000000
# 2 -0.004335 0.016305 -0.008049 0.000000 0.000000 0.000000
# 3 -0.002427 -0.008049 0.026569 0.000000 0.000000 0.000000
# 4 0.000000 0.000000 0.000000 0.016476 0.000000 0.000000
# 5 0.000000 0.000000 0.000000 0.000000 0.044728 0.000000
# 6 0.000000 0.000000 0.000000 0.000000 0.000000 0.023730
#
#
# Mechanical properties :
#
#
# Convention : Reuss Voigt Hill
#
# Bulk Modulus (GPa) = 45.44139 58.67899 52.06019
# Shear Modulus (GPa) = 28.81563 36.66026 32.73794
#
# Velocity S-wave (km/s) = 3.96397 4.47110 4.22515
# Velocity P-wave (km/s) = 6.76239 7.65845 7.22433
#
# Compressibility (1/GPa) = 0.02200637
#
# Stress axis : x y z
#
# Youngs Moduli (GPa) = 114.24228 61.32985 37.63847
#
# Poissons Ratio (x) = 0.26587 0.09134
# Poissons Ratio (y) = 0.49524 0.30293
# Poissons Ratio (z) = 0.27725 0.49361
#
# Static dielectric constant tensor:
#      x y z
#    x 1.611730 0.000000 0.000000 
#    y 0.000000 1.636010 0.000000 
#    z 0.000000 0.000000 1.643680 
# 
# From -- ./inp_files/32232.got.cif
#   From: 2010.05.17/outbox.cif.g08.bks.cpg/sg74_17_cif.got.tgz:32232.got - 2010.06.03 17:57:02.
