data_PCOD9539346
_publ_section_title
;
Structure prediction by ZEFSAII (Michael W. Deem and Ramdas Pophale) SiO2 
 PCOD9539346
Probable space group: I M M A
;
_chemical_formula_sum "Si O2"
_cell_formula_units_Z 56
_cell_length_a 18.275007
_cell_length_b 10.501363
_cell_length_c 14.241549
_cell_angle_alpha 90.000000
_cell_angle_beta 90.000000
_cell_angle_gamma 90.000000
_cell_volume 2733.131021
_symmetry_space_group_name_H-M "I M M A"
_symmetry_group_IT_number 74
_symmetry_cell_setting 'orthorhombic'
loop_
_space_group_symop_operation_xyz
x,y,z
-x,1/2-y,z
x,-y,-z
-x,1/2+y,-z
-x,-y,-z
x,1/2+y,-z
-x,y,z
x,1/2-y,z
1/2+x,1/2+y,1/2+z
1/2-x,-y,1/2+z
1/2+x,1/2-y,1/2-z
1/2-x,y,1/2-z
1/2-x,1/2-y,1/2-z
1/2+x,y,1/2-z
1/2-x,1/2+y,1/2+z
1/2+x,-y,1/2+z
loop_
_atom_site_type_symbol
_atom_site_label
_atom_site_fract_x
_atom_site_fract_y
_atom_site_fract_z
Si Si1 0.375825 0.399921 0.082142
Si Si2 0.000000 0.608370 0.081267
Si Si3 0.798193 0.112688 0.068835
Si Si4 0.580402 0.950285 0.709091
O O1 0.395983 0.250000 0.065762
O O2 0.287382 0.402503 0.091947
O O3 0.408202 0.448257 0.180339
O O4 0.395546 0.500000 0.000000
O O5 0.932556 0.582488 0.152893
O O6 0.000000 0.750000 0.042186
O O7 0.000000 0.500000 0.000000
O O8 0.807327 0.250000 0.021666
O O9 0.850102 0.110230 0.159097
O O10 0.819745 0.000000 0.000000
O O11 0.500000 0.889584 0.691470
#
# Coordination Sequence:
#
# PCOD9539346 Si02
#       4
#    16   8  16  16
#     4  10  22  41  63  89 121 161 209 257 305 358
#     4  10  24  42  61  90 127 162 197 246 302 364
#     4  10  21  38  61  90 123 159 202 251 303 362
#     4  10  23  38  60  92 120 162 199 252 297 368
#
# _framework density 20.489321
#
# number of rings (size 3 to 8) (size 9 to 14) (size 15 to 20)
#    0.857    1.143    0.000    2.571    0.000   12.000 
#    0.000    0.000    0.000    8.571    0.000    0.000 
#    0.000    0.000    0.000    0.000    0.000    0.000 
#
# Total GULP energy -155924.212355 kJ/mol
# GULP energy per Si atom -5568.721870 kJ/mol
# Density = 2.044269 g / cm^3
# Si number density = 20.489321 Si / 1000 Ang^3
#
#
#
# Elastic Constant Matrix: (Units=GPa)
#
#
# Indices 1 2 3 4 5 6 
#
# 1 40.6762 28.2508 38.1903 0.0000 0.0000 0.0000
# 2 28.2508 151.9856 91.1030 0.0000 0.0000 0.0000
# 3 38.1903 91.1030 162.2673 0.0000 0.0000 0.0000
# 4 0.0000 0.0000 0.0000 20.2708 0.0000 0.0000
# 5 0.0000 0.0000 0.0000 0.0000 31.6491 0.0000
# 6 0.0000 0.0000 0.0000 0.0000 0.0000 -1.7859
#
#
#
# Elastic Compliance Matrix: (Units=1/GPa)
#
#
# Indices 1 2 3 4 5 6 
#
# 1 0.032022 -0.002162 -0.006323 0.000000 0.000000 0.000000
# 2 -0.002162 0.010063 -0.005141 0.000000 0.000000 0.000000
# 3 -0.006323 -0.005141 0.010537 0.000000 0.000000 0.000000
# 4 0.000000 0.000000 0.000000 0.049332 0.000000 0.000000
# 5 0.000000 0.000000 0.000000 0.000000 0.031597 0.000000
# 6 0.000000 0.000000 0.000000 0.000000 0.000000 -0.559948
#
#
# Mechanical properties :
#
#
# Convention : Reuss Voigt Hill
#
# Bulk Modulus (GPa) = 39.41536 74.44637 56.93087
# Shear Modulus (GPa) = -12.79792 23.18580 5.19394
#
# Velocity S-wave (km/s) = -2.50194 3.36758 1.59388
# Velocity P-wave (km/s) = 3.30644 7.17871 5.58867
#
# Compressibility (1/GPa) = 0.02537082
#
# Stress axis : x y z
#
# Youngs Moduli (GPa) = 31.22812 99.37370 94.90390
#
# Poissons Ratio (x) = 0.21489 0.60004
# Poissons Ratio (y) = 0.06753 0.48789
# Poissons Ratio (z) = 0.19744 0.51086
#
# Static dielectric constant tensor:
#      x y z
#    x 1.790120 0.000000 0.000000 
#    y 0.000000 1.786540 0.000000 
#    z 0.000000 0.000000 1.702390 
# 
# From -- ./inp_files/28484.got.cif
#   From: 2010.05.17/outbox.cif.g08.bks.cpg/sg74_15_cif.got.tgz:28484.got - 2010.06.03 17:57:02.
