data_PCOD9539072
_publ_section_title
;
Structure prediction by ZEFSAII (Michael W. Deem and Ramdas Pophale) SiO2 
 PCOD9539072
Probable space group: I M M A
;
_chemical_formula_sum "Si O2"
_cell_formula_units_Z 112
_cell_length_a 14.180366
_cell_length_b 17.828877
_cell_length_c 24.575779
_cell_angle_alpha 90.000000
_cell_angle_beta 90.000000
_cell_angle_gamma 90.000000
_cell_volume 6213.248477
_symmetry_space_group_name_H-M "I M M A"
_symmetry_group_IT_number 74
_symmetry_cell_setting 'orthorhombic'
loop_
_space_group_symop_operation_xyz
x,y,z
-x,1/2-y,z
x,-y,-z
-x,1/2+y,-z
-x,-y,-z
x,1/2+y,-z
-x,y,z
x,1/2-y,z
1/2+x,1/2+y,1/2+z
1/2-x,-y,1/2+z
1/2+x,1/2-y,1/2-z
1/2-x,y,1/2-z
1/2-x,1/2-y,1/2-z
1/2+x,y,1/2-z
1/2-x,1/2+y,1/2+z
1/2+x,-y,1/2+z
loop_
_atom_site_type_symbol
_atom_site_label
_atom_site_fract_x
_atom_site_fract_y
_atom_site_fract_z
Si Si1 0.112090 0.050738 0.881033
Si Si2 0.718555 0.160766 0.547283
Si Si3 0.722154 0.836266 0.662326
Si Si4 0.388466 0.041690 0.276224
Si Si5 0.387605 0.894128 0.560406
Si Si6 0.889110 0.055168 0.550880
Si Si7 0.389014 0.448918 0.152513
O O1 0.167866 0.122499 0.901185
O O2 0.000000 0.064817 0.881956
O O3 0.138463 0.019875 0.821326
O O4 0.130384 0.980709 0.922103
O O5 0.716524 0.250000 0.548285
O O6 0.662419 0.129882 0.494796
O O7 0.823297 0.126940 0.545403
O O8 0.735542 0.750000 0.676237
O O9 0.669109 0.883826 0.708835
O O10 0.655369 0.845683 0.609554
O O11 0.819848 0.878150 0.648332
O O12 0.500000 0.056625 0.284503
O O13 0.374735 0.020022 0.213687
O O14 0.500000 0.884619 0.556297
O O15 0.000000 0.073639 0.551506
O O16 0.871655 0.000000 0.500000
O O17 0.866516 0.008910 0.605834
O O18 0.500000 0.429100 0.146924
#
# Coordination Sequence:
#
# PCOD9539072 Si02
#       7
#    16  16  16  16  16  16  16
#     4   9  18  34  55  77 105 141 178 215 254 302
#     4  12  23  33  52  82 112 139 168 213 272 323
#     4  11  21  32  50  78 114 150 177 212 263 310
#     4   9  19  35  55  78 103 138 184 225 260 306
#     4  10  21  37  56  78 107 145 184 214 246 304
#     4  10  21  39  61  79  99 134 179 223 264 309
#     4  10  21  37  57  78 100 136 186 228 261 306
#
# _framework density 18.025997
#
# number of rings (size 3 to 8) (size 9 to 14) (size 15 to 20)
#    0.000    1.857    0.000    6.429    0.000    5.714 
#    0.000    1.429    0.000    6.000    0.000    4.000 
#    0.000    0.000    0.000    0.000    0.000    0.000 
#
# Total GULP energy -312879.625379 kJ/mol
# GULP energy per Si atom -5587.136167 kJ/mol
# Density = 1.798497 g / cm^3
# Si number density = 18.025997 Si / 1000 Ang^3
#
#
#
# Elastic Constant Matrix: (Units=GPa)
#
#
# Indices 1 2 3 4 5 6 
#
# 1 96.6564 58.4611 50.5589 0.0000 0.0000 0.0000
# 2 58.4611 91.3852 56.3899 0.0000 0.0000 0.0000
# 3 50.5589 56.3899 121.0959 0.0000 0.0000 0.0000
# 4 0.0000 0.0000 0.0000 3.8463 0.0000 0.0000
# 5 0.0000 0.0000 0.0000 0.0000 23.9125 0.0000
# 6 0.0000 0.0000 0.0000 0.0000 0.0000 4.8926
#
#
#
# Elastic Compliance Matrix: (Units=1/GPa)
#
#
# Indices 1 2 3 4 5 6 
#
# 1 0.017597 -0.009435 -0.002954 0.000000 0.000000 0.000000
# 2 -0.009435 0.020413 -0.005567 0.000000 0.000000 0.000000
# 3 -0.002954 -0.005567 0.012083 0.000000 0.000000 0.000000
# 4 0.000000 0.000000 0.000000 0.259992 0.000000 0.000000
# 5 0.000000 0.000000 0.000000 0.000000 0.041819 0.000000
# 6 0.000000 0.000000 0.000000 0.000000 0.000000 0.204392
#
#
# Mechanical properties :
#
#
# Convention : Reuss Voigt Hill
#
# Bulk Modulus (GPa) = 70.50301 71.10637 70.80469
# Shear Modulus (GPa) = 8.37612 16.11211 12.24412
#
# Velocity S-wave (km/s) = 2.15796 2.99294 2.60907
# Velocity P-wave (km/s) = 6.73838 7.17466 6.95994
#
# Compressibility (1/GPa) = 0.01418379
#
# Stress axis : x y z
#
# Youngs Moduli (GPa) = 56.82643 48.98776 82.75934
#
# Poissons Ratio (x) = 0.46219 0.24444
# Poissons Ratio (y) = 0.53615 0.46068
# Poissons Ratio (z) = 0.16784 0.27269
#
# Static dielectric constant tensor:
#      x y z
#    x 1.647280 0.000000 0.000000 
#    y 0.000000 1.573680 0.000000 
#    z 0.000000 0.000000 1.646570 
# 
# From -- ./inp_files/67237.got.cif
#   From: 2010.05.17/outbox.cif.g08.bks.cpg/sg74_34_cif.got.tgz:67237.got - 2010.06.03 17:57:02.
