data_PCOD9539855
_publ_section_title
;
Structure prediction by ZEFSAII (Michael W. Deem and Ramdas Pophale) SiO2 
 PCOD9539855
Probable space group: I M M A
;
_chemical_formula_sum "Si O2"
_cell_formula_units_Z 56
_cell_length_a 14.607274
_cell_length_b 29.244508
_cell_length_c 5.779639
_cell_angle_alpha 90.000000
_cell_angle_beta 90.000000
_cell_angle_gamma 90.000000
_cell_volume 2468.960876
_symmetry_space_group_name_H-M "I M M A"
_symmetry_group_IT_number 74
_symmetry_cell_setting 'orthorhombic'
loop_
_space_group_symop_operation_xyz
x,y,z
-x,1/2-y,z
x,-y,-z
-x,1/2+y,-z
-x,-y,-z
x,1/2+y,-z
-x,y,z
x,1/2-y,z
1/2+x,1/2+y,1/2+z
1/2-x,-y,1/2+z
1/2+x,1/2-y,1/2-z
1/2-x,y,1/2-z
1/2-x,1/2-y,1/2-z
1/2+x,y,1/2-z
1/2-x,1/2+y,1/2+z
1/2+x,-y,1/2+z
loop_
_atom_site_type_symbol
_atom_site_label
_atom_site_fract_x
_atom_site_fract_y
_atom_site_fract_z
Si Si1 0.896495 0.514208 0.248383
Si Si2 0.898263 0.802339 0.427771
Si Si3 0.750000 0.847791 0.750000
Si Si4 0.850302 0.886157 0.137941
O O1 0.857257 0.500000 0.500000
O O2 0.899799 0.568891 0.224654
O O3 0.000000 0.494481 0.247449
O O4 0.853338 0.500000 0.000000
O O5 0.888330 0.750000 0.349413
O O6 0.811667 0.816083 0.585061
O O7 0.894769 0.839271 0.223144
O O8 0.000000 0.806211 0.539428
O O9 0.674507 0.880288 0.629603
O O10 0.750000 0.889258 0.250000
#
# Coordination Sequence:
#
# PCOD9539855 Si02
#       4
#    16  16   8  16
#     4  10  23  41  65  95 128 170 221 277 338 405
#     4  10  22  40  64  94 131 174 221 277 344 415
#     4  10  23  40  64  98 128 174 224 282 343 406
#     4  10  23  40  61  89 127 169 216 276 334 401
#
# _framework density 22.681605000000001
#
# number of rings (size 3 to 8) (size 9 to 14) (size 15 to 20)
#    0.000    2.000    0.000    1.286    8.000    9.714 
#    0.000    2.857    0.000    0.000    0.000    0.000 
#    0.000    0.000    0.000    0.000    0.000    0.000 
#
# Total GULP energy -156015.076918 kJ/mol
# GULP energy per Si atom -5571.967033 kJ/mol
# Density = 2.262998 g / cm^3
# Si number density = 22.681605 Si / 1000 Ang^3
#
#
#
# Elastic Constant Matrix: (Units=GPa)
#
#
# Indices 1 2 3 4 5 6 
#
# 1 105.4566 10.2978 17.1129 -0.0027 0.0044 0.0015
# 2 10.2978 139.5622 66.8105 0.0020 0.0069 0.0033
# 3 17.1129 66.8105 130.4476 0.0435 -0.0347 0.0151
# 4 -0.0027 0.0020 0.0435 24.3844 -0.0014 0.0056
# 5 0.0044 0.0069 -0.0347 -0.0014 8.7474 0.0001
# 6 0.0015 0.0033 0.0151 0.0056 0.0001 24.9340
#
#
#
# Elastic Compliance Matrix: (Units=1/GPa)
#
#
# Indices 1 2 3 4 5 6 
#
# 1 0.009691 -0.000141 -0.001199 0.000003 -0.000010 0.000000
# 2 -0.000141 0.009495 -0.004844 0.000008 -0.000027 0.000002
# 3 -0.001199 -0.004844 0.010304 -0.000018 0.000045 -0.000005
# 4 0.000003 0.000008 -0.000018 0.041010 0.000006 -0.000009
# 5 -0.000010 -0.000027 0.000045 0.000006 0.114320 0.000000
# 6 0.000000 0.000002 -0.000005 -0.000009 0.000000 0.040106
#
#
# Mechanical properties :
#
#
# Convention : Reuss Voigt Hill
#
# Bulk Modulus (GPa) = 58.40768 62.65652 60.53210
# Shear Modulus (GPa) = 20.57600 30.36283 25.46942
#
# Velocity S-wave (km/s) = 3.01519 3.66273 3.35462
# Velocity P-wave (km/s) = 6.15864 6.75069 6.46145
#
# Compressibility (1/GPa) = 0.01712104
#
# Stress axis : x y z
#
# Youngs Moduli (GPa) = 103.18925 105.32147 97.04643
#
# Poissons Ratio (x) = 0.01485 0.11637
# Poissons Ratio (y) = 0.01455 0.47013
# Poissons Ratio (z) = 0.12373 0.51022
#
# Static dielectric constant tensor:
#      x y z
#    x 1.873020 0.000000 0.000020 
#    y 0.000000 1.813820 -0.000010 
#    z 0.000020 -0.000010 2.007590 
# 
# From -- ./inp_files/1472.got.cif
#   From: 2010.05.17/outbox.cif.g08.bks.cpg/sg74_1_cif.got.tgz:1472.got - 2010.06.03 17:57:02.
