data_PCOD9539066
_publ_section_title
;
Structure prediction by ZEFSAII (Michael W. Deem and Ramdas Pophale) SiO2 
 PCOD9539066
Probable space group: I M M A
;
_chemical_formula_sum "Si O2"
_cell_formula_units_Z 92
_cell_length_a 18.509515
_cell_length_b 24.557208
_cell_length_c 11.799194
_cell_angle_alpha 90.000000
_cell_angle_beta 90.000000
_cell_angle_gamma 90.000000
_cell_volume 5363.229355
_symmetry_space_group_name_H-M "I M M A"
_symmetry_group_IT_number 74
_symmetry_cell_setting 'orthorhombic'
loop_
_space_group_symop_operation_xyz
x,y,z
-x,1/2-y,z
x,-y,-z
-x,1/2+y,-z
-x,-y,-z
x,1/2+y,-z
-x,y,z
x,1/2-y,z
1/2+x,1/2+y,1/2+z
1/2-x,-y,1/2+z
1/2+x,1/2-y,1/2-z
1/2-x,y,1/2-z
1/2-x,1/2-y,1/2-z
1/2+x,y,1/2-z
1/2-x,1/2+y,1/2+z
1/2+x,-y,1/2+z
loop_
_atom_site_type_symbol
_atom_site_label
_atom_site_fract_x
_atom_site_fract_y
_atom_site_fract_z
Si Si1 0.770790 0.903130 0.380946
Si Si2 0.417564 0.041844 0.895946
Si Si3 0.369224 0.662785 0.760313
Si Si4 0.685008 0.500000 0.500000
Si Si5 0.083943 0.044115 0.194742
Si Si6 0.258439 0.313421 0.437262
Si Si7 0.000000 0.750000 0.723409
O O1 0.750000 0.897339 0.250000
O O2 0.743820 0.852679 0.455295
O O3 0.856527 0.912425 0.395662
O O4 0.733748 0.957528 0.431027
O O5 0.500000 0.062585 0.902059
O O6 0.409194 0.005723 0.782609
O O7 0.407508 0.000000 0.000000
O O8 0.392759 0.599877 0.755494
O O9 0.327595 0.675640 0.642628
O O10 0.310951 0.673019 0.859043
O O11 0.436569 0.702456 0.774554
O O12 0.634850 0.532367 0.588239
O O13 0.000000 0.048399 0.160698
O O14 0.256773 0.250000 0.467894
#
# Coordination Sequence:
#
# PCOD9539066 Si02
#       7
#    16  16  16   8  16  16   4
#     4  12  24  39  63  85 117 166 208 250 301 370
#     4  10  21  37  55  86 124 155 189 242 301 365
#     4  11  21  37  63  95 121 153 196 254 307 357
#     4  12  23  38  59  90 120 156 206 250 303 360
#     4  11  22  36  59  89 124 156 194 243 312 366
#     4  11  23  41  60  87 122 158 203 260 301 349
#     4  12  20  38  64  98 128 154 204 244 314 368
#
# _framework density 17.153843999999999
#
# number of rings (size 3 to 8) (size 9 to 14) (size 15 to 20)
#    0.000    0.870    6.957    1.826    0.000    0.348 
#    1.565    0.000    1.913    0.000    0.000    1.217 
#    0.000    0.000    0.000    0.000    0.000    0.000 
#
# Total GULP energy -256512.911385 kJ/mol
# GULP energy per Si atom -5576.367639 kJ/mol
# Density = 1.711480 g / cm^3
# Si number density = 17.153844 Si / 1000 Ang^3
#
#
#
# Elastic Constant Matrix: (Units=GPa)
#
#
# Indices 1 2 3 4 5 6 
#
# 1 74.5830 -6.3444 11.7702 0.0000 0.0000 0.0000
# 2 -6.3444 65.6541 9.9124 0.0000 0.0000 0.0000
# 3 11.7702 9.9124 87.4005 0.0000 0.0000 0.0000
# 4 0.0000 0.0000 0.0000 9.9266 0.0000 0.0000
# 5 0.0000 0.0000 0.0000 0.0000 15.1463 0.0000
# 6 0.0000 0.0000 0.0000 0.0000 0.0000 29.1226
#
#
#
# Elastic Compliance Matrix: (Units=1/GPa)
#
#
# Indices 1 2 3 4 5 6 
#
# 1 0.013873 0.001651 -0.002055 0.000000 0.000000 0.000000
# 2 0.001651 0.015693 -0.002002 0.000000 0.000000 0.000000
# 3 -0.002055 -0.002002 0.011945 0.000000 0.000000 0.000000
# 4 0.000000 0.000000 0.000000 0.100740 0.000000 0.000000
# 5 0.000000 0.000000 0.000000 0.000000 0.066023 0.000000
# 6 0.000000 0.000000 0.000000 0.000000 0.000000 0.034338
#
#
# Mechanical properties :
#
#
# Convention : Reuss Voigt Hill
#
# Bulk Modulus (GPa) = 27.24954 28.70157 27.97556
# Shear Modulus (GPa) = 19.25614 24.99238 22.12426
#
# Velocity S-wave (km/s) = 3.35409 3.82115 3.59521
# Velocity P-wave (km/s) = 5.56055 6.01967 5.79466
#
# Compressibility (1/GPa) = 0.03669787
#
# Stress axis : x y z
#
# Youngs Moduli (GPa) = 72.08404 63.72209 83.71378
#
# Poissons Ratio (x) = -0.10520 0.17207
# Poissons Ratio (y) = -0.11900 0.16761
# Poissons Ratio (z) = 0.14817 0.12758
#
# Static dielectric constant tensor:
#      x y z
#    x 1.583600 0.000000 0.000000 
#    y 0.000000 1.557740 0.000000 
#    z 0.000000 0.000000 1.566080 
# 
# From -- ./inp_files/22507.got.cif
#   From: 2010.05.17/outbox.cif.g08.bks.cpg/sg74_12_cif.got.tgz:22507.got - 2010.06.03 17:57:02.
