data_PCOD9539323
_publ_section_title
;
Structure prediction by ZEFSAII (Michael W. Deem and Ramdas Pophale) SiO2 
 PCOD9539323
Probable space group: I M M A
;
_chemical_formula_sum "Si O2"
_cell_formula_units_Z 88
_cell_length_a 8.680178
_cell_length_b 16.579434
_cell_length_c 30.953761
_cell_angle_alpha 90.000000
_cell_angle_beta 90.000000
_cell_angle_gamma 90.000000
_cell_volume 4454.631219
_symmetry_space_group_name_H-M "I M M A"
_symmetry_group_IT_number 74
_symmetry_cell_setting 'orthorhombic'
loop_
_space_group_symop_operation_xyz
x,y,z
-x,1/2-y,z
x,-y,-z
-x,1/2+y,-z
-x,-y,-z
x,1/2+y,-z
-x,y,z
x,1/2-y,z
1/2+x,1/2+y,1/2+z
1/2-x,-y,1/2+z
1/2+x,1/2-y,1/2-z
1/2-x,y,1/2-z
1/2-x,1/2-y,1/2-z
1/2+x,y,1/2-z
1/2-x,1/2+y,1/2+z
1/2+x,-y,1/2+z
loop_
_atom_site_type_symbol
_atom_site_label
_atom_site_fract_x
_atom_site_fract_y
_atom_site_fract_z
Si Si1 0.323699 0.652886 0.043681
Si Si2 0.317708 0.439528 0.369595
Si Si3 0.323964 0.153348 0.205518
Si Si4 0.684165 0.750000 0.298739
Si Si5 0.184522 0.611448 0.360367
Si Si6 0.815029 0.843401 0.953033
O O1 0.500000 0.623782 0.040653
O O2 0.325556 0.750000 0.043494
O O3 0.260306 0.629003 0.090449
O O4 0.234520 0.628341 0.000613
O O5 0.500000 0.455758 0.372443
O O6 0.281402 0.372375 0.334116
O O7 0.230677 0.519175 0.353790
O O8 0.261558 0.403704 0.415471
O O9 0.500000 0.124613 0.200197
O O10 0.328598 0.250000 0.207677
O O11 0.250000 0.122693 0.250000
O O12 0.500000 0.750000 0.296820
O O13 0.750000 0.750000 0.250000
O O14 0.741915 0.827637 0.325998
O O15 0.000000 0.623211 0.359398
O O16 0.760607 0.750000 0.946447
O O17 0.000000 0.841123 0.950938
#
# Coordination Sequence:
#
# PCOD9539323 Si02
#       6
#    16  16  16   8  16  16
#     4   9  18  35  59  84 114 155 202 248 297 355
#     4  11  23  38  57  87 125 161 202 250 302 356
#     4  10  21  38  61  87 115 153 198 242 295 357
#     4  12  26  46  72  98 122 154 198 250 311 374
#     4  11  23  42  64  89 122 157 199 249 304 361
#     4   9  19  35  56  84 120 163 206 249 297 350
#
# _framework density 19.754722000000001
#
# number of rings (size 3 to 8) (size 9 to 14) (size 15 to 20)
#    0.000    1.818    0.909    3.000    0.000    6.182 
#    0.000    9.091    0.000    0.000    0.000    0.000 
#    0.000    0.000    0.000    0.000    0.000    0.000 
#
# Total GULP energy -245629.457594 kJ/mol
# GULP energy per Si atom -5582.487673 kJ/mol
# Density = 1.970976 g / cm^3
# Si number density = 19.754722 Si / 1000 Ang^3
#
#
#
# Elastic Constant Matrix: (Units=GPa)
#
#
# Indices 1 2 3 4 5 6 
#
# 1 52.6256 28.1915 31.5119 0.0000 0.0000 0.0000
# 2 28.1915 55.1399 34.8060 0.0000 0.0000 0.0000
# 3 31.5119 34.8060 130.3918 0.0000 0.0000 0.0000
# 4 0.0000 0.0000 0.0000 -2.9505 0.0000 0.0000
# 5 0.0000 0.0000 0.0000 0.0000 31.9348 0.0000
# 6 0.0000 0.0000 0.0000 0.0000 0.0000 23.9084
#
#
#
# Elastic Compliance Matrix: (Units=1/GPa)
#
#
# Indices 1 2 3 4 5 6 
#
# 1 0.027415 -0.011827 -0.003468 0.000000 0.000000 0.000000
# 2 -0.011827 0.026913 -0.004326 0.000000 0.000000 0.000000
# 3 -0.003468 -0.004326 0.009662 0.000000 0.000000 0.000000
# 4 0.000000 0.000000 0.000000 -0.338925 0.000000 0.000000
# 5 0.000000 0.000000 0.000000 0.000000 0.031314 0.000000
# 6 0.000000 0.000000 0.000000 0.000000 0.000000 0.041826
#
#
# Mechanical properties :
#
#
# Convention : Reuss Voigt Hill
#
# Bulk Modulus (GPa) = 40.40793 47.46401 43.93597
# Shear Modulus (GPa) = -32.40372 20.15506 -6.12433
#
# Velocity S-wave (km/s) = -4.05446 3.19762 -1.76264
# Velocity P-wave (km/s) = 1.19120 6.14100 4.25987
#
# Compressibility (1/GPa) = 0.02474762
#
# Stress axis : x y z
#
# Youngs Moduli (GPa) = 36.47677 37.15663 103.49747
#
# Poissons Ratio (x) = 0.43945 0.35896
# Poissons Ratio (y) = 0.43141 0.44770
# Poissons Ratio (z) = 0.12651 0.16073
#
# Static dielectric constant tensor:
#      x y z
#    x 1.688560 0.000000 0.000000 
#    y 0.000000 1.705390 0.000000 
#    z 0.000000 0.000000 1.686830 
# 
# From -- ./inp_files/70261.got.cif
#   From: 2010.05.17/outbox.cif.g08.bks.cpg/sg74_36_cif.got.tgz:70261.got - 2010.06.03 17:57:02.
