data_PCOD9539485
_publ_section_title
;
Structure prediction by ZEFSAII (Michael W. Deem and Ramdas Pophale) SiO2 
 PCOD9539485
Probable space group: I M M A
;
_chemical_formula_sum "Si O2"
_cell_formula_units_Z 88
_cell_length_a 16.807415
_cell_length_b 12.225232
_cell_length_c 18.855142
_cell_angle_alpha 90.000000
_cell_angle_beta 90.000000
_cell_angle_gamma 90.000000
_cell_volume 3874.251774
_symmetry_space_group_name_H-M "I M M A"
_symmetry_group_IT_number 74
_symmetry_cell_setting 'orthorhombic'
loop_
_space_group_symop_operation_xyz
x,y,z
-x,1/2-y,z
x,-y,-z
-x,1/2+y,-z
-x,-y,-z
x,1/2+y,-z
-x,y,z
x,1/2-y,z
1/2+x,1/2+y,1/2+z
1/2-x,-y,1/2+z
1/2+x,1/2-y,1/2-z
1/2-x,y,1/2-z
1/2-x,1/2-y,1/2-z
1/2+x,y,1/2-z
1/2-x,1/2+y,1/2+z
1/2+x,-y,1/2+z
loop_
_atom_site_type_symbol
_atom_site_label
_atom_site_fract_x
_atom_site_fract_y
_atom_site_fract_z
Si Si1 0.164070 0.872933 0.714328
Si Si2 0.094383 0.750000 0.239123
Si Si3 0.500000 0.375873 0.962934
Si Si4 0.355399 0.589844 0.143350
Si Si5 0.907031 0.750000 0.068809
Si Si6 0.909498 0.876166 0.863156
Si Si7 0.798207 0.444065 0.932706
O O1 0.168867 0.750000 0.686203
O O2 0.250000 0.897572 0.750000
O O3 0.101055 0.877793 0.778098
O O4 0.143421 0.960313 0.655602
O O5 0.130154 0.646604 0.280759
O O6 0.104107 0.750000 0.154791
O O7 0.000000 0.750000 0.252266
O O8 0.500000 0.250000 0.997752
O O9 0.422674 0.376469 0.911871
O O10 0.500000 0.500000 0.000000
O O11 0.267820 0.614312 0.114393
O O12 0.863247 0.642667 0.041535
O O13 0.000000 0.750000 0.053001
O O14 0.894264 0.750000 0.884710
O O15 0.000000 0.905766 0.882524
O O16 0.846317 0.962109 0.891988
O O17 0.757021 0.500000 0.000000
#
# Coordination Sequence:
#
# PCOD9539485 Si02
#       7
#    16   8   8  16   8  16  16
#     4  10  21  39  65 101 140 172 226 292 359 435
#     4  11  23  45  77 105 142 168 231 310 378 437
#     4  12  28  52  74 108 150 198 248 300 369 457
#     4  12  23  44  72 102 137 184 231 296 370 422
#     4  11  27  45  69 106 135 180 230 295 361 427
#     4  10  22  41  65  96 133 179 226 284 359 419
#     4  12  27  44  64  96 135 184 238 284 341 432
#
# _framework density 22.714062999999999
#
# number of rings (size 3 to 8) (size 9 to 14) (size 15 to 20)
#    0.000    0.909    3.636    2.727    2.545    4.364 
#    0.000    0.000    0.000    0.000    0.000    0.000 
#    0.000    0.000    0.000    0.000    0.000    0.000 
#
# Total GULP energy -246095.801376 kJ/mol
# GULP energy per Si atom -5593.086395 kJ/mol
# Density = 2.266236 g / cm^3
# Si number density = 22.714063 Si / 1000 Ang^3
#
#
#
# Elastic Constant Matrix: (Units=GPa)
#
#
# Indices 1 2 3 4 5 6 
#
# 1 118.2127 34.0078 7.9080 0.0000 0.0000 0.0000
# 2 34.0078 109.8170 21.4245 0.0000 0.0000 0.0000
# 3 7.9080 21.4245 35.5036 0.0000 0.0000 0.0000
# 4 0.0000 0.0000 0.0000 31.4827 0.0000 0.0000
# 5 0.0000 0.0000 0.0000 0.0000 21.6230 0.0000
# 6 0.0000 0.0000 0.0000 0.0000 0.0000 29.1452
#
#
#
# Elastic Compliance Matrix: (Units=1/GPa)
#
#
# Indices 1 2 3 4 5 6 
#
# 1 0.009291 -0.002804 -0.000378 0.000000 0.000000 0.000000
# 2 -0.002804 0.011167 -0.006114 0.000000 0.000000 0.000000
# 3 -0.000378 -0.006114 0.031940 0.000000 0.000000 0.000000
# 4 0.000000 0.000000 0.000000 0.031763 0.000000 0.000000
# 5 0.000000 0.000000 0.000000 0.000000 0.046247 0.000000
# 6 0.000000 0.000000 0.000000 0.000000 0.000000 0.034311
#
#
# Mechanical properties :
#
#
# Convention : Reuss Voigt Hill
#
# Bulk Modulus (GPa) = 29.57962 43.35712 36.46837
# Shear Modulus (GPa) = 25.69641 29.79638 27.74639
#
# Velocity S-wave (km/s) = 3.36713 3.62581 3.49886
# Velocity P-wave (km/s) = 5.30732 6.05461 5.69324
#
# Compressibility (1/GPa) = 0.03380706
#
# Stress axis : x y z
#
# Youngs Moduli (GPa) = 107.62951 89.54863 31.30882
#
# Poissons Ratio (x) = 0.25106 0.01182
# Poissons Ratio (y) = 0.30175 0.19143
# Poissons Ratio (z) = 0.04065 0.54753
#
# Static dielectric constant tensor:
#      x y z
#    x 1.814570 0.000000 0.000000 
#    y 0.000000 1.881100 0.000000 
#    z 0.000000 0.000000 1.839250 
# 
# From -- ./inp_files/52899.got.cif
#   From: 2010.05.17/outbox.cif.g08.bks.cpg/sg74_27_cif.got.tgz:52899.got - 2010.06.03 17:57:02.
