data_PCOD9539307
_publ_section_title
;
Structure prediction by ZEFSAII (Michael W. Deem and Ramdas Pophale) SiO2 
 PCOD9539307
Probable space group: I M M A
;
_chemical_formula_sum "Si O2"
_cell_formula_units_Z 56
_cell_length_a 11.182126
_cell_length_b 8.825500
_cell_length_c 28.791925
_cell_angle_alpha 90.000000
_cell_angle_beta 90.000000
_cell_angle_gamma 90.000000
_cell_volume 2841.413262
_symmetry_space_group_name_H-M "I M M A"
_symmetry_group_IT_number 74
_symmetry_cell_setting 'orthorhombic'
loop_
_space_group_symop_operation_xyz
x,y,z
-x,1/2-y,z
x,-y,-z
-x,1/2+y,-z
-x,-y,-z
x,1/2+y,-z
-x,y,z
x,1/2-y,z
1/2+x,1/2+y,1/2+z
1/2-x,-y,1/2+z
1/2+x,1/2-y,1/2-z
1/2-x,y,1/2-z
1/2-x,1/2-y,1/2-z
1/2+x,y,1/2-z
1/2-x,1/2+y,1/2+z
1/2+x,-y,1/2+z
loop_
_atom_site_type_symbol
_atom_site_label
_atom_site_fract_x
_atom_site_fract_y
_atom_site_fract_z
Si Si1 0.700521 0.430235 0.883768
Si Si2 0.857315 0.922578 0.952159
Si Si3 0.861362 0.933010 0.716356
Si Si4 0.500000 0.569143 0.949174
O O1 0.689818 0.250000 0.883422
O O2 0.824998 0.484088 0.906042
O O3 0.668626 0.495561 0.833528
O O4 0.611188 0.505466 0.920482
O O5 0.811730 0.750000 0.949014
O O6 0.000000 0.915694 0.955848
O O7 0.812992 0.000000 0.000000
O O8 0.859895 0.750000 0.712720
O O9 0.750000 0.975949 0.750000
O O10 0.000000 0.974745 0.729739
O O11 0.500000 0.750000 0.950506
O O12 0.500000 0.500000 0.000000
#
# Coordination Sequence:
#
# PCOD9539307 Si02
#       4
#    16  16  16   8
#     4  12  24  39  61  91 126 163 206 259 319 381
#     4  10  21  38  60  87 123 167 212 258 310 376
#     4  10  22  42  67  93 124 166 215 270 329 394
#     4  12  24  40  62  90 126 166 210 258 313 380
#
# _framework density 19.708503
#
# number of rings (size 3 to 8) (size 9 to 14) (size 15 to 20)
#    0.000    1.143    1.429    5.571    0.000    3.429 
#    0.000    2.857    0.000    0.000    0.000    0.000 
#    0.000    0.000    0.000    0.000    0.000    0.000 
#
# Total GULP energy -156355.094622 kJ/mol
# GULP energy per Si atom -5584.110522 kJ/mol
# Density = 1.966365 g / cm^3
# Si number density = 19.708503 Si / 1000 Ang^3
#
#
#
# Elastic Constant Matrix: (Units=GPa)
#
#
# Indices 1 2 3 4 5 6 
#
# 1 100.3430 46.2407 73.2607 0.0000 0.0000 0.0000
# 2 46.2407 91.7802 65.6848 0.0000 0.0000 0.0000
# 3 73.2607 65.6848 157.8079 0.0000 0.0000 0.0000
# 4 0.0000 0.0000 0.0000 38.6227 0.0000 0.0000
# 5 0.0000 0.0000 0.0000 0.0000 10.8116 0.0000
# 6 0.0000 0.0000 0.0000 0.0000 0.0000 19.7780
#
#
#
# Elastic Compliance Matrix: (Units=1/GPa)
#
#
# Indices 1 2 3 4 5 6 
#
# 1 0.016004 -0.003911 -0.005802 0.000000 0.000000 0.000000
# 2 -0.003911 0.016474 -0.005041 0.000000 0.000000 0.000000
# 3 -0.005802 -0.005041 0.011129 0.000000 0.000000 0.000000
# 4 0.000000 0.000000 0.000000 0.025892 0.000000 0.000000
# 5 0.000000 0.000000 0.000000 0.000000 0.092493 0.000000
# 6 0.000000 0.000000 0.000000 0.000000 0.000000 0.050561
#
#
# Mechanical properties :
#
#
# Convention : Reuss Voigt Hill
#
# Bulk Modulus (GPa) = 70.93035 80.03374 75.48205
# Shear Modulus (GPa) = 20.26254 24.82544 22.54399
#
# Velocity S-wave (km/s) = 3.20990 3.55298 3.38579
# Velocity P-wave (km/s) = 7.05732 7.58475 7.32578
#
# Compressibility (1/GPa) = 0.01409834
#
# Stress axis : x y z
#
# Youngs Moduli (GPa) = 62.48435 60.70164 89.85795
#
# Poissons Ratio (x) = 0.23740 0.52134
# Poissons Ratio (y) = 0.24437 0.45301
# Poissons Ratio (z) = 0.36253 0.30602
#
# Static dielectric constant tensor:
#      x y z
#    x 1.693520 0.000000 0.000000 
#    y 0.000000 1.667410 0.000000 
#    z 0.000000 0.000000 1.632540 
# 
# From -- ./inp_files/63245.got.cif
#   From: 2010.05.17/outbox.cif.g08.bks.cpg/sg74_32_cif.got.tgz:63245.got - 2010.06.03 17:57:02.
