data_PCOD9539481
_publ_section_title
;
Structure prediction by ZEFSAII (Michael W. Deem and Ramdas Pophale) SiO2 
 PCOD9539481
Probable space group: I M M A
;
_chemical_formula_sum "Si O2"
_cell_formula_units_Z 52
_cell_length_a 12.120148
_cell_length_b 7.610947
_cell_length_c 22.357849
_cell_angle_alpha 90.000000
_cell_angle_beta 90.000000
_cell_angle_gamma 90.000000
_cell_volume 2062.417758
_symmetry_space_group_name_H-M "I M M A"
_symmetry_group_IT_number 74
_symmetry_cell_setting 'orthorhombic'
loop_
_space_group_symop_operation_xyz
x,y,z
-x,1/2-y,z
x,-y,-z
-x,1/2+y,-z
-x,-y,-z
x,1/2+y,-z
-x,y,z
x,1/2-y,z
1/2+x,1/2+y,1/2+z
1/2-x,-y,1/2+z
1/2+x,1/2-y,1/2-z
1/2-x,y,1/2-z
1/2-x,1/2-y,1/2-z
1/2+x,y,1/2-z
1/2-x,1/2+y,1/2+z
1/2+x,-y,1/2+z
loop_
_atom_site_type_symbol
_atom_site_label
_atom_site_fract_x
_atom_site_fract_y
_atom_site_fract_z
Si Si1 0.622932 0.043619 0.739277
Si Si2 0.881702 0.540911 0.570420
Si Si3 0.647190 0.443109 0.598884
Si Si4 0.000000 0.250000 0.050654
O O1 0.500000 0.974279 0.761094
O O2 0.626700 0.250000 0.756991
O O3 0.750000 0.972381 0.750000
O O4 0.613099 0.034944 0.667430
O O5 0.875472 0.500000 0.500000
O O6 0.875899 0.750000 0.578573
O O7 0.778236 0.454220 0.600173
O O8 0.000000 0.476934 0.592296
O O9 0.615271 0.250000 0.576115
O O10 0.594995 0.595824 0.559975
#
# Coordination Sequence:
#
# PCOD9539481 Si02
#       4
#    16  16  16   4
#     4   9  18  34  58  86 118 158 204 250 302 364
#     4  10  21  39  64  93 126 159 201 255 309 367
#     4  11  22  39  66  89 122 165 206 250 313 364
#     4  12  22  40  62  86 126 168 198 266 292 372
#
# _framework density 25.213128000000001
#
# number of rings (size 3 to 8) (size 9 to 14) (size 15 to 20)
#    0.000    1.846    3.077    1.385    0.000    3.077 
#    0.000    4.615    0.000    0.000    0.000    0.000 
#    0.000    0.000    0.000    0.000    0.000    0.000 
#
# Total GULP energy -144750.316765 kJ/mol
# GULP energy per Si atom -5567.319876 kJ/mol
# Density = 2.515574 g / cm^3
# Si number density = 25.213128 Si / 1000 Ang^3
#
#
#
# Elastic Constant Matrix: (Units=GPa)
#
#
# Indices 1 2 3 4 5 6 
#
# 1 313.2749 41.4114 16.1272 0.0000 0.0000 0.0000
# 2 41.4114 151.2229 10.1288 0.0000 0.0000 0.0000
# 3 16.1272 10.1288 60.4711 0.0000 0.0000 0.0000
# 4 0.0000 0.0000 0.0000 3.8090 0.0000 0.0000
# 5 0.0000 0.0000 0.0000 0.0000 21.5683 0.0000
# 6 0.0000 0.0000 0.0000 0.0000 0.0000 53.7225
#
#
#
# Elastic Compliance Matrix: (Units=1/GPa)
#
#
# Indices 1 2 3 4 5 6 
#
# 1 0.003345 -0.000866 -0.000747 0.000000 0.000000 0.000000
# 2 -0.000866 0.006912 -0.000927 0.000000 0.000000 0.000000
# 3 -0.000747 -0.000927 0.016891 0.000000 0.000000 0.000000
# 4 0.000000 0.000000 0.000000 0.262538 0.000000 0.000000
# 5 0.000000 0.000000 0.000000 0.000000 0.046364 0.000000
# 6 0.000000 0.000000 0.000000 0.000000 0.000000 0.018614
#
#
# Mechanical properties :
#
#
# Convention : Reuss Voigt Hill
#
# Bulk Modulus (GPa) = 45.31312 73.36707 59.34010
# Shear Modulus (GPa) = 13.62023 46.30672 29.96348
#
# Velocity S-wave (km/s) = 2.32675 4.29022 3.45107
# Velocity P-wave (km/s) = 5.02289 7.32825 6.28222
#
# Compressibility (1/GPa) = 0.02206866
#
# Stress axis : x y z
#
# Youngs Moduli (GPa) = 298.95248 144.67656 59.20213
#
# Poissons Ratio (x) = 0.12529 0.04423
# Poissons Ratio (y) = 0.25889 0.05487
# Poissons Ratio (z) = 0.22333 0.13408
#
# Static dielectric constant tensor:
#      x y z
#    x 2.077160 0.000000 0.000000 
#    y 0.000000 1.912510 0.000000 
#    z 0.000000 0.000000 1.767670 
# 
# From -- ./inp_files/63130.got.cif
#   From: 2010.05.17/outbox.cif.g08.bks.cpg/sg74_32_cif.got.tgz:63130.got - 2010.06.03 17:57:02.
