data_PCOD9539255
_publ_section_title
;
Structure prediction by ZEFSAII (Michael W. Deem and Ramdas Pophale) SiO2 
 PCOD9539255
Probable space group: I M M A
;
_chemical_formula_sum "Si O2"
_cell_formula_units_Z 96
_cell_length_a 11.200226
_cell_length_b 24.943871
_cell_length_c 18.035684
_cell_angle_alpha 90.000000
_cell_angle_beta 90.000000
_cell_angle_gamma 90.000000
_cell_volume 5038.755154
_symmetry_space_group_name_H-M "I M M A"
_symmetry_group_IT_number 74
_symmetry_cell_setting 'orthorhombic'
loop_
_space_group_symop_operation_xyz
x,y,z
-x,1/2-y,z
x,-y,-z
-x,1/2+y,-z
-x,-y,-z
x,1/2+y,-z
-x,y,z
x,1/2-y,z
1/2+x,1/2+y,1/2+z
1/2-x,-y,1/2+z
1/2+x,1/2-y,1/2-z
1/2-x,y,1/2-z
1/2-x,1/2-y,1/2-z
1/2+x,y,1/2-z
1/2-x,1/2+y,1/2+z
1/2+x,-y,1/2+z
loop_
_atom_site_type_symbol
_atom_site_label
_atom_site_fract_x
_atom_site_fract_y
_atom_site_fract_z
Si Si1 0.357006 0.524049 0.603231
Si Si2 0.000000 0.491481 0.685084
Si Si3 0.207442 0.687806 0.666095
Si Si4 0.250000 0.005225 0.250000
Si Si5 0.270750 0.914587 0.458109
Si Si6 0.000000 0.605730 0.629433
Si Si7 0.000000 0.423098 0.542809
Si Si8 0.859667 0.191584 0.020815
O O1 0.500000 0.532278 0.598920
O O2 0.297449 0.539189 0.680569
O O3 0.328088 0.460251 0.594321
O O4 0.290805 0.555795 0.537742
O O5 0.126794 0.475361 0.723131
O O6 0.000000 0.555786 0.684801
O O7 0.000000 0.473814 0.598847
O O8 0.163723 0.750000 0.662430
O O9 0.250000 0.679149 0.750000
O O10 0.110749 0.644454 0.643025
O O11 0.308100 0.682666 0.603059
O O12 0.133066 0.902399 0.440048
O O13 0.330773 0.857318 0.466801
O O14 0.000000 0.581552 0.546363
O O15 0.813976 0.250000 0.995062
O O16 0.000000 0.193813 0.027566
#
# Coordination Sequence:
#
# PCOD9539255 Si02
#       8
#    16   8  16   8  16   8   8  16
#     4  11  23  38  60  86 119 153 197 243 301 369
#     4  12  27  41  61  87 127 158 203 260 310 383
#     4  10  23  39  55  81 115 156 204 251 299 350
#     4  12  24  42  58  86 124 154 196 248 306 372
#     4  11  22  39  60  84 116 159 195 246 298 364
#     4  12  24  38  62  80 115 162 207 250 304 362
#     4  12  23  39  59  86 116 158 202 249 318 363
#     4  10  21  38  58  81 112 150 198 249 294 350
#
# _framework density 19.052325
#
# number of rings (size 3 to 8) (size 9 to 14) (size 15 to 20)
#    0.000    1.000    4.167    3.500    4.667    0.000 
#    0.000    0.417    0.000    0.000    0.000    0.583 
#    0.000    0.000    0.000    0.000    0.000    0.000 
#
# Total GULP energy -267502.842872 kJ/mol
# GULP energy per Si atom -5572.975893 kJ/mol
# Density = 1.900896 g / cm^3
# Si number density = 19.052325 Si / 1000 Ang^3
#
#
#
# Elastic Constant Matrix: (Units=GPa)
#
#
# Indices 1 2 3 4 5 6 
#
# 1 129.0754 39.3478 18.8616 0.0000 0.0000 0.0000
# 2 39.3478 96.8212 24.2107 0.0000 0.0000 0.0000
# 3 18.8616 24.2107 59.2954 0.0000 0.0000 0.0000
# 4 0.0000 0.0000 0.0000 16.7730 0.0000 0.0000
# 5 0.0000 0.0000 0.0000 0.0000 28.0290 0.0000
# 6 0.0000 0.0000 0.0000 0.0000 0.0000 38.6575
#
#
#
# Elastic Compliance Matrix: (Units=1/GPa)
#
#
# Indices 1 2 3 4 5 6 
#
# 1 0.008964 -0.003263 -0.001519 0.000000 0.000000 0.000000
# 2 -0.003263 0.012691 -0.004144 0.000000 0.000000 0.000000
# 3 -0.001519 -0.004144 0.019040 0.000000 0.000000 0.000000
# 4 0.000000 0.000000 0.000000 0.059619 0.000000 0.000000
# 5 0.000000 0.000000 0.000000 0.000000 0.035677 0.000000
# 6 0.000000 0.000000 0.000000 0.000000 0.000000 0.025868
#
#
# Mechanical properties :
#
#
# Convention : Reuss Voigt Hill
#
# Bulk Modulus (GPa) = 43.77752 50.00354 46.89053
# Shear Modulus (GPa) = 26.69149 30.21004 28.45077
#
# Velocity S-wave (km/s) = 3.74700 3.98632 3.86851
# Velocity P-wave (km/s) = 6.46122 6.89130 6.67972
#
# Compressibility (1/GPa) = 0.02284278
#
# Stress axis : x y z
#
# Youngs Moduli (GPa) = 111.55561 78.79856 52.52155
#
# Poissons Ratio (x) = 0.25713 0.07978
# Poissons Ratio (y) = 0.36402 0.21763
# Poissons Ratio (z) = 0.16946 0.32651
#
# Static dielectric constant tensor:
#      x y z
#    x 1.820170 0.000000 0.000000 
#    y 0.000000 1.678840 0.000000 
#    z 0.000000 0.000000 1.689660 
# 
# From -- ./inp_files/41548.got.cif
#   From: 2010.05.17/outbox.cif.g08.bks.cpg/sg74_21_cif.got.tgz:41548.got - 2010.06.03 17:57:02.
