data_PCOD9539844
_publ_section_title
;
Structure prediction by ZEFSAII (Michael W. Deem and Ramdas Pophale) SiO2 
 PCOD9539844
Probable space group: I M M A
;
_chemical_formula_sum "Si O2"
_cell_formula_units_Z 88
_cell_length_a 8.684844
_cell_length_b 20.453597
_cell_length_c 24.545253
_cell_angle_alpha 90.000000
_cell_angle_beta 90.000000
_cell_angle_gamma 90.000000
_cell_volume 4360.127905
_symmetry_space_group_name_H-M "I M M A"
_symmetry_group_IT_number 74
_symmetry_cell_setting 'orthorhombic'
loop_
_space_group_symop_operation_xyz
x,y,z
-x,1/2-y,z
x,-y,-z
-x,1/2+y,-z
-x,-y,-z
x,1/2+y,-z
-x,y,z
x,1/2-y,z
1/2+x,1/2+y,1/2+z
1/2-x,-y,1/2+z
1/2+x,1/2-y,1/2-z
1/2-x,y,1/2-z
1/2-x,1/2-y,1/2-z
1/2+x,y,1/2-z
1/2-x,1/2+y,1/2+z
1/2+x,-y,1/2+z
loop_
_atom_site_type_symbol
_atom_site_label
_atom_site_fract_x
_atom_site_fract_y
_atom_site_fract_z
Si Si1 0.315526 0.878767 0.689102
Si Si2 0.679449 0.351872 0.027231
Si Si3 0.823781 0.171233 0.693400
Si Si4 0.319880 0.882602 0.415328
Si Si5 0.721035 0.750000 0.615800
Si Si6 0.180952 0.975652 0.599277
O O1 0.500000 0.885950 0.689282
O O2 0.250000 0.881987 0.750000
O O3 0.278262 0.808488 0.661913
O O4 0.241201 0.935198 0.651429
O O5 0.500000 0.332907 0.034890
O O6 0.775687 0.306364 0.067429
O O7 0.696305 0.425881 0.048621
O O8 0.727974 0.349344 0.964860
O O9 0.825290 0.250000 0.694701
O O10 0.750000 0.147930 0.750000
O O11 0.726735 0.148774 0.641896
O O12 0.000000 0.148276 0.688336
O O13 0.500000 0.875768 0.425911
O O14 0.272871 0.958446 0.411201
O O15 0.000000 0.990778 0.605926
#
# Coordination Sequence:
#
# PCOD9539844 Si02
#       6
#    16  16  16  16   8  16
#     4  11  23  40  64  94 129 168 213 262 318 378
#     4  10  22  40  63  90 123 166 211 257 309 369
#     4  10  22  42  66  90 120 156 196 246 302 363
#     4  12  25  39  62  94 127 162 204 254 309 371
#     4  10  23  40  63  92 128 168 213 264 311 370
#     4  10  22  42  64  88 121 163 210 259 311 369
#
# _framework density 20.182894999999998
#
# number of rings (size 3 to 8) (size 9 to 14) (size 15 to 20)
#    0.000    1.455    0.000    4.636    1.273   10.545 
#    0.000    3.636    0.000    0.000    0.000    0.000 
#    0.000    0.000    0.000    0.000    0.000    0.000 
#
# Total GULP energy -244966.109686 kJ/mol
# GULP energy per Si atom -5567.411584 kJ/mol
# Density = 2.013696 g / cm^3
# Si number density = 20.182895 Si / 1000 Ang^3
#
#
#
# Elastic Constant Matrix: (Units=GPa)
#
#
# Indices 1 2 3 4 5 6 
#
# 1 33.0256 2.7489 -0.6877 0.0000 0.0000 0.0000
# 2 2.7489 15.1294 -4.8220 0.0000 0.0000 0.0000
# 3 -0.6877 -4.8220 130.3351 0.0000 0.0000 0.0000
# 4 0.0000 0.0000 0.0000 9.5836 0.0000 0.0000
# 5 0.0000 0.0000 0.0000 0.0000 19.5670 0.0000
# 6 0.0000 0.0000 0.0000 0.0000 0.0000 -4.0448
#
#
#
# Elastic Compliance Matrix: (Units=1/GPa)
#
#
# Indices 1 2 3 4 5 6 
#
# 1 0.030745 -0.005600 -0.000045 0.000000 0.000000 0.000000
# 2 -0.005600 0.067905 0.002483 0.000000 0.000000 0.000000
# 3 -0.000045 0.002483 0.007764 0.000000 0.000000 0.000000
# 4 0.000000 0.000000 0.000000 0.104345 0.000000 0.000000
# 5 0.000000 0.000000 0.000000 0.000000 0.051107 0.000000
# 6 0.000000 0.000000 0.000000 0.000000 0.000000 -0.247229
#
#
# Mechanical properties :
#
#
# Convention : Reuss Voigt Hill
#
# Bulk Modulus (GPa) = 9.99111 19.21873 14.60492
# Shear Modulus (GPa) = 92.03904 17.10455 54.57179
#
# Velocity S-wave (km/s) = 6.76029 2.91430 5.20551
# Velocity P-wave (km/s) = 8.11766 4.56806 6.58648
#
# Compressibility (1/GPa) = 0.10008895
#
# Stress axis : x y z
#
# Youngs Moduli (GPa) = 32.52593 14.72640 128.79712
#
# Poissons Ratio (x) = 0.08247 0.00579
# Poissons Ratio (y) = 0.18216 -0.31977
# Poissons Ratio (z) = 0.00146 -0.03656
#
# Static dielectric constant tensor:
#      x y z
#    x 1.731550 0.000000 0.000000 
#    y 0.000000 1.698100 0.000000 
#    z 0.000000 0.000000 1.674800 
# 
# From -- ./inp_files/57042.got.cif
#   From: 2010.05.17/outbox.cif.g08.bks.cpg/sg74_29_cif.got.tgz:57042.got - 2010.06.03 17:57:02.
