data_PCOD9539937
_publ_section_title
;
Structure prediction by ZEFSAII (Michael W. Deem and Ramdas Pophale) SiO2 
 PCOD9539937
Probable space group: I M M A
;
_chemical_formula_sum "Si O2"
_cell_formula_units_Z 104
_cell_length_a 28.709696
_cell_length_b 8.680933
_cell_length_c 21.931036
_cell_angle_alpha 90.000000
_cell_angle_beta 90.000000
_cell_angle_gamma 90.000000
_cell_volume 5465.805156
_symmetry_space_group_name_H-M "I M M A"
_symmetry_group_IT_number 74
_symmetry_cell_setting 'orthorhombic'
loop_
_space_group_symop_operation_xyz
x,y,z
-x,1/2-y,z
x,-y,-z
-x,1/2+y,-z
-x,-y,-z
x,1/2+y,-z
-x,y,z
x,1/2-y,z
1/2+x,1/2+y,1/2+z
1/2-x,-y,1/2+z
1/2+x,1/2-y,1/2-z
1/2-x,y,1/2-z
1/2-x,1/2-y,1/2-z
1/2+x,y,1/2-z
1/2-x,1/2+y,1/2+z
1/2+x,-y,1/2+z
loop_
_atom_site_type_symbol
_atom_site_label
_atom_site_fract_x
_atom_site_fract_y
_atom_site_fract_z
Si Si1 0.553989 0.250000 0.713037
Si Si2 0.855703 0.431143 0.362990
Si Si3 0.611719 0.433979 0.271210
Si Si4 0.946180 0.250000 0.933436
Si Si5 0.384940 0.500000 0.500000
Si Si6 0.177782 0.079082 0.112461
Si Si7 0.948092 0.936340 0.568190
Si Si8 0.231698 0.929225 0.432517
O O1 0.500000 0.250000 0.732614
O O2 0.577321 0.416319 0.730878
O O3 0.555741 0.250000 0.639313
O O4 0.852576 0.250000 0.377261
O O5 0.858042 0.446638 0.290268
O O6 0.905210 0.487721 0.390100
O O7 0.812415 0.509830 0.395202
O O8 0.594102 0.250000 0.272312
O O9 0.643460 0.453406 0.331279
O O10 0.000000 0.250000 0.952382
O O11 0.918502 0.108057 0.961330
O O12 0.351914 0.422659 0.449789
O O13 0.197646 0.250000 0.121685
O O14 0.220727 0.965928 0.103302
O O15 0.947681 0.750000 0.566301
O O16 0.000000 0.983649 0.589554
O O17 0.941816 0.000000 0.500000
O O18 0.226532 0.750000 0.440739
O O19 0.234305 0.000000 0.500000
#
# Coordination Sequence:
#
# PCOD9539937 Si02
#       8
#     8  16  16   8   8  16  16  16
#     4  11  24  42  66  96 134 172 222 282 326 395
#     4  10  22  42  64  89 128 167 210 269 321 385
#     4  10  24  44  67  94 130 176 222 270 331 396
#     4  11  24  40  62  95 131 166 213 272 332 389
#     4  12  21  38  64  90 124 168 207 266 322 386
#     4  11  23  40  64  91 122 167 215 265 323 391
#     4   9  18  34  59  88 118 156 201 250 311 377
#     4  12  26  40  63  96 128 165 213 268 329 394
#
# _framework density 19.027387999999998
#
# number of rings (size 3 to 8) (size 9 to 14) (size 15 to 20)
#    0.000    1.385    3.077    2.077    3.231    3.385 
#    0.000    4.615    0.000    0.000    0.000    0.000 
#    0.000    0.000    0.000    0.000    0.000    0.000 
#
# Total GULP energy -290039.084883 kJ/mol
# GULP energy per Si atom -5577.674709 kJ/mol
# Density = 1.898408 g / cm^3
# Si number density = 19.027388 Si / 1000 Ang^3
#
#
#
# Elastic Constant Matrix: (Units=GPa)
#
#
# Indices 1 2 3 4 5 6 
#
# 1 101.7175 53.1373 34.6725 0.0000 0.0000 0.0000
# 2 53.1373 108.1702 28.1607 0.0000 0.0000 0.0000
# 3 34.6725 28.1607 66.1231 0.0000 0.0000 0.0000
# 4 0.0000 0.0000 0.0000 20.9183 0.0000 0.0000
# 5 0.0000 0.0000 0.0000 0.0000 5.7060 0.0000
# 6 0.0000 0.0000 0.0000 0.0000 0.0000 33.1400
#
#
#
# Elastic Compliance Matrix: (Units=1/GPa)
#
#
# Indices 1 2 3 4 5 6 
#
# 1 0.014657 -0.005847 -0.005195 0.000000 0.000000 0.000000
# 2 -0.005847 0.012730 -0.002355 0.000000 0.000000 0.000000
# 3 -0.005195 -0.002355 0.018851 0.000000 0.000000 0.000000
# 4 0.000000 0.000000 0.000000 0.047805 0.000000 0.000000
# 5 0.000000 0.000000 0.000000 0.000000 0.175256 0.000000
# 6 0.000000 0.000000 0.000000 0.000000 0.000000 0.030175
#
#
# Mechanical properties :
#
#
# Convention : Reuss Voigt Hill
#
# Bulk Modulus (GPa) = 51.43601 56.43908 53.93755
# Shear Modulus (GPa) = 15.02631 22.62221 18.82426
#
# Velocity S-wave (km/s) = 2.81324 3.45183 3.14877
# Velocity P-wave (km/s) = 6.13545 6.75376 6.45201
#
# Compressibility (1/GPa) = 0.01944163
#
# Stress axis : x y z
#
# Youngs Moduli (GPa) = 68.22815 78.55217 53.04882
#
# Poissons Ratio (x) = 0.45933 0.27559
# Poissons Ratio (y) = 0.39896 0.12496
# Poissons Ratio (z) = 0.35445 0.18503
#
# Static dielectric constant tensor:
#      x y z
#    x 1.647310 0.000000 0.000000 
#    y 0.000000 1.691110 0.000000 
#    z 0.000000 0.000000 1.632860 
# 
# From -- ./inp_files/55329.got.cif
#   From: 2010.05.17/outbox.cif.g08.bks.cpg/sg74_28_cif.got.tgz:55329.got - 2010.06.03 17:57:02.
