data_PCOD9539109
_publ_section_title
;
Structure prediction by ZEFSAII (Michael W. Deem and Ramdas Pophale) SiO2 
 PCOD9539109
Probable space group: I M M A
;
_chemical_formula_sum "Si O2"
_cell_formula_units_Z 96
_cell_length_a 31.844649
_cell_length_b 15.914770
_cell_length_c 9.646375
_cell_angle_alpha 90.000000
_cell_angle_beta 90.000000
_cell_angle_gamma 90.000000
_cell_volume 4888.785402
_symmetry_space_group_name_H-M "I M M A"
_symmetry_group_IT_number 74
_symmetry_cell_setting 'orthorhombic'
loop_
_space_group_symop_operation_xyz
x,y,z
-x,1/2-y,z
x,-y,-z
-x,1/2+y,-z
-x,-y,-z
x,1/2+y,-z
-x,y,z
x,1/2-y,z
1/2+x,1/2+y,1/2+z
1/2-x,-y,1/2+z
1/2+x,1/2-y,1/2-z
1/2-x,y,1/2-z
1/2-x,1/2-y,1/2-z
1/2+x,y,1/2-z
1/2-x,1/2+y,1/2+z
1/2+x,-y,1/2+z
loop_
_atom_site_type_symbol
_atom_site_label
_atom_site_fract_x
_atom_site_fract_y
_atom_site_fract_z
Si Si1 0.383659 0.350475 0.310963
Si Si2 0.120300 0.351250 0.867372
Si Si3 0.045631 0.346561 0.686397
Si Si4 0.710315 0.105062 0.337033
Si Si5 0.548876 0.582589 0.902959
Si Si6 0.211561 0.901931 0.155359
O O1 0.391950 0.250000 0.302616
O O2 0.385525 0.378117 0.472876
O O3 0.334573 0.366993 0.276241
O O4 0.417016 0.399362 0.215263
O O5 0.120019 0.250000 0.869265
O O6 0.082766 0.385974 0.773979
O O7 0.164672 0.376968 0.802649
O O8 0.043219 0.250000 0.731488
O O9 0.053470 0.347584 0.522815
O O10 0.000000 0.386537 0.710555
O O11 0.750000 0.135537 0.250000
O O12 0.714877 0.130896 0.497668
O O13 0.711936 0.003407 0.341256
O O14 0.500000 0.583376 0.854625
O O15 0.555350 0.500000 0.000000
O O16 0.250000 0.872067 0.250000
#
# Coordination Sequence:
#
# PCOD9539109 Si02
#       6
#    16  16  16  16  16  16
#     4  10  21  37  57  82 110 146 184 226 280 331
#     4   9  19  34  54  81 111 143 185 229 273 331
#     4   9  18  34  54  76 106 142 177 219 270 323
#     4   9  19  35  52  77 107 143 184 227 274 330
#     4  10  22  38  55  81 112 144 184 229 277 330
#     4   9  18  33  52  74 107 145 182 222 276 329
#
# _framework density 19.636779000000001
#
# number of rings (size 3 to 8) (size 9 to 14) (size 15 to 20)
#    0.000    2.667    0.000    0.500    2.333    3.667 
#    3.000    1.667    0.000    3.000    0.000    0.000 
#    0.000    0.000    0.000    0.000    0.000    0.000 
#
# Total GULP energy -267450.050408 kJ/mol
# GULP energy per Si atom -5571.876050 kJ/mol
# Density = 1.959208 g / cm^3
# Si number density = 19.636779 Si / 1000 Ang^3
#
#
#
# Elastic Constant Matrix: (Units=GPa)
#
#
# Indices 1 2 3 4 5 6 
#
# 1 204.4853 21.4185 104.5436 0.0000 0.0000 0.0000
# 2 21.4185 38.4167 13.3425 0.0000 0.0000 0.0000
# 3 104.5436 13.3425 74.1597 0.0000 0.0000 0.0000
# 4 0.0000 0.0000 0.0000 17.7562 0.0000 0.0000
# 5 0.0000 0.0000 0.0000 0.0000 48.6332 0.0000
# 6 0.0000 0.0000 0.0000 0.0000 0.0000 18.9137
#
#
#
# Elastic Compliance Matrix: (Units=1/GPa)
#
#
# Indices 1 2 3 4 5 6 
#
# 1 0.017569 -0.001273 -0.024537 0.000000 0.000000 0.000000
# 2 -0.001273 0.027858 -0.003218 0.000000 0.000000 0.000000
# 3 -0.024537 -0.003218 0.048654 0.000000 0.000000 0.000000
# 4 0.000000 0.000000 0.000000 0.056319 0.000000 0.000000
# 5 0.000000 0.000000 0.000000 0.000000 0.020562 0.000000
# 6 0.000000 0.000000 0.000000 0.000000 0.000000 0.052872
#
#
# Mechanical properties :
#
#
# Convention : Reuss Voigt Hill
#
# Bulk Modulus (GPa) = 27.75916 66.18563 46.97240
# Shear Modulus (GPa) = 17.01280 28.91108 22.96194
#
# Velocity S-wave (km/s) = 2.94662 3.84121 3.42326
# Velocity P-wave (km/s) = 5.07383 7.31104 6.29266
#
# Compressibility (1/GPa) = 0.03602414
#
# Stress axis : x y z
#
# Youngs Moduli (GPa) = 56.92005 35.89691 20.55327
#
# Poissons Ratio (x) = 0.04569 0.50433
# Poissons Ratio (y) = 0.07245 0.06613
# Poissons Ratio (z) = 1.39667 0.11550
#
# Static dielectric constant tensor:
#      x y z
#    x 1.697890 0.000000 0.000000 
#    y 0.000000 1.776700 0.000000 
#    z 0.000000 0.000000 1.681950 
# 
# From -- ./inp_files/15084.got.cif
#   From: 2010.05.17/outbox.cif.g08.bks.cpg/sg74_8_cif.got.tgz:15084.got - 2010.06.03 17:57:02.
