data_PCOD9539860
_publ_section_title
;
Structure prediction by ZEFSAII (Michael W. Deem and Ramdas Pophale) SiO2 
 PCOD9539860
Probable space group: I M M A
;
_chemical_formula_sum "Si O2"
_cell_formula_units_Z 104
_cell_length_a 14.038541
_cell_length_b 17.949476
_cell_length_c 21.110750
_cell_angle_alpha 90.000000
_cell_angle_beta 90.000000
_cell_angle_gamma 90.000000
_cell_volume 5319.580828
_symmetry_space_group_name_H-M "I M M A"
_symmetry_group_IT_number 74
_symmetry_cell_setting 'orthorhombic'
loop_
_space_group_symop_operation_xyz
x,y,z
-x,1/2-y,z
x,-y,-z
-x,1/2+y,-z
-x,-y,-z
x,1/2+y,-z
-x,y,z
x,1/2-y,z
1/2+x,1/2+y,1/2+z
1/2-x,-y,1/2+z
1/2+x,1/2-y,1/2-z
1/2-x,y,1/2-z
1/2-x,1/2-y,1/2-z
1/2+x,y,1/2-z
1/2-x,1/2+y,1/2+z
1/2+x,-y,1/2+z
loop_
_atom_site_type_symbol
_atom_site_label
_atom_site_fract_x
_atom_site_fract_y
_atom_site_fract_z
Si Si1 0.106177 0.530535 0.223940
Si Si2 0.661349 0.670558 0.201500
Si Si3 0.750000 0.902378 0.750000
Si Si4 0.892464 0.473253 0.427442
Si Si5 0.770899 0.589163 0.106344
Si Si6 0.730009 0.163003 0.111477
Si Si7 0.387528 0.839124 0.507714
O O1 0.107575 0.597084 0.275439
O O2 0.160937 0.458847 0.249223
O O3 0.160476 0.561686 0.162469
O O4 0.000000 0.510983 0.206563
O O5 0.610911 0.750000 0.205121
O O6 0.750000 0.673761 0.250000
O O7 0.708419 0.657432 0.133330
O O8 0.746052 0.856279 0.814793
O O9 0.899219 0.500000 0.500000
O O10 0.806787 0.524688 0.402499
O O11 0.852453 0.390043 0.416876
O O12 0.000000 0.481237 0.400160
O O13 0.832981 0.613956 0.046442
O O14 0.706767 0.250000 0.104089
O O15 0.827218 0.148198 0.071850
O O16 0.500000 0.858111 0.512312
O O17 0.382150 0.750000 0.493271
#
# Coordination Sequence:
#
# PCOD9539860 Si02
#       7
#    16  16   8  16  16  16  16
#     4  11  22  38  62  93 128 168 215 264 316 381
#     4   9  18  33  53  83 126 166 205 251 299 361
#     4  12  23  44  61  92 122 166 218 270 319 372
#     4  11  23  42  67  93 124 160 205 259 318 381
#     4  11  19  39  64  97 125 167 212 255 318 389
#     4  11  24  44  68  93 126 165 214 270 322 382
#     4  10  22  40  64  98 138 172 206 261 328 388
#
# _framework density 19.550412999999999
#
# number of rings (size 3 to 8) (size 9 to 14) (size 15 to 20)
#    0.000    1.385    5.385    1.154    0.000    4.308 
#    0.000    0.769    0.000    4.154    0.000    0.000 
#    0.000    0.000    0.000    0.000    0.000    0.000 
#
# Total GULP energy -290099.673337 kJ/mol
# GULP energy per Si atom -5578.839872 kJ/mol
# Density = 1.950592 g / cm^3
# Si number density = 19.550413 Si / 1000 Ang^3
#
#
#
# Elastic Constant Matrix: (Units=GPa)
#
#
# Indices 1 2 3 4 5 6 
#
# 1 158.5782 58.8648 50.5162 0.0000 0.0000 0.0000
# 2 58.8648 107.9201 46.6880 0.0000 0.0000 0.0000
# 3 50.5162 46.6880 115.5322 0.0000 0.0000 0.0000
# 4 0.0000 0.0000 0.0000 15.9533 0.0000 0.0000
# 5 0.0000 0.0000 0.0000 0.0000 17.0096 0.0000
# 6 0.0000 0.0000 0.0000 0.0000 0.0000 -24.8659
#
#
#
# Elastic Compliance Matrix: (Units=1/GPa)
#
#
# Indices 1 2 3 4 5 6 
#
# 1 0.008341 -0.003601 -0.002192 0.000000 0.000000 0.000000
# 2 -0.003601 0.012784 -0.003592 0.000000 0.000000 0.000000
# 3 -0.002192 -0.003592 0.011065 0.000000 0.000000 0.000000
# 4 0.000000 0.000000 0.000000 0.062683 0.000000 0.000000
# 5 0.000000 0.000000 0.000000 0.000000 0.058790 0.000000
# 6 0.000000 0.000000 0.000000 0.000000 0.000000 -0.040216
#
#
# Mechanical properties :
#
#
# Convention : Reuss Voigt Hill
#
# Bulk Modulus (GPa) = 74.50894 77.12982 75.81938
# Shear Modulus (GPa) = 36.57875 16.68351 26.63113
#
# Velocity S-wave (km/s) = 4.33019 2.92440 3.69477
# Velocity P-wave (km/s) = 7.94951 7.13724 7.55430
#
# Compressibility (1/GPa) = 0.01342121
#
# Stress axis : x y z
#
# Youngs Moduli (GPa) = 119.88824 78.22101 90.37243
#
# Poissons Ratio (x) = 0.28171 0.19807
# Poissons Ratio (y) = 0.43177 0.32458
# Poissons Ratio (z) = 0.26276 0.28094
#
# Static dielectric constant tensor:
#      x y z
#    x 1.671750 0.000000 0.000000 
#    y 0.000000 1.711870 0.000000 
#    z 0.000000 0.000000 1.698470 
# 
# From -- ./inp_files/52122.got.cif
#   From: 2010.05.17/outbox.cif.g08.bks.cpg/sg74_27_cif.got.tgz:52122.got - 2010.06.03 17:57:02.
