data_PCOD9539407
_publ_section_title
;
Structure prediction by ZEFSAII (Michael W. Deem and Ramdas Pophale) SiO2 
 PCOD9539407
Probable space group: I M M A
;
_chemical_formula_sum "Si O2"
_cell_formula_units_Z 68
_cell_length_a 9.350915
_cell_length_b 20.012347
_cell_length_c 18.186381
_cell_angle_alpha 90.000000
_cell_angle_beta 90.000000
_cell_angle_gamma 90.000000
_cell_volume 3403.285780
_symmetry_space_group_name_H-M "I M M A"
_symmetry_group_IT_number 74
_symmetry_cell_setting 'orthorhombic'
loop_
_space_group_symop_operation_xyz
x,y,z
-x,1/2-y,z
x,-y,-z
-x,1/2+y,-z
-x,-y,-z
x,1/2+y,-z
-x,y,z
x,1/2-y,z
1/2+x,1/2+y,1/2+z
1/2-x,-y,1/2+z
1/2+x,1/2-y,1/2-z
1/2-x,y,1/2-z
1/2-x,1/2-y,1/2-z
1/2+x,y,1/2-z
1/2-x,1/2+y,1/2+z
1/2+x,-y,1/2+z
loop_
_atom_site_type_symbol
_atom_site_label
_atom_site_fract_x
_atom_site_fract_y
_atom_site_fract_z
Si Si1 0.663534 0.893142 0.435763
Si Si2 0.331943 0.393858 0.390427
Si Si3 0.670400 0.983554 0.175637
Si Si4 0.830171 0.750000 0.826952
Si Si5 0.785923 0.750000 0.133961
Si Si6 0.500000 0.250000 0.774071
O O1 0.500000 0.914358 0.417211
O O2 0.683906 0.904003 0.522391
O O3 0.680015 0.815957 0.413399
O O4 0.776020 0.935050 0.388801
O O5 0.500000 0.406174 0.371846
O O6 0.231208 0.443754 0.345709
O O7 0.297155 0.317520 0.370884
O O8 0.500000 0.982583 0.184345
O O9 0.750000 0.961217 0.250000
O O10 0.750000 0.750000 0.750000
O O11 0.000000 0.750000 0.813569
O O12 0.624913 0.750000 0.162699
O O13 0.880350 0.750000 0.207427
#
# Coordination Sequence:
#
# PCOD9539407 Si02
#       6
#    16  16  16   8   8   4
#     4  11  23  41  67  93 127 168 209 256 314 375
#     4  10  22  43  66  94 127 164 207 256 314 376
#     4  12  27  43  64  91 126 165 212 260 312 373
#     4  10  21  38  67  95 124 160 205 256 308 365
#     4  11  23  40  62  94 126 168 210 258 309 369
#     4  10  24  38  62  88 136 162 210 260 308 360
#
# _framework density 19.980691
#
# number of rings (size 3 to 8) (size 9 to 14) (size 15 to 20)
#    0.000    1.176    1.176    4.235    4.941    8.471 
#    0.000    0.000    2.588    0.000    0.000    0.000 
#    0.000    0.000    0.000    0.000    0.000    0.000 
#
# Total GULP energy -189641.149216 kJ/mol
# GULP energy per Si atom -5577.680859 kJ/mol
# Density = 1.993521 g / cm^3
# Si number density = 19.980691 Si / 1000 Ang^3
#
#
#
# Elastic Constant Matrix: (Units=GPa)
#
#
# Indices 1 2 3 4 5 6 
#
# 1 154.4663 25.7499 47.8769 0.0000 0.0000 0.0000
# 2 25.7499 82.8036 5.4389 0.0000 0.0000 0.0000
# 3 47.8769 5.4389 76.9290 0.0000 0.0000 0.0000
# 4 0.0000 0.0000 0.0000 269.3850 0.0000 0.0000
# 5 0.0000 0.0000 0.0000 0.0000 34.6876 0.0000
# 6 0.0000 0.0000 0.0000 0.0000 0.0000 101.0409
#
#
#
# Elastic Compliance Matrix: (Units=1/GPa)
#
#
# Indices 1 2 3 4 5 6 
#
# 1 0.008432 -0.002288 -0.005086 0.000000 0.000000 0.000000
# 2 -0.002288 0.012754 0.000522 0.000000 0.000000 0.000000
# 3 -0.005086 0.000522 0.016127 0.000000 0.000000 0.000000
# 4 0.000000 0.000000 0.000000 0.003712 0.000000 0.000000
# 5 0.000000 0.000000 0.000000 0.000000 0.028829 0.000000
# 6 0.000000 0.000000 0.000000 0.000000 0.000000 0.009897
#
#
# Mechanical properties :
#
#
# Convention : Reuss Voigt Hill
#
# Bulk Modulus (GPa) = 42.35517 52.48116 47.41816
# Shear Modulus (GPa) = 49.34692 96.69825 73.02258
#
# Velocity S-wave (km/s) = 4.97503 6.96426 6.05193
# Velocity P-wave (km/s) = 7.36514 9.53891 8.52162
#
# Compressibility (1/GPa) = 0.02360987
#
# Stress axis : x y z
#
# Youngs Moduli (GPa) = 118.60112 78.40698 62.00719
#
# Poissons Ratio (x) = 0.17939 0.31535
# Poissons Ratio (y) = 0.27136 -0.03238
# Poissons Ratio (z) = 0.60317 -0.04095
#
# Static dielectric constant tensor:
#      x y z
#    x 1.679900 0.000000 0.000000 
#    y 0.000000 1.728290 0.000000 
#    z 0.000000 0.000000 1.668370 
# 
# From -- ./inp_files/39225.got.cif
#   From: 2010.05.17/outbox.cif.g08.bks.cpg/sg74_20_cif.got.tgz:39225.got - 2010.06.03 17:57:02.
