data_PCOD9539756
_publ_section_title
;
Structure prediction by ZEFSAII (Michael W. Deem and Ramdas Pophale) SiO2 
 PCOD9539756
Probable space group: I M M A
;
_chemical_formula_sum "Si O2"
_cell_formula_units_Z 72
_cell_length_a 13.646701
_cell_length_b 17.776418
_cell_length_c 15.920150
_cell_angle_alpha 90.000000
_cell_angle_beta 90.000000
_cell_angle_gamma 90.000000
_cell_volume 3862.060612
_symmetry_space_group_name_H-M "I M M A"
_symmetry_group_IT_number 74
_symmetry_cell_setting 'orthorhombic'
loop_
_space_group_symop_operation_xyz
x,y,z
-x,1/2-y,z
x,-y,-z
-x,1/2+y,-z
-x,-y,-z
x,1/2+y,-z
-x,y,z
x,1/2-y,z
1/2+x,1/2+y,1/2+z
1/2-x,-y,1/2+z
1/2+x,1/2-y,1/2-z
1/2-x,y,1/2-z
1/2-x,1/2-y,1/2-z
1/2+x,y,1/2-z
1/2-x,1/2+y,1/2+z
1/2+x,-y,1/2+z
loop_
_atom_site_type_symbol
_atom_site_label
_atom_site_fract_x
_atom_site_fract_y
_atom_site_fract_z
Si Si1 0.382242 0.250000 0.913144
Si Si2 0.387469 0.880879 0.405273
Si Si3 0.115754 0.126681 0.448050
Si Si4 0.742375 0.000000 0.500000
Si Si5 0.204743 0.250000 0.341250
Si Si6 0.119889 0.250000 0.779614
Si Si7 0.894051 0.750000 0.957076
O O1 0.500000 0.250000 0.909126
O O2 0.347510 0.250000 0.817307
O O3 0.356831 0.177607 0.969792
O O4 0.500000 0.904589 0.387967
O O5 0.323187 0.950928 0.435812
O O6 0.352780 0.826851 0.328867
O O7 0.390270 0.822552 0.483066
O O8 0.140273 0.178308 0.368048
O O9 0.000000 0.109689 0.451986
O O10 0.185702 0.055546 0.449970
O O11 0.250000 0.250000 0.250000
O O12 0.300457 0.250000 0.399674
O O13 0.000000 0.250000 0.782292
O O14 0.000000 0.750000 0.912786
#
# Coordination Sequence:
#
# PCOD9539756 Si02
#       7
#     8  16  16   8   8   8   8
#     4   8  16  35  61  82 107 145 186 233 281 324
#     4   9  18  32  56  86 117 150 186 234 282 337
#     4  10  22  39  59  83 113 153 193 233 285 346
#     4  12  20  34  58  78 120 162 192 220 280 356
#     4  11  21  39  63  83 106 139 196 252 290 332
#     4   8  15  32  58  89 113 137 185 238 282 328
#     4   9  17  34  57  82 108 141 188 235 287 337
#
# _framework density 18.642897000000001
#
# number of rings (size 3 to 8) (size 9 to 14) (size 15 to 20)
#    0.000    2.444    2.222    3.000    0.000    0.889 
#    0.000    4.444    0.000    2.667    0.000    0.000 
#    0.000    0.000    0.000    0.000    0.000    0.000 
#
# Total GULP energy -200804.081317 kJ/mol
# GULP energy per Si atom -5577.891148 kJ/mol
# Density = 1.860047 g / cm^3
# Si number density = 18.642897 Si / 1000 Ang^3
#
#
#
# Elastic Constant Matrix: (Units=GPa)
#
#
# Indices 1 2 3 4 5 6 
#
# 1 125.2818 60.6773 33.8423 0.0000 0.0000 0.0000
# 2 60.6773 129.9825 38.0923 0.0000 0.0000 0.0000
# 3 33.8423 38.0923 101.6211 0.0000 0.0000 0.0000
# 4 0.0000 0.0000 0.0000 4.3140 0.0000 0.0000
# 5 0.0000 0.0000 0.0000 0.0000 24.7497 0.0000
# 6 0.0000 0.0000 0.0000 0.0000 0.0000 122.1721
#
#
#
# Elastic Compliance Matrix: (Units=1/GPa)
#
#
# Indices 1 2 3 4 5 6 
#
# 1 0.010626 -0.004408 -0.001887 0.000000 0.000000 0.000000
# 2 -0.004408 0.010471 -0.002457 0.000000 0.000000 0.000000
# 3 -0.001887 -0.002457 0.011390 0.000000 0.000000 0.000000
# 4 0.000000 0.000000 0.000000 0.231803 0.000000 0.000000
# 5 0.000000 0.000000 0.000000 0.000000 0.040404 0.000000
# 6 0.000000 0.000000 0.000000 0.000000 0.000000 0.008185
#
#
# Mechanical properties :
#
#
# Convention : Reuss Voigt Hill
#
# Bulk Modulus (GPa) = 66.73653 69.12324 67.92988
# Shear Modulus (GPa) = 14.90859 45.19874 30.05366
#
# Velocity S-wave (km/s) = 2.83095 4.92921 4.01942
# Velocity P-wave (km/s) = 6.82354 8.33991 7.61954
#
# Compressibility (1/GPa) = 0.01498430
#
# Stress axis : x y z
#
# Youngs Moduli (GPa) = 94.10550 95.50228 87.79758
#
# Poissons Ratio (x) = 0.42094 0.16564
# Poissons Ratio (y) = 0.41478 0.21573
# Poissons Ratio (z) = 0.17755 0.23466
#
# Static dielectric constant tensor:
#      x y z
#    x 1.688060 0.000000 0.000000 
#    y 0.000000 1.625540 0.000000 
#    z 0.000000 0.000000 1.641970 
# 
# From -- ./inp_files/31986.got.cif
#   From: 2010.05.17/outbox.cif.g08.bks.cpg/sg74_16_cif.got.tgz:31986.got - 2010.06.03 17:57:02.
