data_PCOD9539968
_publ_section_title
;
Structure prediction by ZEFSAII (Michael W. Deem and Ramdas Pophale) SiO2 
 PCOD9539968
Probable space group: I M M A
;
_chemical_formula_sum "Si O2"
_cell_formula_units_Z 96
_cell_length_a 21.112047
_cell_length_b 24.743605
_cell_length_c 9.994842
_cell_angle_alpha 90.000000
_cell_angle_beta 90.000000
_cell_angle_gamma 90.000000
_cell_volume 5221.187039
_symmetry_space_group_name_H-M "I M M A"
_symmetry_group_IT_number 74
_symmetry_cell_setting 'orthorhombic'
loop_
_space_group_symop_operation_xyz
x,y,z
-x,1/2-y,z
x,-y,-z
-x,1/2+y,-z
-x,-y,-z
x,1/2+y,-z
-x,y,z
x,1/2-y,z
1/2+x,1/2+y,1/2+z
1/2-x,-y,1/2+z
1/2+x,1/2-y,1/2-z
1/2-x,y,1/2-z
1/2-x,1/2-y,1/2-z
1/2+x,y,1/2-z
1/2-x,1/2+y,1/2+z
1/2+x,-y,1/2+z
loop_
_atom_site_type_symbol
_atom_site_label
_atom_site_fract_x
_atom_site_fract_y
_atom_site_fract_z
Si Si1 0.735250 0.536463 0.606444
Si Si2 0.649926 0.598202 0.015975
Si Si3 0.077170 0.548699 0.228082
Si Si4 0.138283 0.884301 0.981948
Si Si5 0.248550 0.188457 0.910452
Si Si6 0.572969 0.579770 0.755463
O O1 0.699886 0.500000 0.500000
O O2 0.750000 0.512039 0.750000
O O3 0.797175 0.554853 0.527483
O O4 0.690436 0.587786 0.617464
O O5 0.608431 0.575206 0.138848
O O6 0.692252 0.650812 0.047484
O O7 0.608349 0.603317 0.883626
O O8 0.110029 0.580211 0.104220
O O9 0.091166 0.483816 0.226766
O O10 0.000000 0.554855 0.224948
O O11 0.180917 0.836450 0.042623
O O12 0.082281 0.882239 0.874287
O O13 0.255082 0.250000 0.958214
O O14 0.250000 0.187911 0.750000
O O15 0.500000 0.576339 0.790754
#
# Coordination Sequence:
#
# PCOD9539968 Si02
#       6
#    16  16  16  16  16  16
#     4  11  22  32  52  80 117 152 186 235 285 342
#     4  11  22  37  57  87 115 151 199 237 285 344
#     4  11  22  37  57  86 122 167 202 224 263 337
#     4  11  22  37  57  87 115 151 199 237 285 344
#     4  10  22  43  67  86 107 143 193 255 310 342
#     4  11  22  37  57  84 128 167 188 224 277 341
#
# _framework density 18.386623
#
# number of rings (size 3 to 8) (size 9 to 14) (size 15 to 20)
#    0.000    1.167    3.333    4.000    2.333    2.667 
#    0.000    1.667    0.000    6.000    0.000    0.000 
#    0.000    0.000    0.000    0.000    0.000    0.000 
#
# Total GULP energy -267351.338853 kJ/mol
# GULP energy per Si atom -5569.819559 kJ/mol
# Density = 1.834477 g / cm^3
# Si number density = 18.386623 Si / 1000 Ang^3
#
#
#
# Elastic Constant Matrix: (Units=GPa)
#
#
# Indices 1 2 3 4 5 6 
#
# 1 99.3724 52.5956 39.2799 0.0000 0.0000 0.0000
# 2 52.5956 100.9292 43.5734 0.0000 0.0000 0.0000
# 3 39.2799 43.5734 127.4696 0.0000 0.0000 0.0000
# 4 0.0000 0.0000 0.0000 17.6841 0.0000 0.0000
# 5 0.0000 0.0000 0.0000 0.0000 28.0185 0.0000
# 6 0.0000 0.0000 0.0000 0.0000 0.0000 16.7448
#
#
#
# Elastic Compliance Matrix: (Units=1/GPa)
#
#
# Indices 1 2 3 4 5 6 
#
# 1 0.014402 -0.006557 -0.002197 0.000000 0.000000 0.000000
# 2 -0.006557 0.014608 -0.002973 0.000000 0.000000 0.000000
# 3 -0.002197 -0.002973 0.009538 0.000000 0.000000 0.000000
# 4 0.000000 0.000000 0.000000 0.056548 0.000000 0.000000
# 5 0.000000 0.000000 0.000000 0.000000 0.035691 0.000000
# 6 0.000000 0.000000 0.000000 0.000000 0.000000 0.059720
#
#
# Mechanical properties :
#
#
# Convention : Reuss Voigt Hill
#
# Bulk Modulus (GPa) = 66.24539 66.51878 66.38208
# Shear Modulus (GPa) = 22.83196 25.31098 24.07147
#
# Velocity S-wave (km/s) = 3.52770 3.71428 3.62219
# Velocity P-wave (km/s) = 7.25949 7.39262 7.32636
#
# Compressibility (1/GPa) = 0.01509539
#
# Stress axis : x y z
#
# Youngs Moduli (GPa) = 69.43631 68.45453 104.84125
#
# Poissons Ratio (x) = 0.44883 0.23030
# Poissons Ratio (y) = 0.45526 0.31171
# Poissons Ratio (z) = 0.15253 0.20353
#
# Static dielectric constant tensor:
#      x y z
#    x 1.704980 0.000000 0.000000 
#    y 0.000000 1.694190 0.000000 
#    z 0.000000 0.000000 1.667150 
# 
# From -- ./inp_files/12645.got.cif
#   From: 2010.05.17/outbox.cif.g08.bks.cpg/sg74_7_cif.got.tgz:12645.got - 2010.06.03 17:57:02.
