data_PCOD9539712
_publ_section_title
;
Structure prediction by ZEFSAII (Michael W. Deem and Ramdas Pophale) SiO2 
 PCOD9539712
Probable space group: I M M A
;
_chemical_formula_sum "Si O2"
_cell_formula_units_Z 96
_cell_length_a 22.284488
_cell_length_b 19.297925
_cell_length_c 12.487982
_cell_angle_alpha 90.000000
_cell_angle_beta 90.000000
_cell_angle_gamma 90.000000
_cell_volume 5370.386453
_symmetry_space_group_name_H-M "I M M A"
_symmetry_group_IT_number 74
_symmetry_cell_setting 'orthorhombic'
loop_
_space_group_symop_operation_xyz
x,y,z
-x,1/2-y,z
x,-y,-z
-x,1/2+y,-z
-x,-y,-z
x,1/2+y,-z
-x,y,z
x,1/2-y,z
1/2+x,1/2+y,1/2+z
1/2-x,-y,1/2+z
1/2+x,1/2-y,1/2-z
1/2-x,y,1/2-z
1/2-x,1/2-y,1/2-z
1/2+x,y,1/2-z
1/2-x,1/2+y,1/2+z
1/2+x,-y,1/2+z
loop_
_atom_site_type_symbol
_atom_site_label
_atom_site_fract_x
_atom_site_fract_y
_atom_site_fract_z
Si Si1 0.114876 0.547863 0.689593
Si Si2 0.637186 0.428781 0.435849
Si Si3 0.382103 0.828338 0.956961
Si Si4 0.428163 0.831468 0.400627
Si Si5 0.732279 0.887177 0.866897
Si Si6 0.071268 0.106432 0.670653
O O1 0.111555 0.562087 0.815982
O O2 0.090144 0.613221 0.622119
O O3 0.186020 0.549599 0.658644
O O4 0.086460 0.474791 0.660826
O O5 0.629608 0.500000 0.500000
O O6 0.604215 0.369122 0.501742
O O7 0.707468 0.410375 0.424011
O O8 0.401694 0.750000 0.936115
O O9 0.396805 0.851124 0.076932
O O10 0.310890 0.836193 0.932478
O O11 0.500000 0.839811 0.411585
O O12 0.414743 0.750000 0.396942
O O13 0.410383 0.867042 0.288246
O O14 0.750000 0.857801 0.750000
O O15 0.000000 0.116816 0.660380
#
# Coordination Sequence:
#
# PCOD9539712 Si02
#       6
#    16  16  16  16  16  16
#     4   9  21  39  58  90 119 154 199 251 290 354
#     4  11  20  37  65  91 116 157 199 245 296 353
#     4  10  22  38  58  86 120 158 198 243 297 359
#     4  10  23  41  61  89 124 159 197 243 297 354
#     4   8  20  38  58  86 121 153 192 240 305 351
#     4  11  22  40  63  85 119 163 202 244 299 355
#
# _framework density 17.875807999999999
#
# number of rings (size 3 to 8) (size 9 to 14) (size 15 to 20)
#    1.000    1.167    1.667    1.000    2.333    5.000 
#    0.000    0.833    0.000    2.000    0.000    0.000 
#    0.000    0.000    0.000    0.000    0.000    0.000 
#
# Total GULP energy -267453.595990 kJ/mol
# GULP energy per Si atom -5571.949916 kJ/mol
# Density = 1.783512 g / cm^3
# Si number density = 17.875808 Si / 1000 Ang^3
#
#
#
# Elastic Constant Matrix: (Units=GPa)
#
#
# Indices 1 2 3 4 5 6 
#
# 1 25.2844 4.1032 11.9625 0.0000 0.0000 0.0000
# 2 4.1032 91.9597 14.4377 0.0000 0.0000 0.0000
# 3 11.9625 14.4377 50.5453 0.0000 0.0000 0.0000
# 4 0.0000 0.0000 0.0000 23.4735 0.0000 0.0000
# 5 0.0000 0.0000 0.0000 0.0000 33.7757 0.0000
# 6 0.0000 0.0000 0.0000 0.0000 0.0000 17.4767
#
#
#
# Elastic Compliance Matrix: (Units=1/GPa)
#
#
# Indices 1 2 3 4 5 6 
#
# 1 0.044548 -0.000348 -0.010444 0.000000 0.000000 0.000000
# 2 -0.000348 0.011388 -0.003170 0.000000 0.000000 0.000000
# 3 -0.010444 -0.003170 0.023162 0.000000 0.000000 0.000000
# 4 0.000000 0.000000 0.000000 0.042601 0.000000 0.000000
# 5 0.000000 0.000000 0.000000 0.000000 0.029607 0.000000
# 6 0.000000 0.000000 0.000000 0.000000 0.000000 0.057219
#
#
# Mechanical properties :
#
#
# Convention : Reuss Voigt Hill
#
# Bulk Modulus (GPa) = 19.54170 25.42181 22.48175
# Shear Modulus (GPa) = 19.72344 24.09758 21.91051
#
# Velocity S-wave (km/s) = 3.32529 3.67557 3.50481
# Velocity P-wave (km/s) = 5.06942 5.68026 5.38351
#
# Compressibility (1/GPa) = 0.05117261
#
# Stress axis : x y z
#
# Youngs Moduli (GPa) = 22.44794 87.81472 43.17509
#
# Poissons Ratio (x) = 0.03056 0.45090
# Poissons Ratio (y) = 0.00781 0.13688
# Poissons Ratio (z) = 0.23444 0.27841
#
# Static dielectric constant tensor:
#      x y z
#    x 1.609120 0.000000 0.000000 
#    y 0.000000 1.596210 0.000000 
#    z 0.000000 0.000000 1.601850 
# 
# From -- ./inp_files/26256.got.cif
#   From: 2010.05.17/outbox.cif.g08.bks.cpg/sg74_14_cif.got.tgz:26256.got - 2010.06.03 17:57:02.
