data_PCOD9539206
_publ_section_title
;
Structure prediction by ZEFSAII (Michael W. Deem and Ramdas Pophale) SiO2 
 PCOD9539206
Probable space group: I M M A
;
_chemical_formula_sum "Si O2"
_cell_formula_units_Z 80
_cell_length_a 20.019626
_cell_length_b 15.420574
_cell_length_c 12.632280
_cell_angle_alpha 90.000000
_cell_angle_beta 90.000000
_cell_angle_gamma 90.000000
_cell_volume 3899.763257
_symmetry_space_group_name_H-M "I M M A"
_symmetry_group_IT_number 74
_symmetry_cell_setting 'orthorhombic'
loop_
_space_group_symop_operation_xyz
x,y,z
-x,1/2-y,z
x,-y,-z
-x,1/2+y,-z
-x,-y,-z
x,1/2+y,-z
-x,y,z
x,1/2-y,z
1/2+x,1/2+y,1/2+z
1/2-x,-y,1/2+z
1/2+x,1/2-y,1/2-z
1/2-x,y,1/2-z
1/2-x,1/2-y,1/2-z
1/2+x,y,1/2-z
1/2-x,1/2+y,1/2+z
1/2+x,-y,1/2+z
loop_
_atom_site_type_symbol
_atom_site_label
_atom_site_fract_x
_atom_site_fract_y
_atom_site_fract_z
Si Si1 0.077828 0.146651 0.282073
Si Si2 0.266328 0.883881 0.094765
Si Si3 0.638327 0.657326 0.269162
Si Si4 0.784359 0.088652 0.361383
Si Si5 0.578949 0.493949 0.383054
O O1 0.085124 0.250000 0.276066
O O2 0.136355 0.107015 0.353929
O O3 0.000000 0.127812 0.311400
O O4 0.091018 0.098699 0.170401
O O5 0.333631 0.849583 0.150159
O O6 0.203789 0.844975 0.156376
O O7 0.268564 0.986867 0.121547
O O8 0.260921 0.867775 0.970248
O O9 0.603166 0.750000 0.284042
O O10 0.601231 0.570840 0.305662
O O11 0.750000 0.115441 0.250000
O O12 0.610234 0.500000 0.500000
O O13 0.500000 0.503622 0.393561
#
# Coordination Sequence:
#
# PCOD9539206 Si02
#       5
#    16  16  16  16  16
#     4  10  22  41  62  87 121 158 198 250 313 365
#     4  10  21  37  60  90 123 161 202 250 309 365
#     4  11  22  39  63  88 124 165 201 249 310 369
#     4  11  21  38  64  92 124 160 206 255 307 371
#     4  10  22  40  61  87 123 162 204 254 303 363
#
# _framework density 20.514066
#
# number of rings (size 3 to 8) (size 9 to 14) (size 15 to 20)
#    0.000    1.600    4.000    1.200    5.600    3.200 
#    0.000    5.000    0.000    0.000    0.000    0.000 
#    0.000    0.000    0.000    0.000    0.000    0.000 
#
# Total GULP energy -223130.231909 kJ/mol
# GULP energy per Si atom -5578.255798 kJ/mol
# Density = 2.046737 g / cm^3
# Si number density = 20.514066 Si / 1000 Ang^3
#
#
#
# Elastic Constant Matrix: (Units=GPa)
#
#
# Indices 1 2 3 4 5 6 
#
# 1 41.3061 7.4611 20.2280 0.0000 0.0000 0.0000
# 2 7.4611 87.1007 10.5074 0.0000 0.0000 0.0000
# 3 20.2280 10.5074 128.6383 0.0000 0.0000 0.0000
# 4 0.0000 0.0000 0.0000 0.3963 0.0000 0.0000
# 5 0.0000 0.0000 0.0000 0.0000 20.4343 0.0000
# 6 0.0000 0.0000 0.0000 0.0000 0.0000 3.5060
#
#
#
# Elastic Compliance Matrix: (Units=1/GPa)
#
#
# Indices 1 2 3 4 5 6 
#
# 1 0.026501 -0.001785 -0.004021 0.000000 0.000000 0.000000
# 2 -0.001785 0.011715 -0.000676 0.000000 0.000000 0.000000
# 3 -0.004021 -0.000676 0.008461 0.000000 0.000000 0.000000
# 4 0.000000 0.000000 0.000000 2.523276 0.000000 0.000000
# 5 0.000000 0.000000 0.000000 0.000000 0.048937 0.000000
# 6 0.000000 0.000000 0.000000 0.000000 0.000000 0.285224
#
#
# Mechanical properties :
#
#
# Convention : Reuss Voigt Hill
#
# Bulk Modulus (GPa) = 29.66244 37.04867 33.35556
# Shear Modulus (GPa) = 1.70746 19.45725 10.58235
#
# Velocity S-wave (km/s) = 0.91332 3.08309 2.27372
# Velocity P-wave (km/s) = 3.95008 5.54736 4.81541
#
# Compressibility (1/GPa) = 0.03371267
#
# Stress axis : x y z
#
# Youngs Moduli (GPa) = 37.73406 85.35742 118.18468
#
# Poissons Ratio (x) = 0.15236 0.47527
# Poissons Ratio (y) = 0.06735 0.07992
# Poissons Ratio (z) = 0.15175 0.05772
#
# Static dielectric constant tensor:
#      x y z
#    x 1.745080 0.000000 0.000000 
#    y 0.000000 1.749290 0.000000 
#    z 0.000000 0.000000 1.758650 
# 
# From -- ./inp_files/24873.got.cif
#   From: 2010.05.17/outbox.cif.g08.bks.cpg/sg74_13_cif.got.tgz:24873.got - 2010.06.03 17:57:02.
