data_PCOD9539312
_publ_section_title
;
Structure prediction by ZEFSAII (Michael W. Deem and Ramdas Pophale) SiO2 
 PCOD9539312
Probable space group: I M M A
;
_chemical_formula_sum "Si O2"
_cell_formula_units_Z 88
_cell_length_a 25.964785
_cell_length_b 27.667187
_cell_length_c 6.078151
_cell_angle_alpha 90.000000
_cell_angle_beta 90.000000
_cell_angle_gamma 90.000000
_cell_volume 4366.376906
_symmetry_space_group_name_H-M "I M M A"
_symmetry_group_IT_number 74
_symmetry_cell_setting 'orthorhombic'
loop_
_space_group_symop_operation_xyz
x,y,z
-x,1/2-y,z
x,-y,-z
-x,1/2+y,-z
-x,-y,-z
x,1/2+y,-z
-x,y,z
x,1/2-y,z
1/2+x,1/2+y,1/2+z
1/2-x,-y,1/2+z
1/2+x,1/2-y,1/2-z
1/2-x,y,1/2-z
1/2-x,1/2-y,1/2-z
1/2+x,y,1/2-z
1/2-x,1/2+y,1/2+z
1/2+x,-y,1/2+z
loop_
_atom_site_type_symbol
_atom_site_label
_atom_site_fract_x
_atom_site_fract_y
_atom_site_fract_z
Si Si1 0.125515 0.373090 0.797612
Si Si2 0.693229 0.894146 0.680694
Si Si3 0.346071 0.194815 0.082344
Si Si4 0.060009 0.694622 0.889292
Si Si5 0.398526 0.055247 0.065733
Si Si6 0.500000 0.973594 0.745473
O O1 0.152900 0.333181 0.645702
O O2 0.094985 0.411759 0.649874
O O3 0.171384 0.398248 0.934789
O O4 0.085918 0.344300 0.951498
O O5 0.750000 0.909358 0.750000
O O6 0.686209 0.837817 0.748746
O O7 0.651690 0.923384 0.821256
O O8 0.329335 0.250000 0.070130
O O9 0.404971 0.193316 0.171290
O O10 0.065005 0.750000 0.977334
O O11 0.000000 0.685429 0.849797
O O12 0.447325 0.056253 0.229484
O O13 0.390109 0.000000 0.000000
O O14 0.500000 0.000000 0.500000
O O15 0.500000 0.000000 0.000000
#
# Coordination Sequence:
#
# PCOD9539312 Si02
#       6
#    16  16  16  16  16   8
#     4  10  21  38  60  88 126 165 218 270 333 395
#     4  10  23  43  63  91 127 165 214 281 326 401
#     4   9  19  37  57  86 123 164 212 263 325 395
#     4   9  18  33  56  87 126 170 213 263 322 395
#     4  10  24  43  63  96 124 172 216 272 337 404
#     4  10  24  44  72 100 137 176 225 284 342 416
#
# _framework density 20.15401
#
# number of rings (size 3 to 8) (size 9 to 14) (size 15 to 20)
#    0.000    2.364    0.000    0.545    6.364    4.727 
#   16.364    2.727    0.000    0.000    0.000    0.000 
#    0.000    0.000    0.000    0.000    0.000    0.000 
#
# Total GULP energy -245256.147415 kJ/mol
# GULP energy per Si atom -5574.003350 kJ/mol
# Density = 2.010814 g / cm^3
# Si number density = 20.154010 Si / 1000 Ang^3
#
#
#
# Elastic Constant Matrix: (Units=GPa)
#
#
# Indices 1 2 3 4 5 6 
#
# 1 142.4164 25.4401 36.4187 0.0000 0.0000 0.0000
# 2 25.4401 92.4168 28.6594 0.0000 0.0000 0.0000
# 3 36.4187 28.6594 87.1562 0.0000 0.0000 0.0000
# 4 0.0000 0.0000 0.0000 22.7565 0.0000 0.0000
# 5 0.0000 0.0000 0.0000 0.0000 -2.9389 0.0000
# 6 0.0000 0.0000 0.0000 0.0000 0.0000 16.2677
#
#
#
# Elastic Compliance Matrix: (Units=1/GPa)
#
#
# Indices 1 2 3 4 5 6 
#
# 1 0.007999 -0.001298 -0.002916 0.000000 0.000000 0.000000
# 2 -0.001298 0.012260 -0.003489 0.000000 0.000000 0.000000
# 3 -0.002916 -0.003489 0.013839 0.000000 0.000000 0.000000
# 4 0.000000 0.000000 0.000000 0.043944 0.000000 0.000000
# 5 0.000000 0.000000 0.000000 0.000000 -0.340267 0.000000
# 6 0.000000 0.000000 0.000000 0.000000 0.000000 0.061472
#
#
# Mechanical properties :
#
#
# Convention : Reuss Voigt Hill
#
# Bulk Modulus (GPa) = 53.49578 55.89173 54.69376
# Shear Modulus (GPa) = -27.91470 22.64846 -2.63312
#
# Velocity S-wave (km/s) = -3.72569 3.35590 -1.14426
# Velocity P-wave (km/s) = 2.84490 6.54283 5.04490
#
# Compressibility (1/GPa) = 0.01869306
#
# Stress axis : x y z
#
# Youngs Moduli (GPa) = 125.01417 81.56747 72.25796
#
# Poissons Ratio (x) = 0.10586 0.21068
# Poissons Ratio (y) = 0.16224 0.25211
# Poissons Ratio (z) = 0.36451 0.28460
#
# Static dielectric constant tensor:
#      x y z
#    x 1.706770 0.000000 0.000000 
#    y 0.000000 1.741480 0.000000 
#    z 0.000000 0.000000 1.793690 
# 
# From -- ./inp_files/3938.got.cif
#   From: 2010.05.17/outbox.cif.g08.bks.cpg/sg74_2_cif.got.tgz:3938.got - 2010.06.03 17:57:02.
