data_PCOD9539628
_publ_section_title
;
Structure prediction by ZEFSAII (Michael W. Deem and Ramdas Pophale) SiO2 
 PCOD9539628
Probable space group: I M M A
;
_chemical_formula_sum "Si O2"
_cell_formula_units_Z 88
_cell_length_a 8.726563
_cell_length_b 23.009334
_cell_length_c 25.019600
_cell_angle_alpha 90.000000
_cell_angle_beta 90.000000
_cell_angle_gamma 90.000000
_cell_volume 5023.745600
_symmetry_space_group_name_H-M "I M M A"
_symmetry_group_IT_number 74
_symmetry_cell_setting 'orthorhombic'
loop_
_space_group_symop_operation_xyz
x,y,z
-x,1/2-y,z
x,-y,-z
-x,1/2+y,-z
-x,-y,-z
x,1/2+y,-z
-x,y,z
x,1/2-y,z
1/2+x,1/2+y,1/2+z
1/2-x,-y,1/2+z
1/2+x,1/2-y,1/2-z
1/2-x,y,1/2-z
1/2-x,1/2-y,1/2-z
1/2+x,y,1/2-z
1/2-x,1/2+y,1/2+z
1/2+x,-y,1/2+z
loop_
_atom_site_type_symbol
_atom_site_label
_atom_site_fract_x
_atom_site_fract_y
_atom_site_fract_z
Si Si1 0.682550 0.595764 0.807903
Si Si2 0.184647 0.750000 0.309620
Si Si3 0.315802 0.318314 0.395084
Si Si4 0.816261 0.181495 0.982455
Si Si5 0.182900 0.468381 0.808162
Si Si6 0.183151 0.134998 0.624093
O O1 0.500000 0.591484 0.804151
O O2 0.750000 0.612711 0.750000
O O3 0.732679 0.641535 0.852506
O O4 0.751658 0.532275 0.820634
O O5 0.250000 0.750000 0.250000
O O6 0.231205 0.807737 0.342079
O O7 0.000000 0.750000 0.306781
O O8 0.500000 0.324711 0.389622
O O9 0.280389 0.250000 0.387365
O O10 0.275748 0.333751 0.456452
O O11 0.780618 0.250000 0.975162
O O12 0.732093 0.145755 0.936831
O O13 0.000000 0.175083 0.976796
O O14 0.250000 0.451828 0.750000
O O15 0.237542 0.420979 0.850520
O O16 0.000000 0.470787 0.805136
O O17 0.000000 0.129346 0.628168
#
# Coordination Sequence:
#
# PCOD9539628 Si02
#       6
#    16   8  16  16  16  16
#     4  11  22  38  60  85 113 146 182 224 275 332
#     4  10  22  34  48  74 108 144 181 230 279 320
#     4   9  19  37  60  86 116 147 182 225 273 329
#     4   9  18  34  56  81 110 148 188 226 275 329
#     4  11  22  38  58  80 108 146 187 230 279 333
#     4  11  21  35  53  79 111 147 189 231 278 327
#
# _framework density 17.51681
#
# number of rings (size 3 to 8) (size 9 to 14) (size 15 to 20)
#    0.000    1.818    0.909    6.545    0.000    4.364 
#    0.000    2.727    0.000    5.455    0.000    0.000 
#    0.000    0.000    0.000    0.000    0.000    0.000 
#
# Total GULP energy -245782.806485 kJ/mol
# GULP energy per Si atom -5585.972875 kJ/mol
# Density = 1.747694 g / cm^3
# Si number density = 17.516810 Si / 1000 Ang^3
#
#
#
# Elastic Constant Matrix: (Units=GPa)
#
#
# Indices 1 2 3 4 5 6 
#
# 1 109.8814 61.7800 75.5413 0.0000 0.0000 0.0000
# 2 61.7800 82.5726 93.1427 0.0000 0.0000 0.0000
# 3 75.5413 93.1427 143.8923 0.0000 0.0000 0.0000
# 4 0.0000 0.0000 0.0000 25.0935 0.0000 0.0000
# 5 0.0000 0.0000 0.0000 0.0000 34.6224 0.0000
# 6 0.0000 0.0000 0.0000 0.0000 0.0000 26.1355
#
#
#
# Elastic Compliance Matrix: (Units=1/GPa)
#
#
# Indices 1 2 3 4 5 6 
#
# 1 0.015930 -0.009210 -0.002401 0.000000 0.000000 0.000000
# 2 -0.009210 0.050207 -0.027664 0.000000 0.000000 0.000000
# 3 -0.002401 -0.027664 0.026118 0.000000 0.000000 0.000000
# 4 0.000000 0.000000 0.000000 0.039851 0.000000 0.000000
# 5 0.000000 0.000000 0.000000 0.000000 0.028883 0.000000
# 6 0.000000 0.000000 0.000000 0.000000 0.000000 0.038262
#
#
# Mechanical properties :
#
#
# Convention : Reuss Voigt Hill
#
# Bulk Modulus (GPa) = 72.97457 88.58605 80.78031
# Shear Modulus (GPa) = 17.70736 24.22909 20.96823
#
# Velocity S-wave (km/s) = 3.18288 3.72316 3.46357
# Velocity P-wave (km/s) = 7.43356 8.31651 7.88740
#
# Compressibility (1/GPa) = 0.01370340
#
# Stress axis : x y z
#
# Youngs Moduli (GPa) = 62.77584 19.91767 38.28837
#
# Poissons Ratio (x) = 0.18344 0.09194
# Poissons Ratio (y) = 0.57815 1.05922
# Poissons Ratio (z) = 0.15075 0.55101
#
# Static dielectric constant tensor:
#      x y z
#    x 1.587990 0.000000 0.000000 
#    y 0.000000 1.574950 0.000000 
#    z 0.000000 0.000000 1.577550 
# 
# From -- ./inp_files/54491.got.cif
#   From: 2010.05.17/outbox.cif.g08.bks.cpg/sg74_28_cif.got.tgz:54491.got - 2010.06.03 17:57:02.
