data_PCOD9539475
_publ_section_title
;
Structure prediction by ZEFSAII (Michael W. Deem and Ramdas Pophale) SiO2 
 PCOD9539475
Probable space group: I M M A
;
_chemical_formula_sum "Si O2"
_cell_formula_units_Z 60
_cell_length_a 22.105949
_cell_length_b 28.112485
_cell_length_c 5.002669
_cell_angle_alpha 90.000000
_cell_angle_beta 90.000000
_cell_angle_gamma 90.000000
_cell_volume 3108.924457
_symmetry_space_group_name_H-M "I M M A"
_symmetry_group_IT_number 74
_symmetry_cell_setting 'orthorhombic'
loop_
_space_group_symop_operation_xyz
x,y,z
-x,1/2-y,z
x,-y,-z
-x,1/2+y,-z
-x,-y,-z
x,1/2+y,-z
-x,y,z
x,1/2-y,z
1/2+x,1/2+y,1/2+z
1/2-x,-y,1/2+z
1/2+x,1/2-y,1/2-z
1/2-x,y,1/2-z
1/2-x,1/2-y,1/2-z
1/2+x,y,1/2-z
1/2-x,1/2+y,1/2+z
1/2+x,-y,1/2+z
loop_
_atom_site_type_symbol
_atom_site_label
_atom_site_fract_x
_atom_site_fract_y
_atom_site_fract_z
Si Si1 0.705708 0.554188 0.500138
Si Si2 0.317138 0.805604 0.130947
Si Si3 0.129627 0.644345 0.878181
Si Si4 0.000000 0.750000 0.262706
Si Si5 0.500000 0.176049 0.263833
O O1 0.682029 0.500000 0.500000
O O2 0.750000 0.561854 0.250000
O O3 0.654550 0.593818 0.524178
O O4 0.750000 0.558679 0.750000
O O5 0.325403 0.750000 0.063941
O O6 0.250000 0.812533 0.250000
O O7 0.361563 0.820239 0.370597
O O8 0.329790 0.836038 0.867438
O O9 0.061266 0.645519 0.777866
O O10 0.000000 0.791386 0.500153
O O11 0.000000 0.790852 0.025736
#
# Coordination Sequence:
#
# PCOD9539475 Si02
#       5
#    16  16  16   4   8
#     4  10  21  39  64  91 117 152 196 247 308 362
#     4  11  24  38  57  87 120 158 196 245 307 356
#     4  12  23  38  61  86 122 157 202 247 293 355
#     4  10  24  42  56  78 116 166 212 246 264 340
#     4  11  26  38  61  86 116 164 213 236 297 338
#
# _framework density 19.299278000000001
#
# number of rings (size 3 to 8) (size 9 to 14) (size 15 to 20)
#    0.000    1.067    0.000    7.200   11.200    2.133 
#    0.000    0.667    0.000    0.000    0.000   11.200 
#    0.000    0.000    0.000    0.000    0.000    0.000 
#
# Total GULP energy -167299.936851 kJ/mol
# GULP energy per Si atom -5576.664562 kJ/mol
# Density = 1.925535 g / cm^3
# Si number density = 19.299278 Si / 1000 Ang^3
#
#
#
# Elastic Constant Matrix: (Units=GPa)
#
#
# Indices 1 2 3 4 5 6 
#
# 1 88.5037 71.7742 16.4422 0.0000 0.0000 0.0000
# 2 71.7742 137.9198 38.5166 0.0000 0.0000 0.0000
# 3 16.4422 38.5166 156.5840 0.0000 0.0000 0.0000
# 4 0.0000 0.0000 0.0000 24.8306 0.0000 0.0000
# 5 0.0000 0.0000 0.0000 0.0000 6.0317 0.0000
# 6 0.0000 0.0000 0.0000 0.0000 0.0000 -17.6539
#
#
#
# Elastic Compliance Matrix: (Units=1/GPa)
#
#
# Indices 1 2 3 4 5 6 
#
# 1 0.019584 -0.010327 0.000484 0.000000 0.000000 0.000000
# 2 -0.010327 0.013231 -0.002170 0.000000 0.000000 0.000000
# 3 0.000484 -0.002170 0.006869 0.000000 0.000000 0.000000
# 4 0.000000 0.000000 0.000000 0.040273 0.000000 0.000000
# 5 0.000000 0.000000 0.000000 0.000000 0.165791 0.000000
# 6 0.000000 0.000000 0.000000 0.000000 0.000000 -0.056645
#
#
# Mechanical properties :
#
#
# Convention : Reuss Voigt Hill
#
# Bulk Modulus (GPa) = 63.86603 70.71928 67.29265
# Shear Modulus (GPa) = 22.89927 19.72663 21.31295
#
# Velocity S-wave (km/s) = 3.44835 3.20057 3.32677
# Velocity P-wave (km/s) = 7.00136 7.09797 7.04983
#
# Compressibility (1/GPa) = 0.01565778
#
# Stress axis : x y z
#
# Youngs Moduli (GPa) = 51.06298 75.58219 145.57387
#
# Poissons Ratio (x) = 0.78050 -0.07042
# Poissons Ratio (y) = 0.52730 0.31591
# Poissons Ratio (z) = -0.02470 0.16402
#
# Static dielectric constant tensor:
#      x y z
#    x 1.709300 0.000000 0.000000 
#    y 0.000000 1.692690 0.000000 
#    z 0.000000 0.000000 1.653860 
# 
# From -- ./inp_files/3050.got.cif
#   From: 2010.05.17/outbox.cif.g08.bks.cpg/sg74_2_cif.got.tgz:3050.got - 2010.06.03 17:57:02.
