data_PCOD9539422
_publ_section_title
;
Structure prediction by ZEFSAII (Michael W. Deem and Ramdas Pophale) SiO2 
 PCOD9539422
Probable space group: I M M A
;
_chemical_formula_sum "Si O2"
_cell_formula_units_Z 88
_cell_length_a 27.782025
_cell_length_b 8.503864
_cell_length_c 19.801047
_cell_angle_alpha 90.000000
_cell_angle_beta 90.000000
_cell_angle_gamma 90.000000
_cell_volume 4678.087691
_symmetry_space_group_name_H-M "I M M A"
_symmetry_group_IT_number 74
_symmetry_cell_setting 'orthorhombic'
loop_
_space_group_symop_operation_xyz
x,y,z
-x,1/2-y,z
x,-y,-z
-x,1/2+y,-z
-x,-y,-z
x,1/2+y,-z
-x,y,z
x,1/2-y,z
1/2+x,1/2+y,1/2+z
1/2-x,-y,1/2+z
1/2+x,1/2-y,1/2-z
1/2-x,y,1/2-z
1/2-x,1/2-y,1/2-z
1/2+x,y,1/2-z
1/2-x,1/2+y,1/2+z
1/2+x,-y,1/2+z
loop_
_atom_site_type_symbol
_atom_site_label
_atom_site_fract_x
_atom_site_fract_y
_atom_site_fract_z
Si Si1 0.881140 0.060585 0.303331
Si Si2 0.500000 0.437808 0.577046
Si Si3 0.774286 0.560676 0.321058
Si Si4 0.595970 0.439376 0.349156
Si Si5 0.444425 0.939769 0.928598
Si Si6 0.191405 0.439265 0.924043
O O1 0.883224 0.250000 0.301949
O O2 0.897298 0.006802 0.228713
O O3 0.915634 0.004275 0.363320
O O4 0.827205 0.010177 0.321064
O O5 0.500000 0.250000 0.575184
O O6 0.500000 0.500000 0.500000
O O7 0.547697 0.496446 0.616031
O O8 0.778350 0.750000 0.323331
O O9 0.750000 0.517103 0.250000
O O10 0.738055 0.511236 0.380434
O O11 0.593906 0.250000 0.350250
O O12 0.643066 0.495250 0.389614
O O13 0.500000 0.990973 0.923896
O O14 0.443493 0.750000 0.929460
O O15 0.424535 0.000000 0.000000
O O16 0.189026 0.250000 0.923181
O O17 0.194874 0.500000 0.000000
#
# Coordination Sequence:
#
# PCOD9539422 Si02
#       6
#    16   8  16  16  16  16
#     4  10  22  37  61  90 119 156 197 245 295 351
#     4  12  26  44  64  88 121 160 199 246 295 354
#     4  10  21  39  60  83 117 155 193 243 293 342
#     4  11  23  40  63  91 121 157 198 245 298 353
#     4   9  19  37  59  84 117 154 192 237 289 345
#     4  11  23  40  62  88 120 158 199 244 296 354
#
# _framework density 18.811104
#
# number of rings (size 3 to 8) (size 9 to 14) (size 15 to 20)
#    0.000    1.636    1.818    2.455    1.273    4.000 
#    0.000    3.636    0.000    0.000    0.000    0.000 
#    0.000    0.000    0.000    0.000    0.000    0.000 
#
# Total GULP energy -245820.958067 kJ/mol
# GULP energy per Si atom -5586.839956 kJ/mol
# Density = 1.876829 g / cm^3
# Si number density = 18.811104 Si / 1000 Ang^3
#
#
#
# Elastic Constant Matrix: (Units=GPa)
#
#
# Indices 1 2 3 4 5 6 
#
# 1 149.5887 32.9810 116.8442 0.0000 0.0000 0.0000
# 2 32.9810 44.7866 41.5497 0.0000 0.0000 0.0000
# 3 116.8442 41.5497 222.0826 0.0000 0.0000 0.0000
# 4 0.0000 0.0000 0.0000 25.4440 0.0000 0.0000
# 5 0.0000 0.0000 0.0000 0.0000 39.7192 0.0000
# 6 0.0000 0.0000 0.0000 0.0000 0.0000 34.2462
#
#
#
# Elastic Compliance Matrix: (Units=1/GPa)
#
#
# Indices 1 2 3 4 5 6 
#
# 1 0.011796 -0.003544 -0.005543 0.000000 0.000000 0.000000
# 2 -0.003544 0.028082 -0.003389 0.000000 0.000000 0.000000
# 3 -0.005543 -0.003389 0.008053 0.000000 0.000000 0.000000
# 4 0.000000 0.000000 0.000000 0.039302 0.000000 0.000000
# 5 0.000000 0.000000 0.000000 0.000000 0.025177 0.000000
# 6 0.000000 0.000000 0.000000 0.000000 0.000000 0.029200
#
#
# Mechanical properties :
#
#
# Convention : Reuss Voigt Hill
#
# Bulk Modulus (GPa) = 43.51878 88.80084 66.15981
# Shear Modulus (GPa) = 28.69868 34.88742 31.79305
#
# Velocity S-wave (km/s) = 3.91016 4.31120 4.11557
# Velocity P-wave (km/s) = 6.60081 8.49064 7.60466
#
# Compressibility (1/GPa) = 0.02297859
#
# Stress axis : x y z
#
# Youngs Moduli (GPa) = 84.77237 35.60957 124.17086
#
# Poissons Ratio (x) = 0.12621 0.68832
# Poissons Ratio (y) = 0.30045 0.42085
# Poissons Ratio (z) = 0.46992 0.12069
#
# Static dielectric constant tensor:
#      x y z
#    x 1.657840 0.000000 0.000000 
#    y 0.000000 1.647390 0.000000 
#    z 0.000000 0.000000 1.645960 
# 
# From -- ./inp_files/54537.got.cif
#   From: 2010.05.17/outbox.cif.g08.bks.cpg/sg74_28_cif.got.tgz:54537.got - 2010.06.03 17:57:02.
