data_PCOD9539912
_publ_section_title
;
Structure prediction by ZEFSAII (Michael W. Deem and Ramdas Pophale) SiO2 
 PCOD9539912
Probable space group: I M M A
;
_chemical_formula_sum "Si O2"
_cell_formula_units_Z 104
_cell_length_a 8.102823
_cell_length_b 20.177894
_cell_length_c 31.534592
_cell_angle_alpha 90.000000
_cell_angle_beta 90.000000
_cell_angle_gamma 90.000000
_cell_volume 5155.839683
_symmetry_space_group_name_H-M "I M M A"
_symmetry_group_IT_number 74
_symmetry_cell_setting 'orthorhombic'
loop_
_space_group_symop_operation_xyz
x,y,z
-x,1/2-y,z
x,-y,-z
-x,1/2+y,-z
-x,-y,-z
x,1/2+y,-z
-x,y,z
x,1/2-y,z
1/2+x,1/2+y,1/2+z
1/2-x,-y,1/2+z
1/2+x,1/2-y,1/2-z
1/2-x,y,1/2-z
1/2-x,1/2-y,1/2-z
1/2+x,y,1/2-z
1/2-x,1/2+y,1/2+z
1/2+x,-y,1/2+z
loop_
_atom_site_type_symbol
_atom_site_label
_atom_site_fract_x
_atom_site_fract_y
_atom_site_fract_z
Si Si1 0.686659 0.013317 0.954255
Si Si2 0.799611 0.750000 0.089052
Si Si3 0.803752 0.750000 0.703037
Si Si4 0.311368 0.875953 0.563716
Si Si5 0.801658 0.517378 0.200269
Si Si6 0.196668 0.250000 0.490465
Si Si7 0.801354 0.379521 0.344025
Si Si8 0.802059 0.607481 0.122199
O O1 0.500000 0.038065 0.961635
O O2 0.762256 0.060468 0.918390
O O3 0.689916 0.938371 0.938587
O O4 0.770185 0.000000 0.000000
O O5 0.742202 0.681914 0.111599
O O6 0.000000 0.750000 0.089602
O O7 0.746394 0.750000 0.039821
O O8 0.750000 0.750000 0.750000
O O9 0.746407 0.680759 0.684922
O O10 0.000000 0.750000 0.697305
O O11 0.500000 0.895949 0.554599
O O12 0.264123 0.815412 0.533288
O O13 0.291895 0.860955 0.612862
O O14 0.750000 0.523523 0.250000
O O15 0.743458 0.448888 0.178301
O O16 0.743302 0.574280 0.166508
O O17 0.000000 0.517923 0.199949
O O18 0.000000 0.250000 0.486985
O O19 0.000000 0.378927 0.350753
O O20 0.000000 0.610632 0.125067
#
# Coordination Sequence:
#
# PCOD9539912 Si02
#       8
#    16   8   8  16  16   8  16  16
#     4  11  23  38  60  91 126 164 207 256 310 369
#     4  10  22  43  68  93 123 164 206 261 326 388
#     4  10  23  38  55  81 114 153 199 246 297 350
#     4  12  24  39  60  88 122 165 211 254 304 366
#     4  11  23  40  63  93 125 165 214 268 326 388
#     4  12  25  41  60  90 130 171 215 263 313 375
#     4  11  22  39  61  88 123 164 207 260 315 370
#     4  10  22  41  65  92 124 162 211 262 320 390
#
# _framework density 20.171302000000001
#
# number of rings (size 3 to 8) (size 9 to 14) (size 15 to 20)
#    0.000    1.077    1.538    5.308    0.000    8.000 
#    0.000    0.385    0.000    0.000    0.000    0.000 
#    0.000    0.000    0.000    0.000    0.000    0.000 
#
# Total GULP energy -290029.662150 kJ/mol
# GULP energy per Si atom -5577.493503 kJ/mol
# Density = 2.012539 g / cm^3
# Si number density = 20.171302 Si / 1000 Ang^3
#
#
#
# Elastic Constant Matrix: (Units=GPa)
#
#
# Indices 1 2 3 4 5 6 
#
# 1 57.3162 14.7793 19.7924 0.0000 0.0000 0.0000
# 2 14.7793 161.3002 75.8960 0.0000 0.0000 0.0000
# 3 19.7924 75.8960 140.3065 0.0000 0.0000 0.0000
# 4 0.0000 0.0000 0.0000 391.8016 0.0000 0.0000
# 5 0.0000 0.0000 0.0000 0.0000 3.2027 0.0000
# 6 0.0000 0.0000 0.0000 0.0000 0.0000 33.8347
#
#
#
# Elastic Compliance Matrix: (Units=1/GPa)
#
#
# Indices 1 2 3 4 5 6 
#
# 1 0.018387 -0.000623 -0.002257 0.000000 0.000000 0.000000
# 2 -0.000623 0.008337 -0.004422 0.000000 0.000000 0.000000
# 3 -0.002257 -0.004422 0.009838 0.000000 0.000000 0.000000
# 4 0.000000 0.000000 0.000000 0.002552 0.000000 0.000000
# 5 0.000000 0.000000 0.000000 0.000000 0.312233 0.000000
# 6 0.000000 0.000000 0.000000 0.000000 0.000000 0.029555
#
#
# Mechanical properties :
#
#
# Convention : Reuss Voigt Hill
#
# Bulk Modulus (GPa) = 45.54042 64.42869 54.98456
# Shear Modulus (GPa) = 12.41230 102.33150 57.37190
#
# Velocity S-wave (km/s) = 2.48330 7.13031 5.33892
# Velocity P-wave (km/s) = 5.55412 9.98992 8.08229
#
# Compressibility (1/GPa) = 0.02195851
#
# Stress axis : x y z
#
# Youngs Moduli (GPa) = 54.38622 119.94154 101.65013
#
# Poissons Ratio (x) = 0.07470 0.22941
# Poissons Ratio (y) = 0.03387 0.44951
# Poissons Ratio (z) = 0.12274 0.53039
#
# Static dielectric constant tensor:
#      x y z
#    x 1.738930 0.000000 0.000000 
#    y 0.000000 1.363810 0.000000 
#    z 0.000000 0.000000 1.644440 
# 
# From -- ./inp_files/64562.got.cif
#   From: 2010.05.17/outbox.cif.g08.bks.cpg/sg74_33_cif.got.tgz:64562.got - 2010.06.03 17:57:02.
