data_PCOD9539045
_publ_section_title
;
Structure prediction by ZEFSAII (Michael W. Deem and Ramdas Pophale) SiO2 
 PCOD9539045
Probable space group: I M M A
;
_chemical_formula_sum "Si O2"
_cell_formula_units_Z 104
_cell_length_a 21.135611
_cell_length_b 8.619219
_cell_length_c 32.855217
_cell_angle_alpha 90.000000
_cell_angle_beta 90.000000
_cell_angle_gamma 90.000000
_cell_volume 5985.315702
_symmetry_space_group_name_H-M "I M M A"
_symmetry_group_IT_number 74
_symmetry_cell_setting 'orthorhombic'
loop_
_space_group_symop_operation_xyz
x,y,z
-x,1/2-y,z
x,-y,-z
-x,1/2+y,-z
-x,-y,-z
x,1/2+y,-z
-x,y,z
x,1/2-y,z
1/2+x,1/2+y,1/2+z
1/2-x,-y,1/2+z
1/2+x,1/2-y,1/2-z
1/2-x,y,1/2-z
1/2-x,1/2-y,1/2-z
1/2+x,y,1/2-z
1/2-x,1/2+y,1/2+z
1/2+x,-y,1/2+z
loop_
_atom_site_type_symbol
_atom_site_label
_atom_site_fract_x
_atom_site_fract_y
_atom_site_fract_z
Si Si1 0.759331 0.935664 0.956521
Si Si2 0.500000 0.564893 0.045242
Si Si3 0.928121 0.562704 0.727534
Si Si4 0.628021 0.563927 0.918390
Si Si5 0.196344 0.438125 0.132915
Si Si6 0.429863 0.938716 0.677419
Si Si7 0.676169 0.434125 0.833435
O O1 0.765208 0.750000 0.957986
O O2 0.685337 0.974476 0.949145
O O3 0.792162 0.988164 0.914101
O O4 0.781135 0.000000 0.000000
O O5 0.500000 0.750000 0.045393
O O6 0.562164 0.499714 0.066464
O O7 0.500000 0.500000 0.000000
O O8 0.925849 0.750000 0.724651
O O9 0.921577 0.519696 0.775103
O O10 0.870307 0.495415 0.701729
O O11 0.000000 0.515712 0.714342
O O12 0.626736 0.750000 0.913703
O O13 0.644181 0.487166 0.875535
O O14 0.198935 0.250000 0.133057
O O15 0.128955 0.490780 0.150333
O O16 0.253241 0.495998 0.161916
O O17 0.500000 0.990762 0.664259
O O18 0.429934 0.750000 0.676098
O O19 0.680799 0.250000 0.830742
#
# Coordination Sequence:
#
# PCOD9539045 Si02
#       7
#    16   8  16  16  16  16  16
#     4   9  18  31  50  73  97 128 164 204 251 302
#     4  12  24  36  50  72 100 134 176 220 268 318
#     4   9  18  33  53  75 100 134 175 217 262 308
#     4  10  21  37  53  70  95 131 175 223 269 308
#     4   9  18  34  54  77 104 132 169 214 260 308
#     4   8  15  31  57  83 101 126 171 219 257 302
#     4  11  22  34  49  73 105 138 174 213 258 314
#
# _framework density 17.375858999999998
#
# number of rings (size 3 to 8) (size 9 to 14) (size 15 to 20)
#    0.000    2.462    0.000    4.846    1.077    5.231 
#    0.000    3.846    0.000    1.846    0.000    0.000 
#    0.000    0.000    0.000    0.000    0.000    0.308 
#
# Total GULP energy -289911.206202 kJ/mol
# GULP energy per Si atom -5575.215504 kJ/mol
# Density = 1.733631 g / cm^3
# Si number density = 17.375859 Si / 1000 Ang^3
#
#
#
# Elastic Constant Matrix: (Units=GPa)
#
#
# Indices 1 2 3 4 5 6 
#
# 1 162.4641 26.8039 86.9720 0.0000 0.0000 0.0000
# 2 26.8039 29.9358 23.5480 0.0000 0.0000 0.0000
# 3 86.9720 23.5480 88.6044 0.0000 0.0000 0.0000
# 4 0.0000 0.0000 0.0000 18.7881 0.0000 0.0000
# 5 0.0000 0.0000 0.0000 0.0000 13.9973 0.0000
# 6 0.0000 0.0000 0.0000 0.0000 0.0000 5.6379
#
#
#
# Elastic Compliance Matrix: (Units=1/GPa)
#
#
# Indices 1 2 3 4 5 6 
#
# 1 0.013069 -0.002037 -0.012287 0.000000 0.000000 0.000000
# 2 -0.002037 0.042551 -0.009310 0.000000 0.000000 0.000000
# 3 -0.012287 -0.009310 0.025820 0.000000 0.000000 0.000000
# 4 0.000000 0.000000 0.000000 0.053225 0.000000 0.000000
# 5 0.000000 0.000000 0.000000 0.000000 0.071443 0.000000
# 6 0.000000 0.000000 0.000000 0.000000 0.000000 0.177371
#
#
# Mechanical properties :
#
#
# Convention : Reuss Voigt Hill
#
# Bulk Modulus (GPa) = 29.26116 61.73910 45.50013
# Shear Modulus (GPa) = 11.30872 17.26335 14.28603
#
# Velocity S-wave (km/s) = 2.55390 3.15544 2.87047
# Velocity P-wave (km/s) = 5.05700 6.99174 6.10154
#
# Compressibility (1/GPa) = 0.03417499
#
# Stress axis : x y z
#
# Youngs Moduli (GPa) = 76.51957 23.50094 38.72895
#
# Poissons Ratio (x) = 0.04786 0.47584
# Poissons Ratio (y) = 0.15583 0.36056
# Poissons Ratio (z) = 0.94016 0.21879
#
# Static dielectric constant tensor:
#      x y z
#    x 1.584930 0.000000 0.000000 
#    y 0.000000 1.582940 0.000000 
#    z 0.000000 0.000000 1.580080 
# 
# From -- ./inp_files/70619.got.cif
#   From: 2010.05.17/outbox.cif.g08.bks.cpg/sg74_36_cif.got.tgz:70619.got - 2010.06.03 17:57:02.
