data_PCOD9539914
_publ_section_title
;
Structure prediction by ZEFSAII (Michael W. Deem and Ramdas Pophale) SiO2 
 PCOD9539914
Probable space group: I M M A
;
_chemical_formula_sum "Si O2"
_cell_formula_units_Z 48
_cell_length_a 25.699441
_cell_length_b 16.406143
_cell_length_c 4.811142
_cell_angle_alpha 90.000000
_cell_angle_beta 90.000000
_cell_angle_gamma 90.000000
_cell_volume 2028.515567
_symmetry_space_group_name_H-M "I M M A"
_symmetry_group_IT_number 74
_symmetry_cell_setting 'orthorhombic'
loop_
_space_group_symop_operation_xyz
x,y,z
-x,1/2-y,z
x,-y,-z
-x,1/2+y,-z
-x,-y,-z
x,1/2+y,-z
-x,y,z
x,1/2-y,z
1/2+x,1/2+y,1/2+z
1/2-x,-y,1/2+z
1/2+x,1/2-y,1/2-z
1/2-x,y,1/2-z
1/2-x,1/2-y,1/2-z
1/2+x,y,1/2-z
1/2-x,1/2+y,1/2+z
1/2+x,-y,1/2+z
loop_
_atom_site_type_symbol
_atom_site_label
_atom_site_fract_x
_atom_site_fract_y
_atom_site_fract_z
Si Si1 0.440525 0.421025 0.187764
Si Si2 0.787695 0.097764 0.504832
Si Si3 0.107067 0.841753 0.220805
O O1 0.500000 0.430955 0.283083
O O2 0.405100 0.600134 0.544329
O O3 0.425592 0.500000 0.000000
O O4 0.437220 0.351338 0.953739
O O5 0.750000 0.119550 0.750000
O O6 0.842264 0.136723 0.593188
O O7 0.796075 0.000000 0.500000
O O8 0.750000 0.120095 0.250000
O O9 0.111025 0.750000 0.113668
#
# Coordination Sequence:
#
# PCOD9539914 Si02
#       3
#    16  16  16
#     4  11  25  45  68  95 133 184 238 288 343 415
#     4  10  22  41  65  94 132 179 230 279 335 408
#     4  12  25  41  67 102 138 177 226 291 357 414
#
# _framework density 23.662621000000001
#
# number of rings (size 3 to 8) (size 9 to 14) (size 15 to 20)
#    0.000    1.000    0.000    6.000    0.000   13.333 
#    0.000    0.000    0.000    0.000    0.000    0.000 
#    0.000    0.000    0.000    0.000    0.000    0.000 
#
# Total GULP energy -133948.284861 kJ/mol
# GULP energy per Si atom -5581.178536 kJ/mol
# Density = 2.360876 g / cm^3
# Si number density = 23.662621 Si / 1000 Ang^3
#
#
#
# Elastic Constant Matrix: (Units=GPa)
#
#
# Indices 1 2 3 4 5 6 
#
# 1 149.3903 47.5150 66.6862 0.0000 0.0000 0.0000
# 2 47.5150 100.0991 58.4840 0.0000 0.0000 0.0000
# 3 66.6862 58.4840 212.8136 0.0000 0.0000 0.0000
# 4 0.0000 0.0000 0.0000 36.6438 0.0000 0.0000
# 5 0.0000 0.0000 0.0000 0.0000 43.0912 0.0000
# 6 0.0000 0.0000 0.0000 0.0000 0.0000 4.8979
#
#
#
# Elastic Compliance Matrix: (Units=1/GPa)
#
#
# Indices 1 2 3 4 5 6 
#
# 1 0.008449 -0.002935 -0.001841 0.000000 0.000000 0.000000
# 2 -0.002935 0.012921 -0.002631 0.000000 0.000000 0.000000
# 3 -0.001841 -0.002631 0.005999 0.000000 0.000000 0.000000
# 4 0.000000 0.000000 0.000000 0.027290 0.000000 0.000000
# 5 0.000000 0.000000 0.000000 0.000000 0.023207 0.000000
# 6 0.000000 0.000000 0.000000 0.000000 0.000000 0.204169
#
#
# Mechanical properties :
#
#
# Convention : Reuss Voigt Hill
#
# Bulk Modulus (GPa) = 79.65301 89.74149 84.69725
# Shear Modulus (GPa) = 16.60949 36.23445 26.42197
#
# Velocity S-wave (km/s) = 2.65227 3.91742 3.34520
# Velocity P-wave (km/s) = 6.56616 7.64652 7.12684
#
# Compressibility (1/GPa) = 0.01255445
#
# Stress axis : x y z
#
# Youngs Moduli (GPa) = 118.35442 77.39633 166.69789
#
# Poissons Ratio (x) = 0.22716 0.30689
# Poissons Ratio (y) = 0.34737 0.43859
# Poissons Ratio (z) = 0.21789 0.20363
#
# Static dielectric constant tensor:
#      x y z
#    x 1.853970 0.000000 0.000000 
#    y 0.000000 1.963330 0.000000 
#    z 0.000000 0.000000 1.860180 
# 
# From -- ./inp_files/1250.got.cif
#   From: 2010.05.17/outbox.cif.g08.bks.cpg/sg74_1_cif.got.tgz:1250.got - 2010.06.03 17:57:02.
