data_PCOD9539202
_publ_section_title
;
Structure prediction by ZEFSAII (Michael W. Deem and Ramdas Pophale) SiO2 
 PCOD9539202
Probable space group: I M M A
;
_chemical_formula_sum "Si O2"
_cell_formula_units_Z 96
_cell_length_a 23.635487
_cell_length_b 18.316506
_cell_length_c 12.426544
_cell_angle_alpha 90.000000
_cell_angle_beta 90.000000
_cell_angle_gamma 90.000000
_cell_volume 5379.693705
_symmetry_space_group_name_H-M "I M M A"
_symmetry_group_IT_number 74
_symmetry_cell_setting 'orthorhombic'
loop_
_space_group_symop_operation_xyz
x,y,z
-x,1/2-y,z
x,-y,-z
-x,1/2+y,-z
-x,-y,-z
x,1/2+y,-z
-x,y,z
x,1/2-y,z
1/2+x,1/2+y,1/2+z
1/2-x,-y,1/2+z
1/2+x,1/2-y,1/2-z
1/2-x,y,1/2-z
1/2-x,1/2-y,1/2-z
1/2+x,y,1/2-z
1/2-x,1/2+y,1/2+z
1/2+x,-y,1/2+z
loop_
_atom_site_type_symbol
_atom_site_label
_atom_site_fract_x
_atom_site_fract_y
_atom_site_fract_z
Si Si1 0.566355 0.164025 0.135216
Si Si2 0.432673 0.417065 0.728660
Si Si3 0.933469 0.921082 0.858148
Si Si4 0.134872 0.581105 0.452669
Si Si5 0.127971 0.664737 0.045210
Si Si6 0.755146 0.664081 0.377509
O O1 0.500000 0.153309 0.108465
O O2 0.576651 0.250000 0.147970
O O3 0.576429 0.122732 0.247481
O O4 0.603811 0.130413 0.041332
O O5 0.500000 0.408194 0.741920
O O6 0.422857 0.494084 0.667331
O O7 0.401949 0.419503 0.843441
O O8 0.405948 0.354860 0.653867
O O9 0.000000 0.913272 0.887543
O O10 0.895930 0.886461 0.951379
O O11 0.139165 0.500000 0.500000
O O12 0.195856 0.614692 0.426257
O O13 0.119857 0.750000 0.017801
O O14 0.194157 0.651921 0.068560
O O15 0.769740 0.750000 0.389996
O O16 0.750000 0.649669 0.250000
#
# Coordination Sequence:
#
# PCOD9539202 Si02
#       6
#    16  16  16  16  16  16
#     4  10  21  37  60  89 123 163 202 243 297 359
#     4  11  23  38  61  91 125 158 198 251 304 359
#     4  10  21  39  61  89 126 163 196 240 302 367
#     4  12  23  39  62  91 120 160 205 251 298 353
#     4  11  23  40  63  89 120 158 204 252 303 361
#     4  10  22  43  64  84 117 159 200 250 307 351
#
# _framework density 17.844881000000001
#
# number of rings (size 3 to 8) (size 9 to 14) (size 15 to 20)
#    0.000    1.333    3.333    2.500    0.000    6.000 
#    0.000    0.833    0.000    3.000    0.000    0.000 
#    0.000    0.000    0.000    0.000    0.000    0.000 
#
# Total GULP energy -268298.474602 kJ/mol
# GULP energy per Si atom -5589.551554 kJ/mol
# Density = 1.780427 g / cm^3
# Si number density = 17.844881 Si / 1000 Ang^3
#
#
#
# Elastic Constant Matrix: (Units=GPa)
#
#
# Indices 1 2 3 4 5 6 
#
# 1 85.9033 35.9501 40.2142 0.0000 0.0000 0.0000
# 2 35.9501 41.2413 11.6224 0.0000 0.0000 0.0000
# 3 40.2142 11.6224 61.5178 0.0000 0.0000 0.0000
# 4 0.0000 0.0000 0.0000 0.0656 0.0000 0.0000
# 5 0.0000 0.0000 0.0000 0.0000 10.9150 0.0000
# 6 0.0000 0.0000 0.0000 0.0000 0.0000 13.5537
#
#
#
# Elastic Compliance Matrix: (Units=1/GPa)
#
#
# Indices 1 2 3 4 5 6 
#
# 1 0.025623 -0.018606 -0.013235 0.000000 0.000000 0.000000
# 2 -0.018606 0.039122 0.004772 0.000000 0.000000 0.000000
# 3 -0.013235 0.004772 0.024005 0.000000 0.000000 0.000000
# 4 0.000000 0.000000 0.000000 15.253115 0.000000 0.000000
# 5 0.000000 0.000000 0.000000 0.000000 0.091617 0.000000
# 6 0.000000 0.000000 0.000000 0.000000 0.000000 0.073780
#
#
# Mechanical properties :
#
#
# Convention : Reuss Voigt Hill
#
# Bulk Modulus (GPa) = 28.89160 40.47063 34.68111
# Shear Modulus (GPa) = 0.32107 11.63190 5.97649
#
# Velocity S-wave (km/s) = 0.42463 2.55587 1.83205
# Velocity P-wave (km/s) = 4.05783 5.60699 4.89409
#
# Compressibility (1/GPa) = 0.03461214
#
# Stress axis : x y z
#
# Youngs Moduli (GPa) = 39.02739 25.56131 41.65721
#
# Poissons Ratio (x) = 0.47559 0.55132
# Poissons Ratio (y) = 0.72614 -0.19877
# Poissons Ratio (z) = 0.51651 -0.12197
#
# Static dielectric constant tensor:
#      x y z
#    x 1.580030 0.000000 0.000000 
#    y 0.000000 1.594460 0.000000 
#    z 0.000000 0.000000 1.583760 
# 
# From -- ./inp_files/22413.got.cif
#   From: 2010.05.17/outbox.cif.g08.bks.cpg/sg74_12_cif.got.tgz:22413.got - 2010.06.03 17:57:02.
