data_PCOD9539667
_publ_section_title
;
Structure prediction by ZEFSAII (Michael W. Deem and Ramdas Pophale) SiO2 
 PCOD9539667
Probable space group: I M M A
;
_chemical_formula_sum "Si O2"
_cell_formula_units_Z 60
_cell_length_a 15.529411
_cell_length_b 7.477270
_cell_length_c 21.246847
_cell_angle_alpha 90.000000
_cell_angle_beta 90.000000
_cell_angle_gamma 90.000000
_cell_volume 2467.132860
_symmetry_space_group_name_H-M "I M M A"
_symmetry_group_IT_number 74
_symmetry_cell_setting 'orthorhombic'
loop_
_space_group_symop_operation_xyz
x,y,z
-x,1/2-y,z
x,-y,-z
-x,1/2+y,-z
-x,-y,-z
x,1/2+y,-z
-x,y,z
x,1/2-y,z
1/2+x,1/2+y,1/2+z
1/2-x,-y,1/2+z
1/2+x,1/2-y,1/2-z
1/2-x,y,1/2-z
1/2-x,1/2-y,1/2-z
1/2+x,y,1/2-z
1/2-x,1/2+y,1/2+z
1/2+x,-y,1/2+z
loop_
_atom_site_type_symbol
_atom_site_label
_atom_site_fract_x
_atom_site_fract_y
_atom_site_fract_z
Si Si1 0.861551 0.044832 0.402510
Si Si2 0.824267 0.463534 0.132036
Si Si3 0.500000 0.750000 0.058267
Si Si4 0.500000 0.036081 0.426703
Si Si5 0.903102 0.537807 0.260850
O O1 0.869407 0.250000 0.426091
O O2 0.763045 0.976420 0.401262
O O3 0.925452 0.907539 0.434655
O O4 0.884698 0.048617 0.327908
O O5 0.822366 0.250000 0.124843
O O6 0.834920 0.500119 0.206208
O O7 0.911869 0.536817 0.102264
O O8 0.500000 0.250000 0.415519
O O9 0.500000 0.000000 0.500000
O O10 0.904347 0.750000 0.272262
O O11 0.000000 0.483382 0.239714
#
# Coordination Sequence:
#
# PCOD9539667 Si02
#       5
#    16  16   4   8  16
#     4  11  22  37  56  82 122 164 206 247 298 353
#     4  10  22  37  57  83 116 160 202 245 303 370
#     4  12  22  38  54  84 114 158 204 248 288 350
#     4  10  22  43  64  90 124 153 199 255 310 368
#     4  11  20  32  51  82 121 163 206 249 289 354
#
# _framework density 24.319728000000001
#
# number of rings (size 3 to 8) (size 9 to 14) (size 15 to 20)
#    0.000    1.333    4.000    2.000    1.867    5.333 
#    0.000    0.000    0.000    0.000    0.000    0.933 
#    0.000    0.000    0.000    0.000    0.000    0.000 
#
# Total GULP energy -167441.559395 kJ/mol
# GULP energy per Si atom -5581.385313 kJ/mol
# Density = 2.426438 g / cm^3
# Si number density = 24.319728 Si / 1000 Ang^3
#
#
#
# Elastic Constant Matrix: (Units=GPa)
#
#
# Indices 1 2 3 4 5 6 
#
# 1 210.7436 68.7017 38.8264 0.0000 0.0000 0.0000
# 2 68.7017 129.0402 12.7761 0.0000 0.0000 0.0000
# 3 38.8264 12.7761 85.3777 0.0000 0.0000 0.0000
# 4 0.0000 0.0000 0.0000 18.1927 0.0000 0.0000
# 5 0.0000 0.0000 0.0000 0.0000 12.7369 0.0000
# 6 0.0000 0.0000 0.0000 0.0000 0.0000 18.1602
#
#
#
# Elastic Compliance Matrix: (Units=1/GPa)
#
#
# Indices 1 2 3 4 5 6 
#
# 1 0.006174 -0.003054 -0.002351 0.000000 0.000000 0.000000
# 2 -0.003054 0.009377 -0.000014 0.000000 0.000000 0.000000
# 3 -0.002351 -0.000014 0.012784 0.000000 0.000000 0.000000
# 4 0.000000 0.000000 0.000000 0.054967 0.000000 0.000000
# 5 0.000000 0.000000 0.000000 0.000000 0.078512 0.000000
# 6 0.000000 0.000000 0.000000 0.000000 0.000000 0.055066
#
#
# Mechanical properties :
#
#
# Convention : Reuss Voigt Hill
#
# Bulk Modulus (GPa) = 57.15440 73.97442 65.56441
# Shear Modulus (GPa) = 21.40873 30.14177 25.77525
#
# Velocity S-wave (km/s) = 2.97021 3.52432 3.25906
# Velocity P-wave (km/s) = 5.94265 6.85891 6.41716
#
# Compressibility (1/GPa) = 0.01749647
#
# Stress axis : x y z
#
# Youngs Moduli (GPa) = 161.97379 106.64349 78.22436
#
# Poissons Ratio (x) = 0.32572 0.18387
# Poissons Ratio (y) = 0.49471 0.00111
# Poissons Ratio (z) = 0.38073 0.00152
#
# Static dielectric constant tensor:
#      x y z
#    x 1.978690 0.000000 0.000000 
#    y 0.000000 1.916470 0.000000 
#    z 0.000000 0.000000 1.258220 
# 
# From -- ./inp_files/59454.got.cif
#   From: 2010.05.17/outbox.cif.g08.bks.cpg/sg74_30_cif.got.tgz:59454.got - 2010.06.03 17:57:02.
