data_PCOD9539080
_publ_section_title
;
Structure prediction by ZEFSAII (Michael W. Deem and Ramdas Pophale) SiO2 
 PCOD9539080
Probable space group: I M M A
;
_chemical_formula_sum "Si O2"
_cell_formula_units_Z 96
_cell_length_a 22.453914
_cell_length_b 13.933269
_cell_length_c 15.048009
_cell_angle_alpha 90.000000
_cell_angle_beta 90.000000
_cell_angle_gamma 90.000000
_cell_volume 4707.866282
_symmetry_space_group_name_H-M "I M M A"
_symmetry_group_IT_number 74
_symmetry_cell_setting 'orthorhombic'
loop_
_space_group_symop_operation_xyz
x,y,z
-x,1/2-y,z
x,-y,-z
-x,1/2+y,-z
-x,-y,-z
x,1/2+y,-z
-x,y,z
x,1/2-y,z
1/2+x,1/2+y,1/2+z
1/2-x,-y,1/2+z
1/2+x,1/2-y,1/2-z
1/2-x,y,1/2-z
1/2-x,1/2-y,1/2-z
1/2+x,y,1/2-z
1/2-x,1/2+y,1/2+z
1/2+x,-y,1/2+z
loop_
_atom_site_type_symbol
_atom_site_label
_atom_site_fract_x
_atom_site_fract_y
_atom_site_fract_z
Si Si1 0.931982 0.496655 0.818215
Si Si2 0.831880 0.640479 0.857434
Si Si3 0.744133 0.520119 0.105077
Si Si4 0.571540 0.357787 0.041674
Si Si5 0.612770 0.049753 0.863100
Si Si6 0.141890 0.640885 0.068332
O O1 0.886293 0.585545 0.811039
O O2 0.922260 0.437076 0.727855
O O3 0.909424 0.430086 0.898579
O O4 0.000000 0.526626 0.828017
O O5 0.823974 0.750000 0.829157
O O6 0.772510 0.576056 0.853595
O O7 0.849816 0.638928 0.962175
O O8 0.683618 0.554270 0.149523
O O9 0.796739 0.598095 0.107279
O O10 0.731107 0.500000 0.000000
O O11 0.500000 0.365715 0.045849
O O12 0.589064 0.250000 0.068071
O O13 0.598528 0.442547 0.100726
O O14 0.592283 0.379571 0.941218
O O15 0.131458 0.750000 0.096092
#
# Coordination Sequence:
#
# PCOD9539080 Si02
#       6
#    16  16  16  16  16  16
#     4  11  23  37  56  82 115 150 191 236 282 333
#     4   9  20  38  59  83 113 146 185 234 286 339
#     4   9  17  35  58  84 111 145 183 228 279 342
#     4  10  21  37  56  79 111 154 199 233 270 326
#     4  11  21  37  57  84 115 151 186 234 283 329
#     4   9  20  38  59  83 113 146 185 234 286 339
#
# _framework density 20.391404000000001
#
# number of rings (size 3 to 8) (size 9 to 14) (size 15 to 20)
#    0.000    2.167    1.667    3.500    0.000    7.333 
#    0.000    3.333    0.000    0.000    0.000    0.000 
#    0.000    0.000    0.000    0.000    0.000    0.000 
#
# Total GULP energy -268140.025204 kJ/mol
# GULP energy per Si atom -5586.250525 kJ/mol
# Density = 2.034499 g / cm^3
# Si number density = 20.391404 Si / 1000 Ang^3
#
#
#
# Elastic Constant Matrix: (Units=GPa)
#
#
# Indices 1 2 3 4 5 6 
#
# 1 82.1154 -6.5217 -2.9119 0.0000 0.0000 0.0000
# 2 -6.5217 53.1655 -5.7308 0.0000 0.0000 0.0000
# 3 -2.9119 -5.7308 37.9662 0.0000 0.0000 0.0000
# 4 0.0000 0.0000 0.0000 6.9103 0.0000 0.0000
# 5 0.0000 0.0000 0.0000 0.0000 15.3396 0.0000
# 6 0.0000 0.0000 0.0000 0.0000 0.0000 9.5840
#
#
#
# Elastic Compliance Matrix: (Units=1/GPa)
#
#
# Indices 1 2 3 4 5 6 
#
# 1 0.012351 0.001644 0.001195 0.000000 0.000000 0.000000
# 2 0.001644 0.019339 0.003045 0.000000 0.000000 0.000000
# 3 0.001195 0.003045 0.026891 0.000000 0.000000 0.000000
# 4 0.000000 0.000000 0.000000 0.144711 0.000000 0.000000
# 5 0.000000 0.000000 0.000000 0.000000 0.065191 0.000000
# 6 0.000000 0.000000 0.000000 0.000000 0.000000 0.104341
#
#
# Mechanical properties :
#
#
# Convention : Reuss Voigt Hill
#
# Bulk Modulus (GPa) = 14.21473 15.87984 15.04729
# Shear Modulus (GPa) = 13.00378 18.92754 15.96566
#
# Velocity S-wave (km/s) = 2.52803 3.04996 2.80118
# Velocity P-wave (km/s) = 3.93793 4.49527 4.22580
#
# Compressibility (1/GPa) = 0.07034955
#
# Stress axis : x y z
#
# Youngs Moduli (GPa) = 80.96553 51.70875 37.18783
#
# Poissons Ratio (x) = -0.08500 -0.04445
# Poissons Ratio (y) = -0.13310 -0.11324
# Poissons Ratio (z) = -0.09679 -0.15746
#
# Static dielectric constant tensor:
#      x y z
#    x 1.691020 0.000000 0.000000 
#    y 0.000000 1.713720 0.000000 
#    z 0.000000 0.000000 1.766510 
# 
# From -- ./inp_files/35273.got.cif
#   From: 2010.05.17/outbox.cif.g08.bks.cpg/sg74_18_cif.got.tgz:35273.got - 2010.06.03 17:57:02.
