data_PCOD9539796
_publ_section_title
;
Structure prediction by ZEFSAII (Michael W. Deem and Ramdas Pophale) SiO2 
 PCOD9539796
Probable space group: I M M A
;
_chemical_formula_sum "Si O2"
_cell_formula_units_Z 116
_cell_length_a 16.848658
_cell_length_b 27.058163
_cell_length_c 10.286138
_cell_angle_alpha 90.000000
_cell_angle_beta 90.000000
_cell_angle_gamma 90.000000
_cell_volume 4689.385866
_symmetry_space_group_name_H-M "I M M A"
_symmetry_group_IT_number 74
_symmetry_cell_setting 'orthorhombic'
loop_
_space_group_symop_operation_xyz
x,y,z
-x,1/2-y,z
x,-y,-z
-x,1/2+y,-z
-x,-y,-z
x,1/2+y,-z
-x,y,z
x,1/2-y,z
1/2+x,1/2+y,1/2+z
1/2-x,-y,1/2+z
1/2+x,1/2-y,1/2-z
1/2-x,y,1/2-z
1/2-x,1/2-y,1/2-z
1/2+x,y,1/2-z
1/2-x,1/2+y,1/2+z
1/2+x,-y,1/2+z
loop_
_atom_site_type_symbol
_atom_site_label
_atom_site_fract_x
_atom_site_fract_y
_atom_site_fract_z
Si Si1 0.085874 0.035561 0.177696
Si Si2 0.365353 0.306523 0.138835
Si Si3 0.500000 0.750000 0.239911
Si Si4 0.843174 0.675311 0.214428
Si Si5 0.108112 0.406236 0.443771
Si Si6 0.677876 0.693007 0.578941
Si Si7 0.741355 0.544854 0.594717
Si Si8 0.587793 0.073345 0.773000
O O1 0.084412 0.064867 0.313832
O O2 0.150027 0.057503 0.081505
O O3 0.000000 0.037157 0.118858
O O4 0.108625 0.978799 0.208892
O O5 0.395255 0.250000 0.128874
O O6 0.410955 0.348385 0.059509
O O7 0.361548 0.325778 0.287952
O O8 0.273080 0.305040 0.096732
O O9 0.423578 0.792858 0.243854
O O10 0.750000 0.691949 0.250000
O O11 0.853760 0.619281 0.261997
O O12 0.845287 0.672166 0.058630
O O13 0.203324 0.409980 0.438714
O O14 0.082198 0.434152 0.571684
O O15 0.651224 0.750000 0.574259
O O16 0.762507 0.500000 0.500000
O O17 0.750000 0.534551 0.750000
O O18 0.500000 0.087274 0.724958
#
# Coordination Sequence:
#
# PCOD9539796 Si02
#       8
#    16  16   4  16  16  16  16  16
#     4  10  23  42  66  94 141 186 232 294 371 440
#     4   9  20  38  64 102 133 173 240 299 358 429
#     4  12  26  48  72 104 156 192 254 296 356 456
#     4  12  25  45  75 107 146 195 244 298 371 430
#     4  11  21  39  70  99 133 184 234 296 365 432
#     4   9  19  37  65  96 133 182 231 288 358 433
#     4  10  22  39  66  99 133 173 235 295 349 438
#     4  11  24  45  69 106 143 187 242 302 361 440
#
# _framework density 24.736715
#
# number of rings (size 3 to 8) (size 9 to 14) (size 15 to 20)
#    0.000    1.655    1.379    4.345    5.793    5.241 
#    1.241    0.000    3.034    1.241    0.000    3.862 
#    0.000    0.000    0.000    0.000    0.000    0.000 
#
# Total GULP energy -323241.296473 kJ/mol
# GULP energy per Si atom -5573.125801 kJ/mol
# Density = 2.468041 g / cm^3
# Si number density = 24.736715 Si / 1000 Ang^3
#
#
#
# Elastic Constant Matrix: (Units=GPa)
#
#
# Indices 1 2 3 4 5 6 
#
# 1 167.1134 46.4149 2.7331 0.0000 -0.0001 0.0000
# 2 46.4149 101.3943 3.5577 0.0001 -0.0001 0.0000
# 3 2.7331 3.5577 77.6464 0.0017 0.0000 0.0001
# 4 0.0000 0.0001 0.0017 24.5437 0.0000 0.0000
# 5 -0.0001 -0.0001 0.0000 0.0000 -4.0088 0.0000
# 6 0.0000 0.0000 0.0001 0.0000 0.0000 10.0539
#
#
#
# Elastic Compliance Matrix: (Units=1/GPa)
#
#
# Indices 1 2 3 4 5 6 
#
# 1 0.006856 -0.003135 -0.000098 0.000000 0.000000 0.000000
# 2 -0.003135 0.011312 -0.000408 0.000000 0.000000 0.000000
# 3 -0.000098 -0.000408 0.012901 -0.000001 0.000000 0.000000
# 4 0.000000 0.000000 -0.000001 0.040744 0.000000 0.000000
# 5 0.000000 0.000000 0.000000 0.000000 -0.249453 0.000000
# 6 0.000000 0.000000 0.000000 0.000000 0.000000 0.099464
#
#
# Mechanical properties :
#
#
# Convention : Reuss Voigt Hill
#
# Bulk Modulus (GPa) = 42.03849 50.17394 46.10621
# Shear Modulus (GPa) = -79.40801 25.68100 -26.86351
#
# Velocity S-wave (km/s) = -5.67195 3.22557 -3.29899
# Velocity P-wave (km/s) = 5.08560 5.84804 2.04160
#
# Compressibility (1/GPa) = 0.02378772
#
# Stress axis : x y z
#
# Youngs Moduli (GPa) = 145.85047 88.40190 77.51318
#
# Poissons Ratio (x) = 0.27716 0.00757
# Poissons Ratio (y) = 0.45727 0.03162
# Poissons Ratio (z) = 0.01425 0.03606
#
# Static dielectric constant tensor:
#      x y z
#    x 1.848340 0.000000 0.000000 
#    y 0.000000 1.947080 0.000000 
#    z 0.000000 0.000000 2.040340 
# 
# From -- ./inp_files/22817.got.cif
#   From: 2010.05.17/outbox.cif.g08.bks.cpg/sg74_12_cif.got.tgz:22817.got - 2010.06.03 17:57:02.
