data_PCOD9539923
_publ_section_title
;
Structure prediction by ZEFSAII (Michael W. Deem and Ramdas Pophale) SiO2 
 PCOD9539923
Probable space group: I M M A
;
_chemical_formula_sum "Si O2"
_cell_formula_units_Z 112
_cell_length_a 14.907489
_cell_length_b 24.896054
_cell_length_c 14.034248
_cell_angle_alpha 90.000000
_cell_angle_beta 90.000000
_cell_angle_gamma 90.000000
_cell_volume 5208.637838
_symmetry_space_group_name_H-M "I M M A"
_symmetry_group_IT_number 74
_symmetry_cell_setting 'orthorhombic'
loop_
_space_group_symop_operation_xyz
x,y,z
-x,1/2-y,z
x,-y,-z
-x,1/2+y,-z
-x,-y,-z
x,1/2+y,-z
-x,y,z
x,1/2-y,z
1/2+x,1/2+y,1/2+z
1/2-x,-y,1/2+z
1/2+x,1/2-y,1/2-z
1/2-x,y,1/2-z
1/2-x,1/2-y,1/2-z
1/2+x,y,1/2-z
1/2-x,1/2+y,1/2+z
1/2+x,-y,1/2+z
loop_
_atom_site_type_symbol
_atom_site_label
_atom_site_fract_x
_atom_site_fract_y
_atom_site_fract_z
Si Si1 0.103969 0.440242 0.956484
Si Si2 0.397845 0.493552 0.894561
Si Si3 0.401461 0.312767 0.879974
Si Si4 0.898174 0.191417 0.152240
Si Si5 0.752211 0.851984 0.977150
Si Si6 0.841720 0.598892 0.702462
Si Si7 0.351255 0.403650 0.752999
O O1 0.113258 0.432588 0.842167
O O2 0.000000 0.425408 0.981827
O O3 0.117145 0.500000 0.000000
O O4 0.182561 0.401423 0.994443
O O5 0.500000 0.474968 0.907368
O O6 0.396546 0.548156 0.834247
O O7 0.350419 0.447913 0.835629
O O8 0.358189 0.500000 0.000000
O O9 0.500000 0.319820 0.928949
O O10 0.392869 0.250000 0.856314
O O11 0.403552 0.351576 0.788626
O O12 0.315483 0.330343 0.942879
O O13 0.888017 0.250000 0.200988
O O14 0.824533 0.188182 0.069317
O O15 0.883023 0.141316 0.223439
O O16 0.000000 0.188270 0.115872
O O17 0.688026 0.869517 0.891173
O O18 0.750000 0.577381 0.750000
O O19 0.250000 0.384390 0.750000
#
# Coordination Sequence:
#
# PCOD9539923 Si02
#       7
#    16  16  16  16  16  16  16
#     4  11  26  45  69 101 138 183 233 287 353 427
#     4  11  24  40  63  95 132 172 220 281 343 409
#     4  11  25  46  71 100 137 182 236 295 354 422
#     4  10  22  41  66  96 134 180 230 284 344 413
#     4  11  23  42  66  99 136 178 228 290 349 413
#     4  10  23  38  60  91 130 175 223 273 338 408
#     4  12  25  44  71  98 137 183 231 287 353 425
#
# _framework density 21.502742000000001
#
# number of rings (size 3 to 8) (size 9 to 14) (size 15 to 20)
#    0.000    1.143    1.429    3.857    6.000    5.714 
#    0.000    1.429    0.000    3.000    0.000    0.000 
#    0.000    0.000    0.000    0.000    0.000    0.000 
#
# Total GULP energy -312626.356614 kJ/mol
# GULP energy per Si atom -5582.613511 kJ/mol
# Density = 2.145380 g / cm^3
# Si number density = 21.502742 Si / 1000 Ang^3
#
#
#
# Elastic Constant Matrix: (Units=GPa)
#
#
# Indices 1 2 3 4 5 6 
#
# 1 131.3432 57.5863 28.7070 0.0000 0.0000 0.0000
# 2 57.5863 134.4215 55.1201 0.0001 0.0000 0.0000
# 3 28.7070 55.1201 101.3511 0.0002 0.0000 0.0000
# 4 0.0000 0.0001 0.0002 21.8252 0.0000 0.0000
# 5 0.0000 0.0000 0.0000 0.0000 23.8141 0.0000
# 6 0.0000 0.0000 0.0000 0.0000 0.0000 27.7795
#
#
#
# Elastic Compliance Matrix: (Units=1/GPa)
#
#
# Indices 1 2 3 4 5 6 
#
# 1 0.009403 -0.003779 -0.000608 0.000000 0.000000 0.000000
# 2 -0.003779 0.011093 -0.004963 0.000000 0.000000 0.000000
# 3 -0.000608 -0.004963 0.012738 0.000000 0.000000 0.000000
# 4 0.000000 0.000000 0.000000 0.045819 0.000000 0.000000
# 5 0.000000 0.000000 0.000000 0.000000 0.041992 0.000000
# 6 0.000000 0.000000 0.000000 0.000000 0.000000 0.035998
#
#
# Mechanical properties :
#
#
# Convention : Reuss Voigt Hill
#
# Bulk Modulus (GPa) = 68.80086 72.21585 70.50835
# Shear Modulus (GPa) = 27.68737 29.73059 28.70898
#
# Velocity S-wave (km/s) = 3.59224 3.72242 3.65791
# Velocity P-wave (km/s) = 7.01935 7.22029 7.12053
#
# Compressibility (1/GPa) = 0.01453470
#
# Stress axis : x y z
#
# Youngs Moduli (GPa) = 106.34370 90.14528 78.50571
#
# Poissons Ratio (x) = 0.34066 0.04775
# Poissons Ratio (y) = 0.40188 0.38960
# Poissons Ratio (z) = 0.06468 0.44736
#
# Static dielectric constant tensor:
#      x y z
#    x 1.789230 0.000000 0.000000 
#    y 0.000000 1.797350 0.000000 
#    z 0.000000 0.000000 1.822150 
# 
# From -- ./inp_files/32698.got.cif
#   From: 2010.05.17/outbox.cif.g08.bks.cpg/sg74_17_cif.got.tgz:32698.got - 2010.06.03 17:57:02.
