data_PCOD9539389
_publ_section_title
;
Structure prediction by ZEFSAII (Michael W. Deem and Ramdas Pophale) SiO2 
 PCOD9539389
Probable space group: I M M A
;
_chemical_formula_sum "Si O2"
_cell_formula_units_Z 48
_cell_length_a 8.519187
_cell_length_b 19.698682
_cell_length_c 11.748580
_cell_angle_alpha 90.000000
_cell_angle_beta 90.000000
_cell_angle_gamma 90.000000
_cell_volume 1971.608579
_symmetry_space_group_name_H-M "I M M A"
_symmetry_group_IT_number 74
_symmetry_cell_setting 'orthorhombic'
loop_
_space_group_symop_operation_xyz
x,y,z
-x,1/2-y,z
x,-y,-z
-x,1/2+y,-z
-x,-y,-z
x,1/2+y,-z
-x,y,z
x,1/2-y,z
1/2+x,1/2+y,1/2+z
1/2-x,-y,1/2+z
1/2+x,1/2-y,1/2-z
1/2-x,y,1/2-z
1/2-x,1/2-y,1/2-z
1/2+x,y,1/2-z
1/2-x,1/2+y,1/2+z
1/2+x,-y,1/2+z
loop_
_atom_site_type_symbol
_atom_site_label
_atom_site_fract_x
_atom_site_fract_y
_atom_site_fract_z
Si Si1 0.315820 0.027636 0.873075
Si Si2 0.674952 0.169805 0.137308
Si Si3 0.181218 0.172725 0.902280
O O1 0.500000 0.014887 0.872321
O O2 0.250000 0.002703 0.750000
O O3 0.283385 0.108657 0.866647
O O4 0.257577 0.000000 0.000000
O O5 0.500000 0.142847 0.108731
O O6 0.654028 0.250000 0.155415
O O7 0.750000 0.140496 0.250000
O O8 0.800648 0.165715 0.037762
O O9 0.235856 0.250000 0.874925
O O10 0.000000 0.166136 0.867158
#
# Coordination Sequence:
#
# PCOD9539389 Si02
#       3
#    16  16  16
#     4  11  26  48  74 104 139 184 237 291 351 419
#     4   9  16  27  46  76 118 167 217 270 329 395
#     4  10  21  38  63  97 136 178 225 281 347 415
#
# _framework density 24.345604000000002
#
# number of rings (size 3 to 8) (size 9 to 14) (size 15 to 20)
#    0.000    2.000    0.000    3.000    0.000   10.667 
#    0.000    3.333    0.000    0.000    0.000    0.000 
#    0.000    0.000    0.000    0.000    0.000    0.000 
#
# Total GULP energy -133749.807927 kJ/mol
# GULP energy per Si atom -5572.908664 kJ/mol
# Density = 2.429019 g / cm^3
# Si number density = 24.345604 Si / 1000 Ang^3
#
#
#
# Elastic Constant Matrix: (Units=GPa)
#
#
# Indices 1 2 3 4 5 6 
#
# 1 76.3104 24.8696 28.0136 0.0000 0.0000 0.0000
# 2 24.8696 184.2322 28.4912 0.0000 0.0000 0.0000
# 3 28.0136 28.4912 195.4758 0.0000 0.0000 0.0000
# 4 0.0000 0.0000 0.0000 -19.4566 0.0000 0.0000
# 5 0.0000 0.0000 0.0000 0.0000 28.8787 0.0000
# 6 0.0000 0.0000 0.0000 0.0000 0.0000 78.4948
#
#
#
# Elastic Compliance Matrix: (Units=1/GPa)
#
#
# Indices 1 2 3 4 5 6 
#
# 1 0.014307 -0.001651 -0.001810 0.000000 0.000000 0.000000
# 2 -0.001651 0.005744 -0.000601 0.000000 0.000000 0.000000
# 3 -0.001810 -0.000601 0.005463 0.000000 0.000000 0.000000
# 4 0.000000 0.000000 0.000000 -0.051397 0.000000 0.000000
# 5 0.000000 0.000000 0.000000 0.000000 0.034628 0.000000
# 6 0.000000 0.000000 0.000000 0.000000 0.000000 0.012740
#
#
# Mechanical properties :
#
#
# Convention : Reuss Voigt Hill
#
# Bulk Modulus (GPa) = 57.50400 68.75190 63.12795
# Shear Modulus (GPa) = 141.22809 42.55967 91.89388
#
# Velocity S-wave (km/s) = 7.62467 4.18562 6.15041
# Velocity P-wave (km/s) = 10.05909 7.18752 8.74202
#
# Compressibility (1/GPa) = 0.01739010
#
# Stress axis : x y z
#
# Youngs Moduli (GPa) = 69.89643 174.10297 183.06361
#
# Poissons Ratio (x) = 0.28752 0.33127
# Poissons Ratio (y) = 0.11543 0.10993
# Poissons Ratio (z) = 0.12649 0.10455
#
# Static dielectric constant tensor:
#      x y z
#    x 1.923360 0.000000 0.000000 
#    y 0.000000 1.984300 0.000000 
#    z 0.000000 0.000000 2.092740 
# 
# From -- ./inp_files/17048.got.cif
#   From: 2010.05.17/outbox.cif.g08.bks.cpg/sg74_9_cif.got.tgz:17048.got - 2010.06.03 17:57:02.
