data_PCOD9539257
_publ_section_title
;
Structure prediction by ZEFSAII (Michael W. Deem and Ramdas Pophale) SiO2 
 PCOD9539257
Probable space group: I M M A
;
_chemical_formula_sum "Si O2"
_cell_formula_units_Z 96
_cell_length_a 8.524431
_cell_length_b 21.039731
_cell_length_c 23.995171
_cell_angle_alpha 90.000000
_cell_angle_beta 90.000000
_cell_angle_gamma 90.000000
_cell_volume 4303.575555
_symmetry_space_group_name_H-M "I M M A"
_symmetry_group_IT_number 74
_symmetry_cell_setting 'orthorhombic'
loop_
_space_group_symop_operation_xyz
x,y,z
-x,1/2-y,z
x,-y,-z
-x,1/2+y,-z
-x,-y,-z
x,1/2+y,-z
-x,y,z
x,1/2-y,z
1/2+x,1/2+y,1/2+z
1/2-x,-y,1/2+z
1/2+x,1/2-y,1/2-z
1/2-x,y,1/2-z
1/2-x,1/2-y,1/2-z
1/2+x,y,1/2-z
1/2-x,1/2+y,1/2+z
1/2+x,-y,1/2+z
loop_
_atom_site_type_symbol
_atom_site_label
_atom_site_fract_x
_atom_site_fract_y
_atom_site_fract_z
Si Si1 0.182623 0.451136 0.808543
Si Si2 0.316559 0.321104 0.841040
Si Si3 0.820332 0.018692 0.576630
Si Si4 0.816540 0.870459 0.572057
Si Si5 0.313100 0.674768 0.690229
Si Si6 0.680226 0.647263 0.457328
O O1 0.250000 0.472580 0.750000
O O2 0.208655 0.375104 0.814308
O O3 0.287556 0.479129 0.857661
O O4 0.000000 0.466653 0.815499
O O5 0.500000 0.335957 0.830775
O O6 0.282892 0.250000 0.821490
O O7 0.284379 0.324145 0.907600
O O8 0.704438 0.071312 0.551982
O O9 0.000000 0.037909 0.564052
O O10 0.799776 0.945900 0.560580
O O11 0.752163 0.855649 0.633505
O O12 0.731580 0.836913 0.520053
O O13 0.000000 0.854658 0.570729
O O14 0.500000 0.668003 0.690321
O O15 0.272953 0.750000 0.687651
O O16 0.250000 0.650398 0.750000
O O17 0.500000 0.664406 0.448111
#
# Coordination Sequence:
#
# PCOD9539257 Si02
#       6
#    16  16  16  16  16  16
#     4  11  22  37  58  82 112 149 188 233 282 332
#     4  10  21  38  59  82 111 148 189 234 283 333
#     4  10  21  38  58  82 114 149 187 231 280 332
#     4  11  23  38  60  87 114 149 189 229 274 330
#     4  10  22  41  63  86 114 147 183 228 280 332
#     4  11  22  36  57  84 116 151 186 230 281 332
#
# _framework density 22.307033000000001
#
# number of rings (size 3 to 8) (size 9 to 14) (size 15 to 20)
#    0.000    1.500    0.000    7.500    0.000    8.667 
#    0.000    0.000    0.000    0.000    0.000    0.000 
#    0.000    0.000    0.000    0.000    0.000    0.000 
#
# Total GULP energy -268431.816823 kJ/mol
# GULP energy per Si atom -5592.329517 kJ/mol
# Density = 2.225626 g / cm^3
# Si number density = 22.307033 Si / 1000 Ang^3
#
#
#
# Elastic Constant Matrix: (Units=GPa)
#
#
# Indices 1 2 3 4 5 6 
#
# 1 32.1636 14.7374 -6.9209 0.0000 0.0000 0.0000
# 2 14.7374 21.8645 -14.3041 0.0000 0.0000 0.0000
# 3 -6.9209 -14.3041 116.5735 0.0000 0.0000 0.0000
# 4 0.0000 0.0000 0.0000 -17.8622 0.0000 0.0000
# 5 0.0000 0.0000 0.0000 0.0000 35.6956 0.0000
# 6 0.0000 0.0000 0.0000 0.0000 0.0000 13.2791
#
#
#
# Elastic Compliance Matrix: (Units=1/GPa)
#
#
# Indices 1 2 3 4 5 6 
#
# 1 0.045124 -0.031164 -0.001145 0.000000 0.000000 0.000000
# 2 -0.031164 0.071252 0.006893 0.000000 0.000000 0.000000
# 3 -0.001145 0.006893 0.009356 0.000000 0.000000 0.000000
# 4 0.000000 0.000000 0.000000 -0.055984 0.000000 0.000000
# 5 0.000000 0.000000 0.000000 0.000000 0.028015 0.000000
# 6 0.000000 0.000000 0.000000 0.000000 0.000000 0.075306
#
#
# Mechanical properties :
#
#
# Convention : Reuss Voigt Hill
#
# Bulk Modulus (GPa) = 13.35142 17.51402 15.43272
# Shear Modulus (GPa) = 20.09095 18.02845 19.05970
#
# Velocity S-wave (km/s) = 3.00435 2.84596 2.92623
# Velocity P-wave (km/s) = 4.24654 4.32062 4.28374
#
# Compressibility (1/GPa) = 0.07489841
#
# Stress axis : x y z
#
# Youngs Moduli (GPa) = 22.16102 14.03478 106.88251
#
# Poissons Ratio (x) = 0.43739 0.12238
# Poissons Ratio (y) = 0.69064 -0.73671
# Poissons Ratio (z) = 0.02537 -0.09674
#
# Static dielectric constant tensor:
#      x y z
#    x 1.742170 0.000000 0.000000 
#    y 0.000000 1.861530 0.000000 
#    z 0.000000 0.000000 1.856980 
# 
# From -- ./inp_files/57248.got.cif
#   From: 2010.05.17/outbox.cif.g08.bks.cpg/sg74_29_cif.got.tgz:57248.got - 2010.06.03 17:57:02.
