data_PCOD9539621
_publ_section_title
;
Structure prediction by ZEFSAII (Michael W. Deem and Ramdas Pophale) SiO2 
 PCOD9539621
Probable space group: I M M A
;
_chemical_formula_sum "Si O2"
_cell_formula_units_Z 112
_cell_length_a 13.830663
_cell_length_b 29.679175
_cell_length_c 12.430790
_cell_angle_alpha 90.000000
_cell_angle_beta 90.000000
_cell_angle_gamma 90.000000
_cell_volume 5102.623839
_symmetry_space_group_name_H-M "I M M A"
_symmetry_group_IT_number 74
_symmetry_cell_setting 'orthorhombic'
loop_
_space_group_symop_operation_xyz
x,y,z
-x,1/2-y,z
x,-y,-z
-x,1/2+y,-z
-x,-y,-z
x,1/2+y,-z
-x,y,z
x,1/2-y,z
1/2+x,1/2+y,1/2+z
1/2-x,-y,1/2+z
1/2+x,1/2-y,1/2-z
1/2-x,y,1/2-z
1/2-x,1/2-y,1/2-z
1/2+x,y,1/2-z
1/2-x,1/2+y,1/2+z
1/2+x,-y,1/2+z
loop_
_atom_site_type_symbol
_atom_site_label
_atom_site_fract_x
_atom_site_fract_y
_atom_site_fract_z
Si Si1 0.824124 0.550508 0.353062
Si Si2 0.883141 0.199724 0.823023
Si Si3 0.114808 0.954061 0.592469
Si Si4 0.886117 0.848799 0.385650
Si Si5 0.614210 0.874305 0.752312
Si Si6 0.308362 0.699362 0.904774
Si Si7 0.613034 0.666780 0.543993
O O1 0.750000 0.548543 0.250000
O O2 0.815851 0.549781 0.486983
O O3 0.879892 0.502699 0.349754
O O4 0.869666 0.600279 0.345732
O O5 0.849235 0.250000 0.852351
O O6 0.848567 0.184049 0.707548
O O7 0.000000 0.202036 0.814899
O O8 0.865947 0.163578 0.917295
O O9 0.146151 0.916750 0.678485
O O10 0.000000 0.946983 0.560390
O O11 0.840574 0.832398 0.496408
O O12 0.000000 0.842769 0.399348
O O13 0.500000 0.871740 0.768344
O O14 0.657063 0.828939 0.802697
O O15 0.629652 0.875119 0.623919
O O16 0.348143 0.750000 0.909577
O O17 0.192677 0.701340 0.914384
O O18 0.500000 0.680147 0.554723
#
# Coordination Sequence:
#
# PCOD9539621 Si02
#       7
#    16  16  16  16  16  16  16
#     4  11  23  38  65 102 132 165 221 277 339 408
#     4   9  19  36  59  85 119 171 222 263 326 402
#     4  10  21  45  73  97 133 183 229 278 346 420
#     4  11  23  41  63  92 132 173 220 284 347 407
#     4  10  22  42  69  97 129 173 226 282 338 402
#     4  12  25  38  61  95 128 168 227 288 339 398
#     4  10  23  42  61  87 128 178 227 273 333 409
#
# _framework density 21.949491999999999
#
# number of rings (size 3 to 8) (size 9 to 14) (size 15 to 20)
#    0.000    1.571    1.429    3.429    2.000    5.429 
#    0.000    4.286    0.000    0.000    0.000   19.000 
#    0.000    0.000    0.000    0.000    0.000    0.000 
#
# Total GULP energy -311755.168689 kJ/mol
# GULP energy per Si atom -5567.056584 kJ/mol
# Density = 2.189953 g / cm^3
# Si number density = 21.949492 Si / 1000 Ang^3
#
#
#
# Elastic Constant Matrix: (Units=GPa)
#
#
# Indices 1 2 3 4 5 6 
#
# 1 70.8137 10.6715 28.2926 0.0000 0.0000 0.0000
# 2 10.6715 95.3666 41.3125 -0.0001 0.0000 0.0000
# 3 28.2926 41.3125 168.8534 0.0003 -0.0001 0.0000
# 4 0.0000 -0.0001 0.0003 11.9161 0.0000 0.0000
# 5 0.0000 0.0000 -0.0001 0.0000 29.0005 0.0000
# 6 0.0000 0.0000 0.0000 0.0000 0.0000 21.9777
#
#
#
# Elastic Compliance Matrix: (Units=1/GPa)
#
#
# Indices 1 2 3 4 5 6 
#
# 1 0.015173 -0.000667 -0.002379 0.000000 0.000000 0.000000
# 2 -0.000667 0.011758 -0.002765 0.000000 0.000000 0.000000
# 3 -0.002379 -0.002765 0.006997 0.000000 0.000000 0.000000
# 4 0.000000 0.000000 0.000000 0.083920 0.000000 0.000000
# 5 0.000000 0.000000 0.000000 0.000000 0.034482 0.000000
# 6 0.000000 0.000000 0.000000 0.000000 0.000000 0.045501
#
#
# Mechanical properties :
#
#
# Convention : Reuss Voigt Hill
#
# Bulk Modulus (GPa) = 44.83144 55.06520 49.94832
# Shear Modulus (GPa) = 23.05321 29.56266 26.30794
#
# Velocity S-wave (km/s) = 3.24433 3.67393 3.46579
# Velocity P-wave (km/s) = 5.87396 6.56800 6.23065
#
# Compressibility (1/GPa) = 0.02230577
#
# Stress axis : x y z
#
# Youngs Moduli (GPa) = 65.90817 85.04611 142.90956
#
# Poissons Ratio (x) = 0.05674 0.33999
# Poissons Ratio (y) = 0.04397 0.39515
# Poissons Ratio (z) = 0.15680 0.23516
#
# Static dielectric constant tensor:
#      x y z
#    x 1.858500 0.000000 0.000000 
#    y 0.000000 1.789700 0.000000 
#    z 0.000000 0.000000 1.842530 
# 
# From -- ./inp_files/21103.got.cif
#   From: 2010.05.17/outbox.cif.g08.bks.cpg/sg74_11_cif.got.tgz:21103.got - 2010.06.03 17:57:02.
