data_PCOD9539544
_publ_section_title
;
Structure prediction by ZEFSAII (Michael W. Deem and Ramdas Pophale) SiO2 
 PCOD9539544
Probable space group: I M M A
;
_chemical_formula_sum "Si O2"
_cell_formula_units_Z 96
_cell_length_a 16.979891
_cell_length_b 14.155469
_cell_length_c 21.904763
_cell_angle_alpha 90.000000
_cell_angle_beta 90.000000
_cell_angle_gamma 90.000000
_cell_volume 5264.992049
_symmetry_space_group_name_H-M "I M M A"
_symmetry_group_IT_number 74
_symmetry_cell_setting 'orthorhombic'
loop_
_space_group_symop_operation_xyz
x,y,z
-x,1/2-y,z
x,-y,-z
-x,1/2+y,-z
-x,-y,-z
x,1/2+y,-z
-x,y,z
x,1/2-y,z
1/2+x,1/2+y,1/2+z
1/2-x,-y,1/2+z
1/2+x,1/2-y,1/2-z
1/2-x,y,1/2-z
1/2-x,1/2-y,1/2-z
1/2+x,y,1/2-z
1/2-x,1/2+y,1/2+z
1/2+x,-y,1/2+z
loop_
_atom_site_type_symbol
_atom_site_label
_atom_site_fract_x
_atom_site_fract_y
_atom_site_fract_z
Si Si1 0.406529 0.250000 0.137126
Si Si2 0.500000 0.864078 0.494738
Si Si3 0.000000 0.363306 0.136148
Si Si4 0.859871 0.861958 0.095684
Si Si5 0.143172 0.476966 0.191567
Si Si6 0.673754 0.054019 0.171319
Si Si7 0.407833 0.250000 0.990818
Si Si8 0.812646 0.071931 0.556098
O O1 0.500000 0.250000 0.150945
O O2 0.365120 0.343939 0.162357
O O3 0.396423 0.250000 0.063899
O O4 0.500000 0.750000 0.497200
O O5 0.500000 0.895059 0.564961
O O6 0.577000 0.890778 0.456008
O O7 0.076974 0.404732 0.168936
O O8 0.000000 0.250000 0.138462
O O9 0.868377 0.750000 0.107209
O O10 0.772548 0.885020 0.072135
O O11 0.871663 0.925396 0.155725
O O12 0.230873 0.440502 0.174292
O O13 0.144085 0.487277 0.264407
O O14 0.656015 0.986153 0.114356
O O15 0.500000 0.250000 0.978434
O O16 0.368438 0.342847 0.963095
O O17 0.804605 0.000000 0.500000
#
# Coordination Sequence:
#
# PCOD9539544 Si02
#       8
#     8   8   8  16  16  16   8  16
#     4  11  24  39  65  90 117 162 202 252 325 376
#     4   9  21  37  59  96 125 161 198 246 300 353
#     4  11  25  39  60  96 134 165 207 259 306 371
#     4  10  21  40  65  89 127 165 207 250 302 373
#     4  10  24  41  59  91 124 170 207 248 310 363
#     4  10  24  42  62  89 125 163 207 257 305 377
#     4  11  24  42  63  93 121 155 202 268 325 365
#     4  11  22  41  64  94 121 160 209 260 313 373
#
# _framework density 18.233646
#
# number of rings (size 3 to 8) (size 9 to 14) (size 15 to 20)
#    0.000    1.667    2.500    0.500    8.167    2.333 
#    1.500    1.667    0.000    0.000    0.000    0.000 
#    0.000    0.000    0.000    0.000    0.000    0.000 
#
# Total GULP energy -268171.327886 kJ/mol
# GULP energy per Si atom -5586.902664 kJ/mol
# Density = 1.819214 g / cm^3
# Si number density = 18.233646 Si / 1000 Ang^3
#
#
#
# Elastic Constant Matrix: (Units=GPa)
#
#
# Indices 1 2 3 4 5 6 
#
# 1 64.4065 37.4675 52.6814 0.0000 0.0000 0.0000
# 2 37.4675 110.6826 47.1321 0.0000 0.0000 0.0000
# 3 52.6814 47.1321 120.2449 0.0000 0.0000 0.0000
# 4 0.0000 0.0000 0.0000 5.4082 0.0000 0.0000
# 5 0.0000 0.0000 0.0000 0.0000 23.6028 0.0000
# 6 0.0000 0.0000 0.0000 0.0000 0.0000 19.3411
#
#
#
# Elastic Compliance Matrix: (Units=1/GPa)
#
#
# Indices 1 2 3 4 5 6 
#
# 1 0.026138 -0.004767 -0.009583 0.000000 0.000000 0.000000
# 2 -0.004767 0.011715 -0.002503 0.000000 0.000000 0.000000
# 3 -0.009583 -0.002503 0.013496 0.000000 0.000000 0.000000
# 4 0.000000 0.000000 0.000000 0.184904 0.000000 0.000000
# 5 0.000000 0.000000 0.000000 0.000000 0.042368 0.000000
# 6 0.000000 0.000000 0.000000 0.000000 0.000000 0.051703
#
#
# Mechanical properties :
#
#
# Convention : Reuss Voigt Hill
#
# Bulk Modulus (GPa) = 56.68329 63.32179 60.00254
# Shear Modulus (GPa) = 13.51678 20.20729 16.86203
#
# Velocity S-wave (km/s) = 2.72565 3.33264 3.04431
# Velocity P-wave (km/s) = 6.40783 7.04358 6.73321
#
# Compressibility (1/GPa) = 0.01764188
#
# Stress axis : x y z
#
# Youngs Moduli (GPa) = 38.25836 85.36400 74.09655
#
# Poissons Ratio (x) = 0.40696 0.71006
# Poissons Ratio (y) = 0.18239 0.18547
# Poissons Ratio (z) = 0.36663 0.21367
#
# Static dielectric constant tensor:
#      x y z
#    x 1.606990 0.000000 0.000000 
#    y 0.000000 1.603520 0.000000 
#    z 0.000000 0.000000 1.618160 
# 
# From -- ./inp_files/51981.got.cif
#   From: 2010.05.17/outbox.cif.g08.bks.cpg/sg74_26_cif.got.tgz:51981.got - 2010.06.03 17:57:02.
