data_PCOD9539793
_publ_section_title
;
Structure prediction by ZEFSAII (Michael W. Deem and Ramdas Pophale) SiO2 
 PCOD9539793
Probable space group: I M M A
;
_chemical_formula_sum "Si O2"
_cell_formula_units_Z 60
_cell_length_a 14.684663
_cell_length_b 26.536038
_cell_length_c 6.997264
_cell_angle_alpha 90.000000
_cell_angle_beta 90.000000
_cell_angle_gamma 90.000000
_cell_volume 2726.643283
_symmetry_space_group_name_H-M "I M M A"
_symmetry_group_IT_number 74
_symmetry_cell_setting 'orthorhombic'
loop_
_space_group_symop_operation_xyz
x,y,z
-x,1/2-y,z
x,-y,-z
-x,1/2+y,-z
-x,-y,-z
x,1/2+y,-z
-x,y,z
x,1/2-y,z
1/2+x,1/2+y,1/2+z
1/2-x,-y,1/2+z
1/2+x,1/2-y,1/2-z
1/2-x,y,1/2-z
1/2-x,1/2-y,1/2-z
1/2+x,y,1/2-z
1/2-x,1/2+y,1/2+z
1/2+x,-y,1/2+z
loop_
_atom_site_type_symbol
_atom_site_label
_atom_site_fract_x
_atom_site_fract_y
_atom_site_fract_z
Si Si1 0.500000 0.750000 0.120804
Si Si2 0.607012 0.955140 0.732353
Si Si3 0.669257 0.827868 0.125077
Si Si4 0.605998 0.063685 0.809542
Si Si5 0.250000 0.125550 0.250000
O O1 0.580175 0.793889 0.120673
O O2 0.500000 0.950318 0.678249
O O3 0.674378 0.912125 0.657930
O O4 0.639277 0.012885 0.706102
O O5 0.610514 0.946140 0.962166
O O6 0.750000 0.805089 0.250000
O O7 0.648878 0.882279 0.220738
O O8 0.703513 0.840468 0.911370
O O9 0.500000 0.067012 0.761168
#
# Coordination Sequence:
#
# PCOD9539793 Si02
#       5
#     4  16  16  16   8
#     4  12  26  50  74  86 132 176 220 296 330 366
#     4   8  15  29  55  92 134 166 203 251 314 394
#     4  11  24  44  68  96 128 170 226 272 334 384
#     4   8  14  31  58  88 126 175 204 247 325 388
#     4  10  22  39  66 102 132 165 216 270 326 406
#
# _framework density 22.005078000000001
#
# number of rings (size 3 to 8) (size 9 to 14) (size 15 to 20)
#    0.000    2.667    1.333    2.000    3.733    0.533 
#    2.400    1.333    0.000    3.200    0.000    0.000 
#    0.000    0.000    0.000    0.000    0.000    0.000 
#
# Total GULP energy -167060.135743 kJ/mol
# GULP energy per Si atom -5568.671191 kJ/mol
# Density = 2.195499 g / cm^3
# Si number density = 22.005078 Si / 1000 Ang^3
#
#
#
# Elastic Constant Matrix: (Units=GPa)
#
#
# Indices 1 2 3 4 5 6 
#
# 1 192.6999 104.4920 39.4622 0.0074 0.0000 0.0183
# 2 104.4920 173.5154 51.2477 0.0050 0.0005 0.0045
# 3 39.4622 51.2477 89.6243 0.0862 -0.0050 0.1608
# 4 0.0074 0.0050 0.0862 46.4408 -0.0050 0.9614
# 5 0.0000 0.0005 -0.0050 -0.0050 6.5248 -0.0639
# 6 0.0183 0.0045 0.1608 0.9614 -0.0639-4429.6181
#
#
#
# Elastic Compliance Matrix: (Units=1/GPa)
#
#
# Indices 1 2 3 4 5 6 
#
# 1 0.007765 -0.004411 -0.000897 0.000001 0.000000 0.000000
# 2 -0.004411 0.009440 -0.003456 0.000006 -0.000003 0.000000
# 3 -0.000897 -0.003456 0.013528 -0.000025 0.000011 0.000000
# 4 0.000001 0.000006 -0.000025 0.021533 0.000016 0.000005
# 5 0.000000 -0.000003 0.000011 0.000016 0.153261 -0.000002
# 6 0.000000 0.000000 0.000000 0.000005 -0.000002 -0.000226
#
#
# Mechanical properties :
#
#
# Convention : Reuss Voigt Hill
#
# Bulk Modulus (GPa) = 75.71956 94.02704 84.87330
# Shear Modulus (GPa) = 22.00395 -857.95467 -417.97536
#
# Velocity S-wave (km/s) = 3.16563 -19.76704 -13.79700
# Velocity P-wave (km/s) = 6.91710 21.86684 14.66820
#
# Compressibility (1/GPa) = 0.01320663
#
# Stress axis : x y z
#
# Youngs Moduli (GPa) = 128.78116 105.92784 73.91810
#
# Poissons Ratio (x) = 0.46729 0.06627
# Poissons Ratio (y) = 0.56810 0.25544
# Poissons Ratio (z) = 0.11546 0.36606
#
# Static dielectric constant tensor:
#      x y z
#    x 1.803070 0.000000 0.000000 
#    y 0.000000 1.797920 0.000000 
#    z 0.000000 0.000000 1.876880 
# 
# From -- ./inp_files/9010.got.cif
#   From: 2010.05.17/outbox.cif.g08.bks.cpg/sg74_5_cif.got.tgz:9010.got - 2010.06.03 17:57:02.
