data_PCOD9539413
_publ_section_title
;
Structure prediction by ZEFSAII (Michael W. Deem and Ramdas Pophale) SiO2 
 PCOD9539413
Probable space group: I M M A
;
_chemical_formula_sum "Si O2"
_cell_formula_units_Z 40
_cell_length_a 21.569591
_cell_length_b 7.420251
_cell_length_c 11.036823
_cell_angle_alpha 90.000000
_cell_angle_beta 90.000000
_cell_angle_gamma 90.000000
_cell_volume 1766.463158
_symmetry_space_group_name_H-M "I M M A"
_symmetry_group_IT_number 74
_symmetry_cell_setting 'orthorhombic'
loop_
_space_group_symop_operation_xyz
x,y,z
-x,1/2-y,z
x,-y,-z
-x,1/2+y,-z
-x,-y,-z
x,1/2+y,-z
-x,y,z
x,1/2-y,z
1/2+x,1/2+y,1/2+z
1/2-x,-y,1/2+z
1/2+x,1/2-y,1/2-z
1/2-x,y,1/2-z
1/2-x,1/2-y,1/2-z
1/2+x,y,1/2-z
1/2-x,1/2+y,1/2+z
1/2+x,-y,1/2+z
loop_
_atom_site_type_symbol
_atom_site_label
_atom_site_fract_x
_atom_site_fract_y
_atom_site_fract_z
Si Si1 0.791248 0.750000 0.372618
Si Si2 0.814710 0.250000 0.062828
Si Si3 0.068194 0.750000 0.117393
Si Si4 0.369259 0.546621 0.765283
O O1 0.750000 0.750000 0.250000
O O2 0.746635 0.750000 0.486445
O O3 0.835245 0.575437 0.362800
O O4 0.820576 0.082889 0.154645
O O5 0.876900 0.250000 0.981361
O O6 0.078426 0.575229 0.202237
O O7 0.000000 0.750000 0.062070
O O8 0.387422 0.750000 0.802092
#
# Coordination Sequence:
#
# PCOD9539413 Si02
#       4
#     8   8   8  16
#     4  11  20  36  55  77 115 153 188 232 287 325
#     4  10  21  39  53  81 121 148 188 234 274 335
#     4  11  21  36  55  76 115 159 192 228 267 331
#     4   9  22  38  52  83 116 150 192 227 277 340
#
# _framework density 22.644117999999999
#
# number of rings (size 3 to 8) (size 9 to 14) (size 15 to 20)
#    1.200    0.800    4.000    1.200    0.000    4.800 
#    7.200    0.000    0.000    0.000    0.000    0.000 
#    0.000   25.600    0.000    0.000    0.000    0.000 
#
# Total GULP energy -111750.739806 kJ/mol
# GULP energy per Si atom -5587.536990 kJ/mol
# Density = 2.259258 g / cm^3
# Si number density = 22.644118 Si / 1000 Ang^3
#
#
#
# Elastic Constant Matrix: (Units=GPa)
#
#
# Indices 1 2 3 4 5 6 
#
# 1 79.7659 42.6582 44.9088 0.0000 0.0000 0.0000
# 2 42.6582 192.0407 31.7328 0.0000 0.0000 0.0000
# 3 44.9088 31.7328 57.9347 0.0000 0.0000 0.0000
# 4 0.0000 0.0000 0.0000 14.8148 0.0000 0.0000
# 5 0.0000 0.0000 0.0000 0.0000 13.5490 0.0000
# 6 0.0000 0.0000 0.0000 0.0000 0.0000 4.3880
#
#
#
# Elastic Compliance Matrix: (Units=1/GPa)
#
#
# Indices 1 2 3 4 5 6 
#
# 1 0.023209 -0.002400 -0.016676 0.000000 0.000000 0.000000
# 2 -0.002400 0.005974 -0.001412 0.000000 0.000000 0.000000
# 3 -0.016676 -0.001412 0.030961 0.000000 0.000000 0.000000
# 4 0.000000 0.000000 0.000000 0.067500 0.000000 0.000000
# 5 0.000000 0.000000 0.000000 0.000000 0.073806 0.000000
# 6 0.000000 0.000000 0.000000 0.000000 0.000000 0.227896
#
#
# Mechanical properties :
#
#
# Convention : Reuss Voigt Hill
#
# Bulk Modulus (GPa) = 52.17066 63.14901 57.65983
# Shear Modulus (GPa) = 10.48855 20.57978 15.53417
#
# Velocity S-wave (km/s) = 2.15452 3.01796 2.62203
# Velocity P-wave (km/s) = 5.41098 6.33184 5.88944
#
# Compressibility (1/GPa) = 0.01916786
#
# Stress axis : x y z
#
# Youngs Moduli (GPa) = 43.08692 167.40400 32.29896
#
# Poissons Ratio (x) = 0.40174 0.53862
# Poissons Ratio (y) = 0.10340 0.04560
# Poissons Ratio (z) = 0.71852 0.23632
#
# Static dielectric constant tensor:
#      x y z
#    x 1.795210 0.000000 0.000000 
#    y 0.000000 1.928850 0.000000 
#    z 0.000000 0.000000 1.849420 
# 
# From -- ./inp_files/16966.got.cif
#   From: 2010.05.17/outbox.cif.g08.bks.cpg/sg74_9_cif.got.tgz:16966.got - 2010.06.03 17:57:02.
