data_PCOD9539782
_publ_section_title
;
Structure prediction by ZEFSAII (Michael W. Deem and Ramdas Pophale) SiO2 
 PCOD9539782
Probable space group: I M M A
;
_chemical_formula_sum "Si O2"
_cell_formula_units_Z 52
_cell_length_a 18.172658
_cell_length_b 14.811461
_cell_length_c 9.995921
_cell_angle_alpha 90.000000
_cell_angle_beta 90.000000
_cell_angle_gamma 90.000000
_cell_volume 2690.538234
_symmetry_space_group_name_H-M "I M M A"
_symmetry_group_IT_number 74
_symmetry_cell_setting 'orthorhombic'
loop_
_space_group_symop_operation_xyz
x,y,z
-x,1/2-y,z
x,-y,-z
-x,1/2+y,-z
-x,-y,-z
x,1/2+y,-z
-x,y,z
x,1/2-y,z
1/2+x,1/2+y,1/2+z
1/2-x,-y,1/2+z
1/2+x,1/2-y,1/2-z
1/2-x,y,1/2-z
1/2-x,1/2-y,1/2-z
1/2+x,y,1/2-z
1/2-x,1/2+y,1/2+z
1/2+x,-y,1/2+z
loop_
_atom_site_type_symbol
_atom_site_label
_atom_site_fract_x
_atom_site_fract_y
_atom_site_fract_z
Si Si1 0.917471 0.250000 0.987659
Si Si2 0.000000 0.109782 0.491853
Si Si3 0.344784 0.084328 0.103176
Si Si4 0.000000 0.250000 0.725668
Si Si5 0.818620 0.410971 0.088885
O O1 0.874584 0.337337 0.035552
O O2 0.000000 0.250000 0.045084
O O3 0.931101 0.250000 0.827554
O O4 0.077694 0.133954 0.421911
O O5 0.000000 0.161752 0.632740
O O6 0.000000 0.000000 0.500000
O O7 0.264682 0.128757 0.080803
O O8 0.339562 0.060862 0.259915
O O9 0.345350 0.000000 0.000000
O O10 0.821036 0.500000 0.000000
#
# Coordination Sequence:
#
# PCOD9539782 Si02
#       5
#     8   8  16   4  16
#     4  10  26  41  63  95 127 167 222 266 318 374
#     4  10  22  39  64  90 135 169 203 267 324 375
#     4   9  21  39  67  98 128 168 218 256 330 385
#     4  10  26  44  58 104 132 158 230 262 312 404
#     4  10  22  42  68  94 132 169 217 267 319 386
#
# _framework density 19.326988
#
# number of rings (size 3 to 8) (size 9 to 14) (size 15 to 20)
#    0.462    1.846    0.000    0.000   10.769    5.538 
#    0.000    1.538    0.000    0.000    0.000    0.000 
#    0.000    0.000    0.000    0.000    0.000    0.000 
#
# Total GULP energy -144746.094403 kJ/mol
# GULP energy per Si atom -5567.157477 kJ/mol
# Density = 1.928300 g / cm^3
# Si number density = 19.326988 Si / 1000 Ang^3
#
#
#
# Elastic Constant Matrix: (Units=GPa)
#
#
# Indices 1 2 3 4 5 6 
#
# 1 203.5035 50.0304 74.8194 0.0000 0.0000 0.0000
# 2 50.0304 91.7095 48.5732 0.0000 0.0000 0.0000
# 3 74.8194 48.5732 147.7822 0.0000 0.0000 0.0000
# 4 0.0000 0.0000 0.0000 31.7777 0.0000 0.0000
# 5 0.0000 0.0000 0.0000 0.0000 32.0818 0.0000
# 6 0.0000 0.0000 0.0000 0.0000 0.0000 -2.9597
#
#
#
# Elastic Compliance Matrix: (Units=1/GPa)
#
#
# Indices 1 2 3 4 5 6 
#
# 1 0.006366 -0.002138 -0.002520 0.000000 0.000000 0.000000
# 2 -0.002138 0.013920 -0.003493 0.000000 0.000000 0.000000
# 3 -0.002520 -0.003493 0.009191 0.000000 0.000000 0.000000
# 4 0.000000 0.000000 0.000000 0.031469 0.000000 0.000000
# 5 0.000000 0.000000 0.000000 0.000000 0.031170 0.000000
# 6 0.000000 0.000000 0.000000 0.000000 0.000000 -0.337869
#
#
# Mechanical properties :
#
#
# Convention : Reuss Voigt Hill
#
# Bulk Modulus (GPa) = 75.90303 87.76013 81.83158
# Shear Modulus (GPa) = -22.21647 30.15144 3.96748
#
# Velocity S-wave (km/s) = -3.39411 3.95406 1.43432
# Velocity P-wave (km/s) = 4.89881 8.14572 6.72127
#
# Compressibility (1/GPa) = 0.01317470
#
# Stress axis : x y z
#
# Youngs Moduli (GPa) = 157.08022 71.83715 108.80493
#
# Poissons Ratio (x) = 0.15359 0.27422
# Poissons Ratio (y) = 0.33585 0.38004
# Poissons Ratio (z) = 0.39589 0.25092
#
# Static dielectric constant tensor:
#      x y z
#    x 1.724550 0.000000 0.000000 
#    y 0.000000 -0.581810 0.000000 
#    z 0.000000 0.000000 1.656390 
# 
# From -- ./inp_files/9939.got.cif
#   From: 2010.05.17/outbox.cif.g08.bks.cpg/sg74_5_cif.got.tgz:9939.got - 2010.06.03 17:57:02.
