data_PCOD9539525
_publ_section_title
;
Structure prediction by ZEFSAII (Michael W. Deem and Ramdas Pophale) SiO2 
 PCOD9539525
Probable space group: I M M A
;
_chemical_formula_sum "Si O2"
_cell_formula_units_Z 72
_cell_length_a 16.762009
_cell_length_b 14.335371
_cell_length_c 17.397183
_cell_angle_alpha 90.000000
_cell_angle_beta 90.000000
_cell_angle_gamma 90.000000
_cell_volume 4180.362452
_symmetry_space_group_name_H-M "I M M A"
_symmetry_group_IT_number 74
_symmetry_cell_setting 'orthorhombic'
loop_
_space_group_symop_operation_xyz
x,y,z
-x,1/2-y,z
x,-y,-z
-x,1/2+y,-z
-x,-y,-z
x,1/2+y,-z
-x,y,z
x,1/2-y,z
1/2+x,1/2+y,1/2+z
1/2-x,-y,1/2+z
1/2+x,1/2-y,1/2-z
1/2-x,y,1/2-z
1/2-x,1/2-y,1/2-z
1/2+x,y,1/2-z
1/2-x,1/2+y,1/2+z
1/2+x,-y,1/2+z
loop_
_atom_site_type_symbol
_atom_site_label
_atom_site_fract_x
_atom_site_fract_y
_atom_site_fract_z
Si Si1 0.596254 0.250000 0.893456
Si Si2 0.092606 0.438862 0.187706
Si Si3 0.674203 0.421801 0.801160
Si Si4 0.346179 0.750000 0.766520
Si Si5 0.736843 0.945578 0.578847
Si Si6 0.822330 0.250000 0.439771
O O1 0.500000 0.250000 0.890204
O O2 0.632611 0.340193 0.849589
O O3 0.625584 0.250000 0.982513
O O4 0.114669 0.524881 0.243672
O O5 0.118367 0.343035 0.229320
O O6 0.148628 0.445535 0.113565
O O7 0.000000 0.438005 0.169866
O O8 0.750000 0.387938 0.750000
O O9 0.708979 0.500728 0.858498
O O10 0.250000 0.750000 0.750000
O O11 0.365832 0.750000 0.857142
O O12 0.768454 0.842167 0.563909
O O13 0.740967 0.000000 0.500000
#
# Coordination Sequence:
#
# PCOD9539525 Si02
#       6
#     8  16  16   8  16   8
#     4  12  25  39  57  88 123 151 188 243 293 333
#     4  11  22  36  60  90 118 148 190 250 298 329
#     4  10  21  40  63  84 110 157 201 232 284 352
#     4  12  19  37  61  84 116 152 196 237 282 359
#     4  11  21  39  62  83 115 157 199 232 280 357
#     4  12  22  38  59  88 116 154 195 232 280 353
#
# _framework density 17.223386999999999
#
# number of rings (size 3 to 8) (size 9 to 14) (size 15 to 20)
#    0.000    0.889    6.667    2.000    0.000    1.333 
#    0.000    1.111    0.000    0.000    0.000    0.000 
#    0.000    0.000    0.000    0.000    0.000    0.000 
#
# Total GULP energy -201058.025555 kJ/mol
# GULP energy per Si atom -5584.945154 kJ/mol
# Density = 1.718419 g / cm^3
# Si number density = 17.223387 Si / 1000 Ang^3
#
#
#
# Elastic Constant Matrix: (Units=GPa)
#
#
# Indices 1 2 3 4 5 6 
#
# 1 124.2686 42.4459 21.5237 0.0000 0.0000 0.0000
# 2 42.4459 88.4990 14.9097 0.0000 0.0000 0.0000
# 3 21.5237 14.9097 71.7320 0.0000 0.0000 0.0000
# 4 0.0000 0.0000 0.0000 32.8096 0.0000 0.0000
# 5 0.0000 0.0000 0.0000 0.0000 22.8918 0.0000
# 6 0.0000 0.0000 0.0000 0.0000 0.0000 -13.8748
#
#
#
# Elastic Compliance Matrix: (Units=1/GPa)
#
#
# Indices 1 2 3 4 5 6 
#
# 1 0.009908 -0.004406 -0.002057 0.000000 0.000000 0.000000
# 2 -0.004406 0.013669 -0.001519 0.000000 0.000000 0.000000
# 3 -0.002057 -0.001519 0.014874 0.000000 0.000000 0.000000
# 4 0.000000 0.000000 0.000000 0.030479 0.000000 0.000000
# 5 0.000000 0.000000 0.000000 0.000000 0.043684 0.000000
# 6 0.000000 0.000000 0.000000 0.000000 0.000000 -0.072073
#
#
# Mechanical properties :
#
#
# Convention : Reuss Voigt Hill
#
# Bulk Modulus (GPa) = 44.47104 49.13980 46.80542
# Shear Modulus (GPa) = 78.12575 22.07335 50.09955
#
# Velocity S-wave (km/s) = 6.74231 3.58382 5.39919
# Velocity P-wave (km/s) = 9.29988 6.76149 8.13036
#
# Compressibility (1/GPa) = 0.02248655
#
# Stress axis : x y z
#
# Youngs Moduli (GPa) = 100.92636 73.16092 67.23211
#
# Poissons Ratio (x) = 0.32232 0.13832
# Poissons Ratio (y) = 0.44464 0.10213
# Poissons Ratio (z) = 0.20764 0.11114
#
# Static dielectric constant tensor:
#      x y z
#    x 1.582250 0.000000 0.000000 
#    y 0.000000 1.609600 0.000000 
#    z 0.000000 0.000000 1.574290 
# 
# From -- ./inp_files/33860.got.cif
#   From: 2010.05.17/outbox.cif.g08.bks.cpg/sg74_17_cif.got.tgz:33860.got - 2010.06.03 17:57:02.
