data_PCOD9539715
_publ_section_title
;
Structure prediction by ZEFSAII (Michael W. Deem and Ramdas Pophale) SiO2 
 PCOD9539715
Probable space group: I M M A
;
_chemical_formula_sum "Si O2"
_cell_formula_units_Z 56
_cell_length_a 14.074136
_cell_length_b 22.560302
_cell_length_c 9.666946
_cell_angle_alpha 90.000000
_cell_angle_beta 90.000000
_cell_angle_gamma 90.000000
_cell_volume 3069.417359
_symmetry_space_group_name_H-M "I M M A"
_symmetry_group_IT_number 74
_symmetry_cell_setting 'orthorhombic'
loop_
_space_group_symop_operation_xyz
x,y,z
-x,1/2-y,z
x,-y,-z
-x,1/2+y,-z
-x,-y,-z
x,1/2+y,-z
-x,y,z
x,1/2-y,z
1/2+x,1/2+y,1/2+z
1/2-x,-y,1/2+z
1/2+x,1/2-y,1/2-z
1/2-x,y,1/2-z
1/2-x,1/2-y,1/2-z
1/2+x,y,1/2-z
1/2-x,1/2+y,1/2+z
1/2+x,-y,1/2+z
loop_
_atom_site_type_symbol
_atom_site_label
_atom_site_fract_x
_atom_site_fract_y
_atom_site_fract_z
Si Si1 0.740471 0.618753 0.400621
Si Si2 0.887719 0.681501 0.872351
Si Si3 0.388381 0.091328 0.121462
Si Si4 0.250000 0.505349 0.250000
O O1 0.750000 0.648519 0.250000
O O2 0.671430 0.651481 0.505267
O O3 0.840746 0.610752 0.477868
O O4 0.707465 0.551758 0.361662
O O5 0.860380 0.750000 0.853863
O O6 0.873711 0.643879 0.732743
O O7 0.000000 0.679140 0.904368
O O8 0.500000 0.078815 0.109133
O O9 0.329075 0.035745 0.180319
#
# Coordination Sequence:
#
# PCOD9539715 Si02
#       4
#    16  16  16   8
#     4  10  23  37  60  88 127 157 197 250 314 362
#     4  10  22  41  64  89 118 161 213 254 297 358
#     4  11  22  39  63  88 120 164 208 252 298 357
#     4  10  22  38  58  90 124 158 202 250 306 370
#
# _framework density 18.244505
#
# number of rings (size 3 to 8) (size 9 to 14) (size 15 to 20)
#    0.857    0.857    2.857    0.857    0.000    7.429 
#    0.000    2.857    0.000    3.429    0.000    0.000 
#    0.000    0.000    0.000    0.000    0.000    0.000 
#
# Total GULP energy -156144.316006 kJ/mol
# GULP energy per Si atom -5576.582714 kJ/mol
# Density = 1.820298 g / cm^3
# Si number density = 18.244505 Si / 1000 Ang^3
#
#
#
# Elastic Constant Matrix: (Units=GPa)
#
#
# Indices 1 2 3 4 5 6 
#
# 1 63.5604 15.5797 36.2544 0.0001 0.0000 0.0001
# 2 15.5797 83.9595 14.0826 0.0002 0.0000 0.0002
# 3 36.2544 14.0826 104.5349 0.0004 0.0001 0.0003
# 4 0.0001 0.0002 0.0004 12.2602 0.0000 0.0002
# 5 0.0000 0.0000 0.0001 0.0000 13.6362 0.0000
# 6 0.0001 0.0002 0.0003 0.0002 0.0000 35.5597
#
#
#
# Elastic Compliance Matrix: (Units=1/GPa)
#
#
# Indices 1 2 3 4 5 6 
#
# 1 0.020164 -0.002628 -0.006639 0.000000 0.000000 0.000000
# 2 -0.002628 0.012528 -0.000776 0.000000 0.000000 0.000000
# 3 -0.006639 -0.000776 0.011973 0.000000 0.000000 0.000000
# 4 0.000000 0.000000 0.000000 0.081565 0.000000 0.000000
# 5 0.000000 0.000000 0.000000 0.000000 0.073334 0.000000
# 6 0.000000 0.000000 0.000000 0.000000 0.000000 0.028122
#
#
# Mechanical properties :
#
#
# Convention : Reuss Voigt Hill
#
# Bulk Modulus (GPa) = 40.68568 42.65425 41.66997
# Shear Modulus (GPa) = 19.53380 24.70043 22.11712
#
# Velocity S-wave (km/s) = 3.27566 3.68347 3.48553
# Velocity P-wave (km/s) = 6.05435 6.44365 6.25203
#
# Compressibility (1/GPa) = 0.02457867
#
# Stress axis : x y z
#
# Youngs Moduli (GPa) = 49.59276 79.81874 83.51873
#
# Poissons Ratio (x) = 0.20977 0.55450
# Poissons Ratio (y) = 0.13033 0.06484
# Poissons Ratio (z) = 0.32926 0.06196
#
# Static dielectric constant tensor:
#      x y z
#    x 1.611410 0.000000 0.000000 
#    y 0.000000 1.630650 0.000000 
#    z 0.000000 0.000000 1.643320 
# 
# From -- ./inp_files/8440.got.cif
#   From: 2010.05.17/outbox.cif.g08.bks.cpg/sg74_5_cif.got.tgz:8440.got - 2010.06.03 17:57:02.
