data_PCOD9539499
_publ_section_title
;
Structure prediction by ZEFSAII (Michael W. Deem and Ramdas Pophale) SiO2 
 PCOD9539499
Probable space group: I M M A
;
_chemical_formula_sum "Si O2"
_cell_formula_units_Z 64
_cell_length_a 14.745601
_cell_length_b 18.858722
_cell_length_c 9.501815
_cell_angle_alpha 90.000000
_cell_angle_beta 90.000000
_cell_angle_gamma 90.000000
_cell_volume 2642.295026
_symmetry_space_group_name_H-M "I M M A"
_symmetry_group_IT_number 74
_symmetry_cell_setting 'orthorhombic'
loop_
_space_group_symop_operation_xyz
x,y,z
-x,1/2-y,z
x,-y,-z
-x,1/2+y,-z
-x,-y,-z
x,1/2+y,-z
-x,y,z
x,1/2-y,z
1/2+x,1/2+y,1/2+z
1/2-x,-y,1/2+z
1/2+x,1/2-y,1/2-z
1/2-x,y,1/2-z
1/2-x,1/2-y,1/2-z
1/2+x,y,1/2-z
1/2-x,1/2+y,1/2+z
1/2+x,-y,1/2+z
loop_
_atom_site_type_symbol
_atom_site_label
_atom_site_fract_x
_atom_site_fract_y
_atom_site_fract_z
Si Si1 0.600287 0.367783 0.966522
Si Si2 0.099028 0.617882 0.802015
Si Si3 0.354982 0.463768 0.727804
Si Si4 0.303767 0.672359 0.444946
O O1 0.500000 0.335806 0.939596
O O2 0.608380 0.377059 0.133992
O O3 0.603694 0.440227 0.876515
O O4 0.695262 0.331783 0.921564
O O5 0.102154 0.534020 0.834545
O O6 0.000000 0.646804 0.841036
O O7 0.173722 0.658447 0.891748
O O8 0.250000 0.483423 0.750000
O O9 0.352572 0.392837 0.633694
O O10 0.336164 0.750000 0.402152
#
# Coordination Sequence:
#
# PCOD9539499 Si02
#       4
#    16  16  16  16
#     4  10  22  40  66  97 124 156 206 264 316 367
#     4  11  23  40  65  95 125 162 209 259 312 368
#     4  10  21  39  66  95 124 159 203 258 316 371
#     4  11  25  43  62  90 130 171 209 251 304 370
#
# _framework density 24.221367999999998
#
# number of rings (size 3 to 8) (size 9 to 14) (size 15 to 20)
#    0.000    1.500    0.000    4.500    0.000   16.500 
#    0.000    2.500    0.000    0.000    0.000    0.000 
#    0.000    0.000    0.000    0.000    0.000    0.000 
#
# Total GULP energy -178870.777218 kJ/mol
# GULP energy per Si atom -5589.711788 kJ/mol
# Density = 2.416624 g / cm^3
# Si number density = 24.221368 Si / 1000 Ang^3
#
#
#
# Elastic Constant Matrix: (Units=GPa)
#
#
# Indices 1 2 3 4 5 6 
#
# 1 88.5632 -2.0504 10.6208 0.0000 0.0000 0.0000
# 2 -2.0504 85.6815 -0.1010 0.0000 0.0000 0.0000
# 3 10.6208 -0.1010 82.2267 0.0000 0.0000 0.0000
# 4 0.0000 0.0000 0.0000 3.1117 0.0000 0.0000
# 5 0.0000 0.0000 0.0000 0.0000 17.8168 0.0000
# 6 0.0000 0.0000 0.0000 0.0000 0.0000 -43.9392
#
#
#
# Elastic Compliance Matrix: (Units=1/GPa)
#
#
# Indices 1 2 3 4 5 6 
#
# 1 0.011475 0.000273 -0.001482 0.000000 0.000000 0.000000
# 2 0.000273 0.011678 -0.000021 0.000000 0.000000 0.000000
# 3 -0.001482 -0.000021 0.012353 0.000000 0.000000 0.000000
# 4 0.000000 0.000000 0.000000 0.321365 0.000000 0.000000
# 5 0.000000 0.000000 0.000000 0.000000 0.056127 0.000000
# 6 0.000000 0.000000 0.000000 0.000000 0.000000 -0.022759
#
#
# Mechanical properties :
#
#
# Convention : Reuss Voigt Hill
#
# Bulk Modulus (GPa) = 30.26077 30.37891 30.31984
# Shear Modulus (GPa) = 12.38500 11.93133 12.15817
#
# Velocity S-wave (km/s) = 2.26370 2.22186 2.24288
# Velocity P-wave (km/s) = 4.39921 4.37626 4.38775
#
# Compressibility (1/GPa) = 0.03304608
#
# Stress axis : x y z
#
# Youngs Moduli (GPa) = 87.14290 85.63378 80.95273
#
# Poissons Ratio (x) = -0.02337 0.11996
# Poissons Ratio (y) = -0.02378 0.00169
# Poissons Ratio (z) = 0.12914 0.00179
#
# Static dielectric constant tensor:
#      x y z
#    x 1.901660 0.000000 0.000000 
#    y 0.000000 1.900080 0.000000 
#    z 0.000000 0.000000 1.944550 
# 
# From -- ./inp_files/8811.got.cif
#   From: 2010.05.17/outbox.cif.g08.bks.cpg/sg74_5_cif.got.tgz:8811.got - 2010.06.03 17:57:02.
