data_PCOD9539418
_publ_section_title
;
Structure prediction by ZEFSAII (Michael W. Deem and Ramdas Pophale) SiO2 
 PCOD9539418
Probable space group: I M M A
;
_chemical_formula_sum "Si O2"
_cell_formula_units_Z 64
_cell_length_a 15.397590
_cell_length_b 21.206575
_cell_length_c 9.740727
_cell_angle_alpha 90.000000
_cell_angle_beta 90.000000
_cell_angle_gamma 90.000000
_cell_volume 3180.641021
_symmetry_space_group_name_H-M "I M M A"
_symmetry_group_IT_number 74
_symmetry_cell_setting 'orthorhombic'
loop_
_space_group_symop_operation_xyz
x,y,z
-x,1/2-y,z
x,-y,-z
-x,1/2+y,-z
-x,-y,-z
x,1/2+y,-z
-x,y,z
x,1/2-y,z
1/2+x,1/2+y,1/2+z
1/2-x,-y,1/2+z
1/2+x,1/2-y,1/2-z
1/2-x,y,1/2-z
1/2-x,1/2-y,1/2-z
1/2+x,y,1/2-z
1/2-x,1/2+y,1/2+z
1/2+x,-y,1/2+z
loop_
_atom_site_type_symbol
_atom_site_label
_atom_site_fract_x
_atom_site_fract_y
_atom_site_fract_z
Si Si1 0.100792 0.073933 0.376319
Si Si2 0.104398 0.320384 0.847896
Si Si3 0.105898 0.678912 0.838702
Si Si4 0.160459 0.440529 0.675789
O O1 0.132200 0.125721 0.268331
O O2 0.159020 0.072960 0.512959
O O3 0.000000 0.087387 0.415866
O O4 0.103430 0.003900 0.312173
O O5 0.134704 0.250000 0.806266
O O6 0.129629 0.377117 0.749857
O O7 0.000000 0.318219 0.851382
O O8 0.134497 0.332398 0.004497
O O9 0.131856 0.750000 0.798830
O O10 0.000000 0.677631 0.840391
O O11 0.250000 0.456799 0.750000
#
# Coordination Sequence:
#
# PCOD9539418 Si02
#       4
#    16  16  16  16
#     4  10  21  39  60  81 110 149 192 230 270 331
#     4   9  18  35  58  82 109 143 185 229 274 331
#     4   8  16  32  56  84 107 132 176 230 273 315
#     4  11  23  36  53  79 113 146 181 232 284 331
#
# _framework density 20.121731
#
# number of rings (size 3 to 8) (size 9 to 14) (size 15 to 20)
#    0.000    2.500    0.000    4.500    0.000    6.500 
#    0.000    6.250    0.000    3.750    0.000    0.000 
#    0.000    0.000    0.000    0.000    0.000    0.000 
#
# Total GULP energy -178453.096745 kJ/mol
# GULP energy per Si atom -5576.659273 kJ/mol
# Density = 2.007593 g / cm^3
# Si number density = 20.121731 Si / 1000 Ang^3
#
#
#
# Elastic Constant Matrix: (Units=GPa)
#
#
# Indices 1 2 3 4 5 6 
#
# 1 40.9004 0.2655 19.0415 0.0000 0.0000 0.0000
# 2 0.2655 175.4509 105.5149 0.0000 0.0000 0.0000
# 3 19.0415 105.5149 106.2593 0.0000 0.0000 0.0000
# 4 0.0000 0.0000 0.0000 48.2223 0.0000 0.0000
# 5 0.0000 0.0000 0.0000 0.0000 35.0548 0.0000
# 6 0.0000 0.0000 0.0000 0.0000 0.0000 -33.9512
#
#
#
# Elastic Compliance Matrix: (Units=1/GPa)
#
#
# Indices 1 2 3 4 5 6 
#
# 1 0.030702 0.008099 -0.013544 0.000000 0.000000 0.000000
# 2 0.008099 0.016285 -0.017623 0.000000 0.000000 0.000000
# 3 -0.013544 -0.017623 0.029337 0.000000 0.000000 0.000000
# 4 0.000000 0.000000 0.000000 0.020737 0.000000 0.000000
# 5 0.000000 0.000000 0.000000 0.000000 0.028527 0.000000
# 6 0.000000 0.000000 0.000000 0.000000 0.000000 -0.029454
#
#
# Mechanical properties :
#
#
# Convention : Reuss Voigt Hill
#
# Bulk Modulus (GPa) = 33.12404 63.58384 48.35394
# Shear Modulus (GPa) = 32.82269 23.05110 27.93689
#
# Velocity S-wave (km/s) = 4.04320 3.38832 3.73016
# Velocity P-wave (km/s) = 6.18823 6.85389 6.52955
#
# Compressibility (1/GPa) = 0.03018955
#
# Stress axis : x y z
#
# Youngs Moduli (GPa) = 32.57073 61.40443 34.08650
#
# Poissons Ratio (x) = -0.49729 0.46166
# Poissons Ratio (y) = -0.26378 0.60069
# Poissons Ratio (z) = 0.44113 1.08211
#
# Static dielectric constant tensor:
#      x y z
#    x 1.760160 0.000000 0.000000 
#    y 0.000000 1.713610 0.000000 
#    z 0.000000 0.000000 1.689300 
# 
# From -- ./inp_files/30212.got.cif
#   From: 2010.05.17/outbox.cif.g08.bks.cpg/sg74_16_cif.got.tgz:30212.got - 2010.06.03 17:57:02.
