data_PCOD9539189
_publ_section_title
;
Structure prediction by ZEFSAII (Michael W. Deem and Ramdas Pophale) SiO2 
 PCOD9539189
Probable space group: I M M A
;
_chemical_formula_sum "Si O2"
_cell_formula_units_Z 112
_cell_length_a 25.461949
_cell_length_b 15.326089
_cell_length_c 13.861709
_cell_angle_alpha 90.000000
_cell_angle_beta 90.000000
_cell_angle_gamma 90.000000
_cell_volume 5409.283764
_symmetry_space_group_name_H-M "I M M A"
_symmetry_group_IT_number 74
_symmetry_cell_setting 'orthorhombic'
loop_
_space_group_symop_operation_xyz
x,y,z
-x,1/2-y,z
x,-y,-z
-x,1/2+y,-z
-x,-y,-z
x,1/2+y,-z
-x,y,z
x,1/2-y,z
1/2+x,1/2+y,1/2+z
1/2-x,-y,1/2+z
1/2+x,1/2-y,1/2-z
1/2-x,y,1/2-z
1/2-x,1/2-y,1/2-z
1/2+x,y,1/2-z
1/2-x,1/2+y,1/2+z
1/2+x,-y,1/2+z
loop_
_atom_site_type_symbol
_atom_site_label
_atom_site_fract_x
_atom_site_fract_y
_atom_site_fract_z
Si Si1 0.747451 0.854964 0.637228
Si Si2 0.397591 0.848126 0.159620
Si Si3 0.637447 0.147448 0.062128
Si Si4 0.700527 0.650136 0.303586
Si Si5 0.560107 0.653945 0.621577
Si Si6 0.652386 0.404018 0.494651
Si Si7 0.439427 0.463518 0.195643
O O1 0.740580 0.750000 0.630061
O O2 0.750000 0.877515 0.750000
O O3 0.802230 0.876864 0.584849
O O4 0.697681 0.896853 0.585571
O O5 0.421453 0.750000 0.167260
O O6 0.347289 0.849730 0.229223
O O7 0.431391 0.932492 0.188405
O O8 0.377297 0.859105 0.050113
O O9 0.631309 0.250000 0.090325
O O10 0.599427 0.085259 0.122575
O O11 0.716527 0.750000 0.326256
O O12 0.750000 0.606748 0.250000
O O13 0.680071 0.614508 0.404226
O O14 0.500000 0.643127 0.587486
O O15 0.563235 0.750000 0.669849
O O16 0.603138 0.653035 0.537844
O O17 0.571646 0.578515 0.699352
O O18 0.629938 0.500000 0.500000
O O19 0.500000 0.442457 0.172751
#
# Coordination Sequence:
#
# PCOD9539189 Si02
#       7
#    16  16  16  16  16  16  16
#     4  10  21  38  61  89 122 158 198 251 313 374
#     4  10  22  39  58  84 121 162 203 251 308 372
#     4  10  21  37  59  89 124 161 202 253 313 373
#     4  10  21  39  61  83 114 158 203 243 289 355
#     4  10  22  42  67  93 123 160 205 261 319 372
#     4  12  24  37  61  94 126 163 204 249 306 372
#     4  11  23  40  63  89 118 156 206 262 318 380
#
# _framework density 20.705144000000001
#
# number of rings (size 3 to 8) (size 9 to 14) (size 15 to 20)
#    0.000    1.571    0.000    4.714    0.000    8.857 
#    0.000    2.143    0.000    0.857    0.000    0.000 
#    0.000    0.000    0.000    0.000    0.000    0.000 
#
# Total GULP energy -312829.344959 kJ/mol
# GULP energy per Si atom -5586.238303 kJ/mol
# Density = 2.065802 g / cm^3
# Si number density = 20.705144 Si / 1000 Ang^3
#
#
#
# Elastic Constant Matrix: (Units=GPa)
#
#
# Indices 1 2 3 4 5 6 
#
# 1 90.8846 37.6918 45.9215 0.0000 0.0000 0.0000
# 2 37.6918 99.2483 29.5465 0.0000 0.0000 0.0000
# 3 45.9215 29.5465 94.4046 0.0000 0.0000 0.0000
# 4 0.0000 0.0000 0.0000 32.1176 0.0000 0.0000
# 5 0.0000 0.0000 0.0000 0.0000 18.0154 0.0000
# 6 0.0000 0.0000 0.0000 0.0000 0.0000 29.3679
#
#
#
# Elastic Compliance Matrix: (Units=1/GPa)
#
#
# Indices 1 2 3 4 5 6 
#
# 1 0.015999 -0.004145 -0.006485 0.000000 0.000000 0.000000
# 2 -0.004145 0.012185 -0.001797 0.000000 0.000000 0.000000
# 3 -0.006485 -0.001797 0.014310 0.000000 0.000000 0.000000
# 4 0.000000 0.000000 0.000000 0.031136 0.000000 0.000000
# 5 0.000000 0.000000 0.000000 0.000000 0.055508 0.000000
# 6 0.000000 0.000000 0.000000 0.000000 0.000000 0.034051
#
#
# Mechanical properties :
#
#
# Convention : Reuss Voigt Hill
#
# Bulk Modulus (GPa) = 56.69400 56.76190 56.72795
# Shear Modulus (GPa) = 25.78351 27.32535 26.55443
#
# Velocity S-wave (km/s) = 3.53267 3.63676 3.58509
# Velocity P-wave (km/s) = 6.63933 6.71629 6.67792
#
# Compressibility (1/GPa) = 0.01763855
#
# Stress axis : x y z
#
# Youngs Moduli (GPa) = 62.50478 82.06769 69.88273
#
# Poissons Ratio (x) = 0.34020 0.45319
# Poissons Ratio (y) = 0.25910 0.12560
# Poissons Ratio (z) = 0.40534 0.14749
#
# Static dielectric constant tensor:
#      x y z
#    x 1.708820 0.000000 0.000000 
#    y 0.000000 1.775040 0.000000 
#    z 0.000000 0.000000 1.727940 
# 
# From -- ./inp_files/32712.got.cif
#   From: 2010.05.17/outbox.cif.g08.bks.cpg/sg74_17_cif.got.tgz:32712.got - 2010.06.03 17:57:02.
