data_PCOD9539104
_publ_section_title
;
Structure prediction by ZEFSAII (Michael W. Deem and Ramdas Pophale) SiO2 
 PCOD9539104
Probable space group: I M M A
;
_chemical_formula_sum "Si O2"
_cell_formula_units_Z 80
_cell_length_a 11.320506
_cell_length_b 14.758941
_cell_length_c 28.476364
_cell_angle_alpha 90.000000
_cell_angle_beta 90.000000
_cell_angle_gamma 90.000000
_cell_volume 4757.793312
_symmetry_space_group_name_H-M "I M M A"
_symmetry_group_IT_number 74
_symmetry_cell_setting 'orthorhombic'
loop_
_space_group_symop_operation_xyz
x,y,z
-x,1/2-y,z
x,-y,-z
-x,1/2+y,-z
-x,-y,-z
x,1/2+y,-z
-x,y,z
x,1/2-y,z
1/2+x,1/2+y,1/2+z
1/2-x,-y,1/2+z
1/2+x,1/2-y,1/2-z
1/2-x,y,1/2-z
1/2-x,1/2-y,1/2-z
1/2+x,y,1/2-z
1/2-x,1/2+y,1/2+z
1/2+x,-y,1/2+z
loop_
_atom_site_type_symbol
_atom_site_label
_atom_site_fract_x
_atom_site_fract_y
_atom_site_fract_z
Si Si1 0.248694 0.562811 0.452951
Si Si2 0.773606 0.424287 0.120301
Si Si3 0.359503 0.750000 0.013115
Si Si4 0.000000 0.853728 0.043558
Si Si5 0.139821 0.750000 0.594581
Si Si6 0.362096 0.143107 0.285197
Si Si7 0.000000 0.647671 0.931435
O O1 0.238299 0.500000 0.500000
O O2 0.211642 0.507813 0.406314
O O3 0.183137 0.657342 0.463010
O O4 0.383127 0.592731 0.443604
O O5 0.685681 0.339501 0.119583
O O6 0.831386 0.423981 0.171699
O O7 0.882504 0.399281 0.086386
O O8 0.500000 0.750000 0.011656
O O9 0.313204 0.750000 0.959249
O O10 0.000000 0.750000 0.060983
O O11 0.000000 0.849806 0.987155
O O12 0.000000 0.750000 0.592892
O O13 0.500000 0.127354 0.269185
O O14 0.360673 0.250000 0.300193
O O15 0.250000 0.133721 0.250000
O O16 0.000000 0.750000 0.912515
#
# Coordination Sequence:
#
# PCOD9539104 Si02
#       7
#    16  16   8   8   8  16   8
#     4  12  22  34  54  80 109 146 188 228 274 320
#     4  12  21  34  55  80 107 145 186 228 272 326
#     4  11  24  41  51  70 115 161 197 228 265 318
#     4  11  20  32  50  80 118 144 172 230 276 314
#     4  11  22  33  50  78 111 149 193 232 262 318
#     4  10  21  37  57  81 113 148 184 231 285 340
#     4  11  17  27  53  77 110 144 180 214 267 320
#
# _framework density 16.814518
#
# number of rings (size 3 to 8) (size 9 to 14) (size 15 to 20)
#    0.000    0.800    8.000    0.900    0.000    2.000 
#    0.000    0.000    0.000    0.000    0.000    0.700 
#    0.000    0.000    0.000    0.000    0.000    0.000 
#
# Total GULP energy -223045.167376 kJ/mol
# GULP energy per Si atom -5576.129184 kJ/mol
# Density = 1.677625 g / cm^3
# Si number density = 16.814518 Si / 1000 Ang^3
#
#
#
# Elastic Constant Matrix: (Units=GPa)
#
#
# Indices 1 2 3 4 5 6 
#
# 1 80.9114 29.1682 21.3656 0.0000 0.0000 0.0000
# 2 29.1682 97.0292 20.0130 0.0000 0.0000 0.0000
# 3 21.3656 20.0130 44.2873 0.0000 0.0000 0.0000
# 4 0.0000 0.0000 0.0000 19.4496 0.0000 0.0000
# 5 0.0000 0.0000 0.0000 0.0000 8.3998 0.0000
# 6 0.0000 0.0000 0.0000 0.0000 0.0000 -10.0517
#
#
#
# Elastic Compliance Matrix: (Units=1/GPa)
#
#
# Indices 1 2 3 4 5 6 
#
# 1 0.015088 -0.003346 -0.005767 0.000000 0.000000 0.000000
# 2 -0.003346 0.012108 -0.003857 0.000000 0.000000 0.000000
# 3 -0.005767 -0.003857 0.027105 0.000000 0.000000 0.000000
# 4 0.000000 0.000000 0.000000 0.051415 0.000000 0.000000
# 5 0.000000 0.000000 0.000000 0.000000 0.119050 0.000000
# 6 0.000000 0.000000 0.000000 0.000000 0.000000 -0.099486
#
#
# Mechanical properties :
#
#
# Convention : Reuss Voigt Hill
#
# Bulk Modulus (GPa) = 35.26028 40.36905 37.81467
# Shear Modulus (GPa) = 31.11890 13.67162 22.39526
#
# Velocity S-wave (km/s) = 4.30666 2.85456 3.65348
# Velocity P-wave (km/s) = 6.76354 5.90976 6.35101
#
# Compressibility (1/GPa) = 0.02836052
#
# Stress axis : x y z
#
# Youngs Moduli (GPa) = 66.27636 82.59250 36.89363
#
# Poissons Ratio (x) = 0.27638 0.21276
# Poissons Ratio (y) = 0.22178 0.14230
# Poissons Ratio (z) = 0.38221 0.31856
#
# Static dielectric constant tensor:
#      x y z
#    x 1.589670 0.000000 0.000000 
#    y 0.000000 1.626170 0.000000 
#    z 0.000000 0.000000 1.585460 
# 
# From -- ./inp_files/65888.got.cif
#   From: 2010.05.17/outbox.cif.g08.bks.cpg/sg74_33_cif.got.tgz:65888.got - 2010.06.03 17:57:02.
