data_PCOD9539624
_publ_section_title
;
Structure prediction by ZEFSAII (Michael W. Deem and Ramdas Pophale) SiO2 
 PCOD9539624
Probable space group: I M M A
;
_chemical_formula_sum "Si O2"
_cell_formula_units_Z 72
_cell_length_a 19.301999
_cell_length_b 19.474628
_cell_length_c 10.981938
_cell_angle_alpha 90.000000
_cell_angle_beta 90.000000
_cell_angle_gamma 90.000000
_cell_volume 4128.102260
_symmetry_space_group_name_H-M "I M M A"
_symmetry_group_IT_number 74
_symmetry_cell_setting 'orthorhombic'
loop_
_space_group_symop_operation_xyz
x,y,z
-x,1/2-y,z
x,-y,-z
-x,1/2+y,-z
-x,-y,-z
x,1/2+y,-z
-x,y,z
x,1/2-y,z
1/2+x,1/2+y,1/2+z
1/2-x,-y,1/2+z
1/2+x,1/2-y,1/2-z
1/2-x,y,1/2-z
1/2-x,1/2-y,1/2-z
1/2+x,y,1/2-z
1/2-x,1/2+y,1/2+z
1/2+x,-y,1/2+z
loop_
_atom_site_type_symbol
_atom_site_label
_atom_site_fract_x
_atom_site_fract_y
_atom_site_fract_z
Si Si1 0.214376 0.500000 0.000000
Si Si2 0.079167 0.995173 0.646445
Si Si3 0.305311 0.250000 0.362374
Si Si4 0.191693 0.602568 0.353270
Si Si5 0.217576 0.250000 0.612043
Si Si6 0.829593 0.400697 0.202345
O O1 0.266866 0.442416 0.950695
O O2 0.169069 0.541010 0.902073
O O3 0.118868 0.927551 0.693688
O O4 0.000000 0.996579 0.689123
O O5 0.078880 0.000000 0.500000
O O6 0.125119 0.060178 0.687992
O O7 0.250000 0.250000 0.250000
O O8 0.270653 0.250000 0.497299
O O9 0.343259 0.176568 0.344710
O O10 0.250000 0.607731 0.250000
O O11 0.175961 0.679039 0.397745
O O12 0.250000 0.250000 0.750000
O O13 0.750000 0.402910 0.250000
#
# Coordination Sequence:
#
# PCOD9539624 Si02
#       6
#     8  16   8  16   8  16
#     4  12  16  30  62  82 110 140 188 236 294 338
#     4  11  22  36  55  80 113 154 193 233 287 359
#     4  10  22  32  53  89 119 145 189 256 304 346
#     4  11  19  34  57  84 112 144 189 241 293 346
#     4  10  22  34  55  89 119 147 187 244 300 356
#     4  11  20  35  57  84 113 147 194 246 300 348
#
# _framework density 17.44143
#
# number of rings (size 3 to 8) (size 9 to 14) (size 15 to 20)
#    0.000    1.111    7.778    0.000    3.111    0.000 
#    0.000    1.667    0.000    2.667    0.000    1.556 
#    0.000    0.000    0.000    0.000    0.000    0.000 
#
# Total GULP energy -200496.964054 kJ/mol
# GULP energy per Si atom -5569.360113 kJ/mol
# Density = 1.740173 g / cm^3
# Si number density = 17.441430 Si / 1000 Ang^3
#
#
#
# Elastic Constant Matrix: (Units=GPa)
#
#
# Indices 1 2 3 4 5 6 
#
# 1 92.3927 40.2467 16.9589 0.0000 0.0000 0.0000
# 2 40.2467 163.7113 37.5383 0.0000 0.0000 0.0000
# 3 16.9589 37.5383 74.9311 0.0000 0.0000 0.0000
# 4 0.0000 0.0000 0.0000 -7.7844 0.0000 0.0000
# 5 0.0000 0.0000 0.0000 0.0000 18.1089 0.0000
# 6 0.0000 0.0000 0.0000 0.0000 0.0000 35.9766
#
#
#
# Elastic Compliance Matrix: (Units=1/GPa)
#
#
# Indices 1 2 3 4 5 6 
#
# 1 0.012255 -0.002685 -0.001428 0.000000 0.000000 0.000000
# 2 -0.002685 0.007489 -0.003144 0.000000 0.000000 0.000000
# 3 -0.001428 -0.003144 0.015244 0.000000 0.000000 0.000000
# 4 0.000000 0.000000 0.000000 -0.128462 0.000000 0.000000
# 5 0.000000 0.000000 0.000000 0.000000 0.055221 0.000000
# 6 0.000000 0.000000 0.000000 0.000000 0.000000 0.027796
#
#
# Mechanical properties :
#
#
# Convention : Reuss Voigt Hill
#
# Bulk Modulus (GPa) = 48.84520 57.83585 53.34052
# Shear Modulus (GPa) = 459.37257 25.01298 242.19278
#
# Velocity S-wave (km/s) = 16.24660 3.79108 11.79670
# Velocity P-wave (km/s) = 19.49364 7.23844 14.70369
#
# Compressibility (1/GPa) = 0.02047284
#
# Stress axis : x y z
#
# Youngs Moduli (GPa) = 81.59745 133.52161 65.59934
#
# Poissons Ratio (x) = 0.35855 0.09370
# Poissons Ratio (y) = 0.21911 0.20626
# Poissons Ratio (z) = 0.11656 0.41982
#
# Static dielectric constant tensor:
#      x y z
#    x 1.581000 0.000000 0.000000 
#    y 0.000000 1.650570 0.000000 
#    z 0.000000 0.000000 1.691710 
# 
# From -- ./inp_files/21917.got.cif
#   From: 2010.05.17/outbox.cif.g08.bks.cpg/sg74_11_cif.got.tgz:21917.got - 2010.06.03 17:57:02.
