data_PCOD9539143
_publ_section_title
;
Structure prediction by ZEFSAII (Michael W. Deem and Ramdas Pophale) SiO2 
 PCOD9539143
Probable space group: I M M A
;
_chemical_formula_sum "Si O2"
_cell_formula_units_Z 100
_cell_length_a 7.804415
_cell_length_b 21.670855
_cell_length_c 27.145322
_cell_angle_alpha 90.000000
_cell_angle_beta 90.000000
_cell_angle_gamma 90.000000
_cell_volume 4591.043407
_symmetry_space_group_name_H-M "I M M A"
_symmetry_group_IT_number 74
_symmetry_cell_setting 'orthorhombic'
loop_
_space_group_symop_operation_xyz
x,y,z
-x,1/2-y,z
x,-y,-z
-x,1/2+y,-z
-x,-y,-z
x,1/2+y,-z
-x,y,z
x,1/2-y,z
1/2+x,1/2+y,1/2+z
1/2-x,-y,1/2+z
1/2+x,1/2-y,1/2-z
1/2-x,y,1/2-z
1/2-x,1/2-y,1/2-z
1/2+x,y,1/2-z
1/2-x,1/2+y,1/2+z
1/2+x,-y,1/2+z
loop_
_atom_site_type_symbol
_atom_site_label
_atom_site_fract_x
_atom_site_fract_y
_atom_site_fract_z
Si Si1 0.696681 0.158519 0.321539
Si Si2 0.295509 0.820778 0.195497
Si Si3 0.703192 0.984804 0.695165
Si Si4 0.202447 0.319542 0.432373
Si Si5 0.000000 0.750000 0.708150
Si Si6 0.292545 0.928331 0.491963
Si Si7 0.700872 0.079940 0.617794
O O1 0.500000 0.173456 0.305543
O O2 0.737143 0.087199 0.311406
O O3 0.704933 0.169807 0.380365
O O4 0.846940 0.197675 0.297695
O O5 0.500000 0.822030 0.190433
O O6 0.235289 0.750000 0.193131
O O7 0.250000 0.844574 0.250000
O O8 0.217038 0.860710 0.152167
O O9 0.500000 0.992266 0.691800
O O10 0.750000 0.005168 0.750000
O O11 0.779634 0.025064 0.650789
O O12 0.248357 0.250000 0.450985
O O13 0.234376 0.376188 0.469401
O O14 0.000000 0.318291 0.421186
O O15 0.500000 0.927181 0.494931
O O16 0.229703 0.911723 0.436970
O O17 0.240593 0.000000 0.500000
O O18 0.500000 0.065831 0.609953
#
# Coordination Sequence:
#
# PCOD9539143 Si02
#       7
#    16  16  16  16   4  16  16
#     4  11  22  41  66  92 130 168 210 261 316 368
#     4  10  21  37  58  85 118 156 198 244 303 366
#     4  10  23  40  64  90 120 162 205 257 317 373
#     4  11  22  39  62  92 125 162 212 260 308 378
#     4  12  22  40  66  98 124 168 216 258 304 390
#     4  10  22  40  61  87 121 161 205 256 313 372
#     4  10  21  39  60  89 121 156 206 254 309 374
#
# _framework density 21.78154
#
# number of rings (size 3 to 8) (size 9 to 14) (size 15 to 20)
#    0.000    1.600    1.600    2.640    1.120    8.000 
#    0.000    3.600    0.000    0.000    0.000    0.000 
#    0.000    0.000    0.000    0.000    0.000    0.000 
#
# Total GULP energy -278967.396271 kJ/mol
# GULP energy per Si atom -5579.347925 kJ/mol
# Density = 2.173196 g / cm^3
# Si number density = 21.781540 Si / 1000 Ang^3
#
#
#
# Elastic Constant Matrix: (Units=GPa)
#
#
# Indices 1 2 3 4 5 6 
#
# 1 80.3106 36.7481 30.5057 0.0000 0.0000 0.0000
# 2 36.7481 115.5870 55.0757 0.0000 0.0000 0.0000
# 3 30.5057 55.0757 142.6655 0.0000 0.0000 0.0000
# 4 0.0000 0.0000 0.0000 12.2926 0.0000 0.0000
# 5 0.0000 0.0000 0.0000 0.0000 29.0264 0.0000
# 6 0.0000 0.0000 0.0000 0.0000 0.0000 20.5725
#
#
#
# Elastic Compliance Matrix: (Units=1/GPa)
#
#
# Indices 1 2 3 4 5 6 
#
# 1 0.014886 -0.003941 -0.001662 0.000000 0.000000 0.000000
# 2 -0.003941 0.011645 -0.003653 0.000000 0.000000 0.000000
# 3 -0.001662 -0.003653 0.008775 0.000000 0.000000 0.000000
# 4 0.000000 0.000000 0.000000 0.081350 0.000000 0.000000
# 5 0.000000 0.000000 0.000000 0.000000 0.034451 0.000000
# 6 0.000000 0.000000 0.000000 0.000000 0.000000 0.048609
#
#
# Mechanical properties :
#
#
# Convention : Reuss Voigt Hill
#
# Bulk Modulus (GPa) = 59.54121 64.80247 62.17184
# Shear Modulus (GPa) = 22.33891 26.79387 24.56639
#
# Velocity S-wave (km/s) = 3.20596 3.51111 3.36200
# Velocity P-wave (km/s) = 6.41086 6.80095 6.60878
#
# Compressibility (1/GPa) = 0.01679509
#
# Stress axis : x y z
#
# Youngs Moduli (GPa) = 67.17682 85.87421 113.96164
#
# Poissons Ratio (x) = 0.33842 0.18937
# Poissons Ratio (y) = 0.26474 0.41628
# Poissons Ratio (z) = 0.11163 0.31368
#
# Static dielectric constant tensor:
#      x y z
#    x 1.797320 0.000000 0.000000 
#    y 0.000000 1.808570 0.000000 
#    z 0.000000 0.000000 1.811530 
# 
# From -- ./inp_files/64479.got.cif
#   From: 2010.05.17/outbox.cif.g08.bks.cpg/sg74_33_cif.got.tgz:64479.got - 2010.06.03 17:57:02.
