data_PCOD9539765
_publ_section_title
;
Structure prediction by ZEFSAII (Michael W. Deem and Ramdas Pophale) SiO2 
 PCOD9539765
Probable space group: I M M A
;
_chemical_formula_sum "Si O2"
_cell_formula_units_Z 116
_cell_length_a 8.912735
_cell_length_b 26.630883
_cell_length_c 25.699766
_cell_angle_alpha 90.000000
_cell_angle_beta 90.000000
_cell_angle_gamma 90.000000
_cell_volume 6099.942336
_symmetry_space_group_name_H-M "I M M A"
_symmetry_group_IT_number 74
_symmetry_cell_setting 'orthorhombic'
loop_
_space_group_symop_operation_xyz
x,y,z
-x,1/2-y,z
x,-y,-z
-x,1/2+y,-z
-x,-y,-z
x,1/2+y,-z
-x,y,z
x,1/2-y,z
1/2+x,1/2+y,1/2+z
1/2-x,-y,1/2+z
1/2+x,1/2-y,1/2-z
1/2-x,y,1/2-z
1/2-x,1/2-y,1/2-z
1/2+x,y,1/2-z
1/2-x,1/2+y,1/2+z
1/2+x,-y,1/2+z
loop_
_atom_site_type_symbol
_atom_site_label
_atom_site_fract_x
_atom_site_fract_y
_atom_site_fract_z
Si Si1 0.173351 0.965229 0.449508
Si Si2 0.821061 0.308176 0.607310
Si Si3 0.322263 0.635849 0.484579
Si Si4 0.500000 0.250000 0.098925
Si Si5 0.178616 0.400214 0.195775
Si Si6 0.179746 0.879887 0.194465
Si Si7 0.821609 0.490954 0.845230
Si Si8 0.665673 0.854050 0.905133
O O1 0.275634 0.916570 0.457916
O O2 0.230552 0.993852 0.398718
O O3 0.000000 0.949556 0.443061
O O4 0.184528 0.000000 0.500000
O O5 0.790179 0.250000 0.619513
O O6 0.756884 0.321935 0.550598
O O7 0.745677 0.344671 0.649393
O O8 0.000000 0.315771 0.607266
O O9 0.500000 0.642122 0.484059
O O10 0.258645 0.635511 0.542859
O O11 0.627847 0.204990 0.098408
O O12 0.250000 0.382974 0.250000
O O13 0.208318 0.459759 0.188501
O O14 0.251639 0.373117 0.146234
O O15 0.000000 0.392537 0.196250
O O16 0.250000 0.866415 0.250000
O O17 0.216911 0.938084 0.181686
O O18 0.000000 0.875091 0.195876
O O19 0.000000 0.490144 0.856719
O O20 0.500000 0.879251 0.909626
#
# Coordination Sequence:
#
# PCOD9539765 Si02
#       8
#    16  16  16   4  16  16  16  16
#     4  11  23  37  58  90 129 172 215 254 312 379
#     4  11  25  43  65  92 123 166 217 270 323 376
#     4  12  24  39  63  96 131 169 210 264 323 386
#     4   8  24  44  72  92 128 168 216 268 336 390
#     4  11  23  41  67  98 133 171 217 267 323 390
#     4  11  23  41  64  91 126 167 213 264 319 378
#     4  10  22  39  60  92 129 170 213 260 318 378
#     4  10  22  43  67  93 127 165 214 263 326 383
#
# _framework density 19.016572
#
# number of rings (size 3 to 8) (size 9 to 14) (size 15 to 20)
#    0.414    0.828    1.379    4.552    0.966    6.345 
#    0.000    1.379    0.000    0.000    0.000    0.000 
#    0.000    0.000    0.000    0.000    0.000    0.000 
#
# Total GULP energy -323642.604441 kJ/mol
# GULP energy per Si atom -5580.044904 kJ/mol
# Density = 1.897329 g / cm^3
# Si number density = 19.016572 Si / 1000 Ang^3
#
#
#
# Elastic Constant Matrix: (Units=GPa)
#
#
# Indices 1 2 3 4 5 6 
#
# 1 70.9744 16.7595 40.0286 0.0000 0.0000 0.0000
# 2 16.7595 28.8057 -1.9588 0.0000 0.0000 0.0000
# 3 40.0286 -1.9588 121.9491 0.0000 0.0000 0.0000
# 4 0.0000 0.0000 0.0000 4.6257 0.0000 0.0000
# 5 0.0000 0.0000 0.0000 0.0000 33.0444 0.0000
# 6 0.0000 0.0000 0.0000 0.0000 0.0000 23.9641
#
#
#
# Elastic Compliance Matrix: (Units=1/GPa)
#
#
# Indices 1 2 3 4 5 6 
#
# 1 0.021137 -0.012784 -0.007143 0.000000 0.000000 0.000000
# 2 -0.012784 0.042485 0.004878 0.000000 0.000000 0.000000
# 3 -0.007143 0.004878 0.010623 0.000000 0.000000 0.000000
# 4 0.000000 0.000000 0.000000 0.216182 0.000000 0.000000
# 5 0.000000 0.000000 0.000000 0.000000 0.030262 0.000000
# 6 0.000000 0.000000 0.000000 0.000000 0.000000 0.041729
#
#
# Mechanical properties :
#
#
# Convention : Reuss Voigt Hill
#
# Bulk Modulus (GPa) = 22.65101 36.82089 29.73595
# Shear Modulus (GPa) = 12.27805 23.45349 17.86577
#
# Velocity S-wave (km/s) = 2.54372 3.51567 3.06843
# Velocity P-wave (km/s) = 4.53480 5.99037 5.31267
#
# Compressibility (1/GPa) = 0.04414814
#
# Stress axis : x y z
#
# Youngs Moduli (GPa) = 47.31042 23.53786 94.13329
#
# Poissons Ratio (x) = 0.30090 0.67243
# Poissons Ratio (y) = 0.60479 -0.45923
# Poissons Ratio (z) = 0.33795 -0.11483
#
# Static dielectric constant tensor:
#      x y z
#    x 1.639600 0.000000 0.000000 
#    y 0.000000 1.656270 0.000000 
#    z 0.000000 0.000000 1.634860 
# 
# From -- ./inp_files/57703.got.cif
#   From: 2010.05.17/outbox.cif.g08.bks.cpg/sg74_29_cif.got.tgz:57703.got - 2010.06.03 17:57:02.
