data_PCOD9539353
_publ_section_title
;
Structure prediction by ZEFSAII (Michael W. Deem and Ramdas Pophale) SiO2 
 PCOD9539353
Probable space group: I M M A
;
_chemical_formula_sum "Si O2"
_cell_formula_units_Z 72
_cell_length_a 27.647803
_cell_length_b 10.901976
_cell_length_c 12.693626
_cell_angle_alpha 90.000000
_cell_angle_beta 90.000000
_cell_angle_gamma 90.000000
_cell_volume 3826.057973
_symmetry_space_group_name_H-M "I M M A"
_symmetry_group_IT_number 74
_symmetry_cell_setting 'orthorhombic'
loop_
_space_group_symop_operation_xyz
x,y,z
-x,1/2-y,z
x,-y,-z
-x,1/2+y,-z
-x,-y,-z
x,1/2+y,-z
-x,y,z
x,1/2-y,z
1/2+x,1/2+y,1/2+z
1/2-x,-y,1/2+z
1/2+x,1/2-y,1/2-z
1/2-x,y,1/2-z
1/2-x,1/2-y,1/2-z
1/2+x,y,1/2-z
1/2-x,1/2+y,1/2+z
1/2+x,-y,1/2+z
loop_
_atom_site_type_symbol
_atom_site_label
_atom_site_fract_x
_atom_site_fract_y
_atom_site_fract_z
Si Si1 0.716087 0.750000 0.416113
Si Si2 0.605416 0.889318 0.677413
Si Si3 0.395996 0.537296 0.121964
Si Si4 0.500000 0.888543 0.581002
Si Si5 0.828843 0.500000 0.000000
Si Si6 0.677591 0.750000 0.178051
Si Si7 0.500000 0.887985 0.082793
O O1 0.701274 0.624232 0.476068
O O2 0.689351 0.750000 0.302375
O O3 0.772631 0.750000 0.386953
O O4 0.620799 0.750000 0.658034
O O5 0.548924 0.898552 0.647869
O O6 0.610746 0.925110 0.798651
O O7 0.636747 0.974518 0.600520
O O8 0.354596 0.633571 0.148184
O O9 0.449350 0.594919 0.142886
O O10 0.393903 0.500000 0.000000
O O11 0.500000 0.750000 0.532980
O O12 0.500000 0.000000 0.500000
O O13 0.500000 0.750000 0.035801
O O14 0.500000 0.000000 0.000000
#
# Coordination Sequence:
#
# PCOD9539353 Si02
#       7
#     8  16  16   8   8   8   8
#     4  11  26  44  67  97 132 167 220 275 335 375
#     4  11  23  40  64  97 133 174 213 266 327 386
#     4  11  24  41  66  95 131 173 220 266 321 389
#     4  10  21  38  61  96 135 169 215 264 314 384
#     4  12  22  43  68  94 130 169 214 268 330 390
#     4  11  24  45  67  93 128 170 220 274 323 390
#     4  10  21  38  62  93 129 170 216 262 323 380
#
# _framework density 18.818325000000002
#
# number of rings (size 3 to 8) (size 9 to 14) (size 15 to 20)
#    0.000    1.111    5.556    0.667    3.111    0.889 
#    2.000    1.111    0.000    4.000    0.000    0.000 
#    0.000    0.000    0.000    0.000    0.000    0.000 
#
# Total GULP energy -200924.332355 kJ/mol
# GULP energy per Si atom -5581.231454 kJ/mol
# Density = 1.877549 g / cm^3
# Si number density = 18.818325 Si / 1000 Ang^3
#
#
#
# Elastic Constant Matrix: (Units=GPa)
#
#
# Indices 1 2 3 4 5 6 
#
# 1 121.4571 41.0394 26.6894 0.0000 0.0000 0.0000
# 2 41.0394 119.8179 30.3171 0.0000 0.0000 0.0000
# 3 26.6894 30.3171 89.2169 0.0000 0.0000 0.0000
# 4 0.0000 0.0000 0.0000 34.5744 0.0000 0.0000
# 5 0.0000 0.0000 0.0000 0.0000 15.5095 0.0000
# 6 0.0000 0.0000 0.0000 0.0000 0.0000 172.8810
#
#
#
# Elastic Compliance Matrix: (Units=1/GPa)
#
#
# Indices 1 2 3 4 5 6 
#
# 1 0.009602 -0.002803 -0.001920 0.000000 0.000000 0.000000
# 2 -0.002803 0.009949 -0.002542 0.000000 0.000000 0.000000
# 3 -0.001920 -0.002542 0.012647 0.000000 0.000000 0.000000
# 4 0.000000 0.000000 0.000000 0.028923 0.000000 0.000000
# 5 0.000000 0.000000 0.000000 0.000000 0.064477 0.000000
# 6 0.000000 0.000000 0.000000 0.000000 0.000000 0.005784
#
#
# Mechanical properties :
#
#
# Convention : Reuss Voigt Hill
#
# Bulk Modulus (GPa) = 56.60056 58.50929 57.55493
# Shear Modulus (GPa) = 32.93735 60.08937 46.51336
#
# Velocity S-wave (km/s) = 4.18817 5.65691 4.97702
# Velocity P-wave (km/s) = 7.31645 8.59224 7.97988
#
# Compressibility (1/GPa) = 0.01766767
#
# Stress axis : x y z
#
# Youngs Moduli (GPa) = 104.14014 100.50848 79.07038
#
# Poissons Ratio (x) = 0.28174 0.15182
# Poissons Ratio (y) = 0.29192 0.20103
# Poissons Ratio (z) = 0.19995 0.25553
#
# Static dielectric constant tensor:
#      x y z
#    x 1.642020 0.000000 0.000000 
#    y 0.000000 1.657590 0.000000 
#    z 0.000000 0.000000 1.634740 
# 
# From -- ./inp_files/37117.got.cif
#   From: 2010.05.17/outbox.cif.g08.bks.cpg/sg74_19_cif.got.tgz:37117.got - 2010.06.03 17:57:02.
