data_PCOD9539200
_publ_section_title
;
Structure prediction by ZEFSAII (Michael W. Deem and Ramdas Pophale) SiO2 
 PCOD9539200
Probable space group: I M M A
;
_chemical_formula_sum "Si O2"
_cell_formula_units_Z 68
_cell_length_a 17.367596
_cell_length_b 7.206562
_cell_length_c 23.634771
_cell_angle_alpha 90.000000
_cell_angle_beta 90.000000
_cell_angle_gamma 90.000000
_cell_volume 2958.143475
_symmetry_space_group_name_H-M "I M M A"
_symmetry_group_IT_number 74
_symmetry_cell_setting 'orthorhombic'
loop_
_space_group_symop_operation_xyz
x,y,z
-x,1/2-y,z
x,-y,-z
-x,1/2+y,-z
-x,-y,-z
x,1/2+y,-z
-x,y,z
x,1/2-y,z
1/2+x,1/2+y,1/2+z
1/2-x,-y,1/2+z
1/2+x,1/2-y,1/2-z
1/2-x,y,1/2-z
1/2-x,1/2-y,1/2-z
1/2+x,y,1/2-z
1/2-x,1/2+y,1/2+z
1/2+x,-y,1/2+z
loop_
_atom_site_type_symbol
_atom_site_label
_atom_site_fract_x
_atom_site_fract_y
_atom_site_fract_z
Si Si1 0.410504 0.524035 0.665804
Si Si2 0.500000 0.750000 0.053470
Si Si3 0.863459 0.974698 0.585437
Si Si4 0.911142 0.526301 0.709184
Si Si5 0.808002 0.530364 0.937799
O O1 0.500000 0.470712 0.659614
O O2 0.409304 0.750000 0.665284
O O3 0.384069 0.465906 0.728767
O O4 0.358780 0.458394 0.613996
O O5 0.432429 0.588315 0.058246
O O6 0.874465 0.750000 0.579058
O O7 0.865625 0.020564 0.652771
O O8 0.780143 0.034121 0.563243
O O9 0.912723 0.750000 0.710943
O O10 0.000000 0.464987 0.701399
O O11 0.802652 0.750000 0.929011
O O12 0.842141 0.500000 0.000000
#
# Coordination Sequence:
#
# PCOD9539200 Si02
#       5
#    16   4  16  16  16
#     4   8  15  30  57  91 114 149 198 237 287 358
#     4  12  22  36  66  88 120 160 192 240 302 354
#     4  10  21  37  60  89 119 156 200 239 296 356
#     4   8  13  27  54  84 117 144 184 240 283 343
#     4  10  22  38  58  80 117 155 196 252 295 341
#
# _framework density 22.987393000000001
#
# number of rings (size 3 to 8) (size 9 to 14) (size 15 to 20)
#    0.000    2.824    1.176    1.765    1.647    1.412 
#    0.000    5.294    2.588    1.412    0.000    0.000 
#    0.000    0.000    0.000    0.000    0.000    0.000 
#
# Total GULP energy -189440.041227 kJ/mol
# GULP energy per Si atom -5571.765918 kJ/mol
# Density = 2.293507 g / cm^3
# Si number density = 22.987393 Si / 1000 Ang^3
#
#
#
# Elastic Constant Matrix: (Units=GPa)
#
#
# Indices 1 2 3 4 5 6 
#
# 1 65.1263 17.0033 55.9360 0.0000 0.0000 0.0000
# 2 17.0033 134.8173 7.0030 0.0000 0.0000 0.0000
# 3 55.9360 7.0030 185.5710 0.0000 0.0000 0.0000
# 4 0.0000 0.0000 0.0000 2.9581 0.0000 0.0000
# 5 0.0000 0.0000 0.0000 0.0000 37.1106 0.0000
# 6 0.0000 0.0000 0.0000 0.0000 0.0000 -38.5447
#
#
#
# Elastic Compliance Matrix: (Units=1/GPa)
#
#
# Indices 1 2 3 4 5 6 
#
# 1 0.021451 -0.002374 -0.006376 0.000000 0.000000 0.000000
# 2 -0.002374 0.007695 0.000425 0.000000 0.000000 0.000000
# 3 -0.006376 0.000425 0.007295 0.000000 0.000000 0.000000
# 4 0.000000 0.000000 0.000000 0.338050 0.000000 0.000000
# 5 0.000000 0.000000 0.000000 0.000000 0.026947 0.000000
# 6 0.000000 0.000000 0.000000 0.000000 0.000000 -0.025944
#
#
# Mechanical properties :
#
#
# Convention : Reuss Voigt Hill
#
# Bulk Modulus (GPa) = 50.53034 60.59990 55.56512
# Shear Modulus (GPa) = 12.53948 20.67628 16.60788
#
# Velocity S-wave (km/s) = 2.33811 3.00236 2.69081
# Velocity P-wave (km/s) = 5.41466 6.19986 5.82052
#
# Compressibility (1/GPa) = 0.01979009
#
# Stress axis : x y z
#
# Youngs Moduli (GPa) = 46.61741 129.95792 137.08526
#
# Poissons Ratio (x) = 0.30855 0.87411
# Poissons Ratio (y) = 0.11068 -0.05830
# Poissons Ratio (z) = 0.29725 -0.05527
#
# Static dielectric constant tensor:
#      x y z
#    x 1.787500 0.000000 0.000000 
#    y 0.000000 1.940590 0.000000 
#    z 0.000000 0.000000 1.889110 
# 
# From -- ./inp_files/60612.got.cif
#   From: 2010.05.17/outbox.cif.g08.bks.cpg/sg74_31_cif.got.tgz:60612.got - 2010.06.03 17:57:02.
