data_PCOD9539894
_publ_section_title
;
Structure prediction by ZEFSAII (Michael W. Deem and Ramdas Pophale) SiO2 
 PCOD9539894
Probable space group: I M M A
;
_chemical_formula_sum "Si O2"
_cell_formula_units_Z 80
_cell_length_a 20.060510
_cell_length_b 10.866548
_cell_length_c 19.901602
_cell_angle_alpha 90.000000
_cell_angle_beta 90.000000
_cell_angle_gamma 90.000000
_cell_volume 4338.320264
_symmetry_space_group_name_H-M "I M M A"
_symmetry_group_IT_number 74
_symmetry_cell_setting 'orthorhombic'
loop_
_space_group_symop_operation_xyz
x,y,z
-x,1/2-y,z
x,-y,-z
-x,1/2+y,-z
-x,-y,-z
x,1/2+y,-z
-x,y,z
x,1/2-y,z
1/2+x,1/2+y,1/2+z
1/2-x,-y,1/2+z
1/2+x,1/2-y,1/2-z
1/2-x,y,1/2-z
1/2-x,1/2-y,1/2-z
1/2+x,y,1/2-z
1/2-x,1/2+y,1/2+z
1/2+x,-y,1/2+z
loop_
_atom_site_type_symbol
_atom_site_label
_atom_site_fract_x
_atom_site_fract_y
_atom_site_fract_z
Si Si1 0.421199 0.010464 0.824217
Si Si2 0.830300 0.107360 0.555846
Si Si3 0.074453 0.604539 0.175093
Si Si4 0.357988 0.250000 0.212382
Si Si5 0.813279 0.994325 0.076941
Si Si6 0.711807 0.750000 0.647147
O O1 0.500000 0.013661 0.839441
O O2 0.396308 0.871266 0.811968
O O3 0.378981 0.075524 0.882464
O O4 0.410037 0.076441 0.752723
O O5 0.839742 0.250000 0.533510
O O6 0.753512 0.088278 0.578532
O O7 0.841196 0.000000 0.500000
O O8 0.072640 0.750000 0.165831
O O9 0.129714 0.551701 0.126184
O O10 0.000000 0.553703 0.161611
O O11 0.343097 0.250000 0.292716
O O12 0.284645 0.250000 0.180144
O O13 0.794210 0.129717 0.102011
O O14 0.836231 0.000000 0.000000
#
# Coordination Sequence:
#
# PCOD9539894 Si02
#       6
#    16  16  16   8  16   8
#     4  11  23  41  65  91 127 167 211 265 321 380
#     4  11  26  43  66  96 129 166 215 267 323 390
#     4  10  22  41  62  88 122 163 210 258 315 384
#     4  11  21  40  64  96 129 165 212 266 327 380
#     4  11  24  39  65  90 129 165 210 260 323 377
#     4  11  22  40  64  98 128 163 208 276 320 380
#
# _framework density 18.440317
#
# number of rings (size 3 to 8) (size 9 to 14) (size 15 to 20)
#    0.000    1.200    4.000    1.500    8.400    2.800 
#    0.000    2.500    0.000    0.000    0.000    0.000 
#    0.000    0.000    0.000    0.000    0.000    0.000 
#
# Total GULP energy -223444.612852 kJ/mol
# GULP energy per Si atom -5586.115321 kJ/mol
# Density = 1.839835 g / cm^3
# Si number density = 18.440317 Si / 1000 Ang^3
#
#
#
# Elastic Constant Matrix: (Units=GPa)
#
#
# Indices 1 2 3 4 5 6 
#
# 1 109.1915 23.7753 77.4597 0.0000 0.0000 0.0000
# 2 23.7753 104.0880 34.7975 0.0000 0.0000 0.0000
# 3 77.4597 34.7975 111.8453 0.0000 0.0000 0.0000
# 4 0.0000 0.0000 0.0000 27.1595 0.0000 0.0000
# 5 0.0000 0.0000 0.0000 0.0000 8.5700 0.0000
# 6 0.0000 0.0000 0.0000 0.0000 0.0000 23.8928
#
#
#
# Elastic Compliance Matrix: (Units=1/GPa)
#
#
# Indices 1 2 3 4 5 6 
#
# 1 0.018003 0.000063 -0.012488 0.000000 0.000000 0.000000
# 2 0.000063 0.010723 -0.003379 0.000000 0.000000 0.000000
# 3 -0.012488 -0.003379 0.018641 0.000000 0.000000 0.000000
# 4 0.000000 0.000000 0.000000 0.036820 0.000000 0.000000
# 5 0.000000 0.000000 0.000000 0.000000 0.116687 0.000000
# 6 0.000000 0.000000 0.000000 0.000000 0.000000 0.041854
#
#
# Mechanical properties :
#
#
# Convention : Reuss Voigt Hill
#
# Bulk Modulus (GPa) = 63.46148 66.35444 64.90796
# Shear Modulus (GPa) = 17.88338 24.53061 21.20699
#
# Velocity S-wave (km/s) = 3.11754 3.65124 3.39489
# Velocity P-wave (km/s) = 6.88825 7.33736 7.11635
#
# Compressibility (1/GPa) = 0.01575759
#
# Stress axis : x y z
#
# Youngs Moduli (GPa) = 55.54484 93.25984 53.64520
#
# Poissons Ratio (x) = -0.00583 0.66992
# Poissons Ratio (y) = -0.00347 0.18129
# Poissons Ratio (z) = 0.69364 0.31516
#
# Static dielectric constant tensor:
#      x y z
#    x 1.627650 0.000000 0.000000 
#    y 0.000000 1.626850 0.000000 
#    z 0.000000 0.000000 1.630410 
# 
# From -- ./inp_files/45079.got.cif
#   From: 2010.05.17/outbox.cif.g08.bks.cpg/sg74_23_cif.got.tgz:45079.got - 2010.06.03 17:57:02.
