data_PCOD9539723
_publ_section_title
;
Structure prediction by ZEFSAII (Michael W. Deem and Ramdas Pophale) SiO2 
 PCOD9539723
Probable space group: I M M A
;
_chemical_formula_sum "Si O2"
_cell_formula_units_Z 56
_cell_length_a 17.516077
_cell_length_b 7.494855
_cell_length_c 22.354208
_cell_angle_alpha 90.000000
_cell_angle_beta 90.000000
_cell_angle_gamma 90.000000
_cell_volume 2934.670648
_symmetry_space_group_name_H-M "I M M A"
_symmetry_group_IT_number 74
_symmetry_cell_setting 'orthorhombic'
loop_
_space_group_symop_operation_xyz
x,y,z
-x,1/2-y,z
x,-y,-z
-x,1/2+y,-z
-x,-y,-z
x,1/2+y,-z
-x,y,z
x,1/2-y,z
1/2+x,1/2+y,1/2+z
1/2-x,-y,1/2+z
1/2+x,1/2-y,1/2-z
1/2-x,y,1/2-z
1/2-x,1/2-y,1/2-z
1/2+x,y,1/2-z
1/2-x,1/2+y,1/2+z
1/2+x,-y,1/2+z
loop_
_atom_site_type_symbol
_atom_site_label
_atom_site_fract_x
_atom_site_fract_y
_atom_site_fract_z
Si Si1 0.658854 0.750000 0.756338
Si Si2 0.800106 0.460104 0.930370
Si Si3 0.500000 0.462150 0.930284
Si Si4 0.353419 0.964433 0.143975
Si Si5 0.090966 0.250000 0.123731
O O1 0.750000 0.750000 0.750000
O O2 0.639886 0.574971 0.795264
O O3 0.617234 0.750000 0.692900
O O4 0.815509 0.250000 0.924013
O O5 0.726046 0.504147 0.889907
O O6 0.870028 0.579650 0.907973
O O7 0.783590 0.500000 0.000000
O O8 0.500000 0.250000 0.923317
O O9 0.576826 0.524302 0.898157
O O10 0.500000 0.500000 0.000000
O O11 0.356653 0.750000 0.153470
O O12 0.000000 0.250000 0.118622
#
# Coordination Sequence:
#
# PCOD9539723 Si02
#       5
#     8  16   8  16   8
#     4  12  24  44  70  90 128 175 226 261 318 394
#     4  11  22  42  69  95 129 171 212 269 333 392
#     4  10  22  38  60 102 138 174 210 264 323 381
#     4  10  23  40  64  97 134 171 218 265 319 383
#     4  12  28  46  64 101 129 169 225 272 327 384
#
# _framework density 19.08221
#
# number of rings (size 3 to 8) (size 9 to 14) (size 15 to 20)
#    0.000    1.143    4.286    0.857    4.000    2.857 
#    0.000    0.000    0.000    0.000    0.000    0.000 
#    0.000    0.000    0.000    0.000    0.000    0.000 
#
# Total GULP energy -156523.620991 kJ/mol
# GULP energy per Si atom -5590.129321 kJ/mol
# Density = 1.903878 g / cm^3
# Si number density = 19.082210 Si / 1000 Ang^3
#
#
#
# Elastic Constant Matrix: (Units=GPa)
#
#
# Indices 1 2 3 4 5 6 
#
# 1 98.8621 34.3911 -5.2112 0.0000 0.0000 0.0000
# 2 34.3911 90.5814 23.8453 0.0000 0.0000 0.0000
# 3 -5.2112 23.8453 77.2826 0.0000 0.0000 0.0000
# 4 0.0000 0.0000 0.0000 31.7159 0.0000 0.0000
# 5 0.0000 0.0000 0.0000 0.0000 32.9164 0.0000
# 6 0.0000 0.0000 0.0000 0.0000 0.0000 18.7102
#
#
#
# Elastic Compliance Matrix: (Units=1/GPa)
#
#
# Indices 1 2 3 4 5 6 
#
# 1 0.012057 -0.005215 0.002422 0.000000 0.000000 0.000000
# 2 -0.005215 0.014272 -0.004755 0.000000 0.000000 0.000000
# 3 0.002422 -0.004755 0.014570 0.000000 0.000000 0.000000
# 4 0.000000 0.000000 0.000000 0.031530 0.000000 0.000000
# 5 0.000000 0.000000 0.000000 0.000000 0.030380 0.000000
# 6 0.000000 0.000000 0.000000 0.000000 0.000000 0.053447
#
#
# Mechanical properties :
#
#
# Convention : Reuss Voigt Hill
#
# Bulk Modulus (GPa) = 38.75646 41.41962 40.08804
# Shear Modulus (GPa) = 27.78506 30.91522 29.35014
#
# Velocity S-wave (km/s) = 3.81999 4.02942 3.92610
# Velocity P-wave (km/s) = 6.30958 6.58797 6.45028
#
# Compressibility (1/GPa) = 0.02580215
#
# Stress axis : x y z
#
# Youngs Moduli (GPa) = 82.93904 70.06872 68.63393
#
# Poissons Ratio (x) = 0.36543 -0.16624
# Poissons Ratio (y) = 0.43256 0.32637
# Poissons Ratio (z) = -0.20089 0.33319
#
# Static dielectric constant tensor:
#      x y z
#    x 1.651120 0.000000 0.000000 
#    y 0.000000 1.667240 0.000000 
#    z 0.000000 0.000000 13.096510 
# 
# From -- ./inp_files/38902.got.cif
#   From: 2010.05.17/outbox.cif.g08.bks.cpg/sg74_20_cif.got.tgz:38902.got - 2010.06.03 17:57:02.
