data_PCOD9539136
_publ_section_title
;
Structure prediction by ZEFSAII (Michael W. Deem and Ramdas Pophale) SiO2 
 PCOD9539136
Probable space group: I M M A
;
_chemical_formula_sum "Si O2"
_cell_formula_units_Z 52
_cell_length_a 14.059195
_cell_length_b 7.666886
_cell_length_c 23.830054
_cell_angle_alpha 90.000000
_cell_angle_beta 90.000000
_cell_angle_gamma 90.000000
_cell_volume 2568.647367
_symmetry_space_group_name_H-M "I M M A"
_symmetry_group_IT_number 74
_symmetry_cell_setting 'orthorhombic'
loop_
_space_group_symop_operation_xyz
x,y,z
-x,1/2-y,z
x,-y,-z
-x,1/2+y,-z
-x,-y,-z
x,1/2+y,-z
-x,y,z
x,1/2-y,z
1/2+x,1/2+y,1/2+z
1/2-x,-y,1/2+z
1/2+x,1/2-y,1/2-z
1/2-x,y,1/2-z
1/2-x,1/2-y,1/2-z
1/2+x,y,1/2-z
1/2-x,1/2+y,1/2+z
1/2+x,-y,1/2+z
loop_
_atom_site_type_symbol
_atom_site_label
_atom_site_fract_x
_atom_site_fract_y
_atom_site_fract_z
Si Si1 0.155734 0.949515 0.935612
Si Si2 0.000000 0.750000 0.090731
Si Si3 0.281321 0.051517 0.839993
Si Si4 0.893784 0.453838 0.235694
O O1 0.118696 0.750000 0.933665
O O2 0.082408 0.094881 0.913287
O O3 0.249153 0.960101 0.896866
O O4 0.174246 0.000000 0.000000
O O5 0.307557 0.250000 0.851272
O O6 0.186089 0.045532 0.801244
O O7 0.361569 0.969030 0.800322
O O8 0.891773 0.250000 0.219946
O O9 0.000000 0.522992 0.226669
#
# Coordination Sequence:
#
# PCOD9539136 Si02
#       4
#    16   4  16  16
#     4  12  24  39  58  83 119 156 191 241 284 345
#     4  12  24  40  54  88 118 152 206 222 296 338
#     4  11  22  38  56  84 117 152 195 237 287 344
#     4  10  21  37  58  84 112 151 195 240 291 342
#
# _framework density 20.244118
#
# number of rings (size 3 to 8) (size 9 to 14) (size 15 to 20)
#    0.000    0.923    3.077    6.462    2.154    2.462 
#    0.000    0.000    0.000    0.923    0.000    0.000 
#    0.000    0.000    0.000    0.000    0.000    0.000 
#
# Total GULP energy -144759.612037 kJ/mol
# GULP energy per Si atom -5567.677386 kJ/mol
# Density = 2.019804 g / cm^3
# Si number density = 20.244118 Si / 1000 Ang^3
#
#
#
# Elastic Constant Matrix: (Units=GPa)
#
#
# Indices 1 2 3 4 5 6 
#
# 1 41.7529 -11.6347 2.0153 0.0000 0.0000 0.0000
# 2 -11.6347 148.2272 0.0133 0.0000 0.0000 0.0000
# 3 2.0153 0.0133 63.4851 0.0000 0.0000 0.0000
# 4 0.0000 0.0000 0.0000 17.7044 0.0000 0.0000
# 5 0.0000 0.0000 0.0000 0.0000 -5.2091 0.0000
# 6 0.0000 0.0000 0.0000 0.0000 0.0000 23.8582
#
#
#
# Elastic Compliance Matrix: (Units=1/GPa)
#
#
# Indices 1 2 3 4 5 6 
#
# 1 0.024524 0.001925 -0.000779 0.000000 0.000000 0.000000
# 2 0.001925 0.006898 -0.000063 0.000000 0.000000 0.000000
# 3 -0.000779 -0.000063 0.015776 0.000000 0.000000 0.000000
# 4 0.000000 0.000000 0.000000 0.056483 0.000000 0.000000
# 5 0.000000 0.000000 0.000000 0.000000 -0.191973 0.000000
# 6 0.000000 0.000000 0.000000 0.000000 0.000000 0.041914
#
#
# Mechanical properties :
#
#
# Convention : Reuss Voigt Hill
#
# Bulk Modulus (GPa) = 20.25703 26.02811 23.14257
# Shear Modulus (GPa) = -155.81367 24.80880 -65.50243
#
# Velocity S-wave (km/s) = -8.78262 3.50449 -5.69443
# Velocity P-wave (km/s) = 9.63420 5.40928 5.63727
#
# Compressibility (1/GPa) = 0.04936558
#
# Stress axis : x y z
#
# Youngs Moduli (GPa) = 40.77566 144.97992 63.38551
#
# Poissons Ratio (x) = -0.27909 0.04937
# Poissons Ratio (y) = -0.07850 0.00397
# Poissons Ratio (z) = 0.03176 0.00907
#
# Static dielectric constant tensor:
#      x y z
#    x 1.711240 0.000000 0.000000 
#    y 0.000000 1.726910 0.000000 
#    z 0.000000 0.000000 1.770170 
# 
# From -- ./inp_files/56245.got.cif
#   From: 2010.05.17/outbox.cif.g08.bks.cpg/sg74_29_cif.got.tgz:56245.got - 2010.06.03 17:57:02.
