data_PCOD9539229
_publ_section_title
;
Structure prediction by ZEFSAII (Michael W. Deem and Ramdas Pophale) SiO2 
 PCOD9539229
Probable space group: I M M A
;
_chemical_formula_sum "Si O2"
_cell_formula_units_Z 88
_cell_length_a 27.627888
_cell_length_b 24.004637
_cell_length_c 6.296070
_cell_angle_alpha 90.000000
_cell_angle_beta 90.000000
_cell_angle_gamma 90.000000
_cell_volume 4175.537396
_symmetry_space_group_name_H-M "I M M A"
_symmetry_group_IT_number 74
_symmetry_cell_setting 'orthorhombic'
loop_
_space_group_symop_operation_xyz
x,y,z
-x,1/2-y,z
x,-y,-z
-x,1/2+y,-z
-x,-y,-z
x,1/2+y,-z
-x,y,z
x,1/2-y,z
1/2+x,1/2+y,1/2+z
1/2-x,-y,1/2+z
1/2+x,1/2-y,1/2-z
1/2-x,y,1/2-z
1/2-x,1/2-y,1/2-z
1/2+x,y,1/2-z
1/2-x,1/2+y,1/2+z
1/2+x,-y,1/2+z
loop_
_atom_site_type_symbol
_atom_site_label
_atom_site_fract_x
_atom_site_fract_y
_atom_site_fract_z
Si Si1 0.000000 0.313027 0.613453
Si Si2 0.500000 0.061510 0.111349
Si Si3 0.831408 0.389111 0.448495
Si Si4 0.250000 0.390100 0.750000
Si Si5 0.597914 0.556505 0.622392
Si Si6 0.100276 0.658211 0.188689
Si Si7 0.690954 0.812052 0.568621
O O1 0.000000 0.375514 0.497844
O O2 0.049538 0.314776 0.748792
O O3 0.000000 0.250000 0.505052
O O4 0.451363 0.058262 0.247072
O O5 0.500000 0.000000 0.000000
O O6 0.790543 0.417494 0.597548
O O7 0.858983 0.429187 0.285239
O O8 0.870412 0.358771 0.599450
O O9 0.809328 0.341098 0.297656
O O10 0.280556 0.351443 0.592235
O O11 0.607214 0.500000 0.500000
O O12 0.591510 0.601957 0.439898
O O13 0.136706 0.689884 0.030209
O O14 0.710552 0.750000 0.572477
#
# Coordination Sequence:
#
# PCOD9539229 Si02
#       7
#     8   8  16   8  16  16  16
#     4  12  23  39  65  96 144 194 227 273 349 415
#     4  12  24  43  70 105 141 178 239 289 339 407
#     4  10  22  39  61  94 127 169 217 277 343 403
#     4  10  21  38  62  94 126 170 212 280 341 412
#     4  11  23  41  69  99 126 175 226 287 342 404
#     4  10  22  42  60  94 134 177 223 271 337 404
#     4  10  21  37  62  95 128 171 224 273 331 405
#
# _framework density 21.075133000000001
#
# number of rings (size 3 to 8) (size 9 to 14) (size 15 to 20)
#    0.000    1.455    1.818    3.273    0.000    5.091 
#    0.000    1.818    0.000    0.000  170.182    0.000 
#    0.000    0.000    0.000    0.000    0.000    0.000 
#
# Total GULP energy -245422.716075 kJ/mol
# GULP energy per Si atom -5577.789002 kJ/mol
# Density = 2.102717 g / cm^3
# Si number density = 21.075133 Si / 1000 Ang^3
#
#
#
# Elastic Constant Matrix: (Units=GPa)
#
#
# Indices 1 2 3 4 5 6 
#
# 1 93.1040 6.4139 29.7073 0.0000 0.0000 0.0000
# 2 6.4139 111.4824 39.0064 0.0000 0.0000 0.0000
# 3 29.7073 39.0064 109.3671 0.0000 0.0000 0.0000
# 4 0.0000 0.0000 0.0000 -30.2320 0.0000 0.0000
# 5 0.0000 0.0000 0.0000 0.0000 49.8236 0.0000
# 6 0.0000 0.0000 0.0000 0.0000 0.0000 -6.8013
#
#
#
# Elastic Compliance Matrix: (Units=1/GPa)
#
#
# Indices 1 2 3 4 5 6 
#
# 1 0.011785 0.000505 -0.003381 0.000000 0.000000 0.000000
# 2 0.000505 0.010271 -0.003800 0.000000 0.000000 0.000000
# 3 -0.003381 -0.003800 0.011417 0.000000 0.000000 0.000000
# 4 0.000000 0.000000 0.000000 -0.033077 0.000000 0.000000
# 5 0.000000 0.000000 0.000000 0.000000 0.020071 0.000000
# 6 0.000000 0.000000 0.000000 0.000000 0.000000 -0.147030
#
#
# Mechanical properties :
#
#
# Convention : Reuss Voigt Hill
#
# Bulk Modulus (GPa) = 49.70215 51.57874 50.64045
# Shear Modulus (GPa) = -46.94633 18.47978 -14.23328
#
# Velocity S-wave (km/s) = -4.72483 2.96438 -2.60159
# Velocity P-wave (km/s) = 2.47606 6.02027 3.88025
#
# Compressibility (1/GPa) = 0.02011985
#
# Stress axis : x y z
#
# Youngs Moduli (GPa) = 84.85543 97.36497 87.58610
#
# Poissons Ratio (x) = -0.04917 0.29615
# Poissons Ratio (y) = -0.04285 0.33285
# Poissons Ratio (z) = 0.28691 0.37001
#
# Static dielectric constant tensor:
#      x y z
#    x 1.777250 0.000000 0.000000 
#    y 0.000000 1.776230 0.000000 
#    z 0.000000 0.000000 1.714670 
# 
# From -- ./inp_files/5177.got.cif
#   From: 2010.05.17/outbox.cif.g08.bks.cpg/sg74_3_cif.got.tgz:5177.got - 2010.06.03 17:57:02.
