data_PCOD9539461
_publ_section_title
;
Structure prediction by ZEFSAII (Michael W. Deem and Ramdas Pophale) SiO2 
 PCOD9539461
Probable space group: I M M A
;
_chemical_formula_sum "Si O2"
_cell_formula_units_Z 68
_cell_length_a 7.717576
_cell_length_b 17.618474
_cell_length_c 22.513282
_cell_angle_alpha 90.000000
_cell_angle_beta 90.000000
_cell_angle_gamma 90.000000
_cell_volume 3061.174001
_symmetry_space_group_name_H-M "I M M A"
_symmetry_group_IT_number 74
_symmetry_cell_setting 'orthorhombic'
loop_
_space_group_symop_operation_xyz
x,y,z
-x,1/2-y,z
x,-y,-z
-x,1/2+y,-z
-x,-y,-z
x,1/2+y,-z
-x,y,z
x,1/2-y,z
1/2+x,1/2+y,1/2+z
1/2-x,-y,1/2+z
1/2+x,1/2-y,1/2-z
1/2-x,y,1/2-z
1/2-x,1/2-y,1/2-z
1/2+x,y,1/2-z
1/2-x,1/2+y,1/2+z
1/2+x,-y,1/2+z
loop_
_atom_site_type_symbol
_atom_site_label
_atom_site_fract_x
_atom_site_fract_y
_atom_site_fract_z
Si Si1 0.792296 0.054659 0.813622
Si Si2 0.201501 0.077398 0.468951
Si Si3 0.750000 0.250000 0.250000
Si Si4 0.289828 0.835267 0.416979
Si Si5 0.203952 0.887415 0.836000
O O1 0.750000 0.089492 0.750000
O O2 0.727694 0.104572 0.868168
O O3 0.000000 0.049241 0.819777
O O4 0.723303 0.968864 0.815549
O O5 0.221679 0.140809 0.519036
O O6 0.281941 0.106246 0.407443
O O7 0.000000 0.062315 0.456112
O O8 0.274558 0.000000 0.500000
O O9 0.717085 0.316912 0.199134
O O10 0.500000 0.838509 0.418924
O O11 0.239265 0.750000 0.401158
O O12 0.000000 0.880837 0.821397
#
# Coordination Sequence:
#
# PCOD9539461 Si02
#       5
#    16  16   4  16  16
#     4  10  21  39  63  90 120 162 208 256 313 379
#     4  11  24  41  65  96 129 168 215 271 330 385
#     4  12  26  44  64  98 132 172 226 278 326 396
#     4  10  22  41  64  91 125 165 213 264 318 386
#     4  11  24  42  65  92 127 173 218 264 322 388
#
# _framework density 22.213698000000001
#
# number of rings (size 3 to 8) (size 9 to 14) (size 15 to 20)
#    0.000    1.412    3.529    1.059    1.647    5.647 
#    0.000    0.000    0.000    0.000    0.000    0.000 
#    0.000    0.000    0.000    0.000    0.000    0.000 
#
# Total GULP energy -189477.926315 kJ/mol
# GULP energy per Si atom -5572.880186 kJ/mol
# Density = 2.216314 g / cm^3
# Si number density = 22.213698 Si / 1000 Ang^3
#
#
#
# Elastic Constant Matrix: (Units=GPa)
#
#
# Indices 1 2 3 4 5 6 
#
# 1 44.2906 14.9722 -2.9697 0.0000 0.0000 0.0000
# 2 14.9722 151.3882 64.7635 0.0000 0.0000 0.0000
# 3 -2.9697 64.7635 179.4566 0.0000 0.0000 0.0000
# 4 0.0000 0.0000 0.0000 45.3991 0.0000 0.0000
# 5 0.0000 0.0000 0.0000 0.0000 16.5558 0.0000
# 6 0.0000 0.0000 0.0000 0.0000 0.0000 43.0248
#
#
#
# Elastic Compliance Matrix: (Units=1/GPa)
#
#
# Indices 1 2 3 4 5 6 
#
# 1 0.023679 -0.002968 0.001463 0.000000 0.000000 0.000000
# 2 -0.002968 0.008183 -0.003002 0.000000 0.000000 0.000000
# 3 0.001463 -0.003002 0.006680 0.000000 0.000000 0.000000
# 4 0.000000 0.000000 0.000000 0.022027 0.000000 0.000000
# 5 0.000000 0.000000 0.000000 0.000000 0.060402 0.000000
# 6 0.000000 0.000000 0.000000 0.000000 0.000000 0.023242
#
#
# Mechanical properties :
#
#
# Convention : Reuss Voigt Hill
#
# Bulk Modulus (GPa) = 33.86557 58.74083 46.30320
# Shear Modulus (GPa) = 30.66143 40.88724 35.77434
#
# Velocity S-wave (km/s) = 3.71926 4.29491 4.01741
# Velocity P-wave (km/s) = 5.80709 7.14814 6.51223
#
# Compressibility (1/GPa) = 0.02952852
#
# Stress axis : x y z
#
# Youngs Moduli (GPa) = 42.23076 122.19772 149.69796
#
# Poissons Ratio (x) = 0.36264 -0.21899
# Poissons Ratio (y) = 0.12533 0.44946
# Poissons Ratio (z) = -0.06178 0.36689
#
# Static dielectric constant tensor:
#      x y z
#    x 1.849640 0.000000 0.000000 
#    y 0.000000 1.812460 0.000000 
#    z 0.000000 0.000000 1.826120 
# 
# From -- ./inp_files/48107.got.cif
#   From: 2010.05.17/outbox.cif.g08.bks.cpg/sg74_25_cif.got.tgz:48107.got - 2010.06.03 17:57:02.
