data_PCOD9539625
_publ_section_title
;
Structure prediction by ZEFSAII (Michael W. Deem and Ramdas Pophale) SiO2 
 PCOD9539625
Probable space group: I M M A
;
_chemical_formula_sum "Si O2"
_cell_formula_units_Z 52
_cell_length_a 18.143108
_cell_length_b 13.273827
_cell_length_c 10.098995
_cell_angle_alpha 90.000000
_cell_angle_beta 90.000000
_cell_angle_gamma 90.000000
_cell_volume 2432.125583
_symmetry_space_group_name_H-M "I M M A"
_symmetry_group_IT_number 74
_symmetry_cell_setting 'orthorhombic'
loop_
_space_group_symop_operation_xyz
x,y,z
-x,1/2-y,z
x,-y,-z
-x,1/2+y,-z
-x,-y,-z
x,1/2+y,-z
-x,y,z
x,1/2-y,z
1/2+x,1/2+y,1/2+z
1/2-x,-y,1/2+z
1/2+x,1/2-y,1/2-z
1/2-x,y,1/2-z
1/2-x,1/2-y,1/2-z
1/2+x,y,1/2-z
1/2-x,1/2+y,1/2+z
1/2+x,-y,1/2+z
loop_
_atom_site_type_symbol
_atom_site_label
_atom_site_fract_x
_atom_site_fract_y
_atom_site_fract_z
Si Si1 0.633000 0.250000 0.200342
Si Si2 0.366093 0.087545 0.606263
Si Si3 0.414700 0.026525 0.150136
Si Si4 0.722509 0.250000 0.474776
Si Si5 0.500000 0.750000 0.397289
O O1 0.590507 0.354323 0.178785
O O2 0.666508 0.250000 0.348511
O O3 0.698326 0.250000 0.092556
O O4 0.295567 0.152367 0.562075
O O5 0.435009 0.163033 0.603139
O O6 0.377792 0.000000 0.500000
O O7 0.363985 0.033984 0.748141
O O8 0.500000 0.995199 0.170016
O O9 0.394912 0.000000 0.000000
#
# Coordination Sequence:
#
# PCOD9539625 Si02
#       5
#     8  16  16   8   4
#     4  11  23  46  65  99 139 180 226 279 349 421
#     4  11  21  40  66 101 129 177 230 283 352 406
#     4  11  25  44  67 100 137 182 225 291 358 415
#     4  10  24  41  68  99 137 178 229 289 334 416
#     4  10  22  32  62 100 144 150 224 302 338 406
#
# _framework density 21.380476000000002
#
# number of rings (size 3 to 8) (size 9 to 14) (size 15 to 20)
#    0.000    1.231    4.615    0.923    0.000    3.692 
#    0.000    1.538    0.000    0.000    0.000    0.000 
#    0.000    0.000    0.000    0.000    0.000    0.000 
#
# Total GULP energy -144886.831762 kJ/mol
# GULP energy per Si atom -5572.570452 kJ/mol
# Density = 2.133181 g / cm^3
# Si number density = 21.380476 Si / 1000 Ang^3
#
#
#
# Elastic Constant Matrix: (Units=GPa)
#
#
# Indices 1 2 3 4 5 6 
#
# 1 36.5513 10.8347 37.5082 0.0000 0.0000 0.0000
# 2 10.8347 150.7993 60.1103 0.0000 0.0000 0.0000
# 3 37.5082 60.1103 146.7924 0.0000 0.0000 0.0000
# 4 0.0000 0.0000 0.0000 36.0094 0.0000 0.0000
# 5 0.0000 0.0000 0.0000 0.0000 3.9856 0.0000
# 6 0.0000 0.0000 0.0000 0.0000 0.0000 75.3713
#
#
#
# Elastic Compliance Matrix: (Units=1/GPa)
#
#
# Indices 1 2 3 4 5 6 
#
# 1 0.037306 0.001338 -0.010080 0.000000 0.000000 0.000000
# 2 0.001338 0.007973 -0.003607 0.000000 0.000000 0.000000
# 3 -0.010080 -0.003607 0.010865 0.000000 0.000000 0.000000
# 4 0.000000 0.000000 0.000000 0.027771 0.000000 0.000000
# 5 0.000000 0.000000 0.000000 0.000000 0.250901 0.000000
# 6 0.000000 0.000000 0.000000 0.000000 0.000000 0.013268
#
#
# Mechanical properties :
#
#
# Convention : Reuss Voigt Hill
#
# Bulk Modulus (GPa) = 31.80073 61.22771 46.51422
# Shear Modulus (GPa) = 13.04585 38.11925 25.58255
#
# Velocity S-wave (km/s) = 2.47285 4.22702 3.46285
# Velocity P-wave (km/s) = 4.80202 7.24727 6.14745
#
# Compressibility (1/GPa) = 0.03144582
#
# Stress axis : x y z
#
# Youngs Moduli (GPa) = 26.80502 125.42550 92.03919
#
# Poissons Ratio (x) = -0.16778 0.92778
# Poissons Ratio (y) = -0.03586 0.33195
# Poissons Ratio (z) = 0.27020 0.45236
#
# Static dielectric constant tensor:
#      x y z
#    x 1.758980 0.000000 0.000000 
#    y 0.000000 1.734230 0.000000 
#    z 0.000000 0.000000 1.767120 
# 
# From -- ./inp_files/11613.got.cif
#   From: 2010.05.17/outbox.cif.g08.bks.cpg/sg74_6_cif.got.tgz:11613.got - 2010.06.03 17:57:02.
