data_PCOD9539572
_publ_section_title
;
Structure prediction by ZEFSAII (Michael W. Deem and Ramdas Pophale) SiO2 
 PCOD9539572
Probable space group: I M M A
;
_chemical_formula_sum "Si O2"
_cell_formula_units_Z 72
_cell_length_a 24.278671
_cell_length_b 9.534105
_cell_length_c 14.436413
_cell_angle_alpha 90.000000
_cell_angle_beta 90.000000
_cell_angle_gamma 90.000000
_cell_volume 3341.674453
_symmetry_space_group_name_H-M "I M M A"
_symmetry_group_IT_number 74
_symmetry_cell_setting 'orthorhombic'
loop_
_space_group_symop_operation_xyz
x,y,z
-x,1/2-y,z
x,-y,-z
-x,1/2+y,-z
-x,-y,-z
x,1/2+y,-z
-x,y,z
x,1/2-y,z
1/2+x,1/2+y,1/2+z
1/2-x,-y,1/2+z
1/2+x,1/2-y,1/2-z
1/2-x,y,1/2-z
1/2-x,1/2-y,1/2-z
1/2+x,y,1/2-z
1/2-x,1/2+y,1/2+z
1/2+x,-y,1/2+z
loop_
_atom_site_type_symbol
_atom_site_label
_atom_site_fract_x
_atom_site_fract_y
_atom_site_fract_z
Si Si1 0.756178 0.000000 0.000000
Si Si2 0.664811 0.411045 0.662077
Si Si3 0.319634 0.910688 0.831323
Si Si4 0.438339 0.583785 0.596378
Si Si5 0.059503 0.584331 0.594913
O O1 0.716085 0.924469 0.925527
O O2 0.797212 0.081833 0.930189
O O3 0.650027 0.250000 0.679165
O O4 0.693911 0.480217 0.750649
O O5 0.611236 0.508120 0.647999
O O6 0.314618 0.750000 0.797930
O O7 0.383608 0.942089 0.853691
O O8 0.440349 0.500000 0.500000
O O9 0.500000 0.572925 0.637702
O O10 0.427060 0.750000 0.583777
O O11 0.061211 0.500000 0.500000
O O12 0.059745 0.750000 0.575135
O O13 0.000000 0.551920 0.640505
#
# Coordination Sequence:
#
# PCOD9539572 Si02
#       5
#     8  16  16  16  16
#     4  12  26  46  70  94 128 180 232 286 340 398
#     4  12  27  44  68 101 136 176 226 279 336 402
#     4  11  25  44  68  98 133 175 225 280 341 404
#     4  10  21  40  69 102 136 175 219 270 333 402
#     4   9  18  36  64  96 128 165 209 262 327 394
#
# _framework density 21.546085000000001
#
# number of rings (size 3 to 8) (size 9 to 14) (size 15 to 20)
#    0.000    1.333    2.222    2.667    0.000    9.333 
#    0.000    2.222    0.000    0.000    0.000    0.000 
#    0.000    0.000    0.000    0.000    0.000    0.000 
#
# Total GULP energy -200905.894056 kJ/mol
# GULP energy per Si atom -5580.719279 kJ/mol
# Density = 2.149704 g / cm^3
# Si number density = 21.546085 Si / 1000 Ang^3
#
#
#
# Elastic Constant Matrix: (Units=GPa)
#
#
# Indices 1 2 3 4 5 6 
#
# 1 181.7519 75.8617 50.6705 0.0000 0.0000 0.0000
# 2 75.8617 137.7138 62.7966 0.0000 0.0000 0.0000
# 3 50.6705 62.7966 124.0418 0.0000 0.0000 0.0000
# 4 0.0000 0.0000 0.0000 24.8280 0.0000 0.0000
# 5 0.0000 0.0000 0.0000 0.0000 -2.2385 0.0000
# 6 0.0000 0.0000 0.0000 0.0000 0.0000 705.3918
#
#
#
# Elastic Compliance Matrix: (Units=1/GPa)
#
#
# Indices 1 2 3 4 5 6 
#
# 1 0.007286 -0.003454 -0.001228 0.000000 0.000000 0.000000
# 2 -0.003454 0.011078 -0.004197 0.000000 0.000000 0.000000
# 3 -0.001228 -0.004197 0.010688 0.000000 0.000000 0.000000
# 4 0.000000 0.000000 0.000000 0.040277 0.000000 0.000000
# 5 0.000000 0.000000 0.000000 0.000000 -0.446728 0.000000
# 6 0.000000 0.000000 0.000000 0.000000 0.000000 0.001418
#
#
# Mechanical properties :
#
#
# Convention : Reuss Voigt Hill
#
# Bulk Modulus (GPa) = 88.54026 91.35168 89.94597
# Shear Modulus (GPa) = -14.10602 162.54151 74.21775
#
# Velocity S-wave (km/s) = -2.56147 8.69499 5.87544
# Velocity P-wave (km/s) = 5.69513 11.97055 9.37359
#
# Compressibility (1/GPa) = 0.01129430
#
# Stress axis : x y z
#
# Youngs Moduli (GPa) = 137.25281 90.26957 93.56004
#
# Poissons Ratio (x) = 0.31176 0.11487
# Poissons Ratio (y) = 0.47402 0.39271
# Poissons Ratio (z) = 0.16852 0.37890
#
# Static dielectric constant tensor:
#      x y z
#    x 1.880920 0.000000 0.000000 
#    y 0.000000 1.731590 0.000000 
#    z 0.000000 0.000000 1.794200 
# 
# From -- ./inp_files/37066.got.cif
#   From: 2010.05.17/outbox.cif.g08.bks.cpg/sg74_19_cif.got.tgz:37066.got - 2010.06.03 17:57:02.
