data_PCOD9539181
_publ_section_title
;
Structure prediction by ZEFSAII (Michael W. Deem and Ramdas Pophale) SiO2 
 PCOD9539181
Probable space group: I M M A
;
_chemical_formula_sum "Si O2"
_cell_formula_units_Z 100
_cell_length_a 9.965371
_cell_length_b 25.147877
_cell_length_c 20.241722
_cell_angle_alpha 90.000000
_cell_angle_beta 90.000000
_cell_angle_gamma 90.000000
_cell_volume 5072.735932
_symmetry_space_group_name_H-M "I M M A"
_symmetry_group_IT_number 74
_symmetry_cell_setting 'orthorhombic'
loop_
_space_group_symop_operation_xyz
x,y,z
-x,1/2-y,z
x,-y,-z
-x,1/2+y,-z
-x,-y,-z
x,1/2+y,-z
-x,y,z
x,1/2-y,z
1/2+x,1/2+y,1/2+z
1/2-x,-y,1/2+z
1/2+x,1/2-y,1/2-z
1/2-x,y,1/2-z
1/2-x,1/2-y,1/2-z
1/2+x,y,1/2-z
1/2-x,1/2+y,1/2+z
1/2+x,-y,1/2+z
loop_
_atom_site_type_symbol
_atom_site_label
_atom_site_fract_x
_atom_site_fract_y
_atom_site_fract_z
Si Si1 0.838200 0.046647 0.048062
Si Si2 0.658059 0.625277 0.314063
Si Si3 0.848527 0.685435 0.691989
Si Si4 0.344224 0.997893 0.688920
Si Si5 0.148500 0.188233 0.593413
Si Si6 0.753345 0.834348 0.954663
Si Si7 0.500000 0.250000 0.455370
O O1 0.788698 0.104738 0.030123
O O2 0.000000 0.046768 0.044769
O O3 0.801520 0.032226 0.122958
O O4 0.788939 0.000000 0.000000
O O5 0.500000 0.639723 0.306971
O O6 0.750000 0.637604 0.250000
O O7 0.663501 0.561536 0.323807
O O8 0.731047 0.655338 0.373918
O O9 0.843467 0.750000 0.692050
O O10 0.750000 0.666582 0.750000
O O11 0.808255 0.668390 0.618565
O O12 0.000000 0.669003 0.707329
O O13 0.500000 0.985597 0.703206
O O14 0.250000 0.984898 0.750000
O O15 0.161711 0.250000 0.612878
O O16 0.159934 0.184844 0.514363
O O17 0.000000 0.169035 0.614359
O O18 0.882734 0.796419 0.954773
#
# Coordination Sequence:
#
# PCOD9539181 Si02
#       7
#    16  16  16  16  16  16   4
#     4  10  21  37  59  88 120 157 200 251 301 353
#     4  10  21  38  64  91 121 156 197 247 301 362
#     4  10  22  38  60  86 121 162 206 256 312 368
#     4   9  19  38  61  88 117 152 196 243 299 356
#     4  11  24  40  60  85 121 161 203 250 303 362
#     4  12  23  39  62  88 129 156 208 251 306 364
#     4  12  24  36  62 100 120 164 200 256 302 368
#
# _framework density 19.713228000000001
#
# number of rings (size 3 to 8) (size 9 to 14) (size 15 to 20)
#    0.000    1.600    2.400    1.920    2.240    4.480 
#    0.000    3.200    0.000    3.360    0.000    0.000 
#    0.000    0.000    0.000    0.000    0.000    0.000 
#
# Total GULP energy -278743.700097 kJ/mol
# GULP energy per Si atom -5574.874002 kJ/mol
# Density = 1.966836 g / cm^3
# Si number density = 19.713228 Si / 1000 Ang^3
#
#
#
# Elastic Constant Matrix: (Units=GPa)
#
#
# Indices 1 2 3 4 5 6 
#
# 1 114.7766 41.6784 40.3362 0.0000 0.0000 0.0000
# 2 41.6784 85.3116 27.2261 0.0000 0.0000 0.0000
# 3 40.3362 27.2261 62.4500 0.0000 0.0000 0.0000
# 4 0.0000 0.0000 0.0000 29.8328 0.0000 0.0000
# 5 0.0000 0.0000 0.0000 0.0000 10.8198 0.0000
# 6 0.0000 0.0000 0.0000 0.0000 0.0000 11.0272
#
#
#
# Elastic Compliance Matrix: (Units=1/GPa)
#
#
# Indices 1 2 3 4 5 6 
#
# 1 0.012373 -0.004059 -0.006222 0.000000 0.000000 0.000000
# 2 -0.004059 0.014948 -0.003895 0.000000 0.000000 0.000000
# 3 -0.006222 -0.003895 0.021730 0.000000 0.000000 0.000000
# 4 0.000000 0.000000 0.000000 0.033520 0.000000 0.000000
# 5 0.000000 0.000000 0.000000 0.000000 0.092423 0.000000
# 6 0.000000 0.000000 0.000000 0.000000 0.000000 0.090685
#
#
# Mechanical properties :
#
#
# Convention : Reuss Voigt Hill
#
# Bulk Modulus (GPa) = 48.31324 53.44663 50.87993
# Shear Modulus (GPa) = 16.61508 20.55579 18.58544
#
# Velocity S-wave (km/s) = 2.90632 3.23265 3.07382
# Velocity P-wave (km/s) = 5.98527 6.41126 6.20193
#
# Compressibility (1/GPa) = 0.02069826
#
# Stress axis : x y z
#
# Youngs Moduli (GPa) = 80.81965 66.89937 46.01986
#
# Poissons Ratio (x) = 0.27155 0.28634
# Poissons Ratio (y) = 0.32806 0.17925
# Poissons Ratio (z) = 0.50287 0.26057
#
# Static dielectric constant tensor:
#      x y z
#    x 1.680610 0.000000 0.000000 
#    y 0.000000 1.687400 0.000000 
#    z 0.000000 0.000000 1.697730 
# 
# From -- ./inp_files/49256.got.cif
#   From: 2010.05.17/outbox.cif.g08.bks.cpg/sg74_25_cif.got.tgz:49256.got - 2010.06.03 17:57:02.
