data_PCOD9539023
_publ_section_title
;
Structure prediction by ZEFSAII (Michael W. Deem and Ramdas Pophale) SiO2 
 PCOD9539023
Probable space group: I M M A
;
_chemical_formula_sum "Si O2"
_cell_formula_units_Z 80
_cell_length_a 18.335991
_cell_length_b 14.277470
_cell_length_c 14.847187
_cell_angle_alpha 90.000000
_cell_angle_beta 90.000000
_cell_angle_gamma 90.000000
_cell_volume 3886.868267
_symmetry_space_group_name_H-M "I M M A"
_symmetry_group_IT_number 74
_symmetry_cell_setting 'orthorhombic'
loop_
_space_group_symop_operation_xyz
x,y,z
-x,1/2-y,z
x,-y,-z
-x,1/2+y,-z
-x,-y,-z
x,1/2+y,-z
-x,y,z
x,1/2-y,z
1/2+x,1/2+y,1/2+z
1/2-x,-y,1/2+z
1/2+x,1/2-y,1/2-z
1/2-x,y,1/2-z
1/2-x,1/2-y,1/2-z
1/2+x,y,1/2-z
1/2-x,1/2+y,1/2+z
1/2+x,-y,1/2+z
loop_
_atom_site_type_symbol
_atom_site_label
_atom_site_fract_x
_atom_site_fract_y
_atom_site_fract_z
Si Si1 0.582208 0.903152 0.943825
Si Si2 0.583973 0.537396 0.355747
Si Si3 0.818256 0.007265 0.301676
Si Si4 0.717334 0.851745 0.054002
Si Si5 0.131311 0.141550 0.033138
O O1 0.500000 0.866730 0.932176
O O2 0.624155 0.925386 0.850880
O O3 0.640099 0.847995 0.003857
O O4 0.576080 0.000000 0.000000
O O5 0.500000 0.541356 0.328895
O O6 0.636250 0.551785 0.271354
O O7 0.598378 0.609777 0.436817
O O8 0.602465 0.434267 0.396008
O O9 0.750000 0.053200 0.250000
O O10 0.786219 0.936322 0.376017
O O11 0.733053 0.750000 0.096032
O O12 0.781667 0.869154 0.981950
O O13 0.114956 0.250000 0.053506
#
# Coordination Sequence:
#
# PCOD9539023 Si02
#       5
#    16  16  16  16  16
#     4   9  19  35  55  79 111 150 189 232 282 337
#     4  11  23  37  59  90 117 155 200 240 297 353
#     4  11  20  35  59  84 116 151 189 239 288 346
#     4  10  21  36  59  87 114 152 195 235 290 353
#     4  10  21  39  60  85 118 156 198 242 288 350
#
# _framework density 20.582122999999999
#
# number of rings (size 3 to 8) (size 9 to 14) (size 15 to 20)
#    0.000    1.800    2.000    3.000    5.600    4.000 
#    0.000    1.000    0.000    6.000    0.000    0.000 
#    0.000    0.000    0.000    0.000    0.000    0.000 
#
# Total GULP energy -223270.138264 kJ/mol
# GULP energy per Si atom -5581.753457 kJ/mol
# Density = 2.053528 g / cm^3
# Si number density = 20.582123 Si / 1000 Ang^3
#
#
#
# Elastic Constant Matrix: (Units=GPa)
#
#
# Indices 1 2 3 4 5 6 
#
# 1 140.4924 1.6455 12.5628 0.0000 0.0000 0.0000
# 2 1.6455 62.8452 -11.7993 0.0000 0.0000 0.0000
# 3 12.5628 -11.7993 42.6866 0.0000 0.0000 0.0000
# 4 0.0000 0.0000 0.0000 1.2385 0.0000 0.0000
# 5 0.0000 0.0000 0.0000 0.0000 27.7740 0.0000
# 6 0.0000 0.0000 0.0000 0.0000 0.0000 38.3318
#
#
#
# Elastic Compliance Matrix: (Units=1/GPa)
#
#
# Indices 1 2 3 4 5 6 
#
# 1 0.007334 -0.000630 -0.002332 0.000000 0.000000 0.000000
# 2 -0.000630 0.016837 0.004839 0.000000 0.000000 0.000000
# 3 -0.002332 0.004839 0.025451 0.000000 0.000000 0.000000
# 4 0.000000 0.000000 0.000000 0.807430 0.000000 0.000000
# 5 0.000000 0.000000 0.000000 0.000000 0.036005 0.000000
# 6 0.000000 0.000000 0.000000 0.000000 0.000000 0.026088
#
#
# Mechanical properties :
#
#
# Convention : Reuss Voigt Hill
#
# Bulk Modulus (GPa) = 18.73507 27.87137 23.30322
# Shear Modulus (GPa) = 5.35801 29.70987 17.53394
#
# Velocity S-wave (km/s) = 1.61520 3.80344 2.92190
# Velocity P-wave (km/s) = 3.54977 5.73229 4.76760
#
# Compressibility (1/GPa) = 0.05337583
#
# Stress axis : x y z
#
# Youngs Moduli (GPa) = 136.35546 59.39219 39.29163
#
# Poissons Ratio (x) = 0.03741 0.09165
# Poissons Ratio (y) = 0.08590 -0.19015
# Poissons Ratio (z) = 0.31805 -0.28743
#
# Static dielectric constant tensor:
#      x y z
#    x 1.757450 0.000000 0.000000 
#    y 0.000000 1.723830 0.000000 
#    z 0.000000 0.000000 1.734910 
# 
# From -- ./inp_files/42683.got.cif
#   From: 2010.05.17/outbox.cif.g08.bks.cpg/sg74_22_cif.got.tgz:42683.got - 2010.06.03 17:57:02.
