data_PCOD9539301
_publ_section_title
;
Structure prediction by ZEFSAII (Michael W. Deem and Ramdas Pophale) SiO2 
 PCOD9539301
Probable space group: I M M A
;
_chemical_formula_sum "Si O2"
_cell_formula_units_Z 64
_cell_length_a 24.363433
_cell_length_b 16.210864
_cell_length_c 8.417128
_cell_angle_alpha 90.000000
_cell_angle_beta 90.000000
_cell_angle_gamma 90.000000
_cell_volume 3324.364054
_symmetry_space_group_name_H-M "I M M A"
_symmetry_group_IT_number 74
_symmetry_cell_setting 'orthorhombic'
loop_
_space_group_symop_operation_xyz
x,y,z
-x,1/2-y,z
x,-y,-z
-x,1/2+y,-z
-x,-y,-z
x,1/2+y,-z
-x,y,z
x,1/2-y,z
1/2+x,1/2+y,1/2+z
1/2-x,-y,1/2+z
1/2+x,1/2-y,1/2-z
1/2-x,y,1/2-z
1/2-x,1/2-y,1/2-z
1/2+x,y,1/2-z
1/2-x,1/2+y,1/2+z
1/2+x,-y,1/2+z
loop_
_atom_site_type_symbol
_atom_site_label
_atom_site_fract_x
_atom_site_fract_y
_atom_site_fract_z
Si Si1 0.688315 0.481072 0.186171
Si Si2 0.500000 0.343039 0.778743
Si Si3 0.398742 0.078247 0.605953
Si Si4 0.893911 0.845713 0.778510
Si Si5 0.000000 0.914268 0.604297
O O1 0.750000 0.480888 0.250000
O O2 0.652508 0.546447 0.289954
O O3 0.658977 0.393058 0.211707
O O4 0.686645 0.500000 0.000000
O O5 0.500000 0.250000 0.717074
O O6 0.553375 0.390335 0.717763
O O7 0.500000 0.345738 0.967481
O O8 0.388897 0.145759 0.469365
O O9 0.416548 0.000000 0.500000
O O10 0.898564 0.750000 0.734037
O O11 0.946233 0.897120 0.710598
O O12 0.000000 0.000000 0.500000
#
# Coordination Sequence:
#
# PCOD9539301 Si02
#       5
#    16   8  16  16   8
#     4  11  23  42  65  87 115 157 206 251 298 361
#     4  12  22  34  56  88 122 151 191 245 297 348
#     4  10  21  38  60  86 119 159 201 242 294 359
#     4  11  22  38  61  90 125 160 199 251 307 356
#     4  12  23  38  59  88 125 163 202 239 291 362
#
# _framework density 19.251801
#
# number of rings (size 3 to 8) (size 9 to 14) (size 15 to 20)
#    0.000    1.000    0.000   10.500    0.000    0.500 
#    0.000    1.250    0.000    5.250    0.000    0.000 
#    0.000    0.000    0.000    0.000    0.000    0.000 
#
# Total GULP energy -178711.962309 kJ/mol
# GULP energy per Si atom -5584.748822 kJ/mol
# Density = 1.920798 g / cm^3
# Si number density = 19.251801 Si / 1000 Ang^3
#
#
#
# Elastic Constant Matrix: (Units=GPa)
#
#
# Indices 1 2 3 4 5 6 
#
# 1 161.7626 78.0351 63.7035 0.0000 0.0000 0.0000
# 2 78.0351 114.9688 41.8852 0.0000 0.0000 0.0000
# 3 63.7035 41.8852 143.8113 0.0000 0.0000 0.0000
# 4 0.0000 0.0000 0.0000 17.7323 0.0000 0.0000
# 5 0.0000 0.0000 0.0000 0.0000 34.1670 0.0000
# 6 0.0000 0.0000 0.0000 0.0000 0.0000 21.4793
#
#
#
# Elastic Compliance Matrix: (Units=1/GPa)
#
#
# Indices 1 2 3 4 5 6 
#
# 1 0.010089 -0.005839 -0.002768 0.000000 0.000000 0.000000
# 2 -0.005839 0.013110 -0.001232 0.000000 0.000000 0.000000
# 3 -0.002768 -0.001232 0.008539 0.000000 0.000000 0.000000
# 4 0.000000 0.000000 0.000000 0.056394 0.000000 0.000000
# 5 0.000000 0.000000 0.000000 0.000000 0.029268 0.000000
# 6 0.000000 0.000000 0.000000 0.000000 0.000000 0.046556
#
#
# Mechanical properties :
#
#
# Convention : Reuss Voigt Hill
#
# Bulk Modulus (GPa) = 82.92619 87.53224 85.22921
# Shear Modulus (GPa) = 26.64461 30.47031 28.55746
#
# Velocity S-wave (km/s) = 3.72426 3.98266 3.85563
# Velocity P-wave (km/s) = 7.85248 8.16790 8.01174
#
# Compressibility (1/GPa) = 0.01205892
#
# Stress axis : x y z
#
# Youngs Moduli (GPa) = 99.11726 76.27630 117.11529
#
# Poissons Ratio (x) = 0.44541 0.32422
# Poissons Ratio (y) = 0.57878 0.14425
# Poissons Ratio (z) = 0.27439 0.09395
#
# Static dielectric constant tensor:
#      x y z
#    x 1.640910 0.000000 0.000000 
#    y 0.000000 1.710780 0.000000 
#    z 0.000000 0.000000 1.698540 
# 
# From -- ./inp_files/11865.got.cif
#   From: 2010.05.17/outbox.cif.g08.bks.cpg/sg74_6_cif.got.tgz:11865.got - 2010.06.03 17:57:02.
