data_PCOD9539419
_publ_section_title
;
Structure prediction by ZEFSAII (Michael W. Deem and Ramdas Pophale) SiO2 
 PCOD9539419
Probable space group: I M M A
;
_chemical_formula_sum "Si O2"
_cell_formula_units_Z 96
_cell_length_a 8.781208
_cell_length_b 22.336424
_cell_length_c 24.410444
_cell_angle_alpha 90.000000
_cell_angle_beta 90.000000
_cell_angle_gamma 90.000000
_cell_volume 4787.883651
_symmetry_space_group_name_H-M "I M M A"
_symmetry_group_IT_number 74
_symmetry_cell_setting 'orthorhombic'
loop_
_space_group_symop_operation_xyz
x,y,z
-x,1/2-y,z
x,-y,-z
-x,1/2+y,-z
-x,-y,-z
x,1/2+y,-z
-x,y,z
x,1/2-y,z
1/2+x,1/2+y,1/2+z
1/2-x,-y,1/2+z
1/2+x,1/2-y,1/2-z
1/2-x,y,1/2-z
1/2-x,1/2-y,1/2-z
1/2+x,y,1/2-z
1/2-x,1/2+y,1/2+z
1/2+x,-y,1/2+z
loop_
_atom_site_type_symbol
_atom_site_label
_atom_site_fract_x
_atom_site_fract_y
_atom_site_fract_z
Si Si1 0.179671 0.121485 0.416978
Si Si2 0.680351 0.065043 0.807809
Si Si3 0.818650 0.491514 0.915531
Si Si4 0.319325 0.818801 0.352286
Si Si5 0.318523 0.179116 0.308061
Si Si6 0.318955 0.633082 0.471948
O O1 0.254796 0.146596 0.361702
O O2 0.235275 0.152724 0.473059
O O3 0.000000 0.125845 0.411771
O O4 0.231952 0.052945 0.424762
O O5 0.500000 0.054606 0.810746
O O6 0.750000 0.046954 0.750000
O O7 0.769261 0.031080 0.855775
O O8 0.718837 0.134871 0.818419
O O9 0.781297 0.435797 0.955348
O O10 0.000000 0.501462 0.918955
O O11 0.500000 0.833246 0.344759
O O12 0.294557 0.750000 0.337794
O O13 0.286594 0.829487 0.416893
O O14 0.500000 0.172328 0.306291
O O15 0.281947 0.250000 0.312659
O O16 0.250000 0.157641 0.250000
O O17 0.500000 0.635727 0.481827
#
# Coordination Sequence:
#
# PCOD9539419 Si02
#       6
#    16  16  16  16  16  16
#     4  12  24  36  57  89 119 149 187 227 271 331
#     4  11  22  37  57  82 113 148 188 234 285 337
#     4  10  21  39  60  82 112 149 189 233 282 334
#     4   9  19  37  59  82 111 149 192 236 283 334
#     4  10  22  42  65  86 112 146 184 229 280 331
#     4   9  19  36  57  82 114 152 189 230 281 332
#
# _framework density 20.050612999999998
#
# number of rings (size 3 to 8) (size 9 to 14) (size 15 to 20)
#    0.000    1.833    0.000    5.500    0.000    8.333 
#    0.000    5.000    0.000    0.000    0.000    0.000 
#    0.000    0.000    0.000    0.000    0.000    0.000 
#
# Total GULP energy -268259.271120 kJ/mol
# GULP energy per Si atom -5588.734815 kJ/mol
# Density = 2.000498 g / cm^3
# Si number density = 20.050613 Si / 1000 Ang^3
#
#
#
# Elastic Constant Matrix: (Units=GPa)
#
#
# Indices 1 2 3 4 5 6 
#
# 1 27.3157 0.0308 20.3263 0.0000 0.0000 0.0000
# 2 0.0308 7.5827 -9.2337 0.0000 0.0000 0.0000
# 3 20.3263 -9.2337 118.9657 0.0000 0.0000 0.0000
# 4 0.0000 0.0000 0.0000 -1.3172 0.0000 0.0000
# 5 0.0000 0.0000 0.0000 0.0000 32.8992 0.0000
# 6 0.0000 0.0000 0.0000 0.0000 0.0000 15.7325
#
#
#
# Elastic Compliance Matrix: (Units=1/GPa)
#
#
# Indices 1 2 3 4 5 6 
#
# 1 0.042615 -0.009983 -0.008056 0.000000 0.000000 0.000000
# 2 -0.009983 0.147984 0.013192 0.000000 0.000000 0.000000
# 3 -0.008056 0.013192 0.010806 0.000000 0.000000 0.000000
# 4 0.000000 0.000000 0.000000 -0.759210 0.000000 0.000000
# 5 0.000000 0.000000 0.000000 0.000000 0.030396 0.000000
# 6 0.000000 0.000000 0.000000 0.000000 0.000000 0.063563
#
#
# Mechanical properties :
#
#
# Convention : Reuss Voigt Hill
#
# Bulk Modulus (GPa) = 5.21619 19.56789 12.39204
# Shear Modulus (GPa) = -12.81239 18.97894 3.08328
#
# Velocity S-wave (km/s) = -2.53059 3.07995 1.24140
# Velocity P-wave (km/s) = 2.43544 4.73588 2.87203
#
# Compressibility (1/GPa) = 0.19171067
#
# Stress axis : x y z
#
# Youngs Moduli (GPa) = 23.46599 6.75747 92.54038
#
# Poissons Ratio (x) = 0.06746 0.74550
# Poissons Ratio (y) = 0.23426 -1.22076
# Poissons Ratio (z) = 0.18904 -0.08914
#
# Static dielectric constant tensor:
#      x y z
#    x 1.667230 0.000000 0.000000 
#    y 0.000000 1.726670 0.000000 
#    z 0.000000 0.000000 1.807020 
# 
# From -- ./inp_files/57272.got.cif
#   From: 2010.05.17/outbox.cif.g08.bks.cpg/sg74_29_cif.got.tgz:57272.got - 2010.06.03 17:57:02.
