data_PCOD9539948
_publ_section_title
;
Structure prediction by ZEFSAII (Michael W. Deem and Ramdas Pophale) SiO2 
 PCOD9539948
Probable space group: I M M A
;
_chemical_formula_sum "Si O2"
_cell_formula_units_Z 56
_cell_length_a 17.196026
_cell_length_b 8.718657
_cell_length_c 19.017332
_cell_angle_alpha 90.000000
_cell_angle_beta 90.000000
_cell_angle_gamma 90.000000
_cell_volume 2851.197318
_symmetry_space_group_name_H-M "I M M A"
_symmetry_group_IT_number 74
_symmetry_cell_setting 'orthorhombic'
loop_
_space_group_symop_operation_xyz
x,y,z
-x,1/2-y,z
x,-y,-z
-x,1/2+y,-z
-x,-y,-z
x,1/2+y,-z
-x,y,z
x,1/2-y,z
1/2+x,1/2+y,1/2+z
1/2-x,-y,1/2+z
1/2+x,1/2-y,1/2-z
1/2-x,y,1/2-z
1/2-x,1/2-y,1/2-z
1/2+x,y,1/2-z
1/2-x,1/2+y,1/2+z
1/2+x,-y,1/2+z
loop_
_atom_site_type_symbol
_atom_site_label
_atom_site_fract_x
_atom_site_fract_y
_atom_site_fract_z
Si Si1 0.590251 0.933943 0.296008
Si Si2 0.849198 0.932872 0.656276
Si Si3 0.000000 0.566169 0.421666
Si Si4 0.301016 0.566921 0.422102
O O1 0.500000 0.980005 0.289230
O O2 0.594649 0.750000 0.284347
O O3 0.624562 0.965868 0.372960
O O4 0.642187 0.015489 0.237082
O O5 0.850957 0.750000 0.651022
O O6 0.772975 0.997051 0.618260
O O7 0.923988 0.004846 0.617829
O O8 0.000000 0.500000 0.500000
O O9 0.000000 0.750000 0.422252
O O10 0.307519 0.500000 0.500000
O O11 0.291200 0.750000 0.426375
#
# Coordination Sequence:
#
# PCOD9539948 Si02
#       4
#    16  16   8  16
#     4  10  22  42  67  93 125 168 213 258 314 377
#     4  12  24  40  63  94 127 163 209 260 313 373
#     4  12  24  40  62  90 127 166 205 254 312 376
#     4  11  24  42  64  92 127 169 213 261 317 373
#
# _framework density 19.640871000000001
#
# number of rings (size 3 to 8) (size 9 to 14) (size 15 to 20)
#    0.000    0.857    1.429    6.429    0.000    6.286 
#    0.000    0.000    0.000    0.000    0.000    0.000 
#    0.000    0.000    0.000    0.000    0.000    0.000 
#
# Total GULP energy -156710.707243 kJ/mol
# GULP energy per Si atom -5596.810973 kJ/mol
# Density = 1.959617 g / cm^3
# Si number density = 19.640871 Si / 1000 Ang^3
#
#
#
# Elastic Constant Matrix: (Units=GPa)
#
#
# Indices 1 2 3 4 5 6 
#
# 1 44.4625 31.0667 44.4519 0.0000 0.0000 0.0000
# 2 31.0667 109.5371 72.6389 0.0000 0.0000 0.0000
# 3 44.4519 72.6389 167.5679 0.0000 0.0000 0.0000
# 4 0.0000 0.0000 0.0000 39.8104 0.0000 0.0000
# 5 0.0000 0.0000 0.0000 0.0000 71.4552 0.0000
# 6 0.0000 0.0000 0.0000 0.0000 0.0000 18.9879
#
#
#
# Elastic Compliance Matrix: (Units=1/GPa)
#
#
# Indices 1 2 3 4 5 6 
#
# 1 0.032376 -0.004894 -0.006467 0.000000 0.000000 0.000000
# 2 -0.004894 0.013552 -0.004577 0.000000 0.000000 0.000000
# 3 -0.006467 -0.004577 0.009667 0.000000 0.000000 0.000000
# 4 0.000000 0.000000 0.000000 0.025119 0.000000 0.000000
# 5 0.000000 0.000000 0.000000 0.000000 0.013995 0.000000
# 6 0.000000 0.000000 0.000000 0.000000 0.000000 0.052665
#
#
# Mechanical properties :
#
#
# Convention : Reuss Voigt Hill
#
# Bulk Modulus (GPa) = 42.15792 68.65363 55.40577
# Shear Modulus (GPa) = 26.71572 37.61136 32.16354
#
# Velocity S-wave (km/s) = 3.69210 4.38077 4.05110
# Velocity P-wave (km/s) = 6.29972 7.78579 7.08184
#
# Compressibility (1/GPa) = 0.02372034
#
# Stress axis : x y z
#
# Youngs Moduli (GPa) = 30.88730 73.78889 103.44246
#
# Poissons Ratio (x) = 0.36110 0.66898
# Poissons Ratio (y) = 0.15115 0.47341
# Poissons Ratio (z) = 0.19975 0.33770
#
# Static dielectric constant tensor:
#      x y z
#    x 1.663950 0.000000 0.000000 
#    y 0.000000 1.657800 0.000000 
#    z 0.000000 0.000000 1.668940 
# 
# From -- ./inp_files/28506.got.cif
#   From: 2010.05.17/outbox.cif.g08.bks.cpg/sg74_15_cif.got.tgz:28506.got - 2010.06.03 17:57:02.
