data_PCOD9539755
_publ_section_title
;
Structure prediction by ZEFSAII (Michael W. Deem and Ramdas Pophale) SiO2 
 PCOD9539755
Probable space group: I M M A
;
_chemical_formula_sum "Si O2"
_cell_formula_units_Z 112
_cell_length_a 31.320899
_cell_length_b 14.382291
_cell_length_c 10.962877
_cell_angle_alpha 90.000000
_cell_angle_beta 90.000000
_cell_angle_gamma 90.000000
_cell_volume 4938.406462
_symmetry_space_group_name_H-M "I M M A"
_symmetry_group_IT_number 74
_symmetry_cell_setting 'orthorhombic'
loop_
_space_group_symop_operation_xyz
x,y,z
-x,1/2-y,z
x,-y,-z
-x,1/2+y,-z
-x,-y,-z
x,1/2+y,-z
-x,y,z
x,1/2-y,z
1/2+x,1/2+y,1/2+z
1/2-x,-y,1/2+z
1/2+x,1/2-y,1/2-z
1/2-x,y,1/2-z
1/2-x,1/2-y,1/2-z
1/2+x,y,1/2-z
1/2-x,1/2+y,1/2+z
1/2+x,-y,1/2+z
loop_
_atom_site_type_symbol
_atom_site_label
_atom_site_fract_x
_atom_site_fract_y
_atom_site_fract_z
Si Si1 0.615422 0.638883 0.203319
Si Si2 0.206756 0.137804 0.808019
Si Si3 0.550141 0.355300 0.280771
Si Si4 0.951328 0.362938 0.496314
Si Si5 0.255468 0.358130 0.442305
Si Si6 0.114168 0.480638 0.131650
Si Si7 0.180186 0.859106 0.715040
O O1 0.611229 0.750000 0.217359
O O2 0.665776 0.615414 0.225233
O O3 0.588249 0.612293 0.083694
O O4 0.597625 0.577109 0.312805
O O5 0.206074 0.250000 0.810061
O O6 0.250000 0.102297 0.750000
O O7 0.215417 0.105935 0.946650
O O8 0.500000 0.353950 0.300295
O O9 0.566404 0.250000 0.282400
O O10 0.574073 0.413766 0.381065
O O11 0.556351 0.393668 0.142840
O O12 0.952431 0.250000 0.492821
O O13 0.000000 0.391466 0.533883
O O14 0.245768 0.250000 0.473445
O O15 0.208786 0.394661 0.399897
O O16 0.286073 0.357441 0.325902
O O17 0.143245 0.424386 0.230449
O O18 0.133927 0.500000 0.000000
O O19 0.167074 0.750000 0.693131
#
# Coordination Sequence:
#
# PCOD9539755 Si02
#       7
#    16  16  16  16  16  16  16
#     4  10  22  39  58  85 124 167 210 256 314 381
#     4   9  17  31  52  77 111 156 196 240 306 374
#     4   9  20  41  67  93 122 157 202 262 324 379
#     4   8  16  36  66  93 117 153 203 259 318 378
#     4   8  15  31  56  82 107 140 189 244 301 361
#     4  12  25  37  56  87 123 164 211 257 311 381
#     4   9  18  35  59  83 108 145 199 261 309 354
#
# _framework density 22.679379999999998
#
# number of rings (size 3 to 8) (size 9 to 14) (size 15 to 20)
#    0.000    2.714    0.000    3.000    0.000    4.857 
#    2.571    5.714    0.000    1.714    0.000    0.000 
#    0.000    0.000    0.000    0.000    0.000    0.000 
#
# Total GULP energy -311841.390116 kJ/mol
# GULP energy per Si atom -5568.596252 kJ/mol
# Density = 2.262776 g / cm^3
# Si number density = 22.679380 Si / 1000 Ang^3
#
#
#
# Elastic Constant Matrix: (Units=GPa)
#
#
# Indices 1 2 3 4 5 6 
#
# 1 114.0039 31.8844 58.5036 0.0000 0.0000 0.0000
# 2 31.8844 77.8933 15.1558 0.0000 0.0000 0.0000
# 3 58.5036 15.1558 61.4851 0.0000 0.0000 0.0000
# 4 0.0000 0.0000 0.0000 11.4012 0.0000 0.0000
# 5 0.0000 0.0000 0.0000 0.0000 113.2346 0.0000
# 6 0.0000 0.0000 0.0000 0.0000 0.0000 -1.6729
#
#
#
# Elastic Compliance Matrix: (Units=1/GPa)
#
#
# Indices 1 2 3 4 5 6 
#
# 1 0.018442 -0.004343 -0.016477 0.000000 0.000000 0.000000
# 2 -0.004343 0.014508 0.000556 0.000000 0.000000 0.000000
# 3 -0.016477 0.000556 0.031805 0.000000 0.000000 0.000000
# 4 0.000000 0.000000 0.000000 0.087710 0.000000 0.000000
# 5 0.000000 0.000000 0.000000 0.000000 0.008831 0.000000
# 6 0.000000 0.000000 0.000000 0.000000 0.000000 -0.597755
#
#
# Mechanical properties :
#
#
# Convention : Reuss Voigt Hill
#
# Bulk Modulus (GPa) = 41.27622 51.60777 46.44200
# Shear Modulus (GPa) = -12.89136 34.44848 10.77856
#
# Velocity S-wave (km/s) = -2.38674 3.90158 2.18241
# Velocity P-wave (km/s) = 3.26252 6.56515 5.18388
#
# Compressibility (1/GPa) = 0.02422702
#
# Stress axis : x y z
#
# Youngs Moduli (GPa) = 54.22469 68.92966 31.44162
#
# Poissons Ratio (x) = 0.29935 0.51806
# Poissons Ratio (y) = 0.23549 -0.01749
# Poissons Ratio (z) = 0.89346 -0.03834
#
# Static dielectric constant tensor:
#      x y z
#    x 1.898210 0.000000 0.000000 
#    y 0.000000 1.883040 0.000000 
#    z 0.000000 0.000000 1.835620 
# 
# From -- ./inp_files/27257.got.cif
#   From: 2010.05.17/outbox.cif.g08.bks.cpg/sg74_14_cif.got.tgz:27257.got - 2010.06.03 17:57:02.
