data_PCOD9539002
_publ_section_title
;
Structure prediction by ZEFSAII (Michael W. Deem and Ramdas Pophale) SiO2 
 PCOD9539002
Probable space group: I M M A
;
_chemical_formula_sum "Si O2"
_cell_formula_units_Z 116
_cell_length_a 26.389886
_cell_length_b 16.713399
_cell_length_c 13.149548
_cell_angle_alpha 90.000000
_cell_angle_beta 90.000000
_cell_angle_gamma 90.000000
_cell_volume 5799.801369
_symmetry_space_group_name_H-M "I M M A"
_symmetry_group_IT_number 74
_symmetry_cell_setting 'orthorhombic'
loop_
_space_group_symop_operation_xyz
x,y,z
-x,1/2-y,z
x,-y,-z
-x,1/2+y,-z
-x,-y,-z
x,1/2+y,-z
-x,y,z
x,1/2-y,z
1/2+x,1/2+y,1/2+z
1/2-x,-y,1/2+z
1/2+x,1/2-y,1/2-z
1/2-x,y,1/2-z
1/2-x,1/2-y,1/2-z
1/2+x,y,1/2-z
1/2-x,1/2+y,1/2+z
1/2+x,-y,1/2+z
loop_
_atom_site_type_symbol
_atom_site_label
_atom_site_fract_x
_atom_site_fract_y
_atom_site_fract_z
Si Si1 0.797453 0.551684 0.804086
Si Si2 0.557422 0.455626 0.099926
Si Si3 0.917846 0.890118 0.283592
Si Si4 0.123710 0.563045 0.083175
Si Si5 0.500000 0.250000 0.824406
Si Si6 0.216701 0.345349 0.999406
Si Si7 0.144883 0.157747 0.361684
Si Si8 0.182037 0.656883 0.404546
O O1 0.750000 0.510781 0.750000
O O2 0.838195 0.492159 0.850906
O O3 0.824367 0.606270 0.719549
O O4 0.776367 0.607055 0.895452
O O5 0.500000 0.432821 0.076119
O O6 0.560580 0.524080 0.183881
O O7 0.589204 0.379598 0.131991
O O8 0.579308 0.500000 0.000000
O O9 0.912970 0.893155 0.161758
O O10 0.861608 0.881954 0.334954
O O11 0.955068 0.820395 0.321248
O O12 0.160569 0.628879 0.033752
O O13 0.102219 0.500000 0.000000
O O14 0.221545 0.250000 0.013651
O O15 0.259393 0.370632 0.916341
O O16 0.145793 0.250000 0.331738
O O17 0.164919 0.151865 0.477305
O O18 0.183237 0.750000 0.373247
#
# Coordination Sequence:
#
# PCOD9539002 Si02
#       8
#    16  16  16  16   4  16  16  16
#     4  11  21  37  61  90 130 178 217 257 308 380
#     4  11  23  40  61  91 126 166 208 264 329 386
#     4  12  23  43  67  91 130 163 213 269 328 391
#     4  10  25  42  62  94 125 166 210 268 325 382
#     4  12  28  44  72 102 114 168 222 272 338 404
#     4  10  22  38  58  91 130 169 217 260 311 378
#     4  11  22  37  60  91 127 174 222 259 310 375
#     4  10  21  36  57  93 135 169 208 257 307 382
#
# _framework density 20.000685000000001
#
# number of rings (size 3 to 8) (size 9 to 14) (size 15 to 20)
#    0.000    1.241    5.517    0.414    2.897    0.828 
#    2.483    1.724    0.000    0.000    0.000    0.000 
#    0.000    0.000    0.000    0.000    0.000    0.000 
#
# Total GULP energy -323208.378069 kJ/mol
# GULP energy per Si atom -5572.558243 kJ/mol
# Density = 1.995516 g / cm^3
# Si number density = 20.000685 Si / 1000 Ang^3
#
#
#
# Elastic Constant Matrix: (Units=GPa)
#
#
# Indices 1 2 3 4 5 6 
#
# 1 32.6439 -12.2024 -2.2318 0.0000 0.0000 0.0000
# 2 -12.2024 32.2940 -7.2506 0.0000 0.0000 0.0000
# 3 -2.2318 -7.2506 56.6431 0.0000 0.0000 0.0000
# 4 0.0000 0.0000 0.0000 18.9097 0.0000 0.0000
# 5 0.0000 0.0000 0.0000 0.0000 12.0195 0.0000
# 6 0.0000 0.0000 0.0000 0.0000 0.0000 29.3300
#
#
#
# Elastic Compliance Matrix: (Units=1/GPa)
#
#
# Indices 1 2 3 4 5 6 
#
# 1 0.036253 0.014434 0.003276 0.000000 0.000000 0.000000
# 2 0.014434 0.037628 0.005385 0.000000 0.000000 0.000000
# 3 0.003276 0.005385 0.018473 0.000000 0.000000 0.000000
# 4 0.000000 0.000000 0.000000 0.052883 0.000000 0.000000
# 5 0.000000 0.000000 0.000000 0.000000 0.083198 0.000000
# 6 0.000000 0.000000 0.000000 0.000000 0.000000 0.034095
#
#
# Mechanical properties :
#
#
# Convention : Reuss Voigt Hill
#
# Bulk Modulus (GPa) = 7.21789 8.69016 7.95403
# Shear Modulus (GPa) = 19.04605 21.60288 20.32447
#
# Velocity S-wave (km/s) = 3.08924 3.29006 3.19123
# Velocity P-wave (km/s) = 4.04242 4.33440 4.19096
#
# Compressibility (1/GPa) = 0.13854458
#
# Stress axis : x y z
#
# Youngs Moduli (GPa) = 27.58392 26.57564 54.13360
#
# Poissons Ratio (x) = -0.38359 -0.17734
# Poissons Ratio (y) = -0.39814 -0.29153
# Poissons Ratio (z) = -0.09036 -0.14312
#
# Static dielectric constant tensor:
#      x y z
#    x 1.744890 0.000000 0.000000 
#    y 0.000000 1.684520 0.000000 
#    z 0.000000 0.000000 1.754650 
# 
# From -- ./inp_files/22840.got.cif
#   From: 2010.05.17/outbox.cif.g08.bks.cpg/sg74_12_cif.got.tgz:22840.got - 2010.06.03 17:57:02.
