data_PCOD9539277
_publ_section_title
;
Structure prediction by ZEFSAII (Michael W. Deem and Ramdas Pophale) SiO2 
 PCOD9539277
Probable space group: I M M A
;
_chemical_formula_sum "Si O2"
_cell_formula_units_Z 88
_cell_length_a 22.555674
_cell_length_b 8.319083
_cell_length_c 24.445173
_cell_angle_alpha 90.000000
_cell_angle_beta 90.000000
_cell_angle_gamma 90.000000
_cell_volume 4586.953964
_symmetry_space_group_name_H-M "I M M A"
_symmetry_group_IT_number 74
_symmetry_cell_setting 'orthorhombic'
loop_
_space_group_symop_operation_xyz
x,y,z
-x,1/2-y,z
x,-y,-z
-x,1/2+y,-z
-x,-y,-z
x,1/2+y,-z
-x,y,z
x,1/2-y,z
1/2+x,1/2+y,1/2+z
1/2-x,-y,1/2+z
1/2+x,1/2-y,1/2-z
1/2-x,y,1/2-z
1/2-x,1/2-y,1/2-z
1/2+x,y,1/2-z
1/2-x,1/2+y,1/2+z
1/2+x,-y,1/2+z
loop_
_atom_site_type_symbol
_atom_site_label
_atom_site_fract_x
_atom_site_fract_y
_atom_site_fract_z
Si Si1 0.724487 0.561891 0.690698
Si Si2 0.500000 0.440311 0.437113
Si Si3 0.933016 0.057166 0.437841
Si Si4 0.159027 0.059356 0.649249
Si Si5 0.437145 0.445646 0.766374
Si Si6 0.901839 0.558122 0.147306
O O1 0.712425 0.750000 0.698889
O O2 0.750000 0.497166 0.750000
O O3 0.779331 0.532162 0.650139
O O4 0.666226 0.487950 0.661944
O O5 0.500000 0.250000 0.438319
O O6 0.500000 0.500000 0.500000
O O7 0.559263 0.493894 0.403413
O O8 0.927678 0.250000 0.434394
O O9 0.000000 0.011808 0.420193
O O10 0.927047 0.000000 0.500000
O O11 0.882945 0.974418 0.401851
O O12 0.170089 0.250000 0.654701
O O13 0.119624 0.998818 0.700487
O O14 0.500000 0.500048 0.790007
O O15 0.435847 0.250000 0.768618
O O16 0.433739 0.493385 0.703516
O O17 0.904288 0.750000 0.143145
#
# Coordination Sequence:
#
# PCOD9539277 Si02
#       6
#    16   8  16  16  16  16
#     4  11  23  38  57  87 128 168 205 250 306 368
#     4  12  26  46  70  98 128 166 211 262 321 378
#     4  10  21  38  59  84 116 156 199 248 299 352
#     4  11  21  35  58  87 120 161 206 249 296 360
#     4   9  17  30  53  86 120 154 196 245 298 355
#     4  11  21  39  65  92 122 160 206 255 308 369
#
# _framework density 19.184843999999998
#
# number of rings (size 3 to 8) (size 9 to 14) (size 15 to 20)
#    0.000    1.455    2.727    3.545    0.000    2.545 
#    0.000    0.909    0.000    0.000    0.000    0.000 
#    0.000    0.000    0.000    0.000    0.000    0.000 
#
# Total GULP energy -245433.285382 kJ/mol
# GULP energy per Si atom -5578.029213 kJ/mol
# Density = 1.914118 g / cm^3
# Si number density = 19.184844 Si / 1000 Ang^3
#
#
#
# Elastic Constant Matrix: (Units=GPa)
#
#
# Indices 1 2 3 4 5 6 
#
# 1 156.2166 21.4140 60.1531 0.0000 0.0000 0.0000
# 2 21.4140 53.5251 24.2865 0.0000 0.0000 0.0000
# 3 60.1531 24.2865 119.3399 0.0000 0.0000 0.0000
# 4 0.0000 0.0000 0.0000 24.0687 0.0000 0.0000
# 5 0.0000 0.0000 0.0000 0.0000 97.1232 0.0000
# 6 0.0000 0.0000 0.0000 0.0000 0.0000 19.9738
#
#
#
# Elastic Compliance Matrix: (Units=1/GPa)
#
#
# Indices 1 2 3 4 5 6 
#
# 1 0.008054 -0.001521 -0.003750 0.000000 0.000000 0.000000
# 2 -0.001521 0.020871 -0.003481 0.000000 0.000000 0.000000
# 3 -0.003750 -0.003481 0.010978 0.000000 0.000000 0.000000
# 4 0.000000 0.000000 0.000000 0.041548 0.000000 0.000000
# 5 0.000000 0.000000 0.000000 0.000000 0.010296 0.000000
# 6 0.000000 0.000000 0.000000 0.000000 0.000000 0.050066
#
#
# Mechanical properties :
#
#
# Convention : Reuss Voigt Hill
#
# Bulk Modulus (GPa) = 44.64403 60.08763 52.36583
# Shear Modulus (GPa) = 29.97934 43.11501 36.54718
#
# Velocity S-wave (km/s) = 3.95734 4.74576 4.36937
# Velocity P-wave (km/s) = 6.64843 7.83697 7.26704
#
# Compressibility (1/GPa) = 0.02239941
#
# Stress axis : x y z
#
# Youngs Moduli (GPa) = 124.16483 47.91435 91.09103
#
# Poissons Ratio (x) = 0.07286 0.34160
# Poissons Ratio (y) = 0.18880 0.31708
# Poissons Ratio (z) = 0.46563 0.16678
#
# Static dielectric constant tensor:
#      x y z
#    x 1.708420 0.000000 0.000000 
#    y 0.000000 1.667430 0.000000 
#    z 0.000000 0.000000 1.691570 
# 
# From -- ./inp_files/61429.got.cif
#   From: 2010.05.17/outbox.cif.g08.bks.cpg/sg74_31_cif.got.tgz:61429.got - 2010.06.03 17:57:02.
