data_PCOD9539632
_publ_section_title
;
Structure prediction by ZEFSAII (Michael W. Deem and Ramdas Pophale) SiO2 
 PCOD9539632
Probable space group: I M M A
;
_chemical_formula_sum "Si O2"
_cell_formula_units_Z 96
_cell_length_a 14.774963
_cell_length_b 23.438243
_cell_length_c 13.769464
_cell_angle_alpha 90.000000
_cell_angle_beta 90.000000
_cell_angle_gamma 90.000000
_cell_volume 4768.353997
_symmetry_space_group_name_H-M "I M M A"
_symmetry_group_IT_number 74
_symmetry_cell_setting 'orthorhombic'
loop_
_space_group_symop_operation_xyz
x,y,z
-x,1/2-y,z
x,-y,-z
-x,1/2+y,-z
-x,-y,-z
x,1/2+y,-z
-x,y,z
x,1/2-y,z
1/2+x,1/2+y,1/2+z
1/2-x,-y,1/2+z
1/2+x,1/2-y,1/2-z
1/2-x,y,1/2-z
1/2-x,1/2-y,1/2-z
1/2+x,y,1/2-z
1/2-x,1/2+y,1/2+z
1/2+x,-y,1/2+z
loop_
_atom_site_type_symbol
_atom_site_label
_atom_site_fract_x
_atom_site_fract_y
_atom_site_fract_z
Si Si1 0.901511 0.517086 0.887676
Si Si2 0.608447 0.750000 0.028871
Si Si3 0.393442 0.403584 0.146947
Si Si4 0.262397 0.250000 0.366995
Si Si5 0.106317 0.873796 0.423194
Si Si6 0.789193 0.516096 0.383679
Si Si7 0.393634 0.350223 0.343949
O O1 0.814316 0.483917 0.850158
O O2 0.883985 0.585094 0.882612
O O3 0.000000 0.505763 0.842062
O O4 0.907959 0.500000 0.000000
O O5 0.500000 0.750000 0.001906
O O6 0.672839 0.750000 0.933762
O O7 0.625753 0.692833 0.091048
O O8 0.500000 0.415140 0.155722
O O9 0.340916 0.462307 0.161899
O O10 0.371488 0.357793 0.229431
O O11 0.377526 0.381764 0.038935
O O12 0.250000 0.250000 0.250000
O O13 0.324823 0.305478 0.389085
O O14 0.163573 0.923102 0.372655
O O15 0.000000 0.884434 0.405098
O O16 0.790374 0.500000 0.500000
O O17 0.500000 0.333903 0.353913
#
# Coordination Sequence:
#
# PCOD9539632 Si02
#       7
#    16   8  16   8  16  16  16
#     4   9  19  33  49  65  90 124 163 211 255 283
#     4  10  22  35  48  69 100 130 166 204 243 295
#     4   9  17  29  47  70  99 127 159 200 243 289
#     4  12  25  31  52  67  99 139 178 199 236 280
#     4   9  17  31  48  70  97 127 157 198 246 294
#     4   9  17  27  49  68  92 118 165 199 245 290
#     4  10  22  37  50  70 100 134 172 210 244 286
#
# _framework density 20.132733999999999
#
# number of rings (size 3 to 8) (size 9 to 14) (size 15 to 20)
#    0.000    2.500    0.000    1.750    9.333    4.000 
#    0.000    0.000    0.000    0.000    0.000    0.000 
#    0.000    4.000    0.000   18.167    0.000    0.000 
#
# Total GULP energy -267967.757205 kJ/mol
# GULP energy per Si atom -5582.661608 kJ/mol
# Density = 2.008691 g / cm^3
# Si number density = 20.132734 Si / 1000 Ang^3
#
#
#
# Elastic Constant Matrix: (Units=GPa)
#
#
# Indices 1 2 3 4 5 6 
#
# 1 124.5115 95.3209 -0.1389 0.0000 0.0000 0.0000
# 2 95.3209 126.7034 -0.5154 -0.0001 0.0000 0.0000
# 3 -0.1389 -0.5154 18.3998 -0.0002 0.0000 0.0000
# 4 0.0000 -0.0001 -0.0002 22.5771 0.0000 0.0000
# 5 0.0000 0.0000 0.0000 0.0000 14.7681 0.0000
# 6 0.0000 0.0000 0.0000 0.0000 0.0000 31.7494
#
#
#
# Elastic Compliance Matrix: (Units=1/GPa)
#
#
# Indices 1 2 3 4 5 6 
#
# 1 0.018941 -0.014250 -0.000256 0.000000 0.000000 0.000000
# 2 -0.014250 0.018615 0.000414 0.000000 0.000000 0.000000
# 3 -0.000256 0.000414 0.054358 0.000001 0.000000 0.000000
# 4 0.000000 0.000000 0.000001 0.044293 0.000000 0.000000
# 5 0.000000 0.000000 0.000000 0.000000 0.067714 0.000000
# 6 0.000000 0.000000 0.000000 0.000000 0.000000 0.031497
#
#
# Mechanical properties :
#
#
# Convention : Reuss Voigt Hill
#
# Bulk Modulus (GPa) = 15.69161 50.99421 33.34291
# Shear Modulus (GPa) = 17.55343 25.48211 21.51777
#
# Velocity S-wave (km/s) = 2.95597 3.56154 3.27279
# Velocity P-wave (km/s) = 4.41150 6.50359 5.55689
#
# Compressibility (1/GPa) = 0.06372832
#
# Stress axis : x y z
#
# Youngs Moduli (GPa) = 52.79676 53.72049 18.39649
#
# Poissons Ratio (x) = 0.76553 0.00471
# Poissons Ratio (y) = 0.75237 -0.00761
# Poissons Ratio (z) = 0.01353 -0.02223
#
# Static dielectric constant tensor:
#      x y z
#    x 1.750600 0.000000 0.000000 
#    y 0.000000 1.722070 0.000000 
#    z 0.000000 0.000000 1.732600 
# 
# From -- ./inp_files/32427.got.cif
#   From: 2010.05.17/outbox.cif.g08.bks.cpg/sg74_17_cif.got.tgz:32427.got - 2010.06.03 17:57:02.
