data_PCOD9539145
_publ_section_title
;
Structure prediction by ZEFSAII (Michael W. Deem and Ramdas Pophale) SiO2 
 PCOD9539145
Probable space group: I M M A
;
_chemical_formula_sum "Si O2"
_cell_formula_units_Z 72
_cell_length_a 20.943318
_cell_length_b 9.259659
_cell_length_c 21.376732
_cell_angle_alpha 90.000000
_cell_angle_beta 90.000000
_cell_angle_gamma 90.000000
_cell_volume 4145.546520
_symmetry_space_group_name_H-M "I M M A"
_symmetry_group_IT_number 74
_symmetry_cell_setting 'orthorhombic'
loop_
_space_group_symop_operation_xyz
x,y,z
-x,1/2-y,z
x,-y,-z
-x,1/2+y,-z
-x,-y,-z
x,1/2+y,-z
-x,y,z
x,1/2-y,z
1/2+x,1/2+y,1/2+z
1/2-x,-y,1/2+z
1/2+x,1/2-y,1/2-z
1/2-x,y,1/2-z
1/2-x,1/2-y,1/2-z
1/2+x,y,1/2-z
1/2-x,1/2+y,1/2+z
1/2+x,-y,1/2+z
loop_
_atom_site_type_symbol
_atom_site_label
_atom_site_fract_x
_atom_site_fract_y
_atom_site_fract_z
Si Si1 0.000000 0.581873 0.435723
Si Si2 0.882370 0.084535 0.386270
Si Si3 0.305009 0.419727 0.699810
Si Si4 0.257670 0.076850 0.936191
Si Si5 0.575448 0.585663 0.744329
O O1 0.000000 0.500000 0.500000
O O2 0.938401 0.524528 0.401693
O O3 0.000000 0.750000 0.443759
O O4 0.891546 0.250000 0.409361
O O5 0.889035 0.091211 0.311615
O O6 0.820811 0.013130 0.417204
O O7 0.311325 0.250000 0.713898
O O8 0.250000 0.473536 0.750000
O O9 0.282915 0.436209 0.627863
O O10 0.374794 0.489841 0.706212
O O11 0.268708 0.250000 0.946428
O O12 0.232981 0.000000 0.000000
O O13 0.500000 0.540691 0.749562
O O14 0.574311 0.750000 0.720188
#
# Coordination Sequence:
#
# PCOD9539145 Si02
#       5
#     8  16  16  16  16
#     4  12  24  36  50  70 104 152 197 236 281 334
#     4  11  21  36  55  79 113 150 191 233 281 340
#     4  10  21  38  60  87 117 150 194 243 290 345
#     4  11  23  39  58  84 117 151 192 238 289 345
#     4  10  21  37  58  86 118 151 191 238 288 346
#
# _framework density 17.368036
#
# number of rings (size 3 to 8) (size 9 to 14) (size 15 to 20)
#    0.000    1.333    3.333    3.000    0.000    3.556 
#    0.000    0.000    0.000    0.667    0.000    0.000 
#    0.000    0.000    0.000    0.000    0.000    0.000 
#
# Total GULP energy -200411.746622 kJ/mol
# GULP energy per Si atom -5566.992962 kJ/mol
# Density = 1.732851 g / cm^3
# Si number density = 17.368036 Si / 1000 Ang^3
#
#
#
# Elastic Constant Matrix: (Units=GPa)
#
#
# Indices 1 2 3 4 5 6 
#
# 1 69.0264 43.1843 32.6071 0.0000 0.0000 0.0000
# 2 43.1843 126.0510 47.4306 0.0000 0.0000 0.0000
# 3 32.6071 47.4306 73.0478 0.0000 0.0000 0.0000
# 4 0.0000 0.0000 0.0000 29.4361 0.0000 0.0000
# 5 0.0000 0.0000 0.0000 0.0000 16.2084 0.0000
# 6 0.0000 0.0000 0.0000 0.0000 0.0000 34.2578
#
#
#
# Elastic Compliance Matrix: (Units=1/GPa)
#
#
# Indices 1 2 3 4 5 6 
#
# 1 0.020249 -0.004679 -0.006001 0.000000 0.000000 0.000000
# 2 -0.004679 0.011580 -0.005430 0.000000 0.000000 0.000000
# 3 -0.006001 -0.005430 0.019894 0.000000 0.000000 0.000000
# 4 0.000000 0.000000 0.000000 0.033972 0.000000 0.000000
# 5 0.000000 0.000000 0.000000 0.000000 0.061697 0.000000
# 6 0.000000 0.000000 0.000000 0.000000 0.000000 0.029190
#
#
# Mechanical properties :
#
#
# Convention : Reuss Voigt Hill
#
# Bulk Modulus (GPa) = 51.27397 57.17435 54.22416
# Shear Modulus (GPa) = 23.22314 25.64067 24.43190
#
# Velocity S-wave (km/s) = 3.66063 3.84645 3.75469
# Velocity P-wave (km/s) = 6.88862 7.26069 7.07710
#
# Compressibility (1/GPa) = 0.01950307
#
# Stress axis : x y z
#
# Youngs Moduli (GPa) = 49.38439 86.35856 50.26668
#
# Poissons Ratio (x) = 0.40411 0.30163
# Poissons Ratio (y) = 0.23109 0.27295
# Poissons Ratio (z) = 0.29633 0.46892
#
# Static dielectric constant tensor:
#      x y z
#    x 1.472330 0.000000 0.000000 
#    y 0.000000 1.594690 0.000000 
#    z 0.000000 0.000000 1.642920 
# 
# From -- ./inp_files/48356.got.cif
#   From: 2010.05.17/outbox.cif.g08.bks.cpg/sg74_25_cif.got.tgz:48356.got - 2010.06.03 17:57:02.
