data_PCOD9539972
_publ_section_title
;
Structure prediction by ZEFSAII (Michael W. Deem and Ramdas Pophale) SiO2 
 PCOD9539972
Probable space group: I M M A
;
_chemical_formula_sum "Si O2"
_cell_formula_units_Z 96
_cell_length_a 25.733586
_cell_length_b 15.370851
_cell_length_c 11.546916
_cell_angle_alpha 90.000000
_cell_angle_beta 90.000000
_cell_angle_gamma 90.000000
_cell_volume 4567.349324
_symmetry_space_group_name_H-M "I M M A"
_symmetry_group_IT_number 74
_symmetry_cell_setting 'orthorhombic'
loop_
_space_group_symop_operation_xyz
x,y,z
-x,1/2-y,z
x,-y,-z
-x,1/2+y,-z
-x,-y,-z
x,1/2+y,-z
-x,y,z
x,1/2-y,z
1/2+x,1/2+y,1/2+z
1/2-x,-y,1/2+z
1/2+x,1/2-y,1/2-z
1/2-x,y,1/2-z
1/2-x,1/2-y,1/2-z
1/2+x,y,1/2-z
1/2-x,1/2+y,1/2+z
1/2+x,-y,1/2+z
loop_
_atom_site_type_symbol
_atom_site_label
_atom_site_fract_x
_atom_site_fract_y
_atom_site_fract_z
Si Si1 0.909219 0.155056 0.711986
Si Si2 0.769835 0.650245 0.974953
Si Si3 0.304023 0.096728 0.701706
Si Si4 0.942880 0.513239 0.861473
Si Si5 0.839919 0.407440 0.228841
Si Si6 0.648359 0.603749 0.983849
O O1 0.934306 0.250000 0.725766
O O2 0.852163 0.155511 0.768422
O O3 0.935524 0.074300 0.781274
O O4 0.892942 0.139915 0.577106
O O5 0.778031 0.750000 0.008814
O O6 0.795970 0.638243 0.849031
O O7 0.709220 0.629323 0.996118
O O8 0.799826 0.589038 0.064477
O O9 0.250000 0.130818 0.750000
O O10 0.314908 0.002235 0.755872
O O11 0.893151 0.573084 0.837782
O O12 0.000000 0.549235 0.831106
O O13 0.942759 0.500000 0.000000
O O14 0.858380 0.368338 0.350497
O O15 0.644022 0.500000 0.000000
#
# Coordination Sequence:
#
# PCOD9539972 Si02
#       6
#    16  16  16  16  16  16
#     4  11  23  38  62  96 130 163 208 269 325 374
#     4  12  24  34  54  88 128 169 212 265 318 376
#     4  11  19  34  56  80 118 166 211 251 306 382
#     4  10  22  43  70  94 117 156 213 271 330 393
#     4  11  22  38  60  85 120 166 216 261 312 376
#     4  12  21  38  58  86 126 178 213 248 308 391
#
# _framework density 21.018754999999999
#
# number of rings (size 3 to 8) (size 9 to 14) (size 15 to 20)
#    0.000    0.833    5.000    6.000    0.000    3.000 
#    0.000    1.667    0.000    1.500    0.000    0.000 
#    0.000    0.000    0.000    0.000    0.000    0.000 
#
# Total GULP energy -267577.562548 kJ/mol
# GULP energy per Si atom -5574.532553 kJ/mol
# Density = 2.097092 g / cm^3
# Si number density = 21.018755 Si / 1000 Ang^3
#
#
#
# Elastic Constant Matrix: (Units=GPa)
#
#
# Indices 1 2 3 4 5 6 
#
# 1 82.5083 -3.8927 10.3615 0.0000 0.0000 0.0000
# 2 -3.8927 57.4300 4.3423 0.0000 0.0000 0.0000
# 3 10.3615 4.3423 126.1287 0.0000 0.0000 0.0000
# 4 0.0000 0.0000 0.0000 8.6688 0.0000 0.0000
# 5 0.0000 0.0000 0.0000 0.0000 15.5707 0.0000
# 6 0.0000 0.0000 0.0000 0.0000 0.0000 -25.3448
#
#
#
# Elastic Compliance Matrix: (Units=1/GPa)
#
#
# Indices 1 2 3 4 5 6 
#
# 1 0.012294 0.000912 -0.001041 0.000000 0.000000 0.000000
# 2 0.000912 0.017526 -0.000678 0.000000 0.000000 0.000000
# 3 -0.001041 -0.000678 0.008037 0.000000 0.000000 0.000000
# 4 0.000000 0.000000 0.000000 0.115356 0.000000 0.000000
# 5 0.000000 0.000000 0.000000 0.000000 0.064223 0.000000
# 6 0.000000 0.000000 0.000000 0.000000 0.000000 -0.039456
#
#
# Mechanical properties :
#
#
# Convention : Reuss Voigt Hill
#
# Bulk Modulus (GPa) = 27.59264 31.96545 29.77905
# Shear Modulus (GPa) = 26.08573 16.79601 21.44087
#
# Velocity S-wave (km/s) = 3.52670 2.82990 3.19734
# Velocity P-wave (km/s) = 5.45341 5.09105 5.27534
#
# Compressibility (1/GPa) = 0.03624154
#
# Stress axis : x y z
#
# Youngs Moduli (GPa) = 81.34182 57.05935 124.41982
#
# Poissons Ratio (x) = -0.05204 0.12956
# Poissons Ratio (y) = -0.07419 0.08439
# Poissons Ratio (z) = 0.08470 0.03870
#
# Static dielectric constant tensor:
#      x y z
#    x 1.722490 0.000000 0.000000 
#    y 0.000000 1.782820 0.000000 
#    z 0.000000 0.000000 1.905330 
# 
# From -- ./inp_files/26276.got.cif
#   From: 2010.05.17/outbox.cif.g08.bks.cpg/sg74_14_cif.got.tgz:26276.got - 2010.06.03 17:57:02.
