data_PCOD9539697
_publ_section_title
;
Structure prediction by ZEFSAII (Michael W. Deem and Ramdas Pophale) SiO2 
 PCOD9539697
Probable space group: I M M A
;
_chemical_formula_sum "Si O2"
_cell_formula_units_Z 116
_cell_length_a 21.045046
_cell_length_b 15.525147
_cell_length_c 20.477298
_cell_angle_alpha 90.000000
_cell_angle_beta 90.000000
_cell_angle_gamma 90.000000
_cell_volume 6690.495006
_symmetry_space_group_name_H-M "I M M A"
_symmetry_group_IT_number 74
_symmetry_cell_setting 'orthorhombic'
loop_
_space_group_symop_operation_xyz
x,y,z
-x,1/2-y,z
x,-y,-z
-x,1/2+y,-z
-x,-y,-z
x,1/2+y,-z
-x,y,z
x,1/2-y,z
1/2+x,1/2+y,1/2+z
1/2-x,-y,1/2+z
1/2+x,1/2-y,1/2-z
1/2-x,y,1/2-z
1/2-x,1/2-y,1/2-z
1/2+x,y,1/2-z
1/2-x,1/2+y,1/2+z
1/2+x,-y,1/2+z
loop_
_atom_site_type_symbol
_atom_site_label
_atom_site_fract_x
_atom_site_fract_y
_atom_site_fract_z
Si Si1 0.710736 0.153994 0.682546
Si Si2 0.260280 0.351693 0.085313
Si Si3 0.071214 0.347098 0.230446
Si Si4 0.807374 0.038806 0.195588
Si Si5 0.906370 0.124212 0.378207
Si Si6 0.200244 0.850062 0.444014
Si Si7 0.930826 0.947502 0.432432
Si Si8 0.500000 0.250000 0.058988
O O1 0.679850 0.250000 0.675734
O O2 0.750000 0.157734 0.750000
O O3 0.757367 0.142896 0.620581
O O4 0.675525 0.062147 0.686378
O O5 0.241115 0.250000 0.089401
O O6 0.219107 0.414509 0.130543
O O7 0.332328 0.359450 0.111550
O O8 0.264991 0.382013 0.009837
O O9 0.082846 0.250000 0.204994
O O10 0.129527 0.409348 0.214856
O O11 0.071057 0.341458 0.308960
O O12 0.000000 0.374289 0.209549
O O13 0.750000 0.044883 0.250000
O O14 0.944957 0.175011 0.433468
O O15 0.921962 0.023396 0.379999
O O16 0.189305 0.750000 0.457443
O O17 0.131984 0.891441 0.432152
O O18 0.000000 0.904418 0.424354
O O19 0.930732 0.000000 0.500000
#
# Coordination Sequence:
#
# PCOD9539697 Si02
#       8
#    16  16  16  16  16  16  16   4
#     4   9  20  39  58  76  99 133 183 236 283 324
#     4  11  21  33  50  80 114 141 180 226 269 323
#     4  11  21  36  53  79 115 151 182 214 265 333
#     4  11  22  32  56  85 109 146 184 227 271 316
#     4  12  19  32  49  68 105 148 187 218 257 313
#     4  10  22  38  55  74 103 143 181 230 284 327
#     4  11  22  32  44  70 103 146 189 225 259 307
#     4  12  20  32  46  70  98 160 188 210 264 320
#
# _framework density 17.33803
#
# number of rings (size 3 to 8) (size 9 to 14) (size 15 to 20)
#    0.000    1.241    5.517    1.241    1.931    0.828 
#    0.000    0.000    0.000    0.414    0.000    1.931 
#    0.000    3.310    0.000    0.138    0.000    0.000 
#
# Total GULP energy -322869.238957 kJ/mol
# GULP energy per Si atom -5566.711017 kJ/mol
# Density = 1.729857 g / cm^3
# Si number density = 17.338030 Si / 1000 Ang^3
#
#
#
# Elastic Constant Matrix: (Units=GPa)
#
#
# Indices 1 2 3 4 5 6 
#
# 1 78.5259 52.0551 21.9382 0.0000 0.0000 0.0000
# 2 52.0551 108.4477 32.3594 0.0000 0.0000 0.0000
# 3 21.9382 32.3594 71.1685 0.0000 0.0000 0.0000
# 4 0.0000 0.0000 0.0000 26.7900 0.0000 0.0000
# 5 0.0000 0.0000 0.0000 0.0000 1.5521 0.0000
# 6 0.0000 0.0000 0.0000 0.0000 0.0000 9.9106
#
#
#
# Elastic Compliance Matrix: (Units=1/GPa)
#
#
# Indices 1 2 3 4 5 6 
#
# 1 0.018914 -0.008491 -0.001970 0.000000 0.000000 0.000000
# 2 -0.008491 0.014480 -0.003967 0.000000 0.000000 0.000000
# 3 -0.001970 -0.003967 0.016462 0.000000 0.000000 0.000000
# 4 0.000000 0.000000 0.000000 0.037327 0.000000 0.000000
# 5 0.000000 0.000000 0.000000 0.000000 0.644285 0.000000
# 6 0.000000 0.000000 0.000000 0.000000 0.000000 0.100903
#
#
# Mechanical properties :
#
#
# Convention : Reuss Voigt Hill
#
# Bulk Modulus (GPa) = 47.61540 52.31639 49.96589
# Shear Modulus (GPa) = 5.75888 17.76983 11.76435
#
# Velocity S-wave (km/s) = 1.82448 3.20489 2.60768
# Velocity P-wave (km/s) = 5.65340 6.62834 6.16019
#
# Compressibility (1/GPa) = 0.02100161
#
# Stress axis : x y z
#
# Youngs Moduli (GPa) = 52.87228 69.05959 60.74646
#
# Poissons Ratio (x) = 0.58637 0.11964
# Poissons Ratio (y) = 0.44893 0.24096
# Poissons Ratio (z) = 0.10413 0.27393
#
# Static dielectric constant tensor:
#      x y z
#    x 1.570180 0.000000 0.000000 
#    y 0.000000 1.667800 0.000000 
#    z 0.000000 0.000000 1.626680 
# 
# From -- ./inp_files/46174.got.cif
#   From: 2010.05.17/outbox.cif.g08.bks.cpg/sg74_24_cif.got.tgz:46174.got - 2010.06.03 17:57:02.
