data_PCOD9539801
_publ_section_title
;
Structure prediction by ZEFSAII (Michael W. Deem and Ramdas Pophale) SiO2 
 PCOD9539801
Probable space group: I M M A
;
_chemical_formula_sum "Si O2"
_cell_formula_units_Z 44
_cell_length_a 7.543905
_cell_length_b 10.337751
_cell_length_c 25.046312
_cell_angle_alpha 90.000000
_cell_angle_beta 90.000000
_cell_angle_gamma 90.000000
_cell_volume 1953.287021
_symmetry_space_group_name_H-M "I M M A"
_symmetry_group_IT_number 74
_symmetry_cell_setting 'orthorhombic'
loop_
_space_group_symop_operation_xyz
x,y,z
-x,1/2-y,z
x,-y,-z
-x,1/2+y,-z
-x,-y,-z
x,1/2+y,-z
-x,y,z
x,1/2-y,z
1/2+x,1/2+y,1/2+z
1/2-x,-y,1/2+z
1/2+x,1/2-y,1/2-z
1/2-x,y,1/2-z
1/2-x,1/2-y,1/2-z
1/2+x,y,1/2-z
1/2-x,1/2+y,1/2+z
1/2+x,-y,1/2+z
loop_
_atom_site_type_symbol
_atom_site_label
_atom_site_fract_x
_atom_site_fract_y
_atom_site_fract_z
Si Si1 0.750000 0.750000 0.250000
Si Si2 0.790108 0.035052 0.662205
Si Si3 0.211565 0.750000 0.687379
Si Si4 0.214281 0.607288 0.041067
O O1 0.713526 0.863751 0.295385
O O2 0.768488 0.081451 0.601781
O O3 0.000000 0.035181 0.675329
O O4 0.720553 0.887904 0.666089
O O5 0.250000 0.750000 0.750000
O O6 0.000000 0.750000 0.677521
O O7 0.273450 0.750000 0.024656
O O8 0.000000 0.604828 0.040075
O O9 0.279938 0.500000 0.000000
#
# Coordination Sequence:
#
# PCOD9539801 Si02
#       4
#     4  16   8  16
#     4  12  22  38  66  92 130 160 204 256 314 374
#     4  11  24  41  63  91 124 163 207 255 310 371
#     4  10  22  40  57  83 120 157 196 239 292 359
#     4  10  23  42  63  89 122 161 206 255 310 370
#
# _framework density 22.526129999999998
#
# number of rings (size 3 to 8) (size 9 to 14) (size 15 to 20)
#    0.000    1.455    3.636    0.545    2.545    5.091 
#    0.000    0.000    0.000    0.000    0.000    0.000 
#    0.000    0.000    0.000    0.000    0.000    0.000 
#
# Total GULP energy -122475.713705 kJ/mol
# GULP energy per Si atom -5567.077896 kJ/mol
# Density = 2.247486 g / cm^3
# Si number density = 22.526130 Si / 1000 Ang^3
#
#
#
# Elastic Constant Matrix: (Units=GPa)
#
#
# Indices 1 2 3 4 5 6 
#
# 1 60.2529 20.3682 -5.5967 0.0000 0.0000 0.0000
# 2 20.3682 269.3798 96.6546 0.0000 0.0000 0.0000
# 3 -5.5967 96.6546 152.5959 0.0000 0.0000 0.0000
# 4 0.0000 0.0000 0.0000 54.1651 0.0000 0.0000
# 5 0.0000 0.0000 0.0000 0.0000 9.8487 0.0000
# 6 0.0000 0.0000 0.0000 0.0000 0.0000 1.0541
#
#
#
# Elastic Compliance Matrix: (Units=1/GPa)
#
#
# Indices 1 2 3 4 5 6 
#
# 1 0.017452 -0.002005 0.001910 0.000000 0.000000 0.000000
# 2 -0.002005 0.005034 -0.003262 0.000000 0.000000 0.000000
# 3 0.001910 -0.003262 0.008690 0.000000 0.000000 0.000000
# 4 0.000000 0.000000 0.000000 0.018462 0.000000 0.000000
# 5 0.000000 0.000000 0.000000 0.000000 0.101537 0.000000
# 6 0.000000 0.000000 0.000000 0.000000 0.000000 0.948698
#
#
# Mechanical properties :
#
#
# Convention : Reuss Voigt Hill
#
# Bulk Modulus (GPa) = 40.88068 78.34231 59.61150
# Shear Modulus (GPa) = 4.48535 37.73374 21.10954
#
# Velocity S-wave (km/s) = 1.41262 4.09725 3.06455
# Velocity P-wave (km/s) = 4.56598 7.56553 6.24841
#
# Compressibility (1/GPa) = 0.02446143
#
# Stress axis : x y z
#
# Youngs Moduli (GPa) = 57.30056 198.63546 115.07940
#
# Poissons Ratio (x) = 0.39824 -0.21980
# Poissons Ratio (y) = 0.11488 0.37542
# Poissons Ratio (z) = -0.10944 0.64801
#
# Static dielectric constant tensor:
#      x y z
#    x 1.161010 0.000000 0.000000 
#    y 0.000000 1.882000 0.000000 
#    z 0.000000 0.000000 1.733100 
# 
# From -- ./inp_files/49828.got.cif
#   From: 2010.05.17/outbox.cif.g08.bks.cpg/sg74_25_cif.got.tgz:49828.got - 2010.06.03 17:57:02.
