data_PCOD9539789
_publ_section_title
;
Structure prediction by ZEFSAII (Michael W. Deem and Ramdas Pophale) SiO2 
 PCOD9539789
Probable space group: I M M A
;
_chemical_formula_sum "Si O2"
_cell_formula_units_Z 96
_cell_length_a 21.629140
_cell_length_b 24.380106
_cell_length_c 8.479511
_cell_angle_alpha 90.000000
_cell_angle_beta 90.000000
_cell_angle_gamma 90.000000
_cell_volume 4471.421896
_symmetry_space_group_name_H-M "I M M A"
_symmetry_group_IT_number 74
_symmetry_cell_setting 'orthorhombic'
loop_
_space_group_symop_operation_xyz
x,y,z
-x,1/2-y,z
x,-y,-z
-x,1/2+y,-z
-x,-y,-z
x,1/2+y,-z
-x,y,z
x,1/2-y,z
1/2+x,1/2+y,1/2+z
1/2-x,-y,1/2+z
1/2+x,1/2-y,1/2-z
1/2-x,y,1/2-z
1/2-x,1/2-y,1/2-z
1/2+x,y,1/2-z
1/2-x,1/2+y,1/2+z
1/2+x,-y,1/2+z
loop_
_atom_site_type_symbol
_atom_site_label
_atom_site_fract_x
_atom_site_fract_y
_atom_site_fract_z
Si Si1 0.925059 0.250000 0.281492
Si Si2 0.568533 0.626906 0.839041
Si Si3 0.300943 0.750000 0.603805
Si Si4 0.621767 0.088203 0.866053
Si Si5 0.425496 0.016022 0.317803
Si Si6 0.194314 0.147595 0.873922
Si Si7 0.256961 0.061085 0.062799
O O1 0.908638 0.310080 0.355037
O O2 0.873813 0.250000 0.146044
O O3 0.000000 0.250000 0.255066
O O4 0.500000 0.633203 0.771822
O O5 0.595566 0.577584 0.731181
O O6 0.567954 0.603459 0.015014
O O7 0.250000 0.750000 0.750000
O O8 0.295622 0.802932 0.493418
O O9 0.609595 0.029335 0.787326
O O10 0.634736 0.134561 0.734072
O O11 0.680391 0.085609 0.985798
O O12 0.500000 0.012471 0.286652
O O13 0.416283 0.000000 0.500000
O O14 0.250000 0.151409 0.750000
O O15 0.202819 0.093887 0.978513
O O16 0.250000 0.064431 0.250000
O O17 0.254408 0.000000 0.000000
#
# Coordination Sequence:
#
# PCOD9539789 Si02
#       7
#     8  16   8  16  16  16  16
#     4  10  26  46  69 103 136 177 231 287 346 403
#     4  10  22  42  66  94 134 179 230 285 342 419
#     4  12  27  46  75 102 128 188 233 288 343 422
#     4  11  23  38  65  96 130 174 218 281 349 415
#     4  10  22  39  65 100 136 177 229 286 346 419
#     4  10  25  43  62  97 133 170 222 284 339 407
#     4  11  23  39  59  89 129 169 214 269 338 405
#
# _framework density 21.46968
#
# number of rings (size 3 to 8) (size 9 to 14) (size 15 to 20)
#    0.000    1.500    0.000    4.250    9.333    4.000 
#    0.000    0.833    0.000    0.000    0.000    0.000 
#    0.000    0.000    0.000    0.000    0.000    0.000 
#
# Total GULP energy -267447.004302 kJ/mol
# GULP energy per Si atom -5571.812590 kJ/mol
# Density = 2.142081 g / cm^3
# Si number density = 21.469680 Si / 1000 Ang^3
#
#
#
# Elastic Constant Matrix: (Units=GPa)
#
#
# Indices 1 2 3 4 5 6 
#
# 1 62.5298 13.6137 39.6755 0.0000 0.0000 0.0000
# 2 13.6137 125.0695 49.6648 0.0000 0.0000 0.0000
# 3 39.6755 49.6648 135.0534 0.0000 0.0000 0.0000
# 4 0.0000 0.0000 0.0000 39.3328 0.0000 0.0000
# 5 0.0000 0.0000 0.0000 0.0000 32.4243 0.0000
# 6 0.0000 0.0000 0.0000 0.0000 0.0000 19.6786
#
#
#
# Elastic Compliance Matrix: (Units=1/GPa)
#
#
# Indices 1 2 3 4 5 6 
#
# 1 0.019660 0.000180 -0.005842 0.000000 0.000000 0.000000
# 2 0.000180 0.009364 -0.003497 0.000000 0.000000 0.000000
# 3 -0.005842 -0.003497 0.010406 0.000000 0.000000 0.000000
# 4 0.000000 0.000000 0.000000 0.025424 0.000000 0.000000
# 5 0.000000 0.000000 0.000000 0.000000 0.030841 0.000000
# 6 0.000000 0.000000 0.000000 0.000000 0.000000 0.050817
#
#
# Mechanical properties :
#
#
# Convention : Reuss Voigt Hill
#
# Bulk Modulus (GPa) = 47.36234 58.72898 53.04566
# Shear Modulus (GPa) = 29.09220 32.93373 31.01296
#
# Velocity S-wave (km/s) = 3.68508 3.92083 3.80478
# Velocity P-wave (km/s) = 6.34148 6.92178 6.63797
#
# Compressibility (1/GPa) = 0.02111382
#
# Stress axis : x y z
#
# Youngs Moduli (GPa) = 50.86516 106.78699 96.09429
#
# Poissons Ratio (x) = -0.01920 0.56135
# Poissons Ratio (y) = -0.00914 0.33599
# Poissons Ratio (z) = 0.29714 0.37338
#
# Static dielectric constant tensor:
#      x y z
#    x 1.996980 0.000000 0.000000 
#    y 0.000000 1.886350 0.000000 
#    z 0.000000 0.000000 1.766640 
# 
# From -- ./inp_files/13938.got.cif
#   From: 2010.05.17/outbox.cif.g08.bks.cpg/sg74_7_cif.got.tgz:13938.got - 2010.06.03 17:57:02.
