data_PCOD9539608
_publ_section_title
;
Structure prediction by ZEFSAII (Michael W. Deem and Ramdas Pophale) SiO2 
 PCOD9539608
Probable space group: I M M A
;
_chemical_formula_sum "Si O2"
_cell_formula_units_Z 108
_cell_length_a 11.038053
_cell_length_b 29.375592
_cell_length_c 15.864765
_cell_angle_alpha 90.000000
_cell_angle_beta 90.000000
_cell_angle_gamma 90.000000
_cell_volume 5144.139603
_symmetry_space_group_name_H-M "I M M A"
_symmetry_group_IT_number 74
_symmetry_cell_setting 'orthorhombic'
loop_
_space_group_symop_operation_xyz
x,y,z
-x,1/2-y,z
x,-y,-z
-x,1/2+y,-z
-x,-y,-z
x,1/2+y,-z
-x,y,z
x,1/2-y,z
1/2+x,1/2+y,1/2+z
1/2-x,-y,1/2+z
1/2+x,1/2-y,1/2-z
1/2-x,y,1/2-z
1/2-x,1/2-y,1/2-z
1/2+x,y,1/2-z
1/2-x,1/2+y,1/2+z
1/2+x,-y,1/2+z
loop_
_atom_site_type_symbol
_atom_site_label
_atom_site_fract_x
_atom_site_fract_y
_atom_site_fract_z
Si Si1 0.500000 0.250000 0.113500
Si Si2 0.328705 0.338622 0.102895
Si Si3 0.864605 0.956929 0.896933
Si Si4 0.212171 0.947304 0.157800
Si Si5 0.357224 0.198942 0.507969
Si Si6 0.366065 0.923736 0.004938
Si Si7 0.138147 0.347033 0.813149
Si Si8 0.750000 0.599417 0.750000
O O1 0.397321 0.291247 0.112372
O O2 0.372325 0.371540 0.026881
O O3 0.326580 0.368468 0.187167
O O4 0.193866 0.327156 0.072249
O O5 0.749004 0.943635 0.954103
O O6 0.835559 0.931553 0.808734
O O7 0.000000 0.944152 0.926964
O O8 0.856820 0.011139 0.885160
O O9 0.250000 0.963761 0.250000
O O10 0.138401 0.901180 0.171842
O O11 0.327615 0.932300 0.101206
O O12 0.500000 0.200968 0.500903
O O13 0.306965 0.250000 0.510797
O O14 0.331540 0.175241 0.596932
O O15 0.500000 0.943449 0.987506
O O16 0.250000 0.336948 0.750000
O O17 0.000000 0.333017 0.787639
#
# Coordination Sequence:
#
# PCOD9539608 Si02
#       8
#     4  16  16  16  16  16  16   8
#     4  12  24  42  74 100 140 168 224 298 336 432
#     4  11  23  45  68 100 133 176 224 281 348 413
#     4  11  25  45  70  98 136 187 236 289 347 418
#     4  11  23  42  65 101 134 182 233 290 341 408
#     4  10  21  42  68  95 130 171 219 273 343 415
#     4  11  25  45  71 100 138 182 231 286 353 420
#     4  10  22  40  63  94 132 173 223 283 335 397
#     4  10  26  45  68  98 136 184 227 282 352 416
#
# _framework density 20.994762999999999
#
# number of rings (size 3 to 8) (size 9 to 14) (size 15 to 20)
#    0.000    1.333    3.704    0.889    1.037    9.481 
#    1.333    0.000    0.000    0.000    0.000    0.000 
#    0.000    0.000    0.000    0.000    0.000    0.000 
#
# Total GULP energy -300719.829633 kJ/mol
# GULP energy per Si atom -5568.885734 kJ/mol
# Density = 2.094698 g / cm^3
# Si number density = 20.994763 Si / 1000 Ang^3
#
#
#
# Elastic Constant Matrix: (Units=GPa)
#
#
# Indices 1 2 3 4 5 6 
#
# 1 131.9200 13.7138 51.5843 0.0000 0.0000 0.0000
# 2 13.7138 73.0198 26.4318 0.0000 0.0000 0.0000
# 3 51.5843 26.4318 86.1623 -0.0005 0.0001 0.0000
# 4 0.0000 0.0000 -0.0005 21.9938 0.0000 0.0000
# 5 0.0000 0.0000 0.0001 0.0000 13.8681 0.0000
# 6 0.0000 0.0000 0.0000 0.0000 0.0000 9.5550
#
#
#
# Elastic Compliance Matrix: (Units=1/GPa)
#
#
# Indices 1 2 3 4 5 6 
#
# 1 0.009904 0.000322 -0.006028 0.000000 0.000000 0.000000
# 2 0.000322 0.015416 -0.004922 0.000000 0.000000 0.000000
# 3 -0.006028 -0.004922 0.016725 0.000000 0.000000 0.000000
# 4 0.000000 0.000000 0.000000 0.045467 0.000000 0.000000
# 5 0.000000 0.000000 0.000000 0.000000 0.072108 0.000000
# 6 0.000000 0.000000 0.000000 0.000000 0.000000 0.104658
#
#
# Mechanical properties :
#
#
# Convention : Reuss Voigt Hill
#
# Bulk Modulus (GPa) = 48.10289 52.72912 50.41601
# Shear Modulus (GPa) = 17.09614 22.37487 19.73551
#
# Velocity S-wave (km/s) = 2.85670 3.26810 3.06930
# Velocity P-wave (km/s) = 5.81744 6.27778 6.05199
#
# Compressibility (1/GPa) = 0.02078877
#
# Stress axis : x y z
#
# Youngs Moduli (GPa) = 100.96846 64.86729 59.79096
#
# Poissons Ratio (x) = -0.02089 0.36043
# Poissons Ratio (y) = -0.03252 0.29429
# Poissons Ratio (z) = 0.60866 0.31927
#
# Static dielectric constant tensor:
#      x y z
#    x 1.778040 0.000000 0.000000 
#    y 0.000000 1.793580 0.000000 
#    z 0.000000 0.000000 1.775320 
# 
# From -- ./inp_files/31225.got.cif
#   From: 2010.05.17/outbox.cif.g08.bks.cpg/sg74_16_cif.got.tgz:31225.got - 2010.06.03 17:57:02.
