data_PCOD9539770
_publ_section_title
;
Structure prediction by ZEFSAII (Michael W. Deem and Ramdas Pophale) SiO2 
 PCOD9539770
Probable space group: I M M A
;
_chemical_formula_sum "Si O2"
_cell_formula_units_Z 88
_cell_length_a 23.028111
_cell_length_b 9.730126
_cell_length_c 20.201896
_cell_angle_alpha 90.000000
_cell_angle_beta 90.000000
_cell_angle_gamma 90.000000
_cell_volume 4526.566546
_symmetry_space_group_name_H-M "I M M A"
_symmetry_group_IT_number 74
_symmetry_cell_setting 'orthorhombic'
loop_
_space_group_symop_operation_xyz
x,y,z
-x,1/2-y,z
x,-y,-z
-x,1/2+y,-z
-x,-y,-z
x,1/2+y,-z
-x,y,z
x,1/2-y,z
1/2+x,1/2+y,1/2+z
1/2-x,-y,1/2+z
1/2+x,1/2-y,1/2-z
1/2-x,y,1/2-z
1/2-x,1/2-y,1/2-z
1/2+x,y,1/2-z
1/2-x,1/2+y,1/2+z
1/2+x,-y,1/2+z
loop_
_atom_site_type_symbol
_atom_site_label
_atom_site_fract_x
_atom_site_fract_y
_atom_site_fract_z
Si Si1 0.000000 0.912858 0.599223
Si Si2 0.389564 0.914813 0.298714
Si Si3 0.809327 0.906895 0.707949
Si Si4 0.897673 0.000000 0.500000
Si Si5 0.701816 0.898723 0.088191
Si Si6 0.500000 0.417320 0.255323
Si Si7 0.163573 0.903804 0.057666
O O1 0.000000 0.750000 0.599649
O O2 0.942380 0.956456 0.558347
O O3 0.000000 0.955786 0.676398
O O4 0.399203 0.750000 0.291108
O O5 0.359138 0.939165 0.369466
O O6 0.348012 0.979127 0.243543
O O7 0.445934 0.008521 0.289879
O O8 0.833141 0.750000 0.706662
O O9 0.750000 0.901868 0.750000
O O10 0.801759 0.968280 0.634929
O O11 0.851076 0.901548 0.463733
O O12 0.699106 0.750000 0.124300
O O13 0.766237 0.904352 0.057927
O O14 0.500000 0.250000 0.260513
O O15 0.143935 0.750000 0.043671
O O16 0.141683 0.000000 0.000000
#
# Coordination Sequence:
#
# PCOD9539770 Si02
#       7
#     8  16  16   8  16   8  16
#     4  10  23  42  60  84 123 165 210 262 306 360
#     4  11  23  42  66  92 126 166 211 263 323 384
#     4  11  23  37  58  90 126 167 214 265 320 377
#     4  11  22  38  62  90 124 169 214 254 310 379
#     4  11  22  37  59  90 126 167 210 256 316 384
#     4  11  24  44  69  95 126 165 215 270 323 376
#     4  10  22  39  61  92 128 163 201 252 316 387
#
# _framework density 19.440783
#
# number of rings (size 3 to 8) (size 9 to 14) (size 15 to 20)
#    0.000    1.273    2.727    3.000    0.000    5.818 
#    0.000    5.000    0.000    0.000    0.000    0.000 
#    0.000    0.000    0.000    0.000    0.000    0.000 
#
# Total GULP energy -245263.968099 kJ/mol
# GULP energy per Si atom -5574.181093 kJ/mol
# Density = 1.939654 g / cm^3
# Si number density = 19.440783 Si / 1000 Ang^3
#
#
#
# Elastic Constant Matrix: (Units=GPa)
#
#
# Indices 1 2 3 4 5 6 
#
# 1 88.8012 26.9452 10.6315 0.0000 0.0000 0.0000
# 2 26.9452 108.7333 49.8025 0.0000 0.0000 0.0000
# 3 10.6315 49.8025 50.3953 0.0000 0.0000 0.0000
# 4 0.0000 0.0000 0.0000 85.1270 0.0000 0.0000
# 5 0.0000 0.0000 0.0000 0.0000 49.1191 0.0000
# 6 0.0000 0.0000 0.0000 0.0000 0.0000 12.7796
#
#
#
# Elastic Compliance Matrix: (Units=1/GPa)
#
#
# Indices 1 2 3 4 5 6 
#
# 1 0.012192 -0.003368 0.000756 0.000000 0.000000 0.000000
# 2 -0.003368 0.017732 -0.016813 0.000000 0.000000 0.000000
# 3 0.000756 -0.016813 0.036299 0.000000 0.000000 0.000000
# 4 0.000000 0.000000 0.000000 0.011747 0.000000 0.000000
# 5 0.000000 0.000000 0.000000 0.000000 0.020359 0.000000
# 6 0.000000 0.000000 0.000000 0.000000 0.000000 0.078250
#
#
# Mechanical properties :
#
#
# Convention : Reuss Voigt Hill
#
# Bulk Modulus (GPa) = 36.53126 46.96537 41.74831
# Shear Modulus (GPa) = 22.26642 40.10852 31.18747
#
# Velocity S-wave (km/s) = 3.38797 4.54708 4.00963
# Velocity P-wave (km/s) = 5.84262 7.19573 6.55419
#
# Compressibility (1/GPa) = 0.02737382
#
# Stress axis : x y z
#
# Youngs Moduli (GPa) = 82.01793 56.39479 27.54901
#
# Poissons Ratio (x) = 0.18992 -0.02082
# Poissons Ratio (y) = 0.27620 0.46318
# Poissons Ratio (z) = -0.06199 0.94817
#
# Static dielectric constant tensor:
#      x y z
#    x 1.656980 0.000000 0.000000 
#    y 0.000000 1.697920 0.000000 
#    z 0.000000 0.000000 1.670580 
# 
# From -- ./inp_files/54562.got.cif
#   From: 2010.05.17/outbox.cif.g08.bks.cpg/sg74_28_cif.got.tgz:54562.got - 2010.06.03 17:57:02.
