data_PCOD9539553
_publ_section_title
;
Structure prediction by ZEFSAII (Michael W. Deem and Ramdas Pophale) SiO2 
 PCOD9539553
Probable space group: I M M A
;
_chemical_formula_sum "Si O2"
_cell_formula_units_Z 68
_cell_length_a 23.614695
_cell_length_b 8.399814
_cell_length_c 17.248744
_cell_angle_alpha 90.000000
_cell_angle_beta 90.000000
_cell_angle_gamma 90.000000
_cell_volume 3421.444399
_symmetry_space_group_name_H-M "I M M A"
_symmetry_group_IT_number 74
_symmetry_cell_setting 'orthorhombic'
loop_
_space_group_symop_operation_xyz
x,y,z
-x,1/2-y,z
x,-y,-z
-x,1/2+y,-z
-x,-y,-z
x,1/2+y,-z
-x,y,z
x,1/2-y,z
1/2+x,1/2+y,1/2+z
1/2-x,-y,1/2+z
1/2+x,1/2-y,1/2-z
1/2-x,y,1/2-z
1/2-x,1/2-y,1/2-z
1/2+x,y,1/2-z
1/2-x,1/2+y,1/2+z
1/2+x,-y,1/2+z
loop_
_atom_site_type_symbol
_atom_site_label
_atom_site_fract_x
_atom_site_fract_y
_atom_site_fract_z
Si Si1 0.587776 0.558292 0.363412
Si Si2 0.562017 0.059891 0.192949
Si Si3 0.500000 0.500000 0.500000
Si Si4 0.164497 0.440998 0.588404
Si Si5 0.289178 0.558083 0.411730
O O1 0.583875 0.750000 0.373334
O O2 0.566835 0.512481 0.278648
O O3 0.549380 0.488127 0.431939
O O4 0.653361 0.506119 0.370088
O O5 0.500000 0.015606 0.160301
O O6 0.564484 0.250000 0.199402
O O7 0.613583 0.002651 0.140438
O O8 0.158889 0.500000 0.500000
O O9 0.163331 0.250000 0.588640
O O10 0.227161 0.493492 0.617732
O O11 0.293145 0.500000 0.500000
O O12 0.289401 0.750000 0.410605
#
# Coordination Sequence:
#
# PCOD9539553 Si02
#       5
#    16  16   4  16  16
#     4  11  23  39  61  89 124 163 203 244 292 350
#     4  11  25  42  60  86 121 157 199 250 301 354
#     4  12  22  36  64  94 124 164 202 238 286 348
#     4  10  21  40  66  90 118 154 197 246 300 359
#     4   9  19  36  58  87 119 156 198 244 294 349
#
# _framework density 19.874649000000002
#
# number of rings (size 3 to 8) (size 9 to 14) (size 15 to 20)
#    0.000    1.647    2.353    1.765    0.000    6.588 
#    0.000    4.706    0.000    0.000    0.000    0.000 
#    0.000    0.000    0.000    0.000    0.000    0.000 
#
# Total GULP energy -189309.811094 kJ/mol
# GULP energy per Si atom -5567.935620 kJ/mol
# Density = 1.982941 g / cm^3
# Si number density = 19.874649 Si / 1000 Ang^3
#
#
#
# Elastic Constant Matrix: (Units=GPa)
#
#
# Indices 1 2 3 4 5 6 
#
# 1 220.6708 28.5721 71.5227 0.0000 0.0000 0.0000
# 2 28.5721 10.3319 5.3085 0.0000 0.0000 0.0000
# 3 71.5227 5.3085 72.9673 0.0000 0.0000 0.0000
# 4 0.0000 0.0000 0.0000 17.3823 0.0000 0.0000
# 5 0.0000 0.0000 0.0000 0.0000 36.1097 0.0000
# 6 0.0000 0.0000 0.0000 0.0000 0.0000 16.0700
#
#
#
# Elastic Compliance Matrix: (Units=1/GPa)
#
#
# Indices 1 2 3 4 5 6 
#
# 1 0.010454 -0.024563 -0.008460 0.000000 0.000000 0.000000
# 2 -0.024563 0.158260 0.012563 0.000000 0.000000 0.000000
# 3 -0.008460 0.012563 0.021083 0.000000 0.000000 0.000000
# 4 0.000000 0.000000 0.000000 0.057530 0.000000 0.000000
# 5 0.000000 0.000000 0.000000 0.000000 0.027693 0.000000
# 6 0.000000 0.000000 0.000000 0.000000 0.000000 0.062228
#
#
# Mechanical properties :
#
#
# Convention : Reuss Voigt Hill
#
# Bulk Modulus (GPa) = 6.71694 57.19737 31.95716
# Shear Modulus (GPa) = 11.68786 27.15018 19.41902
#
# Velocity S-wave (km/s) = 2.42766 3.70005 3.12921
# Velocity P-wave (km/s) = 3.35337 6.86261 5.40095
#
# Compressibility (1/GPa) = 0.14887721
#
# Stress axis : x y z
#
# Youngs Moduli (GPa) = 95.65655 6.31872 47.43071
#
# Poissons Ratio (x) = 0.15521 0.40127
# Poissons Ratio (y) = 2.34962 -0.59588
# Poissons Ratio (z) = 0.80926 -0.07938
#
# Static dielectric constant tensor:
#      x y z
#    x 1.744980 0.000000 0.000000 
#    y 0.000000 1.707990 0.000000 
#    z 0.000000 0.000000 1.634070 
# 
# From -- ./inp_files/44853.got.cif
#   From: 2010.05.17/outbox.cif.g08.bks.cpg/sg74_23_cif.got.tgz:44853.got - 2010.06.03 17:57:02.
