data_PCOD9539973
_publ_section_title
;
Structure prediction by ZEFSAII (Michael W. Deem and Ramdas Pophale) SiO2 
 PCOD9539973
Probable space group: I M M A
;
_chemical_formula_sum "Si O2"
_cell_formula_units_Z 116
_cell_length_a 19.012659
_cell_length_b 15.847859
_cell_length_c 17.044289
_cell_angle_alpha 90.000000
_cell_angle_beta 90.000000
_cell_angle_gamma 90.000000
_cell_volume 5135.613680
_symmetry_space_group_name_H-M "I M M A"
_symmetry_group_IT_number 74
_symmetry_cell_setting 'orthorhombic'
loop_
_space_group_symop_operation_xyz
x,y,z
-x,1/2-y,z
x,-y,-z
-x,1/2+y,-z
-x,-y,-z
x,1/2+y,-z
-x,y,z
x,1/2-y,z
1/2+x,1/2+y,1/2+z
1/2-x,-y,1/2+z
1/2+x,1/2-y,1/2-z
1/2-x,y,1/2-z
1/2-x,1/2-y,1/2-z
1/2+x,y,1/2-z
1/2-x,1/2+y,1/2+z
1/2+x,-y,1/2+z
loop_
_atom_site_type_symbol
_atom_site_label
_atom_site_fract_x
_atom_site_fract_y
_atom_site_fract_z
Si Si1 0.920259 0.104639 0.226639
Si Si2 0.306377 0.850004 0.132764
Si Si3 0.315802 0.152056 0.144508
Si Si4 0.836194 0.352566 0.083185
Si Si5 0.896822 0.407041 0.499278
Si Si6 0.000000 0.250000 0.529461
Si Si7 0.847411 0.648751 0.098991
Si Si8 0.077670 0.906744 0.244706
O O1 0.853921 0.146501 0.271568
O O2 0.900201 0.113574 0.135502
O O3 0.000000 0.137924 0.242375
O O4 0.920053 0.007338 0.252304
O O5 0.306472 0.750000 0.114846
O O6 0.225164 0.872962 0.144465
O O7 0.361555 0.866820 0.201915
O O8 0.331654 0.903680 0.058617
O O9 0.313373 0.250000 0.122215
O O10 0.237513 0.119681 0.124602
O O11 0.370712 0.107721 0.087964
O O12 0.838452 0.250000 0.085356
O O13 0.841289 0.378300 0.991798
O O14 0.928350 0.500000 0.500000
O O15 0.940866 0.325817 0.525013
O O16 0.854334 0.750000 0.098368
O O17 0.908573 0.613332 0.153601
O O18 0.000000 0.875999 0.269581
#
# Coordination Sequence:
#
# PCOD9539973 Si02
#       8
#    16  16  16  16  16   4  16  16
#     4  11  26  43  61  94 136 176 223 281 341 407
#     4  11  22  43  68  97 134 173 221 283 344 402
#     4  11  22  43  68  97 134 173 221 283 344 402
#     4  10  22  43  70  96 128 170 222 281 344 413
#     4  12  25  41  67 100 136 184 233 277 342 413
#     4  12  26  44  60  98 144 192 218 292 336 406
#     4  10  22  43  70  96 128 170 222 281 344 413
#     4  11  26  43  61  94 136 176 223 281 341 407
#
# _framework density 22.587368999999999
#
# number of rings (size 3 to 8) (size 9 to 14) (size 15 to 20)
#    0.000    1.103    2.759    2.690    1.931    8.828 
#    0.000    2.759    0.000    0.000    0.000    0.000 
#    0.000    0.000    0.000    0.000    0.000    0.000 
#
# Total GULP energy -323447.434480 kJ/mol
# GULP energy per Si atom -5576.679905 kJ/mol
# Density = 2.253596 g / cm^3
# Si number density = 22.587369 Si / 1000 Ang^3
#
#
#
# Elastic Constant Matrix: (Units=GPa)
#
#
# Indices 1 2 3 4 5 6 
#
# 1 47.1082 1.1317 18.8923 0.0000 0.0000 0.0000
# 2 1.1317 78.1191 -8.1293 0.0000 0.0000 0.0000
# 3 18.8923 -8.1293 100.0382 0.0000 0.0000 0.0000
# 4 0.0000 0.0000 0.0000 56.8350 0.0000 0.0000
# 5 0.0000 0.0000 0.0000 0.0000 139.0856 0.0000
# 6 0.0000 0.0000 0.0000 0.0000 0.0000 36.1024
#
#
#
# Elastic Compliance Matrix: (Units=1/GPa)
#
#
# Indices 1 2 3 4 5 6 
#
# 1 0.023016 -0.000792 -0.004411 0.000000 0.000000 0.000000
# 2 -0.000792 0.012937 0.001201 0.000000 0.000000 0.000000
# 3 -0.004411 0.001201 0.010927 0.000000 0.000000 0.000000
# 4 0.000000 0.000000 0.000000 0.017595 0.000000 0.000000
# 5 0.000000 0.000000 0.000000 0.000000 0.007190 0.000000
# 6 0.000000 0.000000 0.000000 0.000000 0.000000 0.027699
#
#
# Mechanical properties :
#
#
# Convention : Reuss Voigt Hill
#
# Bulk Modulus (GPa) = 25.72340 27.67278 26.69809
# Shear Modulus (GPa) = 41.55353 60.62932 51.09142
#
# Velocity S-wave (km/s) = 4.29380 5.18656 4.76115
# Velocity P-wave (km/s) = 5.99962 6.93868 6.48617
#
# Compressibility (1/GPa) = 0.03887512
#
# Stress axis : x y z
#
# Youngs Moduli (GPa) = 43.44854 77.29510 91.51824
#
# Poissons Ratio (x) = 0.06125 0.40368
# Poissons Ratio (y) = 0.03443 -0.10991
# Poissons Ratio (z) = 0.19165 -0.09283
#
# Static dielectric constant tensor:
#      x y z
#    x 2.197170 0.000000 0.000000 
#    y 0.000000 1.817780 0.000000 
#    z 0.000000 0.000000 1.846180 
# 
# From -- ./inp_files/44270.got.cif
#   From: 2010.05.17/outbox.cif.g08.bks.cpg/sg74_23_cif.got.tgz:44270.got - 2010.06.03 17:57:02.
