data_PCOD9539366
_publ_section_title
;
Structure prediction by ZEFSAII (Michael W. Deem and Ramdas Pophale) SiO2 
 PCOD9539366
Probable space group: I M M A
;
_chemical_formula_sum "Si O2"
_cell_formula_units_Z 104
_cell_length_a 9.473844
_cell_length_b 21.357432
_cell_length_c 27.012012
_cell_angle_alpha 90.000000
_cell_angle_beta 90.000000
_cell_angle_gamma 90.000000
_cell_volume 5465.528905
_symmetry_space_group_name_H-M "I M M A"
_symmetry_group_IT_number 74
_symmetry_cell_setting 'orthorhombic'
loop_
_space_group_symop_operation_xyz
x,y,z
-x,1/2-y,z
x,-y,-z
-x,1/2+y,-z
-x,-y,-z
x,1/2+y,-z
-x,y,z
x,1/2-y,z
1/2+x,1/2+y,1/2+z
1/2-x,-y,1/2+z
1/2+x,1/2-y,1/2-z
1/2-x,y,1/2-z
1/2-x,1/2-y,1/2-z
1/2+x,y,1/2-z
1/2-x,1/2+y,1/2+z
1/2+x,-y,1/2+z
loop_
_atom_site_type_symbol
_atom_site_label
_atom_site_fract_x
_atom_site_fract_y
_atom_site_fract_z
Si Si1 0.500000 0.177277 0.171744
Si Si2 0.326940 0.510869 0.196477
Si Si3 0.338548 0.250000 0.700720
Si Si4 0.656340 0.677667 0.547213
Si Si5 0.500000 0.825903 0.715847
Si Si6 0.772421 0.884935 0.855566
Si Si7 0.331070 0.377519 0.639949
Si Si8 0.333393 0.324502 0.950828
O O1 0.500000 0.250000 0.179140
O O2 0.500000 0.150691 0.227652
O O3 0.633596 0.156208 0.142175
O O4 0.500000 0.512907 0.200411
O O5 0.250000 0.504216 0.250000
O O6 0.276094 0.452953 0.162234
O O7 0.259253 0.571655 0.170307
O O8 0.500000 0.250000 0.716619
O O9 0.250000 0.250000 0.750000
O O10 0.315430 0.311853 0.668615
O O11 0.500000 0.675279 0.523538
O O12 0.671312 0.750000 0.566353
O O13 0.659233 0.627374 0.591321
O O14 0.774486 0.666314 0.506186
O O15 0.500000 0.750000 0.713348
O O16 0.632311 0.854035 0.687009
O O17 0.500000 0.392557 0.637441
O O18 0.259863 0.365287 0.586769
O O19 0.500000 0.338574 0.946752
O O20 0.314599 0.250000 0.939895
#
# Coordination Sequence:
#
# PCOD9539366 Si02
#       8
#     8  16   8  16   8  16  16  16
#     4  11  22  36  58  88 121 161 209 271 332 380
#     4  12  27  45  65  92 128 176 224 264 318 391
#     4  10  22  38  62  98 132 164 202 256 317 376
#     4  10  21  38  62  92 127 169 216 268 324 386
#     4  11  22  38  60  88 121 161 217 271 328 388
#     4  12  24  39  61  88 128 171 216 267 322 380
#     4  11  23  42  68  96 130 169 213 264 321 387
#     4  10  21  38  65  99 132 167 208 263 326 386
#
# _framework density 19.02835
#
# number of rings (size 3 to 8) (size 9 to 14) (size 15 to 20)
#    0.000    1.077    2.308    4.615    3.231    4.308 
#    0.000    0.769    0.000    3.692    0.000    0.000 
#    0.000    0.000    0.000    0.000    0.000    0.000 
#
# Total GULP energy -290259.208262 kJ/mol
# GULP energy per Si atom -5581.907851 kJ/mol
# Density = 1.898504 g / cm^3
# Si number density = 19.028350 Si / 1000 Ang^3
#
#
#
# Elastic Constant Matrix: (Units=GPa)
#
#
# Indices 1 2 3 4 5 6 
#
# 1 131.1229 51.1740 40.7415 0.0000 0.0000 0.0000
# 2 51.1740 90.2492 34.9192 0.0000 0.0000 0.0000
# 3 40.7415 34.9192 87.1191 0.0000 0.0000 0.0000
# 4 0.0000 0.0000 0.0000 23.9379 0.0000 0.0000
# 5 0.0000 0.0000 0.0000 0.0000 29.2577 0.0000
# 6 0.0000 0.0000 0.0000 0.0000 0.0000 28.0198
#
#
#
# Elastic Compliance Matrix: (Units=1/GPa)
#
#
# Indices 1 2 3 4 5 6 
#
# 1 0.010401 -0.004753 -0.002959 0.000000 0.000000 0.000000
# 2 -0.004753 0.015286 -0.003904 0.000000 0.000000 0.000000
# 3 -0.002959 -0.003904 0.014427 0.000000 0.000000 0.000000
# 4 0.000000 0.000000 0.000000 0.041775 0.000000 0.000000
# 5 0.000000 0.000000 0.000000 0.000000 0.034179 0.000000
# 6 0.000000 0.000000 0.000000 0.000000 0.000000 0.035689
#
#
# Mechanical properties :
#
#
# Convention : Reuss Voigt Hill
#
# Bulk Modulus (GPa) = 59.23461 62.46230 60.84846
# Shear Modulus (GPa) = 27.68304 28.35350 28.01827
#
# Velocity S-wave (km/s) = 3.81836 3.86433 3.84141
# Velocity P-wave (km/s) = 7.11598 7.26690 7.19183
#
# Compressibility (1/GPa) = 0.01688202
#
# Stress axis : x y z
#
# Youngs Moduli (GPa) = 96.14797 65.41938 69.31319
#
# Poissons Ratio (x) = 0.31091 0.20509
# Poissons Ratio (y) = 0.45695 0.27063
# Poissons Ratio (z) = 0.28450 0.25542
#
# Static dielectric constant tensor:
#      x y z
#    x 1.641040 0.000000 0.000000 
#    y 0.000000 1.657810 0.000000 
#    z 0.000000 0.000000 1.631720 
# 
# From -- ./inp_files/64558.got.cif
#   From: 2010.05.17/outbox.cif.g08.bks.cpg/sg74_33_cif.got.tgz:64558.got - 2010.06.03 17:57:02.
