data_PCOD9539897
_publ_section_title
;
Structure prediction by ZEFSAII (Michael W. Deem and Ramdas Pophale) SiO2 
 PCOD9539897
Probable space group: I M M A
;
_chemical_formula_sum "Si O2"
_cell_formula_units_Z 96
_cell_length_a 17.263265
_cell_length_b 13.499972
_cell_length_c 20.821977
_cell_angle_alpha 90.000000
_cell_angle_beta 90.000000
_cell_angle_gamma 90.000000
_cell_volume 4852.636577
_symmetry_space_group_name_H-M "I M M A"
_symmetry_group_IT_number 74
_symmetry_cell_setting 'orthorhombic'
loop_
_space_group_symop_operation_xyz
x,y,z
-x,1/2-y,z
x,-y,-z
-x,1/2+y,-z
-x,-y,-z
x,1/2+y,-z
-x,y,z
x,1/2-y,z
1/2+x,1/2+y,1/2+z
1/2-x,-y,1/2+z
1/2+x,1/2-y,1/2-z
1/2-x,y,1/2-z
1/2-x,1/2-y,1/2-z
1/2+x,y,1/2-z
1/2-x,1/2+y,1/2+z
1/2+x,-y,1/2+z
loop_
_atom_site_type_symbol
_atom_site_label
_atom_site_fract_x
_atom_site_fract_y
_atom_site_fract_z
Si Si1 0.838151 0.365235 0.775851
Si Si2 0.307852 0.862567 0.901875
Si Si3 0.588043 0.612777 0.021805
Si Si4 0.338994 0.009432 0.594332
Si Si5 0.591544 0.031526 0.846062
Si Si6 0.911909 0.363685 0.012767
O O1 0.859798 0.250000 0.787241
O O2 0.750000 0.366669 0.750000
O O3 0.843116 0.431689 0.839564
O O4 0.888455 0.416301 0.720332
O O5 0.289050 0.750000 0.879492
O O6 0.236493 0.939087 0.908471
O O7 0.366072 0.926184 0.856664
O O8 0.350499 0.850000 0.970456
O O9 0.500000 0.651552 0.017919
O O10 0.615153 0.606168 0.095514
O O11 0.581450 0.500000 0.000000
O O12 0.351407 0.090911 0.538224
O O13 0.405536 0.930429 0.576273
O O14 0.500000 0.016549 0.853360
O O15 0.894099 0.250000 0.025878
O O16 0.000000 0.370338 0.987319
#
# Coordination Sequence:
#
# PCOD9539897 Si02
#       6
#    16  16  16  16  16  16
#     4  11  24  43  65  88 121 167 213 261 320 385
#     4  11  22  36  60  93 129 171 213 257 311 371
#     4   8  17  34  57  86 124 167 205 247 300 360
#     4  11  22  39  64  97 126 162 204 261 319 375
#     4  10  22  41  62  91 130 169 211 260 311 371
#     4  10  23  43  67  96 127 161 208 265 325 384
#
# _framework density 19.783059999999999
#
# number of rings (size 3 to 8) (size 9 to 14) (size 15 to 20)
#    0.000    1.833    1.667    3.500    7.000    3.667 
#    0.000    5.833    0.000    0.000    0.000    0.000 
#    0.000    0.000    0.000    0.000    0.000    0.000 
#
# Total GULP energy -267488.675598 kJ/mol
# GULP energy per Si atom -5572.680742 kJ/mol
# Density = 1.973803 g / cm^3
# Si number density = 19.783060 Si / 1000 Ang^3
#
#
#
# Elastic Constant Matrix: (Units=GPa)
#
#
# Indices 1 2 3 4 5 6 
#
# 1 65.0427 46.8513 30.8323 0.0000 0.0000 0.0000
# 2 46.8513 191.5370 77.8228 0.0000 0.0000 0.0000
# 3 30.8323 77.8228 137.8476 0.0000 0.0000 0.0000
# 4 0.0000 0.0000 0.0000 17.5431 0.0000 0.0000
# 5 0.0000 0.0000 0.0000 0.0000 27.5691 0.0000
# 6 0.0000 0.0000 0.0000 0.0000 0.0000 51.8165
#
#
#
# Elastic Compliance Matrix: (Units=1/GPa)
#
#
# Indices 1 2 3 4 5 6 
#
# 1 0.019131 -0.003816 -0.002124 0.000000 0.000000 0.000000
# 2 -0.003816 0.007536 -0.003401 0.000000 0.000000 0.000000
# 3 -0.002124 -0.003401 0.009650 0.000000 0.000000 0.000000
# 4 0.000000 0.000000 0.000000 0.057003 0.000000 0.000000
# 5 0.000000 0.000000 0.000000 0.000000 0.036273 0.000000
# 6 0.000000 0.000000 0.000000 0.000000 0.000000 0.019299
#
#
# Mechanical properties :
#
#
# Convention : Reuss Voigt Hill
#
# Bulk Modulus (GPa) = 56.71214 78.38223 67.54719
# Shear Modulus (GPa) = 28.82649 35.31380 32.07014
#
# Velocity S-wave (km/s) = 3.82138 4.22957 4.03065
# Velocity P-wave (km/s) = 6.94261 7.97241 7.47526
#
# Compressibility (1/GPa) = 0.01763291
#
# Stress axis : x y z
#
# Youngs Moduli (GPa) = 52.27255 132.69107 103.63073
#
# Poissons Ratio (x) = 0.50639 0.22015
# Poissons Ratio (y) = 0.19949 0.35246
# Poissons Ratio (z) = 0.11105 0.45129
#
# Static dielectric constant tensor:
#      x y z
#    x 1.739150 0.000000 0.000000 
#    y 0.000000 1.722760 0.000000 
#    z 0.000000 0.000000 1.713880 
# 
# From -- ./inp_files/51875.got.cif
#   From: 2010.05.17/outbox.cif.g08.bks.cpg/sg74_26_cif.got.tgz:51875.got - 2010.06.03 17:57:02.
