data_PCOD9539034
_publ_section_title
;
Structure prediction by ZEFSAII (Michael W. Deem and Ramdas Pophale) SiO2 
 PCOD9539034
Probable space group: I M M A
;
_chemical_formula_sum "Si O2"
_cell_formula_units_Z 48
_cell_length_a 13.324372
_cell_length_b 10.929103
_cell_length_c 13.910077
_cell_angle_alpha 90.000000
_cell_angle_beta 90.000000
_cell_angle_gamma 90.000000
_cell_volume 2025.633180
_symmetry_space_group_name_H-M "I M M A"
_symmetry_group_IT_number 74
_symmetry_cell_setting 'orthorhombic'
loop_
_space_group_symop_operation_xyz
x,y,z
-x,1/2-y,z
x,-y,-z
-x,1/2+y,-z
-x,-y,-z
x,1/2+y,-z
-x,y,z
x,1/2-y,z
1/2+x,1/2+y,1/2+z
1/2-x,-y,1/2+z
1/2+x,1/2-y,1/2-z
1/2-x,y,1/2-z
1/2-x,1/2-y,1/2-z
1/2+x,y,1/2-z
1/2-x,1/2+y,1/2+z
1/2+x,-y,1/2+z
loop_
_atom_site_type_symbol
_atom_site_label
_atom_site_fract_x
_atom_site_fract_y
_atom_site_fract_z
Si Si1 0.782036 0.000000 0.000000
Si Si2 0.805432 0.750000 0.994036
Si Si3 0.885320 0.250000 0.801199
Si Si4 0.110826 0.475090 0.656822
Si Si5 0.158821 0.250000 0.324455
O O1 0.703850 0.033284 0.915664
O O2 0.846724 0.116536 0.031800
O O3 0.812697 0.750000 0.108583
O O4 0.700491 0.750000 0.934980
O O5 0.874225 0.373008 0.738594
O O6 0.000000 0.250000 0.838486
O O7 0.109083 0.617372 0.689577
O O8 0.000000 0.448071 0.613795
O O9 0.250000 0.250000 0.250000
#
# Coordination Sequence:
#
# PCOD9539034 Si02
#       5
#     8   8   8  16   8
#     4  10  21  36  61  90 118 160 198 256 299 366
#     4  10  23  39  59  90 121 157 207 245 308 362
#     4  10  23  41  63  91 125 164 206 256 309 370
#     4  10  21  38  61  89 122 158 200 252 309 363
#     4  10  23  40  61  87 119 162 204 252 300 366
#
# _framework density 23.696296
#
# number of rings (size 3 to 8) (size 9 to 14) (size 15 to 20)
#    0.000    2.000    0.000    2.000    9.333    1.333 
#    0.000    7.500    0.000    0.000    0.000    0.000 
#    0.000    0.000    0.000    0.000    0.000    0.000 
#
# Total GULP energy -133748.778964 kJ/mol
# GULP energy per Si atom -5572.865790 kJ/mol
# Density = 2.364236 g / cm^3
# Si number density = 23.696296 Si / 1000 Ang^3
#
#
#
# Elastic Constant Matrix: (Units=GPa)
#
#
# Indices 1 2 3 4 5 6 
#
# 1 56.3866 39.3834 34.8700 0.0000 0.0000 0.0000
# 2 39.3834 216.4324 51.2954 0.0000 0.0000 0.0000
# 3 34.8700 51.2954 97.9104 0.0000 0.0000 0.0000
# 4 0.0000 0.0000 0.0000 30.1228 0.0000 0.0000
# 5 0.0000 0.0000 0.0000 0.0000 -0.8794 0.0000
# 6 0.0000 0.0000 0.0000 0.0000 0.0000 27.6930
#
#
#
# Elastic Compliance Matrix: (Units=1/GPa)
#
#
# Indices 1 2 3 4 5 6 
#
# 1 0.024029 -0.002677 -0.007156 0.000000 0.000000 0.000000
# 2 -0.002677 0.005574 -0.001967 0.000000 0.000000 0.000000
# 3 -0.007156 -0.001967 0.013792 0.000000 0.000000 0.000000
# 4 0.000000 0.000000 0.000000 0.033197 0.000000 0.000000
# 5 0.000000 0.000000 0.000000 0.000000 -1.137090 0.000000
# 6 0.000000 0.000000 0.000000 0.000000 0.000000 0.036110
#
#
# Mechanical properties :
#
#
# Convention : Reuss Voigt Hill
#
# Bulk Modulus (GPa) = 50.51220 69.09189 59.80204
# Shear Modulus (GPa) = -5.02922 27.73264 11.35171
#
# Velocity S-wave (km/s) = -1.45841 3.42473 2.19110
# Velocity P-wave (km/s) = 4.30428 6.69768 5.62964
#
# Compressibility (1/GPa) = 0.01979720
#
# Stress axis : x y z
#
# Youngs Moduli (GPa) = 41.61596 179.41846 72.50487
#
# Poissons Ratio (x) = 0.48024 0.51881
# Poissons Ratio (y) = 0.11139 0.14260
# Poissons Ratio (z) = 0.29778 0.35287
#
# Static dielectric constant tensor:
#      x y z
#    x 1.897450 0.000000 0.000000 
#    y 0.000000 1.994760 0.000000 
#    z 0.000000 0.000000 1.899130 
# 
# From -- ./inp_files/21406.got.cif
#   From: 2010.05.17/outbox.cif.g08.bks.cpg/sg74_11_cif.got.tgz:21406.got - 2010.06.03 17:57:02.
