data_PCOD9539684
_publ_section_title
;
Structure prediction by ZEFSAII (Michael W. Deem and Ramdas Pophale) SiO2 
 PCOD9539684
Probable space group: I M M A
;
_chemical_formula_sum "Si O2"
_cell_formula_units_Z 76
_cell_length_a 19.885172
_cell_length_b 15.544113
_cell_length_c 11.497995
_cell_angle_alpha 90.000000
_cell_angle_beta 90.000000
_cell_angle_gamma 90.000000
_cell_volume 3553.999907
_symmetry_space_group_name_H-M "I M M A"
_symmetry_group_IT_number 74
_symmetry_cell_setting 'orthorhombic'
loop_
_space_group_symop_operation_xyz
x,y,z
-x,1/2-y,z
x,-y,-z
-x,1/2+y,-z
-x,-y,-z
x,1/2+y,-z
-x,y,z
x,1/2-y,z
1/2+x,1/2+y,1/2+z
1/2-x,-y,1/2+z
1/2+x,1/2-y,1/2-z
1/2-x,y,1/2-z
1/2-x,1/2-y,1/2-z
1/2+x,y,1/2-z
1/2-x,1/2+y,1/2+z
1/2+x,-y,1/2+z
loop_
_atom_site_type_symbol
_atom_site_label
_atom_site_fract_x
_atom_site_fract_y
_atom_site_fract_z
Si Si1 0.000000 0.250000 0.306535
Si Si2 0.732335 0.405538 0.955723
Si Si3 0.605389 0.911798 0.436583
Si Si4 0.592145 0.250000 0.414772
Si Si5 0.000000 0.604741 0.495078
Si Si6 0.251012 0.250000 0.113122
Si Si7 0.387765 0.648873 0.190565
O O1 0.062082 0.250000 0.214739
O O2 0.000000 0.164272 0.388216
O O3 0.812519 0.404755 0.934358
O O4 0.686749 0.380335 0.846645
O O5 0.713807 0.500000 0.000000
O O6 0.717882 0.334332 0.054524
O O7 0.575296 0.834741 0.512325
O O8 0.586008 0.902643 0.302314
O O9 0.588279 0.000000 0.500000
O O10 0.672402 0.250000 0.414752
O O11 0.000000 0.500000 0.500000
O O12 0.935361 0.632400 0.419373
O O13 0.250000 0.250000 0.250000
O O14 0.387236 0.750000 0.220130
#
# Coordination Sequence:
#
# PCOD9539684 Si02
#       7
#     4  16  16   8   8   8  16
#     4  12  28  48  70  90 136 170 224 276 330 406
#     4  10  22  39  65 104 136 177 219 269 336 393
#     4  10  23  42  67 105 134 170 223 267 341 400
#     4  10  24  42  64  94 131 174 211 275 327 387
#     4  12  30  49  66  96 126 177 229 269 333 396
#     4  10  22  37  64  94 137 173 218 267 333 391
#     4  12  23  44  72  94 138 175 224 280 324 399
#
# _framework density 21.384357000000001
#
# number of rings (size 3 to 8) (size 9 to 14) (size 15 to 20)
#    0.000    1.263    3.158    1.263    5.895    6.737 
#    0.000    1.053    0.000    0.000    0.000    0.000 
#    0.000    0.000    0.000    0.000    0.000    0.000 
#
# Total GULP energy -212400.142065 kJ/mol
# GULP energy per Si atom -5589.477423 kJ/mol
# Density = 2.133568 g / cm^3
# Si number density = 21.384357 Si / 1000 Ang^3
#
#
#
# Elastic Constant Matrix: (Units=GPa)
#
#
# Indices 1 2 3 4 5 6 
#
# 1 71.1384 35.7063 23.2629 0.0000 0.0000 0.0000
# 2 35.7063 182.3882 86.7653 0.0000 0.0000 0.0000
# 3 23.2629 86.7653 172.4617 0.0000 0.0000 0.0000
# 4 0.0000 0.0000 0.0000 35.4804 0.0000 0.0000
# 5 0.0000 0.0000 0.0000 0.0000 35.4680 0.0000
# 6 0.0000 0.0000 0.0000 0.0000 0.0000 148.9567
#
#
#
# Elastic Compliance Matrix: (Units=1/GPa)
#
#
# Indices 1 2 3 4 5 6 
#
# 1 0.015662 -0.002710 -0.000749 0.000000 0.000000 0.000000
# 2 -0.002710 0.007677 -0.003497 0.000000 0.000000 0.000000
# 3 -0.000749 -0.003497 0.007659 0.000000 0.000000 0.000000
# 4 0.000000 0.000000 0.000000 0.028185 0.000000 0.000000
# 5 0.000000 0.000000 0.000000 0.000000 0.028194 0.000000
# 6 0.000000 0.000000 0.000000 0.000000 0.000000 0.006713
#
#
# Mechanical properties :
#
#
# Convention : Reuss Voigt Hill
#
# Bulk Modulus (GPa) = 58.52709 79.71748 69.12229
# Shear Modulus (GPa) = 43.97662 62.66460 53.32061
#
# Velocity S-wave (km/s) = 4.53977 5.41918 4.99885
# Velocity P-wave (km/s) = 7.40998 8.74735 8.10629
#
# Compressibility (1/GPa) = 0.01708610
#
# Stress axis : x y z
#
# Youngs Moduli (GPa) = 63.84780 130.26416 130.57170
#
# Poissons Ratio (x) = 0.35298 0.09785
# Poissons Ratio (y) = 0.17301 0.45656
# Poissons Ratio (z) = 0.04785 0.45549
#
# Static dielectric constant tensor:
#      x y z
#    x 1.854070 0.000000 0.000000 
#    y 0.000000 1.753240 0.000000 
#    z 0.000000 0.000000 1.733010 
# 
# From -- ./inp_files/24944.got.cif
#   From: 2010.05.17/outbox.cif.g08.bks.cpg/sg74_13_cif.got.tgz:24944.got - 2010.06.03 17:57:02.
