data_PCOD9539613
_publ_section_title
;
Structure prediction by ZEFSAII (Michael W. Deem and Ramdas Pophale) SiO2 
 PCOD9539613
Probable space group: I M M A
;
_chemical_formula_sum "Si O2"
_cell_formula_units_Z 92
_cell_length_a 9.394510
_cell_length_b 27.443556
_cell_length_c 19.360878
_cell_angle_alpha 90.000000
_cell_angle_beta 90.000000
_cell_angle_gamma 90.000000
_cell_volume 4991.597583
_symmetry_space_group_name_H-M "I M M A"
_symmetry_group_IT_number 74
_symmetry_cell_setting 'orthorhombic'
loop_
_space_group_symop_operation_xyz
x,y,z
-x,1/2-y,z
x,-y,-z
-x,1/2+y,-z
-x,-y,-z
x,1/2+y,-z
-x,y,z
x,1/2-y,z
1/2+x,1/2+y,1/2+z
1/2-x,-y,1/2+z
1/2+x,1/2-y,1/2-z
1/2-x,y,1/2-z
1/2-x,1/2-y,1/2-z
1/2+x,y,1/2-z
1/2-x,1/2+y,1/2+z
1/2+x,-y,1/2+z
loop_
_atom_site_type_symbol
_atom_site_label
_atom_site_fract_x
_atom_site_fract_y
_atom_site_fract_z
Si Si1 0.167839 0.930354 0.178101
Si Si2 0.164064 0.855483 0.414905
Si Si3 0.668416 0.192338 0.322176
Si Si4 0.332900 0.478478 0.423791
Si Si5 0.000000 0.750000 0.228267
Si Si6 0.716966 0.250000 0.858214
Si Si7 0.331069 0.120669 0.075811
O O1 0.250000 0.934525 0.250000
O O2 0.232725 0.885754 0.134748
O O3 0.000000 0.922695 0.189928
O O4 0.186325 0.978768 0.131898
O O5 0.185099 0.798509 0.401483
O O6 0.189653 0.868916 0.494448
O O7 0.000000 0.868349 0.398036
O O8 0.500000 0.180962 0.316355
O O9 0.681234 0.250000 0.337986
O O10 0.750000 0.183693 0.250000
O O11 0.744941 0.159904 0.379657
O O12 0.302406 0.500000 0.500000
O O13 0.500000 0.463712 0.423224
O O14 0.233292 0.432589 0.409494
O O15 0.123716 0.750000 0.169099
O O16 0.119656 0.750000 0.290365
O O17 0.500000 0.122851 0.090499
#
# Coordination Sequence:
#
# PCOD9539613 Si02
#       7
#    16  16  16  16   4   8  16
#     4  11  25  41  65  93 124 161 207 260 313 371
#     4  11  24  41  61  91 128 168 210 257 307 367
#     4  10  22  42  67  96 129 167 208 257 312 376
#     4  10  21  43  65  87 121 164 209 262 314 367
#     4  10  24  42  64  82 120 174 210 266 308 360
#     4  11  24  42  60  90 121 168 214 256 314 364
#     4  11  24  39  65  96 129 169 206 258 317 376
#
# _framework density 18.430973000000002
#
# number of rings (size 3 to 8) (size 9 to 14) (size 15 to 20)
#    0.000    1.391    2.609    1.565    4.870    4.174 
#    0.000    1.739    0.000    0.000    0.000    0.000 
#    0.000    0.000    0.000    0.000    0.000    0.000 
#
# Total GULP energy -256533.380035 kJ/mol
# GULP energy per Si atom -5576.812609 kJ/mol
# Density = 1.838902 g / cm^3
# Si number density = 18.430973 Si / 1000 Ang^3
#
#
#
# Elastic Constant Matrix: (Units=GPa)
#
#
# Indices 1 2 3 4 5 6 
#
# 1 165.6383 72.0434 87.2823 0.0000 0.0000 0.0000
# 2 72.0434 95.5254 63.2358 0.0000 0.0000 0.0000
# 3 87.2823 63.2358 104.9964 0.0001 0.0000 0.0000
# 4 0.0000 0.0000 0.0001 27.7721 0.0000 0.0000
# 5 0.0000 0.0000 0.0000 0.0000 33.9709 0.0000
# 6 0.0000 0.0000 0.0000 0.0000 0.0000 70.4018
#
#
#
# Elastic Compliance Matrix: (Units=1/GPa)
#
#
# Indices 1 2 3 4 5 6 
#
# 1 0.011564 -0.003921 -0.007251 0.000000 0.000000 0.000000
# 2 -0.003921 0.018739 -0.008026 0.000000 0.000000 0.000000
# 3 -0.007251 -0.008026 0.020386 0.000000 0.000000 0.000000
# 4 0.000000 0.000000 0.000000 0.036007 0.000000 0.000000
# 5 0.000000 0.000000 0.000000 0.000000 0.029437 0.000000
# 6 0.000000 0.000000 0.000000 0.000000 0.000000 0.014204
#
#
# Mechanical properties :
#
#
# Convention : Reuss Voigt Hill
#
# Bulk Modulus (GPa) = 81.35770 90.14255 85.75012
# Shear Modulus (GPa) = 28.92997 36.00220 32.46608
#
# Velocity S-wave (km/s) = 3.96616 4.42447 4.20157
# Velocity P-wave (km/s) = 8.07537 8.66693 8.37637
#
# Compressibility (1/GPa) = 0.01229140
#
# Stress axis : x y z
#
# Youngs Moduli (GPa) = 86.47784 53.36539 49.05311
#
# Poissons Ratio (x) = 0.20924 0.35570
# Poissons Ratio (y) = 0.33907 0.39372
# Poissons Ratio (z) = 0.62708 0.42833
#
# Static dielectric constant tensor:
#      x y z
#    x 1.624490 0.000000 0.000000 
#    y 0.000000 1.617540 0.000000 
#    z 0.000000 0.000000 1.599570 
# 
# From -- ./inp_files/49206.got.cif
#   From: 2010.05.17/outbox.cif.g08.bks.cpg/sg74_25_cif.got.tgz:49206.got - 2010.06.03 17:57:02.
