data_PCOD9539217
_publ_section_title
;
Structure prediction by ZEFSAII (Michael W. Deem and Ramdas Pophale) SiO2 
 PCOD9539217
Probable space group: I M M A
;
_chemical_formula_sum "Si O2"
_cell_formula_units_Z 88
_cell_length_a 11.661586
_cell_length_b 20.760131
_cell_length_c 18.425144
_cell_angle_alpha 90.000000
_cell_angle_beta 90.000000
_cell_angle_gamma 90.000000
_cell_volume 4460.654639
_symmetry_space_group_name_H-M "I M M A"
_symmetry_group_IT_number 74
_symmetry_cell_setting 'orthorhombic'
loop_
_space_group_symop_operation_xyz
x,y,z
-x,1/2-y,z
x,-y,-z
-x,1/2+y,-z
-x,-y,-z
x,1/2+y,-z
-x,y,z
x,1/2-y,z
1/2+x,1/2+y,1/2+z
1/2-x,-y,1/2+z
1/2+x,1/2-y,1/2-z
1/2-x,y,1/2-z
1/2-x,1/2-y,1/2-z
1/2+x,y,1/2-z
1/2-x,1/2+y,1/2+z
1/2+x,-y,1/2+z
loop_
_atom_site_type_symbol
_atom_site_label
_atom_site_fract_x
_atom_site_fract_y
_atom_site_fract_z
Si Si1 0.127251 0.865344 0.409301
Si Si2 0.785274 0.823518 0.563479
Si Si3 0.630279 0.250000 0.794651
Si Si4 0.868323 0.550843 0.940369
Si Si5 0.129630 0.887567 0.703845
Si Si6 0.263763 0.980688 0.168958
O O1 0.151845 0.833377 0.486711
O O2 0.133241 0.811635 0.347174
O O3 0.000000 0.893058 0.411432
O O4 0.207475 0.923362 0.384911
O O5 0.743771 0.750000 0.568702
O O6 0.691056 0.880062 0.561334
O O7 0.860073 0.841036 0.634113
O O8 0.500000 0.250000 0.759156
O O9 0.750000 0.250000 0.750000
O O10 0.847000 0.517039 0.862902
O O11 0.000000 0.560135 0.956662
O O12 0.821340 0.500000 0.000000
O O13 0.250000 0.877150 0.750000
O O14 0.144093 0.961257 0.675220
O O15 0.000000 0.879833 0.736120
O O16 0.250000 0.954908 0.250000
#
# Coordination Sequence:
#
# PCOD9539217 Si02
#       6
#    16  16   8  16  16  16
#     4  11  21  36  60  87 121 164 209 258 316 375
#     4  11  23  40  63  91 126 163 213 265 315 375
#     4  10  22  40  60  86 125 172 216 264 315 376
#     4  10  21  40  63  88 123 169 212 258 316 378
#     4  10  23  41  64  93 126 164 211 267 326 384
#     4  10  21  37  61  91 124 156 207 262 316 378
#
# _framework density 19.728045999999999
#
# number of rings (size 3 to 8) (size 9 to 14) (size 15 to 20)
#    0.000    1.636    2.727    1.636    0.000    9.091 
#    0.000    4.545    0.000    0.000    0.000    0.000 
#    0.000    0.000    0.000    0.000    0.000    0.000 
#
# Total GULP energy -245063.597504 kJ/mol
# GULP energy per Si atom -5569.627216 kJ/mol
# Density = 1.968314 g / cm^3
# Si number density = 19.728046 Si / 1000 Ang^3
#
#
#
# Elastic Constant Matrix: (Units=GPa)
#
#
# Indices 1 2 3 4 5 6 
#
# 1 97.6176 40.1393 26.7697 0.0000 0.0000 0.0000
# 2 40.1393 114.7145 25.2515 0.0000 0.0000 0.0000
# 3 26.7697 25.2515 78.9898 0.0000 0.0000 -0.0001
# 4 0.0000 0.0000 0.0000 23.7928 0.0000 -0.0001
# 5 0.0000 0.0000 0.0000 0.0000 19.1350 0.0000
# 6 0.0000 0.0000 -0.0001 -0.0001 0.0000 90.1154
#
#
#
# Elastic Compliance Matrix: (Units=1/GPa)
#
#
# Indices 1 2 3 4 5 6 
#
# 1 0.012627 -0.003740 -0.003084 0.000000 0.000000 0.000000
# 2 -0.003740 0.010485 -0.002084 0.000000 0.000000 0.000000
# 3 -0.003084 -0.002084 0.014371 0.000000 0.000000 0.000000
# 4 0.000000 0.000000 0.000000 0.042030 0.000000 0.000000
# 5 0.000000 0.000000 0.000000 0.000000 0.052260 0.000000
# 6 0.000000 0.000000 0.000000 0.000000 0.000000 0.011097
#
#
# Mechanical properties :
#
#
# Convention : Reuss Voigt Hill
#
# Bulk Modulus (GPa) = 50.84512 52.84919 51.84715
# Shear Modulus (GPa) = 29.89682 39.88607 34.89144
#
# Velocity S-wave (km/s) = 3.89710 4.50132 4.21006
# Velocity P-wave (km/s) = 6.78814 7.33913 7.06900
#
# Compressibility (1/GPa) = 0.01966757
#
# Stress axis : x y z
#
# Youngs Moduli (GPa) = 79.19257 95.37789 69.58279
#
# Poissons Ratio (x) = 0.35667 0.21459
# Poissons Ratio (y) = 0.29615 0.14504
# Poissons Ratio (z) = 0.24423 0.19880
#
# Static dielectric constant tensor:
#      x y z
#    x 1.717680 0.000000 0.000000 
#    y 0.000000 1.665860 0.000000 
#    z 0.000000 0.000000 1.738720 
# 
# From -- ./inp_files/41272.got.cif
#   From: 2010.05.17/outbox.cif.g08.bks.cpg/sg74_21_cif.got.tgz:41272.got - 2010.06.03 17:57:02.
