data_PCOD9539651
_publ_section_title
;
Structure prediction by ZEFSAII (Michael W. Deem and Ramdas Pophale) SiO2 
 PCOD9539651
Probable space group: I M M A
;
_chemical_formula_sum "Si O2"
_cell_formula_units_Z 88
_cell_length_a 21.378623
_cell_length_b 13.766553
_cell_length_c 13.180715
_cell_angle_alpha 90.000000
_cell_angle_beta 90.000000
_cell_angle_gamma 90.000000
_cell_volume 3879.215528
_symmetry_space_group_name_H-M "I M M A"
_symmetry_group_IT_number 74
_symmetry_cell_setting 'orthorhombic'
loop_
_space_group_symop_operation_xyz
x,y,z
-x,1/2-y,z
x,-y,-z
-x,1/2+y,-z
-x,-y,-z
x,1/2+y,-z
-x,y,z
x,1/2-y,z
1/2+x,1/2+y,1/2+z
1/2-x,-y,1/2+z
1/2+x,1/2-y,1/2-z
1/2-x,y,1/2-z
1/2-x,1/2-y,1/2-z
1/2+x,y,1/2-z
1/2-x,1/2+y,1/2+z
1/2+x,-y,1/2+z
loop_
_atom_site_type_symbol
_atom_site_label
_atom_site_fract_x
_atom_site_fract_y
_atom_site_fract_z
Si Si1 0.616210 0.250000 0.840393
Si Si2 0.380917 0.035345 0.888153
Si Si3 0.117752 0.409774 0.043479
Si Si4 0.573649 0.145098 0.240665
Si Si5 0.754625 0.055481 0.369724
Si Si6 0.286423 0.750000 0.986778
Si Si7 0.839392 0.250000 0.889957
O O1 0.590782 0.361975 0.849690
O O2 0.650567 0.250000 0.730521
O O3 0.652296 0.250000 0.947074
O O4 0.397028 0.948349 0.811888
O O5 0.303964 0.031976 0.890399
O O6 0.401689 0.000000 0.000000
O O7 0.086236 0.360154 0.139360
O O8 0.184194 0.450091 0.087980
O O9 0.080179 0.500000 0.000000
O O10 0.130317 0.340624 0.948558
O O11 0.500000 0.142573 0.221064
O O12 0.598512 0.250000 0.203698
O O13 0.750000 0.065650 0.250000
O O14 0.780147 0.154600 0.418581
O O15 0.231655 0.750000 0.071459
#
# Coordination Sequence:
#
# PCOD9539651 Si02
#       7
#     8  16  16  16  16   8   8
#     4  12  25  43  60 101 146 188 227 274 340 424
#     4  12  26  44  71 102 142 186 227 280 349 422
#     4  11  22  41  66 101 139 179 228 279 344 413
#     4  11  26  49  76 102 130 177 240 300 350 405
#     4  11  22  37  65 103 140 181 227 278 338 417
#     4  10  22  36  58  95 138 188 224 270 336 411
#     4  10  23  37  60  90 140 184 221 272 338 405
#
# _framework density 22.684999000000001
#
# number of rings (size 3 to 8) (size 9 to 14) (size 15 to 20)
#    0.000    0.909    4.545    2.182    5.091    0.727 
#    0.000    0.455    0.000    0.000    0.000    0.000 
#    0.000    0.000    0.000    0.000    0.000    0.000 
#
# Total GULP energy -245687.057567 kJ/mol
# GULP energy per Si atom -5583.796763 kJ/mol
# Density = 2.263337 g / cm^3
# Si number density = 22.684999 Si / 1000 Ang^3
#
#
#
# Elastic Constant Matrix: (Units=GPa)
#
#
# Indices 1 2 3 4 5 6 
#
# 1 32.6323 14.6539 -4.0842 0.0000 0.0000 0.0000
# 2 14.6539 176.4437 48.1060 0.0000 0.0000 0.0000
# 3 -4.0842 48.1060 138.8633 0.0000 0.0000 0.0000
# 4 0.0000 0.0000 0.0000 37.1863 0.0000 0.0000
# 5 0.0000 0.0000 0.0000 0.0000 -25.2297 0.0000
# 6 0.0000 0.0000 0.0000 0.0000 0.0000 11.4535
#
#
#
# Elastic Compliance Matrix: (Units=1/GPa)
#
#
# Indices 1 2 3 4 5 6 
#
# 1 0.032366 -0.003255 0.002080 0.000000 0.000000 0.000000
# 2 -0.003255 0.006586 -0.002377 0.000000 0.000000 0.000000
# 3 0.002080 -0.002377 0.008086 0.000000 0.000000 0.000000
# 4 0.000000 0.000000 0.000000 0.026892 0.000000 0.000000
# 5 0.000000 0.000000 0.000000 0.000000 -0.039636 0.000000
# 6 0.000000 0.000000 0.000000 0.000000 0.000000 0.087309
#
#
# Mechanical properties :
#
#
# Convention : Reuss Voigt Hill
#
# Bulk Modulus (GPa) = 25.04193 51.69895 38.37044
# Shear Modulus (GPa) = 35.20623 23.96628 29.58625
#
# Velocity S-wave (km/s) = 3.94377 3.25388 3.61532
# Velocity P-wave (km/s) = 5.63921 6.07918 5.86332
#
# Compressibility (1/GPa) = 0.03993302
#
# Stress axis : x y z
#
# Youngs Moduli (GPa) = 30.89614 151.83666 123.66964
#
# Poissons Ratio (x) = 0.49424 -0.25718
# Poissons Ratio (y) = 0.10057 0.29400
# Poissons Ratio (z) = -0.06425 0.36096
#
# Static dielectric constant tensor:
#      x y z
#    x 1.874280 0.000000 0.000000 
#    y 0.000000 1.963120 0.000000 
#    z 0.000000 0.000000 1.811270 
# 
# From -- ./inp_files/25044.got.cif
#   From: 2010.05.17/outbox.cif.g08.bks.cpg/sg74_13_cif.got.tgz:25044.got - 2010.06.03 17:57:02.
