data_PCOD9539643
_publ_section_title
;
Structure prediction by ZEFSAII (Michael W. Deem and Ramdas Pophale) SiO2 
 PCOD9539643
Probable space group: I M M A
;
_chemical_formula_sum "Si O2"
_cell_formula_units_Z 48
_cell_length_a 18.608169
_cell_length_b 9.497072
_cell_length_c 13.491232
_cell_angle_alpha 90.000000
_cell_angle_beta 90.000000
_cell_angle_gamma 90.000000
_cell_volume 2384.212622
_symmetry_space_group_name_H-M "I M M A"
_symmetry_group_IT_number 74
_symmetry_cell_setting 'orthorhombic'
loop_
_space_group_symop_operation_xyz
x,y,z
-x,1/2-y,z
x,-y,-z
-x,1/2+y,-z
-x,-y,-z
x,1/2+y,-z
-x,y,z
x,1/2-y,z
1/2+x,1/2+y,1/2+z
1/2-x,-y,1/2+z
1/2+x,1/2-y,1/2-z
1/2-x,y,1/2-z
1/2-x,1/2-y,1/2-z
1/2+x,y,1/2-z
1/2-x,1/2+y,1/2+z
1/2+x,-y,1/2+z
loop_
_atom_site_type_symbol
_atom_site_label
_atom_site_fract_x
_atom_site_fract_y
_atom_site_fract_z
Si Si1 0.500000 0.750000 0.090820
Si Si2 0.838853 0.250000 0.593267
Si Si3 0.657126 0.750000 0.542109
Si Si4 0.621573 0.750000 0.320837
Si Si5 0.000000 0.046732 0.772605
Si Si6 0.748376 0.500000 0.500000
Si Si7 0.500000 0.750000 0.639848
O O1 0.420105 0.750000 0.047088
O O2 0.500000 0.612405 0.162852
O O3 0.842404 0.250000 0.713195
O O4 0.799187 0.391404 0.558521
O O5 0.663139 0.750000 0.422292
O O6 0.698645 0.604395 0.567476
O O7 0.574055 0.750000 0.575942
O O8 0.569481 0.615200 0.322910
O O9 0.000000 0.884162 0.789499
#
# Coordination Sequence:
#
# PCOD9539643 Si02
#       7
#     4   8   8   8   8   8   4
#     4   8  18  41  66  79  98 152 196 211 270 350
#     4   9  20  40  61  81 108 139 184 233 271 321
#     4  11  22  34  55  83 113 150 184 214 268 330
#     4   9  18  37  58  76 108 153 181 207 268 346
#     4   8  17  31  55  88 110 135 182 226 266 319
#     4  10  22  36  52  84 114 140 184 230 268 318
#     4  12  20  33  56  87 120 140 174 237 268 298
#
# _framework density 20.132432999999999
#
# number of rings (size 3 to 8) (size 9 to 14) (size 15 to 20)
#    0.000    3.000    0.000    3.000    0.000    5.333 
#    0.000   13.333    0.000   16.000    0.000    0.000 
#    0.000    0.000    0.000    0.000    0.000    0.000 
#
# Total GULP energy -133662.784261 kJ/mol
# GULP energy per Si atom -5569.282678 kJ/mol
# Density = 2.008661 g / cm^3
# Si number density = 20.132433 Si / 1000 Ang^3
#
#
#
# Elastic Constant Matrix: (Units=GPa)
#
#
# Indices 1 2 3 4 5 6 
#
# 1 153.1775 75.4572 27.7212 0.0000 0.0000 0.0000
# 2 75.4572 201.2880 36.1935 0.0000 0.0000 0.0000
# 3 27.7212 36.1935 50.7631 0.0000 0.0000 0.0000
# 4 0.0000 0.0000 0.0000 -20.1076 0.0000 0.0000
# 5 0.0000 0.0000 0.0000 0.0000 25.3232 0.0000
# 6 0.0000 0.0000 0.0000 0.0000 0.0000 -321.8492
#
#
#
# Elastic Compliance Matrix: (Units=1/GPa)
#
#
# Indices 1 2 3 4 5 6 
#
# 1 0.008308 -0.002637 -0.002657 0.000000 0.000000 0.000000
# 2 -0.002637 0.006535 -0.003220 0.000000 0.000000 0.000000
# 3 -0.002657 -0.003220 0.023446 0.000000 0.000000 0.000000
# 4 0.000000 0.000000 0.000000 -0.049732 0.000000 0.000000
# 5 0.000000 0.000000 0.000000 0.000000 0.039490 0.000000
# 6 0.000000 0.000000 0.000000 0.000000 0.000000 -0.003107
#
#
# Mechanical properties :
#
#
# Convention : Reuss Voigt Hill
#
# Bulk Modulus (GPa) = 47.03128 75.99695 61.51411
# Shear Modulus (GPa) = 101.92829 -45.60296 28.16267
#
# Velocity S-wave (km/s) = 7.12312 -4.76452 3.74421
# Velocity P-wave (km/s) = 9.54272 2.75008 7.02233
#
# Compressibility (1/GPa) = 0.02126244
#
# Stress axis : x y z
#
# Youngs Moduli (GPa) = 120.36427 153.01317 42.65125
#
# Poissons Ratio (x) = 0.40345 0.11333
# Poissons Ratio (y) = 0.31737 0.13733
# Poissons Ratio (z) = 0.31981 0.49267
#
# Static dielectric constant tensor:
#      x y z
#    x 1.805830 0.000000 0.000000 
#    y 0.000000 1.871250 0.000000 
#    z 0.000000 0.000000 1.704090 
# 
# From -- ./inp_files/28303.got.cif
#   From: 2010.05.17/outbox.cif.g08.bks.cpg/sg74_15_cif.got.tgz:28303.got - 2010.06.03 17:57:02.
