data_PCOD9539795
_publ_section_title
;
Structure prediction by ZEFSAII (Michael W. Deem and Ramdas Pophale) SiO2 
 PCOD9539795
Probable space group: I M M A
;
_chemical_formula_sum "Si O2"
_cell_formula_units_Z 64
_cell_length_a 15.490740
_cell_length_b 15.967516
_cell_length_c 12.050593
_cell_angle_alpha 90.000000
_cell_angle_beta 90.000000
_cell_angle_gamma 90.000000
_cell_volume 2980.697775
_symmetry_space_group_name_H-M "I M M A"
_symmetry_group_IT_number 74
_symmetry_cell_setting 'orthorhombic'
loop_
_space_group_symop_operation_xyz
x,y,z
-x,1/2-y,z
x,-y,-z
-x,1/2+y,-z
-x,-y,-z
x,1/2+y,-z
-x,y,z
x,1/2-y,z
1/2+x,1/2+y,1/2+z
1/2-x,-y,1/2+z
1/2+x,1/2-y,1/2-z
1/2-x,y,1/2-z
1/2-x,1/2-y,1/2-z
1/2+x,y,1/2-z
1/2-x,1/2+y,1/2+z
1/2+x,-y,1/2+z
loop_
_atom_site_type_symbol
_atom_site_label
_atom_site_fract_x
_atom_site_fract_y
_atom_site_fract_z
Si Si1 0.855092 0.655396 0.252937
Si Si2 0.000000 0.419446 0.091488
Si Si3 0.858358 0.899264 0.495056
Si Si4 0.500000 0.848007 0.827281
Si Si5 0.663841 0.402433 0.519413
O O1 0.883762 0.750000 0.236464
O O2 0.750000 0.653675 0.250000
O O3 0.887773 0.624018 0.370596
O O4 0.874946 0.604913 0.142771
O O5 0.000000 0.415724 0.226000
O O6 0.000000 0.500000 0.000000
O O7 0.911255 0.373002 0.061040
O O8 0.917673 0.863628 0.592195
O O9 0.759168 0.865310 0.499001
O O10 0.860678 0.000000 0.500000
O O11 0.500000 0.750000 0.790743
O O12 0.679148 0.500000 0.500000
#
# Coordination Sequence:
#
# PCOD9539795 Si02
#       5
#    16   8  16   8  16
#     4   9  18  35  61  93 125 158 203 257 311 377
#     4  10  24  42  64  88 126 166 216 261 313 381
#     4  10  22  39  66  94 126 167 212 259 323 388
#     4  12  27  44  62  95 134 167 214 276 331 386
#     4   9  20  39  64  93 126 167 214 260 313 378
#
# _framework density 21.471484
#
# number of rings (size 3 to 8) (size 9 to 14) (size 15 to 20)
#    0.000    2.250    0.000    1.125    7.000    4.000 
#    0.000    2.500    0.000    0.000    0.000    0.000 
#    0.000    0.000    0.000    0.000    0.000    0.000 
#
# Total GULP energy -178174.569635 kJ/mol
# GULP energy per Si atom -5567.955301 kJ/mol
# Density = 2.142261 g / cm^3
# Si number density = 21.471484 Si / 1000 Ang^3
#
#
#
# Elastic Constant Matrix: (Units=GPa)
#
#
# Indices 1 2 3 4 5 6 
#
# 1 116.0838 -9.0408 49.5230 0.0000 0.0000 0.0000
# 2 -9.0408 79.4721 41.3322 0.0000 0.0000 0.0000
# 3 49.5230 41.3322 188.5617 0.0000 0.0000 0.0000
# 4 0.0000 0.0000 0.0000 -28.8238 0.0000 0.0000
# 5 0.0000 0.0000 0.0000 0.0000 40.5772 0.0000
# 6 0.0000 0.0000 0.0000 0.0000 0.0000 3.7985
#
#
#
# Elastic Compliance Matrix: (Units=1/GPa)
#
#
# Indices 1 2 3 4 5 6 
#
# 1 0.010261 0.002899 -0.003330 0.000000 0.000000 0.000000
# 2 0.002899 0.015021 -0.004054 0.000000 0.000000 0.000000
# 3 -0.003330 -0.004054 0.007067 0.000000 0.000000 0.000000
# 4 0.000000 0.000000 0.000000 -0.034694 0.000000 0.000000
# 5 0.000000 0.000000 0.000000 0.000000 0.024644 0.000000
# 6 0.000000 0.000000 0.000000 0.000000 0.000000 0.263261
#
#
# Mechanical properties :
#
#
# Convention : Reuss Voigt Hill
#
# Bulk Modulus (GPa) = 42.77380 60.86070 51.81725
# Shear Modulus (GPa) = 16.53851 23.26392 19.90122
#
# Velocity S-wave (km/s) = 2.77836 3.29520 3.04775
# Velocity P-wave (km/s) = 5.50062 6.54860 6.04736
#
# Compressibility (1/GPa) = 0.02337880
#
# Stress axis : x y z
#
# Youngs Moduli (GPa) = 97.45529 66.57181 141.50947
#
# Poissons Ratio (x) = -0.19302 0.47130
# Poissons Ratio (y) = -0.28257 0.57370
# Poissons Ratio (z) = 0.32457 0.26989
#
# Static dielectric constant tensor:
#      x y z
#    x 1.888640 0.000000 0.000000 
#    y 0.000000 1.779390 0.000000 
#    z 0.000000 0.000000 1.733040 
# 
# From -- ./inp_files/21791.got.cif
#   From: 2010.05.17/outbox.cif.g08.bks.cpg/sg74_11_cif.got.tgz:21791.got - 2010.06.03 17:57:02.
