data_PCOD9539827
_publ_section_title
;
Structure prediction by ZEFSAII (Michael W. Deem and Ramdas Pophale) SiO2 
 PCOD9539827
Probable space group: I M M A
;
_chemical_formula_sum "Si O2"
_cell_formula_units_Z 84
_cell_length_a 14.634180
_cell_length_b 11.572843
_cell_length_c 25.384646
_cell_angle_alpha 90.000000
_cell_angle_beta 90.000000
_cell_angle_gamma 90.000000
_cell_volume 4299.119977
_symmetry_space_group_name_H-M "I M M A"
_symmetry_group_IT_number 74
_symmetry_cell_setting 'orthorhombic'
loop_
_space_group_symop_operation_xyz
x,y,z
-x,1/2-y,z
x,-y,-z
-x,1/2+y,-z
-x,-y,-z
x,1/2+y,-z
-x,y,z
x,1/2-y,z
1/2+x,1/2+y,1/2+z
1/2-x,-y,1/2+z
1/2+x,1/2-y,1/2-z
1/2-x,y,1/2-z
1/2-x,1/2-y,1/2-z
1/2+x,y,1/2-z
1/2-x,1/2+y,1/2+z
1/2+x,-y,1/2+z
loop_
_atom_site_type_symbol
_atom_site_label
_atom_site_fract_x
_atom_site_fract_y
_atom_site_fract_z
Si Si1 0.610667 0.750000 0.394801
Si Si2 0.185363 0.990273 0.057280
Si Si3 0.643361 0.498939 0.764572
Si Si4 0.667608 0.379002 0.126892
Si Si5 0.144198 0.250000 0.768000
Si Si6 0.000000 0.887950 0.926683
Si Si7 0.000000 0.885897 0.808393
Si Si8 0.500000 0.250000 0.083469
O O1 0.500000 0.750000 0.401906
O O2 0.655041 0.635943 0.421698
O O3 0.631343 0.750000 0.331516
O O4 0.251667 0.051308 0.099174
O O5 0.093218 0.064872 0.049918
O O6 0.231831 0.000000 0.000000
O O7 0.750000 0.501400 0.750000
O O8 0.633167 0.551016 0.822427
O O9 0.607868 0.368746 0.756318
O O10 0.587927 0.575161 0.723522
O O11 0.701021 0.250000 0.144083
O O12 0.581644 0.348933 0.089724
O O13 0.250000 0.250000 0.750000
O O14 0.000000 0.935402 0.866832
O O15 0.000000 0.750000 0.928730
O O16 0.000000 0.750000 0.813542
#
# Coordination Sequence:
#
# PCOD9539827 Si02
#       8
#     8  16  16  16   8   8   8   4
#     4  12  26  43  65  97 143 191 229 279 340 402
#     4  12  26  42  69  97 135 184 238 283 340 408
#     4  11  22  36  62  90 132 172 218 266 333 405
#     4  10  22  43  68  96 130 172 222 287 352 403
#     4  10  22  40  61  90 129 174 224 269 328 400
#     4  11  23  39  62  97 148 177 222 280 325 403
#     4  11  23  36  59  94 130 174 222 257 326 413
#     4   8  22  44  70  86 128 162 208 286 362 400
#
# _framework density 19.538882000000001
#
# number of rings (size 3 to 8) (size 9 to 14) (size 15 to 20)
#    0.571    0.571    0.952    6.571    5.333    3.048 
#    0.000    0.476    0.000    0.571    0.000    0.000 
#    0.000    0.000    0.000    0.000    0.000    0.000 
#
# Total GULP energy -233907.667336 kJ/mol
# GULP energy per Si atom -5569.230175 kJ/mol
# Density = 1.949441 g / cm^3
# Si number density = 19.538882 Si / 1000 Ang^3
#
#
#
# Elastic Constant Matrix: (Units=GPa)
#
#
# Indices 1 2 3 4 5 6 
#
# 1 87.6573 25.6263 0.6890 0.0000 0.0000 0.0000
# 2 25.6263 135.5504 42.2175 0.0000 0.0000 0.0000
# 3 0.6890 42.2175 94.8612 0.0000 0.0000 0.0000
# 4 0.0000 0.0000 0.0000 12.6767 0.0000 0.0000
# 5 0.0000 0.0000 0.0000 0.0000 16.0895 0.0000
# 6 0.0000 0.0000 0.0000 0.0000 0.0000 12.2129
#
#
#
# Elastic Compliance Matrix: (Units=1/GPa)
#
#
# Indices 1 2 3 4 5 6 
#
# 1 0.012171 -0.002639 0.001086 0.000000 0.000000 0.000000
# 2 -0.002639 0.009137 -0.004047 0.000000 0.000000 0.000000
# 3 0.001086 -0.004047 0.012335 0.000000 0.000000 0.000000
# 4 0.000000 0.000000 0.000000 0.078885 0.000000 0.000000
# 5 0.000000 0.000000 0.000000 0.000000 0.062152 0.000000
# 6 0.000000 0.000000 0.000000 0.000000 0.000000 0.081881
#
#
# Mechanical properties :
#
#
# Convention : Reuss Voigt Hill
#
# Bulk Modulus (GPa) = 44.55840 50.57051 47.56445
# Shear Modulus (GPa) = 18.16584 24.83157 21.49871
#
# Velocity S-wave (km/s) = 3.05245 3.56881 3.32068
# Velocity P-wave (km/s) = 5.93951 6.55134 6.25291
#
# Compressibility (1/GPa) = 0.02244246
#
# Stress axis : x y z
#
# Youngs Moduli (GPa) = 82.16180 109.44779 81.07030
#
# Poissons Ratio (x) = 0.28886 -0.08806
# Poissons Ratio (y) = 0.21685 0.32810
# Poissons Ratio (z) = -0.08924 0.44295
#
# Static dielectric constant tensor:
#      x y z
#    x 1.672980 0.000000 0.000000 
#    y 0.000000 1.717580 0.000000 
#    z 0.000000 0.000000 1.713090 
# 
# From -- ./inp_files/59878.got.cif
#   From: 2010.05.17/outbox.cif.g08.bks.cpg/sg74_30_cif.got.tgz:59878.got - 2010.06.03 17:57:02.
