data_PCOD9539456
_publ_section_title
;
Structure prediction by ZEFSAII (Michael W. Deem and Ramdas Pophale) SiO2 
 PCOD9539456
Probable space group: I M M A
;
_chemical_formula_sum "Si O2"
_cell_formula_units_Z 64
_cell_length_a 13.002927
_cell_length_b 8.133150
_cell_length_c 24.556929
_cell_angle_alpha 90.000000
_cell_angle_beta 90.000000
_cell_angle_gamma 90.000000
_cell_volume 2597.012028
_symmetry_space_group_name_H-M "I M M A"
_symmetry_group_IT_number 74
_symmetry_cell_setting 'orthorhombic'
loop_
_space_group_symop_operation_xyz
x,y,z
-x,1/2-y,z
x,-y,-z
-x,1/2+y,-z
-x,-y,-z
x,1/2+y,-z
-x,y,z
x,1/2-y,z
1/2+x,1/2+y,1/2+z
1/2-x,-y,1/2+z
1/2+x,1/2-y,1/2-z
1/2-x,y,1/2-z
1/2-x,1/2-y,1/2-z
1/2+x,y,1/2-z
1/2-x,1/2+y,1/2+z
1/2+x,-y,1/2+z
loop_
_atom_site_type_symbol
_atom_site_label
_atom_site_fract_x
_atom_site_fract_y
_atom_site_fract_z
Si Si1 0.669725 0.064566 0.176523
Si Si2 0.885080 0.559663 0.210050
Si Si3 0.388466 0.947557 0.562323
Si Si4 0.836984 0.437386 0.562184
O O1 0.643760 0.250000 0.191840
O O2 0.794200 0.043618 0.182125
O O3 0.630844 0.948463 0.224683
O O4 0.625296 0.029647 0.116453
O O5 0.876032 0.750000 0.192713
O O6 0.000000 0.498305 0.200509
O O7 0.500000 0.985819 0.587783
O O8 0.369689 0.750000 0.566610
O O9 0.400660 0.000000 0.500000
O O10 0.285226 0.046831 0.574030
O O11 0.855895 0.500000 0.500000
O O12 0.870345 0.250000 0.563875
#
# Coordination Sequence:
#
# PCOD9539456 Si02
#       4
#    16  16  16  16
#     4  11  22  37  59  87 119 153 193 239 287 344
#     4  10  21  39  63  89 117 150 190 239 293 344
#     4   9  16  26  40  60  89 127 172 218 264 318
#     4  11  21  34  52  75 108 148 190 233 282 340
#
# _framework density 24.643704
#
# number of rings (size 3 to 8) (size 9 to 14) (size 15 to 20)
#    0.000    1.750    0.000    9.000    0.000    4.500 
#    0.000    0.000    0.000    0.750    0.000    0.000 
#    0.000    0.000    0.000    0.000    0.000    0.000 
#
# Total GULP energy -178570.600491 kJ/mol
# GULP energy per Si atom -5580.331265 kJ/mol
# Density = 2.458761 g / cm^3
# Si number density = 24.643704 Si / 1000 Ang^3
#
#
#
# Elastic Constant Matrix: (Units=GPa)
#
#
# Indices 1 2 3 4 5 6 
#
# 1 89.1089 2.0719 3.6910 0.0000 0.0000 0.0000
# 2 2.0719 86.4158 4.6105 0.0000 0.0000 0.0000
# 3 3.6910 4.6105 170.8244 0.0000 0.0000 0.0000
# 4 0.0000 0.0000 0.0000 27.4845 0.0000 0.0000
# 5 0.0000 0.0000 0.0000 0.0000 -16.7772 0.0000
# 6 0.0000 0.0000 0.0000 0.0000 0.0000 -4.2360
#
#
#
# Elastic Compliance Matrix: (Units=1/GPa)
#
#
# Indices 1 2 3 4 5 6 
#
# 1 0.011238 -0.000257 -0.000236 0.000000 0.000000 0.000000
# 2 -0.000257 0.011595 -0.000307 0.000000 0.000000 0.000000
# 3 -0.000236 -0.000307 0.005867 0.000000 0.000000 0.000000
# 4 0.000000 0.000000 0.000000 0.036384 0.000000 0.000000
# 5 0.000000 0.000000 0.000000 0.000000 -0.059605 0.000000
# 6 0.000000 0.000000 0.000000 0.000000 0.000000 -0.236074
#
#
# Mechanical properties :
#
#
# Convention : Reuss Voigt Hill
#
# Bulk Modulus (GPa) = 36.90093 40.78844 38.84469
# Shear Modulus (GPa) = -22.73125 23.69265 0.48070
#
# Velocity S-wave (km/s) = -3.04039 3.10402 0.44213
# Velocity P-wave (km/s) = 1.63737 5.42529 4.00717
#
# Compressibility (1/GPa) = 0.02709959
#
# Stress axis : x y z
#
# Youngs Moduli (GPa) = 88.98410 86.24764 170.43451
#
# Poissons Ratio (x) = 0.02215 0.04020
# Poissons Ratio (y) = 0.02286 0.05239
# Poissons Ratio (z) = 0.02099 0.02651
#
# Static dielectric constant tensor:
#      x y z
#    x 2.981660 0.000000 0.000000 
#    y 0.000000 1.843440 0.000000 
#    z 0.000000 0.000000 2.700960 
# 
# From -- ./inp_files/60542.got.cif
#   From: 2010.05.17/outbox.cif.g08.bks.cpg/sg74_31_cif.got.tgz:60542.got - 2010.06.03 17:57:02.
