data_PCOD9539920
_publ_section_title
;
Structure prediction by ZEFSAII (Michael W. Deem and Ramdas Pophale) SiO2 
 PCOD9539920
Probable space group: I M M A
;
_chemical_formula_sum "Si O2"
_cell_formula_units_Z 88
_cell_length_a 15.264190
_cell_length_b 27.953433
_cell_length_c 11.275993
_cell_angle_alpha 90.000000
_cell_angle_beta 90.000000
_cell_angle_gamma 90.000000
_cell_volume 4811.314128
_symmetry_space_group_name_H-M "I M M A"
_symmetry_group_IT_number 74
_symmetry_cell_setting 'orthorhombic'
loop_
_space_group_symop_operation_xyz
x,y,z
-x,1/2-y,z
x,-y,-z
-x,1/2+y,-z
-x,-y,-z
x,1/2+y,-z
-x,y,z
x,1/2-y,z
1/2+x,1/2+y,1/2+z
1/2-x,-y,1/2+z
1/2+x,1/2-y,1/2-z
1/2-x,y,1/2-z
1/2-x,1/2-y,1/2-z
1/2+x,y,1/2-z
1/2-x,1/2+y,1/2+z
1/2+x,-y,1/2+z
loop_
_atom_site_type_symbol
_atom_site_label
_atom_site_fract_x
_atom_site_fract_y
_atom_site_fract_z
Si Si1 0.896515 0.611205 0.455634
Si Si2 0.648162 0.525498 0.215738
Si Si3 0.500000 0.456427 0.592250
Si Si4 0.000000 0.620042 0.887381
Si Si5 0.850188 0.085495 0.290488
Si Si6 0.146099 0.694025 0.271895
Si Si7 0.000000 0.306864 0.920717
O O1 0.865040 0.563315 0.388860
O O2 0.857332 0.613191 0.586278
O O3 0.876020 0.657362 0.376304
O O4 0.000000 0.607210 0.468513
O O5 0.750000 0.526730 0.250000
O O6 0.584758 0.541005 0.323433
O O7 0.624817 0.470354 0.187784
O O8 0.500000 0.500000 0.500000
O O9 0.500000 0.411221 0.507261
O O10 0.915920 0.606880 0.807521
O O11 0.000000 0.671871 0.947366
O O12 0.750000 0.086319 0.250000
O O13 0.126134 0.750000 0.299096
O O14 0.250000 0.690459 0.250000
O O15 0.085760 0.680076 0.158618
O O16 0.000000 0.250000 0.929564
#
# Coordination Sequence:
#
# PCOD9539920 Si02
#       7
#    16  16   8   8  16  16   8
#     4  12  23  39  64  89 122 162 206 250 303 363
#     4  11  24  40  61  90 121 165 209 256 300 353
#     4  12  22  37  61  87 122 159 202 250 304 362
#     4  12  24  42  61  85 125 167 202 247 306 367
#     4  11  26  41  58  87 126 168 205 249 299 359
#     4  10  22  42  68  95 120 150 196 257 312 354
#     4  10  22  41  66  95 122 154 199 251 306 363
#
# _framework density 18.290220999999999
#
# number of rings (size 3 to 8) (size 9 to 14) (size 15 to 20)
#    0.000    0.909    4.545    2.182    5.091    0.727 
#    0.000    0.909    0.000    1.091    0.000    0.000 
#    0.000    0.000    0.000    0.000    0.000    0.000 
#
# Total GULP energy -245823.669176 kJ/mol
# GULP energy per Si atom -5586.901572 kJ/mol
# Density = 1.824859 g / cm^3
# Si number density = 18.290221 Si / 1000 Ang^3
#
#
#
# Elastic Constant Matrix: (Units=GPa)
#
#
# Indices 1 2 3 4 5 6 
#
# 1 112.6583 28.8613 44.5309 -0.0001 0.0000 0.0000
# 2 28.8613 71.5215 51.6711 -0.0002 0.0000 0.0000
# 3 44.5309 51.6711 105.5316 -0.0003 0.0000 0.0000
# 4 -0.0001 -0.0002 -0.0003 70.8194 0.0000 0.0000
# 5 0.0000 0.0000 0.0000 0.0000 19.7362 0.0000
# 6 0.0000 0.0000 0.0000 0.0000 0.0000 22.5982
#
#
#
# Elastic Compliance Matrix: (Units=1/GPa)
#
#
# Indices 1 2 3 4 5 6 
#
# 1 0.010777 -0.001646 -0.003742 0.000000 0.000000 0.000000
# 2 -0.001646 0.021886 -0.010022 0.000000 0.000000 0.000000
# 3 -0.003742 -0.010022 0.015962 0.000000 0.000000 0.000000
# 4 0.000000 0.000000 0.000000 0.014120 0.000000 0.000000
# 5 0.000000 0.000000 0.000000 0.000000 0.050668 0.000000
# 6 0.000000 0.000000 0.000000 0.000000 0.000000 0.044251
#
#
# Mechanical properties :
#
#
# Convention : Reuss Voigt Hill
#
# Bulk Modulus (GPa) = 56.15885 59.98197 58.07041
# Shear Modulus (GPa) = 25.71777 33.60731 29.66254
#
# Velocity S-wave (km/s) = 3.75386 4.29120 4.03149
# Velocity P-wave (km/s) = 7.03986 7.57748 7.31361
#
# Compressibility (1/GPa) = 0.01780663
#
# Stress axis : x y z
#
# Youngs Moduli (GPa) = 92.79005 45.69130 62.65032
#
# Poissons Ratio (x) = 0.07519 0.23443
# Poissons Ratio (y) = 0.15269 0.62786
# Poissons Ratio (z) = 0.34720 0.45790
#
# Static dielectric constant tensor:
#      x y z
#    x 1.654530 0.000000 0.000000 
#    y 0.000000 1.733200 0.000000 
#    z 0.000000 0.000000 1.582770 
# 
# From -- ./inp_files/20921.got.cif
#   From: 2010.05.17/outbox.cif.g08.bks.cpg/sg74_11_cif.got.tgz:20921.got - 2010.06.03 17:57:02.
