data_PCOD9539205
_publ_section_title
;
Structure prediction by ZEFSAII (Michael W. Deem and Ramdas Pophale) SiO2 
 PCOD9539205
Probable space group: I M M A
;
_chemical_formula_sum "Si O2"
_cell_formula_units_Z 100
_cell_length_a 7.679123
_cell_length_b 30.641325
_cell_length_c 19.214681
_cell_angle_alpha 90.000000
_cell_angle_beta 90.000000
_cell_angle_gamma 90.000000
_cell_volume 4521.185686
_symmetry_space_group_name_H-M "I M M A"
_symmetry_group_IT_number 74
_symmetry_cell_setting 'orthorhombic'
loop_
_space_group_symop_operation_xyz
x,y,z
-x,1/2-y,z
x,-y,-z
-x,1/2+y,-z
-x,-y,-z
x,1/2+y,-z
-x,y,z
x,1/2-y,z
1/2+x,1/2+y,1/2+z
1/2-x,-y,1/2+z
1/2+x,1/2-y,1/2-z
1/2-x,y,1/2-z
1/2-x,1/2-y,1/2-z
1/2+x,y,1/2-z
1/2-x,1/2+y,1/2+z
1/2+x,-y,1/2+z
loop_
_atom_site_type_symbol
_atom_site_label
_atom_site_fract_x
_atom_site_fract_y
_atom_site_fract_z
Si Si1 0.211200 0.625106 0.431553
Si Si2 0.293334 0.453520 0.331101
Si Si3 0.291857 0.856141 0.668098
Si Si4 0.793247 0.472800 0.562854
Si Si5 0.205748 0.800011 0.537953
Si Si6 0.500000 0.750000 0.115981
Si Si7 0.299960 0.689089 0.329928
O O1 0.276522 0.576101 0.440393
O O2 0.276098 0.661267 0.487827
O O3 0.275190 0.640159 0.355754
O O4 0.000000 0.624799 0.434809
O O5 0.500000 0.452458 0.340141
O O6 0.250000 0.456867 0.250000
O O7 0.226421 0.404983 0.353193
O O8 0.226894 0.496013 0.370785
O O9 0.500000 0.855770 0.661595
O O10 0.250000 0.849524 0.750000
O O11 0.222645 0.819179 0.615905
O O12 0.714739 0.500000 0.500000
O O13 0.000000 0.468004 0.551685
O O14 0.276001 0.750000 0.531278
O O15 0.000000 0.795579 0.521341
O O16 0.654782 0.786512 0.125064
O O17 0.500000 0.702122 0.340243
O O18 0.250000 0.696398 0.250000
#
# Coordination Sequence:
#
# PCOD9539205 Si02
#       7
#    16  16  16  16  16   4  16
#     4  10  22  41  62  90 127 164 207 264 311 370
#     4  10  21  37  60  90 119 155 196 248 303 360
#     4  10  21  38  61  88 121 155 198 248 300 363
#     4  10  21  38  63  92 122 162 205 248 308 373
#     4  10  22  39  62  88 119 160 200 246 308 362
#     4  12  24  44  66  94 130 162 218 274 310 382
#     4  12  25  41  66  95 126 170 215 265 324 375
#
# _framework density 22.118091
#
# number of rings (size 3 to 8) (size 9 to 14) (size 15 to 20)
#    0.000    1.600    1.600    2.400    1.120    6.080 
#    0.000    0.000    0.000    0.000    0.000    0.000 
#    0.000    0.000    0.000    0.000    0.000    0.000 
#
# Total GULP energy -278630.636178 kJ/mol
# GULP energy per Si atom -5572.612724 kJ/mol
# Density = 2.206775 g / cm^3
# Si number density = 22.118091 Si / 1000 Ang^3
#
#
#
# Elastic Constant Matrix: (Units=GPa)
#
#
# Indices 1 2 3 4 5 6 
#
# 1 98.1333 23.9867 -1.9749 0.0000 0.0000 0.0000
# 2 23.9867 206.0104 64.4110 0.0000 0.0000 0.0000
# 3 -1.9749 64.4110 72.9467 0.0000 0.0000 -0.0001
# 4 0.0000 0.0000 0.0000 59.0726 0.0000 0.0000
# 5 0.0000 0.0000 0.0000 0.0000 15.8579 0.0000
# 6 0.0000 0.0000 -0.0001 0.0000 0.0000 55.1773
#
#
#
# Elastic Compliance Matrix: (Units=1/GPa)
#
#
# Indices 1 2 3 4 5 6 
#
# 1 0.010679 -0.001842 0.001916 0.000000 0.000000 0.000000
# 2 -0.001842 0.007023 -0.006251 0.000000 0.000000 0.000000
# 3 0.001916 -0.006251 0.019280 0.000000 0.000000 0.000000
# 4 0.000000 0.000000 0.000000 0.016928 0.000000 0.000000
# 5 0.000000 0.000000 0.000000 0.000000 0.063060 0.000000
# 6 0.000000 0.000000 0.000000 0.000000 0.000000 0.018123
#
#
# Mechanical properties :
#
#
# Convention : Reuss Voigt Hill
#
# Bulk Modulus (GPa) = 40.60562 61.10401 50.85482
# Shear Modulus (GPa) = 32.12157 45.39940 38.76049
#
# Velocity S-wave (km/s) = 3.81501 4.53547 4.19075
# Velocity P-wave (km/s) = 6.14851 7.42385 6.81607
#
# Compressibility (1/GPa) = 0.02462713
#
# Stress axis : x y z
#
# Youngs Moduli (GPa) = 93.64055 142.38607 51.86650
#
# Poissons Ratio (x) = 0.26234 -0.09938
# Poissons Ratio (y) = 0.17253 0.32423
# Poissons Ratio (z) = -0.17942 0.89009
#
# Static dielectric constant tensor:
#      x y z
#    x 1.801380 0.000000 0.000000 
#    y 0.000000 1.890140 0.000000 
#    z 0.000000 0.000000 1.924900 
# 
# From -- ./inp_files/49581.got.cif
#   From: 2010.05.17/outbox.cif.g08.bks.cpg/sg74_25_cif.got.tgz:49581.got - 2010.06.03 17:57:02.
