data_PCOD9539208
_publ_section_title
;
Structure prediction by ZEFSAII (Michael W. Deem and Ramdas Pophale) SiO2 
 PCOD9539208
Probable space group: I M M A
;
_chemical_formula_sum "Si O2"
_cell_formula_units_Z 80
_cell_length_a 14.446320
_cell_length_b 22.333231
_cell_length_c 12.491700
_cell_angle_alpha 90.000000
_cell_angle_beta 90.000000
_cell_angle_gamma 90.000000
_cell_volume 4030.234667
_symmetry_space_group_name_H-M "I M M A"
_symmetry_group_IT_number 74
_symmetry_cell_setting 'orthorhombic'
loop_
_space_group_symop_operation_xyz
x,y,z
-x,1/2-y,z
x,-y,-z
-x,1/2+y,-z
-x,-y,-z
x,1/2+y,-z
-x,y,z
x,1/2-y,z
1/2+x,1/2+y,1/2+z
1/2-x,-y,1/2+z
1/2+x,1/2-y,1/2-z
1/2-x,y,1/2-z
1/2-x,1/2-y,1/2-z
1/2+x,y,1/2-z
1/2-x,1/2+y,1/2+z
1/2+x,-y,1/2+z
loop_
_atom_site_type_symbol
_atom_site_label
_atom_site_fract_x
_atom_site_fract_y
_atom_site_fract_z
Si Si1 0.301912 0.427922 0.858948
Si Si2 0.162877 0.000000 0.000000
Si Si3 0.000000 0.051776 0.143999
Si Si4 0.500000 0.314113 0.343916
Si Si5 0.329725 0.818589 0.817014
Si Si6 0.108192 0.321480 0.549463
Si Si7 0.000000 0.506962 0.370943
O O1 0.250000 0.440544 0.750000
O O2 0.326028 0.358176 0.873299
O O3 0.402059 0.459513 0.855327
O O4 0.233229 0.450581 0.952407
O O5 0.092281 0.977602 0.907294
O O6 0.000000 0.120861 0.103848
O O7 0.000000 0.043118 0.274029
O O8 0.500000 0.250000 0.404633
O O9 0.586915 0.314043 0.264999
O O10 0.297532 0.750000 0.841996
O O11 0.250000 0.851094 0.750000
O O12 0.364513 0.842848 0.929547
O O13 0.117948 0.250000 0.556330
O O14 0.000000 0.335182 0.566929
O O15 0.000000 0.500000 0.500000
#
# Coordination Sequence:
#
# PCOD9539208 Si02
#       7
#    16   8   8   8  16  16   8
#     4  12  25  44  68  97 128 168 225 279 322 392
#     4  11  26  47  66  94 132 179 220 269 338 382
#     4  11  26  46  66  95 138 178 213 271 334 400
#     4  10  21  37  60  93 130 163 201 259 323 392
#     4   9  18  33  55  89 129 165 205 251 316 391
#     4  10  21  39  64  93 128 171 216 274 335 387
#     4  12  25  43  69 102 129 169 228 273 317 384
#
# _framework density 19.849961
#
# number of rings (size 3 to 8) (size 9 to 14) (size 15 to 20)
#    0.000    1.400    5.000    0.000    5.600    0.400 
#    0.000    0.000    0.000    0.000    0.000    0.000 
#    0.000    0.000    0.000    0.000    0.000    0.000 
#
# Total GULP energy -222844.462139 kJ/mol
# GULP energy per Si atom -5571.111553 kJ/mol
# Density = 1.980478 g / cm^3
# Si number density = 19.849961 Si / 1000 Ang^3
#
#
#
# Elastic Constant Matrix: (Units=GPa)
#
#
# Indices 1 2 3 4 5 6 
#
# 1 146.6683 41.1482 39.1206 0.0000 0.0000 0.0000
# 2 41.1482 73.4509 21.0560 0.0000 0.0000 0.0000
# 3 39.1206 21.0560 66.4763 -0.0001 0.0000 0.0000
# 4 0.0000 0.0000 -0.0001 10.2833 0.0000 0.0000
# 5 0.0000 0.0000 0.0000 0.0000 28.6599 0.0000
# 6 0.0000 0.0000 0.0000 0.0000 0.0000 31.8619
#
#
#
# Elastic Compliance Matrix: (Units=1/GPa)
#
#
# Indices 1 2 3 4 5 6 
#
# 1 0.008988 -0.003870 -0.004063 0.000000 0.000000 0.000000
# 2 -0.003870 0.016641 -0.002993 0.000000 0.000000 0.000000
# 3 -0.004063 -0.002993 0.018382 0.000000 0.000000 0.000000
# 4 0.000000 0.000000 0.000000 0.097245 0.000000 0.000000
# 5 0.000000 0.000000 0.000000 0.000000 0.034892 0.000000
# 6 0.000000 0.000000 0.000000 0.000000 0.000000 0.031385
#
#
# Mechanical properties :
#
#
# Convention : Reuss Voigt Hill
#
# Bulk Modulus (GPa) = 45.13221 54.36056 49.74639
# Shear Modulus (GPa) = 21.11728 26.51239 23.81483
#
# Velocity S-wave (km/s) = 3.26520 3.65860 3.46749
# Velocity P-wave (km/s) = 6.08288 6.72996 6.41458
#
# Compressibility (1/GPa) = 0.02215712
#
# Stress axis : x y z
#
# Youngs Moduli (GPa) = 111.26313 60.09343 54.40027
#
# Poissons Ratio (x) = 0.23257 0.22104
# Poissons Ratio (y) = 0.43061 0.16284
# Poissons Ratio (z) = 0.45210 0.17988
#
# Static dielectric constant tensor:
#      x y z
#    x 1.660920 0.000000 0.000000 
#    y 0.000000 1.776020 0.000000 
#    z 0.000000 0.000000 1.703560 
# 
# From -- ./inp_files/20608.got.cif
#   From: 2010.05.17/outbox.cif.g08.bks.cpg/sg74_11_cif.got.tgz:20608.got - 2010.06.03 17:57:02.
