data_PCOD9539491
_publ_section_title
;
Structure prediction by ZEFSAII (Michael W. Deem and Ramdas Pophale) SiO2 
 PCOD9539491
Probable space group: I M M A
;
_chemical_formula_sum "Si O2"
_cell_formula_units_Z 80
_cell_length_a 26.534661
_cell_length_b 30.701905
_cell_length_c 5.092945
_cell_angle_alpha 90.000000
_cell_angle_beta 90.000000
_cell_angle_gamma 90.000000
_cell_volume 4149.042211
_symmetry_space_group_name_H-M "I M M A"
_symmetry_group_IT_number 74
_symmetry_cell_setting 'orthorhombic'
loop_
_space_group_symop_operation_xyz
x,y,z
-x,1/2-y,z
x,-y,-z
-x,1/2+y,-z
-x,-y,-z
x,1/2+y,-z
-x,y,z
x,1/2-y,z
1/2+x,1/2+y,1/2+z
1/2-x,-y,1/2+z
1/2+x,1/2-y,1/2-z
1/2-x,y,1/2-z
1/2-x,1/2-y,1/2-z
1/2+x,y,1/2-z
1/2-x,1/2+y,1/2+z
1/2+x,-y,1/2+z
loop_
_atom_site_type_symbol
_atom_site_label
_atom_site_fract_x
_atom_site_fract_y
_atom_site_fract_z
Si Si1 0.442204 0.469839 0.745541
Si Si2 0.716677 0.656018 0.012355
Si Si3 0.441995 0.843838 0.550832
Si Si4 0.668984 0.250000 0.915720
Si Si5 0.608284 0.383381 0.943537
Si Si6 0.402083 0.250000 0.411228
O O1 0.426750 0.500000 0.500000
O O2 0.500000 0.454143 0.692177
O O3 0.405789 0.430181 0.821615
O O4 0.444304 0.500000 0.000000
O O5 0.750000 0.656879 0.750000
O O6 0.750000 0.638217 0.250000
O O7 0.700427 0.705346 0.088625
O O8 0.665874 0.627690 0.987566
O O9 0.500000 0.852876 0.493395
O O10 0.409227 0.851654 0.290846
O O11 0.434225 0.793522 0.623985
O O12 0.423254 0.873413 0.792796
O O13 0.627404 0.250000 0.686951
O O14 0.640693 0.250000 0.192079
#
# Coordination Sequence:
#
# PCOD9539491 Si02
#       6
#    16  16  16   8  16   8
#     4  10  21  39  65  96 126 157 194 241 309 384
#     4  12  24  41  63  89 121 167 215 269 318 362
#     4  12  23  38  60  88 127 171 208 251 313 379
#     4  12  22  41  61  83 124 165 221 271 318 352
#     4  12  24  42  63  92 127 160 211 265 314 378
#     4  12  21  39  56  85 126 171 206 259 305 378
#
# _framework density 19.281556999999999
#
# number of rings (size 3 to 8) (size 9 to 14) (size 15 to 20)
#    0.000    0.400    4.000    6.300    0.000    1.600 
#    0.000    3.000    0.000    2.400    0.000    0.000 
#    0.000    0.000    0.000    0.000    0.000    0.000 
#
# Total GULP energy -223668.990066 kJ/mol
# GULP energy per Si atom -5591.724752 kJ/mol
# Density = 1.923767 g / cm^3
# Si number density = 19.281557 Si / 1000 Ang^3
#
#
#
# Elastic Constant Matrix: (Units=GPa)
#
#
# Indices 1 2 3 4 5 6 
#
# 1 113.7976 39.0221 53.6880 0.0000 0.0000 0.0000
# 2 39.0221 110.3573 -28.8581 0.0000 0.0000 0.0000
# 3 53.6880 -28.8581 175.4988 0.0000 0.0000 0.0000
# 4 0.0000 0.0000 0.0000 -43.9355 0.0000 0.0000
# 5 0.0000 0.0000 0.0000 0.0000 37.2698 0.0000
# 6 0.0000 0.0000 0.0000 0.0000 0.0000 58.3744
#
#
#
# Elastic Compliance Matrix: (Units=1/GPa)
#
#
# Indices 1 2 3 4 5 6 
#
# 1 0.013211 -0.005986 -0.005026 0.000000 0.000000 0.000000
# 2 -0.005986 0.012181 0.003834 0.000000 0.000000 0.000000
# 3 -0.005026 0.003834 0.007866 0.000000 0.000000 0.000000
# 4 0.000000 0.000000 0.000000 -0.022761 0.000000 0.000000
# 5 0.000000 0.000000 0.000000 0.000000 0.026831 0.000000
# 6 0.000000 0.000000 0.000000 0.000000 0.000000 0.017131
#
#
# Mechanical properties :
#
#
# Convention : Reuss Voigt Hill
#
# Bulk Modulus (GPa) = 52.90194 58.59529 55.74862
# Shear Modulus (GPa) = 66.56466 32.72852 49.64659
#
# Velocity S-wave (km/s) = 5.88196 4.12442 5.07978
# Velocity P-wave (km/s) = 8.58056 7.28947 7.96123
#
# Compressibility (1/GPa) = 0.01890290
#
# Stress axis : x y z
#
# Youngs Moduli (GPa) = 75.69375 82.09791 127.13021
#
# Poissons Ratio (x) = 0.49141 0.63892
# Poissons Ratio (y) = 0.45308 -0.48742
# Poissons Ratio (z) = 0.38042 -0.31476
#
# Static dielectric constant tensor:
#      x y z
#    x 1.674240 0.000000 0.000000 
#    y 0.000000 1.709450 0.000000 
#    z 0.000000 0.000000 1.668100 
# 
# From -- ./inp_files/3888.got.cif
#   From: 2010.05.17/outbox.cif.g08.bks.cpg/sg74_2_cif.got.tgz:3888.got - 2010.06.03 17:57:02.
