data_PCOD9539214
_publ_section_title
;
Structure prediction by ZEFSAII (Michael W. Deem and Ramdas Pophale) SiO2 
 PCOD9539214
Probable space group: I M M A
;
_chemical_formula_sum "Si O2"
_cell_formula_units_Z 92
_cell_length_a 9.364798
_cell_length_b 27.775801
_cell_length_c 19.404866
_cell_angle_alpha 90.000000
_cell_angle_beta 90.000000
_cell_angle_gamma 90.000000
_cell_volume 5047.492172
_symmetry_space_group_name_H-M "I M M A"
_symmetry_group_IT_number 74
_symmetry_cell_setting 'orthorhombic'
loop_
_space_group_symop_operation_xyz
x,y,z
-x,1/2-y,z
x,-y,-z
-x,1/2+y,-z
-x,-y,-z
x,1/2+y,-z
-x,y,z
x,1/2-y,z
1/2+x,1/2+y,1/2+z
1/2-x,-y,1/2+z
1/2+x,1/2-y,1/2-z
1/2-x,y,1/2-z
1/2-x,1/2-y,1/2-z
1/2+x,y,1/2-z
1/2-x,1/2+y,1/2+z
1/2+x,-y,1/2+z
loop_
_atom_site_type_symbol
_atom_site_label
_atom_site_fract_x
_atom_site_fract_y
_atom_site_fract_z
Si Si1 0.170223 0.935363 0.177006
Si Si2 0.668786 0.846090 0.422186
Si Si3 0.670236 0.195146 0.321311
Si Si4 0.169089 0.487650 0.418910
Si Si5 0.000000 0.750000 0.244675
Si Si6 0.739369 0.250000 0.862608
Si Si7 0.171231 0.111201 0.070818
O O1 0.250000 0.935985 0.250000
O O2 0.186148 0.883268 0.140849
O O3 0.000000 0.944739 0.183982
O O4 0.244693 0.974098 0.126996
O O5 0.500000 0.833827 0.427417
O O6 0.756982 0.798079 0.408481
O O7 0.706477 0.873189 0.492799
O O8 0.500000 0.193603 0.309487
O O9 0.706737 0.250000 0.342661
O O10 0.750000 0.184805 0.250000
O O11 0.702854 0.155825 0.379040
O O12 0.184972 0.500000 0.500000
O O13 0.239110 0.435420 0.408464
O O14 0.000000 0.488401 0.402428
O O15 0.120612 0.750000 0.184148
O O16 0.119045 0.750000 0.305889
O O17 0.000000 0.101007 0.073736
#
# Coordination Sequence:
#
# PCOD9539214 Si02
#       7
#    16  16  16  16   4   8  16
#     4  11  24  40  63  93 122 159 204 251 300 361
#     4  10  21  37  61  90 120 159 202 248 299 356
#     4   9  19  36  60  89 121 155 193 239 293 353
#     4  11  23  42  62  87 119 159 200 253 309 357
#     4  10  24  38  60  82 120 170 202 252 296 350
#     4  11  22  40  58  88 119 164 205 246 302 355
#     4  10  21  38  63  90 118 158 202 248 299 360
#
# _framework density 18.226873000000001
#
# number of rings (size 3 to 8) (size 9 to 14) (size 15 to 20)
#    0.000    1.739    2.609    1.043    3.652    2.087 
#    3.130    1.739    0.000    0.000    0.000    0.000 
#    0.000    0.000    0.000    0.000    0.000    0.000 
#
# Total GULP energy -256269.477836 kJ/mol
# GULP energy per Si atom -5571.075605 kJ/mol
# Density = 1.818539 g / cm^3
# Si number density = 18.226873 Si / 1000 Ang^3
#
#
#
# Elastic Constant Matrix: (Units=GPa)
#
#
# Indices 1 2 3 4 5 6 
#
# 1 95.1379 46.1088 41.7862 0.0000 0.0000 0.0000
# 2 46.1088 97.0219 42.7142 0.0000 0.0000 0.0000
# 3 41.7862 42.7142 81.5154 0.0000 0.0000 0.0000
# 4 0.0000 0.0000 0.0000 11.6441 0.0000 0.0000
# 5 0.0000 0.0000 0.0000 0.0000 43.0158 0.0000
# 6 0.0000 0.0000 0.0000 0.0000 0.0000 30.2987
#
#
#
# Elastic Compliance Matrix: (Units=1/GPa)
#
#
# Indices 1 2 3 4 5 6 
#
# 1 0.015183 -0.004925 -0.005202 0.000000 0.000000 0.000000
# 2 -0.004925 0.014995 -0.005333 0.000000 0.000000 0.000000
# 3 -0.005202 -0.005333 0.017729 0.000000 0.000000 0.000000
# 4 0.000000 0.000000 0.000000 0.085880 0.000000 0.000000
# 5 0.000000 0.000000 0.000000 0.000000 0.023247 0.000000
# 6 0.000000 0.000000 0.000000 0.000000 0.000000 0.033005
#
#
# Mechanical properties :
#
#
# Convention : Reuss Voigt Hill
#
# Bulk Modulus (GPa) = 58.87018 59.43264 59.15141
# Shear Modulus (GPa) = 22.06314 26.52945 24.29630
#
# Velocity S-wave (km/s) = 3.48296 3.81926 3.65498
# Velocity P-wave (km/s) = 6.96731 7.21990 7.09473
#
# Compressibility (1/GPa) = 0.01698653
#
# Stress axis : x y z
#
# Youngs Moduli (GPa) = 65.86299 66.68679 56.40545
#
# Poissons Ratio (x) = 0.32845 0.29343
# Poissons Ratio (y) = 0.32440 0.30080
# Poissons Ratio (z) = 0.34263 0.35563
#
# Static dielectric constant tensor:
#      x y z
#    x 1.608250 0.000000 0.000000 
#    y 0.000000 1.636730 0.000000 
#    z 0.000000 0.000000 1.595270 
# 
# From -- ./inp_files/49208.got.cif
#   From: 2010.05.17/outbox.cif.g08.bks.cpg/sg74_25_cif.got.tgz:49208.got - 2010.06.03 17:57:02.
