data_PCOD9539760
_publ_section_title
;
Structure prediction by ZEFSAII (Michael W. Deem and Ramdas Pophale) SiO2 
 PCOD9539760
Probable space group: I M M A
;
_chemical_formula_sum "Si O2"
_cell_formula_units_Z 104
_cell_length_a 26.256368
_cell_length_b 9.701072
_cell_length_c 19.770576
_cell_angle_alpha 90.000000
_cell_angle_beta 90.000000
_cell_angle_gamma 90.000000
_cell_volume 5035.860614
_symmetry_space_group_name_H-M "I M M A"
_symmetry_group_IT_number 74
_symmetry_cell_setting 'orthorhombic'
loop_
_space_group_symop_operation_xyz
x,y,z
-x,1/2-y,z
x,-y,-z
-x,1/2+y,-z
-x,-y,-z
x,1/2+y,-z
-x,y,z
x,1/2-y,z
1/2+x,1/2+y,1/2+z
1/2-x,-y,1/2+z
1/2+x,1/2-y,1/2-z
1/2-x,y,1/2-z
1/2-x,1/2-y,1/2-z
1/2+x,y,1/2-z
1/2-x,1/2+y,1/2+z
1/2+x,-y,1/2+z
loop_
_atom_site_type_symbol
_atom_site_label
_atom_site_fract_x
_atom_site_fract_y
_atom_site_fract_z
Si Si1 0.943808 0.584538 0.569551
Si Si2 0.769675 0.500000 0.500000
Si Si3 0.310410 0.403217 0.606472
Si Si4 0.074466 0.095103 0.940169
Si Si5 0.660563 0.416879 0.269920
Si Si6 0.661833 0.087936 0.124286
Si Si7 0.556928 0.086259 0.716020
O O1 0.942515 0.500000 0.500000
O O2 0.938724 0.750000 0.556993
O O3 0.895376 0.533921 0.611829
O O4 0.000000 0.563563 0.600203
O O5 0.732461 0.585825 0.450958
O O6 0.805841 0.432297 0.443531
O O7 0.309133 0.250000 0.637258
O O8 0.364637 0.418943 0.569594
O O9 0.310745 0.515744 0.666189
O O10 0.062870 0.250000 0.959836
O O11 0.053964 0.071784 0.865288
O O12 0.056961 0.000000 0.000000
O O13 0.658892 0.250000 0.277940
O O14 0.683860 0.458403 0.196618
O O15 0.603721 0.484793 0.266583
O O16 0.656098 0.250000 0.133654
O O17 0.500000 0.056131 0.743274
O O18 0.568467 0.250000 0.729576
#
# Coordination Sequence:
#
# PCOD9539760 Si02
#       7
#    16   8  16  16  16  16  16
#     4   9  17  33  57  84 118 157 194 236 289 348
#     4  12  22  40  65  90 115 154 200 252 306 368
#     4  10  22  40  61  87 118 156 201 248 302 363
#     4   9  17  31  51  79 112 148 190 238 289 342
#     4  10  22  40  62  87 122 162 202 245 298 362
#     4  10  22  39  59  91 125 156 194 248 305 353
#     4   9  19  37  58  83 119 160 201 247 297 349
#
# _framework density 20.651880999999999
#
# number of rings (size 3 to 8) (size 9 to 14) (size 15 to 20)
#    0.000    2.308    1.538    1.846    0.000    5.538 
#    0.000    8.462    0.000    1.846    0.000    0.000 
#    0.000    0.000    0.000    0.000    0.000    0.000 
#
# Total GULP energy -289640.542663 kJ/mol
# GULP energy per Si atom -5570.010436 kJ/mol
# Density = 2.060488 g / cm^3
# Si number density = 20.651881 Si / 1000 Ang^3
#
#
#
# Elastic Constant Matrix: (Units=GPa)
#
#
# Indices 1 2 3 4 5 6 
#
# 1 97.7530 20.9781 31.9786 0.0000 0.0000 0.0000
# 2 20.9781 67.1210 63.6403 0.0000 0.0000 0.0000
# 3 31.9786 63.6403 130.7008 0.0000 0.0000 0.0000
# 4 0.0000 0.0000 0.0000 21.7430 0.0000 0.0000
# 5 0.0000 0.0000 0.0000 0.0000 18.7986 0.0000
# 6 0.0000 0.0000 0.0000 0.0000 0.0000 -26.1567
#
#
#
# Elastic Compliance Matrix: (Units=1/GPa)
#
#
# Indices 1 2 3 4 5 6 
#
# 1 0.011221 -0.001679 -0.001928 0.000000 0.000000 0.000000
# 2 -0.001679 0.027926 -0.013187 0.000000 0.000000 0.000000
# 3 -0.001928 -0.013187 0.014544 0.000000 0.000000 0.000000
# 4 0.000000 0.000000 0.000000 0.045992 0.000000 0.000000
# 5 0.000000 0.000000 0.000000 0.000000 0.053195 0.000000
# 6 0.000000 0.000000 0.000000 0.000000 0.000000 -0.038231
#
#
# Mechanical properties :
#
#
# Convention : Reuss Voigt Hill
#
# Bulk Modulus (GPa) = 49.74354 58.75209 54.24781
# Shear Modulus (GPa) = 32.27137 14.80885 23.54011
#
# Velocity S-wave (km/s) = 3.95731 2.68072 3.37983
# Velocity P-wave (km/s) = 6.70965 6.17189 6.44638
#
# Compressibility (1/GPa) = 0.02010311
#
# Stress axis : x y z
#
# Youngs Moduli (GPa) = 89.11969 35.80832 68.75824
#
# Poissons Ratio (x) = 0.06013 0.13255
# Poissons Ratio (y) = 0.14964 0.90672
# Poissons Ratio (z) = 0.17181 0.47220
#
# Static dielectric constant tensor:
#      x y z
#    x 1.802660 0.000000 0.000000 
#    y 0.000000 1.718510 0.000000 
#    z 0.000000 0.000000 1.749760 
# 
# From -- ./inp_files/55275.got.cif
#   From: 2010.05.17/outbox.cif.g08.bks.cpg/sg74_28_cif.got.tgz:55275.got - 2010.06.03 17:57:02.
