data_PCOD9539369
_publ_section_title
;
Structure prediction by ZEFSAII (Michael W. Deem and Ramdas Pophale) SiO2 
 PCOD9539369
Probable space group: I M M A
;
_chemical_formula_sum "Si O2"
_cell_formula_units_Z 80
_cell_length_a 23.686432
_cell_length_b 32.540413
_cell_length_c 5.098245
_cell_angle_alpha 90.000000
_cell_angle_beta 90.000000
_cell_angle_gamma 90.000000
_cell_volume 3929.555332
_symmetry_space_group_name_H-M "I M M A"
_symmetry_group_IT_number 74
_symmetry_cell_setting 'orthorhombic'
loop_
_space_group_symop_operation_xyz
x,y,z
-x,1/2-y,z
x,-y,-z
-x,1/2+y,-z
-x,-y,-z
x,1/2+y,-z
-x,y,z
x,1/2-y,z
1/2+x,1/2+y,1/2+z
1/2-x,-y,1/2+z
1/2+x,1/2-y,1/2-z
1/2-x,y,1/2-z
1/2-x,1/2-y,1/2-z
1/2+x,y,1/2-z
1/2-x,1/2+y,1/2+z
1/2+x,-y,1/2+z
loop_
_atom_site_type_symbol
_atom_site_label
_atom_site_fract_x
_atom_site_fract_y
_atom_site_fract_z
Si Si1 0.433605 0.472793 0.740223
Si Si2 0.711753 0.662645 0.996708
Si Si3 0.437466 0.840172 0.685110
Si Si4 0.816674 0.250000 0.634306
Si Si5 0.608502 0.381272 0.811245
Si Si6 0.434244 0.250000 0.517951
O O1 0.411044 0.500000 0.500000
O O2 0.500000 0.464861 0.687459
O O3 0.405959 0.428662 0.780031
O O4 0.429143 0.500000 0.000000
O O5 0.750000 0.665715 0.250000
O O6 0.681789 0.707349 0.974067
O O7 0.668347 0.626856 0.056638
O O8 0.750000 0.655173 0.750000
O O9 0.500000 0.852633 0.592377
O O10 0.395245 0.860015 0.473484
O O11 0.432942 0.791304 0.654444
O O12 0.430583 0.857276 0.978065
O O13 0.750000 0.250000 0.750000
O O14 0.874833 0.250000 0.811951
O O15 0.500000 0.250000 0.640858
#
# Coordination Sequence:
#
# PCOD9539369 Si02
#       6
#    16  16  16   8  16   8
#     4  10  21  38  62  94 127 158 199 253 322 408
#     4  11  24  41  62  92 124 169 227 285 323 385
#     4  11  23  38  59  90 129 172 217 262 332 409
#     4  10  21  40  64  88 127 178 236 279 333 390
#     4  12  23  40  66  89 127 167 217 268 341 395
#     4  10  22  40  59  93 138 181 227 290 349 408
#
# _framework density 20.358539
#
# number of rings (size 3 to 8) (size 9 to 14) (size 15 to 20)
#    0.000    1.200    2.000    4.500    2.800    3.200 
#    0.000    3.000    0.000    2.400    0.000    0.000 
#    0.000    0.000    0.000    0.000    0.000    0.000 
#
# Total GULP energy -223279.935454 kJ/mol
# GULP energy per Si atom -5581.998386 kJ/mol
# Density = 2.031220 g / cm^3
# Si number density = 20.358539 Si / 1000 Ang^3
#
#
#
# Elastic Constant Matrix: (Units=GPa)
#
#
# Indices 1 2 3 4 5 6 
#
# 1 99.5576 35.3310 26.5553 0.0000 0.0000 0.0000
# 2 35.3310 167.1444 24.7775 0.0000 0.0000 0.0000
# 3 26.5553 24.7775 80.1685 0.0000 0.0000 0.0000
# 4 0.0000 0.0000 0.0000 27.3390 0.0000 0.0000
# 5 0.0000 0.0000 0.0000 0.0000 34.7265 0.0000
# 6 0.0000 0.0000 0.0000 0.0000 0.0000 29.4326
#
#
#
# Elastic Compliance Matrix: (Units=1/GPa)
#
#
# Indices 1 2 3 4 5 6 
#
# 1 0.011608 -0.001974 -0.003235 0.000000 0.000000 0.000000
# 2 -0.001974 0.006606 -0.001388 0.000000 0.000000 0.000000
# 3 -0.003235 -0.001388 0.013974 0.000000 0.000000 0.000000
# 4 0.000000 0.000000 0.000000 0.036578 0.000000 0.000000
# 5 0.000000 0.000000 0.000000 0.000000 0.028796 0.000000
# 6 0.000000 0.000000 0.000000 0.000000 0.000000 0.033976
#
#
# Mechanical properties :
#
#
# Convention : Reuss Voigt Hill
#
# Bulk Modulus (GPa) = 52.64719 57.79981 55.22350
# Shear Modulus (GPa) = 33.09875 35.64672 34.37273
#
# Velocity S-wave (km/s) = 4.03649 4.18897 4.11343
# Velocity P-wave (km/s) = 6.90220 7.20064 7.05300
#
# Compressibility (1/GPa) = 0.01899437
#
# Stress axis : x y z
#
# Youngs Moduli (GPa) = 86.14843 151.38067 71.56057
#
# Poissons Ratio (x) = 0.29885 0.23149
# Poissons Ratio (y) = 0.17007 0.09931
# Poissons Ratio (z) = 0.27868 0.21008
#
# Static dielectric constant tensor:
#      x y z
#    x 1.807020 0.000000 0.000000 
#    y 0.000000 1.704920 0.000000 
#    z 0.000000 0.000000 1.725740 
# 
# From -- ./inp_files/3887.got.cif
#   From: 2010.05.17/outbox.cif.g08.bks.cpg/sg74_2_cif.got.tgz:3887.got - 2010.06.03 17:57:02.
