data_PCOD9539885
_publ_section_title
;
Structure prediction by ZEFSAII (Michael W. Deem and Ramdas Pophale) SiO2 
 PCOD9539885
Probable space group: I M M A
;
_chemical_formula_sum "Si O2"
_cell_formula_units_Z 92
_cell_length_a 25.778436
_cell_length_b 19.249254
_cell_length_c 10.836567
_cell_angle_alpha 90.000000
_cell_angle_beta 90.000000
_cell_angle_gamma 90.000000
_cell_volume 5377.274271
_symmetry_space_group_name_H-M "I M M A"
_symmetry_group_IT_number 74
_symmetry_cell_setting 'orthorhombic'
loop_
_space_group_symop_operation_xyz
x,y,z
-x,1/2-y,z
x,-y,-z
-x,1/2+y,-z
-x,-y,-z
x,1/2+y,-z
-x,y,z
x,1/2-y,z
1/2+x,1/2+y,1/2+z
1/2-x,-y,1/2+z
1/2+x,1/2-y,1/2-z
1/2-x,y,1/2-z
1/2-x,1/2-y,1/2-z
1/2+x,y,1/2-z
1/2-x,1/2+y,1/2+z
1/2+x,-y,1/2+z
loop_
_atom_site_type_symbol
_atom_site_label
_atom_site_fract_x
_atom_site_fract_y
_atom_site_fract_z
Si Si1 0.107026 0.329646 0.386818
Si Si2 0.440999 0.250000 0.684555
Si Si3 0.404021 0.877084 0.165494
Si Si4 0.712622 0.923505 0.141670
Si Si5 0.000000 0.519284 0.353361
Si Si6 0.000000 0.632754 0.746753
Si Si7 0.000000 0.750000 0.947354
Si Si8 0.212701 0.409018 0.362284
O O1 0.122896 0.250000 0.367051
O O2 0.094727 0.342265 0.530499
O O3 0.154277 0.379774 0.346954
O O4 0.053141 0.344443 0.319171
O O5 0.500000 0.250000 0.738503
O O6 0.413822 0.181384 0.733146
O O7 0.450765 0.250000 0.538911
O O8 0.346594 0.907053 0.174202
O O9 0.448796 0.934968 0.170860
O O10 0.750000 0.898039 0.250000
O O11 0.714901 0.007283 0.138671
O O12 0.726340 0.892640 0.006155
O O13 0.000000 0.500000 0.500000
O O14 0.000000 0.450849 0.267449
O O15 0.000000 0.678769 0.870608
O O16 0.250000 0.384745 0.250000
#
# Coordination Sequence:
#
# PCOD9539885 Si02
#       8
#    16   8  16  16   8   8   4  16
#     4  11  20  32  58  85 113 144 184 238 289 345
#     4  10  22  41  57  74 114 163 196 225 283 344
#     4  11  20  36  60  88 111 146 197 244 285 344
#     4   9  19  36  57  81 110 147 194 241 292 342
#     4  12  21  30  60  97 117 139 186 246 301 346
#     4  12  22  36  54  86 122 146 179 229 295 352
#     4  10  24  42  54  72 122 170 186 216 288 360
#     4   9  19  36  56  79 113 148 186 239 294 346
#
# _framework density 17.10904
#
# number of rings (size 3 to 8) (size 9 to 14) (size 15 to 20)
#    0.261    1.391    4.348    1.043    2.435    0.348 
#    3.130    2.174    3.826    0.000    0.000    0.000 
#    0.000    0.000    0.000    0.000    0.000    0.000 
#
# Total GULP energy -256263.824476 kJ/mol
# GULP energy per Si atom -5570.952706 kJ/mol
# Density = 1.707010 g / cm^3
# Si number density = 17.109040 Si / 1000 Ang^3
#
#
#
# Elastic Constant Matrix: (Units=GPa)
#
#
# Indices 1 2 3 4 5 6 
#
# 1 102.2103 22.2470 82.9025 0.0000 0.0000 0.0000
# 2 22.2470 63.9759 40.4852 0.0000 0.0000 0.0000
# 3 82.9025 40.4852 113.8830 0.0000 0.0000 0.0000
# 4 0.0000 0.0000 0.0000 16.6620 0.0000 0.0000
# 5 0.0000 0.0000 0.0000 0.0000 28.5022 0.0000
# 6 0.0000 0.0000 0.0000 0.0000 0.0000 23.6237
#
#
#
# Elastic Compliance Matrix: (Units=1/GPa)
#
#
# Indices 1 2 3 4 5 6 
#
# 1 0.024505 0.003571 -0.019108 0.000000 0.000000 0.000000
# 2 0.003571 0.020688 -0.009954 0.000000 0.000000 0.000000
# 3 -0.019108 -0.009954 0.026230 0.000000 0.000000 0.000000
# 4 0.000000 0.000000 0.000000 0.060017 0.000000 0.000000
# 5 0.000000 0.000000 0.000000 0.000000 0.035085 0.000000
# 6 0.000000 0.000000 0.000000 0.000000 0.000000 0.042330
#
#
# Mechanical properties :
#
#
# Convention : Reuss Voigt Hill
#
# Bulk Modulus (GPa) = 48.92360 63.48207 56.20284
# Shear Modulus (GPa) = 18.75107 22.71989 20.73548
#
# Velocity S-wave (km/s) = 3.31414 3.64805 3.48510
# Velocity P-wave (km/s) = 6.58042 7.41143 7.00826
#
# Compressibility (1/GPa) = 0.02044003
#
# Stress axis : x y z
#
# Youngs Moduli (GPa) = 40.80766 48.33659 38.12490
#
# Poissons Ratio (x) = -0.17259 0.72850
# Poissons Ratio (y) = -0.14571 0.37949
# Poissons Ratio (z) = 0.77976 0.48114
#
# Static dielectric constant tensor:
#      x y z
#    x 1.568440 0.000000 0.000000 
#    y 0.000000 1.570310 0.000000 
#    z 0.000000 0.000000 1.591380 
# 
# From -- ./inp_files/25259.got.cif
#   From: 2010.05.17/outbox.cif.g08.bks.cpg/sg74_13_cif.got.tgz:25259.got - 2010.06.03 17:57:02.
