data_PCOD9539521
_publ_section_title
;
Structure prediction by ZEFSAII (Michael W. Deem and Ramdas Pophale) SiO2 
 PCOD9539521
Probable space group: I M M A
;
_chemical_formula_sum "Si O2"
_cell_formula_units_Z 96
_cell_length_a 18.038383
_cell_length_b 29.419271
_cell_length_c 9.602679
_cell_angle_alpha 90.000000
_cell_angle_beta 90.000000
_cell_angle_gamma 90.000000
_cell_volume 5095.912029
_symmetry_space_group_name_H-M "I M M A"
_symmetry_group_IT_number 74
_symmetry_cell_setting 'orthorhombic'
loop_
_space_group_symop_operation_xyz
x,y,z
-x,1/2-y,z
x,-y,-z
-x,1/2+y,-z
-x,-y,-z
x,1/2+y,-z
-x,y,z
x,1/2-y,z
1/2+x,1/2+y,1/2+z
1/2-x,-y,1/2+z
1/2+x,1/2-y,1/2-z
1/2-x,y,1/2-z
1/2-x,1/2-y,1/2-z
1/2+x,y,1/2-z
1/2-x,1/2+y,1/2+z
1/2+x,-y,1/2+z
loop_
_atom_site_type_symbol
_atom_site_label
_atom_site_fract_x
_atom_site_fract_y
_atom_site_fract_z
Si Si1 0.320466 0.521936 0.851763
Si Si2 0.663290 0.376215 0.214817
Si Si3 0.334742 0.196134 0.719091
Si Si4 0.411354 0.469937 0.631945
Si Si5 0.411851 0.803396 0.985008
Si Si6 0.910773 0.627467 0.016391
O O1 0.250000 0.521106 0.750000
O O2 0.344041 0.574666 0.859406
O O3 0.380656 0.491518 0.772055
O O4 0.303955 0.500000 0.000000
O O5 0.750000 0.368953 0.250000
O O6 0.631217 0.336421 0.119016
O O7 0.618338 0.377870 0.359518
O O8 0.334164 0.250000 0.689275
O O9 0.250000 0.182028 0.750000
O O10 0.370870 0.169008 0.592641
O O11 0.382769 0.188558 0.858412
O O12 0.385922 0.500000 0.500000
O O13 0.500000 0.471698 0.634466
O O14 0.389849 0.418149 0.601294
O O15 0.500000 0.811416 0.977127
O O16 0.398191 0.750000 0.952995
O O17 0.000000 0.632318 0.017286
#
# Coordination Sequence:
#
# PCOD9539521 Si02
#       6
#    16  16  16  16  16  16
#     4  11  25  41  63  91 125 165 210 263 316 382
#     4  11  24  40  61  93 125 163 211 261 317 374
#     4  10  22  41  65  94 126 163 209 259 313 377
#     4  10  21  40  61  86 125 167 204 255 320 376
#     4  10  22  41  63  89 125 165 206 259 316 371
#     4  11  23  39  63  92 125 166 210 259 316 379
#
# _framework density 18.838630999999999
#
# number of rings (size 3 to 8) (size 9 to 14) (size 15 to 20)
#    0.000    1.500    1.667    2.500    4.667    3.667 
#    0.000    0.000    0.000    0.000    0.000    0.000 
#    0.000    0.000    0.000    0.000    0.000    0.000 
#
# Total GULP energy -268267.450127 kJ/mol
# GULP energy per Si atom -5588.905211 kJ/mol
# Density = 1.879575 g / cm^3
# Si number density = 18.838631 Si / 1000 Ang^3
#
#
#
# Elastic Constant Matrix: (Units=GPa)
#
#
# Indices 1 2 3 4 5 6 
#
# 1 69.9521 48.2549 32.0476 0.0001 0.0000 -0.0001
# 2 48.2549 98.4944 63.2471 0.0007 -0.0001 0.0002
# 3 32.0476 63.2471 91.7990 0.0032 0.0003 0.0009
# 4 0.0001 0.0007 0.0032 34.2147 0.0000 0.0001
# 5 0.0000 -0.0001 0.0003 0.0000 32.2131 -0.0005
# 6 -0.0001 0.0002 0.0009 0.0001 -0.0005 20.0060
#
#
#
# Elastic Compliance Matrix: (Units=1/GPa)
#
#
# Indices 1 2 3 4 5 6 
#
# 1 0.021603 -0.010296 -0.000448 0.000000 0.000000 0.000000
# 2 -0.010296 0.023116 -0.012332 0.000001 0.000000 0.000000
# 3 -0.000448 -0.012332 0.019546 -0.000002 0.000000 -0.000001
# 4 0.000000 0.000001 -0.000002 0.029227 0.000000 0.000000
# 5 0.000000 0.000000 0.000000 0.000000 0.031043 0.000001
# 6 0.000000 0.000000 -0.000001 0.000000 0.000001 0.049985
#
#
# Mechanical properties :
#
#
# Convention : Reuss Voigt Hill
#
# Bulk Modulus (GPa) = 55.20834 60.81607 58.01221
# Shear Modulus (GPa) = 22.05448 25.06647 23.56047
#
# Velocity S-wave (km/s) = 3.42527 3.65168 3.54029
# Velocity P-wave (km/s) = 6.70916 7.08043 6.89729
#
# Compressibility (1/GPa) = 0.01811320
#
# Stress axis : x y z
#
# Youngs Moduli (GPa) = 46.28887 43.25988 51.16122
#
# Poissons Ratio (x) = 0.44542 0.02292
# Poissons Ratio (y) = 0.47661 0.63091
# Poissons Ratio (z) = 0.02073 0.53347
#
# Static dielectric constant tensor:
#      x y z
#    x 1.652100 0.000000 0.000000 
#    y 0.000000 1.648470 0.000000 
#    z 0.000000 0.000000 1.636690 
# 
# From -- ./inp_files/12680.got.cif
#   From: 2010.05.17/outbox.cif.g08.bks.cpg/sg74_7_cif.got.tgz:12680.got - 2010.06.03 17:57:02.
