data_PCOD9539311
_publ_section_title
;
Structure prediction by ZEFSAII (Michael W. Deem and Ramdas Pophale) SiO2 
 PCOD9539311
Probable space group: I M M A
;
_chemical_formula_sum "Si O2"
_cell_formula_units_Z 112
_cell_length_a 14.847530
_cell_length_b 24.085346
_cell_length_c 16.302876
_cell_angle_alpha 90.000000
_cell_angle_beta 90.000000
_cell_angle_gamma 90.000000
_cell_volume 5830.037206
_symmetry_space_group_name_H-M "I M M A"
_symmetry_group_IT_number 74
_symmetry_cell_setting 'orthorhombic'
loop_
_space_group_symop_operation_xyz
x,y,z
-x,1/2-y,z
x,-y,-z
-x,1/2+y,-z
-x,-y,-z
x,1/2+y,-z
-x,y,z
x,1/2-y,z
1/2+x,1/2+y,1/2+z
1/2-x,-y,1/2+z
1/2+x,1/2-y,1/2-z
1/2-x,y,1/2-z
1/2-x,1/2-y,1/2-z
1/2+x,y,1/2-z
1/2-x,1/2+y,1/2+z
1/2+x,-y,1/2+z
loop_
_atom_site_type_symbol
_atom_site_label
_atom_site_fract_x
_atom_site_fract_y
_atom_site_fract_z
Si Si1 0.603590 0.394998 0.661590
Si Si2 0.767755 0.355490 0.556491
Si Si3 0.894659 0.689222 0.308489
Si Si4 0.395890 0.864031 0.740764
Si Si5 0.239845 0.816001 0.629249
Si Si6 0.400813 0.543172 0.073934
Si Si7 0.642555 0.492330 0.250697
O O1 0.500000 0.385351 0.639108
O O2 0.671776 0.371617 0.594669
O O3 0.622648 0.360173 0.744725
O O4 0.616569 0.459666 0.684679
O O5 0.825247 0.316681 0.617401
O O6 0.761351 0.330796 0.466228
O O7 0.825074 0.411961 0.558012
O O8 0.882897 0.750000 0.268900
O O9 0.000000 0.685715 0.333823
O O10 0.500000 0.845606 0.739949
O O11 0.332422 0.837690 0.670541
O O12 0.342756 0.846292 0.823634
O O13 0.393721 0.930871 0.732665
O O14 0.232180 0.750000 0.641869
O O15 0.500000 0.569816 0.074749
O O16 0.388093 0.513145 0.161079
O O17 0.398183 0.500000 0.000000
O O18 0.750000 0.488443 0.250000
#
# Coordination Sequence:
#
# PCOD9539311 Si02
#       7
#    16  16  16  16  16  16  16
#     4  11  23  39  60  91 130 177 220 254 301 369
#     4  12  23  38  61  90 127 166 210 260 317 367
#     4  10  21  38  60  88 124 167 214 258 303 362
#     4  11  24  45  71  95 123 163 208 264 332 397
#     4  11  26  45  66  96 127 160 213 270 319 391
#     4  11  23  37  59  92 128 163 203 254 317 380
#     4  12  20  40  66  95 130 168 211 261 319 379
#
# _framework density 19.210856
#
# number of rings (size 3 to 8) (size 9 to 14) (size 15 to 20)
#    0.000    0.857    4.286    4.286    0.000    5.714 
#    0.000    0.000    0.000    2.143    0.000    0.000 
#    0.000    0.000    0.000    0.000    0.000    0.000 
#
# Total GULP energy -313001.272661 kJ/mol
# GULP energy per Si atom -5589.308440 kJ/mol
# Density = 1.916713 g / cm^3
# Si number density = 19.210856 Si / 1000 Ang^3
#
#
#
# Elastic Constant Matrix: (Units=GPa)
#
#
# Indices 1 2 3 4 5 6 
#
# 1 152.3982 24.9332 51.2899 0.0000 0.0000 0.0000
# 2 24.9332 119.0513 27.2424 -0.0001 0.0000 0.0000
# 3 51.2899 27.2424 73.0226 -0.0004 0.0000 -0.0001
# 4 0.0000 -0.0001 -0.0004 24.0956 0.0000 0.0000
# 5 0.0000 0.0000 0.0000 0.0000 18.1695 0.0001
# 6 0.0000 0.0000 -0.0001 0.0000 0.0001 19.8537
#
#
#
# Elastic Compliance Matrix: (Units=1/GPa)
#
#
# Indices 1 2 3 4 5 6 
#
# 1 0.008616 -0.000459 -0.005881 0.000000 0.000000 0.000000
# 2 -0.000459 0.009208 -0.003113 0.000000 0.000000 0.000000
# 3 -0.005881 -0.003113 0.018986 0.000000 0.000000 0.000000
# 4 0.000000 0.000000 0.000000 0.041501 0.000000 0.000000
# 5 0.000000 0.000000 0.000000 0.000000 0.055037 0.000000
# 6 0.000000 0.000000 0.000000 0.000000 0.000000 0.050368
#
#
# Mechanical properties :
#
#
# Convention : Reuss Voigt Hill
#
# Bulk Modulus (GPa) = 55.84863 61.26702 58.55783
# Shear Modulus (GPa) = 23.97042 28.49087 26.23064
#
# Velocity S-wave (km/s) = 3.53619 3.85523 3.69915
# Velocity P-wave (km/s) = 6.76811 7.19571 6.98518
#
# Compressibility (1/GPa) = 0.01790554
#
# Stress axis : x y z
#
# Youngs Moduli (GPa) = 116.06420 108.59908 52.67002
#
# Poissons Ratio (x) = 0.04983 0.30973
# Poissons Ratio (y) = 0.05325 0.16396
# Poissons Ratio (z) = 0.68252 0.33807
#
# Static dielectric constant tensor:
#      x y z
#    x 1.668850 0.000000 0.000000 
#    y 0.000000 1.757040 0.000000 
#    z 0.000000 0.000000 1.649370 
# 
# From -- ./inp_files/32764.got.cif
#   From: 2010.05.17/outbox.cif.g08.bks.cpg/sg74_17_cif.got.tgz:32764.got - 2010.06.03 17:57:02.
