data_PCOD9539971
_publ_section_title
;
Structure prediction by ZEFSAII (Michael W. Deem and Ramdas Pophale) SiO2 
 PCOD9539971
Probable space group: I M M A
;
_chemical_formula_sum "Si O2"
_cell_formula_units_Z 52
_cell_length_a 14.705590
_cell_length_b 18.290955
_cell_length_c 8.695417
_cell_angle_alpha 90.000000
_cell_angle_beta 90.000000
_cell_angle_gamma 90.000000
_cell_volume 2338.887047
_symmetry_space_group_name_H-M "I M M A"
_symmetry_group_IT_number 74
_symmetry_cell_setting 'orthorhombic'
loop_
_space_group_symop_operation_xyz
x,y,z
-x,1/2-y,z
x,-y,-z
-x,1/2+y,-z
-x,-y,-z
x,1/2+y,-z
-x,y,z
x,1/2-y,z
1/2+x,1/2+y,1/2+z
1/2-x,-y,1/2+z
1/2+x,1/2-y,1/2-z
1/2-x,y,1/2-z
1/2-x,1/2-y,1/2-z
1/2+x,y,1/2-z
1/2-x,1/2+y,1/2+z
1/2+x,-y,1/2+z
loop_
_atom_site_type_symbol
_atom_site_label
_atom_site_fract_x
_atom_site_fract_y
_atom_site_fract_z
Si Si1 0.159491 0.000000 0.000000
Si Si2 0.102334 0.629624 0.791538
Si Si3 0.250000 0.250000 0.250000
Si Si4 0.894273 0.668215 0.460925
Si Si5 0.250000 0.898625 0.250000
O O1 0.106794 0.056789 0.108541
O O2 0.217073 0.949737 0.113088
O O3 0.183317 0.685459 0.827852
O O4 0.114517 0.615834 0.607941
O O5 0.000000 0.661301 0.805929
O O6 0.867825 0.750000 0.523771
O O7 0.831508 0.648981 0.319299
O O8 0.000000 0.669671 0.416572
#
# Coordination Sequence:
#
# PCOD9539971 Si02
#       5
#     8  16   4  16   8
#     4  12  27  44  67 106 148 194 239 288 373 438
#     4  11  24  44  71 103 143 184 238 300 361 436
#     4  12  20  40  76 106 128 186 246 294 350 426
#     4  10  22  43  70 100 135 181 236 297 361 421
#     4  12  24  44  66  98 140 194 234 296 345 435
#
# _framework density 22.232796
#
# number of rings (size 3 to 8) (size 9 to 14) (size 15 to 20)
#    0.000    0.923    1.538    6.000    0.000    2.462 
#    2.769    3.846    0.000    0.000    0.000    0.000 
#    0.000    0.000    0.000    0.000    0.000    0.000 
#
# Total GULP energy -144864.063006 kJ/mol
# GULP energy per Si atom -5571.694731 kJ/mol
# Density = 2.218219 g / cm^3
# Si number density = 22.232796 Si / 1000 Ang^3
#
#
#
# Elastic Constant Matrix: (Units=GPa)
#
#
# Indices 1 2 3 4 5 6 
#
# 1 114.8504 54.3519 45.2892 0.0000 0.0000 0.0000
# 2 54.3519 107.3379 53.2598 0.0000 0.0000 0.0000
# 3 45.2892 53.2598 120.2616 0.0000 0.0000 0.0000
# 4 0.0000 0.0000 0.0000 43.7880 0.0000 0.0000
# 5 0.0000 0.0000 0.0000 0.0000 31.7301 0.0000
# 6 0.0000 0.0000 0.0000 0.0000 0.0000 -27.8025
#
#
#
# Elastic Compliance Matrix: (Units=1/GPa)
#
#
# Indices 1 2 3 4 5 6 
#
# 1 0.011940 -0.004889 -0.002331 0.000000 0.000000 0.000000
# 2 -0.004889 0.013942 -0.004333 0.000000 0.000000 0.000000
# 3 -0.002331 -0.004333 0.011112 0.000000 0.000000 0.000000
# 4 0.000000 0.000000 0.000000 0.022837 0.000000 0.000000
# 5 0.000000 0.000000 0.000000 0.000000 0.031516 0.000000
# 6 0.000000 0.000000 0.000000 0.000000 0.000000 -0.035968
#
#
# Mechanical properties :
#
#
# Convention : Reuss Voigt Hill
#
# Bulk Modulus (GPa) = 72.01018 72.02798 72.01908
# Shear Modulus (GPa) = 60.15670 22.17970 41.16820
#
# Velocity S-wave (km/s) = 5.20734 3.16193 4.30779
# Velocity P-wave (km/s) = 8.28340 6.76741 7.56348
#
# Compressibility (1/GPa) = 0.01388693
#
# Stress axis : x y z
#
# Youngs Moduli (GPa) = 83.75169 71.72432 89.99133
#
# Poissons Ratio (x) = 0.35068 0.20979
# Poissons Ratio (y) = 0.40949 0.38996
# Poissons Ratio (z) = 0.19524 0.31080
#
# Static dielectric constant tensor:
#      x y z
#    x 2.162310 0.000000 0.000000 
#    y 0.000000 1.816650 0.000000 
#    z 0.000000 0.000000 -7.180020 
# 
# From -- ./inp_files/8380.got.cif
#   From: 2010.05.17/outbox.cif.g08.bks.cpg/sg74_5_cif.got.tgz:8380.got - 2010.06.03 17:57:02.
