data_PCOD9539013
_publ_section_title
;
Structure prediction by ZEFSAII (Michael W. Deem and Ramdas Pophale) SiO2 
 PCOD9539013
Probable space group: I M M A
;
_chemical_formula_sum "Si O2"
_cell_formula_units_Z 68
_cell_length_a 15.180592
_cell_length_b 9.302332
_cell_length_c 23.166550
_cell_angle_alpha 90.000000
_cell_angle_beta 90.000000
_cell_angle_gamma 90.000000
_cell_volume 3271.462198
_symmetry_space_group_name_H-M "I M M A"
_symmetry_group_IT_number 74
_symmetry_cell_setting 'orthorhombic'
loop_
_space_group_symop_operation_xyz
x,y,z
-x,1/2-y,z
x,-y,-z
-x,1/2+y,-z
-x,-y,-z
x,1/2+y,-z
-x,y,z
x,1/2-y,z
1/2+x,1/2+y,1/2+z
1/2-x,-y,1/2+z
1/2+x,1/2-y,1/2-z
1/2-x,y,1/2-z
1/2-x,1/2-y,1/2-z
1/2+x,y,1/2-z
1/2-x,1/2+y,1/2+z
1/2+x,-y,1/2+z
loop_
_atom_site_type_symbol
_atom_site_label
_atom_site_fract_x
_atom_site_fract_y
_atom_site_fract_z
Si Si1 0.500000 0.000000 0.500000
Si Si2 0.605299 0.911420 0.827921
Si Si3 0.106853 0.917536 0.216064
Si Si4 0.150894 0.583450 0.442727
Si Si5 0.354545 0.917524 0.413269
O O1 0.422923 0.007809 0.450101
O O2 0.500000 0.901588 0.820877
O O3 0.641004 0.750000 0.834866
O O4 0.638186 0.988786 0.769949
O O5 0.620587 0.005625 0.884613
O O6 0.127838 0.750000 0.226936
O O7 0.145971 0.958876 0.154012
O O8 0.000000 0.927991 0.211102
O O9 0.121362 0.500000 0.500000
O O10 0.123339 0.750000 0.444068
O O11 0.257173 0.578566 0.438920
O O12 0.386181 0.750000 0.416240
#
# Coordination Sequence:
#
# PCOD9539013 Si02
#       5
#     4  16  16  16  16
#     4  12  18  36  60  90 126 160 200 236 282 332
#     4  10  22  41  62  86 116 150 194 247 301 354
#     4   9  17  34  60  86 115 155 200 241 285 343
#     4  11  23  40  60  87 120 155 196 242 295 350
#     4  10  21  36  58  88 122 160 200 240 285 345
#
# _framework density 20.785810999999999
#
# number of rings (size 3 to 8) (size 9 to 14) (size 15 to 20)
#    0.000    1.882    2.353    1.765    0.000    2.824 
#    0.000    9.412    0.000    0.000    0.000    0.000 
#    0.000    0.000    0.000    0.000    0.000    0.000 
#
# Total GULP energy -189445.745346 kJ/mol
# GULP energy per Si atom -5571.933687 kJ/mol
# Density = 2.073850 g / cm^3
# Si number density = 20.785811 Si / 1000 Ang^3
#
#
#
# Elastic Constant Matrix: (Units=GPa)
#
#
# Indices 1 2 3 4 5 6 
#
# 1 22.8945 4.2447 -1.8832 0.0000 0.0000 0.0000
# 2 4.2447 112.9198 83.6955 0.0000 0.0000 0.0000
# 3 -1.8832 83.6955 173.2372 0.0000 0.0000 0.0000
# 4 0.0000 0.0000 0.0000 3.2537 0.0000 0.0000
# 5 0.0000 0.0000 0.0000 0.0000 21.9611 0.0000
# 6 0.0000 0.0000 0.0000 0.0000 0.0000 2.5854
#
#
#
# Elastic Compliance Matrix: (Units=1/GPa)
#
#
# Indices 1 2 3 4 5 6 
#
# 1 0.044430 -0.003159 0.002009 0.000000 0.000000 0.000000
# 2 -0.003159 0.014021 -0.006808 0.000000 0.000000 0.000000
# 3 0.002009 -0.006808 0.009083 0.000000 0.000000 0.000000
# 4 0.000000 0.000000 0.000000 0.307344 0.000000 0.000000
# 5 0.000000 0.000000 0.000000 0.000000 0.045535 0.000000
# 6 0.000000 0.000000 0.000000 0.000000 0.000000 0.386790
#
#
# Mechanical properties :
#
#
# Convention : Reuss Voigt Hill
#
# Bulk Modulus (GPa) = 19.37325 53.46282 36.41803
# Shear Modulus (GPa) = 5.95008 20.42634 13.18821
#
# Velocity S-wave (km/s) = 1.69375 3.13821 2.52162
# Velocity P-wave (km/s) = 3.62846 6.23762 5.10262
#
# Compressibility (1/GPa) = 0.05161756
#
# Stress axis : x y z
#
# Youngs Moduli (GPa) = 22.50744 71.32279 110.09006
#
# Poissons Ratio (x) = 0.22534 -0.22122
# Poissons Ratio (y) = 0.07111 0.74951
# Poissons Ratio (z) = -0.04523 0.48558
#
# Static dielectric constant tensor:
#      x y z
#    x 1.755260 0.000000 0.000000 
#    y 0.000000 1.758600 0.000000 
#    z 0.000000 0.000000 1.705420 
# 
# From -- ./inp_files/52615.got.cif
#   From: 2010.05.17/outbox.cif.g08.bks.cpg/sg74_27_cif.got.tgz:52615.got - 2010.06.03 17:57:02.
