data_PCOD9539990
_publ_section_title
;
Structure prediction by ZEFSAII (Michael W. Deem and Ramdas Pophale) SiO2 
 PCOD9539990
Probable space group: I M M A
;
_chemical_formula_sum "Si O2"
_cell_formula_units_Z 48
_cell_length_a 28.858219
_cell_length_b 9.223602
_cell_length_c 7.630956
_cell_angle_alpha 90.000000
_cell_angle_beta 90.000000
_cell_angle_gamma 90.000000
_cell_volume 2031.182888
_symmetry_space_group_name_H-M "I M M A"
_symmetry_group_IT_number 74
_symmetry_cell_setting 'orthorhombic'
loop_
_space_group_symop_operation_xyz
x,y,z
-x,1/2-y,z
x,-y,-z
-x,1/2+y,-z
-x,-y,-z
x,1/2+y,-z
-x,y,z
x,1/2-y,z
1/2+x,1/2+y,1/2+z
1/2-x,-y,1/2+z
1/2+x,1/2-y,1/2-z
1/2-x,y,1/2-z
1/2-x,1/2-y,1/2-z
1/2+x,y,1/2-z
1/2-x,1/2+y,1/2+z
1/2+x,-y,1/2+z
loop_
_atom_site_type_symbol
_atom_site_label
_atom_site_fract_x
_atom_site_fract_y
_atom_site_fract_z
Si Si1 0.114490 0.750000 0.384668
Si Si2 0.238137 0.500000 0.500000
Si Si3 0.052193 0.416107 0.836795
Si Si4 0.178511 0.750000 0.687864
Si Si5 0.694194 0.750000 0.407810
O O1 0.084357 0.609277 0.330413
O O2 0.131017 0.750000 0.581462
O O3 0.158247 0.750000 0.251476
O O4 0.206740 0.608190 0.618401
O O5 0.273095 0.610451 0.405507
O O6 0.047772 0.250000 0.899865
O O7 0.000000 0.471153 0.799551
O O8 0.073334 0.500000 0.000000
O O9 0.172749 0.750000 0.895937
#
# Coordination Sequence:
#
# PCOD9539990 Si02
#       5
#     8   8  16   8   8
#     4  10  23  35  64  88 122 165 198 252 303 364
#     4  10  24  44  58  82 122 166 204 264 314 354
#     4   8  16  33  59  92 124 157 197 244 306 369
#     4  11  26  41  61  88 123 160 217 260 306 363
#     4  11  26  39  63  88 121 161 215 257 310 367
#
# _framework density 23.631551999999999
#
# number of rings (size 3 to 8) (size 9 to 14) (size 15 to 20)
#    1.000    1.333    0.000    2.000   11.667    1.333 
#    0.000    0.000    0.000    4.000    0.000    9.333 
#    0.000    0.000    0.000    0.000    0.000    0.000 
#
# Total GULP energy -134000.251815 kJ/mol
# GULP energy per Si atom -5583.343826 kJ/mol
# Density = 2.357777 g / cm^3
# Si number density = 23.631552 Si / 1000 Ang^3
#
#
#
# Elastic Constant Matrix: (Units=GPa)
#
#
# Indices 1 2 3 4 5 6 
#
# 1 57.8277 6.1891 31.9864 0.0000 0.0000 0.0000
# 2 6.1891 104.8907 19.3371 0.0000 0.0000 0.0000
# 3 31.9864 19.3371 142.7720 0.0000 0.0000 0.0000
# 4 0.0000 0.0000 0.0000 24.1276 0.0000 0.0000
# 5 0.0000 0.0000 0.0000 0.0000 25.7991 0.0000
# 6 0.0000 0.0000 0.0000 0.0000 0.0000 8.0419
#
#
#
# Elastic Compliance Matrix: (Units=1/GPa)
#
#
# Indices 1 2 3 4 5 6 
#
# 1 0.019752 -0.000359 -0.004377 0.000000 0.000000 0.000000
# 2 -0.000359 0.009784 -0.001245 0.000000 0.000000 0.000000
# 3 -0.004377 -0.001245 0.008153 0.000000 0.000000 0.000000
# 4 0.000000 0.000000 0.000000 0.041446 0.000000 0.000000
# 5 0.000000 0.000000 0.000000 0.000000 0.038761 0.000000
# 6 0.000000 0.000000 0.000000 0.000000 0.000000 0.124348
#
#
# Mechanical properties :
#
#
# Convention : Reuss Voigt Hill
#
# Bulk Modulus (GPa) = 38.86595 46.72397 42.79496
# Shear Modulus (GPa) = 19.02719 28.12558 23.57638
#
# Velocity S-wave (km/s) = 2.84061 3.45363 3.16201
# Velocity P-wave (km/s) = 5.21930 5.97647 5.61067
#
# Compressibility (1/GPa) = 0.02572946
#
# Stress axis : x y z
#
# Youngs Moduli (GPa) = 50.62784 102.20359 122.64956
#
# Poissons Ratio (x) = 0.03665 0.53679
# Poissons Ratio (y) = 0.01816 0.15268
# Poissons Ratio (z) = 0.22158 0.12723
#
# Static dielectric constant tensor:
#      x y z
#    x 1.963530 0.000000 0.000000 
#    y 0.000000 1.889980 0.000000 
#    z 0.000000 0.000000 1.929850 
# 
# From -- ./inp_files/15712.got.cif
#   From: 2010.05.17/outbox.cif.g08.bks.cpg/sg74_8_cif.got.tgz:15712.got - 2010.06.03 17:57:02.
