data_PCOD9539135
_publ_section_title
;
Structure prediction by ZEFSAII (Michael W. Deem and Ramdas Pophale) SiO2 
 PCOD9539135
Probable space group: I M M A
;
_chemical_formula_sum "Si O2"
_cell_formula_units_Z 112
_cell_length_a 14.777347
_cell_length_b 24.833577
_cell_length_c 16.409471
_cell_angle_alpha 90.000000
_cell_angle_beta 90.000000
_cell_angle_gamma 90.000000
_cell_volume 6021.855522
_symmetry_space_group_name_H-M "I M M A"
_symmetry_group_IT_number 74
_symmetry_cell_setting 'orthorhombic'
loop_
_space_group_symop_operation_xyz
x,y,z
-x,1/2-y,z
x,-y,-z
-x,1/2+y,-z
-x,-y,-z
x,1/2+y,-z
-x,y,z
x,1/2-y,z
1/2+x,1/2+y,1/2+z
1/2-x,-y,1/2+z
1/2+x,1/2-y,1/2-z
1/2-x,y,1/2-z
1/2-x,1/2-y,1/2-z
1/2+x,y,1/2-z
1/2-x,1/2+y,1/2+z
1/2+x,-y,1/2+z
loop_
_atom_site_type_symbol
_atom_site_label
_atom_site_fract_x
_atom_site_fract_y
_atom_site_fract_z
Si Si1 0.102922 0.120359 0.894208
Si Si2 0.895491 0.555180 0.540769
Si Si3 0.858280 0.188525 0.739651
Si Si4 0.263110 0.404920 0.345863
Si Si5 0.601002 0.836075 0.052796
Si Si6 0.713628 0.811679 0.528280
Si Si7 0.394225 0.000021 0.598033
O O1 0.102171 0.150635 0.808600
O O2 0.000000 0.114402 0.925685
O O3 0.139519 0.060065 0.879873
O O4 0.159520 0.155702 0.958169
O O5 0.863331 0.500000 0.500000
O O6 0.829668 0.574482 0.612035
O O7 0.894135 0.601386 0.472172
O O8 0.000000 0.548315 0.567646
O O9 0.887172 0.250000 0.753405
O O10 0.750000 0.186400 0.750000
O O11 0.883706 0.172347 0.648358
O O12 0.250000 0.397620 0.250000
O O13 0.289608 0.349486 0.392005
O O14 0.336439 0.451382 0.365501
O O15 0.500000 0.816848 0.031212
O O16 0.682820 0.809734 0.003369
O O17 0.681490 0.750000 0.538267
O O18 0.500000 0.994733 0.621772
O O19 0.389050 0.000000 0.500000
#
# Coordination Sequence:
#
# PCOD9539135 Si02
#       7
#    16  16  16  16  16  16  16
#     4  11  23  38  60  88 120 158 198 243 298 358
#     4   9  20  38  61  88 119 153 196 245 291 350
#     4  11  22  35  53  84 124 158 192 240 289 346
#     4  11  24  39  62  91 121 158 196 248 307 351
#     4  10  21  37  58  83 115 159 199 237 294 351
#     4  11  23  40  61  84 115 157 208 254 293 350
#     4  10  21  40  64  88 116 153 196 240 292 362
#
# _framework density 18.598918000000001
#
# number of rings (size 3 to 8) (size 9 to 14) (size 15 to 20)
#    0.000    1.571    2.857    1.714    2.000    5.429 
#    0.000    2.857    0.000    0.000    0.000    4.000 
#    0.000    0.000    0.000    0.000    0.000    0.000 
#
# Total GULP energy -312720.206628 kJ/mol
# GULP energy per Si atom -5584.289404 kJ/mol
# Density = 1.855659 g / cm^3
# Si number density = 18.598918 Si / 1000 Ang^3
#
#
#
# Elastic Constant Matrix: (Units=GPa)
#
#
# Indices 1 2 3 4 5 6 
#
# 1 71.7740 39.8377 13.9862 0.0000 0.0000 0.0000
# 2 39.8377 156.8115 71.7715 0.0000 0.0000 0.0000
# 3 13.9862 71.7715 100.9309 0.0000 0.0000 0.0000
# 4 0.0000 0.0000 0.0000 -0.0851 0.0001 0.0001
# 5 0.0000 0.0000 0.0000 0.0001 10.8790 0.0000
# 6 0.0000 0.0000 0.0000 0.0001 0.0000 23.8638
#
#
#
# Elastic Compliance Matrix: (Units=1/GPa)
#
#
# Indices 1 2 3 4 5 6 
#
# 1 0.016290 -0.004604 0.001016 0.000002 0.000000 0.000000
# 2 -0.004604 0.010755 -0.007010 0.000001 0.000000 0.000000
# 3 0.001016 -0.007010 0.014752 -0.000006 0.000000 0.000000
# 4 0.000002 0.000001 -0.000006-11.754120 0.000057 0.000036
# 5 0.000000 0.000000 0.000000 0.000057 0.091920 0.000000
# 6 0.000000 0.000000 0.000000 0.000036 0.000000 0.041905
#
#
# Mechanical properties :
#
#
# Convention : Reuss Voigt Hill
#
# Bulk Modulus (GPa) = 48.53892 64.52304 56.53098
# Shear Modulus (GPa) = -0.43288 20.52627 10.04669
#
# Velocity S-wave (km/s) = -0.48296 3.32569 2.32669
# Velocity P-wave (km/s) = 5.08364 7.03663 6.13830
#
# Compressibility (1/GPa) = 0.02060202
#
# Stress axis : x y z
#
# Youngs Moduli (GPa) = 61.38835 92.98019 67.78895
#
# Poissons Ratio (x) = 0.42803 -0.06889
# Poissons Ratio (y) = 0.28260 0.47519
# Poissons Ratio (z) = -0.06238 0.65178
#
# Static dielectric constant tensor:
#      x y z
#    x 1.685860 0.000000 0.000000 
#    y 0.000000 1.655920 0.000000 
#    z 0.000000 0.000000 1.608780 
# 
# From -- ./inp_files/32737.got.cif
#   From: 2010.05.17/outbox.cif.g08.bks.cpg/sg74_17_cif.got.tgz:32737.got - 2010.06.03 17:57:02.
