data_PCOD9539269
_publ_section_title
;
Structure prediction by ZEFSAII (Michael W. Deem and Ramdas Pophale) SiO2 
 PCOD9539269
Probable space group: I M M A
;
_chemical_formula_sum "Si O2"
_cell_formula_units_Z 104
_cell_length_a 8.897406
_cell_length_b 22.003350
_cell_length_c 29.187499
_cell_angle_alpha 90.000000
_cell_angle_beta 90.000000
_cell_angle_gamma 90.000000
_cell_volume 5714.116604
_symmetry_space_group_name_H-M "I M M A"
_symmetry_group_IT_number 74
_symmetry_cell_setting 'orthorhombic'
loop_
_space_group_symop_operation_xyz
x,y,z
-x,1/2-y,z
x,-y,-z
-x,1/2+y,-z
-x,-y,-z
x,1/2+y,-z
-x,y,z
x,1/2-y,z
1/2+x,1/2+y,1/2+z
1/2-x,-y,1/2+z
1/2+x,1/2-y,1/2-z
1/2-x,y,1/2-z
1/2-x,1/2-y,1/2-z
1/2+x,y,1/2-z
1/2-x,1/2+y,1/2+z
1/2+x,-y,1/2+z
loop_
_atom_site_type_symbol
_atom_site_label
_atom_site_fract_x
_atom_site_fract_y
_atom_site_fract_z
Si Si1 0.329942 0.177602 0.295628
Si Si2 0.180930 0.250000 0.698709
Si Si3 0.179966 0.007549 0.799921
Si Si4 0.819302 0.622677 0.350210
Si Si5 0.178841 0.574247 0.056990
Si Si6 0.824719 0.596861 0.637943
Si Si7 0.678663 0.928937 0.546839
O O1 0.500000 0.153856 0.299855
O O2 0.338146 0.250000 0.292613
O O3 0.250000 0.153908 0.250000
O O4 0.226431 0.157598 0.336918
O O5 0.250000 0.250000 0.750000
O O6 0.221196 0.189180 0.669890
O O7 0.000000 0.250000 0.703758
O O8 0.250000 0.995774 0.750000
O O9 0.242092 0.071612 0.818625
O O10 0.000000 0.008452 0.797612
O O11 0.234697 0.956605 0.835900
O O12 0.764946 0.607682 0.402048
O O13 0.000000 0.616411 0.348192
O O14 0.203389 0.501235 0.055402
O O15 0.000000 0.583465 0.063783
O O16 0.217822 0.591462 0.004633
O O17 0.775249 0.601830 0.585741
O O18 0.000000 0.584617 0.642619
O O19 0.500000 0.918834 0.552957
#
# Coordination Sequence:
#
# PCOD9539269 Si02
#       7
#    16   8  16  16  16  16  16
#     4  10  21  38  59  81 109 148 189 229 274 327
#     4  10  24  42  60  84 116 154 196 244 293 350
#     4  12  24  38  55  80 115 149 186 232 284 337
#     4  11  22  38  59  85 115 149 191 237 291 348
#     4   9  18  34  58  85 113 148 184 228 279 336
#     4  12  23  35  55  85 116 148 186 229 281 335
#     4   9  18  34  56  84 117 148 185 227 278 335
#
# _framework density 18.200538000000002
#
# number of rings (size 3 to 8) (size 9 to 14) (size 15 to 20)
#    0.000    1.538    1.538    5.538    0.000    4.000 
#    0.000    1.538    1.692    0.000    0.000    0.000 
#    0.000    0.000    0.000    0.000    0.000    0.000 
#
# Total GULP energy -290308.381105 kJ/mol
# GULP energy per Si atom -5582.853483 kJ/mol
# Density = 1.815911 g / cm^3
# Si number density = 18.200538 Si / 1000 Ang^3
#
#
#
# Elastic Constant Matrix: (Units=GPa)
#
#
# Indices 1 2 3 4 5 6 
#
# 1 91.1864 29.5583 65.1453 0.0000 0.0000 0.0000
# 2 29.5583 58.6560 32.6286 0.0000 0.0000 0.0000
# 3 65.1453 32.6286 133.2123 0.0000 0.0000 0.0000
# 4 0.0000 0.0000 0.0000-1366.9038 0.0000 0.0000
# 5 0.0000 0.0000 0.0000 0.0000 37.7092 0.0000
# 6 0.0000 0.0000 0.0000 0.0000 0.0000 -5.5255
#
#
#
# Elastic Compliance Matrix: (Units=1/GPa)
#
#
# Indices 1 2 3 4 5 6 
#
# 1 0.017961 -0.004822 -0.007602 0.000000 0.000000 0.000000
# 2 -0.004822 0.021032 -0.002794 0.000000 0.000000 0.000000
# 3 -0.007602 -0.002794 0.011909 0.000000 0.000000 0.000000
# 4 0.000000 0.000000 0.000000 -0.000732 0.000000 0.000000
# 5 0.000000 0.000000 0.000000 0.000000 0.026519 0.000000
# 6 0.000000 0.000000 0.000000 0.000000 0.000000 -0.180980
#
#
# Mechanical properties :
#
#
# Convention : Reuss Voigt Hill
#
# Bulk Modulus (GPa) = 48.86048 59.74654 54.30351
# Shear Modulus (GPa) = -74.59013 -256.56251 -165.57632
#
# Velocity S-wave (km/s) = -6.40869 -11.88572 -9.54834
# Velocity P-wave (km/s) = 5.27806 12.46845 9.57393
#
# Compressibility (1/GPa) = 0.02046644
#
# Stress axis : x y z
#
# Youngs Moduli (GPa) = 55.67651 47.54562 83.97097
#
# Poissons Ratio (x) = 0.22926 0.63838
# Poissons Ratio (y) = 0.26847 0.23457
# Poissons Ratio (z) = 0.42328 0.13282
#
# Static dielectric constant tensor:
#      x y z
#    x 1.614360 0.000000 0.000000 
#    y 0.000000 1.685350 0.000000 
#    z 0.000000 0.000000 1.594850 
# 
# From -- ./inp_files/64440.got.cif
#   From: 2010.05.17/outbox.cif.g08.bks.cpg/sg74_33_cif.got.tgz:64440.got - 2010.06.03 17:57:02.
