data_PCOD9539141
_publ_section_title
;
Structure prediction by ZEFSAII (Michael W. Deem and Ramdas Pophale) SiO2 
 PCOD9539141
Probable space group: I M M A
;
_chemical_formula_sum "Si O2"
_cell_formula_units_Z 112
_cell_length_a 25.766992
_cell_length_b 14.931963
_cell_length_c 12.921498
_cell_angle_alpha 90.000000
_cell_angle_beta 90.000000
_cell_angle_gamma 90.000000
_cell_volume 4971.569242
_symmetry_space_group_name_H-M "I M M A"
_symmetry_group_IT_number 74
_symmetry_cell_setting 'orthorhombic'
loop_
_space_group_symop_operation_xyz
x,y,z
-x,1/2-y,z
x,-y,-z
-x,1/2+y,-z
-x,-y,-z
x,1/2+y,-z
-x,y,z
x,1/2-y,z
1/2+x,1/2+y,1/2+z
1/2-x,-y,1/2+z
1/2+x,1/2-y,1/2-z
1/2-x,y,1/2-z
1/2-x,1/2-y,1/2-z
1/2+x,y,1/2-z
1/2-x,1/2+y,1/2+z
1/2+x,-y,1/2+z
loop_
_atom_site_type_symbol
_atom_site_label
_atom_site_fract_x
_atom_site_fract_y
_atom_site_fract_z
Si Si1 0.557098 0.857401 0.341732
Si Si2 0.214762 0.845792 0.353586
Si Si3 0.909333 0.149140 0.625124
Si Si4 0.439987 0.855359 0.682120
Si Si5 0.109999 0.856463 0.597646
Si Si6 0.138650 0.004369 0.890207
Si Si7 0.296547 0.965092 0.812719
O O1 0.500000 0.877845 0.383442
O O2 0.563682 0.750000 0.342359
O O3 0.561557 0.891646 0.222694
O O4 0.603646 0.907068 0.395996
O O5 0.227316 0.750000 0.409477
O O6 0.250000 0.840769 0.250000
O O7 0.151844 0.843780 0.345712
O O8 0.222317 0.950403 0.381571
O O9 0.930565 0.250000 0.615834
O O10 0.911483 0.108084 0.511434
O O11 0.500000 0.875659 0.660695
O O12 0.430855 0.750000 0.657773
O O13 0.427534 0.867361 0.804409
O O14 0.400792 0.921167 0.624532
O O15 0.118952 0.750000 0.584322
O O16 0.164357 0.903154 0.624951
O O17 0.171695 0.004692 0.785821
O O18 0.167278 0.000000 0.000000
O O19 0.250000 0.917700 0.750000
#
# Coordination Sequence:
#
# PCOD9539141 Si02
#       7
#    16  16  16  16  16  16  16
#     4  10  21  37  58  85 116 146 179 227 284 333
#     4   9  17  32  54  77 106 141 181 229 277 325
#     4   9  17  33  55  82 112 144 179 220 274 335
#     4   9  19  37  59  82 111 148 188 228 271 325
#     4   9  19  35  57  83 114 148 182 223 276 334
#     4  11  23  40  58  80 111 146 188 234 278 325
#     4  10  21  39  56  82 110 146 187 231 278 332
#
# _framework density 22.528098
#
# number of rings (size 3 to 8) (size 9 to 14) (size 15 to 20)
#    0.000    2.429    1.429    0.429    0.000    3.143 
#    5.143    4.286    0.000    2.571    0.000    0.000 
#    0.000    0.000    0.000    0.000    0.000    0.000 
#
# Total GULP energy -311983.474487 kJ/mol
# GULP energy per Si atom -5571.133473 kJ/mol
# Density = 2.247682 g / cm^3
# Si number density = 22.528098 Si / 1000 Ang^3
#
#
#
# Elastic Constant Matrix: (Units=GPa)
#
#
# Indices 1 2 3 4 5 6 
#
# 1 55.7717 9.5235 2.3463 0.0000 0.0000 0.0000
# 2 9.5235 68.5744 15.9292 0.0000 0.0000 0.0000
# 3 2.3463 15.9292 93.2768 0.0000 0.0000 0.0000
# 4 0.0000 0.0000 0.0000 12.4959 0.0000 0.0000
# 5 0.0000 0.0000 0.0000 0.0000 10.8495 0.0000
# 6 0.0000 0.0000 0.0000 0.0000 0.0000 24.5332
#
#
#
# Elastic Compliance Matrix: (Units=1/GPa)
#
#
# Indices 1 2 3 4 5 6 
#
# 1 0.018366 -0.002544 -0.000027 0.000000 0.000000 0.000000
# 2 -0.002544 0.015538 -0.002589 0.000000 0.000000 0.000000
# 3 -0.000027 -0.002589 0.011164 0.000000 0.000000 0.000000
# 4 0.000000 0.000000 0.000000 0.080026 0.000000 0.000000
# 5 0.000000 0.000000 0.000000 0.000000 0.092171 0.000000
# 6 0.000000 0.000000 0.000000 0.000000 0.000000 0.040761
#
#
# Mechanical properties :
#
#
# Convention : Reuss Voigt Hill
#
# Bulk Modulus (GPa) = 28.78127 30.35787 29.56957
# Shear Modulus (GPa) = 17.86169 22.23065 20.04617
#
# Velocity S-wave (km/s) = 2.81884 3.14474 2.98624
# Velocity P-wave (km/s) = 4.83714 5.16630 5.00443
#
# Compressibility (1/GPa) = 0.03474482
#
# Stress axis : x y z
#
# Youngs Moduli (GPa) = 54.44894 64.36034 89.57633
#
# Poissons Ratio (x) = 0.16375 0.00246
# Poissons Ratio (y) = 0.13853 0.23195
# Poissons Ratio (z) = 0.00150 0.16665
#
# Static dielectric constant tensor:
#      x y z
#    x 1.829690 0.000000 0.000000 
#    y 0.000000 1.867280 0.000000 
#    z 0.000000 0.000000 1.866820 
# 
# From -- ./inp_files/37415.got.cif
#   From: 2010.05.17/outbox.cif.g08.bks.cpg/sg74_19_cif.got.tgz:37415.got - 2010.06.03 17:57:02.
