data_PCOD9539119
_publ_section_title
;
Structure prediction by ZEFSAII (Michael W. Deem and Ramdas Pophale) SiO2 
 PCOD9539119
Probable space group: I M M A
;
_chemical_formula_sum "Si O2"
_cell_formula_units_Z 92
_cell_length_a 25.978114
_cell_length_b 8.560859
_cell_length_c 22.045140
_cell_angle_alpha 90.000000
_cell_angle_beta 90.000000
_cell_angle_gamma 90.000000
_cell_volume 4902.728272
_symmetry_space_group_name_H-M "I M M A"
_symmetry_group_IT_number 74
_symmetry_cell_setting 'orthorhombic'
loop_
_space_group_symop_operation_xyz
x,y,z
-x,1/2-y,z
x,-y,-z
-x,1/2+y,-z
-x,-y,-z
x,1/2+y,-z
-x,y,z
x,1/2-y,z
1/2+x,1/2+y,1/2+z
1/2-x,-y,1/2+z
1/2+x,1/2-y,1/2-z
1/2-x,y,1/2-z
1/2-x,1/2-y,1/2-z
1/2+x,y,1/2-z
1/2-x,1/2+y,1/2+z
1/2+x,-y,1/2+z
loop_
_atom_site_type_symbol
_atom_site_label
_atom_site_fract_x
_atom_site_fract_y
_atom_site_fract_z
Si Si1 0.941232 0.563905 0.701176
Si Si2 0.083394 0.000000 0.500000
Si Si3 0.361019 0.937114 0.567584
Si Si4 0.242183 0.437119 0.431627
Si Si5 0.058551 0.934943 0.164157
Si Si6 0.500000 0.750000 0.036910
Si Si7 0.641971 0.064130 0.889412
O O1 0.937014 0.750000 0.690836
O O2 0.936344 0.525173 0.772170
O O3 0.896622 0.474407 0.665294
O O4 0.000000 0.516176 0.682187
O O5 0.045052 0.118889 0.531417
O O6 0.120410 0.957402 0.555273
O O7 0.365796 0.750000 0.567667
O O8 0.301573 0.977021 0.582712
O O9 0.371416 0.000000 0.500000
O O10 0.400138 0.009226 0.615630
O O11 0.232469 0.500000 0.500000
O O12 0.237196 0.250000 0.431451
O O13 0.201302 0.513246 0.385788
O O14 0.064065 0.750000 0.175976
O O15 0.000000 0.962042 0.141934
O O16 0.640541 0.250000 0.902833
#
# Coordination Sequence:
#
# PCOD9539119 Si02
#       7
#    16   8  16  16  16   4  16
#     4  10  23  39  60  83 113 154 196 240 289 346
#     4  11  24  36  52  76 110 150 191 246 300 344
#     4  10  21  38  63  92 121 153 189 233 285 342
#     4  10  21  37  57  83 115 151 194 241 291 343
#     4  10  21  40  63  90 122 153 187 229 283 345
#     4  10  24  38  48  74 112 146 192 246 304 342
#     4  12  24  36  55  81 112 152 198 244 292 345
#
# _framework density 18.765060999999999
#
# number of rings (size 3 to 8) (size 9 to 14) (size 15 to 20)
#    0.000    1.565    1.739    2.609    4.870    4.522 
#    0.000    0.870    0.000    5.217    0.000    0.000 
#    0.000    0.000    0.000    0.000    0.000    0.000 
#
# Total GULP energy -256135.373110 kJ/mol
# GULP energy per Si atom -5568.160285 kJ/mol
# Density = 1.872235 g / cm^3
# Si number density = 18.765061 Si / 1000 Ang^3
#
#
#
# Elastic Constant Matrix: (Units=GPa)
#
#
# Indices 1 2 3 4 5 6 
#
# 1 134.1024 38.5607 60.6413 0.0000 0.0000 0.0000
# 2 38.5607 43.9387 11.3152 0.0000 0.0000 0.0000
# 3 60.6413 11.3152 62.8054 0.0000 0.0000 0.0000
# 4 0.0000 0.0000 0.0000 35.9563 0.0000 0.0000
# 5 0.0000 0.0000 0.0000 0.0000 -271.0625 0.0000
# 6 0.0000 0.0000 0.0000 0.0000 0.0000 34.0628
#
#
#
# Elastic Compliance Matrix: (Units=1/GPa)
#
#
# Indices 1 2 3 4 5 6 
#
# 1 0.017445 -0.011506 -0.014771 0.000000 0.000000 0.000000
# 2 -0.011506 0.031455 0.005442 0.000000 0.000000 0.000000
# 3 -0.014771 0.005442 0.029204 0.000000 0.000000 0.000000
# 4 0.000000 0.000000 0.000000 0.027812 0.000000 0.000000
# 5 0.000000 0.000000 0.000000 0.000000 -0.003689 0.000000
# 6 0.000000 0.000000 0.000000 0.000000 0.000000 0.029358
#
#
# Mechanical properties :
#
#
# Convention : Reuss Voigt Hill
#
# Bulk Modulus (GPa) = 27.44632 51.32009 39.38321
# Shear Modulus (GPa) = 26.96921 -31.52005 -2.27542
#
# Velocity S-wave (km/s) = 3.79516 -4.10289 -1.10237
# Velocity P-wave (km/s) = 5.81914 2.22783 4.40600
#
# Compressibility (1/GPa) = 0.03643476
#
# Stress axis : x y z
#
# Youngs Moduli (GPa) = 57.32363 31.79150 34.24245
#
# Poissons Ratio (x) = 0.36579 0.50579
# Poissons Ratio (y) = 0.65955 -0.18636
# Poissons Ratio (z) = 0.84672 -0.17302
#
# Static dielectric constant tensor:
#      x y z
#    x 1.685090 0.000000 0.000000 
#    y 0.000000 1.670340 0.000000 
#    z 0.000000 0.000000 1.624480 
# 
# From -- ./inp_files/61940.got.cif
#   From: 2010.05.17/outbox.cif.g08.bks.cpg/sg74_31_cif.got.tgz:61940.got - 2010.06.03 17:57:02.
