data_PCOD9539597
_publ_section_title
;
Structure prediction by ZEFSAII (Michael W. Deem and Ramdas Pophale) SiO2 
 PCOD9539597
Probable space group: I M M A
;
_chemical_formula_sum "Si O2"
_cell_formula_units_Z 88
_cell_length_a 21.413743
_cell_length_b 10.760758
_cell_length_c 18.322098
_cell_angle_alpha 90.000000
_cell_angle_beta 90.000000
_cell_angle_gamma 90.000000
_cell_volume 4221.926346
_symmetry_space_group_name_H-M "I M M A"
_symmetry_group_IT_number 74
_symmetry_cell_setting 'orthorhombic'
loop_
_space_group_symop_operation_xyz
x,y,z
-x,1/2-y,z
x,-y,-z
-x,1/2+y,-z
-x,-y,-z
x,1/2+y,-z
-x,y,z
x,1/2-y,z
1/2+x,1/2+y,1/2+z
1/2-x,-y,1/2+z
1/2+x,1/2-y,1/2-z
1/2-x,y,1/2-z
1/2-x,1/2-y,1/2-z
1/2+x,y,1/2-z
1/2-x,1/2+y,1/2+z
1/2+x,-y,1/2+z
loop_
_atom_site_type_symbol
_atom_site_label
_atom_site_fract_x
_atom_site_fract_y
_atom_site_fract_z
Si Si1 0.000000 0.402710 0.933668
Si Si2 0.426111 0.983068 0.172870
Si Si3 0.738100 0.892406 0.668951
Si Si4 0.661550 0.750000 0.161520
Si Si5 0.381904 0.485437 0.660338
Si Si6 0.846846 0.395289 0.438730
Si Si7 0.297505 0.250000 0.667123
O O1 0.060242 0.444919 0.887950
O O2 0.000000 0.250000 0.945932
O O3 0.000000 0.500000 0.000000
O O4 0.500000 0.960718 0.166680
O O5 0.383267 0.866342 0.149611
O O6 0.407710 0.000574 0.257523
O O7 0.402307 0.092784 0.120937
O O8 0.757473 0.750000 0.677121
O O9 0.750000 0.952489 0.750000
O O10 0.784449 0.936098 0.605843
O O11 0.665437 0.900855 0.648221
O O12 0.687613 0.750000 0.245192
O O13 0.730289 0.750000 0.127652
O O14 0.333006 0.374505 0.646951
O O15 0.857648 0.500000 0.500000
O O16 0.842252 0.250000 0.463203
#
# Coordination Sequence:
#
# PCOD9539597 Si02
#       7
#     8  16  16   8  16  16   8
#     4  12  28  50  68 100 151 196 239 298 357 436
#     4  11  22  38  67 101 135 180 236 291 346 417
#     4  10  21  41  70 104 139 176 230 295 356 422
#     4   9  19  32  57 102 136 164 216 283 350 404
#     4  11  21  40  70 101 132 180 238 293 356 414
#     4  11  26  47  68 101 146 187 230 290 355 423
#     4   9  18  31  60  97 134 167 218 285 342 410
#
# _framework density 20.843565999999999
#
# number of rings (size 3 to 8) (size 9 to 14) (size 15 to 20)
#    0.000    1.455    3.636    1.364    3.818    2.182 
#    1.636    1.818    0.000    0.000    0.000    0.000 
#    0.000    0.000    0.000    0.000    0.000    0.000 
#
# Total GULP energy -245065.493182 kJ/mol
# GULP energy per Si atom -5569.670300 kJ/mol
# Density = 2.079613 g / cm^3
# Si number density = 20.843566 Si / 1000 Ang^3
#
#
#
# Elastic Constant Matrix: (Units=GPa)
#
#
# Indices 1 2 3 4 5 6 
#
# 1 166.6510 39.8335 42.1666 0.0000 0.0000 0.0000
# 2 39.8335 87.2951 51.7331 0.0000 0.0000 0.0000
# 3 42.1666 51.7331 92.2238 0.0000 0.0000 0.0000
# 4 0.0000 0.0000 0.0000 10.3540 0.0000 0.0000
# 5 0.0000 0.0000 0.0000 0.0000 22.3604 0.0000
# 6 0.0000 0.0000 0.0000 0.0000 0.0000 21.8224
#
#
#
# Elastic Compliance Matrix: (Units=1/GPa)
#
#
# Indices 1 2 3 4 5 6 
#
# 1 0.006999 -0.001943 -0.002110 0.000000 0.000000 0.000000
# 2 -0.001943 0.017699 -0.009040 0.000000 0.000000 0.000000
# 3 -0.002110 -0.009040 0.016879 0.000000 0.000000 0.000000
# 4 0.000000 0.000000 0.000000 0.096581 0.000000 0.000000
# 5 0.000000 0.000000 0.000000 0.000000 0.044722 0.000000
# 6 0.000000 0.000000 0.000000 0.000000 0.000000 0.045824
#
#
# Mechanical properties :
#
#
# Convention : Reuss Voigt Hill
#
# Bulk Modulus (GPa) = 64.97399 68.18180 66.57790
# Shear Modulus (GPa) = 19.22920 25.06983 22.14951
#
# Velocity S-wave (km/s) = 3.04064 3.47185 3.26337
# Velocity P-wave (km/s) = 6.60055 6.98955 6.79783
#
# Compressibility (1/GPa) = 0.01539077
#
# Stress axis : x y z
#
# Youngs Moduli (GPa) = 142.87927 56.49887 59.24536
#
# Poissons Ratio (x) = 0.10979 0.12501
# Poissons Ratio (y) = 0.27765 0.53558
# Poissons Ratio (z) = 0.30147 0.51075
#
# Static dielectric constant tensor:
#      x y z
#    x 1.769880 0.000000 0.000000 
#    y 0.000000 1.977260 0.000000 
#    z 0.000000 0.000000 1.819580 
# 
# From -- ./inp_files/45143.got.cif
#   From: 2010.05.17/outbox.cif.g08.bks.cpg/sg74_23_cif.got.tgz:45143.got - 2010.06.03 17:57:02.
