data_PCOD9539746
_publ_section_title
;
Structure prediction by ZEFSAII (Michael W. Deem and Ramdas Pophale) SiO2 
 PCOD9539746
Probable space group: I M M A
;
_chemical_formula_sum "Si O2"
_cell_formula_units_Z 80
_cell_length_a 10.079204
_cell_length_b 29.814670
_cell_length_c 16.477305
_cell_angle_alpha 90.000000
_cell_angle_beta 90.000000
_cell_angle_gamma 90.000000
_cell_volume 4951.564296
_symmetry_space_group_name_H-M "I M M A"
_symmetry_group_IT_number 74
_symmetry_cell_setting 'orthorhombic'
loop_
_space_group_symop_operation_xyz
x,y,z
-x,1/2-y,z
x,-y,-z
-x,1/2+y,-z
-x,-y,-z
x,1/2+y,-z
-x,y,z
x,1/2-y,z
1/2+x,1/2+y,1/2+z
1/2-x,-y,1/2+z
1/2+x,1/2-y,1/2-z
1/2-x,y,1/2-z
1/2-x,1/2-y,1/2-z
1/2+x,y,1/2-z
1/2-x,1/2+y,1/2+z
1/2+x,-y,1/2+z
loop_
_atom_site_type_symbol
_atom_site_label
_atom_site_fract_x
_atom_site_fract_y
_atom_site_fract_z
Si Si1 0.000000 0.970151 0.692868
Si Si2 0.209154 0.044349 0.444221
Si Si3 0.500000 0.923203 0.193570
Si Si4 0.500000 0.472985 0.380726
Si Si5 0.343221 0.302950 0.826878
Si Si6 0.284171 0.614996 0.074760
Si Si7 0.500000 0.418334 0.621241
O O1 0.127264 0.957203 0.639083
O O2 0.000000 0.956480 0.787050
O O3 0.000000 0.023707 0.696120
O O4 0.365212 0.042438 0.423902
O O5 0.171864 0.089238 0.493580
O O6 0.178446 0.000000 0.500000
O O7 0.629873 0.907637 0.146146
O O8 0.500000 0.905877 0.284310
O O9 0.500000 0.527488 0.383801
O O10 0.500000 0.309827 0.808794
O O11 0.323094 0.250000 0.841223
O O12 0.250000 0.315709 0.750000
O O13 0.307156 0.332886 0.905430
O O14 0.131830 0.601844 0.083723
#
# Coordination Sequence:
#
# PCOD9539746 Si02
#       7
#     8  16   8   8  16  16   8
#     4  11  22  34  52  70 101 144 178 215 258 310
#     4  12  21  35  50  75 106 135 177 225 263 305
#     4  11  19  31  46  72 101 133 181 213 250 308
#     4  11  22  38  50  70 105 148 182 211 260 312
#     4  10  22  39  56  77 107 141 178 219 264 317
#     4  12  22  32  51  74 102 137 176 221 264 302
#     4  11  21  31  48  72 103 141 179 215 248 312
#
# _framework density 16.156510999999998
#
# number of rings (size 3 to 8) (size 9 to 14) (size 15 to 20)
#    0.000    0.800    5.000    4.200    1.400    3.200 
#    0.000    0.000    0.000    0.000    0.000    0.000 
#    0.000    4.800    0.000    0.000    0.000    0.000 
#
# Total GULP energy -223339.595408 kJ/mol
# GULP energy per Si atom -5583.489885 kJ/mol
# Density = 1.611974 g / cm^3
# Si number density = 16.156511 Si / 1000 Ang^3
#
#
#
# Elastic Constant Matrix: (Units=GPa)
#
#
# Indices 1 2 3 4 5 6 
#
# 1 91.6774 18.4534 14.8040 0.0001 -0.0001 0.0000
# 2 18.4534 82.6690 35.7623 0.0001 -0.0001 0.0000
# 3 14.8040 35.7623 76.7415 0.0005 -0.0004 -0.0001
# 4 0.0001 0.0001 0.0005 26.5038 -0.0002 0.0000
# 5 -0.0001 -0.0001 -0.0004 -0.0002 41.5508 0.0001
# 6 0.0000 0.0000 -0.0001 0.0000 0.0001 9.6184
#
#
#
# Elastic Compliance Matrix: (Units=1/GPa)
#
#
# Indices 1 2 3 4 5 6 
#
# 1 0.011521 -0.002017 -0.001283 0.000000 0.000000 0.000000
# 2 -0.002017 0.015504 -0.006836 0.000000 0.000000 0.000000
# 3 -0.001283 -0.006836 0.016464 0.000000 0.000000 0.000000
# 4 0.000000 0.000000 0.000000 0.037730 0.000000 0.000000
# 5 0.000000 0.000000 0.000000 0.000000 0.024067 0.000000
# 6 0.000000 0.000000 0.000000 0.000000 0.000000 0.103967
#
#
# Mechanical properties :
#
#
# Convention : Reuss Voigt Hill
#
# Bulk Modulus (GPa) = 43.07030 43.23634 43.15332
# Shear Modulus (GPa) = 21.07369 27.67248 24.37308
#
# Velocity S-wave (km/s) = 3.61549 4.14306 3.88823
# Velocity P-wave (km/s) = 6.64418 7.05022 6.85021
#
# Compressibility (1/GPa) = 0.02321786
#
# Stress axis : x y z
#
# Youngs Moduli (GPa) = 86.79881 64.50031 60.73949
#
# Poissons Ratio (x) = 0.13009 0.07790
# Poissons Ratio (y) = 0.17506 0.41521
# Poissons Ratio (z) = 0.11133 0.44091
#
# Static dielectric constant tensor:
#      x y z
#    x 1.565460 0.000000 0.000000 
#    y 0.000000 1.557340 0.000000 
#    z 0.000000 0.000000 1.548780 
# 
# From -- ./inp_files/39854.got.cif
#   From: 2010.05.17/outbox.cif.g08.bks.cpg/sg74_20_cif.got.tgz:39854.got - 2010.06.03 17:57:02.
