data_PCOD9539939
_publ_section_title
;
Structure prediction by ZEFSAII (Michael W. Deem and Ramdas Pophale) SiO2 
 PCOD9539939
Probable space group: I M M A
;
_chemical_formula_sum "Si O2"
_cell_formula_units_Z 96
_cell_length_a 9.133715
_cell_length_b 21.120997
_cell_length_c 24.091170
_cell_angle_alpha 90.000000
_cell_angle_beta 90.000000
_cell_angle_gamma 90.000000
_cell_volume 4647.503904
_symmetry_space_group_name_H-M "I M M A"
_symmetry_group_IT_number 74
_symmetry_cell_setting 'orthorhombic'
loop_
_space_group_symop_operation_xyz
x,y,z
-x,1/2-y,z
x,-y,-z
-x,1/2+y,-z
-x,-y,-z
x,1/2+y,-z
-x,y,z
x,1/2-y,z
1/2+x,1/2+y,1/2+z
1/2-x,-y,1/2+z
1/2+x,1/2-y,1/2-z
1/2-x,y,1/2-z
1/2-x,1/2-y,1/2-z
1/2+x,y,1/2-z
1/2-x,1/2+y,1/2+z
1/2+x,-y,1/2+z
loop_
_atom_site_type_symbol
_atom_site_label
_atom_site_fract_x
_atom_site_fract_y
_atom_site_fract_z
Si Si1 0.827471 0.860579 0.530108
Si Si2 0.834138 0.998471 0.422833
Si Si3 0.321188 0.818843 0.847959
Si Si4 0.327805 0.628238 0.419915
Si Si5 0.832810 0.551830 0.700143
Si Si6 0.669815 0.673264 0.192643
O O1 0.813680 0.936107 0.543798
O O2 0.779866 0.827700 0.587463
O O3 0.740483 0.840854 0.475408
O O4 0.000000 0.847760 0.522054
O O5 0.831077 0.016569 0.358088
O O6 0.000000 0.974336 0.434998
O O7 0.712778 0.945431 0.429557
O O8 0.500000 0.822399 0.847557
O O9 0.275830 0.750000 0.827555
O O10 0.267242 0.878755 0.813300
O O11 0.500000 0.639028 0.415952
O O12 0.249198 0.649050 0.362980
O O13 0.750000 0.519088 0.750000
O O14 0.000000 0.559628 0.717379
O O15 0.500000 0.652455 0.193024
O O16 0.672303 0.750000 0.191005
O O17 0.750000 0.654110 0.250000
#
# Coordination Sequence:
#
# PCOD9539939 Si02
#       6
#    16  16  16  16  16  16
#     4   9  18  34  55  77 104 142 185 228 272 315
#     4   9  19  36  54  73 104 144 185 229 272 315
#     4   8  15  30  52  76 102 135 177 220 261 309
#     4  12  24  35  54  84 113 141 174 214 263 323
#     4   9  18  32  51  75 103 137 175 218 265 310
#     4  10  22  42  65  85 108 139 174 214 261 313
#
# _framework density 20.656248000000001
#
# number of rings (size 3 to 8) (size 9 to 14) (size 15 to 20)
#    0.000    2.500    0.000    4.500    0.000    6.000 
#    0.000    5.833    0.000    1.000    0.000    0.000 
#    0.000    0.000    0.000    0.000    0.000    0.000 
#
# Total GULP energy -267903.228041 kJ/mol
# GULP energy per Si atom -5581.317251 kJ/mol
# Density = 2.060923 g / cm^3
# Si number density = 20.656248 Si / 1000 Ang^3
#
#
#
# Elastic Constant Matrix: (Units=GPa)
#
#
# Indices 1 2 3 4 5 6 
#
# 1 97.1155 0.5203 61.6951 0.0000 0.0000 0.0000
# 2 0.5203 18.2278 -11.3195 0.0000 0.0000 0.0000
# 3 61.6951 -11.3195 146.8393 0.0000 0.0000 0.0000
# 4 0.0000 0.0000 0.0000 -3.8696 0.0000 0.0000
# 5 0.0000 0.0000 0.0000 0.0000 33.1082 0.0000
# 6 0.0000 0.0000 0.0000 0.0000 0.0000 7.7468
#
#
#
# Elastic Compliance Matrix: (Units=1/GPa)
#
#
# Indices 1 2 3 4 5 6 
#
# 1 0.014370 -0.004369 -0.006374 0.000000 0.000000 0.000000
# 2 -0.004369 0.058948 0.006380 0.000000 0.000000 0.000000
# 3 -0.006374 0.006380 0.009980 0.000000 0.000000 0.000000
# 4 0.000000 0.000000 0.000000 -0.258428 0.000000 0.000000
# 5 0.000000 0.000000 0.000000 0.000000 0.030204 0.000000
# 6 0.000000 0.000000 0.000000 0.000000 0.000000 0.129086
#
#
# Mechanical properties :
#
#
# Convention : Reuss Voigt Hill
#
# Bulk Modulus (GPa) = 13.40999 40.44159 26.92579
# Shear Modulus (GPa) = 281.78821 21.48286 151.63554
#
# Velocity S-wave (km/s) = 11.69248 3.22843 8.57720
# Velocity P-wave (km/s) = 13.74014 5.78946 10.54299
#
# Compressibility (1/GPa) = 0.07457126
#
# Stress axis : x y z
#
# Youngs Moduli (GPa) = 69.59000 16.96413 100.19878
#
# Poissons Ratio (x) = 0.07411 0.63870
# Poissons Ratio (y) = 0.30402 -0.63924
# Poissons Ratio (z) = 0.44359 -0.10823
#
# Static dielectric constant tensor:
#      x y z
#    x 1.688280 0.000000 0.000000 
#    y 0.000000 1.782610 0.000000 
#    z 0.000000 0.000000 1.734340 
# 
# From -- ./inp_files/57285.got.cif
#   From: 2010.05.17/outbox.cif.g08.bks.cpg/sg74_29_cif.got.tgz:57285.got - 2010.06.03 17:57:02.
