data_PCOD9539594
_publ_section_title
;
Structure prediction by ZEFSAII (Michael W. Deem and Ramdas Pophale) SiO2 
 PCOD9539594
Probable space group: I M M A
;
_chemical_formula_sum "Si O2"
_cell_formula_units_Z 88
_cell_length_a 7.365000
_cell_length_b 19.801196
_cell_length_c 25.111105
_cell_angle_alpha 90.000000
_cell_angle_beta 90.000000
_cell_angle_gamma 90.000000
_cell_volume 3662.098301
_symmetry_space_group_name_H-M "I M M A"
_symmetry_group_IT_number 74
_symmetry_cell_setting 'orthorhombic'
loop_
_space_group_symop_operation_xyz
x,y,z
-x,1/2-y,z
x,-y,-z
-x,1/2+y,-z
-x,-y,-z
x,1/2+y,-z
-x,y,z
x,1/2-y,z
1/2+x,1/2+y,1/2+z
1/2-x,-y,1/2+z
1/2+x,1/2-y,1/2-z
1/2-x,y,1/2-z
1/2-x,1/2-y,1/2-z
1/2+x,y,1/2-z
1/2-x,1/2+y,1/2+z
1/2+x,-y,1/2+z
loop_
_atom_site_type_symbol
_atom_site_label
_atom_site_fract_x
_atom_site_fract_y
_atom_site_fract_z
Si Si1 0.715274 0.177096 0.813270
Si Si2 0.282953 0.830535 0.632612
Si Si3 0.279208 0.045298 0.549409
Si Si4 0.295318 0.025725 0.664481
Si Si5 0.500000 0.429546 0.189704
Si Si6 0.220622 0.825837 0.990650
O O1 0.500000 0.173597 0.822477
O O2 0.781214 0.250000 0.834778
O O3 0.750000 0.178378 0.750000
O O4 0.797039 0.106970 0.832377
O O5 0.500000 0.842937 0.639028
O O6 0.254646 0.750000 0.640455
O O7 0.234303 0.845106 0.570420
O O8 0.160507 0.875325 0.671028
O O9 0.500000 0.045494 0.552249
O O10 0.219559 0.013730 0.604664
O O11 0.218712 0.120483 0.534415
O O12 0.225085 0.000000 0.500000
O O13 0.500000 0.000986 0.669958
O O14 0.155705 0.987583 0.700774
O O15 0.283530 0.750000 0.000765
O O16 0.000000 0.825459 0.991661
#
# Coordination Sequence:
#
# PCOD9539594 Si02
#       6
#    16  16  16  16   8  16
#     4  10  21  41  68  95 123 158 204 259 320 383
#     4   9  18  33  54  78 107 150 205 254 298 351
#     4   9  17  30  48  72 107 154 205 247 293 360
#     4  11  23  37  56  86 120 159 205 254 309 372
#     4  12  21  34  52  78 118 156 187 246 305 358
#     4   8  14  27  47  69  94 134 193 255 301 342
#
# _framework density 24.029938999999999
#
# number of rings (size 3 to 8) (size 9 to 14) (size 15 to 20)
#    0.000    2.364    0.909    3.545    0.000    4.727 
#    0.000    5.909    0.000    0.000    0.000    0.000 
#    0.000    2.909    0.000    0.182    0.000    0.000 
#
# Total GULP energy -245023.783829 kJ/mol
# GULP energy per Si atom -5568.722360 kJ/mol
# Density = 2.397525 g / cm^3
# Si number density = 24.029939 Si / 1000 Ang^3
#
#
#
# Elastic Constant Matrix: (Units=GPa)
#
#
# Indices 1 2 3 4 5 6 
#
# 1 150.1063 42.5486 14.3264 0.0000 0.0000 0.0000
# 2 42.5486 100.9186 27.2921 0.0000 0.0000 0.0000
# 3 14.3264 27.2921 44.5747 0.0000 0.0000 0.0000
# 4 0.0000 0.0000 0.0000 -91.4642 0.0000 0.0000
# 5 0.0000 0.0000 0.0000 0.0000 59.5770 0.0000
# 6 0.0000 0.0000 0.0000 0.0000 0.0000 -9.7537
#
#
#
# Elastic Compliance Matrix: (Units=1/GPa)
#
#
# Indices 1 2 3 4 5 6 
#
# 1 0.007578 -0.003040 -0.000575 0.000000 0.000000 0.000000
# 2 -0.003040 0.013095 -0.007041 0.000000 0.000000 0.000000
# 3 -0.000575 -0.007041 0.026930 0.000000 0.000000 0.000000
# 4 0.000000 0.000000 0.000000 -0.010933 0.000000 0.000000
# 5 0.000000 0.000000 0.000000 0.000000 0.016785 0.000000
# 6 0.000000 0.000000 0.000000 0.000000 0.000000 -0.102526
#
#
# Mechanical properties :
#
#
# Convention : Reuss Voigt Hill
#
# Bulk Modulus (GPa) = 38.03293 51.54820 44.79057
# Shear Modulus (GPa) = -263.20062 5.76732 -128.71665
#
# Velocity S-wave (km/s) = -10.47703 1.55089 -7.32676
# Velocity P-wave (km/s) = 11.42347 4.97044 7.27291
#
# Compressibility (1/GPa) = 0.02629300
#
# Stress axis : x y z
#
# Youngs Moduli (GPa) = 131.95346 76.36716 37.13370
#
# Poissons Ratio (x) = 0.23214 0.02133
# Poissons Ratio (y) = 0.40111 0.26144
# Poissons Ratio (z) = 0.07581 0.53767
#
# Static dielectric constant tensor:
#      x y z
#    x 1.901940 0.000000 0.000000 
#    y 0.000000 1.949870 0.000000 
#    z 0.000000 0.000000 1.934000 
# 
# From -- ./inp_files/70218.got.cif
#   From: 2010.05.17/outbox.cif.g08.bks.cpg/sg74_36_cif.got.tgz:70218.got - 2010.06.03 17:57:02.
