data_PCOD9539249
_publ_section_title
;
Structure prediction by ZEFSAII (Michael W. Deem and Ramdas Pophale) SiO2 
 PCOD9539249
Probable space group: I M M A
;
_chemical_formula_sum "Si O2"
_cell_formula_units_Z 92
_cell_length_a 18.040930
_cell_length_b 20.159648
_cell_length_c 11.967955
_cell_angle_alpha 90.000000
_cell_angle_beta 90.000000
_cell_angle_gamma 90.000000
_cell_volume 4352.730853
_symmetry_space_group_name_H-M "I M M A"
_symmetry_group_IT_number 74
_symmetry_cell_setting 'orthorhombic'
loop_
_space_group_symop_operation_xyz
x,y,z
-x,1/2-y,z
x,-y,-z
-x,1/2+y,-z
-x,-y,-z
x,1/2+y,-z
-x,y,z
x,1/2-y,z
1/2+x,1/2+y,1/2+z
1/2-x,-y,1/2+z
1/2+x,1/2-y,1/2-z
1/2-x,y,1/2-z
1/2-x,1/2-y,1/2-z
1/2+x,y,1/2-z
1/2-x,1/2+y,1/2+z
1/2+x,-y,1/2+z
loop_
_atom_site_type_symbol
_atom_site_label
_atom_site_fract_x
_atom_site_fract_y
_atom_site_fract_z
Si Si1 0.363086 0.646025 0.472244
Si Si2 0.500000 0.250000 0.496973
Si Si3 0.793786 0.500000 0.500000
Si Si4 0.585117 0.940184 0.262546
Si Si5 0.753876 0.750000 0.383193
Si Si6 0.917699 0.750000 0.470840
Si Si7 0.582109 0.603610 0.009209
Si Si8 0.190181 0.550975 0.829531
O O1 0.433402 0.692725 0.498957
O O2 0.385303 0.604422 0.362905
O O3 0.289981 0.688011 0.437534
O O4 0.344077 0.598986 0.577416
O O5 0.848070 0.439223 0.475050
O O6 0.739419 0.495685 0.604908
O O7 0.500000 0.955747 0.284299
O O8 0.587971 0.901034 0.144819
O O9 0.629368 0.009157 0.262948
O O10 0.750000 0.750000 0.250000
O O11 0.841469 0.750000 0.404507
O O12 0.915466 0.679248 0.532047
O O13 0.000000 0.750000 0.412693
O O14 0.500000 0.576889 0.978933
O O15 0.250000 0.586214 0.750000
#
# Coordination Sequence:
#
# PCOD9539249 Si02
#       8
#    16   4   8  16   8   8  16  16
#     4  11  23  41  66  98 134 175 216 287 341 416
#     4  10  24  44  66  98 132 172 234 272 358 408
#     4  12  21  40  65  88 132 170 224 278 331 402
#     4  11  22  38  63  98 133 169 211 268 339 403
#     4  11  23  39  63  95 130 168 218 277 343 416
#     4  10  21  38  57  87 128 171 210 267 334 411
#     4  10  22  38  61  93 131 172 219 269 335 408
#     4  12  25  40  64  97 131 172 223 279 333 406
#
# _framework density 21.136157000000001
#
# number of rings (size 3 to 8) (size 9 to 14) (size 15 to 20)
#    0.000    1.043    4.348    2.348    1.217    2.087 
#    4.696    1.739    0.000    0.000    9.043    0.000 
#    0.000    0.000    0.000    0.000    0.000    0.000 
#
# Total GULP energy -256183.877341 kJ/mol
# GULP energy per Si atom -5569.214725 kJ/mol
# Density = 2.108805 g / cm^3
# Si number density = 21.136157 Si / 1000 Ang^3
#
#
#
# Elastic Constant Matrix: (Units=GPa)
#
#
# Indices 1 2 3 4 5 6 
#
# 1 158.9265 45.3989 15.2406 0.0000 0.0000 0.0000
# 2 45.3989 107.9250 8.4383 0.0000 0.0000 0.0000
# 3 15.2406 8.4383 45.7056 0.0000 0.0000 0.0000
# 4 0.0000 0.0000 0.0000 7.0906 0.0000 0.0000
# 5 0.0000 0.0000 0.0000 0.0000 24.0698 0.0000
# 6 0.0000 0.0000 0.0000 0.0000 0.0000 33.5218
#
#
#
# Elastic Compliance Matrix: (Units=1/GPa)
#
#
# Indices 1 2 3 4 5 6 
#
# 1 0.007310 -0.002927 -0.001897 0.000000 0.000000 0.000000
# 2 -0.002927 0.010573 -0.000976 0.000000 0.000000 0.000000
# 3 -0.001897 -0.000976 0.022692 0.000000 0.000000 0.000000
# 4 0.000000 0.000000 0.000000 0.141031 0.000000 0.000000
# 5 0.000000 0.000000 0.000000 0.000000 0.041546 0.000000
# 6 0.000000 0.000000 0.000000 0.000000 0.000000 0.029831
#
#
# Mechanical properties :
#
#
# Convention : Reuss Voigt Hill
#
# Bulk Modulus (GPa) = 34.51232 50.07920 42.29576
# Shear Modulus (GPa) = 18.23203 29.16840 23.70022
#
# Velocity S-wave (km/s) = 2.94019 3.71890 3.35223
# Velocity P-wave (km/s) = 5.28113 6.49502 5.91927
#
# Compressibility (1/GPa) = 0.02897516
#
# Stress axis : x y z
#
# Youngs Moduli (GPa) = 136.79504 94.57923 44.06837
#
# Poissons Ratio (x) = 0.27681 0.08361
# Poissons Ratio (y) = 0.40036 0.04302
# Poissons Ratio (z) = 0.25954 0.09232
#
# Static dielectric constant tensor:
#      x y z
#    x 1.763970 0.000000 0.000000 
#    y 0.000000 1.807960 0.000000 
#    z 0.000000 0.000000 1.763490 
# 
# From -- ./inp_files/32486.got.cif
#   From: 2010.05.17/outbox.cif.g08.bks.cpg/sg74_17_cif.got.tgz:32486.got - 2010.06.03 17:57:02.
