data_PCOD9539918
_publ_section_title
;
Structure prediction by ZEFSAII (Michael W. Deem and Ramdas Pophale) SiO2 
 PCOD9539918
Probable space group: I M M A
;
_chemical_formula_sum "Si O2"
_cell_formula_units_Z 96
_cell_length_a 14.060910
_cell_length_b 19.489408
_cell_length_c 14.585021
_cell_angle_alpha 90.000000
_cell_angle_beta 90.000000
_cell_angle_gamma 90.000000
_cell_volume 3996.861826
_symmetry_space_group_name_H-M "I M M A"
_symmetry_group_IT_number 74
_symmetry_cell_setting 'orthorhombic'
loop_
_space_group_symop_operation_xyz
x,y,z
-x,1/2-y,z
x,-y,-z
-x,1/2+y,-z
-x,-y,-z
x,1/2+y,-z
-x,y,z
x,1/2-y,z
1/2+x,1/2+y,1/2+z
1/2-x,-y,1/2+z
1/2+x,1/2-y,1/2-z
1/2-x,y,1/2-z
1/2-x,1/2-y,1/2-z
1/2+x,y,1/2-z
1/2-x,1/2+y,1/2+z
1/2+x,-y,1/2+z
loop_
_atom_site_type_symbol
_atom_site_label
_atom_site_fract_x
_atom_site_fract_y
_atom_site_fract_z
Si Si1 0.645115 0.750000 0.207663
Si Si2 0.609322 0.598360 0.182181
Si Si3 0.687010 0.041146 0.636841
Si Si4 0.192814 0.632630 0.979336
Si Si5 0.850526 0.612956 0.789392
Si Si6 0.897155 0.667215 0.598944
Si Si7 0.104872 0.250000 0.910885
O O1 0.750000 0.750000 0.250000
O O2 0.623107 0.678648 0.157384
O O3 0.591084 0.750000 0.303301
O O4 0.500000 0.577174 0.163750
O O5 0.631691 0.589923 0.290953
O O6 0.698308 0.554362 0.143044
O O7 0.664638 0.064236 0.533892
O O8 0.661248 0.965810 0.675791
O O9 0.133294 0.648288 0.887028
O O10 0.303852 0.636196 0.950225
O O11 0.167761 0.687813 0.054404
O O12 0.750000 0.637117 0.750000
O O13 0.906988 0.630683 0.698489
O O14 0.883455 0.750000 0.609285
O O15 0.000000 0.656773 0.551406
O O16 0.000000 0.250000 0.953539
#
# Coordination Sequence:
#
# PCOD9539918 Si02
#       7
#     8  16  16  16  16  16   8
#     4  12  20  40  62  90 130 170 223 275 329 388
#     4  11  22  37  62  91 127 176 224 270 325 397
#     4  11  22  42  62  94 134 176 221 275 331 413
#     4  11  23  40  66  94 135 174 217 280 346 403
#     4  10  22  41  66  92 125 174 222 272 336 401
#     4  10  23  44  71 104 136 174 230 290 349 417
#     4  12  24  38  60  95 131 173 222 275 337 408
#
# _framework density 24.018844000000001
#
# number of rings (size 3 to 8) (size 9 to 14) (size 15 to 20)
#    0.000    1.167    5.833    1.250    1.167    3.000 
#    0.000    0.000    0.000    6.000    0.000    0.000 
#    0.000    0.000    0.000    0.000    0.000    0.000 
#
# Total GULP energy -267538.906949 kJ/mol
# GULP energy per Si atom -5573.727228 kJ/mol
# Density = 2.396418 g / cm^3
# Si number density = 24.018844 Si / 1000 Ang^3
#
#
#
# Elastic Constant Matrix: (Units=GPa)
#
#
# Indices 1 2 3 4 5 6 
#
# 1 112.1464 -3.2290 -6.4076 0.0000 0.0000 -0.0001
# 2 -3.2290 71.6665 2.0576 0.0000 -0.0002 0.0002
# 3 -6.4076 2.0576 106.2834 0.0000 -0.0006 0.0005
# 4 0.0000 0.0000 0.0000 26.4194 -0.0003 0.0002
# 5 0.0000 -0.0002 -0.0006 -0.0003 -33.6237 0.0007
# 6 -0.0001 0.0002 0.0005 0.0002 0.0007 136.3452
#
#
#
# Elastic Compliance Matrix: (Units=1/GPa)
#
#
# Indices 1 2 3 4 5 6 
#
# 1 0.008959 0.000388 0.000533 0.000000 0.000000 0.000000
# 2 0.000388 0.013978 -0.000247 0.000000 0.000000 0.000000
# 3 0.000533 -0.000247 0.009446 0.000000 0.000000 0.000000
# 4 0.000000 0.000000 0.000000 0.037851 0.000000 0.000000
# 5 0.000000 0.000000 0.000000 0.000000 -0.029741 0.000000
# 6 0.000000 0.000000 0.000000 0.000000 0.000000 0.007334
#
#
# Mechanical properties :
#
#
# Convention : Reuss Voigt Hill
#
# Bulk Modulus (GPa) = 29.64739 30.54870 30.09805
# Shear Modulus (GPa) = 86.62139 45.67321 66.14730
#
# Velocity S-wave (km/s) = 6.01184 4.36542 5.25353
# Velocity P-wave (km/s) = 7.78202 6.17700 7.02550
#
# Compressibility (1/GPa) = 0.03372978
#
# Stress axis : x y z
#
# Youngs Moduli (GPa) = 111.62552 71.54042 105.86828
#
# Poissons Ratio (x) = -0.02778 -0.05638
# Poissons Ratio (y) = -0.04335 0.02617
# Poissons Ratio (z) = -0.05945 0.01768
#
# Static dielectric constant tensor:
#      x y z
#    x 2.069110 0.000000 0.000000 
#    y 0.000000 1.992930 0.000000 
#    z 0.000000 0.000000 1.950360 
# 
# From -- ./inp_files/32455.got.cif
#   From: 2010.05.17/outbox.cif.g08.bks.cpg/sg74_17_cif.got.tgz:32455.got - 2010.06.03 17:57:02.
