data_PCOD9539929
_publ_section_title
;
Structure prediction by ZEFSAII (Michael W. Deem and Ramdas Pophale) SiO2 
 PCOD9539929
Probable space group: I M M A
;
_chemical_formula_sum "Si O2"
_cell_formula_units_Z 52
_cell_length_a 14.028841
_cell_length_b 23.061491
_cell_length_c 8.631428
_cell_angle_alpha 90.000000
_cell_angle_beta 90.000000
_cell_angle_gamma 90.000000
_cell_volume 2792.491293
_symmetry_space_group_name_H-M "I M M A"
_symmetry_group_IT_number 74
_symmetry_cell_setting 'orthorhombic'
loop_
_space_group_symop_operation_xyz
x,y,z
-x,1/2-y,z
x,-y,-z
-x,1/2+y,-z
-x,-y,-z
x,1/2+y,-z
-x,y,z
x,1/2-y,z
1/2+x,1/2+y,1/2+z
1/2-x,-y,1/2+z
1/2+x,1/2-y,1/2-z
1/2-x,y,1/2-z
1/2-x,1/2-y,1/2-z
1/2+x,y,1/2-z
1/2-x,1/2+y,1/2+z
1/2+x,-y,1/2+z
loop_
_atom_site_type_symbol
_atom_site_label
_atom_site_fract_x
_atom_site_fract_y
_atom_site_fract_z
Si Si1 0.157578 0.535530 0.653041
Si Si2 0.500000 0.368108 0.181392
Si Si3 0.000000 0.531998 0.163468
Si Si4 0.000000 0.250000 0.509800
Si Si5 0.000000 0.339772 0.949621
Si Si6 0.361248 0.250000 0.705191
O O1 0.184825 0.500000 0.500000
O O2 0.250000 0.551678 0.750000
O O3 0.090769 0.592096 0.634607
O O4 0.091896 0.490502 0.746525
O O5 0.500000 0.307522 0.093021
O O6 0.500000 0.354365 0.366623
O O7 0.000000 0.599869 0.139606
O O8 0.000000 0.500000 0.000000
O O9 0.912025 0.250000 0.627998
O O10 0.906667 0.303737 0.892950
O O11 0.250000 0.250000 0.750000
#
# Coordination Sequence:
#
# PCOD9539929 Si02
#       6
#    16   8   8   4   8   8
#     4  11  25  39  64  98 132 168 218 259 326 381
#     4  11  23  45  66  91 129 172 217 262 316 378
#     4  11  20  41  64  93 129 171 205 271 315 381
#     4  10  24  44  66  92 126 168 220 266 314 374
#     4  10  22  41  68  88 129 169 211 261 323 381
#     4  10  25  43  65  97 123 166 216 266 332 370
#
# _framework density 18.621364
#
# number of rings (size 3 to 8) (size 9 to 14) (size 15 to 20)
#    0.000    1.538    3.077    3.692    8.615    3.692 
#    0.000    2.308    0.000    0.000    0.000    0.000 
#    0.000    0.000    0.000    0.000    0.000    0.000 
#
# Total GULP energy -145085.348518 kJ/mol
# GULP energy per Si atom -5580.205712 kJ/mol
# Density = 1.857898 g / cm^3
# Si number density = 18.621364 Si / 1000 Ang^3
#
#
#
# Elastic Constant Matrix: (Units=GPa)
#
#
# Indices 1 2 3 4 5 6 
#
# 1 140.1108 36.6392 19.0182 -0.0001 -0.0001 0.0000
# 2 36.6392 158.6561 29.1646 -0.0001 -0.0001 0.0000
# 3 19.0182 29.1646 73.2638 0.0001 0.0003 0.0000
# 4 -0.0001 -0.0001 0.0001 32.9817 0.0001 0.0000
# 5 -0.0001 -0.0001 0.0003 0.0001 -2.4117 0.0000
# 6 0.0000 0.0000 0.0000 0.0000 0.0000 0.3196
#
#
#
# Elastic Compliance Matrix: (Units=1/GPa)
#
#
# Indices 1 2 3 4 5 6 
#
# 1 0.007726 -0.001527 -0.001398 0.000000 0.000000 0.000000
# 2 -0.001527 0.007103 -0.002431 0.000000 0.000000 0.000000
# 3 -0.001398 -0.002431 0.014980 0.000000 0.000002 -0.000001
# 4 0.000000 0.000000 0.000000 0.030320 0.000001 0.000000
# 5 0.000000 0.000000 0.000002 0.000001 -0.414648 0.000043
# 6 0.000000 0.000000 -0.000001 0.000000 0.000043 3.128851
#
#
# Mechanical properties :
#
#
# Convention : Reuss Voigt Hill
#
# Bulk Modulus (GPa) = 52.36452 60.18608 56.27530
# Shear Modulus (GPa) = 1.79121 25.32517 13.55819
#
# Velocity S-wave (km/s) = 0.98183 3.69183 2.70126
# Velocity P-wave (km/s) = 5.42836 7.11083 6.32578
#
# Compressibility (1/GPa) = 0.01909690
#
# Stress axis : x y z
#
# Youngs Moduli (GPa) = 129.42758 140.79536 66.75669
#
# Poissons Ratio (x) = 0.21505 0.09330
# Poissons Ratio (y) = 0.19768 0.16228
# Poissons Ratio (z) = 0.18089 0.34225
#
# Static dielectric constant tensor:
#      x y z
#    x 1.655950 0.000000 0.000000 
#    y 0.000000 1.615570 0.000000 
#    z 0.000000 0.000000 1.465590 
# 
# From -- ./inp_files/8629.got.cif
#   From: 2010.05.17/outbox.cif.g08.bks.cpg/sg74_5_cif.got.tgz:8629.got - 2010.06.03 17:57:02.
