data_PCOD9539085
_publ_section_title
;
Structure prediction by ZEFSAII (Michael W. Deem and Ramdas Pophale) SiO2 
 PCOD9539085
Probable space group: I M M A
;
_chemical_formula_sum "Si O2"
_cell_formula_units_Z 100
_cell_length_a 24.646208
_cell_length_b 9.001073
_cell_length_c 24.881670
_cell_angle_alpha 90.000000
_cell_angle_beta 90.000000
_cell_angle_gamma 90.000000
_cell_volume 5519.807333
_symmetry_space_group_name_H-M "I M M A"
_symmetry_group_IT_number 74
_symmetry_cell_setting 'orthorhombic'
loop_
_space_group_symop_operation_xyz
x,y,z
-x,1/2-y,z
x,-y,-z
-x,1/2+y,-z
-x,-y,-z
x,1/2+y,-z
-x,y,z
x,1/2-y,z
1/2+x,1/2+y,1/2+z
1/2-x,-y,1/2+z
1/2+x,1/2-y,1/2-z
1/2-x,y,1/2-z
1/2-x,1/2-y,1/2-z
1/2+x,y,1/2-z
1/2-x,1/2+y,1/2+z
1/2+x,-y,1/2+z
loop_
_atom_site_type_symbol
_atom_site_label
_atom_site_fract_x
_atom_site_fract_y
_atom_site_fract_z
Si Si1 0.271012 0.427632 0.836905
Si Si2 0.872171 0.427484 0.278167
Si Si3 0.112881 0.086686 0.945862
Si Si4 0.562158 0.429022 0.871575
Si Si5 0.837442 0.573446 0.443322
Si Si6 0.653840 0.572816 0.660471
Si Si7 0.500000 0.750000 0.447020
O O1 0.268748 0.250000 0.828646
O O2 0.315867 0.498548 0.797734
O O3 0.293272 0.456949 0.897169
O O4 0.212937 0.501957 0.830783
O O5 0.869012 0.250000 0.285562
O O6 0.917969 0.495703 0.316552
O O7 0.879649 0.458380 0.215036
O O8 0.140373 0.250000 0.944330
O O9 0.048767 0.123487 0.946766
O O10 0.128189 0.997263 0.892684
O O11 0.127740 0.000000 0.000000
O O12 0.500000 0.465158 0.883982
O O13 0.567038 0.250000 0.865589
O O14 0.604817 0.475054 0.917630
O O15 0.826181 0.500000 0.500000
O O16 0.839825 0.750000 0.450692
O O17 0.658567 0.750000 0.654736
#
# Coordination Sequence:
#
# PCOD9539085 Si02
#       7
#    16  16  16  16  16  16   4
#     4  10  21  37  58  81 112 152 188 231 281 334
#     4  10  21  37  56  81 114 149 188 230 281 340
#     4  10  21  39  62  86 111 143 186 230 279 332
#     4   9  19  37  57  78 109 148 188 236 281 326
#     4   9  19  34  53  80 110 142 185 225 274 330
#     4  11  23  38  56  86 119 146 184 232 280 334
#     4   8  22  40  66  84 108 148 188 228 278 338
#
# _framework density 18.116572999999999
#
# number of rings (size 3 to 8) (size 9 to 14) (size 15 to 20)
#    0.480    1.760    0.000    3.600    0.000    8.960 
#    1.440    1.600    0.000    0.000    0.000    0.000 
#    0.000    0.000    0.000    0.000    0.000    0.000 
#
# Total GULP energy -278375.448439 kJ/mol
# GULP energy per Si atom -5567.508969 kJ/mol
# Density = 1.807534 g / cm^3
# Si number density = 18.116573 Si / 1000 Ang^3
#
#
#
# Elastic Constant Matrix: (Units=GPa)
#
#
# Indices 1 2 3 4 5 6 
#
# 1 9.6021 -2.2233 -13.3449 0.0000 0.0000 0.0000
# 2 -2.2233 46.9975 32.9338 0.0000 0.0000 0.0000
# 3 -13.3449 32.9338 105.3845 0.0000 0.0000 0.0000
# 4 0.0000 0.0000 0.0000 30.8627 0.0000 0.0000
# 5 0.0000 0.0000 0.0000 0.0000 1.3725 0.0000
# 6 0.0000 0.0000 0.0000 0.0000 0.0000 20.7416
#
#
#
# Elastic Compliance Matrix: (Units=1/GPa)
#
#
# Indices 1 2 3 4 5 6 
#
# 1 0.128058 -0.006793 0.018339 0.000000 0.000000 0.000000
# 2 -0.006793 0.027604 -0.009487 0.000000 0.000000 0.000000
# 3 0.018339 -0.009487 0.014776 0.000000 0.000000 0.000000
# 4 0.000000 0.000000 0.000000 0.032402 0.000000 0.000000
# 5 0.000000 0.000000 0.000000 0.000000 0.728591 0.000000
# 6 0.000000 0.000000 0.000000 0.000000 0.000000 0.048212
#
#
# Mechanical properties :
#
#
# Convention : Reuss Voigt Hill
#
# Bulk Modulus (GPa) = 5.72881 21.85725 13.79303
# Shear Modulus (GPa) = 4.83694 20.23661 12.53678
#
# Velocity S-wave (km/s) = 1.63576 3.34581 2.63345
# Velocity P-wave (km/s) = 2.59551 5.19778 4.10814
#
# Compressibility (1/GPa) = 0.17455626
#
# Stress axis : x y z
#
# Youngs Moduli (GPa) = 7.80897 36.22616 67.67696
#
# Poissons Ratio (x) = 0.24609 -1.24112
# Poissons Ratio (y) = 0.05305 0.64204
# Poissons Ratio (z) = -0.14321 0.34367
#
# Static dielectric constant tensor:
#      x y z
#    x 1.605700 0.000000 0.000000 
#    y 0.000000 1.618130 0.000000 
#    z 0.000000 0.000000 1.618650 
# 
# From -- ./inp_files/55279.got.cif
#   From: 2010.05.17/outbox.cif.g08.bks.cpg/sg74_28_cif.got.tgz:55279.got - 2010.06.03 17:57:02.
