data_PCOD9539747
_publ_section_title
;
Structure prediction by ZEFSAII (Michael W. Deem and Ramdas Pophale) SiO2 
 PCOD9539747
Probable space group: I M M A
;
_chemical_formula_sum "Si O2"
_cell_formula_units_Z 112
_cell_length_a 14.125196
_cell_length_b 27.607716
_cell_length_c 17.135950
_cell_angle_alpha 90.000000
_cell_angle_beta 90.000000
_cell_angle_gamma 90.000000
_cell_volume 6682.410454
_symmetry_space_group_name_H-M "I M M A"
_symmetry_group_IT_number 74
_symmetry_cell_setting 'orthorhombic'
loop_
_space_group_symop_operation_xyz
x,y,z
-x,1/2-y,z
x,-y,-z
-x,1/2+y,-z
-x,-y,-z
x,1/2+y,-z
-x,y,z
x,1/2-y,z
1/2+x,1/2+y,1/2+z
1/2-x,-y,1/2+z
1/2+x,1/2-y,1/2-z
1/2-x,y,1/2-z
1/2-x,1/2-y,1/2-z
1/2+x,y,1/2-z
1/2-x,1/2+y,1/2+z
1/2+x,-y,1/2+z
loop_
_atom_site_type_symbol
_atom_site_label
_atom_site_fract_x
_atom_site_fract_y
_atom_site_fract_z
Si Si1 0.777680 0.849231 0.366851
Si Si2 0.706352 0.807612 0.526460
Si Si3 0.611746 0.443055 0.905503
Si Si4 0.388837 0.306685 0.731203
Si Si5 0.500000 0.308801 0.423128
Si Si6 0.111286 0.446060 0.406772
Si Si7 0.000000 0.808077 0.740746
Si Si8 0.689469 0.852442 0.827904
O O1 0.760082 0.832422 0.454926
O O2 0.820691 0.903103 0.367534
O O3 0.678459 0.840006 0.322189
O O4 0.852625 0.816499 0.319012
O O5 0.706887 0.750000 0.514238
O O6 0.596812 0.824026 0.534687
O O7 0.757126 0.820874 0.607174
O O8 0.500000 0.434147 0.887593
O O9 0.634982 0.498617 0.884599
O O10 0.621261 0.440414 0.999694
O O11 0.500000 0.316672 0.722914
O O12 0.372485 0.250000 0.711185
O O13 0.500000 0.250000 0.422947
O O14 0.500000 0.323857 0.332040
O O15 0.170199 0.405229 0.363635
O O16 0.000000 0.439009 0.389202
O O17 0.908581 0.827817 0.696576
O O18 0.000000 0.750000 0.740380
O O19 0.750000 0.855784 0.750000
#
# Coordination Sequence:
#
# PCOD9539747 Si02
#       8
#    16  16  16  16   8  16   8  16
#     4  11  20  36  59  83 107 140 184 231 278 332
#     4  11  22  35  55  83 110 145 189 229 269 327
#     4   9  18  34  60  84 106 137 181 237 285 329
#     4  10  22  39  57  80 115 150 178 219 281 347
#     4   9  20  36  52  74 108 150 192 224 256 318
#     4   9  18  36  56  79 107 141 185 232 283 331
#     4  11  22  36  52  75 117 163 191 226 275 319
#     4  12  22  35  55  81 115 152 191 230 274 321
#
# _framework density 16.760418999999999
#
# number of rings (size 3 to 8) (size 9 to 14) (size 15 to 20)
#    0.000    1.714    3.571    3.429    1.000    0.571 
#    3.857    0.000    0.000    0.000    1.857    2.000 
#    0.000    0.000    0.000    0.000    0.000    0.000 
#
# Total GULP energy -312421.843603 kJ/mol
# GULP energy per Si atom -5578.961493 kJ/mol
# Density = 1.672227 g / cm^3
# Si number density = 16.760419 Si / 1000 Ang^3
#
#
#
# Elastic Constant Matrix: (Units=GPa)
#
#
# Indices 1 2 3 4 5 6 
#
# 1 91.8098 42.3455 6.3827 0.0000 0.0000 0.0000
# 2 42.3455 74.1499 6.7111 0.0002 0.0000 0.0000
# 3 6.3827 6.7111 37.9802 0.0002 0.0000 0.0000
# 4 0.0000 0.0002 0.0002 25.4247 0.0000 0.0000
# 5 0.0000 0.0000 0.0000 0.0000 21.1044 0.0000
# 6 0.0000 0.0000 0.0000 0.0000 0.0000 23.1854
#
#
#
# Elastic Compliance Matrix: (Units=1/GPa)
#
#
# Indices 1 2 3 4 5 6 
#
# 1 0.014825 -0.008375 -0.001012 0.000000 0.000000 0.000000
# 2 -0.008375 0.018436 -0.001850 0.000000 0.000000 0.000000
# 3 -0.001012 -0.001850 0.026826 0.000000 0.000000 0.000000
# 4 0.000000 0.000000 0.000000 0.039332 0.000000 0.000000
# 5 0.000000 0.000000 0.000000 0.000000 0.047383 0.000000
# 6 0.000000 0.000000 0.000000 0.000000 0.000000 0.043131
#
#
# Mechanical properties :
#
#
# Convention : Reuss Voigt Hill
#
# Bulk Modulus (GPa) = 26.58541 34.97982 30.78261
# Shear Modulus (GPa) = 22.22763 23.84294 23.03529
#
# Velocity S-wave (km/s) = 3.64565 3.77579 3.71129
# Velocity P-wave (km/s) = 5.79806 6.31859 6.06391
#
# Compressibility (1/GPa) = 0.03761462
#
# Stress axis : x y z
#
# Youngs Moduli (GPa) = 67.45317 54.24081 37.27662
#
# Poissons Ratio (x) = 0.45425 0.03771
# Poissons Ratio (y) = 0.56490 0.06897
# Poissons Ratio (z) = 0.06824 0.10036
#
# Static dielectric constant tensor:
#      x y z
#    x 1.561960 0.000000 0.000000 
#    y 0.000000 1.546160 0.000000 
#    z 0.000000 0.000000 1.566360 
# 
# From -- ./inp_files/33015.got.cif
#   From: 2010.05.17/outbox.cif.g08.bks.cpg/sg74_17_cif.got.tgz:33015.got - 2010.06.03 17:57:02.
