data_PCOD9539904
_publ_section_title
;
Structure prediction by ZEFSAII (Michael W. Deem and Ramdas Pophale) SiO2 
 PCOD9539904
Probable space group: I M M A
;
_chemical_formula_sum "Si O2"
_cell_formula_units_Z 88
_cell_length_a 23.048939
_cell_length_b 15.948289
_cell_length_c 12.896281
_cell_angle_alpha 90.000000
_cell_angle_beta 90.000000
_cell_angle_gamma 90.000000
_cell_volume 4740.558639
_symmetry_space_group_name_H-M "I M M A"
_symmetry_group_IT_number 74
_symmetry_cell_setting 'orthorhombic'
loop_
_space_group_symop_operation_xyz
x,y,z
-x,1/2-y,z
x,-y,-z
-x,1/2+y,-z
-x,-y,-z
x,1/2+y,-z
-x,y,z
x,1/2-y,z
1/2+x,1/2+y,1/2+z
1/2-x,-y,1/2+z
1/2+x,1/2-y,1/2-z
1/2-x,y,1/2-z
1/2-x,1/2-y,1/2-z
1/2+x,y,1/2-z
1/2-x,1/2+y,1/2+z
1/2+x,-y,1/2+z
loop_
_atom_site_type_symbol
_atom_site_label
_atom_site_fract_x
_atom_site_fract_y
_atom_site_fract_z
Si Si1 0.000000 0.850846 0.200651
Si Si2 0.186848 0.377582 0.709386
Si Si3 0.786497 0.937720 0.661339
Si Si4 0.381830 0.155389 0.591237
Si Si5 0.500000 0.411114 0.939351
Si Si6 0.372669 0.154972 0.007624
Si Si7 0.190111 0.500000 0.000000
O O1 0.946490 0.868093 0.124180
O O2 0.000000 0.900108 0.312087
O O3 0.000000 0.750000 0.226574
O O4 0.250000 0.352992 0.750000
O O5 0.185320 0.478662 0.710007
O O6 0.145562 0.340746 0.794764
O O7 0.167214 0.351146 0.595516
O O8 0.750000 0.889016 0.750000
O O9 0.837251 0.895328 0.595153
O O10 0.735254 0.970744 0.587417
O O11 0.378576 0.250000 0.544598
O O12 0.348397 0.080851 0.531678
O O13 0.500000 0.500000 0.000000
O O14 0.561967 0.372633 0.976825
O O15 0.376151 0.250000 0.042777
#
# Coordination Sequence:
#
# PCOD9539904 Si02
#       7
#     8  16  16  16   8  16   8
#     4  10  22  41  63  94 127 156 206 269 319 364
#     4  11  19  36  61  88 122 158 204 258 312 365
#     4  11  22  40  59  86 126 166 206 254 314 371
#     4  11  23  39  64  94 125 163 208 268 322 371
#     4  12  24  38  65  90 125 164 208 260 322 377
#     4  12  24  38  60  91 127 164 208 256 315 380
#     4  12  22  39  64  91 128 160 214 262 308 394
#
# _framework density 18.563213000000001
#
# number of rings (size 3 to 8) (size 9 to 14) (size 15 to 20)
#    0.000    0.727    7.273    2.455    0.000    4.364 
#    0.000    0.000    0.000    0.000    0.000    2.545 
#    0.000    0.000    0.000    0.000    0.000    0.000 
#
# Total GULP energy -245070.744251 kJ/mol
# GULP energy per Si atom -5569.789642 kJ/mol
# Density = 1.852096 g / cm^3
# Si number density = 18.563213 Si / 1000 Ang^3
#
#
#
# Elastic Constant Matrix: (Units=GPa)
#
#
# Indices 1 2 3 4 5 6 
#
# 1 134.3855 40.0342 21.4952 0.0000 0.0000 0.0000
# 2 40.0342 107.9655 27.0915 0.0000 0.0000 0.0000
# 3 21.4952 27.0915 57.9673 0.0000 0.0000 0.0000
# 4 0.0000 0.0000 0.0000 28.4481 0.0000 0.0000
# 5 0.0000 0.0000 0.0000 0.0000 22.6998 0.0000
# 6 0.0000 0.0000 0.0000 0.0000 0.0000 30.9160
#
#
#
# Elastic Compliance Matrix: (Units=1/GPa)
#
#
# Indices 1 2 3 4 5 6 
#
# 1 0.008549 -0.002690 -0.001913 0.000000 0.000000 0.000000
# 2 -0.002690 0.011339 -0.004302 0.000000 0.000000 0.000000
# 3 -0.001913 -0.004302 0.019971 0.000000 0.000000 0.000000
# 4 0.000000 0.000000 0.000000 0.035152 0.000000 0.000000
# 5 0.000000 0.000000 0.000000 0.000000 0.044053 0.000000
# 6 0.000000 0.000000 0.000000 0.000000 0.000000 0.032346
#
#
# Mechanical properties :
#
#
# Convention : Reuss Voigt Hill
#
# Bulk Modulus (GPa) = 45.35284 53.06222 49.20753
# Shear Modulus (GPa) = 28.31765 30.52597 29.42181
#
# Velocity S-wave (km/s) = 3.90997 4.05956 3.98547
# Velocity P-wave (km/s) = 6.69839 7.11478 6.90972
#
# Compressibility (1/GPa) = 0.02204933
#
# Stress axis : x y z
#
# Youngs Moduli (GPa) = 116.97872 88.19028 50.07265
#
# Poissons Ratio (x) = 0.23722 0.09578
# Poissons Ratio (y) = 0.31466 0.21541
# Poissons Ratio (z) = 0.22376 0.37939
#
# Static dielectric constant tensor:
#      x y z
#    x 1.558620 0.000000 0.000000 
#    y 0.000000 1.694540 0.000000 
#    z 0.000000 0.000000 1.653360 
# 
# From -- ./inp_files/25025.got.cif
#   From: 2010.05.17/outbox.cif.g08.bks.cpg/sg74_13_cif.got.tgz:25025.got - 2010.06.03 17:57:02.
