data_PCOD9539153
_publ_section_title
;
Structure prediction by ZEFSAII (Michael W. Deem and Ramdas Pophale) SiO2 
 PCOD9539153
Probable space group: I M M A
;
_chemical_formula_sum "Si O2"
_cell_formula_units_Z 88
_cell_length_a 26.904426
_cell_length_b 13.320200
_cell_length_c 10.534428
_cell_angle_alpha 90.000000
_cell_angle_beta 90.000000
_cell_angle_gamma 90.000000
_cell_volume 3775.247562
_symmetry_space_group_name_H-M "I M M A"
_symmetry_group_IT_number 74
_symmetry_cell_setting 'orthorhombic'
loop_
_space_group_symop_operation_xyz
x,y,z
-x,1/2-y,z
x,-y,-z
-x,1/2+y,-z
-x,-y,-z
x,1/2+y,-z
-x,y,z
x,1/2-y,z
1/2+x,1/2+y,1/2+z
1/2-x,-y,1/2+z
1/2+x,1/2-y,1/2-z
1/2-x,y,1/2-z
1/2-x,1/2-y,1/2-z
1/2+x,y,1/2-z
1/2-x,1/2+y,1/2+z
1/2+x,-y,1/2+z
loop_
_atom_site_type_symbol
_atom_site_label
_atom_site_fract_x
_atom_site_fract_y
_atom_site_fract_z
Si Si1 0.055083 0.629117 0.591194
Si Si2 0.274943 0.640271 0.613245
Si Si3 0.943556 0.871717 0.089713
Si Si4 0.116907 0.371456 0.657720
Si Si5 0.693568 0.000000 0.000000
Si Si6 0.615301 0.127653 0.337897
O O1 0.052164 0.750000 0.601898
O O2 0.074723 0.610827 0.449823
O O3 0.093268 0.598804 0.701259
O O4 0.000000 0.588372 0.613168
O O5 0.283143 0.750000 0.554733
O O6 0.250000 0.650561 0.750000
O O7 0.231956 0.584358 0.541599
O O8 0.329114 0.591221 0.630239
O O9 0.946259 0.750000 0.090065
O O10 0.905366 0.894781 0.203695
O O11 0.000000 0.908422 0.110800
O O12 0.922124 0.898812 0.951376
O O13 0.129008 0.250000 0.653483
O O14 0.160777 0.443114 0.606716
O O15 0.619120 0.250000 0.333847
#
# Coordination Sequence:
#
# PCOD9539153 Si02
#       6
#    16  16  16  16   8  16
#     4   9  16  30  56  87 117 152 195 241 290 352
#     4  10  22  41  63  88 120 159 205 258 310 358
#     4   9  17  32  55  84 120 156 186 228 294 363
#     4  10  21  37  58  87 121 155 194 241 295 357
#     4  12  24  38  61  86 113 156 208 254 300 354
#     4   9  17  31  55  86 116 149 194 243 291 352
#
# _framework density 23.309729000000001
#
# number of rings (size 3 to 8) (size 9 to 14) (size 15 to 20)
#    0.000    2.364    0.000    2.727    0.000    8.727 
#    0.000    1.818    0.000    5.455    0.000    5.091 
#    0.000    0.000    0.000    0.000    0.000    0.364 
#
# Total GULP energy -245931.741670 kJ/mol
# GULP energy per Si atom -5589.357765 kJ/mol
# Density = 2.325668 g / cm^3
# Si number density = 23.309729 Si / 1000 Ang^3
#
#
#
# Elastic Constant Matrix: (Units=GPa)
#
#
# Indices 1 2 3 4 5 6 
#
# 1 178.1985 21.1480 62.7744 0.0000 0.0000 0.0000
# 2 21.1480 63.9563 12.3816 0.0000 0.0000 0.0000
# 3 62.7744 12.3816 136.8712 0.0000 0.0000 0.0000
# 4 0.0000 0.0000 0.0000 29.1131 0.0000 0.0000
# 5 0.0000 0.0000 0.0000 0.0000 62.8817 0.0000
# 6 0.0000 0.0000 0.0000 0.0000 0.0000 27.0805
#
#
#
# Elastic Compliance Matrix: (Units=1/GPa)
#
#
# Indices 1 2 3 4 5 6 
#
# 1 0.006868 -0.001691 -0.002997 0.000000 0.000000 0.000000
# 2 -0.001691 0.016331 -0.000702 0.000000 0.000000 0.000000
# 3 -0.002997 -0.000702 0.008744 0.000000 0.000000 0.000000
# 4 0.000000 0.000000 0.000000 0.034349 0.000000 0.000000
# 5 0.000000 0.000000 0.000000 0.000000 0.015903 0.000000
# 6 0.000000 0.000000 0.000000 0.000000 0.000000 0.036927
#
#
# Mechanical properties :
#
#
# Convention : Reuss Voigt Hill
#
# Bulk Modulus (GPa) = 47.25093 63.51487 55.38290
# Shear Modulus (GPa) = 36.50819 42.66318 39.58569
#
# Velocity S-wave (km/s) = 3.96184 4.28281 4.12545
# Velocity P-wave (km/s) = 6.42209 7.19472 6.81935
#
# Compressibility (1/GPa) = 0.02116360
#
# Stress axis : x y z
#
# Youngs Moduli (GPa) = 145.59948 61.23457 114.36169
#
# Poissons Ratio (x) = 0.10354 0.34275
# Poissons Ratio (y) = 0.24619 0.08026
# Poissons Ratio (z) = 0.43637 0.04298
#
# Static dielectric constant tensor:
#      x y z
#    x 1.824870 0.000000 0.000000 
#    y 0.000000 3.142370 0.000000 
#    z 0.000000 0.000000 1.802600 
# 
# From -- ./inp_files/24972.got.cif
#   From: 2010.05.17/outbox.cif.g08.bks.cpg/sg74_13_cif.got.tgz:24972.got - 2010.06.03 17:57:02.
