data_PCOD9539003
_publ_section_title
;
Structure prediction by ZEFSAII (Michael W. Deem and Ramdas Pophale) SiO2 
 PCOD9539003
Probable space group: I M M A
;
_chemical_formula_sum "Si O2"
_cell_formula_units_Z 104
_cell_length_a 9.151811
_cell_length_b 24.925907
_cell_length_c 20.822847
_cell_angle_alpha 90.000000
_cell_angle_beta 90.000000
_cell_angle_gamma 90.000000
_cell_volume 4750.049343
_symmetry_space_group_name_H-M "I M M A"
_symmetry_group_IT_number 74
_symmetry_cell_setting 'orthorhombic'
loop_
_space_group_symop_operation_xyz
x,y,z
-x,1/2-y,z
x,-y,-z
-x,1/2+y,-z
-x,-y,-z
x,1/2+y,-z
-x,y,z
x,1/2-y,z
1/2+x,1/2+y,1/2+z
1/2-x,-y,1/2+z
1/2+x,1/2-y,1/2-z
1/2-x,y,1/2-z
1/2-x,1/2-y,1/2-z
1/2+x,y,1/2-z
1/2-x,1/2+y,1/2+z
1/2+x,-y,1/2+z
loop_
_atom_site_type_symbol
_atom_site_label
_atom_site_fract_x
_atom_site_fract_y
_atom_site_fract_z
Si Si1 0.661849 0.334398 0.017459
Si Si2 0.211384 0.811554 0.664653
Si Si3 0.669338 0.689476 0.398784
Si Si4 0.170435 0.543611 0.553327
Si Si5 0.000000 0.657724 0.769326
Si Si6 0.675823 0.397584 0.816343
Si Si7 0.322322 0.985916 0.681723
O O1 0.500000 0.319585 0.992667
O O2 0.672164 0.316443 0.090809
O O3 0.674012 0.398702 0.019949
O O4 0.788065 0.311137 0.973465
O O5 0.178039 0.750000 0.685188
O O6 0.120786 0.848516 0.711885
O O7 0.375071 0.826745 0.678525
O O8 0.500000 0.674247 0.388727
O O9 0.690105 0.750000 0.373722
O O10 0.777801 0.646545 0.367655
O O11 0.217629 0.500000 0.500000
O O12 0.266453 0.544483 0.618156
O O13 0.000000 0.531725 0.570662
O O14 0.500000 0.404669 0.811868
O O15 0.750000 0.378851 0.750000
O O16 0.757398 0.454109 0.829289
O O17 0.500000 0.983799 0.687022
O O18 0.250000 0.968834 0.750000
#
# Coordination Sequence:
#
# PCOD9539003 Si02
#       7
#    16  16  16  16   8  16  16
#     4  11  24  40  60  90 120 162 208 257 317 367
#     4  11  20  36  57  83 115 154 203 249 300 360
#     4  11  25  43  63  92 130 168 209 258 307 364
#     4  10  22  42  64  88 120 160 207 259 314 373
#     4  10  21  36  58  82 112 156 202 250 300 356
#     4  11  22  40  69  99 129 165 204 249 306 373
#     4  11  22  40  66  96 129 165 207 257 312 373
#
# _framework density 21.89451
#
# number of rings (size 3 to 8) (size 9 to 14) (size 15 to 20)
#    0.000    1.231    0.769    7.385    1.077    4.308 
#    2.769    0.000    0.000    0.000    0.000    0.000 
#    0.000    0.000    0.000    0.000    0.000    0.000 
#
# Total GULP energy -289596.792933 kJ/mol
# GULP energy per Si atom -5569.169095 kJ/mol
# Density = 2.184468 g / cm^3
# Si number density = 21.894510 Si / 1000 Ang^3
#
#
#
# Elastic Constant Matrix: (Units=GPa)
#
#
# Indices 1 2 3 4 5 6 
#
# 1 183.9364 13.4029 17.8113 0.0000 0.0000 0.0000
# 2 13.4029 60.1585 15.4295 0.0000 0.0000 0.0000
# 3 17.8113 15.4295 55.4223 0.0000 0.0000 0.0000
# 4 0.0000 0.0000 0.0000 10.5761 0.0000 0.0000
# 5 0.0000 0.0000 0.0000 0.0000 41.3547 0.0000
# 6 0.0000 0.0000 0.0000 0.0000 0.0000 24.8125
#
#
#
# Elastic Compliance Matrix: (Units=1/GPa)
#
#
# Indices 1 2 3 4 5 6 
#
# 1 0.005652 -0.000854 -0.001578 0.000000 0.000000 0.000000
# 2 -0.000854 0.018030 -0.004745 0.000000 0.000000 0.000000
# 3 -0.001578 -0.004745 0.019872 0.000000 0.000000 0.000000
# 4 0.000000 0.000000 0.000000 0.094553 0.000000 0.000000
# 5 0.000000 0.000000 0.000000 0.000000 0.024181 0.000000
# 6 0.000000 0.000000 0.000000 0.000000 0.000000 0.040302
#
#
# Mechanical properties :
#
#
# Convention : Reuss Voigt Hill
#
# Bulk Modulus (GPa) = 34.24915 43.64496 38.94706
# Shear Modulus (GPa) = 22.05776 32.20690 27.13233
#
# Velocity S-wave (km/s) = 3.17749 3.83953 3.52409
# Velocity P-wave (km/s) = 5.39803 6.29551 5.86396
#
# Compressibility (1/GPa) = 0.02919780
#
# Stress axis : x y z
#
# Youngs Moduli (GPa) = 176.93586 55.46286 50.32316
#
# Poissons Ratio (x) = 0.04738 0.07943
# Poissons Ratio (y) = 0.15116 0.23878
# Poissons Ratio (z) = 0.27929 0.26317
#
# Static dielectric constant tensor:
#      x y z
#    x 1.788170 0.000000 0.000000 
#    y 0.000000 1.890850 0.000000 
#    z 0.000000 0.000000 1.824480 
# 
# From -- ./inp_files/49321.got.cif
#   From: 2010.05.17/outbox.cif.g08.bks.cpg/sg74_25_cif.got.tgz:49321.got - 2010.06.03 17:57:02.
