data_PCOD9539262
_publ_section_title
;
Structure prediction by ZEFSAII (Michael W. Deem and Ramdas Pophale) SiO2 
 PCOD9539262
Probable space group: I M M A
;
_chemical_formula_sum "Si O2"
_cell_formula_units_Z 80
_cell_length_a 19.812217
_cell_length_b 11.528989
_cell_length_c 20.696089
_cell_angle_alpha 90.000000
_cell_angle_beta 90.000000
_cell_angle_gamma 90.000000
_cell_volume 4727.293689
_symmetry_space_group_name_H-M "I M M A"
_symmetry_group_IT_number 74
_symmetry_cell_setting 'orthorhombic'
loop_
_space_group_symop_operation_xyz
x,y,z
-x,1/2-y,z
x,-y,-z
-x,1/2+y,-z
-x,-y,-z
x,1/2+y,-z
-x,y,z
x,1/2-y,z
1/2+x,1/2+y,1/2+z
1/2-x,-y,1/2+z
1/2+x,1/2-y,1/2-z
1/2-x,y,1/2-z
1/2-x,1/2-y,1/2-z
1/2+x,y,1/2-z
1/2-x,1/2+y,1/2+z
1/2+x,-y,1/2+z
loop_
_atom_site_type_symbol
_atom_site_label
_atom_site_fract_x
_atom_site_fract_y
_atom_site_fract_z
Si Si1 0.078131 0.612331 0.627091
Si Si2 0.706017 0.506440 0.074287
Si Si3 0.139089 0.250000 0.771216
Si Si4 0.710016 0.111999 0.314349
Si Si5 0.423025 0.501985 0.729617
Si Si6 0.229991 0.750000 0.357537
O O1 0.094269 0.750000 0.630572
O O2 0.130653 0.544686 0.582503
O O3 0.084069 0.556240 0.698457
O O4 0.000000 0.600996 0.606755
O O5 0.751273 0.429958 0.122534
O O6 0.713413 0.636190 0.101302
O O7 0.726724 0.500000 0.000000
O O8 0.094733 0.366073 0.770822
O O9 0.183121 0.250000 0.705874
O O10 0.193241 0.250000 0.830084
O O11 0.709090 0.250000 0.311103
O O12 0.750000 0.067760 0.250000
O O13 0.634617 0.063429 0.312006
O O14 0.500000 0.521770 0.708769
#
# Coordination Sequence:
#
# PCOD9539262 Si02
#       6
#    16  16   8  16  16   8
#     4  10  21  38  58  83 119 158 197 240 283 335
#     4  12  25  39  60  87 119 156 200 239 287 348
#     4  11  19  38  60  86 124 152 190 236 294 352
#     4  11  21  38  62  88 116 150 196 248 293 340
#     4  11  21  35  59  91 119 150 193 241 296 348
#     4  11  22  38  60  88 119 154 188 246 289 335
#
# _framework density 16.923002
#
# number of rings (size 3 to 8) (size 9 to 14) (size 15 to 20)
#    0.000    1.000    6.000    1.500    2.800    1.600 
#    0.000    0.500    0.000    0.600    0.000    0.000 
#    0.000    0.000    0.000    0.000    0.000    0.000 
#
# Total GULP energy -223434.012680 kJ/mol
# GULP energy per Si atom -5585.850317 kJ/mol
# Density = 1.688448 g / cm^3
# Si number density = 16.923002 Si / 1000 Ang^3
#
#
#
# Elastic Constant Matrix: (Units=GPa)
#
#
# Indices 1 2 3 4 5 6 
#
# 1 109.9045 38.3271 45.7315 0.0000 0.0000 0.0000
# 2 38.3271 113.3666 36.3252 0.0000 0.0000 0.0000
# 3 45.7315 36.3252 97.1411 0.0000 0.0000 0.0000
# 4 0.0000 0.0000 0.0000 -8.0313 0.0000 0.0000
# 5 0.0000 0.0000 0.0000 0.0000 18.2818 0.0000
# 6 0.0000 0.0000 0.0000 0.0000 0.0000 31.7097
#
#
#
# Elastic Compliance Matrix: (Units=1/GPa)
#
#
# Indices 1 2 3 4 5 6 
#
# 1 0.011925 -0.002537 -0.004665 0.000000 0.000000 0.000000
# 2 -0.002537 0.010561 -0.002755 0.000000 0.000000 0.000000
# 3 -0.004665 -0.002755 0.013521 0.000000 0.000000 0.000000
# 4 0.000000 0.000000 0.000000 -0.124514 0.000000 0.000000
# 5 0.000000 0.000000 0.000000 0.000000 0.054699 0.000000
# 6 0.000000 0.000000 0.000000 0.000000 0.000000 0.031536
#
#
# Mechanical properties :
#
#
# Convention : Reuss Voigt Hill
#
# Bulk Modulus (GPa) = 62.13983 62.35333 62.24658
# Shear Modulus (GPa) = 217.32624 21.72728 119.52676
#
# Velocity S-wave (km/s) = 11.34458 3.58703 8.41327
# Velocity P-wave (km/s) = 14.43600 7.35398 11.45598
#
# Compressibility (1/GPa) = 0.01609274
#
# Stress axis : x y z
#
# Youngs Moduli (GPa) = 83.86000 94.68496 73.95979
#
# Poissons Ratio (x) = 0.24018 0.34504
# Poissons Ratio (y) = 0.21272 0.20377
# Poissons Ratio (z) = 0.39123 0.26087
#
# Static dielectric constant tensor:
#      x y z
#    x 1.579660 0.000000 0.000000 
#    y 0.000000 1.576860 0.000000 
#    z 0.000000 0.000000 1.546080 
# 
# From -- ./inp_files/41209.got.cif
#   From: 2010.05.17/outbox.cif.g08.bks.cpg/sg74_21_cif.got.tgz:41209.got - 2010.06.03 17:57:02.
