data_PCOD9539701
_publ_section_title
;
Structure prediction by ZEFSAII (Michael W. Deem and Ramdas Pophale) SiO2 
 PCOD9539701
Probable space group: I M M A
;
_chemical_formula_sum "Si O2"
_cell_formula_units_Z 80
_cell_length_a 10.068172
_cell_length_b 30.569256
_cell_length_c 16.121705
_cell_angle_alpha 90.000000
_cell_angle_beta 90.000000
_cell_angle_gamma 90.000000
_cell_volume 4961.882379
_symmetry_space_group_name_H-M "I M M A"
_symmetry_group_IT_number 74
_symmetry_cell_setting 'orthorhombic'
loop_
_space_group_symop_operation_xyz
x,y,z
-x,1/2-y,z
x,-y,-z
-x,1/2+y,-z
-x,-y,-z
x,1/2+y,-z
-x,y,z
x,1/2-y,z
1/2+x,1/2+y,1/2+z
1/2-x,-y,1/2+z
1/2+x,1/2-y,1/2-z
1/2-x,y,1/2-z
1/2-x,1/2-y,1/2-z
1/2+x,y,1/2-z
1/2-x,1/2+y,1/2+z
1/2+x,-y,1/2+z
loop_
_atom_site_type_symbol
_atom_site_label
_atom_site_fract_x
_atom_site_fract_y
_atom_site_fract_z
Si Si1 0.223455 0.533815 0.164909
Si Si2 0.500000 0.588741 0.898268
Si Si3 0.228908 0.344279 0.349634
Si Si4 0.000000 0.383786 0.109094
Si Si5 0.500000 0.535597 0.731434
Si Si6 0.848926 0.750000 0.672591
Si Si7 0.500000 0.461810 0.934351
Si Si8 0.500000 0.548933 0.460810
O O1 0.250000 0.559229 0.250000
O O2 0.369189 0.492073 0.300804
O O3 0.366796 0.532450 0.120402
O O4 0.127639 0.553752 0.096710
O O5 0.372189 0.618047 0.876715
O O6 0.500000 0.548985 0.829317
O O7 0.500000 0.577535 0.996931
O O8 0.250000 0.346097 0.250000
O O9 0.370533 0.354379 0.388283
O O10 0.176523 0.296034 0.372282
O O11 0.000000 0.417524 0.186515
O O12 0.000000 0.416017 0.032053
O O13 0.750000 0.750000 0.750000
O O14 0.000000 0.750000 0.703005
O O15 0.500000 0.500000 0.000000
O O16 0.500000 0.500000 0.500000
#
# Coordination Sequence:
#
# PCOD9539701 Si02
#       8
#    16   8  16   8   8   8   8   8
#     4  11  23  39  52  70  96 148 184 229 276 328
#     4  12  23  38  55  83 106 139 186 245 265 306
#     4  11  22  36  56  78 110 144 185 224 266 316
#     4  12  23  36  54  79 104 145 185 230 266 314
#     4  11  24  36  52  66 109 143 185 224 271 306
#     4  10  22  38  56  76 110 148 183 220 268 322
#     4  12  25  33  53  78 103 130 185 238 278 304
#     4  11  21  38  55  70 109 143 181 230 286 316
#
# _framework density 16.122914000000002
#
# number of rings (size 3 to 8) (size 9 to 14) (size 15 to 20)
#    0.000    0.800    5.000    4.200    9.800    0.000 
#    0.000    0.000    0.000    0.000    0.000    0.000 
#    0.000    0.000    0.000   63.000    0.000    0.000 
#
# Total GULP energy -222841.512023 kJ/mol
# GULP energy per Si atom -5571.037801 kJ/mol
# Density = 1.608622 g / cm^3
# Si number density = 16.122914 Si / 1000 Ang^3
#
#
#
# Elastic Constant Matrix: (Units=GPa)
#
#
# Indices 1 2 3 4 5 6 
#
# 1 170.5842 43.0012 52.6167 0.0000 0.0000 0.0000
# 2 43.0012 73.9650 29.1945 0.0000 0.0000 0.0000
# 3 52.6167 29.1945 111.7710 0.0001 0.0000 0.0000
# 4 0.0000 0.0000 0.0001 10.6481 0.0000 0.0000
# 5 0.0000 0.0000 0.0000 0.0000 42.4042 0.0000
# 6 0.0000 0.0000 0.0000 0.0000 0.0000 14.3620
#
#
#
# Elastic Compliance Matrix: (Units=1/GPa)
#
#
# Indices 1 2 3 4 5 6 
#
# 1 0.007524 -0.003318 -0.002675 0.000000 0.000000 0.000000
# 2 -0.003318 0.016537 -0.002757 0.000000 0.000000 0.000000
# 3 -0.002675 -0.002757 0.010926 0.000000 0.000000 0.000000
# 4 0.000000 0.000000 0.000000 0.093914 0.000000 0.000000
# 5 0.000000 0.000000 0.000000 0.000000 0.023583 0.000000
# 6 0.000000 0.000000 0.000000 0.000000 0.000000 0.069628
#
#
# Mechanical properties :
#
#
# Convention : Reuss Voigt Hill
#
# Bulk Modulus (GPa) = 57.18874 67.32722 62.25798
# Shear Modulus (GPa) = 20.37135 28.91670 24.64402
#
# Velocity S-wave (km/s) = 3.55843 4.23959 3.91386
# Velocity P-wave (km/s) = 7.24091 8.11263 7.68913
#
# Compressibility (1/GPa) = 0.01748596
#
# Stress axis : x y z
#
# Youngs Moduli (GPa) = 132.91103 60.46880 91.52091
#
# Poissons Ratio (x) = 0.20065 0.24483
# Poissons Ratio (y) = 0.44103 0.25237
# Poissons Ratio (z) = 0.35556 0.16674
#
# Static dielectric constant tensor:
#      x y z
#    x 1.623040 0.000000 0.000000 
#    y 0.000000 1.568720 0.000000 
#    z 0.000000 0.000000 1.578470 
# 
# From -- ./inp_files/40055.got.cif
#   From: 2010.05.17/outbox.cif.g08.bks.cpg/sg74_21_cif.got.tgz:40055.got - 2010.06.03 17:57:02.
