data_PCOD9539856
_publ_section_title
;
Structure prediction by ZEFSAII (Michael W. Deem and Ramdas Pophale) SiO2 
 PCOD9539856
Probable space group: I M M A
;
_chemical_formula_sum "Si O2"
_cell_formula_units_Z 68
_cell_length_a 17.438057
_cell_length_b 9.825798
_cell_length_c 20.109535
_cell_angle_alpha 90.000000
_cell_angle_beta 90.000000
_cell_angle_gamma 90.000000
_cell_volume 3445.624548
_symmetry_space_group_name_H-M "I M M A"
_symmetry_group_IT_number 74
_symmetry_cell_setting 'orthorhombic'
loop_
_space_group_symop_operation_xyz
x,y,z
-x,1/2-y,z
x,-y,-z
-x,1/2+y,-z
-x,-y,-z
x,1/2+y,-z
-x,y,z
x,1/2-y,z
1/2+x,1/2+y,1/2+z
1/2-x,-y,1/2+z
1/2+x,1/2-y,1/2-z
1/2-x,y,1/2-z
1/2-x,1/2-y,1/2-z
1/2+x,y,1/2-z
1/2-x,1/2+y,1/2+z
1/2+x,-y,1/2+z
loop_
_atom_site_type_symbol
_atom_site_label
_atom_site_fract_x
_atom_site_fract_y
_atom_site_fract_z
Si Si1 0.585336 0.250000 0.845888
Si Si2 0.189715 0.250000 0.061027
Si Si3 0.746389 0.250000 0.914009
Si Si4 0.867239 0.026421 0.886631
Si Si5 0.000000 0.250000 0.914862
Si Si6 0.587714 0.973094 0.764962
Si Si7 0.697075 0.750000 0.814918
O O1 0.500000 0.250000 0.877655
O O2 0.657290 0.250000 0.895187
O O3 0.589854 0.121196 0.797336
O O4 0.141487 0.389278 0.069899
O O5 0.250379 0.250000 0.120929
O O6 0.234537 0.250000 0.992003
O O7 0.789028 0.115090 0.886302
O O8 0.885736 0.980684 0.811377
O O9 0.932827 0.130244 0.910510
O O10 0.500000 0.923993 0.765964
O O11 0.642494 0.879245 0.808067
O O12 0.750000 0.750000 0.750000
#
# Coordination Sequence:
#
# PCOD9539856 Si02
#       7
#     8   8   8  16   4  16   8
#     4  10  23  40  67  98 124 167 213 267 332 380
#     4  12  25  42  62  93 131 174 220 265 310 383
#     4  11  25  42  63  92 131 174 219 266 310 381
#     4  11  22  40  67  92 134 171 212 262 326 374
#     4  10  22  40  64  96 128 170 208 256 316 384
#     4  11  22  39  65  95 130 160 209 275 322 381
#     4  12  23  39  62  95 122 168 215 256 328 379
#
# _framework density 19.735174000000001
#
# number of rings (size 3 to 8) (size 9 to 14) (size 15 to 20)
#    0.000    0.941    3.529    3.882    1.647    1.412 
#    0.000   10.588    0.000    5.647    0.000    0.000 
#    0.000    0.000    0.000    0.000    0.000    0.000 
#
# Total GULP energy -189600.796434 kJ/mol
# GULP energy per Si atom -5576.494013 kJ/mol
# Density = 1.969026 g / cm^3
# Si number density = 19.735174 Si / 1000 Ang^3
#
#
#
# Elastic Constant Matrix: (Units=GPa)
#
#
# Indices 1 2 3 4 5 6 
#
# 1 128.1561 27.0013 31.6475 0.0000 0.0000 0.0000
# 2 27.0013 100.3472 -6.2707 0.0000 0.0000 0.0000
# 3 31.6475 -6.2707 70.1876 0.0000 0.0000 0.0000
# 4 0.0000 0.0000 0.0000 25.9513 0.0000 0.0000
# 5 0.0000 0.0000 0.0000 0.0000 10.8384 0.0000
# 6 0.0000 0.0000 0.0000 0.0000 0.0000 41.0890
#
#
#
# Elastic Compliance Matrix: (Units=1/GPa)
#
#
# Indices 1 2 3 4 5 6 
#
# 1 0.009527 -0.002848 -0.004550 0.000000 0.000000 0.000000
# 2 -0.002848 0.010873 0.002255 0.000000 0.000000 0.000000
# 3 -0.004550 0.002255 0.016501 0.000000 0.000000 0.000000
# 4 0.000000 0.000000 0.000000 0.038534 0.000000 0.000000
# 5 0.000000 0.000000 0.000000 0.000000 0.092264 0.000000
# 6 0.000000 0.000000 0.000000 0.000000 0.000000 0.024337
#
#
# Mechanical properties :
#
#
# Convention : Reuss Voigt Hill
#
# Bulk Modulus (GPa) = 37.57240 44.82745 41.19993
# Shear Modulus (GPa) = 23.67518 31.99658 27.83588
#
# Velocity S-wave (km/s) = 3.46735 4.03090 3.75970
# Velocity P-wave (km/s) = 5.92534 6.66544 6.30625
#
# Compressibility (1/GPa) = 0.02661528
#
# Stress axis : x y z
#
# Youngs Moduli (GPa) = 104.96975 91.97423 60.60392
#
# Poissons Ratio (x) = 0.26192 0.27574
# Poissons Ratio (y) = 0.29893 -0.13669
# Poissons Ratio (z) = 0.47760 -0.20744
#
# Static dielectric constant tensor:
#      x y z
#    x 1.691460 0.000000 0.000000 
#    y 0.000000 1.680320 0.000000 
#    z 0.000000 0.000000 1.662990 
# 
# From -- ./inp_files/52664.got.cif
#   From: 2010.05.17/outbox.cif.g08.bks.cpg/sg74_27_cif.got.tgz:52664.got - 2010.06.03 17:57:02.
