data_PCOD9539500
_publ_section_title
;
Structure prediction by ZEFSAII (Michael W. Deem and Ramdas Pophale) SiO2 
 PCOD9539500
Probable space group: I M M A
;
_chemical_formula_sum "Si O2"
_cell_formula_units_Z 80
_cell_length_a 15.224548
_cell_length_b 8.715106
_cell_length_c 28.379105
_cell_angle_alpha 90.000000
_cell_angle_beta 90.000000
_cell_angle_gamma 90.000000
_cell_volume 3765.440386
_symmetry_space_group_name_H-M "I M M A"
_symmetry_group_IT_number 74
_symmetry_cell_setting 'orthorhombic'
loop_
_space_group_symop_operation_xyz
x,y,z
-x,1/2-y,z
x,-y,-z
-x,1/2+y,-z
-x,-y,-z
x,1/2+y,-z
-x,y,z
x,1/2-y,z
1/2+x,1/2+y,1/2+z
1/2-x,-y,1/2+z
1/2+x,1/2-y,1/2-z
1/2-x,y,1/2-z
1/2-x,1/2-y,1/2-z
1/2+x,y,1/2-z
1/2-x,1/2+y,1/2+z
1/2+x,-y,1/2+z
loop_
_atom_site_type_symbol
_atom_site_label
_atom_site_fract_x
_atom_site_fract_y
_atom_site_fract_z
Si Si1 0.662648 0.750000 0.779589
Si Si2 0.200703 0.920686 0.051091
Si Si3 0.902691 0.034996 0.555543
Si Si4 0.403820 0.250000 0.124506
Si Si5 0.605068 0.931047 0.638885
Si Si6 0.894929 0.424361 0.763185
O O1 0.750000 0.750000 0.750000
O O2 0.668949 0.750000 0.835777
O O3 0.622738 0.580555 0.766817
O O4 0.161315 0.750000 0.049896
O O5 0.304664 0.902351 0.061584
O O6 0.155621 0.019339 0.091986
O O7 0.191953 0.000000 0.000000
O O8 0.000000 0.101808 0.565769
O O9 0.905872 0.000000 0.500000
O O10 0.899688 0.891054 0.589742
O O11 0.500000 0.250000 0.149163
O O12 0.500000 0.955780 0.632848
O O13 0.616563 0.750000 0.649205
O O14 0.635471 0.031192 0.683867
O O15 0.863280 0.250000 0.749595
O O16 0.000000 0.413688 0.764464
#
# Coordination Sequence:
#
# PCOD9539500 Si02
#       6
#     8  16  16   8  16  16
#     4  12  26  40  66 104 138 184 220 281 346 412
#     4  11  24  38  59  90 127 172 215 275 338 406
#     4   9  21  38  63  92 122 166 220 273 333 401
#     4  10  22  42  66  92 130 178 225 281 340 408
#     4  10  21  39  66  95 125 169 220 274 339 408
#     4  10  21  41  68  93 126 173 226 278 328 400
#
# _framework density 21.245856
#
# number of rings (size 3 to 8) (size 9 to 14) (size 15 to 20)
#    0.000    1.800    1.000    2.100    9.800    2.400 
#    0.000    1.000    0.000    1.200    0.000    0.000 
#    0.000    0.000    0.000    0.000    0.000    0.000 
#
# Total GULP energy -222739.369847 kJ/mol
# GULP energy per Si atom -5568.484246 kJ/mol
# Density = 2.119750 g / cm^3
# Si number density = 21.245856 Si / 1000 Ang^3
#
#
#
# Elastic Constant Matrix: (Units=GPa)
#
#
# Indices 1 2 3 4 5 6 
#
# 1 56.5503 23.5967 22.6557 0.0000 0.0000 0.0000
# 2 23.5967 168.2874 58.2697 0.0000 0.0000 0.0000
# 3 22.6557 58.2697 110.3826 0.0000 0.0000 0.0000
# 4 0.0000 0.0000 0.0000 25.8112 0.0000 0.0000
# 5 0.0000 0.0000 0.0000 0.0000 20.6736 0.0000
# 6 0.0000 0.0000 0.0000 0.0000 0.0000 2.5377
#
#
#
# Elastic Compliance Matrix: (Units=1/GPa)
#
#
# Indices 1 2 3 4 5 6 
#
# 1 0.019640 -0.001662 -0.003154 0.000000 0.000000 0.000000
# 2 -0.001662 0.007412 -0.003572 0.000000 0.000000 0.000000
# 3 -0.003154 -0.003572 0.011592 0.000000 0.000000 0.000000
# 4 0.000000 0.000000 0.000000 0.038743 0.000000 0.000000
# 5 0.000000 0.000000 0.000000 0.000000 0.048371 0.000000
# 6 0.000000 0.000000 0.000000 0.000000 0.000000 0.394053
#
#
# Mechanical properties :
#
#
# Convention : Reuss Voigt Hill
#
# Bulk Modulus (GPa) = 45.72517 60.47382 53.09950
# Shear Modulus (GPa) = 9.19327 25.18439 17.18883
#
# Velocity S-wave (km/s) = 2.08242 3.44667 2.84746
# Velocity P-wave (km/s) = 5.22978 6.66070 5.98814
#
# Compressibility (1/GPa) = 0.02186979
#
# Stress axis : x y z
#
# Youngs Moduli (GPa) = 50.91563 134.91828 86.26570
#
# Poissons Ratio (x) = 0.22422 0.27207
# Poissons Ratio (y) = 0.08462 0.30810
# Poissons Ratio (z) = 0.16058 0.48187
#
# Static dielectric constant tensor:
#      x y z
#    x 1.797370 0.000000 0.000000 
#    y 0.000000 1.779530 0.000000 
#    z 0.000000 0.000000 1.702510 
# 
# From -- ./inp_files/67588.got.cif
#   From: 2010.05.17/outbox.cif.g08.bks.cpg/sg74_34_cif.got.tgz:67588.got - 2010.06.03 17:57:02.
