data_PCOD9539518
_publ_section_title
;
Structure prediction by ZEFSAII (Michael W. Deem and Ramdas Pophale) SiO2 
 PCOD9539518
Probable space group: I M M A
;
_chemical_formula_sum "Si O2"
_cell_formula_units_Z 88
_cell_length_a 9.076761
_cell_length_b 27.281711
_cell_length_c 19.582434
_cell_angle_alpha 90.000000
_cell_angle_beta 90.000000
_cell_angle_gamma 90.000000
_cell_volume 4849.189719
_symmetry_space_group_name_H-M "I M M A"
_symmetry_group_IT_number 74
_symmetry_cell_setting 'orthorhombic'
loop_
_space_group_symop_operation_xyz
x,y,z
-x,1/2-y,z
x,-y,-z
-x,1/2+y,-z
-x,-y,-z
x,1/2+y,-z
-x,y,z
x,1/2-y,z
1/2+x,1/2+y,1/2+z
1/2-x,-y,1/2+z
1/2+x,1/2-y,1/2-z
1/2-x,y,1/2-z
1/2-x,1/2-y,1/2-z
1/2+x,y,1/2-z
1/2-x,1/2+y,1/2+z
1/2+x,-y,1/2+z
loop_
_atom_site_type_symbol
_atom_site_label
_atom_site_fract_x
_atom_site_fract_y
_atom_site_fract_z
Si Si1 0.177154 0.250000 0.324380
Si Si2 0.823528 0.058195 0.176103
Si Si3 0.325958 0.528283 0.428791
Si Si4 0.675688 0.632452 0.059277
Si Si5 0.677391 0.850616 0.901405
Si Si6 0.328073 0.191118 0.679607
O O1 0.250000 0.250000 0.250000
O O2 0.216943 0.299017 0.366259
O O3 0.000000 0.250000 0.316481
O O4 0.750000 0.055267 0.250000
O O5 0.758222 0.104951 0.136424
O O6 0.000000 0.063080 0.181783
O O7 0.791750 0.009548 0.131832
O O8 0.301427 0.500000 0.500000
O O9 0.500000 0.540861 0.425264
O O10 0.231568 0.577339 0.428260
O O11 0.500000 0.635163 0.066187
O O12 0.751352 0.666849 0.114885
O O13 0.714177 0.647827 0.981717
O O14 0.500000 0.857025 0.895183
O O15 0.500000 0.177990 0.681820
O O16 0.316016 0.250000 0.674890
O O17 0.250000 0.175627 0.750000
#
# Coordination Sequence:
#
# PCOD9539518 Si02
#       6
#     8  16  16  16  16  16
#     4  10  22  40  58  82 117 156 197 242 293 346
#     4  11  23  39  62  88 118 155 196 245 297 354
#     4  10  21  40  61  83 117 158 199 247 297 349
#     4  11  23  37  62  93 123 159 198 249 301 359
#     4  10  22  39  60  87 120 158 199 243 294 352
#     4  10  22  41  64  90 122 160 201 247 299 359
#
# _framework density 18.147362999999999
#
# number of rings (size 3 to 8) (size 9 to 14) (size 15 to 20)
#    0.000    1.636    1.818    2.182    1.273    6.545 
#    0.000    1.818    0.000    0.000    0.000    0.000 
#    0.000    0.000    0.000    0.000    0.000    0.000 
#
# Total GULP energy -245896.739376 kJ/mol
# GULP energy per Si atom -5588.562259 kJ/mol
# Density = 1.810606 g / cm^3
# Si number density = 18.147363 Si / 1000 Ang^3
#
#
#
# Elastic Constant Matrix: (Units=GPa)
#
#
# Indices 1 2 3 4 5 6 
#
# 1 80.1003 64.6060 93.1968 0.0000 0.0000 0.0000
# 2 64.6060 94.7376 86.7462 0.0000 0.0000 0.0000
# 3 93.1968 86.7462 205.5169 0.0000 0.0000 -0.0001
# 4 0.0000 0.0000 0.0000 31.5217 0.0000 0.0000
# 5 0.0000 0.0000 0.0000 0.0000 33.3900 0.0000
# 6 0.0000 0.0000 -0.0001 0.0000 0.0000 20.4657
#
#
#
# Elastic Compliance Matrix: (Units=1/GPa)
#
#
# Indices 1 2 3 4 5 6 
#
# 1 0.037241 -0.016190 -0.010054 0.000000 0.000000 0.000000
# 2 -0.016190 0.024243 -0.002891 0.000000 0.000000 0.000000
# 3 -0.010054 -0.002891 0.010645 0.000000 0.000000 0.000000
# 4 0.000000 0.000000 0.000000 0.031724 0.000000 0.000000
# 5 0.000000 0.000000 0.000000 0.000000 0.029949 0.000000
# 6 0.000000 0.000000 0.000000 0.000000 0.000000 0.048862
#
#
# Mechanical properties :
#
#
# Convention : Reuss Voigt Hill
#
# Bulk Modulus (GPa) = 72.15562 96.60586 84.38074
# Shear Modulus (GPa) = 20.36204 26.12919 23.24561
#
# Velocity S-wave (km/s) = 3.35332 3.79863 3.58290
# Velocity P-wave (km/s) = 7.40542 8.51993 7.98215
#
# Compressibility (1/GPa) = 0.01385893
#
# Stress axis : x y z
#
# Youngs Moduli (GPa) = 26.85242 41.24822 93.93814
#
# Poissons Ratio (x) = 0.66782 0.94446
# Poissons Ratio (y) = 0.43474 0.27158
# Poissons Ratio (z) = 0.26997 0.11925
#
# Static dielectric constant tensor:
#      x y z
#    x 1.604830 0.000000 0.000000 
#    y 0.000000 1.597570 0.000000 
#    z 0.000000 0.000000 1.594090 
# 
# From -- ./inp_files/48689.got.cif
#   From: 2010.05.17/outbox.cif.g08.bks.cpg/sg74_25_cif.got.tgz:48689.got - 2010.06.03 17:57:02.
