data_PCOD9539231
_publ_section_title
;
Structure prediction by ZEFSAII (Michael W. Deem and Ramdas Pophale) SiO2 
 PCOD9539231
Probable space group: I M M A
;
_chemical_formula_sum "Si O2"
_cell_formula_units_Z 96
_cell_length_a 19.865937
_cell_length_b 14.496984
_cell_length_c 15.577770
_cell_angle_alpha 90.000000
_cell_angle_beta 90.000000
_cell_angle_gamma 90.000000
_cell_volume 4486.338110
_symmetry_space_group_name_H-M "I M M A"
_symmetry_group_IT_number 74
_symmetry_cell_setting 'orthorhombic'
loop_
_space_group_symop_operation_xyz
x,y,z
-x,1/2-y,z
x,-y,-z
-x,1/2+y,-z
-x,-y,-z
x,1/2+y,-z
-x,y,z
x,1/2-y,z
1/2+x,1/2+y,1/2+z
1/2-x,-y,1/2+z
1/2+x,1/2-y,1/2-z
1/2-x,y,1/2-z
1/2-x,1/2-y,1/2-z
1/2+x,y,1/2-z
1/2-x,1/2+y,1/2+z
1/2+x,-y,1/2+z
loop_
_atom_site_type_symbol
_atom_site_label
_atom_site_fract_x
_atom_site_fract_y
_atom_site_fract_z
Si Si1 0.605155 0.643600 0.567926
Si Si2 0.754516 0.847604 0.646833
Si Si3 0.500000 0.013401 0.896782
Si Si4 0.645073 0.494132 0.899047
Si Si5 0.248657 0.646250 0.147885
Si Si6 0.000000 0.857885 0.251243
Si Si7 0.395143 0.062274 0.619411
O O1 0.581322 0.750000 0.585997
O O2 0.683872 0.645961 0.596551
O O3 0.584630 0.545919 0.612535
O O4 0.589744 0.618395 0.468615
O O5 0.786045 0.750000 0.620059
O O6 0.750000 0.846356 0.750000
O O7 0.800852 0.932155 0.627509
O O8 0.428124 0.978442 0.863334
O O9 0.500000 0.113780 0.851537
O O10 0.500000 0.000000 0.000000
O O11 0.679641 0.396418 0.878472
O O12 0.638287 0.500000 0.000000
O O13 0.237490 0.750000 0.112705
O O14 0.250000 0.651915 0.250000
O O15 0.185381 0.579915 0.126613
O O16 0.064793 0.895970 0.199377
O O17 0.000000 0.750000 0.243452
#
# Coordination Sequence:
#
# PCOD9539231 Si02
#       7
#    16  16   8  16  16   8  16
#     4  10  21  38  63  97 137 176 225 283 336 398
#     4  10  21  37  63  95 128 170 221 275 336 405
#     4  10  26  46  65  92 130 168 223 281 338 407
#     4  11  22  39  62  89 121 164 209 270 339 398
#     4  11  22  36  60  92 122 159 216 279 334 399
#     4  12  26  45  72  98 136 189 226 275 352 423
#     4  11  23  40  64  98 137 180 229 280 339 412
#
# _framework density 21.398298
#
# number of rings (size 3 to 8) (size 9 to 14) (size 15 to 20)
#    0.000    1.333    1.667    4.000    2.333    5.333 
#    0.000    4.167    0.000    2.000    0.000    0.000 
#    0.000    0.000    0.000    0.000    0.000    0.000 
#
# Total GULP energy -267405.755561 kJ/mol
# GULP energy per Si atom -5570.953241 kJ/mol
# Density = 2.134959 g / cm^3
# Si number density = 21.398298 Si / 1000 Ang^3
#
#
#
# Elastic Constant Matrix: (Units=GPa)
#
#
# Indices 1 2 3 4 5 6 
#
# 1 109.5116 29.5652 14.2175 0.0000 0.0000 0.0000
# 2 29.5652 161.8512 29.6632 0.0000 0.0000 0.0000
# 3 14.2175 29.6632 79.0202 0.0000 0.0000 0.0000
# 4 0.0000 0.0000 0.0000 26.0463 0.0000 0.0000
# 5 0.0000 0.0000 0.0000 0.0000 19.7605 0.0000
# 6 0.0000 0.0000 0.0000 0.0000 0.0000 13.3134
#
#
#
# Elastic Compliance Matrix: (Units=1/GPa)
#
#
# Indices 1 2 3 4 5 6 
#
# 1 0.009703 -0.001560 -0.001160 0.000000 0.000000 0.000000
# 2 -0.001560 0.006886 -0.002304 0.000000 0.000000 0.000000
# 3 -0.001160 -0.002304 0.013729 0.000000 0.000000 0.000000
# 4 0.000000 0.000000 0.000000 0.038393 0.000000 0.000000
# 5 0.000000 0.000000 0.000000 0.000000 0.050606 0.000000
# 6 0.000000 0.000000 0.000000 0.000000 0.000000 0.075112
#
#
# Mechanical properties :
#
#
# Convention : Reuss Voigt Hill
#
# Bulk Modulus (GPa) = 49.33621 55.25276 52.29449
# Shear Modulus (GPa) = 23.67044 30.28651 26.97847
#
# Velocity S-wave (km/s) = 3.32954 3.76622 3.55459
# Velocity P-wave (km/s) = 6.15527 6.69251 6.42950
#
# Compressibility (1/GPa) = 0.02026909
#
# Stress axis : x y z
#
# Youngs Moduli (GPa) = 103.05882 145.22761 72.84002
#
# Poissons Ratio (x) = 0.22653 0.08452
# Poissons Ratio (y) = 0.16075 0.16784
# Poissons Ratio (z) = 0.11958 0.33463
#
# Static dielectric constant tensor:
#      x y z
#    x 1.845190 0.000000 0.000000 
#    y 0.000000 1.819120 0.000000 
#    z 0.000000 0.000000 1.762680 
# 
# From -- ./inp_files/35332.got.cif
#   From: 2010.05.17/outbox.cif.g08.bks.cpg/sg74_18_cif.got.tgz:35332.got - 2010.06.03 17:57:02.
