data_PCOD9539679
_publ_section_title
;
Structure prediction by ZEFSAII (Michael W. Deem and Ramdas Pophale) SiO2 
 PCOD9539679
Probable space group: I M M A
;
_chemical_formula_sum "Si O2"
_cell_formula_units_Z 116
_cell_length_a 26.544451
_cell_length_b 23.721150
_cell_length_c 9.205955
_cell_angle_alpha 90.000000
_cell_angle_beta 90.000000
_cell_angle_gamma 90.000000
_cell_volume 5796.666770
_symmetry_space_group_name_H-M "I M M A"
_symmetry_group_IT_number 74
_symmetry_cell_setting 'orthorhombic'
loop_
_space_group_symop_operation_xyz
x,y,z
-x,1/2-y,z
x,-y,-z
-x,1/2+y,-z
-x,-y,-z
x,1/2+y,-z
-x,y,z
x,1/2-y,z
1/2+x,1/2+y,1/2+z
1/2-x,-y,1/2+z
1/2+x,1/2-y,1/2-z
1/2-x,y,1/2-z
1/2-x,1/2-y,1/2-z
1/2+x,y,1/2-z
1/2-x,1/2+y,1/2+z
1/2+x,-y,1/2+z
loop_
_atom_site_type_symbol
_atom_site_label
_atom_site_fract_x
_atom_site_fract_y
_atom_site_fract_z
Si Si1 0.659711 0.915440 0.073047
Si Si2 0.191339 0.477529 0.278305
Si Si3 0.088263 0.036937 0.143359
Si Si4 0.000000 0.250000 0.992194
Si Si5 0.294350 0.316967 0.056363
Si Si6 0.423501 0.856845 0.486605
Si Si7 0.442878 0.069772 0.806158
Si Si8 0.320327 0.817704 0.614878
O O1 0.599669 0.915216 0.078684
O O2 0.679952 0.955855 0.200158
O O3 0.678480 0.945567 0.927090
O O4 0.680168 0.852628 0.069602
O O5 0.250000 0.468687 0.250000
O O6 0.148614 0.457188 0.166662
O O7 0.064146 0.097454 0.113241
O O8 0.066227 0.996156 0.266751
O O9 0.079857 0.000000 0.000000
O O10 0.043655 0.199507 0.991113
O O11 0.296477 0.250000 0.035545
O O12 0.321462 0.329798 0.211332
O O13 0.235971 0.334765 0.068229
O O14 0.431894 0.890771 0.335557
O O15 0.365239 0.842175 0.519272
O O16 0.500000 0.078716 0.851026
O O17 0.322471 0.750000 0.603640
#
# Coordination Sequence:
#
# PCOD9539679 Si02
#       8
#    16  16  16   4  16  16  16  16
#     4  10  22  38  57  89 121 156 210 246 297 377
#     4  10  22  37  60  89 124 159 194 246 311 363
#     4   9  21  35  61  90 115 155 203 251 305 364
#     4  12  24  36  58  94 120 164 202 266 314 350
#     4   9  19  35  59  86 117 161 198 241 307 369
#     4  11  21  37  60  88 122 150 204 258 312 356
#     4  10  22  42  61  80 117 163 210 254 298 363
#     4   9  18  34  58  87 119 155 198 248 303 373
#
# _framework density 20.011500999999999
#
# number of rings (size 3 to 8) (size 9 to 14) (size 15 to 20)
#    0.000    2.207    1.379    1.655    6.759    3.034 
#    1.241    5.517    4.552    2.069    0.000    0.966 
#    0.000    0.000    0.000    0.000    0.000    0.000 
#
# Total GULP energy -323019.148132 kJ/mol
# GULP energy per Si atom -5569.295657 kJ/mol
# Density = 1.996595 g / cm^3
# Si number density = 20.011501 Si / 1000 Ang^3
#
#
#
# Elastic Constant Matrix: (Units=GPa)
#
#
# Indices 1 2 3 4 5 6 
#
# 1 155.9623 50.8551 31.8827 0.0000 0.0000 0.0000
# 2 50.8551 125.2427 22.0428 0.0000 0.0000 0.0000
# 3 31.8827 22.0428 15.7856 0.0000 0.0000 0.0000
# 4 0.0000 0.0000 0.0000 19.1541 0.0000 0.0000
# 5 0.0000 0.0000 0.0000 0.0000 -2.5910 0.0000
# 6 0.0000 0.0000 0.0000 0.0000 0.0000 17.6060
#
#
#
# Elastic Compliance Matrix: (Units=1/GPa)
#
#
# Indices 1 2 3 4 5 6 
#
# 1 0.010972 -0.000736 -0.021133 0.000000 0.000000 0.000000
# 2 -0.000736 0.010636 -0.013365 0.000000 0.000000 0.000000
# 3 -0.021133 -0.013365 0.124694 0.000000 0.000000 0.000000
# 4 0.000000 0.000000 0.000000 0.052208 0.000000 0.000000
# 5 0.000000 0.000000 0.000000 0.000000 -0.385958 0.000000
# 6 0.000000 0.000000 0.000000 0.000000 0.000000 0.056799
#
#
# Mechanical properties :
#
#
# Convention : Reuss Voigt Hill
#
# Bulk Modulus (GPa) = 13.18671 56.28355 34.73513
# Shear Modulus (GPa) = -143.24722 19.64783 -61.79969
#
# Velocity S-wave (km/s) = -8.46982 3.13681 -5.56319
# Velocity P-wave (km/s) = 9.43645 6.42698 4.88572
#
# Compressibility (1/GPa) = 0.07583391
#
# Stress axis : x y z
#
# Youngs Moduli (GPa) = 91.14321 94.02417 8.01964
#
# Poissons Ratio (x) = 0.06918 0.16948
# Poissons Ratio (y) = 0.06706 0.10719
# Poissons Ratio (z) = 1.92609 1.25666
#
# Static dielectric constant tensor:
#      x y z
#    x 1.705540 0.000000 0.000000 
#    y 0.000000 1.750270 0.000000 
#    z 0.000000 0.000000 1.734710 
# 
# From -- ./inp_files/15440.got.cif
#   From: 2010.05.17/outbox.cif.g08.bks.cpg/sg74_8_cif.got.tgz:15440.got - 2010.06.03 17:57:02.
