data_PCOD9539248
_publ_section_title
;
Structure prediction by ZEFSAII (Michael W. Deem and Ramdas Pophale) SiO2 
 PCOD9539248
Probable space group: I M M A
;
_chemical_formula_sum "Si O2"
_cell_formula_units_Z 104
_cell_length_a 10.085547
_cell_length_b 21.788806
_cell_length_c 27.984292
_cell_angle_alpha 90.000000
_cell_angle_beta 90.000000
_cell_angle_gamma 90.000000
_cell_volume 6149.604891
_symmetry_space_group_name_H-M "I M M A"
_symmetry_group_IT_number 74
_symmetry_cell_setting 'orthorhombic'
loop_
_space_group_symop_operation_xyz
x,y,z
-x,1/2-y,z
x,-y,-z
-x,1/2+y,-z
-x,-y,-z
x,1/2+y,-z
-x,y,z
x,1/2-y,z
1/2+x,1/2+y,1/2+z
1/2-x,-y,1/2+z
1/2+x,1/2-y,1/2-z
1/2-x,y,1/2-z
1/2-x,1/2-y,1/2-z
1/2+x,y,1/2-z
1/2-x,1/2+y,1/2+z
1/2+x,-y,1/2+z
loop_
_atom_site_type_symbol
_atom_site_label
_atom_site_fract_x
_atom_site_fract_y
_atom_site_fract_z
Si Si1 0.753778 0.613545 0.350570
Si Si2 0.342166 0.430437 0.552763
Si Si3 0.658222 0.576772 0.557202
Si Si4 0.500000 0.178085 0.807362
Si Si5 0.340841 0.250000 0.202144
Si Si6 0.154405 0.629152 0.638330
Si Si7 0.500000 0.175337 0.697088
Si Si8 0.343371 0.008354 0.203859
O O1 0.734572 0.605793 0.406772
O O2 0.625960 0.644969 0.327684
O O3 0.786003 0.547424 0.327517
O O4 0.874176 0.655435 0.335556
O O5 0.500000 0.421989 0.559407
O O6 0.311347 0.410843 0.498626
O O7 0.317581 0.503221 0.560921
O O8 0.500000 0.586676 0.565133
O O9 0.747421 0.614596 0.594284
O O10 0.500000 0.250000 0.803730
O O11 0.500000 0.155903 0.752627
O O12 0.500000 0.250000 0.214069
O O13 0.250000 0.250000 0.250000
O O14 0.314640 0.310059 0.169348
O O15 0.164050 0.570819 0.673601
O O16 0.000000 0.633792 0.622388
O O17 0.500000 0.250000 0.693510
O O18 0.500000 0.997450 0.215083
O O19 0.250000 0.013245 0.250000
#
# Coordination Sequence:
#
# PCOD9539248 Si02
#       8
#    16  16  16   8   8  16   8  16
#     4  12  21  36  58  81 113 144 186 239 284 327
#     4   9  18  35  58  85 113 145 188 233 286 339
#     4   9  18  35  59  85 113 148 186 232 284 344
#     4  11  24  40  54  77 114 149 189 228 271 346
#     4  10  22  40  62  84 120 164 200 234 281 350
#     4  10  21  38  57  85 120 150 189 238 288 340
#     4  11  24  40  60  79 106 157 195 222 277 342
#     4  11  23  35  53  84 117 145 182 234 288 338
#
# _framework density 16.911657000000002
#
# number of rings (size 3 to 8) (size 9 to 14) (size 15 to 20)
#    0.000    1.692    3.077    3.231    1.077    2.462 
#    1.385    0.769    3.385    0.000    0.000    0.000 
#    0.000    0.000    0.000    0.000    0.000    0.000 
#
# Total GULP energy -290107.456165 kJ/mol
# GULP energy per Si atom -5578.989542 kJ/mol
# Density = 1.687316 g / cm^3
# Si number density = 16.911657 Si / 1000 Ang^3
#
#
#
# Elastic Constant Matrix: (Units=GPa)
#
#
# Indices 1 2 3 4 5 6 
#
# 1 122.9781 46.3292 83.4275 0.0000 0.0000 0.0000
# 2 46.3292 83.8369 45.9642 0.0000 0.0000 0.0000
# 3 83.4275 45.9642 145.7122 0.0000 0.0000 0.0000
# 4 0.0000 0.0000 0.0000 25.1392 0.0000 0.0000
# 5 0.0000 0.0000 0.0000 0.0000 30.1121 0.0000
# 6 0.0000 0.0000 0.0000 0.0000 0.0000 35.3872
#
#
#
# Elastic Compliance Matrix: (Units=1/GPa)
#
#
# Indices 1 2 3 4 5 6 
#
# 1 0.014402 -0.004157 -0.006935 0.000000 0.000000 0.000000
# 2 -0.004157 0.015622 -0.002548 0.000000 0.000000 0.000000
# 3 -0.006935 -0.002548 0.011637 0.000000 0.000000 0.000000
# 4 0.000000 0.000000 0.000000 0.039778 0.000000 0.000000
# 5 0.000000 0.000000 0.000000 0.000000 0.033209 0.000000
# 6 0.000000 0.000000 0.000000 0.000000 0.000000 0.028259
#
#
# Mechanical properties :
#
#
# Convention : Reuss Voigt Hill
#
# Bulk Modulus (GPa) = 69.52988 78.21877 73.87433
# Shear Modulus (GPa) = 28.57474 29.91478 29.24476
#
# Velocity S-wave (km/s) = 4.11499 4.21037 4.16296
# Velocity P-wave (km/s) = 7.98626 8.36589 8.17828
#
# Compressibility (1/GPa) = 0.01438231
#
# Stress axis : x y z
#
# Youngs Moduli (GPa) = 69.43558 64.01275 85.93311
#
# Poissons Ratio (x) = 0.26608 0.59591
# Poissons Ratio (y) = 0.28862 0.21895
# Poissons Ratio (z) = 0.48151 0.16310
#
# Static dielectric constant tensor:
#      x y z
#    x 1.556110 0.000000 0.000000 
#    y 0.000000 1.566360 0.000000 
#    z 0.000000 0.000000 1.554390 
# 
# From -- ./inp_files/64826.got.cif
#   From: 2010.05.17/outbox.cif.g08.bks.cpg/sg74_33_cif.got.tgz:64826.got - 2010.06.03 17:57:02.
