data_PCOD9539239
_publ_section_title
;
Structure prediction by ZEFSAII (Michael W. Deem and Ramdas Pophale) SiO2 
 PCOD9539239
Probable space group: I M M A
;
_chemical_formula_sum "Si O2"
_cell_formula_units_Z 104
_cell_length_a 25.672707
_cell_length_b 16.936900
_cell_length_c 13.737727
_cell_angle_alpha 90.000000
_cell_angle_beta 90.000000
_cell_angle_gamma 90.000000
_cell_volume 5973.384481
_symmetry_space_group_name_H-M "I M M A"
_symmetry_group_IT_number 74
_symmetry_cell_setting 'orthorhombic'
loop_
_space_group_symop_operation_xyz
x,y,z
-x,1/2-y,z
x,-y,-z
-x,1/2+y,-z
-x,-y,-z
x,1/2+y,-z
-x,y,z
x,1/2-y,z
1/2+x,1/2+y,1/2+z
1/2-x,-y,1/2+z
1/2+x,1/2-y,1/2-z
1/2-x,y,1/2-z
1/2-x,1/2-y,1/2-z
1/2+x,y,1/2-z
1/2-x,1/2+y,1/2+z
1/2+x,-y,1/2+z
loop_
_atom_site_type_symbol
_atom_site_label
_atom_site_fract_x
_atom_site_fract_y
_atom_site_fract_z
Si Si1 0.943403 0.988573 0.614674
Si Si2 0.607177 0.425191 0.431425
Si Si3 0.284334 0.342834 0.445246
Si Si4 0.000000 0.157706 0.321484
Si Si5 0.750000 0.431278 0.250000
Si Si6 0.791518 0.342591 0.837852
Si Si7 0.357141 0.023473 0.744217
Si Si8 0.000000 0.658362 0.913880
O O1 0.951231 0.895017 0.639671
O O2 0.000000 0.021819 0.648684
O O3 0.940316 0.000000 0.500000
O O4 0.894546 0.029824 0.664059
O O5 0.616759 0.500000 0.500000
O O6 0.654343 0.363798 0.440827
O O7 0.611309 0.463988 0.325300
O O8 0.551910 0.385306 0.449011
O O9 0.275109 0.250000 0.437173
O O10 0.258911 0.383754 0.350848
O O11 0.269156 0.368374 0.555974
O O12 0.000000 0.250000 0.350648
O O13 0.000000 0.155331 0.204290
O O14 0.698291 0.482916 0.235085
O O15 0.805050 0.250000 0.846803
O O16 0.750000 0.349658 0.750000
O O17 0.840965 0.396029 0.809770
O O18 0.000000 0.750000 0.942509
#
# Coordination Sequence:
#
# PCOD9539239 Si02
#       8
#    16  16  16   8   8  16  16   8
#     4   9  19  37  59  84 111 150 189 237 292 337
#     4  11  20  34  56  81 109 148 187 227 279 336
#     4  10  21  38  56  81 118 149 186 240 294 340
#     4   9  17  34  56  81 112 144 184 228 281 343
#     4  10  23  34  59  88 112 150 194 238 299 346
#     4  10  21  38  59  80 112 158 195 232 281 342
#     4  11  20  37  56  84 113 145 191 239 278 343
#     4  11  21  34  54  83 114 148 186 232 285 339
#
# _framework density 17.410564999999998
#
# number of rings (size 3 to 8) (size 9 to 14) (size 15 to 20)
#    0.462    1.385    3.846    0.923    0.000    1.231 
#    0.000    1.538    0.000    0.000    0.000    0.000 
#    0.000    0.000    0.000    0.000    0.000    0.000 
#
# Total GULP energy -289497.967648 kJ/mol
# GULP energy per Si atom -5567.268609 kJ/mol
# Density = 1.737094 g / cm^3
# Si number density = 17.410565 Si / 1000 Ang^3
#
#
#
# Elastic Constant Matrix: (Units=GPa)
#
#
# Indices 1 2 3 4 5 6 
#
# 1 66.7529 17.9877 26.0683 0.0000 0.0000 0.0000
# 2 17.9877 63.2151 25.6501 0.0000 0.0000 0.0000
# 3 26.0683 25.6501 94.9572 0.0000 0.0000 0.0000
# 4 0.0000 0.0000 0.0000 15.7701 0.0000 0.0000
# 5 0.0000 0.0000 0.0000 0.0000 25.5284 0.0000
# 6 0.0000 0.0000 0.0000 0.0000 0.0000 7.2174
#
#
#
# Elastic Compliance Matrix: (Units=1/GPa)
#
#
# Indices 1 2 3 4 5 6 
#
# 1 0.017401 -0.003384 -0.003863 0.000000 0.000000 0.000000
# 2 -0.003384 0.018424 -0.004048 0.000000 0.000000 0.000000
# 3 -0.003863 -0.004048 0.012685 0.000000 0.000000 0.000000
# 4 0.000000 0.000000 0.000000 0.063411 0.000000 0.000000
# 5 0.000000 0.000000 0.000000 0.000000 0.039172 0.000000
# 6 0.000000 0.000000 0.000000 0.000000 0.000000 0.138553
#
#
# Mechanical properties :
#
#
# Convention : Reuss Voigt Hill
#
# Bulk Modulus (GPa) = 38.57910 40.48193 39.53051
# Shear Modulus (GPa) = 15.58229 20.05111 17.81670
#
# Velocity S-wave (km/s) = 2.99488 3.39730 3.20242
# Velocity P-wave (km/s) = 5.84514 6.22018 6.03558
#
# Compressibility (1/GPa) = 0.02592077
#
# Stress axis : x y z
#
# Youngs Moduli (GPa) = 57.46773 54.27598 78.83352
#
# Poissons Ratio (x) = 0.18367 0.30453
# Poissons Ratio (y) = 0.19447 0.31911
# Poissons Ratio (z) = 0.22200 0.21970
#
# Static dielectric constant tensor:
#      x y z
#    x 1.580910 0.000000 0.000000 
#    y 0.000000 1.590480 0.000000 
#    z 0.000000 0.000000 1.634810 
# 
# From -- ./inp_files/26383.got.cif
#   From: 2010.05.17/outbox.cif.g08.bks.cpg/sg74_14_cif.got.tgz:26383.got - 2010.06.03 17:57:02.
