data_PCOD9539313
_publ_section_title
;
Structure prediction by ZEFSAII (Michael W. Deem and Ramdas Pophale) SiO2 
 PCOD9539313
Probable space group: I M M A
;
_chemical_formula_sum "Si O2"
_cell_formula_units_Z 64
_cell_length_a 8.282918
_cell_length_b 12.029211
_cell_length_c 30.494637
_cell_angle_alpha 90.000000
_cell_angle_beta 90.000000
_cell_angle_gamma 90.000000
_cell_volume 3038.393181
_symmetry_space_group_name_H-M "I M M A"
_symmetry_group_IT_number 74
_symmetry_cell_setting 'orthorhombic'
loop_
_space_group_symop_operation_xyz
x,y,z
-x,1/2-y,z
x,-y,-z
-x,1/2+y,-z
-x,-y,-z
x,1/2+y,-z
-x,y,z
x,1/2-y,z
1/2+x,1/2+y,1/2+z
1/2-x,-y,1/2+z
1/2+x,1/2-y,1/2-z
1/2-x,y,1/2-z
1/2-x,1/2-y,1/2-z
1/2+x,y,1/2-z
1/2-x,1/2+y,1/2+z
1/2+x,-y,1/2+z
loop_
_atom_site_type_symbol
_atom_site_label
_atom_site_fract_x
_atom_site_fract_y
_atom_site_fract_z
Si Si1 0.305328 0.750000 0.699321
Si Si2 0.174527 0.946899 0.548581
Si Si3 0.194150 0.878652 0.116033
Si Si4 0.000000 0.371691 0.020839
Si Si5 0.805974 0.992080 0.799811
O O1 0.500000 0.750000 0.696768
O O2 0.250000 0.750000 0.750000
O O3 0.249253 0.629620 0.682673
O O4 0.334748 0.872672 0.548069
O O5 0.000000 0.894680 0.557711
O O6 0.165912 0.000000 0.500000
O O7 0.210718 0.045619 0.582210
O O8 0.225990 0.750000 0.108577
O O9 0.240293 0.915293 0.165196
O O10 0.000000 0.897662 0.110674
O O11 0.000000 0.250000 0.995663
O O12 0.000000 0.500000 0.000000
O O13 0.750000 0.009059 0.750000
O O14 0.000000 0.989380 0.798327
#
# Coordination Sequence:
#
# PCOD9539313 Si02
#       5
#     8  16  16   8  16
#     4   8  14  28  50  74 104 146 198 250 312 372
#     4  10  22  41  64  93 126 168 220 272 327 393
#     4  10  21  38  60  89 126 170 219 272 335 404
#     4  10  22  42  68 100 134 176 218 270 334 392
#     4   9  18  33  54  83 117 160 207 264 322 389
#
# _framework density 21.063766000000001
#
# number of rings (size 3 to 8) (size 9 to 14) (size 15 to 20)
#    0.000    2.500    1.250    0.000    0.000    6.500 
#    2.250    5.000    0.000    0.000    0.000    0.000 
#    0.000    0.000    0.000    0.000    0.000    0.000 
#
# Total GULP energy -178229.902991 kJ/mol
# GULP energy per Si atom -5569.684468 kJ/mol
# Density = 2.101582 g / cm^3
# Si number density = 21.063766 Si / 1000 Ang^3
#
#
#
# Elastic Constant Matrix: (Units=GPa)
#
#
# Indices 1 2 3 4 5 6 
#
# 1 108.2649 40.1981 19.2130 0.0000 0.0000 0.0000
# 2 40.1981 99.1015 34.7384 0.0000 0.0000 0.0000
# 3 19.2130 34.7384 91.9502 0.0000 0.0000 0.0000
# 4 0.0000 0.0000 0.0000 23.0834 0.0000 0.0000
# 5 0.0000 0.0000 0.0000 0.0000 -0.1812 0.0000
# 6 0.0000 0.0000 0.0000 0.0000 0.0000 3.4612
#
#
#
# Elastic Compliance Matrix: (Units=1/GPa)
#
#
# Indices 1 2 3 4 5 6 
#
# 1 0.010913 -0.004181 -0.000701 0.000000 0.000000 0.000000
# 2 -0.004181 0.013233 -0.004126 0.000000 0.000000 0.000000
# 3 -0.000701 -0.004126 0.012581 0.000000 0.000000 0.000000
# 4 0.000000 0.000000 0.000000 0.043321 0.000000 0.000000
# 5 0.000000 0.000000 0.000000 0.000000 -5.518885 0.000000
# 6 0.000000 0.000000 0.000000 0.000000 0.000000 0.288919
#
#
# Mechanical properties :
#
#
# Convention : Reuss Voigt Hill
#
# Bulk Modulus (GPa) = 53.44253 54.17953 53.81103
# Shear Modulus (GPa) = -0.97548 18.95049 8.98750
#
# Velocity S-wave (km/s) = -0.68126 3.00271 2.06787
# Velocity P-wave (km/s) = 4.98077 6.14810 5.59496
#
# Compressibility (1/GPa) = 0.01871169
#
# Stress axis : x y z
#
# Youngs Moduli (GPa) = 91.63063 75.56978 79.48795
#
# Poissons Ratio (x) = 0.31597 0.05570
# Poissons Ratio (y) = 0.38312 0.32794
# Poissons Ratio (z) = 0.06421 0.31177
#
# Static dielectric constant tensor:
#      x y z
#    x 1.800100 0.000000 0.000000 
#    y 0.000000 1.793790 0.000000 
#    z 0.000000 0.000000 1.739470 
# 
# From -- ./inp_files/69798.got.cif
#   From: 2010.05.17/outbox.cif.g08.bks.cpg/sg74_35_cif.got.tgz:69798.got - 2010.06.03 17:57:02.
