data_PCOD9539840
_publ_section_title
;
Structure prediction by ZEFSAII (Michael W. Deem and Ramdas Pophale) SiO2 
 PCOD9539840
Probable space group: I M M A
;
_chemical_formula_sum "Si O2"
_cell_formula_units_Z 84
_cell_length_a 15.793503
_cell_length_b 10.621748
_cell_length_c 25.597786
_cell_angle_alpha 90.000000
_cell_angle_beta 90.000000
_cell_angle_gamma 90.000000
_cell_volume 4294.146579
_symmetry_space_group_name_H-M "I M M A"
_symmetry_group_IT_number 74
_symmetry_cell_setting 'orthorhombic'
loop_
_space_group_symop_operation_xyz
x,y,z
-x,1/2-y,z
x,-y,-z
-x,1/2+y,-z
-x,-y,-z
x,1/2+y,-z
-x,y,z
x,1/2-y,z
1/2+x,1/2+y,1/2+z
1/2-x,-y,1/2+z
1/2+x,1/2-y,1/2-z
1/2-x,y,1/2-z
1/2-x,1/2-y,1/2-z
1/2+x,y,1/2-z
1/2-x,1/2+y,1/2+z
1/2+x,-y,1/2+z
loop_
_atom_site_type_symbol
_atom_site_label
_atom_site_fract_x
_atom_site_fract_y
_atom_site_fract_z
Si Si1 0.137110 0.980156 0.439638
Si Si2 0.162190 0.896683 0.220796
Si Si3 0.000000 0.613276 0.618223
Si Si4 0.599298 0.250000 0.431843
Si Si5 0.000000 0.105501 0.704174
Si Si6 0.181136 0.992671 0.108307
Si Si7 0.500000 0.250000 0.933131
Si Si8 0.097053 0.250000 0.943138
O O1 0.219313 0.975180 0.403165
O O2 0.074932 0.860567 0.435224
O O3 0.162110 0.000000 0.500000
O O4 0.080678 0.095662 0.418963
O O5 0.164412 0.750000 0.203872
O O6 0.250000 0.923175 0.250000
O O7 0.082897 0.908286 0.259810
O O8 0.158167 0.979173 0.169101
O O9 0.000000 0.500722 0.660250
O O10 0.000000 0.750000 0.643667
O O11 0.500000 0.250000 0.415865
O O12 0.646337 0.375026 0.412264
O O13 0.601597 0.250000 0.494501
O O14 0.000000 0.250000 0.680727
O O15 0.138600 0.876339 0.078383
O O16 0.000000 0.250000 0.925990
#
# Coordination Sequence:
#
# PCOD9539840 Si02
#       8
#    16  16   8   8   8  16   4   8
#     4  11  25  39  67  98 139 183 222 276 334 409
#     4  10  22  42  68  98 129 166 229 296 346 401
#     4  11  25  43  64  94 135 177 222 275 341 406
#     4  11  26  43  62 101 145 185 218 278 334 410
#     4  10  23  43  71  94 125 168 224 293 353 396
#     4  12  24  43  70  99 136 180 232 274 343 408
#     4  10  22  40  62  98 128 178 230 280 322 398
#     4  11  23  41  69  96 135 171 229 276 333 397
#
# _framework density 19.561513000000001
#
# number of rings (size 3 to 8) (size 9 to 14) (size 15 to 20)
#    0.000    1.143    0.952    5.143    9.333    1.524 
#    1.714    0.476    0.000    0.000    0.000    0.000 
#    0.000    0.000    0.000    0.000    0.000    0.000 
#
# Total GULP energy -234320.932336 kJ/mol
# GULP energy per Si atom -5579.069818 kJ/mol
# Density = 1.951699 g / cm^3
# Si number density = 19.561513 Si / 1000 Ang^3
#
#
#
# Elastic Constant Matrix: (Units=GPa)
#
#
# Indices 1 2 3 4 5 6 
#
# 1 76.7193 17.3317 1.8917 0.0000 0.0000 0.0000
# 2 17.3317 124.0978 35.2109 0.0000 0.0000 0.0000
# 3 1.8917 35.2109 55.3189 0.0000 0.0000 0.0000
# 4 0.0000 0.0000 0.0000 4.6592 0.0000 0.0000
# 5 0.0000 0.0000 0.0000 0.0000 27.0644 0.0000
# 6 0.0000 0.0000 0.0000 0.0000 0.0000 8.4522
#
#
#
# Elastic Compliance Matrix: (Units=1/GPa)
#
#
# Indices 1 2 3 4 5 6 
#
# 1 0.013496 -0.002140 0.000901 0.000000 0.000000 0.000000
# 2 -0.002140 0.010174 -0.006402 0.000000 0.000000 0.000000
# 3 0.000901 -0.006402 0.022121 0.000000 0.000000 0.000000
# 4 0.000000 0.000000 0.000000 0.214628 0.000000 0.000000
# 5 0.000000 0.000000 0.000000 0.000000 0.036949 0.000000
# 6 0.000000 0.000000 0.000000 0.000000 0.000000 0.118312
#
#
# Mechanical properties :
#
#
# Convention : Reuss Voigt Hill
#
# Bulk Modulus (GPa) = 32.77938 40.55606 36.66772
# Shear Modulus (GPa) = 11.33446 21.48194 16.40820
#
# Velocity S-wave (km/s) = 2.40974 3.31747 2.89935
# Velocity P-wave (km/s) = 4.95337 5.95413 5.47666
#
# Compressibility (1/GPa) = 0.03050698
#
# Stress axis : x y z
#
# Youngs Moduli (GPa) = 74.09677 98.29264 45.20507
#
# Poissons Ratio (x) = 0.21039 -0.04073
# Poissons Ratio (y) = 0.15860 0.28942
# Poissons Ratio (z) = -0.06676 0.62931
#
# Static dielectric constant tensor:
#      x y z
#    x 1.859500 0.000000 0.000000 
#    y 0.000000 1.707200 0.000000 
#    z 0.000000 0.000000 1.781650 
# 
# From -- ./inp_files/59876.got.cif
#   From: 2010.05.17/outbox.cif.g08.bks.cpg/sg74_30_cif.got.tgz:59876.got - 2010.06.03 17:57:02.
