data_PCOD9539242
_publ_section_title
;
Structure prediction by ZEFSAII (Michael W. Deem and Ramdas Pophale) SiO2 
 PCOD9539242
Probable space group: I M M A
;
_chemical_formula_sum "Si O2"
_cell_formula_units_Z 112
_cell_length_a 27.179979
_cell_length_b 14.348051
_cell_length_c 16.471905
_cell_angle_alpha 90.000000
_cell_angle_beta 90.000000
_cell_angle_gamma 90.000000
_cell_volume 6423.708980
_symmetry_space_group_name_H-M "I M M A"
_symmetry_group_IT_number 74
_symmetry_cell_setting 'orthorhombic'
loop_
_space_group_symop_operation_xyz
x,y,z
-x,1/2-y,z
x,-y,-z
-x,1/2+y,-z
-x,-y,-z
x,1/2+y,-z
-x,y,z
x,1/2-y,z
1/2+x,1/2+y,1/2+z
1/2-x,-y,1/2+z
1/2+x,1/2-y,1/2-z
1/2-x,y,1/2-z
1/2-x,1/2-y,1/2-z
1/2+x,y,1/2-z
1/2-x,1/2+y,1/2+z
1/2+x,-y,1/2+z
loop_
_atom_site_type_symbol
_atom_site_label
_atom_site_fract_x
_atom_site_fract_y
_atom_site_fract_z
Si Si1 0.106393 0.358118 0.843958
Si Si2 0.691048 0.977169 0.905678
Si Si3 0.114572 0.141659 0.035753
Si Si4 0.305545 0.357871 0.780932
Si Si5 0.287291 0.359984 0.361995
Si Si6 0.556868 0.954522 0.673752
Si Si7 0.860568 0.139344 0.283212
O O1 0.091986 0.250000 0.831885
O O2 0.155665 0.375598 0.791551
O O3 0.066936 0.435267 0.819072
O O4 0.116032 0.371890 0.939693
O O5 0.742754 0.926281 0.885595
O O6 0.650094 0.907972 0.868921
O O7 0.686454 0.071291 0.853759
O O8 0.687211 0.000000 0.000000
O O9 0.101719 0.250000 0.051829
O O10 0.168438 0.126943 0.073873
O O11 0.076419 0.079153 0.085567
O O12 0.311516 0.250000 0.805899
O O13 0.250000 0.369820 0.750000
O O14 0.272720 0.250000 0.362261
O O15 0.313107 0.380345 0.275308
O O16 0.500000 0.931991 0.684204
O O17 0.592473 0.903009 0.737536
O O18 0.865113 0.250000 0.288314
#
# Coordination Sequence:
#
# PCOD9539242 Si02
#       7
#    16  16  16  16  16  16  16
#     4  10  21  38  57  78 118 161 191 226 271 330
#     4  12  24  34  56  85 114 146 189 238 284 330
#     4   9  20  35  54  85 120 154 190 226 275 332
#     4  10  22  38  55  78 113 156 196 228 265 325
#     4   9  19  35  56  82 116 155 189 226 271 332
#     4  11  22  37  60  87 114 144 188 239 288 340
#     4  10  21  40  60  82 115 151 188 231 289 344
#
# _framework density 17.435410000000001
#
# number of rings (size 3 to 8) (size 9 to 14) (size 15 to 20)
#    0.000    1.857    1.429    3.429    4.000    4.857 
#    0.000    1.429    0.000    0.429    0.000    0.000 
#    0.000    0.000    0.000    0.000    0.000    0.000 
#
# Total GULP energy -312806.961934 kJ/mol
# GULP energy per Si atom -5585.838606 kJ/mol
# Density = 1.739573 g / cm^3
# Si number density = 17.435410 Si / 1000 Ang^3
#
#
#
# Elastic Constant Matrix: (Units=GPa)
#
#
# Indices 1 2 3 4 5 6 
#
# 1 87.5518 53.4144 61.3067 0.0000 0.0000 0.0000
# 2 53.4144 102.4815 71.7608 0.0000 0.0000 0.0000
# 3 61.3067 71.7608 110.0892 0.0000 0.0000 0.0000
# 4 0.0000 0.0000 0.0000 24.7462 0.0000 0.0000
# 5 0.0000 0.0000 0.0000 0.0000 2.4929 0.0000
# 6 0.0000 0.0000 0.0000 0.0000 0.0000 8.3614
#
#
#
# Elastic Compliance Matrix: (Units=1/GPa)
#
#
# Indices 1 2 3 4 5 6 
#
# 1 0.019935 -0.004814 -0.007963 0.000000 0.000000 0.000000
# 2 -0.004814 0.019114 -0.009779 0.000000 0.000000 0.000000
# 3 -0.007963 -0.009779 0.019892 0.000000 0.000000 0.000000
# 4 0.000000 0.000000 0.000000 0.040410 0.000000 0.000000
# 5 0.000000 0.000000 0.000000 0.000000 0.401132 0.000000
# 6 0.000000 0.000000 0.000000 0.000000 0.000000 0.119597
#
#
# Mechanical properties :
#
#
# Convention : Reuss Voigt Hill
#
# Bulk Modulus (GPa) = 72.30971 74.78738 73.54854
# Shear Modulus (GPa) = 7.46487 14.69616 11.08051
#
# Velocity S-wave (km/s) = 2.07141 2.90641 2.52368
# Velocity P-wave (km/s) = 6.87633 7.36546 7.12509
#
# Compressibility (1/GPa) = 0.01382940
#
# Stress axis : x y z
#
# Youngs Moduli (GPa) = 50.16271 52.31673 50.27049
#
# Poissons Ratio (x) = 0.25186 0.40033
# Poissons Ratio (y) = 0.24149 0.49158
# Poissons Ratio (z) = 0.39947 0.51159
#
# Static dielectric constant tensor:
#      x y z
#    x 1.565090 0.000000 0.000000 
#    y 0.000000 1.633870 0.000000 
#    z 0.000000 0.000000 1.578040 
# 
# From -- ./inp_files/32752.got.cif
#   From: 2010.05.17/outbox.cif.g08.bks.cpg/sg74_17_cif.got.tgz:32752.got - 2010.06.03 17:57:02.
