data_PCOD9539137
_publ_section_title
;
Structure prediction by ZEFSAII (Michael W. Deem and Ramdas Pophale) SiO2 
 PCOD9539137
Probable space group: I M M A
;
_chemical_formula_sum "Si O2"
_cell_formula_units_Z 112
_cell_length_a 15.330819
_cell_length_b 14.480694
_cell_length_c 26.799235
_cell_angle_alpha 90.000000
_cell_angle_beta 90.000000
_cell_angle_gamma 90.000000
_cell_volume 5949.454255
_symmetry_space_group_name_H-M "I M M A"
_symmetry_group_IT_number 74
_symmetry_cell_setting 'orthorhombic'
loop_
_space_group_symop_operation_xyz
x,y,z
-x,1/2-y,z
x,-y,-z
-x,1/2+y,-z
-x,-y,-z
x,1/2+y,-z
-x,y,z
x,1/2-y,z
1/2+x,1/2+y,1/2+z
1/2-x,-y,1/2+z
1/2+x,1/2-y,1/2-z
1/2-x,y,1/2-z
1/2-x,1/2-y,1/2-z
1/2+x,y,1/2-z
1/2-x,1/2+y,1/2+z
1/2+x,-y,1/2+z
loop_
_atom_site_type_symbol
_atom_site_label
_atom_site_fract_x
_atom_site_fract_y
_atom_site_fract_z
Si Si1 0.661733 0.862330 0.692080
Si Si2 0.095589 0.141330 0.083855
Si Si3 0.096447 0.359507 0.393954
Si Si4 0.105409 0.642115 0.326992
Si Si5 0.766232 0.905288 0.524932
Si Si6 0.145405 0.446494 0.293070
Si Si7 0.597003 0.141614 0.939734
O O1 0.665978 0.750000 0.694630
O O2 0.622274 0.893004 0.639081
O O3 0.758046 0.905847 0.696615
O O4 0.614347 0.903099 0.740828
O O5 0.086280 0.250000 0.091108
O O6 0.175364 0.133457 0.045273
O O7 0.000000 0.104049 0.068574
O O8 0.118242 0.250000 0.389962
O O9 0.169152 0.407052 0.427813
O O10 0.093991 0.406107 0.340145
O O11 0.000000 0.365906 0.417221
O O12 0.133083 0.750000 0.318306
O O13 0.141961 0.558063 0.293690
O O14 0.125633 0.612093 0.384287
O O15 0.000000 0.641392 0.322760
O O16 0.829960 0.865515 0.482053
O O17 0.740536 0.000000 0.500000
O O18 0.500000 0.101356 0.951669
O O19 0.584466 0.250000 0.933189
#
# Coordination Sequence:
#
# PCOD9539137 Si02
#       7
#    16  16  16  16  16  16  16
#     4  10  21  37  58  84 115 149 186 237 295 347
#     4  10  22  41  61  78 103 143 191 241 291 340
#     4  11  22  34  53  86 126 158 187 228 277 338
#     4   9  19  35  54  81 119 157 193 231 271 332
#     4  12  23  34  53  79 110 147 190 233 282 333
#     4  11  19  33  57  85 116 154 192 226 280 343
#     4   9  18  33  52  76 111 151 184 217 266 331
#
# _framework density 18.825254999999999
#
# number of rings (size 3 to 8) (size 9 to 14) (size 15 to 20)
#    0.000    1.714    1.429    5.571    0.000    4.857 
#    0.000    2.857    0.000    0.000    0.000    0.000 
#    0.000    4.571    0.000    0.000    0.000    0.000 
#
# Total GULP energy -311856.872158 kJ/mol
# GULP energy per Si atom -5568.872717 kJ/mol
# Density = 1.878241 g / cm^3
# Si number density = 18.825255 Si / 1000 Ang^3
#
#
#
# Elastic Constant Matrix: (Units=GPa)
#
#
# Indices 1 2 3 4 5 6 
#
# 1 93.4855 22.8088 28.4544 0.0000 0.0000 0.0000
# 2 22.8088 89.9905 36.9982 0.0000 0.0000 0.0000
# 3 28.4544 36.9982 55.0318 0.0000 0.0000 0.0000
# 4 0.0000 0.0000 0.0000 35.5347 0.0000 0.0000
# 5 0.0000 0.0000 0.0000 0.0000 -9.8098 0.0000
# 6 0.0000 0.0000 0.0000 0.0000 0.0000 59.2863
#
#
#
# Elastic Compliance Matrix: (Units=1/GPa)
#
#
# Indices 1 2 3 4 5 6 
#
# 1 0.012728 -0.000719 -0.006098 0.000000 0.000000 0.000000
# 2 -0.000719 0.015398 -0.009980 0.000000 0.000000 0.000000
# 3 -0.006098 -0.009980 0.028034 0.000000 0.000000 0.000000
# 4 0.000000 0.000000 0.000000 0.028142 0.000000 0.000000
# 5 0.000000 0.000000 0.000000 0.000000 -0.101939 0.000000
# 6 0.000000 0.000000 0.000000 0.000000 0.000000 0.016867
#
#
# Mechanical properties :
#
#
# Convention : Reuss Voigt Hill
#
# Bulk Modulus (GPa) = 44.31469 46.11451 45.21460
# Shear Modulus (GPa) = 123.92763 27.01866 75.47315
#
# Velocity S-wave (km/s) = 8.12240 3.79256 6.33865
# Velocity P-wave (km/s) = 10.56199 6.61266 8.81144
#
# Compressibility (1/GPa) = 0.02256588
#
# Stress axis : x y z
#
# Youngs Moduli (GPa) = 78.56524 64.94455 35.67106
#
# Poissons Ratio (x) = 0.04670 0.21751
# Poissons Ratio (y) = 0.05650 0.35600
# Poissons Ratio (z) = 0.47907 0.64816
#
# Static dielectric constant tensor:
#      x y z
#    x 1.683810 0.000000 0.000000 
#    y 0.000000 1.677280 0.000000 
#    z 0.000000 0.000000 3.687730 
# 
# From -- ./inp_files/67239.got.cif
#   From: 2010.05.17/outbox.cif.g08.bks.cpg/sg74_34_cif.got.tgz:67239.got - 2010.06.03 17:57:02.
