data_PCOD9539688
_publ_section_title
;
Structure prediction by ZEFSAII (Michael W. Deem and Ramdas Pophale) SiO2 
 PCOD9539688
Probable space group: I M M A
;
_chemical_formula_sum "Si O2"
_cell_formula_units_Z 64
_cell_length_a 25.838641
_cell_length_b 10.755956
_cell_length_c 11.782467
_cell_angle_alpha 90.000000
_cell_angle_beta 90.000000
_cell_angle_gamma 90.000000
_cell_volume 3274.574812
_symmetry_space_group_name_H-M "I M M A"
_symmetry_group_IT_number 74
_symmetry_cell_setting 'orthorhombic'
loop_
_space_group_symop_operation_xyz
x,y,z
-x,1/2-y,z
x,-y,-z
-x,1/2+y,-z
-x,-y,-z
x,1/2+y,-z
-x,y,z
x,1/2-y,z
1/2+x,1/2+y,1/2+z
1/2-x,-y,1/2+z
1/2+x,1/2-y,1/2-z
1/2-x,y,1/2-z
1/2-x,1/2-y,1/2-z
1/2+x,y,1/2-z
1/2-x,1/2+y,1/2+z
1/2+x,-y,1/2+z
loop_
_atom_site_type_symbol
_atom_site_label
_atom_site_fract_x
_atom_site_fract_y
_atom_site_fract_z
Si Si1 0.500000 0.891478 0.594111
Si Si2 0.769456 0.750000 0.934563
Si Si3 0.823175 0.500000 0.000000
Si Si4 0.103807 0.972120 0.782832
Si Si5 0.668191 0.250000 0.195307
Si Si6 0.062220 0.887038 0.416757
O O1 0.500000 0.750000 0.547637
O O2 0.448729 0.911195 0.668978
O O3 0.500000 0.000000 0.500000
O O4 0.788625 0.875693 0.994722
O O5 0.708706 0.750000 0.907062
O O6 0.798717 0.750000 0.812832
O O7 0.859947 0.503773 0.110453
O O8 0.133413 0.871923 0.705734
O O9 0.088362 0.087012 0.704145
O O10 0.075775 0.750000 0.461012
O O11 0.000000 0.891209 0.401761
O O12 0.075603 0.000000 0.500000
#
# Coordination Sequence:
#
# PCOD9539688 Si02
#       6
#     8   8   8  16   8  16
#     4  12  24  36  59 102 147 180 213 255 327 419
#     4   9  20  42  62  88 118 163 210 279 321 390
#     4  10  22  37  68  96 128 163 212 272 350 396
#     4  11  21  38  64  97 131 173 214 265 331 410
#     4   9  20  39  64  83 121 169 219 252 327 383
#     4  10  23  40  59  85 126 177 220 266 311 384
#
# _framework density 19.544522000000001
#
# number of rings (size 3 to 8) (size 9 to 14) (size 15 to 20)
#    0.000    1.750    3.750    0.000    3.500    1.000 
#    2.250    0.000    0.000    3.000    0.000    0.000 
#    0.000    0.000    0.000    0.000    0.000    0.000 
#
# Total GULP energy -178680.426481 kJ/mol
# GULP energy per Si atom -5583.763328 kJ/mol
# Density = 1.950004 g / cm^3
# Si number density = 19.544522 Si / 1000 Ang^3
#
#
#
# Elastic Constant Matrix: (Units=GPa)
#
#
# Indices 1 2 3 4 5 6 
#
# 1 118.7349 62.9935 46.2382 0.0000 0.0000 0.0000
# 2 62.9935 178.5478 65.0947 0.0000 0.0000 0.0000
# 3 46.2382 65.0947 80.6561 0.0000 0.0000 0.0000
# 4 0.0000 0.0000 0.0000 34.4165 0.0000 0.0000
# 5 0.0000 0.0000 0.0000 0.0000 15.8724 0.0000
# 6 0.0000 0.0000 0.0000 0.0000 0.0000 16.6286
#
#
#
# Elastic Compliance Matrix: (Units=1/GPa)
#
#
# Indices 1 2 3 4 5 6 
#
# 1 0.011495 -0.002342 -0.004699 0.000000 0.000000 0.000000
# 2 -0.002342 0.008413 -0.005447 0.000000 0.000000 0.000000
# 3 -0.004699 -0.005447 0.019489 0.000000 0.000000 0.000000
# 4 0.000000 0.000000 0.000000 0.029056 0.000000 0.000000
# 5 0.000000 0.000000 0.000000 0.000000 0.063002 0.000000
# 6 0.000000 0.000000 0.000000 0.000000 0.000000 0.060137
#
#
# Mechanical properties :
#
#
# Convention : Reuss Voigt Hill
#
# Bulk Modulus (GPa) = 69.35317 80.73239 75.04278
# Shear Modulus (GPa) = 22.58606 26.95767 24.77187
#
# Velocity S-wave (km/s) = 3.40313 3.71792 3.56400
# Velocity P-wave (km/s) = 7.14167 7.73480 7.44415
#
# Compressibility (1/GPa) = 0.01441895
#
# Stress axis : x y z
#
# Youngs Moduli (GPa) = 86.99591 118.86390 51.31223
#
# Poissons Ratio (x) = 0.27840 0.24114
# Poissons Ratio (y) = 0.20376 0.27950
# Poissons Ratio (z) = 0.40883 0.64746
#
# Static dielectric constant tensor:
#      x y z
#    x 1.675190 0.000000 0.000000 
#    y 0.000000 1.673680 0.000000 
#    z 0.000000 0.000000 1.675500 
# 
# From -- ./inp_files/24705.got.cif
#   From: 2010.05.17/outbox.cif.g08.bks.cpg/sg74_13_cif.got.tgz:24705.got - 2010.06.03 17:57:02.
