data_PCOD9539149
_publ_section_title
;
Structure prediction by ZEFSAII (Michael W. Deem and Ramdas Pophale) SiO2 
 PCOD9539149
Probable space group: I M M A
;
_chemical_formula_sum "Si O2"
_cell_formula_units_Z 64
_cell_length_a 26.300743
_cell_length_b 10.478007
_cell_length_c 9.555568
_cell_angle_alpha 90.000000
_cell_angle_beta 90.000000
_cell_angle_gamma 90.000000
_cell_volume 2633.317402
_symmetry_space_group_name_H-M "I M M A"
_symmetry_group_IT_number 74
_symmetry_cell_setting 'orthorhombic'
loop_
_space_group_symop_operation_xyz
x,y,z
-x,1/2-y,z
x,-y,-z
-x,1/2+y,-z
-x,-y,-z
x,1/2+y,-z
-x,y,z
x,1/2-y,z
1/2+x,1/2+y,1/2+z
1/2-x,-y,1/2+z
1/2+x,1/2-y,1/2-z
1/2-x,y,1/2-z
1/2-x,1/2-y,1/2-z
1/2+x,y,1/2-z
1/2-x,1/2+y,1/2+z
1/2+x,-y,1/2+z
loop_
_atom_site_type_symbol
_atom_site_label
_atom_site_fract_x
_atom_site_fract_y
_atom_site_fract_z
Si Si1 0.410546 0.602944 0.627287
Si Si2 0.668229 0.882817 0.089492
Si Si3 0.944748 0.610486 0.330994
Si Si4 0.701643 0.468756 0.337341
O O1 0.413034 0.500000 0.500000
O O2 0.427868 0.750000 0.604915
O O3 0.439686 0.520066 0.744200
O O4 0.350884 0.609367 0.669211
O O5 0.688770 0.750000 0.035903
O O6 0.607081 0.882830 0.082455
O O7 0.685585 0.904817 0.248746
O O8 0.685704 0.000000 0.000000
O O9 0.943039 0.750000 0.251344
O O10 0.000000 0.610825 0.401169
O O11 0.710168 0.500000 0.500000
O O12 0.750000 0.417898 0.250000
#
# Coordination Sequence:
#
# PCOD9539149 Si02
#       4
#    16  16  16  16
#     4  10  21  37  58  86 122 164 210 260 314 377
#     4  10  22  41  64  93 130 171 216 265 318 379
#     4   9  19  37  60  87 122 163 207 259 317 374
#     4  10  22  41  66  96 128 166 212 266 324 382
#
# _framework density 24.303944000000001
#
# number of rings (size 3 to 8) (size 9 to 14) (size 15 to 20)
#    0.000    2.250    0.000    1.500    0.000   12.500 
#    0.000    5.000    0.000    0.000    0.000    0.000 
#    0.000    0.000    0.000    0.000    0.000    0.000 
#
# Total GULP energy -178223.706912 kJ/mol
# GULP energy per Si atom -5569.490841 kJ/mol
# Density = 2.424863 g / cm^3
# Si number density = 24.303944 Si / 1000 Ang^3
#
#
#
# Elastic Constant Matrix: (Units=GPa)
#
#
# Indices 1 2 3 4 5 6 
#
# 1 110.4392 13.9347 20.0054 0.0000 0.0000 0.0000
# 2 13.9347 258.2597 61.7173 0.0000 0.0000 0.0000
# 3 20.0054 61.7173 94.5768 0.0000 0.0000 0.0000
# 4 0.0000 0.0000 0.0000 20.3543 0.0000 0.0000
# 5 0.0000 0.0000 0.0000 0.0000 58.2244 0.0000
# 6 0.0000 0.0000 0.0000 0.0000 0.0000 -19.6333
#
#
#
# Elastic Compliance Matrix: (Units=1/GPa)
#
#
# Indices 1 2 3 4 5 6 
#
# 1 0.009416 -0.000038 -0.001967 0.000000 0.000000 0.000000
# 2 -0.000038 0.004588 -0.002986 0.000000 0.000000 0.000000
# 3 -0.001967 -0.002986 0.012938 0.000000 0.000000 0.000000
# 4 0.000000 0.000000 0.000000 0.049130 0.000000 0.000000
# 5 0.000000 0.000000 0.000000 0.000000 0.017175 0.000000
# 6 0.000000 0.000000 0.000000 0.000000 0.000000 -0.050934
#
#
# Mechanical properties :
#
#
# Convention : Reuss Voigt Hill
#
# Bulk Modulus (GPa) = 58.96182 72.73229 65.84706
# Shear Modulus (GPa) = 86.28629 36.29697 61.29163
#
# Velocity S-wave (km/s) = 5.96490 3.86872 5.02728
# Velocity P-wave (km/s) = 8.47071 7.06733 7.80064
#
# Compressibility (1/GPa) = 0.01696013
#
# Stress axis : x y z
#
# Youngs Moduli (GPa) = 106.20399 217.97803 77.29290
#
# Poissons Ratio (x) = 0.00828 0.15203
# Poissons Ratio (y) = 0.00404 0.23077
# Poissons Ratio (z) = 0.20889 0.65081
#
# Static dielectric constant tensor:
#      x y z
#    x 1.935500 0.000000 0.000000 
#    y 0.000000 1.580580 0.000000 
#    z 0.000000 0.000000 2.002200 
# 
# From -- ./inp_files/15814.got.cif
#   From: 2010.05.17/outbox.cif.g08.bks.cpg/sg74_8_cif.got.tgz:15814.got - 2010.06.03 17:57:02.
