data_PCOD9539065
_publ_section_title
;
Structure prediction by ZEFSAII (Michael W. Deem and Ramdas Pophale) SiO2 
 PCOD9539065
Probable space group: I M M A
;
_chemical_formula_sum "Si O2"
_cell_formula_units_Z 116
_cell_length_a 22.806025
_cell_length_b 9.315581
_cell_length_c 29.111181
_cell_angle_alpha 90.000000
_cell_angle_beta 90.000000
_cell_angle_gamma 90.000000
_cell_volume 6184.710378
_symmetry_space_group_name_H-M "I M M A"
_symmetry_group_IT_number 74
_symmetry_cell_setting 'orthorhombic'
loop_
_space_group_symop_operation_xyz
x,y,z
-x,1/2-y,z
x,-y,-z
-x,1/2+y,-z
-x,-y,-z
x,1/2+y,-z
-x,y,z
x,1/2-y,z
1/2+x,1/2+y,1/2+z
1/2-x,-y,1/2+z
1/2+x,1/2-y,1/2-z
1/2-x,y,1/2-z
1/2-x,1/2-y,1/2-z
1/2+x,y,1/2-z
1/2-x,1/2+y,1/2+z
1/2+x,-y,1/2+z
loop_
_atom_site_type_symbol
_atom_site_label
_atom_site_fract_x
_atom_site_fract_y
_atom_site_fract_z
Si Si1 0.174973 0.910815 0.632294
Si Si2 0.000000 0.750000 0.343058
Si Si3 0.936234 0.980844 0.690497
Si Si4 0.207461 0.918471 0.452704
Si Si5 0.934115 0.920393 0.883043
Si Si6 0.599629 0.078262 0.707333
Si Si7 0.218666 0.914796 0.799250
Si Si8 0.846605 0.578636 0.048288
O O1 0.182552 0.750000 0.613481
O O2 0.119108 0.911143 0.665974
O O3 0.232177 0.944447 0.662778
O O4 0.171787 0.018244 0.589921
O O5 0.050020 0.624826 0.337792
O O6 0.000000 0.905289 0.690941
O O7 0.921201 0.025409 0.742661
O O8 0.197532 0.750000 0.458375
O O9 0.277069 0.940495 0.442629
O O10 0.194170 0.000000 0.500000
O O11 0.921551 0.750000 0.880183
O O12 0.000000 0.936896 0.902436
O O13 0.932973 0.993821 0.833094
O O14 0.886172 0.002282 0.913516
O O15 0.592121 0.250000 0.704018
O O16 0.666827 0.028971 0.700830
O O17 0.196482 0.750000 0.805918
O O18 0.250000 0.918366 0.750000
O O19 0.858116 0.750000 0.045986
O O20 0.858920 0.500000 0.000000
#
# Coordination Sequence:
#
# PCOD9539065 Si02
#       8
#    16   4  16  16  16  16  16  16
#     4  11  23  38  60  87 121 157 196 240 287 343
#     4   8  20  40  54  82 114 152 202 236 294 336
#     4  10  21  38  58  81 114 155 197 238 288 340
#     4  10  22  39  64  92 121 150 189 235 291 353
#     4  11  25  40  56  81 113 156 202 248 298 350
#     4  12  22  37  58  84 117 154 200 249 295 348
#     4  10  21  37  55  82 120 159 194 237 292 346
#     4  10  21  40  64  90 115 149 190 239 296 353
#
# _framework density 18.755932000000001
#
# number of rings (size 3 to 8) (size 9 to 14) (size 15 to 20)
#    0.414    1.103    2.069    2.897    0.966    7.448 
#    0.000    0.000    0.000    0.414    0.000    0.000 
#    0.000    0.000    0.000    0.000    0.000    0.000 
#
# Total GULP energy -323139.583102 kJ/mol
# GULP energy per Si atom -5571.372122 kJ/mol
# Density = 1.871324 g / cm^3
# Si number density = 18.755932 Si / 1000 Ang^3
#
#
#
# Elastic Constant Matrix: (Units=GPa)
#
#
# Indices 1 2 3 4 5 6 
#
# 1 73.2462 36.1277 29.4344 0.0000 0.0000 0.0000
# 2 36.1277 110.0317 52.9238 0.0000 0.0000 0.0000
# 3 29.4344 52.9238 95.6839 0.0000 0.0000 0.0000
# 4 0.0000 0.0000 0.0000 14.2503 0.0000 0.0000
# 5 0.0000 0.0000 0.0000 0.0000 8.6469 0.0000
# 6 0.0000 0.0000 0.0000 0.0000 0.0000 19.0499
#
#
#
# Elastic Compliance Matrix: (Units=1/GPa)
#
#
# Indices 1 2 3 4 5 6 
#
# 1 0.016859 -0.004143 -0.002895 0.000000 0.000000 0.000000
# 2 -0.004143 0.013401 -0.006138 0.000000 0.000000 0.000000
# 3 -0.002895 -0.006138 0.014736 0.000000 0.000000 0.000000
# 4 0.000000 0.000000 0.000000 0.070174 0.000000 0.000000
# 5 0.000000 0.000000 0.000000 0.000000 0.115649 0.000000
# 6 0.000000 0.000000 0.000000 0.000000 0.000000 0.052494
#
#
# Mechanical properties :
#
#
# Convention : Reuss Voigt Hill
#
# Bulk Modulus (GPa) = 53.63217 57.32596 55.47907
# Shear Modulus (GPa) = 15.82885 19.08782 17.45833
#
# Velocity S-wave (km/s) = 2.90821 3.19359 3.05424
# Velocity P-wave (km/s) = 6.31932 6.65051 6.48703
#
# Compressibility (1/GPa) = 0.01864552
#
# Stress axis : x y z
#
# Youngs Moduli (GPa) = 59.31397 74.62250 67.85988
#
# Poissons Ratio (x) = 0.30919 0.19643
# Poissons Ratio (y) = 0.24576 0.41649
# Poissons Ratio (z) = 0.17169 0.45800
#
# Static dielectric constant tensor:
#      x y z
#    x 1.981800 0.000000 0.000000 
#    y 0.000000 1.635540 0.000000 
#    z 0.000000 0.000000 1.634890 
# 
# From -- ./inp_files/68732.got.cif
#   From: 2010.05.17/outbox.cif.g08.bks.cpg/sg74_35_cif.got.tgz:68732.got - 2010.06.03 17:57:02.
