data_PCOD9539300
_publ_section_title
;
Structure prediction by ZEFSAII (Michael W. Deem and Ramdas Pophale) SiO2 
 PCOD9539300
Probable space group: I M M A
;
_chemical_formula_sum "Si O2"
_cell_formula_units_Z 72
_cell_length_a 17.351167
_cell_length_b 8.235702
_cell_length_c 25.027832
_cell_angle_alpha 90.000000
_cell_angle_beta 90.000000
_cell_angle_gamma 90.000000
_cell_volume 3576.453185
_symmetry_space_group_name_H-M "I M M A"
_symmetry_group_IT_number 74
_symmetry_cell_setting 'orthorhombic'
loop_
_space_group_symop_operation_xyz
x,y,z
-x,1/2-y,z
x,-y,-z
-x,1/2+y,-z
-x,-y,-z
x,1/2+y,-z
-x,y,z
x,1/2-y,z
1/2+x,1/2+y,1/2+z
1/2-x,-y,1/2+z
1/2+x,1/2-y,1/2-z
1/2-x,y,1/2-z
1/2-x,1/2-y,1/2-z
1/2+x,y,1/2-z
1/2-x,1/2+y,1/2+z
1/2+x,-y,1/2+z
loop_
_atom_site_type_symbol
_atom_site_label
_atom_site_fract_x
_atom_site_fract_y
_atom_site_fract_z
Si Si1 0.088860 0.444457 0.560765
Si Si2 0.500000 0.054512 0.561066
Si Si3 0.703634 0.441178 0.150150
Si Si4 0.124687 0.441672 0.853799
Si Si5 0.915437 0.943894 0.736659
O O1 0.101901 0.500000 0.500000
O O2 0.098023 0.250000 0.564660
O O3 0.147177 0.531523 0.600405
O O4 0.000000 0.485250 0.574331
O O5 0.500000 0.250000 0.560136
O O6 0.574465 0.000634 0.595602
O O7 0.500000 0.000000 0.500000
O O8 0.719465 0.250000 0.158108
O O9 0.784852 0.526062 0.140585
O O10 0.655645 0.506298 0.201260
O O11 0.110755 0.250000 0.848113
O O12 0.097308 0.523024 0.798892
O O13 0.916703 0.750000 0.728101
O O14 0.000000 0.008879 0.720637
#
# Coordination Sequence:
#
# PCOD9539300 Si02
#       5
#    16   8  16  16  16
#     4  10  21  38  60  86 118 158 201 246 299 357
#     4  10  24  44  66  90 116 154 203 254 309 368
#     4  11  23  38  59  90 124 160 203 249 301 363
#     4  11  23  41  61  87 121 155 198 254 310 365
#     4  10  21  38  61  88 121 161 202 244 299 367
#
# _framework density 20.131677
#
# number of rings (size 3 to 8) (size 9 to 14) (size 15 to 20)
#    0.000    1.556    1.111    3.333    0.000    9.333 
#    0.000    2.222    0.000    0.000    0.000    0.000 
#    0.000    0.000    0.000    0.000    0.000    0.000 
#
# Total GULP energy -201204.032783 kJ/mol
# GULP energy per Si atom -5589.000911 kJ/mol
# Density = 2.008586 g / cm^3
# Si number density = 20.131677 Si / 1000 Ang^3
#
#
#
# Elastic Constant Matrix: (Units=GPa)
#
#
# Indices 1 2 3 4 5 6 
#
# 1 137.0433 4.3813 74.2670 0.0000 0.0000 0.0000
# 2 4.3813 12.9002 -7.7737 0.0000 0.0000 0.0000
# 3 74.2670 -7.7737 120.7063 0.0000 0.0000 0.0000
# 4 0.0000 0.0000 0.0000 30.9342 0.0000 0.0000
# 5 0.0000 0.0000 0.0000 0.0000 -20.4762 0.0000
# 6 0.0000 0.0000 0.0000 0.0000 0.0000 15.1228
#
#
#
# Elastic Compliance Matrix: (Units=1/GPa)
#
#
# Indices 1 2 3 4 5 6 
#
# 1 0.011824 -0.008739 -0.007838 0.000000 0.000000 0.000000
# 2 -0.008739 0.087107 0.010986 0.000000 0.000000 0.000000
# 3 -0.007838 0.010986 0.013814 0.000000 0.000000 0.000000
# 4 0.000000 0.000000 0.000000 0.032327 0.000000 0.000000
# 5 0.000000 0.000000 0.000000 0.000000 -0.048837 0.000000
# 6 0.000000 0.000000 0.000000 0.000000 0.000000 0.066125
#
#
# Mechanical properties :
#
#
# Convention : Reuss Voigt Hill
#
# Bulk Modulus (GPa) = 9.84590 45.82213 27.83401
# Shear Modulus (GPa) = 24.10869 18.43450 21.27160
#
# Velocity S-wave (km/s) = 3.46432 3.02933 3.25410
# Velocity P-wave (km/s) = 4.57202 5.92000 5.28913
#
# Compressibility (1/GPa) = 0.10156511
#
# Stress axis : x y z
#
# Youngs Moduli (GPa) = 84.57592 11.48019 72.38859
#
# Poissons Ratio (x) = 0.10032 0.56735
# Poissons Ratio (y) = 0.73908 -0.79529
# Poissons Ratio (z) = 0.66287 -0.12613
#
# Static dielectric constant tensor:
#      x y z
#    x 1.717300 0.000000 0.000000 
#    y 0.000000 1.710670 0.000000 
#    z 0.000000 0.000000 1.683810 
# 
# From -- ./inp_files/66758.got.cif
#   From: 2010.05.17/outbox.cif.g08.bks.cpg/sg74_34_cif.got.tgz:66758.got - 2010.06.03 17:57:02.
