data_PCOD9539192
_publ_section_title
;
Structure prediction by ZEFSAII (Michael W. Deem and Ramdas Pophale) SiO2 
 PCOD9539192
Probable space group: I M M A
;
_chemical_formula_sum "Si O2"
_cell_formula_units_Z 48
_cell_length_a 15.372583
_cell_length_b 13.134847
_cell_length_c 11.391096
_cell_angle_alpha 90.000000
_cell_angle_beta 90.000000
_cell_angle_gamma 90.000000
_cell_volume 2300.050528
_symmetry_space_group_name_H-M "I M M A"
_symmetry_group_IT_number 74
_symmetry_cell_setting 'orthorhombic'
loop_
_space_group_symop_operation_xyz
x,y,z
-x,1/2-y,z
x,-y,-z
-x,1/2+y,-z
-x,-y,-z
x,1/2+y,-z
-x,y,z
x,1/2-y,z
1/2+x,1/2+y,1/2+z
1/2-x,-y,1/2+z
1/2+x,1/2-y,1/2-z
1/2-x,y,1/2-z
1/2-x,1/2-y,1/2-z
1/2+x,y,1/2-z
1/2-x,1/2+y,1/2+z
1/2+x,-y,1/2+z
loop_
_atom_site_type_symbol
_atom_site_label
_atom_site_fract_x
_atom_site_fract_y
_atom_site_fract_z
Si Si1 0.100926 0.543966 0.880401
Si Si2 0.895676 0.250000 0.503395
Si Si3 0.892588 0.250000 0.234822
Si Si4 0.351515 0.361379 0.778565
O O1 0.138432 0.648606 0.830864
O O2 0.104301 0.456562 0.781997
O O3 0.000000 0.567094 0.907312
O O4 0.141542 0.500000 0.000000
O O5 0.864987 0.250000 0.370532
O O6 0.865455 0.153874 0.582393
O O7 0.000000 0.250000 0.503876
O O8 0.000000 0.250000 0.236735
O O9 0.382609 0.250000 0.730843
O O10 0.250000 0.369185 0.750000
#
# Coordination Sequence:
#
# PCOD9539192 Si02
#       4
#    16   8   8  16
#     4  10  21  37  60  82 111 149 190 237 280 335
#     4   9  17  34  61  83 109 144 185 232 280 332
#     4   9  20  36  54  90 113 132 189 244 278 327
#     4   9  20  38  55  82 114 151 182 228 278 339
#
# _framework density 20.869107
#
# number of rings (size 3 to 8) (size 9 to 14) (size 15 to 20)
#    1.000    1.667    0.000    1.000    2.333    1.333 
#    6.000    5.833    0.000    0.000    0.000    0.000 
#    0.000    0.000    0.000    0.000    0.000    0.000 
#
# Total GULP energy -133694.809129 kJ/mol
# GULP energy per Si atom -5570.617047 kJ/mol
# Density = 2.082161 g / cm^3
# Si number density = 20.869107 Si / 1000 Ang^3
#
#
#
# Elastic Constant Matrix: (Units=GPa)
#
#
# Indices 1 2 3 4 5 6 
#
# 1 37.0082 -1.3845 12.8622 0.0000 0.0000 0.0000
# 2 -1.3845 156.1199 94.6045 0.0000 0.0000 0.0000
# 3 12.8622 94.6045 187.3056 0.0000 0.0000 0.0000
# 4 0.0000 0.0000 0.0000 21.6697 0.0000 0.0000
# 5 0.0000 0.0000 0.0000 0.0000 -25.5856 0.0000
# 6 0.0000 0.0000 0.0000 0.0000 0.0000 4.9920
#
#
#
# Elastic Compliance Matrix: (Units=1/GPa)
#
#
# Indices 1 2 3 4 5 6 
#
# 1 0.028128 0.002046 -0.002965 0.000000 0.000000 0.000000
# 2 0.002046 0.009379 -0.004878 0.000000 0.000000 0.000000
# 3 -0.002965 -0.004878 0.008006 0.000000 0.000000 0.000000
# 4 0.000000 0.000000 0.000000 0.046147 0.000000 0.000000
# 5 0.000000 0.000000 0.000000 0.000000 -0.039084 0.000000
# 6 0.000000 0.000000 0.000000 0.000000 0.000000 0.200320
#
#
# Mechanical properties :
#
#
# Convention : Reuss Voigt Hill
#
# Bulk Modulus (GPa) = 29.48098 65.84423 47.66260
# Shear Modulus (GPa) = 18.12933 18.50532 18.31733
#
# Velocity S-wave (km/s) = 2.95060 2.98104 2.96586
# Velocity P-wave (km/s) = 5.07595 6.59305 5.88361
#
# Compressibility (1/GPa) = 0.03392017
#
# Stress axis : x y z
#
# Youngs Moduli (GPa) = 35.55171 106.61768 124.90368
#
# Poissons Ratio (x) = -0.21816 0.37034
# Poissons Ratio (y) = -0.07274 0.60926
# Poissons Ratio (z) = 0.10541 0.52006
#
# Static dielectric constant tensor:
#      x y z
#    x 1.764390 0.000000 0.000000 
#    y 0.000000 1.752100 0.000000 
#    z 0.000000 0.000000 1.755410 
# 
# From -- ./inp_files/13090.got.cif
#   From: 2010.05.17/outbox.cif.g08.bks.cpg/sg74_7_cif.got.tgz:13090.got - 2010.06.03 17:57:02.
