data_PCOD9539806
_publ_section_title
;
Structure prediction by ZEFSAII (Michael W. Deem and Ramdas Pophale) SiO2 
 PCOD9539806
Probable space group: I M M A
;
_chemical_formula_sum "Si O2"
_cell_formula_units_Z 80
_cell_length_a 8.376718
_cell_length_b 31.052645
_cell_length_c 14.183382
_cell_angle_alpha 90.000000
_cell_angle_beta 90.000000
_cell_angle_gamma 90.000000
_cell_volume 3689.370693
_symmetry_space_group_name_H-M "I M M A"
_symmetry_group_IT_number 74
_symmetry_cell_setting 'orthorhombic'
loop_
_space_group_symop_operation_xyz
x,y,z
-x,1/2-y,z
x,-y,-z
-x,1/2+y,-z
-x,-y,-z
x,1/2+y,-z
-x,y,z
x,1/2-y,z
1/2+x,1/2+y,1/2+z
1/2-x,-y,1/2+z
1/2+x,1/2-y,1/2-z
1/2-x,y,1/2-z
1/2-x,1/2-y,1/2-z
1/2+x,y,1/2-z
1/2-x,1/2+y,1/2+z
1/2+x,-y,1/2+z
loop_
_atom_site_type_symbol
_atom_site_label
_atom_site_fract_x
_atom_site_fract_y
_atom_site_fract_z
Si Si1 0.807803 0.660948 0.144122
Si Si2 0.307043 0.296926 0.458200
Si Si3 0.191529 0.973021 0.859263
Si Si4 0.310917 0.117269 0.142571
Si Si5 0.193173 0.933903 0.141131
O O1 0.750000 0.668303 0.250000
O O2 0.758933 0.695766 0.067100
O O3 0.752277 0.613385 0.108723
O O4 0.000000 0.660097 0.146696
O O5 0.500000 0.297481 0.453509
O O6 0.251841 0.250000 0.423962
O O7 0.246754 0.338682 0.403973
O O8 0.250000 0.972748 0.750000
O O9 0.247897 0.927693 0.901559
O O10 0.000000 0.972347 0.860961
O O11 0.245387 0.019647 0.898999
O O12 0.500000 0.115351 0.141961
O O13 0.250000 0.118109 0.250000
O O14 0.250000 0.934514 0.250000
O O15 0.000000 0.933912 0.136733
#
# Coordination Sequence:
#
# PCOD9539806 Si02
#       5
#    16  16  16  16  16
#     4   9  18  34  56  82 112 145 181 221 266 316
#     4  10  22  40  59  79 106 141 182 228 274 320
#     4   9  15  26  47  75 107 141 176 213 255 309
#     4  11  22  37  58  82 109 141 177 220 270 324
#     4   8  14  25  45  74 106 141 177 212 254 306
#
# _framework density 21.683914000000001
#
# number of rings (size 3 to 8) (size 9 to 14) (size 15 to 20)
#    0.000    2.600    0.000    3.600    0.000    2.800 
#    0.000    1.000    0.000    6.000    0.000    0.000 
#    0.000    0.000    0.000    0.000    0.000    0.000 
#
# Total GULP energy -223108.584137 kJ/mol
# GULP energy per Si atom -5577.714603 kJ/mol
# Density = 2.163456 g / cm^3
# Si number density = 21.683914 Si / 1000 Ang^3
#
#
#
# Elastic Constant Matrix: (Units=GPa)
#
#
# Indices 1 2 3 4 5 6 
#
# 1 41.8673 35.4244 -0.9660 -0.0002 0.0000 0.0000
# 2 35.4244 156.6342 17.1984 0.0002 0.0000 0.0000
# 3 -0.9660 17.1984 37.1835 -0.0004 -0.0001 -0.0001
# 4 -0.0002 0.0002 -0.0004 31.6095 0.0000 -0.0001
# 5 0.0000 0.0000 -0.0001 0.0000 12.5467 0.0000
# 6 0.0000 0.0000 -0.0001 -0.0001 0.0000 18.9884
#
#
#
# Elastic Compliance Matrix: (Units=1/GPa)
#
#
# Indices 1 2 3 4 5 6 
#
# 1 0.030132 -0.007270 0.004145 0.000000 0.000000 0.000000
# 2 -0.007270 0.008480 -0.004111 0.000000 0.000000 0.000000
# 3 0.004145 -0.004111 0.028903 0.000000 0.000000 0.000000
# 4 0.000000 0.000000 0.000000 0.031636 0.000000 0.000000
# 5 0.000000 0.000000 0.000000 0.000000 0.079702 0.000000
# 6 0.000000 0.000000 0.000000 0.000000 0.000000 0.052664
#
#
# Mechanical properties :
#
#
# Convention : Reuss Voigt Hill
#
# Bulk Modulus (GPa) = 18.85254 37.66652 28.25953
# Shear Modulus (GPa) = 18.96323 24.89749 21.93036
#
# Velocity S-wave (km/s) = 2.96045 3.39219 3.18365
# Velocity P-wave (km/s) = 4.51651 5.72285 5.15509
#
# Compressibility (1/GPa) = 0.05304325
#
# Stress axis : x y z
#
# Youngs Moduli (GPa) = 33.18776 117.92721 34.59872
#
# Poissons Ratio (x) = 0.85730 -0.14342
# Poissons Ratio (y) = 0.24127 0.14224
# Poissons Ratio (z) = -0.13757 0.48480
#
# Static dielectric constant tensor:
#      x y z
#    x 1.729730 0.000000 0.000000 
#    y 0.000000 1.844910 0.000000 
#    z 0.000000 0.000000 1.781140 
# 
# From -- ./inp_files/39954.got.cif
#   From: 2010.05.17/outbox.cif.g08.bks.cpg/sg74_20_cif.got.tgz:39954.got - 2010.06.03 17:57:02.
