data_PCOD9539089
_publ_section_title
;
Structure prediction by ZEFSAII (Michael W. Deem and Ramdas Pophale) SiO2 
 PCOD9539089
Probable space group: I M M A
;
_chemical_formula_sum "Si O2"
_cell_formula_units_Z 112
_cell_length_a 29.333690
_cell_length_b 15.487906
_cell_length_c 10.320842
_cell_angle_alpha 90.000000
_cell_angle_beta 90.000000
_cell_angle_gamma 90.000000
_cell_volume 4688.938447
_symmetry_space_group_name_H-M "I M M A"
_symmetry_group_IT_number 74
_symmetry_cell_setting 'orthorhombic'
loop_
_space_group_symop_operation_xyz
x,y,z
-x,1/2-y,z
x,-y,-z
-x,1/2+y,-z
-x,-y,-z
x,1/2+y,-z
-x,y,z
x,1/2-y,z
1/2+x,1/2+y,1/2+z
1/2-x,-y,1/2+z
1/2+x,1/2-y,1/2-z
1/2-x,y,1/2-z
1/2-x,1/2-y,1/2-z
1/2+x,y,1/2-z
1/2-x,1/2+y,1/2+z
1/2+x,-y,1/2+z
loop_
_atom_site_type_symbol
_atom_site_label
_atom_site_fract_x
_atom_site_fract_y
_atom_site_fract_z
Si Si1 0.821365 0.903641 0.025249
Si Si2 0.574453 0.154413 0.254767
Si Si3 0.852619 0.940290 0.373300
Si Si4 0.450617 0.959745 0.211623
Si Si5 0.917720 0.346135 0.933051
Si Si6 0.727690 0.652516 0.023611
Si Si7 0.324323 0.389849 0.234562
O O1 0.814292 0.862885 0.881022
O O2 0.863283 0.855778 0.092749
O O3 0.769713 0.904251 0.075131
O O4 0.838494 0.000000 0.000000
O O5 0.555468 0.250000 0.223598
O O6 0.576382 0.147537 0.411874
O O7 0.626396 0.150762 0.202822
O O8 0.552788 0.064053 0.209801
O O9 0.905867 0.922563 0.358524
O O10 0.817707 0.863738 0.393066
O O11 0.847616 0.000000 0.500000
O O12 0.834025 0.007058 0.266362
O O13 0.500000 0.933910 0.160181
O O14 0.443956 0.920369 0.355665
O O15 0.932760 0.250000 0.893032
O O16 0.742882 0.750000 0.034903
O O17 0.711982 0.632457 0.875632
#
# Coordination Sequence:
#
# PCOD9539089 Si02
#       7
#    16  16  16  16  16  16  16
#     4  11  20  34  58  86 118 153 188 229 282 344
#     4   9  18  34  57  86 120 151 179 227 294 354
#     4   9  20  40  58  78 110 147 188 237 287 333
#     4  11  23  39  61  84 108 147 197 245 297 352
#     4  10  21  37  56  83 120 155 189 231 281 344
#     4  11  22  34  53  83 116 153 195 235 278 333
#     4   9  18  34  57  82 113 153 191 226 271 335
#
# _framework density 23.886004
#
# number of rings (size 3 to 8) (size 9 to 14) (size 15 to 20)
#    0.000    2.000    0.000    5.571    0.000    4.857 
#    0.000    3.571    0.000    4.286    0.000    2.000 
#    0.000    0.000    0.000    0.000    0.000    0.000 
#
# Total GULP energy -312771.520786 kJ/mol
# GULP energy per Si atom -5585.205728 kJ/mol
# Density = 2.383164 g / cm^3
# Si number density = 23.886004 Si / 1000 Ang^3
#
#
#
# Elastic Constant Matrix: (Units=GPa)
#
#
# Indices 1 2 3 4 5 6 
#
# 1 119.8157 12.1802 -0.0550 0.0000 0.0000 0.0000
# 2 12.1802 78.2917 -5.2548 0.0000 0.0000 0.0000
# 3 -0.0550 -5.2548 38.9332 0.0000 0.0000 0.0000
# 4 0.0000 0.0000 0.0000 18.4093 0.0000 0.0000
# 5 0.0000 0.0000 0.0000 0.0000 5.8128 0.0000
# 6 0.0000 0.0000 0.0000 0.0000 0.0000 -0.4176
#
#
#
# Elastic Compliance Matrix: (Units=1/GPa)
#
#
# Indices 1 2 3 4 5 6 
#
# 1 0.008481 -0.001331 -0.000168 0.000000 0.000000 0.000000
# 2 -0.001331 0.013098 0.001766 0.000000 0.000000 0.000000
# 3 -0.000168 0.001766 0.025923 0.000000 0.000000 0.000000
# 4 0.000000 0.000000 0.000000 0.054320 0.000000 0.000000
# 5 0.000000 0.000000 0.000000 0.000000 0.172035 0.000000
# 6 0.000000 0.000000 0.000000 0.000000 0.000000 -2.394887
#
#
# Mechanical properties :
#
#
# Convention : Reuss Voigt Hill
#
# Bulk Modulus (GPa) = 20.81684 27.86460 24.34072
# Shear Modulus (GPa) = -2.37468 20.10559 8.86546
#
# Velocity S-wave (km/s) = -0.99816 2.90441 1.92863
# Velocity P-wave (km/s) = 2.72132 4.78941 3.89512
#
# Compressibility (1/GPa) = 0.04803803
#
# Stress axis : x y z
#
# Youngs Moduli (GPa) = 117.90566 76.34581 38.57561
#
# Poissons Ratio (x) = 0.10160 0.00647
# Poissons Ratio (y) = 0.15690 -0.06812
# Poissons Ratio (z) = 0.01976 -0.13483
#
# Static dielectric constant tensor:
#      x y z
#    x 1.891870 0.000000 0.000000 
#    y 0.000000 1.879580 0.000000 
#    z 0.000000 0.000000 2.014750 
# 
# From -- ./inp_files/21181.got.cif
#   From: 2010.05.17/outbox.cif.g08.bks.cpg/sg74_11_cif.got.tgz:21181.got - 2010.06.03 17:57:02.
