data_PCOD9539134
_publ_section_title
;
Structure prediction by ZEFSAII (Michael W. Deem and Ramdas Pophale) SiO2 
 PCOD9539134
Probable space group: I M M A
;
_chemical_formula_sum "Si O2"
_cell_formula_units_Z 80
_cell_length_a 15.563115
_cell_length_b 22.616494
_cell_length_c 11.461499
_cell_angle_alpha 90.000000
_cell_angle_beta 90.000000
_cell_angle_gamma 90.000000
_cell_volume 4034.253914
_symmetry_space_group_name_H-M "I M M A"
_symmetry_group_IT_number 74
_symmetry_cell_setting 'orthorhombic'
loop_
_space_group_symop_operation_xyz
x,y,z
-x,1/2-y,z
x,-y,-z
-x,1/2+y,-z
-x,-y,-z
x,1/2+y,-z
-x,y,z
x,1/2-y,z
1/2+x,1/2+y,1/2+z
1/2-x,-y,1/2+z
1/2+x,1/2-y,1/2-z
1/2-x,y,1/2-z
1/2-x,1/2-y,1/2-z
1/2+x,y,1/2-z
1/2-x,1/2+y,1/2+z
1/2+x,-y,1/2+z
loop_
_atom_site_type_symbol
_atom_site_label
_atom_site_fract_x
_atom_site_fract_y
_atom_site_fract_z
Si Si1 0.000000 0.680710 0.196859
Si Si2 0.000000 0.679489 0.920731
Si Si3 0.098430 0.630025 0.555700
Si Si4 0.660010 0.118929 0.815862
Si Si5 0.808261 0.512268 0.633096
Si Si6 0.656100 0.682710 0.722785
O O1 0.915643 0.649561 0.246128
O O2 0.000000 0.750000 0.228229
O O3 0.000000 0.674955 0.058027
O O4 0.911441 0.654304 0.867090
O O5 0.000000 0.750000 0.889611
O O6 0.158709 0.644645 0.446473
O O7 0.130617 0.568432 0.612601
O O8 0.107318 0.678894 0.654744
O O9 0.000000 0.624744 0.516289
O O10 0.750000 0.125506 0.750000
O O11 0.643855 0.049030 0.836360
O O12 0.769012 0.500000 0.500000
O O13 0.750000 0.521610 0.750000
O O14 0.672202 0.750000 0.683456
O O15 0.750000 0.656388 0.750000
#
# Coordination Sequence:
#
# PCOD9539134 Si02
#       6
#     8   8  16  16  16  16
#     4  11  24  41  61  85 123 163 202 246 299 366
#     4   9  20  39  56  79 114 155 193 238 297 356
#     4  11  21  36  62  91 118 155 201 253 306 354
#     4  10  23  41  61  88 119 161 199 246 300 358
#     4   9  20  39  62  87 123 161 204 247 300 366
#     4  10  21  37  58  83 115 153 196 247 304 355
#
# _framework density 19.830183999999999
#
# number of rings (size 3 to 8) (size 9 to 14) (size 15 to 20)
#    0.000    2.000    2.000    0.600    4.200    2.400 
#    3.600    0.000    0.000    1.800    0.000    0.000 
#    0.000    0.000    0.000    0.000    0.000    0.000 
#
# Total GULP energy -222773.747868 kJ/mol
# GULP energy per Si atom -5569.343697 kJ/mol
# Density = 1.978505 g / cm^3
# Si number density = 19.830184 Si / 1000 Ang^3
#
#
#
# Elastic Constant Matrix: (Units=GPa)
#
#
# Indices 1 2 3 4 5 6 
#
# 1 120.8369 38.1407 45.4172 0.0000 0.0000 0.0000
# 2 38.1407 54.0979 30.3220 0.0000 0.0000 0.0000
# 3 45.4172 30.3220 96.4375 0.0000 0.0000 0.0000
# 4 0.0000 0.0000 0.0000 26.9957 0.0000 0.0000
# 5 0.0000 0.0000 0.0000 0.0000 37.0180 0.0000
# 6 0.0000 0.0000 0.0000 0.0000 0.0000 -10.3769
#
#
#
# Elastic Compliance Matrix: (Units=1/GPa)
#
#
# Indices 1 2 3 4 5 6 
#
# 1 0.011538 -0.006178 -0.003491 0.000000 0.000000 0.000000
# 2 -0.006178 0.025747 -0.005186 0.000000 0.000000 0.000000
# 3 -0.003491 -0.005186 0.013644 0.000000 0.000000 0.000000
# 4 0.000000 0.000000 0.000000 0.037043 0.000000 0.000000
# 5 0.000000 0.000000 0.000000 0.000000 0.027014 0.000000
# 6 0.000000 0.000000 0.000000 0.000000 0.000000 -0.096368
#
#
# Mechanical properties :
#
#
# Convention : Reuss Voigt Hill
#
# Bulk Modulus (GPa) = 47.12723 55.45912 51.29317
# Shear Modulus (GPa) = 90.25083 21.22687 55.73885
#
# Velocity S-wave (km/s) = 6.75357 3.27530 5.30746
# Velocity P-wave (km/s) = 9.19952 6.50624 7.96751
#
# Compressibility (1/GPa) = 0.02121915
#
# Stress axis : x y z
#
# Youngs Moduli (GPa) = 86.67223 38.83911 73.29074
#
# Poissons Ratio (x) = 0.23993 0.25588
# Poissons Ratio (y) = 0.53542 0.38010
# Poissons Ratio (z) = 0.30260 0.20143
#
# Static dielectric constant tensor:
#      x y z
#    x 1.691920 0.000000 0.000000 
#    y 0.000000 1.707120 0.000000 
#    z 0.000000 0.000000 1.729020 
# 
# From -- ./inp_files/20555.got.cif
#   From: 2010.05.17/outbox.cif.g08.bks.cpg/sg74_11_cif.got.tgz:20555.got - 2010.06.03 17:57:02.
