data_PCOD9539558
_publ_section_title
;
Structure prediction by ZEFSAII (Michael W. Deem and Ramdas Pophale) SiO2 
 PCOD9539558
Probable space group: I M M A
;
_chemical_formula_sum "Si O2"
_cell_formula_units_Z 116
_cell_length_a 7.741339
_cell_length_b 26.789743
_cell_length_c 23.662935
_cell_angle_alpha 90.000000
_cell_angle_beta 90.000000
_cell_angle_gamma 90.000000
_cell_volume 4907.420176
_symmetry_space_group_name_H-M "I M M A"
_symmetry_group_IT_number 74
_symmetry_cell_setting 'orthorhombic'
loop_
_space_group_symop_operation_xyz
x,y,z
-x,1/2-y,z
x,-y,-z
-x,1/2+y,-z
-x,-y,-z
x,1/2+y,-z
-x,y,z
x,1/2-y,z
1/2+x,1/2+y,1/2+z
1/2-x,-y,1/2+z
1/2+x,1/2-y,1/2-z
1/2-x,y,1/2-z
1/2-x,1/2-y,1/2-z
1/2+x,y,1/2-z
1/2-x,1/2+y,1/2+z
1/2+x,-y,1/2+z
loop_
_atom_site_type_symbol
_atom_site_label
_atom_site_fract_x
_atom_site_fract_y
_atom_site_fract_z
Si Si1 0.302885 0.462477 0.877699
Si Si2 0.198547 0.443779 0.996509
Si Si3 0.794197 0.943559 0.685753
Si Si4 0.500000 0.250000 0.301476
Si Si5 0.198370 0.340215 0.465425
Si Si6 0.797213 0.309045 0.585992
Si Si7 0.804249 0.624970 0.189994
Si Si8 0.787633 0.827992 0.661645
O O1 0.500000 0.469205 0.896511
O O2 0.207767 0.435149 0.929221
O O3 0.224414 0.515242 0.858157
O O4 0.301200 0.424519 0.825594
O O5 0.292761 0.400379 0.030455
O O6 0.000000 0.443870 0.015241
O O7 0.268462 0.500000 0.000000
O O8 0.750000 0.956918 0.750000
O O9 0.749904 0.885927 0.675283
O O10 0.000000 0.946715 0.679680
O O11 0.655004 0.206845 0.305309
O O12 0.279553 0.322067 0.524205
O O13 0.260299 0.321387 0.404943
O O14 0.000000 0.323607 0.467131
O O15 0.789571 0.250000 0.592913
O O16 0.716038 0.336207 0.639228
O O17 0.000000 0.325036 0.585467
O O18 0.750000 0.646846 0.250000
O O19 0.000000 0.608306 0.193693
O O20 0.000000 0.819140 0.668810
#
# Coordination Sequence:
#
# PCOD9539558 Si02
#       8
#    16  16  16   4  16  16  16  16
#     4  11  22  40  64  95 128 175 221 262 330 397
#     4  11  23  36  56  92 136 172 214 263 319 386
#     4  10  23  42  69  97 133 174 222 278 335 406
#     4  12  26  44  74 106 128 188 220 290 342 412
#     4  10  21  40  66  93 130 174 214 272 326 393
#     4  10  22  41  66  94 122 167 216 266 327 385
#     4  12  25  42  63  91 128 168 214 270 322 381
#     4  10  24  46  69 102 139 175 229 280 342 409
#
# _framework density 23.637672999999999
#
# number of rings (size 3 to 8) (size 9 to 14) (size 15 to 20)
#    0.000    1.379    1.379    3.517    2.897    4.966 
#    0.000    0.345    0.000    0.000    0.000    0.000 
#    0.000    0.000    0.000    0.000    0.000    0.000 
#
# Total GULP energy -323763.561622 kJ/mol
# GULP energy per Si atom -5582.130373 kJ/mol
# Density = 2.358387 g / cm^3
# Si number density = 23.637673 Si / 1000 Ang^3
#
#
#
# Elastic Constant Matrix: (Units=GPa)
#
#
# Indices 1 2 3 4 5 6 
#
# 1 83.2531 20.9651 23.0114 0.0000 0.0000 0.0000
# 2 20.9651 63.5734 13.5056 0.0000 0.0000 0.0000
# 3 23.0114 13.5056 106.1550 0.0000 0.0000 0.0000
# 4 0.0000 0.0000 0.0000 6.7390 0.0000 0.0000
# 5 0.0000 0.0000 0.0000 0.0000 17.3943 0.0000
# 6 0.0000 0.0000 0.0000 0.0000 0.0000 27.9879
#
#
#
# Elastic Compliance Matrix: (Units=1/GPa)
#
#
# Indices 1 2 3 4 5 6 
#
# 1 0.013698 -0.003994 -0.002461 0.000000 0.000000 0.000000
# 2 -0.003994 0.017332 -0.001339 0.000000 0.000000 0.000000
# 3 -0.002461 -0.001339 0.010124 0.000000 0.000000 0.000000
# 4 0.000000 0.000000 0.000000 0.148390 0.000000 0.000000
# 5 0.000000 0.000000 0.000000 0.000000 0.057490 0.000000
# 6 0.000000 0.000000 0.000000 0.000000 0.000000 0.035730
#
#
# Mechanical properties :
#
#
# Convention : Reuss Voigt Hill
#
# Bulk Modulus (GPa) = 39.11730 40.88285 40.00008
# Shear Modulus (GPa) = 16.29337 23.45754 19.87546
#
# Velocity S-wave (km/s) = 2.62829 3.15362 2.90287
# Velocity P-wave (km/s) = 5.07890 5.53115 5.30984
#
# Compressibility (1/GPa) = 0.02556414
#
# Stress axis : x y z
#
# Youngs Moduli (GPa) = 73.00498 57.69809 98.77463
#
# Poissons Ratio (x) = 0.23047 0.24309
# Poissons Ratio (y) = 0.29161 0.13227
# Poissons Ratio (z) = 0.17967 0.07727
#
# Static dielectric constant tensor:
#      x y z
#    x 1.884780 0.000000 0.000000 
#    y 0.000000 1.887990 0.000000 
#    z 0.000000 0.000000 1.968460 
# 
# From -- ./inp_files/57699.got.cif
#   From: 2010.05.17/outbox.cif.g08.bks.cpg/sg74_29_cif.got.tgz:57699.got - 2010.06.03 17:57:02.
