data_PCOD9539440
_publ_section_title
;
Structure prediction by ZEFSAII (Michael W. Deem and Ramdas Pophale) SiO2 
 PCOD9539440
Probable space group: I M M A
;
_chemical_formula_sum "Si O2"
_cell_formula_units_Z 112
_cell_length_a 14.439918
_cell_length_b 29.270092
_cell_length_c 12.607267
_cell_angle_alpha 90.000000
_cell_angle_beta 90.000000
_cell_angle_gamma 90.000000
_cell_volume 5328.558831
_symmetry_space_group_name_H-M "I M M A"
_symmetry_group_IT_number 74
_symmetry_cell_setting 'orthorhombic'
loop_
_space_group_symop_operation_xyz
x,y,z
-x,1/2-y,z
x,-y,-z
-x,1/2+y,-z
-x,-y,-z
x,1/2+y,-z
-x,y,z
x,1/2-y,z
1/2+x,1/2+y,1/2+z
1/2-x,-y,1/2+z
1/2+x,1/2-y,1/2-z
1/2-x,y,1/2-z
1/2-x,1/2-y,1/2-z
1/2+x,y,1/2-z
1/2-x,1/2+y,1/2+z
1/2+x,-y,1/2+z
loop_
_atom_site_type_symbol
_atom_site_label
_atom_site_fract_x
_atom_site_fract_y
_atom_site_fract_z
Si Si1 0.606268 0.961785 0.799727
Si Si2 0.780125 0.800838 0.371732
Si Si3 0.607643 0.048529 0.645327
Si Si4 0.174855 0.872373 0.827242
Si Si5 0.731132 0.439190 0.012916
Si Si6 0.390088 0.108699 0.841340
Si Si7 0.399341 0.196411 0.484393
O O1 0.500000 0.960661 0.837940
O O2 0.628343 0.914400 0.737430
O O3 0.615247 0.003399 0.717776
O O4 0.678306 0.967697 0.896156
O O5 0.813639 0.750000 0.404273
O O6 0.750000 0.798113 0.250000
O O7 0.853944 0.841373 0.372691
O O8 0.688020 0.811665 0.439372
O O9 0.500000 0.053341 0.612115
O O10 0.677280 0.044999 0.548262
O O11 0.633751 0.091131 0.722300
O O12 0.250000 0.849707 0.750000
O O13 0.109524 0.835931 0.882531
O O14 0.233001 0.895680 0.921239
O O15 0.657776 0.425107 0.924261
O O16 0.500000 0.105560 0.849222
O O17 0.500000 0.187668 0.536483
O O18 0.396238 0.250000 0.455738
#
# Coordination Sequence:
#
# PCOD9539440 Si02
#       7
#    16  16  16  16  16  16  16
#     4  10  23  43  65  94 128 167 214 266 320 381
#     4  10  21  39  61  92 130 166 209 261 314 379
#     4  10  24  42  63  94 130 165 215 269 320 379
#     4  10  22  38  63  94 125 166 210 263 323 378
#     4  11  22  41  64  90 123 168 209 259 318 384
#     4  11  23  39  61  92 126 166 213 263 320 383
#     4  10  21  39  65  96 129 168 214 265 322 384
#
# _framework density 21.018816999999999
#
# number of rings (size 3 to 8) (size 9 to 14) (size 15 to 20)
#    0.000    1.714    1.429    2.143    0.000    8.000 
#    0.000    5.000    0.000    1.714    0.000    0.000 
#    0.000    0.000    0.000    0.000    0.000    0.000 
#
# Total GULP energy -313004.704588 kJ/mol
# GULP energy per Si atom -5589.369725 kJ/mol
# Density = 2.097098 g / cm^3
# Si number density = 21.018817 Si / 1000 Ang^3
#
#
#
# Elastic Constant Matrix: (Units=GPa)
#
#
# Indices 1 2 3 4 5 6 
#
# 1 111.5811 39.3946 60.5620 0.0000 0.0000 0.0000
# 2 39.3946 87.0295 35.5740 -0.0002 0.0000 0.0001
# 3 60.5620 35.5740 100.5704 0.0000 0.0001 0.0001
# 4 0.0000 -0.0002 0.0000 28.2987 0.0000 0.0000
# 5 0.0000 0.0000 0.0001 0.0000 35.3044 0.0000
# 6 0.0000 0.0001 0.0001 0.0000 0.0000 28.9601
#
#
#
# Elastic Compliance Matrix: (Units=1/GPa)
#
#
# Indices 1 2 3 4 5 6 
#
# 1 0.014130 -0.003411 -0.007302 0.000000 0.000000 0.000000
# 2 -0.003411 0.014256 -0.002989 0.000000 0.000000 0.000000
# 3 -0.007302 -0.002989 0.015398 0.000000 0.000000 0.000000
# 4 0.000000 0.000000 0.000000 0.035337 0.000000 0.000000
# 5 0.000000 0.000000 0.000000 0.000000 0.028325 0.000000
# 6 0.000000 0.000000 0.000000 0.000000 0.000000 0.034530
#
#
# Mechanical properties :
#
#
# Convention : Reuss Voigt Hill
#
# Bulk Modulus (GPa) = 61.05085 63.36025 62.20555
# Shear Modulus (GPa) = 28.59767 29.42269 29.01018
#
# Velocity S-wave (km/s) = 3.69260 3.74548 3.71914
# Velocity P-wave (km/s) = 6.87672 6.99391 6.93556
#
# Compressibility (1/GPa) = 0.01637979
#
# Stress axis : x y z
#
# Youngs Moduli (GPa) = 70.77278 70.14579 64.94509
#
# Poissons Ratio (x) = 0.23928 0.47424
# Poissons Ratio (y) = 0.24142 0.19409
# Poissons Ratio (z) = 0.51679 0.20963
#
# Static dielectric constant tensor:
#      x y z
#    x 1.745020 0.000000 0.000000 
#    y 0.000000 1.804630 0.000000 
#    z 0.000000 0.000000 1.733890 
# 
# From -- ./inp_files/21135.got.cif
#   From: 2010.05.17/outbox.cif.g08.bks.cpg/sg74_11_cif.got.tgz:21135.got - 2010.06.03 17:57:02.
