data_PCOD9539981
_publ_section_title
;
Structure prediction by ZEFSAII (Michael W. Deem and Ramdas Pophale) SiO2 
 PCOD9539981
Probable space group: I M M A
;
_chemical_formula_sum "Si O2"
_cell_formula_units_Z 52
_cell_length_a 18.923529
_cell_length_b 19.029147
_cell_length_c 6.622584
_cell_angle_alpha 90.000000
_cell_angle_beta 90.000000
_cell_angle_gamma 90.000000
_cell_volume 2384.783327
_symmetry_space_group_name_H-M "I M M A"
_symmetry_group_IT_number 74
_symmetry_cell_setting 'orthorhombic'
loop_
_space_group_symop_operation_xyz
x,y,z
-x,1/2-y,z
x,-y,-z
-x,1/2+y,-z
-x,-y,-z
x,1/2+y,-z
-x,y,z
x,1/2-y,z
1/2+x,1/2+y,1/2+z
1/2-x,-y,1/2+z
1/2+x,1/2-y,1/2-z
1/2-x,y,1/2-z
1/2-x,1/2-y,1/2-z
1/2+x,y,1/2-z
1/2-x,1/2+y,1/2+z
1/2+x,-y,1/2+z
loop_
_atom_site_type_symbol
_atom_site_label
_atom_site_fract_x
_atom_site_fract_y
_atom_site_fract_z
Si Si1 0.500000 0.750000 0.642848
Si Si2 0.360792 0.672721 0.763552
Si Si3 0.919279 0.924827 0.390284
Si Si4 0.302040 0.423508 0.574132
O O1 0.436689 0.690066 0.659213
O O2 0.331798 0.750000 0.815255
O O3 0.313059 0.629184 0.609678
O O4 0.378648 0.628818 0.963084
O O5 0.877538 0.932755 0.182665
O O6 0.000000 0.900773 0.362260
O O7 0.919645 0.000000 0.500000
O O8 0.276346 0.500000 0.500000
O O9 0.250000 0.398002 0.750000
#
# Coordination Sequence:
#
# PCOD9539981 Si02
#       4
#     4  16  16  16
#     4   8  20  44  68 102 154 172 206 304 364 386
#     4  10  22  44  69 101 144 174 221 287 353 409
#     4  11  22  39  69 101 130 176 235 292 349 404
#     4  12  27  43  69 100 142 190 238 282 341 409
#
# _framework density 21.804917
#
# number of rings (size 3 to 8) (size 9 to 14) (size 15 to 20)
#    0.923    0.308    4.615    0.923    2.154    2.462 
#    0.000    3.077    0.000    0.000    0.000    0.000 
#    0.000    0.000    0.000    0.000    0.000    0.000 
#
# Total GULP energy -144800.769318 kJ/mol
# GULP energy per Si atom -5569.260358 kJ/mol
# Density = 2.175529 g / cm^3
# Si number density = 21.804917 Si / 1000 Ang^3
#
#
#
# Elastic Constant Matrix: (Units=GPa)
#
#
# Indices 1 2 3 4 5 6 
#
# 1 86.2634 14.2815 39.5301 0.0000 0.0000 0.0000
# 2 14.2815 101.7091 12.4658 0.0000 0.0000 0.0000
# 3 39.5301 12.4658 52.2324 0.0000 0.0000 0.0000
# 4 0.0000 0.0000 0.0000 24.6081 0.0000 0.0000
# 5 0.0000 0.0000 0.0000 0.0000 34.9152 0.0000
# 6 0.0000 0.0000 0.0000 0.0000 0.0000 12.6404
#
#
#
# Elastic Compliance Matrix: (Units=1/GPa)
#
#
# Indices 1 2 3 4 5 6 
#
# 1 0.017823 -0.000875 -0.013280 0.000000 0.000000 0.000000
# 2 -0.000875 0.010171 -0.001765 0.000000 0.000000 0.000000
# 3 -0.013280 -0.001765 0.029617 0.000000 0.000000 0.000000
# 4 0.000000 0.000000 0.000000 0.040637 0.000000 0.000000
# 5 0.000000 0.000000 0.000000 0.000000 0.028641 0.000000
# 6 0.000000 0.000000 0.000000 0.000000 0.000000 0.079112
#
#
# Mechanical properties :
#
#
# Convention : Reuss Voigt Hill
#
# Bulk Modulus (GPa) = 38.80355 41.41776 40.11066
# Shear Modulus (GPa) = 20.28976 26.02791 23.15883
#
# Velocity S-wave (km/s) = 3.05374 3.45870 3.26251
# Velocity P-wave (km/s) = 5.50165 5.91490 5.71202
#
# Compressibility (1/GPa) = 0.02577084
#
# Stress axis : x y z
#
# Youngs Moduli (GPa) = 56.10860 98.31705 33.76481
#
# Poissons Ratio (x) = 0.08603 0.44838
# Poissons Ratio (y) = 0.04909 0.05960
# Poissons Ratio (z) = 0.74510 0.17356
#
# Static dielectric constant tensor:
#      x y z
#    x 1.831950 0.000000 0.000000 
#    y 0.000000 1.770410 0.000000 
#    z 0.000000 0.000000 1.744820 
# 
# From -- ./inp_files/2732.got.cif
#   From: 2010.05.17/outbox.cif.g08.bks.cpg/sg74_2_cif.got.tgz:2732.got - 2010.06.03 17:57:02.
