data_PCOD9539336
_publ_section_title
;
Structure prediction by ZEFSAII (Michael W. Deem and Ramdas Pophale) SiO2 
 PCOD9539336
Probable space group: I M M A
;
_chemical_formula_sum "Si O2"
_cell_formula_units_Z 112
_cell_length_a 25.074286
_cell_length_b 12.041797
_cell_length_c 16.720072
_cell_angle_alpha 90.000000
_cell_angle_beta 90.000000
_cell_angle_gamma 90.000000
_cell_volume 5048.449543
_symmetry_space_group_name_H-M "I M M A"
_symmetry_group_IT_number 74
_symmetry_cell_setting 'orthorhombic'
loop_
_space_group_symop_operation_xyz
x,y,z
-x,1/2-y,z
x,-y,-z
-x,1/2+y,-z
-x,-y,-z
x,1/2+y,-z
-x,y,z
x,1/2-y,z
1/2+x,1/2+y,1/2+z
1/2-x,-y,1/2+z
1/2+x,1/2-y,1/2-z
1/2-x,y,1/2-z
1/2-x,1/2-y,1/2-z
1/2+x,y,1/2-z
1/2-x,1/2+y,1/2+z
1/2+x,-y,1/2+z
loop_
_atom_site_type_symbol
_atom_site_label
_atom_site_fract_x
_atom_site_fract_y
_atom_site_fract_z
Si Si1 0.941671 0.876956 0.162635
Si Si2 0.941912 0.547457 0.690011
Si Si3 0.325305 0.872378 0.017982
Si Si4 0.228283 0.579003 0.331793
Si Si5 0.332047 0.624348 0.751751
Si Si6 0.836976 0.523503 0.093610
Si Si7 0.441665 0.871519 0.049424
O O1 0.938262 0.750000 0.189621
O O2 0.000000 0.890804 0.121825
O O3 0.941038 0.959762 0.236896
O O4 0.889622 0.905195 0.111711
O O5 0.889837 0.619588 0.705924
O O6 0.938639 0.469817 0.612500
O O7 0.000000 0.604123 0.690910
O O8 0.500000 0.876826 0.008916
O O9 0.304333 0.750000 0.987810
O O10 0.388025 0.873686 0.997807
O O11 0.305400 0.000000 0.000000
O O12 0.250000 0.630643 0.250000
O O13 0.205057 0.459492 0.302977
O O14 0.280438 0.579698 0.387112
O O15 0.182427 0.631110 0.385815
O O16 0.312799 0.750000 0.750285
O O17 0.337205 0.575125 0.661110
O O18 0.837618 0.500000 0.000000
O O19 0.440501 0.750000 0.089868
#
# Coordination Sequence:
#
# PCOD9539336 Si02
#       7
#    16  16  16  16  16  16  16
#     4   9  18  33  55  83 113 146 184 233 298 365
#     4   9  16  31  56  87 120 152 198 253 305 361
#     4  11  24  42  64  93 129 170 211 260 319 380
#     4  10  22  42  62  88 117 155 207 262 313 365
#     4  10  21  38  61  88 122 164 206 254 314 376
#     4  10  22  38  58  85 118 153 200 248 301 366
#     4   9  17  32  58  89 122 161 207 258 311 366
#
# _framework density 22.185030000000001
#
# number of rings (size 3 to 8) (size 9 to 14) (size 15 to 20)
#    0.000    2.286    1.429    0.857    0.000    7.143 
#    0.000    2.857    0.000    0.000    0.000    0.000 
#    0.000    0.000    0.000    0.000    0.000    0.000 
#
# Total GULP energy -312002.682005 kJ/mol
# GULP energy per Si atom -5571.476464 kJ/mol
# Density = 2.213454 g / cm^3
# Si number density = 22.185030 Si / 1000 Ang^3
#
#
#
# Elastic Constant Matrix: (Units=GPa)
#
#
# Indices 1 2 3 4 5 6 
#
# 1 135.4171 30.2568 22.5891 0.0000 0.0000 0.0000
# 2 30.2568 131.1475 21.7132 0.0000 0.0000 0.0000
# 3 22.5891 21.7132 70.6134 0.0000 0.0000 0.0000
# 4 0.0000 0.0000 0.0000 -0.2400 0.0000 0.0000
# 5 0.0000 0.0000 0.0000 0.0000 21.5739 0.0000
# 6 0.0000 0.0000 0.0000 0.0000 0.0000 -50.9153
#
#
#
# Elastic Compliance Matrix: (Units=1/GPa)
#
#
# Indices 1 2 3 4 5 6 
#
# 1 0.008076 -0.001512 -0.002118 0.000000 0.000000 0.000000
# 2 -0.001512 0.008317 -0.002074 0.000000 0.000000 0.000000
# 3 -0.002118 -0.002074 0.015477 0.000000 0.000000 0.000000
# 4 0.000000 0.000000 0.000000 -4.166665 0.000000 0.000000
# 5 0.000000 0.000000 0.000000 0.000000 0.046352 0.000000
# 6 0.000000 0.000000 0.000000 0.000000 0.000000 -0.019640
#
#
# Mechanical properties :
#
#
# Convention : Reuss Voigt Hill
#
# Bulk Modulus (GPa) = 48.87335 54.03290 51.45312
# Shear Modulus (GPa) = -1.22254 11.59166 5.18456
#
# Velocity S-wave (km/s) = -0.74314 2.28830 1.53037
# Velocity P-wave (km/s) = 4.61967 5.60270 5.13476
#
# Compressibility (1/GPa) = 0.02046105
#
# Stress axis : x y z
#
# Youngs Moduli (GPa) = 123.82528 120.23195 64.61235
#
# Poissons Ratio (x) = 0.18184 0.13687
# Poissons Ratio (y) = 0.18728 0.13398
# Poissons Ratio (z) = 0.26231 0.24932
#
# Static dielectric constant tensor:
#      x y z
#    x 1.874280 0.000000 0.000000 
#    y 0.000000 1.871530 0.000000 
#    z 0.000000 0.000000 1.796930 
# 
# From -- ./inp_files/54705.got.cif
#   From: 2010.05.17/outbox.cif.g08.bks.cpg/sg74_28_cif.got.tgz:54705.got - 2010.06.03 17:57:02.
