data_PCOD9539609
_publ_section_title
;
Structure prediction by ZEFSAII (Michael W. Deem and Ramdas Pophale) SiO2 
 PCOD9539609
Probable space group: I M M A
;
_chemical_formula_sum "Si O2"
_cell_formula_units_Z 104
_cell_length_a 19.778104
_cell_length_b 27.464529
_cell_length_c 9.995063
_cell_angle_alpha 90.000000
_cell_angle_beta 90.000000
_cell_angle_gamma 90.000000
_cell_volume 5429.281349
_symmetry_space_group_name_H-M "I M M A"
_symmetry_group_IT_number 74
_symmetry_cell_setting 'orthorhombic'
loop_
_space_group_symop_operation_xyz
x,y,z
-x,1/2-y,z
x,-y,-z
-x,1/2+y,-z
-x,-y,-z
x,1/2+y,-z
-x,y,z
x,1/2-y,z
1/2+x,1/2+y,1/2+z
1/2-x,-y,1/2+z
1/2+x,1/2-y,1/2-z
1/2-x,y,1/2-z
1/2-x,1/2-y,1/2-z
1/2+x,y,1/2-z
1/2-x,1/2+y,1/2+z
1/2+x,-y,1/2+z
loop_
_atom_site_type_symbol
_atom_site_label
_atom_site_fract_x
_atom_site_fract_y
_atom_site_fract_z
Si Si1 0.884981 0.750000 0.074286
Si Si2 0.421264 0.002549 0.839007
Si Si3 0.747513 0.250000 0.089885
Si Si4 0.644624 0.666301 0.981999
Si Si5 0.923730 0.750000 0.363249
Si Si6 0.576555 0.141135 0.553347
Si Si7 0.080118 0.893508 0.753889
Si Si8 0.670392 0.093980 0.775728
O O1 0.874180 0.750000 0.235365
O O2 0.921957 0.800481 0.043820
O O3 0.818373 0.750000 0.984717
O O4 0.500000 0.013961 0.804876
O O5 0.404368 0.949605 0.779681
O O6 0.370196 0.043515 0.788592
O O7 0.417304 0.000000 0.000000
O O8 0.750000 0.250000 0.250000
O O9 0.707086 0.297947 0.044394
O O10 0.619572 0.641969 0.845644
O O11 0.589320 0.702233 0.048491
O O12 0.661252 0.624464 0.088022
O O13 0.000000 0.750000 0.310548
O O14 0.500000 0.126104 0.592886
O O15 0.592469 0.119008 0.408205
O O16 0.632317 0.124048 0.659294
O O17 0.000000 0.886915 0.728536
O O18 0.750000 0.087479 0.750000
#
# Coordination Sequence:
#
# PCOD9539609 Si02
#       8
#     8  16   8  16   8  16  16  16
#     4  12  22  39  62  90 128 166 213 257 315 376
#     4  10  21  42  70  95 122 165 219 272 323 382
#     4  11  25  42  60  89 131 177 216 256 322 386
#     4  11  23  39  65  88 126 168 209 259 311 388
#     4  11  23  36  60  95 122 155 210 262 309 365
#     4  11  24  42  67  96 130 169 214 272 328 384
#     4  10  22  42  67  96 124 163 217 268 324 381
#     4  12  25  42  62  96 130 167 213 263 327 391
#
# _framework density 19.155387999999999
#
# number of rings (size 3 to 8) (size 9 to 14) (size 15 to 20)
#    0.000    1.077    3.077    3.462    0.000    3.077 
#    2.769    4.615    0.000    0.000    0.000    0.000 
#    0.000    0.000    0.000    0.000    0.000    0.000 
#
# Total GULP energy -290661.849580 kJ/mol
# GULP energy per Si atom -5589.650953 kJ/mol
# Density = 1.911179 g / cm^3
# Si number density = 19.155388 Si / 1000 Ang^3
#
#
#
# Elastic Constant Matrix: (Units=GPa)
#
#
# Indices 1 2 3 4 5 6 
#
# 1 109.9703 38.3405 47.6255 0.0000 0.0000 0.0000
# 2 38.3405 97.5754 32.0337 0.0000 0.0000 0.0000
# 3 47.6255 32.0337 80.8938 0.0000 0.0000 0.0000
# 4 0.0000 0.0000 0.0000 28.7976 0.0000 0.0000
# 5 0.0000 0.0000 0.0000 0.0000 28.0164 0.0000
# 6 0.0000 0.0000 0.0000 0.0000 0.0000 9.3743
#
#
#
# Elastic Compliance Matrix: (Units=1/GPa)
#
#
# Indices 1 2 3 4 5 6 
#
# 1 0.012910 -0.002963 -0.006427 0.000000 0.000000 0.000000
# 2 -0.002963 0.012460 -0.003190 0.000000 0.000000 0.000000
# 3 -0.006427 -0.003190 0.017409 0.000000 0.000000 0.000000
# 4 0.000000 0.000000 0.000000 0.034725 0.000000 0.000000
# 5 0.000000 0.000000 0.000000 0.000000 0.035693 0.000000
# 6 0.000000 0.000000 0.000000 0.000000 0.000000 0.106674
#
#
# Mechanical properties :
#
#
# Convention : Reuss Voigt Hill
#
# Bulk Modulus (GPa) = 56.75650 58.27097 57.51374
# Shear Modulus (GPa) = 19.92795 24.60033 22.26414
#
# Velocity S-wave (km/s) = 3.22892 3.58753 3.41294
# Velocity P-wave (km/s) = 6.60265 6.90266 6.75432
#
# Compressibility (1/GPa) = 0.01761913
#
# Stress axis : x y z
#
# Youngs Moduli (GPa) = 77.46064 80.25817 57.44127
#
# Poissons Ratio (x) = 0.23777 0.36919
# Poissons Ratio (y) = 0.22948 0.18323
# Poissons Ratio (z) = 0.49787 0.25601
#
# Static dielectric constant tensor:
#      x y z
#    x 1.655870 0.000000 0.000000 
#    y 0.000000 1.644910 0.000000 
#    z 0.000000 0.000000 1.648610 
# 
# From -- ./inp_files/12808.got.cif
#   From: 2010.05.17/outbox.cif.g08.bks.cpg/sg74_7_cif.got.tgz:12808.got - 2010.06.03 17:57:02.
