data_PCOD9539677
_publ_section_title
;
Structure prediction by ZEFSAII (Michael W. Deem and Ramdas Pophale) SiO2 
 PCOD9539677
Probable space group: I M M A
;
_chemical_formula_sum "Si O2"
_cell_formula_units_Z 60
_cell_length_a 19.775926
_cell_length_b 9.348733
_cell_length_c 15.258128
_cell_angle_alpha 90.000000
_cell_angle_beta 90.000000
_cell_angle_gamma 90.000000
_cell_volume 2820.920446
_symmetry_space_group_name_H-M "I M M A"
_symmetry_group_IT_number 74
_symmetry_cell_setting 'orthorhombic'
loop_
_space_group_symop_operation_xyz
x,y,z
-x,1/2-y,z
x,-y,-z
-x,1/2+y,-z
-x,-y,-z
x,1/2+y,-z
-x,y,z
x,1/2-y,z
1/2+x,1/2+y,1/2+z
1/2-x,-y,1/2+z
1/2+x,1/2-y,1/2-z
1/2-x,y,1/2-z
1/2-x,1/2-y,1/2-z
1/2+x,y,1/2-z
1/2-x,1/2+y,1/2+z
1/2+x,-y,1/2+z
loop_
_atom_site_type_symbol
_atom_site_label
_atom_site_fract_x
_atom_site_fract_y
_atom_site_fract_z
Si Si1 0.000000 0.750000 0.460161
Si Si2 0.363457 0.586621 0.415396
Si Si3 0.364507 0.086418 0.237173
Si Si4 0.200852 0.912495 0.415542
Si Si5 0.000000 0.046305 0.370401
O O1 0.000000 0.622488 0.386910
O O2 0.000000 0.630054 0.538940
O O3 0.388912 0.500000 0.500000
O O4 0.388852 0.750000 0.410833
O O5 0.375048 0.496500 0.327752
O O6 0.281636 0.596406 0.424169
O O7 0.341054 0.250000 0.251299
O O8 0.434131 0.087655 0.184323
O O9 0.315443 0.996755 0.173071
O O10 0.172662 0.750000 0.415266
O O11 0.174126 0.000000 0.500000
#
# Coordination Sequence:
#
# PCOD9539677 Si02
#       5
#     4  16  16  16   8
#     4  10  24  46  64  82 130 162 200 240 296 348
#     4  10  22  42  63  88 120 158 202 253 304 354
#     4  12  24  39  61  89 124 160 204 248 297 359
#     4  10  22  37  59  90 124 159 201 247 302 361
#     4  11  26  42  63  92 122 162 200 244 294 355
#
# _framework density 21.269653999999999
#
# number of rings (size 3 to 8) (size 9 to 14) (size 15 to 20)
#    0.000    1.333    1.333    3.200    7.467    6.400 
#    0.000    0.667    0.000    0.000    0.000    0.000 
#    0.000    0.000    0.000    0.000    0.000    0.000 
#
# Total GULP energy -167258.335850 kJ/mol
# GULP energy per Si atom -5575.277862 kJ/mol
# Density = 2.122124 g / cm^3
# Si number density = 21.269654 Si / 1000 Ang^3
#
#
#
# Elastic Constant Matrix: (Units=GPa)
#
#
# Indices 1 2 3 4 5 6 
#
# 1 13.4521 -3.9976 -15.2724 0.0000 0.0000 0.0000
# 2 -3.9976 261.5943 94.7662 0.0000 0.0000 0.0000
# 3 -15.2724 94.7662 161.6079 0.0000 0.0000 0.0000
# 4 0.0000 0.0000 0.0000 46.3801 0.0000 0.0000
# 5 0.0000 0.0000 0.0000 0.0000 79.2188 0.0000
# 6 0.0000 0.0000 0.0000 0.0000 0.0000 -33.7271
#
#
#
# Elastic Compliance Matrix: (Units=1/GPa)
#
#
# Indices 1 2 3 4 5 6 
#
# 1 0.084108 -0.002024 0.009135 0.000000 0.000000 0.000000
# 2 -0.002024 0.004903 -0.003066 0.000000 0.000000 0.000000
# 3 0.009135 -0.003066 0.008849 0.000000 0.000000 0.000000
# 4 0.000000 0.000000 0.000000 0.021561 0.000000 0.000000
# 5 0.000000 0.000000 0.000000 0.000000 0.012623 0.000000
# 6 0.000000 0.000000 0.000000 0.000000 0.000000 -0.029650
#
#
# Mechanical properties :
#
#
# Convention : Reuss Voigt Hill
#
# Bulk Modulus (GPa) = 9.43846 65.29408 37.36627
# Shear Modulus (GPa) = 38.57432 42.45157 40.51295
#
# Velocity S-wave (km/s) = 4.26324 4.47237 4.36906
# Velocity P-wave (km/s) = 5.35544 7.57854 6.56183
#
# Compressibility (1/GPa) = 0.10594951
#
# Stress axis : x y z
#
# Youngs Moduli (GPa) = 11.88953 203.97673 113.00606
#
# Poissons Ratio (x) = 0.41287 -1.03235
# Poissons Ratio (y) = 0.02407 0.34649
# Poissons Ratio (z) = -0.10861 0.62541
#
# Static dielectric constant tensor:
#      x y z
#    x 1.884090 0.000000 0.000000 
#    y 0.000000 1.800670 0.000000 
#    z 0.000000 0.000000 1.708860 
# 
# From -- ./inp_files/35920.got.cif
#   From: 2010.05.17/outbox.cif.g08.bks.cpg/sg74_18_cif.got.tgz:35920.got - 2010.06.03 17:57:02.
