data_PCOD9539216
_publ_section_title
;
Structure prediction by ZEFSAII (Michael W. Deem and Ramdas Pophale) SiO2 
 PCOD9539216
Probable space group: I M M A
;
_chemical_formula_sum "Si O2"
_cell_formula_units_Z 120
_cell_length_a 26.550873
_cell_length_b 24.682570
_cell_length_c 7.947787
_cell_angle_alpha 90.000000
_cell_angle_beta 90.000000
_cell_angle_gamma 90.000000
_cell_volume 5208.532786
_symmetry_space_group_name_H-M "I M M A"
_symmetry_group_IT_number 74
_symmetry_cell_setting 'orthorhombic'
loop_
_space_group_symop_operation_xyz
x,y,z
-x,1/2-y,z
x,-y,-z
-x,1/2+y,-z
-x,-y,-z
x,1/2+y,-z
-x,y,z
x,1/2-y,z
1/2+x,1/2+y,1/2+z
1/2-x,-y,1/2+z
1/2+x,1/2-y,1/2-z
1/2-x,y,1/2-z
1/2-x,1/2-y,1/2-z
1/2+x,y,1/2-z
1/2-x,1/2+y,1/2+z
1/2+x,-y,1/2+z
loop_
_atom_site_type_symbol
_atom_site_label
_atom_site_fract_x
_atom_site_fract_y
_atom_site_fract_z
Si Si1 0.836747 0.688301 0.983677
Si Si2 0.661130 0.692977 0.919580
Si Si3 0.943736 0.649694 0.503185
Si Si4 0.788516 0.094984 0.372308
Si Si5 0.104062 0.957154 0.654124
Si Si6 0.444971 0.686028 0.366916
Si Si7 0.120934 0.500000 0.000000
Si Si8 0.210029 0.923208 0.101084
O O1 0.824770 0.750000 0.040951
O O2 0.895706 0.677314 0.022973
O O3 0.805766 0.639458 0.067109
O O4 0.832608 0.688220 0.781457
O O5 0.681501 0.750000 0.980305
O O6 0.601907 0.688816 0.949713
O O7 0.688458 0.640721 0.995324
O O8 0.929337 0.592778 0.588480
O O9 0.942252 0.649441 0.299982
O O10 0.000000 0.666893 0.551576
O O11 0.750000 0.125976 0.250000
O O12 0.838446 0.064314 0.316762
O O13 0.746106 0.057076 0.449056
O O14 0.089675 0.977384 0.840808
O O15 0.104886 0.000000 0.500000
O O16 0.500000 0.677100 0.447968
O O17 0.443729 0.750000 0.315425
O O18 0.158500 0.543446 0.089926
O O19 0.250000 0.928324 0.250000
#
# Coordination Sequence:
#
# PCOD9539216 Si02
#       8
#    16  16  16  16  16  16   8  16
#     4  10  22  40  59  90 128 163 211 260 314 388
#     4  10  21  37  61  90 124 165 205 253 312 376
#     4  10  22  42  64  91 124 157 208 263 316 390
#     4  11  21  40  57  87 124 158 207 255 306 370
#     4  11  25  42  67  93 124 166 212 267 327 381
#     4   9  19  37  62  90 122 161 204 258 317 374
#     4  12  26  44  65  94 132 162 223 276 318 380
#     4  12  26  39  62  91 126 169 215 261 320 379
#
# _framework density 23.039117999999998
#
# number of rings (size 3 to 8) (size 9 to 14) (size 15 to 20)
#    0.000    1.467    2.667    2.000    8.400    2.667 
#    0.000    1.667    0.000    0.000    0.000    0.000 
#    0.000    0.000    0.000    0.000    0.000    0.000 
#
# Total GULP energy -334475.679293 kJ/mol
# GULP energy per Si atom -5574.594655 kJ/mol
# Density = 2.298668 g / cm^3
# Si number density = 23.039118 Si / 1000 Ang^3
#
#
#
# Elastic Constant Matrix: (Units=GPa)
#
#
# Indices 1 2 3 4 5 6 
#
# 1 76.0665 9.1243 13.0489 0.0000 0.0000 0.0000
# 2 9.1243 84.2097 -1.3356 0.0000 0.0000 0.0000
# 3 13.0489 -1.3356 49.3890 0.0000 0.0000 0.0000
# 4 0.0000 0.0000 0.0000 23.4203 0.0000 0.0000
# 5 0.0000 0.0000 0.0000 0.0000 26.2341 0.0000
# 6 0.0000 0.0000 0.0000 0.0000 0.0000 10.5282
#
#
#
# Elastic Compliance Matrix: (Units=1/GPa)
#
#
# Indices 1 2 3 4 5 6 
#
# 1 0.013976 -0.001574 -0.003735 0.000000 0.000000 0.000000
# 2 -0.001574 0.012057 0.000742 0.000000 0.000000 0.000000
# 3 -0.003735 0.000742 0.021254 0.000000 0.000000 0.000000
# 4 0.000000 0.000000 0.000000 0.042698 0.000000 0.000000
# 5 0.000000 0.000000 0.000000 0.000000 0.038118 0.000000
# 6 0.000000 0.000000 0.000000 0.000000 0.000000 0.094983
#
#
# Mechanical properties :
#
#
# Convention : Reuss Voigt Hill
#
# Bulk Modulus (GPa) = 26.20962 27.92670 27.06816
# Shear Modulus (GPa) = 20.41325 24.62502 22.51913
#
# Velocity S-wave (km/s) = 2.97985 3.27285 3.12978
# Velocity P-wave (km/s) = 4.82080 5.14099 4.98347
#
# Compressibility (1/GPa) = 0.03815392
#
# Stress axis : x y z
#
# Youngs Moduli (GPa) = 71.55183 82.93678 47.04929
#
# Poissons Ratio (x) = 0.13051 0.17573
# Poissons Ratio (y) = 0.11259 -0.03490
# Poissons Ratio (z) = 0.26725 -0.06152
#
# Static dielectric constant tensor:
#      x y z
#    x 1.832530 0.000000 0.000000 
#    y 0.000000 1.913290 0.000000 
#    z 0.000000 0.000000 2.098100 
# 
# From -- ./inp_files/15554.got.cif
#   From: 2010.05.17/outbox.cif.g08.bks.cpg/sg74_8_cif.got.tgz:15554.got - 2010.06.03 17:57:02.
