data_PCOD9539662
_publ_section_title
;
Structure prediction by ZEFSAII (Michael W. Deem and Ramdas Pophale) SiO2 
 PCOD9539662
Probable space group: I M M A
;
_chemical_formula_sum "Si O2"
_cell_formula_units_Z 88
_cell_length_a 10.793186
_cell_length_b 14.221057
_cell_length_c 29.635228
_cell_angle_alpha 90.000000
_cell_angle_beta 90.000000
_cell_angle_gamma 90.000000
_cell_volume 4548.726358
_symmetry_space_group_name_H-M "I M M A"
_symmetry_group_IT_number 74
_symmetry_cell_setting 'orthorhombic'
loop_
_space_group_symop_operation_xyz
x,y,z
-x,1/2-y,z
x,-y,-z
-x,1/2+y,-z
-x,-y,-z
x,1/2+y,-z
-x,y,z
x,1/2-y,z
1/2+x,1/2+y,1/2+z
1/2-x,-y,1/2+z
1/2+x,1/2-y,1/2-z
1/2-x,y,1/2-z
1/2-x,1/2-y,1/2-z
1/2+x,y,1/2-z
1/2-x,1/2+y,1/2+z
1/2+x,-y,1/2+z
loop_
_atom_site_type_symbol
_atom_site_label
_atom_site_fract_x
_atom_site_fract_y
_atom_site_fract_z
Si Si1 0.852967 0.140294 0.919941
Si Si2 0.268684 0.009100 0.350816
Si Si3 0.750000 0.032856 0.250000
Si Si4 0.000000 0.644599 0.853296
Si Si5 0.500000 0.647043 0.754464
Si Si6 0.639048 0.640299 0.909126
Si Si7 0.639876 0.135650 0.476980
O O1 0.817482 0.250000 0.918410
O O2 0.837403 0.105029 0.971385
O O3 0.000000 0.134419 0.910347
O O4 0.782356 0.079707 0.883098
O O5 0.276292 0.982834 0.297914
O O6 0.380397 0.081714 0.362113
O O7 0.152413 0.071294 0.366587
O O8 0.628728 0.093887 0.237701
O O9 0.000000 0.657494 0.799648
O O10 0.000000 0.750000 0.874058
O O11 0.500000 0.750000 0.776190
O O12 0.500000 0.633669 0.927922
O O13 0.660136 0.750000 0.896436
O O14 0.744942 0.612436 0.945076
O O15 0.500000 0.104613 0.462974
O O16 0.635241 0.250000 0.478409
#
# Coordination Sequence:
#
# PCOD9539662 Si02
#       7
#    16  16   8   8   8  16  16
#     4   9  18  36  62  89 112 141 189 245 297 339
#     4  11  21  36  55  84 114 151 190 239 281 332
#     4  10  23  36  55  80 116 152 194 236 286 326
#     4   9  18  32  51  80 112 142 182 228 277 327
#     4   9  18  34  54  77 106 149 193 232 274 331
#     4  10  22  37  54  81 120 160 189 220 276 348
#     4   8  16  33  58  85 112 142 183 238 288 336
#
# _framework density 19.346074999999999
#
# number of rings (size 3 to 8) (size 9 to 14) (size 15 to 20)
#    0.000    2.545    0.909    1.909    2.545    2.909 
#    0.000    4.091    0.000    1.636    0.000    0.000 
#    0.000    0.000    0.000    0.000    0.000    0.000 
#
# Total GULP energy -245364.680505 kJ/mol
# GULP energy per Si atom -5576.470011 kJ/mol
# Density = 1.930204 g / cm^3
# Si number density = 19.346075 Si / 1000 Ang^3
#
#
#
# Elastic Constant Matrix: (Units=GPa)
#
#
# Indices 1 2 3 4 5 6 
#
# 1 91.9323 19.7020 41.2916 0.0000 0.0000 0.0000
# 2 19.7020 59.7930 39.1559 0.0000 0.0000 0.0000
# 3 41.2916 39.1559 136.5539 0.0000 0.0000 0.0000
# 4 0.0000 0.0000 0.0000 24.5911 0.0000 0.0000
# 5 0.0000 0.0000 0.0000 0.0000 20.9368 0.0000
# 6 0.0000 0.0000 0.0000 0.0000 0.0000 -17.9535
#
#
#
# Elastic Compliance Matrix: (Units=1/GPa)
#
#
# Indices 1 2 3 4 5 6 
#
# 1 0.012792 -0.002071 -0.003274 0.000000 0.000000 0.000000
# 2 -0.002071 0.020926 -0.005374 0.000000 0.000000 0.000000
# 3 -0.003274 -0.005374 0.009854 0.000000 0.000000 0.000000
# 4 0.000000 0.000000 0.000000 0.040665 0.000000 0.000000
# 5 0.000000 0.000000 0.000000 0.000000 0.047763 0.000000
# 6 0.000000 0.000000 0.000000 0.000000 0.000000 -0.055699
#
#
# Mechanical properties :
#
#
# Convention : Reuss Voigt Hill
#
# Bulk Modulus (GPa) = 45.18009 54.28645 49.73327
# Shear Modulus (GPa) = 47.56594 18.05687 32.81141
#
# Velocity S-wave (km/s) = 4.96389 3.05841 4.12275
# Velocity P-wave (km/s) = 7.50053 6.37130 6.95886
#
# Compressibility (1/GPa) = 0.02213364
#
# Stress axis : x y z
#
# Youngs Moduli (GPa) = 78.17374 47.78728 101.47921
#
# Poissons Ratio (x) = 0.09896 0.33227
# Poissons Ratio (y) = 0.16188 0.54537
# Poissons Ratio (z) = 0.25596 0.25682
#
# Static dielectric constant tensor:
#      x y z
#    x 1.689800 0.000000 0.000000 
#    y 0.000000 1.694230 0.000000 
#    z 0.000000 0.000000 1.703020 
# 
# From -- ./inp_files/65985.got.cif
#   From: 2010.05.17/outbox.cif.g08.bks.cpg/sg74_33_cif.got.tgz:65985.got - 2010.06.03 17:57:02.
