data_PCOD9539125
_publ_section_title
;
Structure prediction by ZEFSAII (Michael W. Deem and Ramdas Pophale) SiO2 
 PCOD9539125
Probable space group: I M M A
;
_chemical_formula_sum "Si O2"
_cell_formula_units_Z 80
_cell_length_a 8.706859
_cell_length_b 18.641166
_cell_length_c 26.139026
_cell_angle_alpha 90.000000
_cell_angle_beta 90.000000
_cell_angle_gamma 90.000000
_cell_volume 4242.520857
_symmetry_space_group_name_H-M "I M M A"
_symmetry_group_IT_number 74
_symmetry_cell_setting 'orthorhombic'
loop_
_space_group_symop_operation_xyz
x,y,z
-x,1/2-y,z
x,-y,-z
-x,1/2+y,-z
-x,-y,-z
x,1/2+y,-z
-x,y,z
x,1/2-y,z
1/2+x,1/2+y,1/2+z
1/2-x,-y,1/2+z
1/2+x,1/2-y,1/2-z
1/2-x,y,1/2-z
1/2-x,1/2-y,1/2-z
1/2+x,y,1/2-z
1/2-x,1/2+y,1/2+z
1/2+x,-y,1/2+z
loop_
_atom_site_type_symbol
_atom_site_label
_atom_site_fract_x
_atom_site_fract_y
_atom_site_fract_z
Si Si1 0.185191 0.083744 0.502606
Si Si2 0.684598 0.834039 0.898372
Si Si3 0.816924 0.577746 0.805034
Si Si4 0.316576 0.166246 0.600022
Si Si5 0.683333 0.918891 0.194828
O O1 0.227209 0.123717 0.450018
O O2 0.261185 0.122448 0.550676
O O3 0.000000 0.088066 0.508284
O O4 0.227340 0.000000 0.500000
O O5 0.500000 0.840991 0.891970
O O6 0.721053 0.750000 0.903299
O O7 0.765720 0.869272 0.849783
O O8 0.750000 0.600625 0.750000
O O9 0.748069 0.498739 0.815770
O O10 0.000000 0.572648 0.801810
O O11 0.500000 0.160000 0.605292
O O12 0.276900 0.250000 0.594041
O O13 0.237868 0.133254 0.650101
O O14 0.500000 0.922128 0.197294
O O15 0.750000 0.896836 0.250000
#
# Coordination Sequence:
#
# PCOD9539125 Si02
#       5
#    16  16  16  16  16
#     4  10  21  38  62  89 116 151 195 241 290 346
#     4  10  21  37  57  84 120 158 196 240 292 350
#     4  11  22  38  61  87 117 152 194 242 292 347
#     4  11  24  40  59  87 122 156 193 239 290 345
#     4  11  22  39  63  88 117 153 195 240 288 344
#
# _framework density 18.856714
#
# number of rings (size 3 to 8) (size 9 to 14) (size 15 to 20)
#    0.000    1.400    0.000    7.200    0.000    6.400 
#    0.000    0.000    0.000    0.000    0.000    0.000 
#    0.000    0.000    0.000    0.000    0.000    0.000 
#
# Total GULP energy -223731.265196 kJ/mol
# GULP energy per Si atom -5593.281630 kJ/mol
# Density = 1.881379 g / cm^3
# Si number density = 18.856714 Si / 1000 Ang^3
#
#
#
# Elastic Constant Matrix: (Units=GPa)
#
#
# Indices 1 2 3 4 5 6 
#
# 1 108.0404 85.2768 84.3001 0.0000 0.0000 0.0000
# 2 85.2768 147.7018 121.5736 0.0000 0.0000 0.0000
# 3 84.3001 121.5736 160.2738 0.0000 0.0000 0.0000
# 4 0.0000 0.0000 0.0000 439.4413 0.0000 0.0000
# 5 0.0000 0.0000 0.0000 0.0000 30.6717 0.0000
# 6 0.0000 0.0000 0.0000 0.0000 0.0000 -29.3083
#
#
#
# Elastic Compliance Matrix: (Units=1/GPa)
#
#
# Indices 1 2 3 4 5 6 
#
# 1 0.018018 -0.006928 -0.004222 0.000000 0.000000 0.000000
# 2 -0.006928 0.020687 -0.012048 0.000000 0.000000 0.000000
# 3 -0.004222 -0.012048 0.017599 0.000000 0.000000 0.000000
# 4 0.000000 0.000000 0.000000 0.002276 0.000000 0.000000
# 5 0.000000 0.000000 0.000000 0.000000 0.032603 0.000000
# 6 0.000000 0.000000 0.000000 0.000000 0.000000 -0.034120
#
#
# Mechanical properties :
#
#
# Convention : Reuss Voigt Hill
#
# Bulk Modulus (GPa) = 100.92544 110.92412 105.92478
# Shear Modulus (GPa) = 46.83327 96.48530 71.65929
#
# Velocity S-wave (km/s) = 4.98902 7.16091 6.17126
# Velocity P-wave (km/s) = 9.31802 11.28380 10.34770
#
# Compressibility (1/GPa) = 0.00990830
#
# Stress axis : x y z
#
# Youngs Moduli (GPa) = 55.49894 48.34007 56.82140
#
# Poissons Ratio (x) = 0.33488 0.23992
# Poissons Ratio (y) = 0.38447 0.68458
# Poissons Ratio (z) = 0.23434 0.58240
#
# Static dielectric constant tensor:
#      x y z
#    x 1.638940 0.000000 0.000000 
#    y 0.000000 1.628250 0.000000 
#    z 0.000000 0.000000 1.618580 
# 
# From -- ./inp_files/63932.got.cif
#   From: 2010.05.17/outbox.cif.g08.bks.cpg/sg74_32_cif.got.tgz:63932.got - 2010.06.03 17:57:02.
