data_PCOD9539466
_publ_section_title
;
Structure prediction by ZEFSAII (Michael W. Deem and Ramdas Pophale) SiO2 
 PCOD9539466
Probable space group: I M M A
;
_chemical_formula_sum "Si O2"
_cell_formula_units_Z 104
_cell_length_a 15.444080
_cell_length_b 14.592960
_cell_length_c 23.090053
_cell_angle_alpha 90.000000
_cell_angle_beta 90.000000
_cell_angle_gamma 90.000000
_cell_volume 5203.917039
_symmetry_space_group_name_H-M "I M M A"
_symmetry_group_IT_number 74
_symmetry_cell_setting 'orthorhombic'
loop_
_space_group_symop_operation_xyz
x,y,z
-x,1/2-y,z
x,-y,-z
-x,1/2+y,-z
-x,-y,-z
x,1/2+y,-z
-x,y,z
x,1/2-y,z
1/2+x,1/2+y,1/2+z
1/2-x,-y,1/2+z
1/2+x,1/2-y,1/2-z
1/2-x,y,1/2-z
1/2-x,1/2-y,1/2-z
1/2+x,y,1/2-z
1/2-x,1/2+y,1/2+z
1/2+x,-y,1/2+z
loop_
_atom_site_type_symbol
_atom_site_label
_atom_site_fract_x
_atom_site_fract_y
_atom_site_fract_z
Si Si1 0.104971 0.143676 0.081892
Si Si2 0.894303 0.250000 0.403071
Si Si3 0.102680 0.951529 0.799379
Si Si4 0.804827 0.910074 0.399360
Si Si5 0.180463 0.850182 0.198141
Si Si6 0.806540 0.500000 0.000000
Si Si7 0.897549 0.250000 0.534907
Si Si8 0.894748 0.072196 0.330074
O O1 0.132020 0.250000 0.077693
O O2 0.136414 0.098915 0.142955
O O3 0.000000 0.141568 0.082018
O O4 0.137858 0.081296 0.029056
O O5 0.862277 0.250000 0.469088
O O6 0.868453 0.159165 0.368516
O O7 0.000000 0.250000 0.404102
O O8 0.134680 0.917788 0.736636
O O9 0.000000 0.936151 0.799578
O O10 0.121307 0.060058 0.801362
O O11 0.735909 0.856655 0.360238
O O12 0.867463 0.838866 0.430437
O O13 0.753455 0.962579 0.449061
O O14 0.854929 0.981453 0.358401
O O15 0.137460 0.750000 0.202832
O O16 0.250000 0.857413 0.250000
O O17 0.000000 0.250000 0.530610
O O18 0.000000 0.065844 0.330659
#
# Coordination Sequence:
#
# PCOD9539466 Si02
#       8
#    16   8  16  16  16   8   8  16
#     4  10  23  43  67  96 129 168 214 266 318 379
#     4   9  20  38  60  87 121 154 199 252 299 362
#     4  10  21  40  66  94 125 160 206 258 321 386
#     4  12  23  39  60  90 122 164 206 258 308 368
#     4  11  22  40  61  85 123 162 203 264 319 366
#     4  12  25  40  67  90 128 172 212 258 313 384
#     4  11  24  42  63  90 127 171 215 256 307 378
#     4  10  21  39  63  92 122 160 205 254 312 377
#
# _framework density 19.984946000000001
#
# number of rings (size 3 to 8) (size 9 to 14) (size 15 to 20)
#    0.000    1.385    3.846    1.615    2.154    0.308 
#    1.385    3.077    0.000    2.308    0.000    0.000 
#    0.000    0.000    0.000    0.000    0.000    0.000 
#
# Total GULP energy -290541.577750 kJ/mol
# GULP energy per Si atom -5587.338034 kJ/mol
# Density = 1.993946 g / cm^3
# Si number density = 19.984946 Si / 1000 Ang^3
#
#
#
# Elastic Constant Matrix: (Units=GPa)
#
#
# Indices 1 2 3 4 5 6 
#
# 1 22.1379 5.2551 20.2608 0.0000 0.0000 0.0000
# 2 5.2551 107.1415 38.0119 0.0000 0.0000 0.0000
# 3 20.2608 38.0119 131.6744 0.0000 0.0000 0.0000
# 4 0.0000 0.0000 0.0000 -9.9257 0.0000 0.0000
# 5 0.0000 0.0000 0.0000 0.0000 26.7089 0.0000
# 6 0.0000 0.0000 0.0000 0.0000 0.0000 4.7252
#
#
#
# Elastic Compliance Matrix: (Units=1/GPa)
#
#
# Indices 1 2 3 4 5 6 
#
# 1 0.052585 0.000325 -0.008185 0.000000 0.000000 0.000000
# 2 0.000325 0.010400 -0.003052 0.000000 0.000000 0.000000
# 3 -0.008185 -0.003052 0.009735 0.000000 0.000000 0.000000
# 4 0.000000 0.000000 0.000000 -0.100748 0.000000 0.000000
# 5 0.000000 0.000000 0.000000 0.000000 0.037441 0.000000
# 6 0.000000 0.000000 0.000000 0.000000 0.000000 0.211632
#
#
# Mechanical properties :
#
#
# Convention : Reuss Voigt Hill
#
# Bulk Modulus (GPa) = 19.64815 43.11217 31.38016
# Shear Modulus (GPa) = 19.24290 17.46340 18.35315
#
# Velocity S-wave (km/s) = 3.10638 2.95926 3.03371
# Velocity P-wave (km/s) = 4.76644 5.77022 5.29218
#
# Compressibility (1/GPa) = 0.05089537
#
# Stress axis : x y z
#
# Youngs Moduli (GPa) = 19.01670 96.14971 102.72115
#
# Poissons Ratio (x) = -0.03122 0.84078
# Poissons Ratio (y) = -0.00617 0.31354
# Poissons Ratio (z) = 0.15565 0.29348
#
# Static dielectric constant tensor:
#      x y z
#    x 1.699240 0.000000 0.000000 
#    y 0.000000 1.681520 0.000000 
#    z 0.000000 0.000000 1.643390 
# 
# From -- ./inp_files/53131.got.cif
#   From: 2010.05.17/outbox.cif.g08.bks.cpg/sg74_27_cif.got.tgz:53131.got - 2010.06.03 17:57:02.
