data_PCOD9539852
_publ_section_title
;
Structure prediction by ZEFSAII (Michael W. Deem and Ramdas Pophale) SiO2 
 PCOD9539852
Probable space group: I M M A
;
_chemical_formula_sum "Si O2"
_cell_formula_units_Z 72
_cell_length_a 12.801275
_cell_length_b 17.473721
_cell_length_c 17.233894
_cell_angle_alpha 90.000000
_cell_angle_beta 90.000000
_cell_angle_gamma 90.000000
_cell_volume 3854.979224
_symmetry_space_group_name_H-M "I M M A"
_symmetry_group_IT_number 74
_symmetry_cell_setting 'orthorhombic'
loop_
_space_group_symop_operation_xyz
x,y,z
-x,1/2-y,z
x,-y,-z
-x,1/2+y,-z
-x,-y,-z
x,1/2+y,-z
-x,y,z
x,1/2-y,z
1/2+x,1/2+y,1/2+z
1/2-x,-y,1/2+z
1/2+x,1/2-y,1/2-z
1/2-x,y,1/2-z
1/2-x,1/2-y,1/2-z
1/2+x,y,1/2-z
1/2-x,1/2+y,1/2+z
1/2+x,-y,1/2+z
loop_
_atom_site_type_symbol
_atom_site_label
_atom_site_fract_x
_atom_site_fract_y
_atom_site_fract_z
Si Si1 0.385065 0.106689 0.395727
Si Si2 0.323036 0.445664 0.678455
Si Si3 0.711741 0.911730 0.021523
Si Si4 0.000000 0.842544 0.253002
Si Si5 0.500000 0.159715 0.935141
Si Si6 0.125006 0.250000 0.218887
O O1 0.500000 0.110071 0.432983
O O2 0.295874 0.117412 0.459681
O O3 0.377735 0.173154 0.332313
O O4 0.373015 0.023208 0.356251
O O5 0.250000 0.468963 0.750000
O O6 0.258653 0.409335 0.607763
O O7 0.402125 0.382839 0.711688
O O8 0.602795 0.869150 0.022140
O O9 0.693103 0.000000 0.000000
O O10 0.000000 0.750000 0.246480
O O11 0.000000 0.864702 0.344359
O O12 0.500000 0.250000 0.933988
O O13 0.250000 0.250000 0.250000
O O14 0.000000 0.250000 0.255913
#
# Coordination Sequence:
#
# PCOD9539852 Si02
#       6
#    16  16  16   8   8   8
#     4  10  22  40  64  91 126 161 204 264 312 375
#     4  11  21  39  64  88 120 162 209 253 315 375
#     4  10  23  39  62  90 123 164 209 256 309 374
#     4  11  24  39  58  91 125 162 211 261 310 373
#     4  11  23  41  61  86 133 165 203 265 307 375
#     4  10  22  44  66  96 131 162 214 265 322 385
#
# _framework density 18.677143000000001
#
# number of rings (size 3 to 8) (size 9 to 14) (size 15 to 20)
#    0.000    1.556    3.333    1.000    3.111    2.667 
#    2.000    0.000    0.000    0.000    0.000    0.000 
#    0.000    0.000    0.000    0.000    0.000    0.000 
#
# Total GULP energy -200624.227753 kJ/mol
# GULP energy per Si atom -5572.895215 kJ/mol
# Density = 1.863463 g / cm^3
# Si number density = 18.677143 Si / 1000 Ang^3
#
#
#
# Elastic Constant Matrix: (Units=GPa)
#
#
# Indices 1 2 3 4 5 6 
#
# 1 179.0265 47.9239 67.2804 0.0000 0.0000 0.0000
# 2 47.9239 47.9800 11.2922 0.0000 0.0000 0.0000
# 3 67.2804 11.2922 75.4789 0.0000 0.0000 0.0000
# 4 0.0000 0.0000 0.0000 8.2557 0.0000 0.0000
# 5 0.0000 0.0000 0.0000 0.0000 25.9258 0.0000
# 6 0.0000 0.0000 0.0000 0.0000 0.0000 20.7964
#
#
#
# Elastic Compliance Matrix: (Units=1/GPa)
#
#
# Indices 1 2 3 4 5 6 
#
# 1 0.011352 -0.009284 -0.008730 0.000000 0.000000 0.000000
# 2 -0.009284 0.029195 0.003908 0.000000 0.000000 0.000000
# 3 -0.008730 0.003908 0.020446 0.000000 0.000000 0.000000
# 4 0.000000 0.000000 0.000000 0.121128 0.000000 0.000000
# 5 0.000000 0.000000 0.000000 0.000000 0.038572 0.000000
# 6 0.000000 0.000000 0.000000 0.000000 0.000000 0.048085
#
#
# Mechanical properties :
#
#
# Convention : Reuss Voigt Hill
#
# Bulk Modulus (GPa) = 30.50571 61.71982 46.11276
# Shear Modulus (GPa) = 16.23815 22.72817 19.48316
#
# Velocity S-wave (km/s) = 2.95178 3.49219 3.23330
# Velocity P-wave (km/s) = 5.29018 7.02694 6.21948
#
# Compressibility (1/GPa) = 0.03278075
#
# Stress axis : x y z
#
# Youngs Moduli (GPa) = 88.09214 34.25197 48.91004
#
# Poissons Ratio (x) = 0.31799 0.42697
# Poissons Ratio (y) = 0.81784 -0.19112
# Poissons Ratio (z) = 0.76903 -0.13384
#
# Static dielectric constant tensor:
#      x y z
#    x 1.692390 0.000000 0.000000 
#    y 0.000000 1.607150 0.000000 
#    z 0.000000 0.000000 1.634510 
# 
# From -- ./inp_files/41009.got.cif
#   From: 2010.05.17/outbox.cif.g08.bks.cpg/sg74_21_cif.got.tgz:41009.got - 2010.06.03 17:57:02.
