data_PCOD9539032
_publ_section_title
;
Structure prediction by ZEFSAII (Michael W. Deem and Ramdas Pophale) SiO2 
 PCOD9539032
Probable space group: I M M A
;
_chemical_formula_sum "Si O2"
_cell_formula_units_Z 96
_cell_length_a 30.441392
_cell_length_b 14.994912
_cell_length_c 10.213303
_cell_angle_alpha 90.000000
_cell_angle_beta 90.000000
_cell_angle_gamma 90.000000
_cell_volume 4662.025508
_symmetry_space_group_name_H-M "I M M A"
_symmetry_group_IT_number 74
_symmetry_cell_setting 'orthorhombic'
loop_
_space_group_symop_operation_xyz
x,y,z
-x,1/2-y,z
x,-y,-z
-x,1/2+y,-z
-x,-y,-z
x,1/2+y,-z
-x,y,z
x,1/2-y,z
1/2+x,1/2+y,1/2+z
1/2-x,-y,1/2+z
1/2+x,1/2-y,1/2-z
1/2-x,y,1/2-z
1/2-x,1/2-y,1/2-z
1/2+x,y,1/2-z
1/2-x,1/2+y,1/2+z
1/2+x,-y,1/2+z
loop_
_atom_site_type_symbol
_atom_site_label
_atom_site_fract_x
_atom_site_fract_y
_atom_site_fract_z
Si Si1 0.127337 0.147934 0.437340
Si Si2 0.052219 0.652923 0.235632
Si Si3 0.577415 0.097770 0.457744
Si Si4 0.694562 0.500000 0.000000
Si Si5 0.832314 0.350733 0.145030
Si Si6 0.750000 0.546305 0.750000
Si Si7 0.948819 0.453401 0.319615
O O1 0.124831 0.250000 0.481450
O O2 0.145712 0.150947 0.288570
O O3 0.081057 0.096688 0.425585
O O4 0.162839 0.085959 0.507831
O O5 0.067840 0.750000 0.287633
O O6 0.061843 0.654687 0.080034
O O7 0.067921 0.555024 0.287548
O O8 0.000000 0.650110 0.255510
O O9 0.630155 0.104587 0.443243
O O10 0.556732 0.105790 0.313644
O O11 0.563503 0.000000 0.500000
O O12 0.723081 0.499053 0.866669
O O13 0.825762 0.250000 0.098539
O O14 0.786019 0.397388 0.168451
O O15 0.000000 0.456495 0.354603
#
# Coordination Sequence:
#
# PCOD9539032 Si02
#       7
#    16  16  16   8  16   8  16
#     4   9  19  37  59  83 114 152 192 241 301 352
#     4   9  16  26  42  69 111 161 205 248 305 363
#     4   9  16  25  42  69 109 151 198 252 306 352
#     4  10  22  42  65  90 120 156 193 250 308 366
#     4   9  17  30  50  76 105 143 194 245 294 357
#     4  10  21  36  61  86 114 150 198 244 306 364
#     4   9  17  30  49  77 111 153 208 255 290 346
#
# _framework density 20.591908
#
# number of rings (size 3 to 8) (size 9 to 14) (size 15 to 20)
#    0.000    2.833    0.000    1.250    1.167    3.667 
#    0.000    1.667    0.000    0.000    0.000    0.000 
#    0.000    0.000    0.000    0.000    0.000    0.000 
#
# Total GULP energy -267354.826454 kJ/mol
# GULP energy per Si atom -5569.892218 kJ/mol
# Density = 2.054504 g / cm^3
# Si number density = 20.591908 Si / 1000 Ang^3
#
#
#
# Elastic Constant Matrix: (Units=GPa)
#
#
# Indices 1 2 3 4 5 6 
#
# 1 99.1763 46.4283 30.1771 0.0000 0.0000 0.0000
# 2 46.4283 132.9147 25.2401 0.0000 0.0000 0.0000
# 3 30.1771 25.2401 70.6263 0.0000 0.0000 0.0000
# 4 0.0000 0.0000 0.0000 10.6204 0.0000 0.0000
# 5 0.0000 0.0000 0.0000 0.0000 14.0357 0.0000
# 6 0.0000 0.0000 0.0000 0.0000 0.0000 7.4269
#
#
#
# Elastic Compliance Matrix: (Units=1/GPa)
#
#
# Indices 1 2 3 4 5 6 
#
# 1 0.013153 -0.003784 -0.004268 0.000000 0.000000 0.000000
# 2 -0.003784 0.009160 -0.001657 0.000000 0.000000 0.000000
# 3 -0.004268 -0.001657 0.016575 0.000000 0.000000 0.000000
# 4 0.000000 0.000000 0.000000 0.094158 0.000000 0.000000
# 5 0.000000 0.000000 0.000000 0.000000 0.071247 0.000000
# 6 0.000000 0.000000 0.000000 0.000000 0.000000 0.134645
#
#
# Mechanical properties :
#
#
# Convention : Reuss Voigt Hill
#
# Bulk Modulus (GPa) = 51.35910 56.26760 53.81335
# Shear Modulus (GPa) = 13.70446 19.80807 16.75626
#
# Velocity S-wave (km/s) = 2.58258 3.10487 2.85569
# Velocity P-wave (km/s) = 5.82138 6.34335 6.08796
#
# Compressibility (1/GPa) = 0.01947075
#
# Stress axis : x y z
#
# Youngs Moduli (GPa) = 76.02778 109.16984 60.33326
#
# Poissons Ratio (x) = 0.41311 0.25748
# Poissons Ratio (y) = 0.28769 0.09996
# Poissons Ratio (z) = 0.32446 0.18086
#
# Static dielectric constant tensor:
#      x y z
#    x 1.735490 0.000000 0.000000 
#    y 0.000000 1.788050 0.000000 
#    z 0.000000 0.000000 1.527660 
# 
# From -- ./inp_files/27161.got.cif
#   From: 2010.05.17/outbox.cif.g08.bks.cpg/sg74_14_cif.got.tgz:27161.got - 2010.06.03 17:57:02.
