data_PCOD9539175
_publ_section_title
;
Structure prediction by ZEFSAII (Michael W. Deem and Ramdas Pophale) SiO2 
 PCOD9539175
Probable space group: I M M A
;
_chemical_formula_sum "Si O2"
_cell_formula_units_Z 104
_cell_length_a 21.900501
_cell_length_b 9.006059
_cell_length_c 27.293682
_cell_angle_alpha 90.000000
_cell_angle_beta 90.000000
_cell_angle_gamma 90.000000
_cell_volume 5383.329528
_symmetry_space_group_name_H-M "I M M A"
_symmetry_group_IT_number 74
_symmetry_cell_setting 'orthorhombic'
loop_
_space_group_symop_operation_xyz
x,y,z
-x,1/2-y,z
x,-y,-z
-x,1/2+y,-z
-x,-y,-z
x,1/2+y,-z
-x,y,z
x,1/2-y,z
1/2+x,1/2+y,1/2+z
1/2-x,-y,1/2+z
1/2+x,1/2-y,1/2-z
1/2-x,y,1/2-z
1/2-x,1/2-y,1/2-z
1/2+x,y,1/2-z
1/2-x,1/2+y,1/2+z
1/2+x,-y,1/2+z
loop_
_atom_site_type_symbol
_atom_site_label
_atom_site_fract_x
_atom_site_fract_y
_atom_site_fract_z
Si Si1 0.188580 0.928372 0.778252
Si Si2 0.330633 0.076798 0.389965
Si Si3 0.570351 0.425902 0.550800
Si Si4 0.500000 0.926993 0.947061
Si Si5 0.208382 0.574302 0.552799
Si Si6 0.571115 0.927758 0.227893
Si Si7 0.893084 0.072817 0.614706
O O1 0.185160 0.750000 0.771512
O O2 0.250000 0.980404 0.750000
O O3 0.194208 0.959711 0.836069
O O4 0.124895 0.997111 0.759261
O O5 0.348593 0.250000 0.389352
O O6 0.278402 0.058706 0.430730
O O7 0.387760 0.979179 0.405200
O O8 0.591057 0.500000 0.500000
O O9 0.500000 0.470142 0.558737
O O10 0.573369 0.250000 0.545352
O O11 0.500000 0.750000 0.950168
O O12 0.557854 0.987957 0.918023
O O13 0.500000 0.000000 0.000000
O O14 0.196803 0.500000 0.500000
O O15 0.193378 0.750000 0.550983
O O16 0.170190 0.493070 0.595299
O O17 0.500000 0.976031 0.235796
O O18 0.572514 0.750000 0.235966
O O19 0.590036 0.954428 0.171237
O O20 0.895749 0.250000 0.606504
#
# Coordination Sequence:
#
# PCOD9539175 Si02
#       7
#    16  16  16   8  16  16  16
#     4  10  22  41  63  89 121 156 200 254 305 359
#     4  10  22  39  60  86 119 155 195 247 299 354
#     4  10  21  37  59  87 119 155 195 239 291 356
#     4  12  24  38  58  84 116 154 196 242 291 346
#     4  11  23  39  59  87 120 157 200 245 297 356
#     4  10  22  41  63  89 122 158 200 253 305 358
#     4  11  22  40  61  84 118 157 198 245 295 347
#
# _framework density 19.318899999999999
#
# number of rings (size 3 to 8) (size 9 to 14) (size 15 to 20)
#    0.000    1.538    0.769    3.923    0.000    7.692 
#    0.000    3.077    0.000    0.000    0.000    0.000 
#    0.000    0.000    0.000    0.000    0.000    0.000 
#
# Total GULP energy -290459.942361 kJ/mol
# GULP energy per Si atom -5585.768122 kJ/mol
# Density = 1.927493 g / cm^3
# Si number density = 19.318900 Si / 1000 Ang^3
#
#
#
# Elastic Constant Matrix: (Units=GPa)
#
#
# Indices 1 2 3 4 5 6 
#
# 1 95.8699 35.9786 31.9679 0.0000 0.0000 0.0000
# 2 35.9786 49.8642 23.5904 0.0000 0.0000 0.0000
# 3 31.9679 23.5904 50.0792 0.0000 0.0000 0.0000
# 4 0.0000 0.0000 0.0000 30.7364 0.0000 0.0000
# 5 0.0000 0.0000 0.0000 0.0000 39.5330 0.0000
# 6 0.0000 0.0000 0.0000 0.0000 0.0000 36.7203
#
#
#
# Elastic Compliance Matrix: (Units=1/GPa)
#
#
# Indices 1 2 3 4 5 6 
#
# 1 0.015584 -0.008413 -0.005985 0.000000 0.000000 0.000000
# 2 -0.008413 0.030347 -0.008925 0.000000 0.000000 0.000000
# 3 -0.005985 -0.008925 0.027993 0.000000 0.000000 0.000000
# 4 0.000000 0.000000 0.000000 0.032535 0.000000 0.000000
# 5 0.000000 0.000000 0.000000 0.000000 0.025295 0.000000
# 6 0.000000 0.000000 0.000000 0.000000 0.000000 0.027233
#
#
# Mechanical properties :
#
#
# Convention : Reuss Voigt Hill
#
# Bulk Modulus (GPa) = 36.65910 42.09855 39.37883
# Shear Modulus (GPa) = 23.28568 28.34970 25.81769
#
# Velocity S-wave (km/s) = 3.47555 3.83490 3.65964
# Velocity P-wave (km/s) = 5.92646 6.43796 6.18750
#
# Compressibility (1/GPa) = 0.02727835
#
# Stress axis : x y z
#
# Youngs Moduli (GPa) = 64.16993 32.95237 35.72322
#
# Poissons Ratio (x) = 0.27722 0.21380
# Poissons Ratio (y) = 0.53984 0.31883
# Poissons Ratio (z) = 0.38405 0.29410
#
# Static dielectric constant tensor:
#      x y z
#    x 1.711310 0.000000 0.000000 
#    y 0.000000 1.649310 0.000000 
#    z 0.000000 0.000000 1.661400 
# 
# From -- ./inp_files/64478.got.cif
#   From: 2010.05.17/outbox.cif.g08.bks.cpg/sg74_33_cif.got.tgz:64478.got - 2010.06.03 17:57:02.
