data_PCOD9539304
_publ_section_title
;
Structure prediction by ZEFSAII (Michael W. Deem and Ramdas Pophale) SiO2 
 PCOD9539304
Probable space group: I M M A
;
_chemical_formula_sum "Si O2"
_cell_formula_units_Z 64
_cell_length_a 22.246865
_cell_length_b 28.012160
_cell_length_c 5.180317
_cell_angle_alpha 90.000000
_cell_angle_beta 90.000000
_cell_angle_gamma 90.000000
_cell_volume 3228.284152
_symmetry_space_group_name_H-M "I M M A"
_symmetry_group_IT_number 74
_symmetry_cell_setting 'orthorhombic'
loop_
_space_group_symop_operation_xyz
x,y,z
-x,1/2-y,z
x,-y,-z
-x,1/2+y,-z
-x,-y,-z
x,1/2+y,-z
-x,y,z
x,1/2-y,z
1/2+x,1/2+y,1/2+z
1/2-x,-y,1/2+z
1/2+x,1/2-y,1/2-z
1/2-x,y,1/2-z
1/2-x,1/2-y,1/2-z
1/2+x,y,1/2-z
1/2-x,1/2+y,1/2+z
1/2+x,-y,1/2+z
loop_
_atom_site_type_symbol
_atom_site_label
_atom_site_fract_x
_atom_site_fract_y
_atom_site_fract_z
Si Si1 0.870476 0.157295 0.922951
Si Si2 0.290595 0.250000 0.502628
Si Si3 0.500000 0.916174 0.915012
Si Si4 0.865910 0.910533 0.580014
Si Si5 0.500000 0.651020 0.411817
Si Si6 0.250000 0.029226 0.250000
O O1 0.827758 0.201397 0.973566
O O2 0.859098 0.123065 0.674516
O O3 0.937773 0.178294 0.900840
O O4 0.868492 0.123825 0.172765
O O5 0.250000 0.250000 0.750000
O O6 0.250000 0.250000 0.250000
O O7 0.568415 0.937743 0.924775
O O8 0.500000 0.882909 0.662337
O O9 0.500000 0.883382 0.166402
O O10 0.806679 0.942024 0.630018
O O11 0.273231 0.000000 0.500000
#
# Coordination Sequence:
#
# PCOD9539304 Si02
#       6
#    16   8   8  16   8   8
#     4  10  21  38  60  87 115 162 196 246 291 345
#     4  12  26  37  52  87 132 154 210 243 275 340
#     4   8  16  34  58  90 108 147 197 244 280 366
#     4  10  21  39  65  83 119 157 198 236 308 357
#     4   8  16  33  58  83 112 145 205 242 288 338
#     4  12  26  42  60  91 120 149 198 250 298 372
#
# _framework density 19.824773
#
# number of rings (size 3 to 8) (size 9 to 14) (size 15 to 20)
#    0.000    2.000    0.000    3.000    5.250    0.500 
#    0.000    1.250    0.000   10.500    0.000    0.000 
#    0.000    0.000    0.000    0.000    0.000    0.000 
#
# Total GULP energy -178177.070213 kJ/mol
# GULP energy per Si atom -5568.033444 kJ/mol
# Density = 1.977965 g / cm^3
# Si number density = 19.824773 Si / 1000 Ang^3
#
#
#
# Elastic Constant Matrix: (Units=GPa)
#
#
# Indices 1 2 3 4 5 6 
#
# 1 171.3327 58.2210 33.7930 0.0000 0.0000 0.0000
# 2 58.2210 58.9321 34.3136 0.0000 0.0000 0.0000
# 3 33.7930 34.3136 170.4432 0.0000 0.0000 0.0000
# 4 0.0000 0.0000 0.0000 24.4158 0.0000 0.0000
# 5 0.0000 0.0000 0.0000 0.0000 32.3213 0.0000
# 6 0.0000 0.0000 0.0000 0.0000 0.0000 -10.4961
#
#
#
# Elastic Compliance Matrix: (Units=1/GPa)
#
#
# Indices 1 2 3 4 5 6 
#
# 1 0.008786 -0.008684 0.000006 0.000000 0.000000 0.000000
# 2 -0.008684 0.027805 -0.003876 0.000000 0.000000 0.000000
# 3 0.000006 -0.003876 0.006646 0.000000 0.000000 0.000000
# 4 0.000000 0.000000 0.000000 0.040957 0.000000 0.000000
# 5 0.000000 0.000000 0.000000 0.000000 0.030939 0.000000
# 6 0.000000 0.000000 0.000000 0.000000 0.000000 -0.095273
#
#
# Mechanical properties :
#
#
# Convention : Reuss Voigt Hill
#
# Bulk Modulus (GPa) = 55.15771 72.59592 63.87682
# Shear Modulus (GPa) = 98.01927 27.54021 62.77974
#
# Velocity S-wave (km/s) = 7.03919 3.73122 5.63348
# Velocity P-wave (km/s) = 9.69278 7.43377 8.63744
#
# Compressibility (1/GPa) = 0.01812983
#
# Stress axis : x y z
#
# Youngs Moduli (GPa) = 113.81412 35.96536 150.46376
#
# Poissons Ratio (x) = 0.31232 -0.00094
# Poissons Ratio (y) = 0.98835 0.58318
# Poissons Ratio (z) = -0.00071 0.13940
#
# Static dielectric constant tensor:
#      x y z
#    x 1.705990 0.000000 0.000000 
#    y 0.000000 1.660890 0.000000 
#    z 0.000000 0.000000 1.657050 
# 
# From -- ./inp_files/3074.got.cif
#   From: 2010.05.17/outbox.cif.g08.bks.cpg/sg74_2_cif.got.tgz:3074.got - 2010.06.03 17:57:02.
