data_PCOD9539305
_publ_section_title
;
Structure prediction by ZEFSAII (Michael W. Deem and Ramdas Pophale) SiO2 
 PCOD9539305
Probable space group: I M M A
;
_chemical_formula_sum "Si O2"
_cell_formula_units_Z 104
_cell_length_a 8.189256
_cell_length_b 22.322841
_cell_length_c 27.727937
_cell_angle_alpha 90.000000
_cell_angle_beta 90.000000
_cell_angle_gamma 90.000000
_cell_volume 5068.873723
_symmetry_space_group_name_H-M "I M M A"
_symmetry_group_IT_number 74
_symmetry_cell_setting 'orthorhombic'
loop_
_space_group_symop_operation_xyz
x,y,z
-x,1/2-y,z
x,-y,-z
-x,1/2+y,-z
-x,-y,-z
x,1/2+y,-z
-x,y,z
x,1/2-y,z
1/2+x,1/2+y,1/2+z
1/2-x,-y,1/2+z
1/2+x,1/2-y,1/2-z
1/2-x,y,1/2-z
1/2-x,1/2-y,1/2-z
1/2+x,y,1/2-z
1/2-x,1/2+y,1/2+z
1/2+x,-y,1/2+z
loop_
_atom_site_type_symbol
_atom_site_label
_atom_site_fract_x
_atom_site_fract_y
_atom_site_fract_z
Si Si1 0.197550 0.181000 0.976814
Si Si2 0.806525 0.358430 0.870115
Si Si3 0.808054 0.538532 0.302782
Si Si4 0.196955 0.182426 0.303039
Si Si5 0.802482 0.559119 0.529639
Si Si6 0.804670 0.750000 0.304899
Si Si7 0.200049 0.571672 0.638916
O O1 0.252026 0.250000 0.988277
O O2 0.252405 0.163265 0.922492
O O3 0.000000 0.182601 0.977143
O O4 0.251157 0.124296 0.009098
O O5 0.728345 0.416853 0.846718
O O6 0.767333 0.306820 0.832182
O O7 0.000000 0.367874 0.873545
O O8 0.750000 0.558469 0.250000
O O9 0.740549 0.474888 0.320671
O O10 0.000000 0.532902 0.297959
O O11 0.258722 0.250000 0.309553
O O12 0.250000 0.161466 0.250000
O O13 0.251896 0.137363 0.344366
O O14 0.000000 0.183859 0.303718
O O15 0.745547 0.500000 0.500000
O O16 0.747359 0.554922 0.585193
O O17 0.000000 0.557883 0.528495
O O18 0.750000 0.750000 0.250000
O O19 0.000000 0.750000 0.308101
O O20 0.000000 0.570201 0.638671
#
# Coordination Sequence:
#
# PCOD9539305 Si02
#       7
#    16  16  16  16  16   8  16
#     4  10  22  41  62  86 118 155 196 246 300 355
#     4  11  22  40  60  81 114 154 193 236 287 341
#     4  11  22  37  57  84 117 154 196 242 290 346
#     4   9  17  31  52  77 106 142 181 222 274 337
#     4  10  21  38  60  87 117 150 194 246 295 350
#     4  12  24  38  58  84 114 148 190 234 281 336
#     4   9  19  35  55  80 113 149 187 234 286 342
#
# _framework density 20.517378000000001
#
# number of rings (size 3 to 8) (size 9 to 14) (size 15 to 20)
#    0.000    1.846    0.769    3.462    0.000    3.692 
#    0.000    4.615    0.000    1.846    0.000    0.000 
#    0.000    0.000    0.000    0.000    0.000    0.000 
#
# Total GULP energy -290215.973431 kJ/mol
# GULP energy per Si atom -5581.076412 kJ/mol
# Density = 2.047068 g / cm^3
# Si number density = 20.517378 Si / 1000 Ang^3
#
#
#
# Elastic Constant Matrix: (Units=GPa)
#
#
# Indices 1 2 3 4 5 6 
#
# 1 5.6311 0.7911 8.7727 0.0000 0.0000 0.0000
# 2 0.7911 111.8370 35.7299 0.0000 0.0000 0.0000
# 3 8.7727 35.7299 57.4499 0.0000 0.0000 0.0000
# 4 0.0000 0.0000 0.0000 38.8550 0.0000 0.0000
# 5 0.0000 0.0000 0.0000 0.0000 22.3206 0.0000
# 6 0.0000 0.0000 0.0000 0.0000 0.0000 28.8666
#
#
#
# Elastic Compliance Matrix: (Units=1/GPa)
#
#
# Indices 1 2 3 4 5 6 
#
# 1 0.246993 0.012857 -0.045713 0.000000 0.000000 0.000000
# 2 0.012857 0.011828 -0.009320 0.000000 0.000000 0.000000
# 3 -0.045713 -0.009320 0.030183 0.000000 0.000000 0.000000
# 4 0.000000 0.000000 0.000000 0.025737 0.000000 0.000000
# 5 0.000000 0.000000 0.000000 0.000000 0.044802 0.000000
# 6 0.000000 0.000000 0.000000 0.000000 0.000000 0.034642
#
#
# Mechanical properties :
#
#
# Convention : Reuss Voigt Hill
#
# Bulk Modulus (GPa) = 4.88630 29.50061 17.19345
# Shear Modulus (GPa) = 9.14491 26.65006 17.89748
#
# Velocity S-wave (km/s) = 2.11349 3.60794 2.95669
# Velocity P-wave (km/s) = 2.88834 5.63612 4.47819
#
# Compressibility (1/GPa) = 0.20465387
#
# Stress axis : x y z
#
# Youngs Moduli (GPa) = 4.04870 84.54472 33.13125
#
# Poissons Ratio (x) = -1.08700 1.51451
# Poissons Ratio (y) = -0.05205 0.30877
# Poissons Ratio (z) = 0.18508 0.78792
#
# Static dielectric constant tensor:
#      x y z
#    x 1.716350 0.000000 0.000000 
#    y 0.000000 1.713570 0.000000 
#    z 0.000000 0.000000 1.727890 
# 
# From -- ./inp_files/64460.got.cif
#   From: 2010.05.17/outbox.cif.g08.bks.cpg/sg74_33_cif.got.tgz:64460.got - 2010.06.03 17:57:02.
