data_PCOD9539841
_publ_section_title
;
Structure prediction by ZEFSAII (Michael W. Deem and Ramdas Pophale) SiO2 
 PCOD9539841
Probable space group: I M M A
;
_chemical_formula_sum "Si O2"
_cell_formula_units_Z 68
_cell_length_a 22.113676
_cell_length_b 7.901022
_cell_length_c 19.640682
_cell_angle_alpha 90.000000
_cell_angle_beta 90.000000
_cell_angle_gamma 90.000000
_cell_volume 3431.632540
_symmetry_space_group_name_H-M "I M M A"
_symmetry_group_IT_number 74
_symmetry_cell_setting 'orthorhombic'
loop_
_space_group_symop_operation_xyz
x,y,z
-x,1/2-y,z
x,-y,-z
-x,1/2+y,-z
-x,-y,-z
x,1/2+y,-z
-x,y,z
x,1/2-y,z
1/2+x,1/2+y,1/2+z
1/2-x,-y,1/2+z
1/2+x,1/2-y,1/2-z
1/2-x,y,1/2-z
1/2-x,1/2-y,1/2-z
1/2+x,y,1/2-z
1/2-x,1/2+y,1/2+z
1/2+x,-y,1/2+z
loop_
_atom_site_type_symbol
_atom_site_label
_atom_site_fract_x
_atom_site_fract_y
_atom_site_fract_z
Si Si1 0.732079 0.951789 0.676358
Si Si2 0.068281 0.750000 0.375530
Si Si3 0.500000 0.750000 0.257358
Si Si4 0.346557 0.551829 0.922963
Si Si5 0.000000 0.939218 0.109139
Si Si6 0.366656 0.552384 0.576027
O O1 0.720648 0.750000 0.687592
O O2 0.750000 0.024063 0.750000
O O3 0.788662 0.966591 0.625627
O O4 0.674111 0.025506 0.636363
O O5 0.103364 0.581852 0.398003
O O6 0.000000 0.750000 0.404884
O O7 0.056482 0.750000 0.294032
O O8 0.500000 0.592695 0.309329
O O9 0.365510 0.750000 0.921324
O O10 0.330622 0.500000 0.000000
O O11 0.062416 0.021545 0.087407
O O12 0.000000 0.250000 0.921707
O O13 0.349119 0.500000 0.500000
O O14 0.355396 0.750000 0.578670
#
# Coordination Sequence:
#
# PCOD9539841 Si02
#       6
#    16   8   4  16   8  16
#     4   9  21  38  62  92 127 164 214 266 321 385
#     4  10  24  44  64  97 130 161 221 267 318 391
#     4   8  24  44  60  90 134 150 210 270 308 378
#     4  11  22  42  66  93 130 172 211 271 326 382
#     4  10  22  40  63  85 129 160 200 259 317 372
#     4  11  22  39  62  93 126 167 214 261 321 383
#
# _framework density 19.815642
#
# number of rings (size 3 to 8) (size 9 to 14) (size 15 to 20)
#    0.706    1.176    1.176    2.118    3.294    0.941 
#    4.235    1.765    0.000    0.000    0.000    0.000 
#    0.000    0.000    0.000    0.000    0.000    0.000 
#
# Total GULP energy -189580.242470 kJ/mol
# GULP energy per Si atom -5575.889484 kJ/mol
# Density = 1.977054 g / cm^3
# Si number density = 19.815642 Si / 1000 Ang^3
#
#
#
# Elastic Constant Matrix: (Units=GPa)
#
#
# Indices 1 2 3 4 5 6 
#
# 1 88.7280 25.9556 50.5365 0.0000 0.0000 0.0000
# 2 25.9556 82.1135 28.4644 0.0000 0.0000 0.0000
# 3 50.5365 28.4644 163.8765 0.0000 0.0000 0.0000
# 4 0.0000 0.0000 0.0000 12.8283 0.0000 0.0000
# 5 0.0000 0.0000 0.0000 0.0000 84.4150 0.0000
# 6 0.0000 0.0000 0.0000 0.0000 0.0000 29.0452
#
#
#
# Elastic Compliance Matrix: (Units=1/GPa)
#
#
# Indices 1 2 3 4 5 6 
#
# 1 0.014426 -0.003211 -0.003891 0.000000 0.000000 0.000000
# 2 -0.003211 0.013673 -0.001385 0.000000 0.000000 0.000000
# 3 -0.003891 -0.001385 0.007543 0.000000 0.000000 0.000000
# 4 0.000000 0.000000 0.000000 0.077952 0.000000 0.000000
# 5 0.000000 0.000000 0.000000 0.000000 0.011846 0.000000
# 6 0.000000 0.000000 0.000000 0.000000 0.000000 0.034429
#
#
# Mechanical properties :
#
#
# Convention : Reuss Voigt Hill
#
# Bulk Modulus (GPa) = 53.56710 60.51455 57.04083
# Shear Modulus (GPa) = 27.31258 40.57514 33.94386
#
# Velocity S-wave (km/s) = 3.71662 4.52999 4.14331
# Velocity P-wave (km/s) = 6.74604 7.61355 7.19289
#
# Compressibility (1/GPa) = 0.01866817
#
# Stress axis : x y z
#
# Youngs Moduli (GPa) = 69.31974 73.13523 132.58094
#
# Poissons Ratio (x) = 0.23485 0.51586
# Poissons Ratio (y) = 0.22260 0.18359
# Poissons Ratio (z) = 0.26972 0.10127
#
# Static dielectric constant tensor:
#      x y z
#    x 1.530630 0.000000 0.000000 
#    y 0.000000 1.704490 0.000000 
#    z 0.000000 0.000000 1.726550 
# 
# From -- ./inp_files/44873.got.cif
#   From: 2010.05.17/outbox.cif.g08.bks.cpg/sg74_23_cif.got.tgz:44873.got - 2010.06.03 17:57:02.
