data_PCOD9539548
_publ_section_title
;
Structure prediction by ZEFSAII (Michael W. Deem and Ramdas Pophale) SiO2 
 PCOD9539548
Probable space group: I M M A
;
_chemical_formula_sum "Si O2"
_cell_formula_units_Z 48
_cell_length_a 14.644586
_cell_length_b 13.769642
_cell_length_c 10.849065
_cell_angle_alpha 90.000000
_cell_angle_beta 90.000000
_cell_angle_gamma 90.000000
_cell_volume 2187.721622
_symmetry_space_group_name_H-M "I M M A"
_symmetry_group_IT_number 74
_symmetry_cell_setting 'orthorhombic'
loop_
_space_group_symop_operation_xyz
x,y,z
-x,1/2-y,z
x,-y,-z
-x,1/2+y,-z
-x,-y,-z
x,1/2+y,-z
-x,y,z
x,1/2-y,z
1/2+x,1/2+y,1/2+z
1/2-x,-y,1/2+z
1/2+x,1/2-y,1/2-z
1/2-x,y,1/2-z
1/2-x,1/2-y,1/2-z
1/2+x,y,1/2-z
1/2-x,1/2+y,1/2+z
1/2+x,-y,1/2+z
loop_
_atom_site_type_symbol
_atom_site_label
_atom_site_fract_x
_atom_site_fract_y
_atom_site_fract_z
Si Si1 0.609839 0.750000 0.275926
Si Si2 0.645928 0.044887 0.120028
Si Si3 0.852236 0.036607 0.870174
Si Si4 0.889134 0.750000 0.515862
O O1 0.500000 0.750000 0.278373
O O2 0.641949 0.848578 0.342989
O O3 0.636704 0.750000 0.130079
O O4 0.648633 0.157273 0.088093
O O5 0.746509 0.997136 0.124964
O O6 0.605186 0.016709 0.251341
O O7 0.598667 0.000000 0.000000
O O8 0.891619 0.000000 0.000000
O O9 0.000000 0.750000 0.521060
#
# Coordination Sequence:
#
# PCOD9539548 Si02
#       4
#     8  16  16   8
#     4  11  24  43  68  97 134 177 218 266 333 399
#     4  10  21  40  65  97 130 170 221 271 316 386
#     4  10  23  40  65  99 132 175 216 271 328 391
#     4  11  24  41  69 101 131 171 222 276 327 385
#
# _framework density 21.940635
#
# number of rings (size 3 to 8) (size 9 to 14) (size 15 to 20)
#    0.000    1.667    3.333    0.000    0.000   14.667 
#    0.000    1.667    0.000    0.000    0.000    0.000 
#    0.000    0.000    0.000    0.000    0.000    0.000 
#
# Total GULP energy -134023.530993 kJ/mol
# GULP energy per Si atom -5584.313791 kJ/mol
# Density = 2.189070 g / cm^3
# Si number density = 21.940635 Si / 1000 Ang^3
#
#
#
# Elastic Constant Matrix: (Units=GPa)
#
#
# Indices 1 2 3 4 5 6 
#
# 1 113.0967 38.9449 21.6899 0.0000 0.0000 0.0000
# 2 38.9449 274.3042 113.1982 0.0000 0.0000 0.0000
# 3 21.6899 113.1982 263.9334 0.0000 0.0000 0.0000
# 4 0.0000 0.0000 0.0000 43.2636 0.0000 0.0000
# 5 0.0000 0.0000 0.0000 0.0000 -6.0997 0.0000
# 6 0.0000 0.0000 0.0000 0.0000 0.0000 149.2624
#
#
#
# Elastic Compliance Matrix: (Units=1/GPa)
#
#
# Indices 1 2 3 4 5 6 
#
# 1 0.009309 -0.001222 -0.000241 0.000000 0.000000 0.000000
# 2 -0.001222 0.004590 -0.001868 0.000000 0.000000 0.000000
# 3 -0.000241 -0.001868 0.004610 0.000000 0.000000 0.000000
# 4 0.000000 0.000000 0.000000 0.023114 0.000000 0.000000
# 5 0.000000 0.000000 0.000000 0.000000 -0.163941 0.000000
# 6 0.000000 0.000000 0.000000 0.000000 0.000000 0.006700
#
#
# Mechanical properties :
#
#
# Convention : Reuss Voigt Hill
#
# Bulk Modulus (GPa) = 84.41336 111.00003 97.70669
# Shear Modulus (GPa) = -47.61578 69.11867 10.75144
#
# Velocity S-wave (km/s) = -4.66361 5.61881 2.21605
# Velocity P-wave (km/s) = 3.09162 9.63304 7.15380
#
# Compressibility (1/GPa) = 0.01184647
#
# Stress axis : x y z
#
# Youngs Moduli (GPa) = 107.42207 217.86117 216.92605
#
# Poissons Ratio (x) = 0.26629 0.05223
# Poissons Ratio (y) = 0.13130 0.40526
# Poissons Ratio (z) = 0.02586 0.40701
#
# Static dielectric constant tensor:
#      x y z
#    x 1.904980 0.000000 0.000000 
#    y 0.000000 1.942770 0.000000 
#    z 0.000000 0.000000 1.924970 
# 
# From -- ./inp_files/18176.got.cif
#   From: 2010.05.17/outbox.cif.g08.bks.cpg/sg74_10_cif.got.tgz:18176.got - 2010.06.03 17:57:02.
