data_PCOD9539033
_publ_section_title
;
Structure prediction by ZEFSAII (Michael W. Deem and Ramdas Pophale) SiO2 
 PCOD9539033
Probable space group: I M M A
;
_chemical_formula_sum "Si O2"
_cell_formula_units_Z 116
_cell_length_a 19.239193
_cell_length_b 25.228404
_cell_length_c 13.578064
_cell_angle_alpha 90.000000
_cell_angle_beta 90.000000
_cell_angle_gamma 90.000000
_cell_volume 6590.441050
_symmetry_space_group_name_H-M "I M M A"
_symmetry_group_IT_number 74
_symmetry_cell_setting 'orthorhombic'
loop_
_space_group_symop_operation_xyz
x,y,z
-x,1/2-y,z
x,-y,-z
-x,1/2+y,-z
-x,-y,-z
x,1/2+y,-z
-x,y,z
x,1/2-y,z
1/2+x,1/2+y,1/2+z
1/2-x,-y,1/2+z
1/2+x,1/2-y,1/2-z
1/2-x,y,1/2-z
1/2-x,1/2-y,1/2-z
1/2+x,y,1/2-z
1/2-x,1/2+y,1/2+z
1/2+x,-y,1/2+z
loop_
_atom_site_type_symbol
_atom_site_label
_atom_site_fract_x
_atom_site_fract_y
_atom_site_fract_z
Si Si1 0.500000 0.750000 0.237075
Si Si2 0.195086 0.618736 0.508866
Si Si3 0.576248 0.688132 0.915591
Si Si4 0.082081 0.356381 0.199719
Si Si5 0.173439 0.431211 0.702713
Si Si6 0.077647 0.847914 0.183028
Si Si7 0.172490 0.947117 0.706967
Si Si8 0.163017 0.313225 0.010913
O O1 0.559743 0.702859 0.248807
O O2 0.135033 0.661935 0.520460
O O3 0.184617 0.588087 0.408058
O O4 0.181425 0.579008 0.599656
O O5 0.268229 0.649919 0.513660
O O6 0.500000 0.664936 0.937552
O O7 0.574389 0.750000 0.934513
O O8 0.589538 0.678173 0.799652
O O9 0.121719 0.410693 0.227537
O O10 0.000000 0.364118 0.181985
O O11 0.118005 0.328080 0.107411
O O12 0.250000 0.429112 0.750000
O O13 0.121859 0.392208 0.760879
O O14 0.148671 0.492106 0.704319
O O15 0.118743 0.827887 0.086466
O O16 0.000000 0.867757 0.153510
O O17 0.250000 0.945746 0.750000
O O18 0.178633 0.250000 0.010913
#
# Coordination Sequence:
#
# PCOD9539033 Si02
#       8
#     4  16  16  16  16  16  16  16
#     4   8  20  44  62  84 128 164 196 252 300 352
#     4  11  22  38  60  91 117 157 200 251 302 366
#     4   9  19  37  54  83 121 157 197 248 296 357
#     4  10  21  36  61  88 120 158 201 243 308 364
#     4  11  23  40  63  85 116 159 205 246 294 357
#     4  10  21  41  61  88 123 159 201 244 300 353
#     4  10  21  41  62  85 119 156 194 251 303 350
#     4  12  21  36  59  93 125 161 202 246 300 368
#
# _framework density 17.60125
#
# number of rings (size 3 to 8) (size 9 to 14) (size 15 to 20)
#    0.414    1.241    3.448    1.655    0.000    2.483 
#    2.483    3.793    0.000    5.793    0.000    0.000 
#    0.000    0.000    0.000    0.000    0.000    0.000 
#
# Total GULP energy -322887.101689 kJ/mol
# GULP energy per Si atom -5567.018995 kJ/mol
# Density = 1.756119 g / cm^3
# Si number density = 17.601250 Si / 1000 Ang^3
#
#
#
# Elastic Constant Matrix: (Units=GPa)
#
#
# Indices 1 2 3 4 5 6 
#
# 1 60.8406 30.4824 1.8761 0.0000 0.0000 0.0000
# 2 30.4824 122.0548 27.3783 0.0000 0.0000 0.0000
# 3 1.8761 27.3783 45.9615 0.0000 0.0000 0.0000
# 4 0.0000 0.0000 0.0000 10.5185 0.0000 0.0000
# 5 0.0000 0.0000 0.0000 0.0000 19.5827 0.0000
# 6 0.0000 0.0000 0.0000 0.0000 0.0000 31.7847
#
#
#
# Elastic Compliance Matrix: (Units=1/GPa)
#
#
# Indices 1 2 3 4 5 6 
#
# 1 0.019008 -0.005278 0.002368 0.000000 0.000000 0.000000
# 2 -0.005278 0.010922 -0.006291 0.000000 0.000000 0.000000
# 3 0.002368 -0.006291 0.025408 0.000000 0.000000 0.000000
# 4 0.000000 0.000000 0.000000 0.095070 0.000000 0.000000
# 5 0.000000 0.000000 0.000000 0.000000 0.051065 0.000000
# 6 0.000000 0.000000 0.000000 0.000000 0.000000 0.031462
#
#
# Mechanical properties :
#
#
# Convention : Reuss Voigt Hill
#
# Bulk Modulus (GPa) = 27.07339 38.70339 32.88839
# Shear Modulus (GPa) = 18.96455 23.65185 21.30820
#
# Velocity S-wave (km/s) = 3.28602 3.66971 3.48315
# Velocity P-wave (km/s) = 5.46005 6.32396 5.90782
#
# Compressibility (1/GPa) = 0.03693663
#
# Stress axis : x y z
#
# Youngs Moduli (GPa) = 52.60965 91.55523 39.35773
#
# Poissons Ratio (x) = 0.48326 -0.09321
# Poissons Ratio (y) = 0.27769 0.24759
# Poissons Ratio (z) = -0.12460 0.57595
#
# Static dielectric constant tensor:
#      x y z
#    x 1.591640 0.000000 0.000000 
#    y 0.000000 1.583020 0.000000 
#    z 0.000000 0.000000 1.595310 
# 
# From -- ./inp_files/22838.got.cif
#   From: 2010.05.17/outbox.cif.g08.bks.cpg/sg74_12_cif.got.tgz:22838.got - 2010.06.03 17:57:02.
