data_PCOD9539957
_publ_section_title
;
Structure prediction by ZEFSAII (Michael W. Deem and Ramdas Pophale) SiO2 
 PCOD9539957
Probable space group: I M M A
;
_chemical_formula_sum "Si O2"
_cell_formula_units_Z 48
_cell_length_a 10.157398
_cell_length_b 28.235356
_cell_length_c 8.780154
_cell_angle_alpha 90.000000
_cell_angle_beta 90.000000
_cell_angle_gamma 90.000000
_cell_volume 2518.128399
_symmetry_space_group_name_H-M "I M M A"
_symmetry_group_IT_number 74
_symmetry_cell_setting 'orthorhombic'
loop_
_space_group_symop_operation_xyz
x,y,z
-x,1/2-y,z
x,-y,-z
-x,1/2+y,-z
-x,-y,-z
x,1/2+y,-z
-x,y,z
x,1/2-y,z
1/2+x,1/2+y,1/2+z
1/2-x,-y,1/2+z
1/2+x,1/2-y,1/2-z
1/2-x,y,1/2-z
1/2-x,1/2-y,1/2-z
1/2+x,y,1/2-z
1/2-x,1/2+y,1/2+z
1/2+x,-y,1/2+z
loop_
_atom_site_type_symbol
_atom_site_label
_atom_site_fract_x
_atom_site_fract_y
_atom_site_fract_z
Si Si1 0.500000 0.446085 0.563757
Si Si2 0.843707 0.805760 0.396626
Si Si3 0.754060 0.106146 0.430793
Si Si4 0.500000 0.051699 0.928577
O O1 0.500000 0.500000 0.500000
O O2 0.375438 0.416570 0.503993
O O3 0.500000 0.448938 0.746305
O O4 0.836539 0.750000 0.433725
O O5 0.750000 0.813959 0.250000
O O6 0.783358 0.839485 0.525446
O O7 0.000000 0.816771 0.369321
O O8 0.750000 0.099838 0.250000
O O9 0.873417 0.078217 0.507492
O O10 0.500000 0.000000 0.000000
#
# Coordination Sequence:
#
# PCOD9539957 Si02
#       4
#     8  16  16   8
#     4  12  26  44  67  96 129 172 216 265 323 387
#     4  10  22  42  68  98 132 172 218 268 326 391
#     4  12  25  42  65  97 132 170 214 268 326 384
#     4  12  24  44  67  92 129 170 218 267 321 387
#
# _framework density 19.061775999999998
#
# number of rings (size 3 to 8) (size 9 to 14) (size 15 to 20)
#    0.000    0.667    1.667    7.000    2.333    0.667 
#    0.000    0.000    0.000    0.000    0.000    0.000 
#    0.000    0.000    0.000    0.000    0.000    0.000 
#
# Total GULP energy -134177.891059 kJ/mol
# GULP energy per Si atom -5590.745461 kJ/mol
# Density = 1.901839 g / cm^3
# Si number density = 19.061776 Si / 1000 Ang^3
#
#
#
# Elastic Constant Matrix: (Units=GPa)
#
#
# Indices 1 2 3 4 5 6 
#
# 1 191.1131 64.1097 83.5783 -0.0006 0.0017 -0.0013
# 2 64.1097 92.1409 73.4826 0.0023 0.0010 -0.0003
# 3 83.5783 73.4826 213.8452 -0.0107 -0.0182 0.0072
# 4 -0.0006 0.0023 -0.0107 42.1253 -0.0025 0.0013
# 5 0.0017 0.0010 -0.0182 -0.0025 28.4167 0.0007
# 6 -0.0013 -0.0003 0.0072 0.0013 0.0007 48.9504
#
#
#
# Elastic Compliance Matrix: (Units=1/GPa)
#
#
# Indices 1 2 3 4 5 6 
#
# 1 0.007157 -0.003787 -0.001496 0.000000 -0.000001 0.000000
# 2 -0.003787 0.016953 -0.004346 -0.000002 -0.000003 0.000001
# 3 -0.001496 -0.004346 0.006754 0.000002 0.000005 -0.000001
# 4 0.000000 -0.000002 0.000002 0.023739 0.000002 -0.000001
# 5 -0.000001 -0.000003 0.000005 0.000002 0.035191 -0.000001
# 6 0.000000 0.000001 -0.000001 -0.000001 -0.000001 0.020429
#
#
# Mechanical properties :
#
#
# Convention : Reuss Voigt Hill
#
# Bulk Modulus (GPa) = 86.14777 104.38227 95.26502
# Shear Modulus (GPa) = 37.49576 42.29370 39.89473
#
# Velocity S-wave (km/s) = 4.43997 4.71549 4.57980
# Velocity P-wave (km/s) = 8.46029 9.19384 8.83468
#
# Compressibility (1/GPa) = 0.01160796
#
# Stress axis : x y z
#
# Youngs Moduli (GPa) = 139.72363 58.98584 148.05486
#
# Poissons Ratio (x) = 0.22335 0.22150
# Poissons Ratio (y) = 0.52908 0.64339
# Poissons Ratio (z) = 0.20903 0.25633
#
# Static dielectric constant tensor:
#      x y z
#    x 1.619300 0.000000 0.000000 
#    y 0.000000 1.707300 0.000000 
#    z 0.000000 0.000000 1.622190 
# 
# From -- ./inp_files/6132.got.cif
#   From: 2010.05.17/outbox.cif.g08.bks.cpg/sg74_4_cif.got.tgz:6132.got - 2010.06.03 17:57:02.
