data_PCOD9539027
_publ_section_title
;
Structure prediction by ZEFSAII (Michael W. Deem and Ramdas Pophale) SiO2 
 PCOD9539027
Probable space group: I M M A
;
_chemical_formula_sum "Si O2"
_cell_formula_units_Z 68
_cell_length_a 9.866994
_cell_length_b 16.606657
_cell_length_c 20.485180
_cell_angle_alpha 90.000000
_cell_angle_beta 90.000000
_cell_angle_gamma 90.000000
_cell_volume 3356.656220
_symmetry_space_group_name_H-M "I M M A"
_symmetry_group_IT_number 74
_symmetry_cell_setting 'orthorhombic'
loop_
_space_group_symop_operation_xyz
x,y,z
-x,1/2-y,z
x,-y,-z
-x,1/2+y,-z
-x,-y,-z
x,1/2+y,-z
-x,y,z
x,1/2-y,z
1/2+x,1/2+y,1/2+z
1/2-x,-y,1/2+z
1/2+x,1/2-y,1/2-z
1/2-x,y,1/2-z
1/2-x,1/2-y,1/2-z
1/2+x,y,1/2-z
1/2-x,1/2+y,1/2+z
1/2+x,-y,1/2+z
loop_
_atom_site_type_symbol
_atom_site_label
_atom_site_fract_x
_atom_site_fract_y
_atom_site_fract_z
Si Si1 0.721029 0.077340 0.881038
Si Si2 0.159430 0.572862 0.816603
Si Si3 0.500000 0.750000 0.915357
Si Si4 0.000000 0.841189 0.136751
Si Si5 0.500000 0.343792 0.792927
Si Si6 0.769692 0.250000 0.171654
Si Si7 0.000000 0.403896 0.512274
O O1 0.632291 0.111504 0.820707
O O2 0.632166 0.102776 0.942508
O O3 0.864845 0.118046 0.886665
O O4 0.758621 0.984552 0.866539
O O5 0.250000 0.569062 0.750000
O O6 0.159217 0.664810 0.841245
O O7 0.000000 0.548112 0.806807
O O8 0.630124 0.750000 0.868194
O O9 0.500000 0.832818 0.958565
O O10 0.000000 0.750000 0.115798
O O11 0.000000 0.845098 0.215381
O O12 0.500000 0.250000 0.814437
O O13 0.750000 0.250000 0.250000
O O14 0.000000 0.500000 0.500000
#
# Coordination Sequence:
#
# PCOD9539027 Si02
#       7
#    16  16   4   8   8   8   8
#     4  11  23  38  65  93 136 179 237 271 328 394
#     4  11  23  38  66 103 146 184 227 288 361 417
#     4  12  26  50  80 102 138 182 232 280 354 428
#     4  11  21  35  59  94 139 169 213 281 336 377
#     4  10  21  36  59  95 136 181 226 273 332 392
#     4  10  25  42  76 104 136 160 220 286 367 429
#     4  11  27  47  72  91 127 184 241 276 317 409
#
# _framework density 20.258255999999999
#
# number of rings (size 3 to 8) (size 9 to 14) (size 15 to 20)
#    0.000    1.176    1.176    4.588   14.824    1.882 
#    0.000    0.588    5.176    0.000    0.000    0.000 
#    0.000    0.000    0.000    0.000    0.000    0.000 
#
# Total GULP energy -189746.049643 kJ/mol
# GULP energy per Si atom -5580.766166 kJ/mol
# Density = 2.021215 g / cm^3
# Si number density = 20.258256 Si / 1000 Ang^3
#
#
#
# Elastic Constant Matrix: (Units=GPa)
#
#
# Indices 1 2 3 4 5 6 
#
# 1 174.5854 47.8692 46.7180 0.0000 0.0000 0.0000
# 2 47.8692 154.7965 35.0096 0.0000 0.0000 0.0000
# 3 46.7180 35.0096 69.3490 0.0000 0.0000 0.0000
# 4 0.0000 0.0000 0.0000 22.2453 0.0000 0.0000
# 5 0.0000 0.0000 0.0000 0.0000 -28.1269 0.0000
# 6 0.0000 0.0000 0.0000 0.0000 0.0000 27.2700
#
#
#
# Elastic Compliance Matrix: (Units=1/GPa)
#
#
# Indices 1 2 3 4 5 6 
#
# 1 0.007204 -0.001276 -0.004209 0.000000 0.000000 0.000000
# 2 -0.001276 0.007519 -0.002936 0.000000 0.000000 0.000000
# 3 -0.004209 -0.002936 0.018738 0.000000 0.000000 0.000000
# 4 0.000000 0.000000 0.000000 0.044953 0.000000 0.000000
# 5 0.000000 0.000000 0.000000 0.000000 -0.035553 0.000000
# 6 0.000000 0.000000 0.000000 0.000000 0.000000 0.036670
#
#
# Mechanical properties :
#
#
# Convention : Reuss Voigt Hill
#
# Bulk Modulus (GPa) = 60.17501 73.10274 66.63888
# Shear Modulus (GPa) = 49.06195 22.21997 35.64096
#
# Velocity S-wave (km/s) = 4.92654 3.31544 4.19899
# Velocity P-wave (km/s) = 7.88223 7.12881 7.51497
#
# Compressibility (1/GPa) = 0.01661819
#
# Stress axis : x y z
#
# Youngs Moduli (GPa) = 138.81233 133.00170 53.36877
#
# Poissons Ratio (x) = 0.16969 0.22463
# Poissons Ratio (y) = 0.17710 0.15670
# Poissons Ratio (z) = 0.58426 0.39052
#
# Static dielectric constant tensor:
#      x y z
#    x 1.689610 0.000000 0.000000 
#    y 0.000000 1.807130 0.000000 
#    z 0.000000 0.000000 1.681530 
# 
# From -- ./inp_files/48203.got.cif
#   From: 2010.05.17/outbox.cif.g08.bks.cpg/sg74_25_cif.got.tgz:48203.got - 2010.06.03 17:57:02.
