data_PCOD9539250
_publ_section_title
;
Structure prediction by ZEFSAII (Michael W. Deem and Ramdas Pophale) SiO2 
 PCOD9539250
Probable space group: I M M A
;
_chemical_formula_sum "Si O2"
_cell_formula_units_Z 80
_cell_length_a 19.300636
_cell_length_b 8.906960
_cell_length_c 26.726812
_cell_angle_alpha 90.000000
_cell_angle_beta 90.000000
_cell_angle_gamma 90.000000
_cell_volume 4594.606059
_symmetry_space_group_name_H-M "I M M A"
_symmetry_group_IT_number 74
_symmetry_cell_setting 'orthorhombic'
loop_
_space_group_symop_operation_xyz
x,y,z
-x,1/2-y,z
x,-y,-z
-x,1/2+y,-z
-x,-y,-z
x,1/2+y,-z
-x,y,z
x,1/2-y,z
1/2+x,1/2+y,1/2+z
1/2-x,-y,1/2+z
1/2+x,1/2-y,1/2-z
1/2-x,y,1/2-z
1/2-x,1/2-y,1/2-z
1/2+x,y,1/2-z
1/2-x,1/2+y,1/2+z
1/2+x,-y,1/2+z
loop_
_atom_site_type_symbol
_atom_site_label
_atom_site_fract_x
_atom_site_fract_y
_atom_site_fract_z
Si Si1 0.676361 0.567977 0.855294
Si Si2 0.165890 0.423215 0.245679
Si Si3 0.582387 0.071357 0.446477
Si Si4 0.580133 0.930529 0.947792
Si Si5 0.329277 0.928615 0.357258
O O1 0.685378 0.750000 0.854490
O O2 0.643898 0.527342 0.801196
O O3 0.627086 0.526008 0.900981
O O4 0.751237 0.493053 0.861469
O O5 0.145413 0.250000 0.237134
O O6 0.250000 0.426168 0.250000
O O7 0.145284 0.519985 0.197888
O O8 0.500000 0.044972 0.439685
O O9 0.594212 0.250000 0.447711
O O10 0.602202 0.000000 0.500000
O O11 0.624523 0.998764 0.401111
O O12 0.500000 0.976323 0.940403
O O13 0.581904 0.750000 0.951601
O O14 0.604729 0.000000 0.000000
O O15 0.328796 0.750000 0.360787
#
# Coordination Sequence:
#
# PCOD9539250 Si02
#       5
#    16  16  16  16  16
#     4   9  18  33  52  73 101 135 172 214 254 297
#     4   8  15  30  50  71  98 133 170 208 252 297
#     4  10  21  38  58  77 100 132 168 206 251 302
#     4   9  18  33  52  73  98 130 166 205 251 299
#     4  11  21  32  51  78 106 134 166 206 250 300
#
# _framework density 17.411722000000001
#
# number of rings (size 3 to 8) (size 9 to 14) (size 15 to 20)
#    0.000    2.600    0.000    3.600    0.000    6.400 
#    0.000    3.000    0.000    3.600    0.000    0.000 
#    0.000    0.000    0.000    0.000    0.000    0.000 
#
# Total GULP energy -223035.670267 kJ/mol
# GULP energy per Si atom -5575.891757 kJ/mol
# Density = 1.737209 g / cm^3
# Si number density = 17.411722 Si / 1000 Ang^3
#
#
#
# Elastic Constant Matrix: (Units=GPa)
#
#
# Indices 1 2 3 4 5 6 
#
# 1 45.3608 41.4072 77.5702 0.0000 0.0000 0.0000
# 2 41.4072 71.3986 77.2654 0.0000 0.0000 0.0000
# 3 77.5702 77.2654 213.2521 0.0000 0.0000 0.0000
# 4 0.0000 0.0000 0.0000 33.3104 0.0000 0.0000
# 5 0.0000 0.0000 0.0000 0.0000 -89.9608 0.0000
# 6 0.0000 0.0000 0.0000 0.0000 0.0000 16.4843
#
#
#
# Elastic Compliance Matrix: (Units=1/GPa)
#
#
# Indices 1 2 3 4 5 6 
#
# 1 0.076523 -0.023452 -0.019338 0.000000 0.000000 0.000000
# 2 -0.023452 0.030227 -0.002421 0.000000 0.000000 0.000000
# 3 -0.019338 -0.002421 0.012601 0.000000 0.000000 0.000000
# 4 0.000000 0.000000 0.000000 0.030021 0.000000 0.000000
# 5 0.000000 0.000000 0.000000 0.000000 -0.011116 0.000000
# 6 0.000000 0.000000 0.000000 0.000000 0.000000 0.060664
#
#
# Mechanical properties :
#
#
# Convention : Reuss Voigt Hill
#
# Bulk Modulus (GPa) = 34.56852 80.27744 57.42298
# Shear Modulus (GPa) = 16.72333 0.88470 8.80401
#
# Velocity S-wave (km/s) = 3.10250 0.71359 2.25108
# Velocity P-wave (km/s) = 5.72107 6.84722 6.30932
#
# Compressibility (1/GPa) = 0.02892806
#
# Stress axis : x y z
#
# Youngs Moduli (GPa) = 13.06801 33.08320 79.36102
#
# Poissons Ratio (x) = 0.77587 1.53468
# Poissons Ratio (y) = 0.30647 0.19214
# Poissons Ratio (z) = 0.25271 0.08010
#
# Static dielectric constant tensor:
#      x y z
#    x 1.573030 0.000000 0.000000 
#    y 0.000000 1.582810 0.000000 
#    z 0.000000 0.000000 1.604250 
# 
# From -- ./inp_files/67540.got.cif
#   From: 2010.05.17/outbox.cif.g08.bks.cpg/sg74_34_cif.got.tgz:67540.got - 2010.06.03 17:57:02.
