data_PCOD9539661
_publ_section_title
;
Structure prediction by ZEFSAII (Michael W. Deem and Ramdas Pophale) SiO2 
 PCOD9539661
Probable space group: I M M A
;
_chemical_formula_sum "Si O2"
_cell_formula_units_Z 100
_cell_length_a 7.833504
_cell_length_b 20.779078
_cell_length_c 29.593901
_cell_angle_alpha 90.000000
_cell_angle_beta 90.000000
_cell_angle_gamma 90.000000
_cell_volume 4817.087770
_symmetry_space_group_name_H-M "I M M A"
_symmetry_group_IT_number 74
_symmetry_cell_setting 'orthorhombic'
loop_
_space_group_symop_operation_xyz
x,y,z
-x,1/2-y,z
x,-y,-z
-x,1/2+y,-z
-x,-y,-z
x,1/2+y,-z
-x,y,z
x,1/2-y,z
1/2+x,1/2+y,1/2+z
1/2-x,-y,1/2+z
1/2+x,1/2-y,1/2-z
1/2-x,y,1/2-z
1/2-x,1/2-y,1/2-z
1/2+x,y,1/2-z
1/2-x,1/2+y,1/2+z
1/2+x,-y,1/2+z
loop_
_atom_site_type_symbol
_atom_site_label
_atom_site_fract_x
_atom_site_fract_y
_atom_site_fract_z
Si Si1 0.206614 0.941349 0.053498
Si Si2 0.695884 0.011927 0.298912
Si Si3 0.693054 0.132409 0.800781
Si Si4 0.200393 0.068055 0.390544
Si Si5 0.797338 0.355492 0.475545
Si Si6 0.000000 0.750000 0.996194
Si Si7 0.802882 0.681101 0.107710
O O1 0.270286 0.880632 0.083283
O O2 0.000000 0.943955 0.051613
O O3 0.263752 0.004041 0.080276
O O4 0.275204 0.921536 0.004490
O O5 0.500000 0.991469 0.295339
O O6 0.750000 0.038739 0.250000
O O7 0.715631 0.058391 0.341636
O O8 0.795087 0.944979 0.306876
O O9 0.500000 0.153436 0.807454
O O10 0.750000 0.146297 0.750000
O O11 0.800293 0.167034 0.839209
O O12 0.247347 0.126909 0.423503
O O13 0.000000 0.072718 0.382212
O O14 0.654530 0.306038 0.493504
O O15 0.000000 0.336795 0.478195
O O16 0.721902 0.750000 0.097658
O O17 0.000000 0.685167 0.092665
#
# Coordination Sequence:
#
# PCOD9539661 Si02
#       7
#    16  16  16  16  16   4  16
#     4  11  22  37  64  92 126 171 217 271 322 376
#     4  11  21  35  59  89 125 163 203 257 322 380
#     4  11  21  35  54  75 106 149 199 254 313 366
#     4  11  23  40  63  97 134 166 213 265 321 386
#     4  11  26  44  68  97 131 173 218 264 324 389
#     4  12  26  48  70  94 134 168 220 272 320 394
#     4  10  22  37  54  78 110 154 207 259 311 367
#
# _framework density 20.759429000000001
#
# number of rings (size 3 to 8) (size 9 to 14) (size 15 to 20)
#    0.000    1.120    2.400    5.520    3.360    3.200 
#    0.000    0.000    0.000    0.000    0.000    0.560 
#    0.000    0.000    0.000    0.000    0.000    0.000 
#
# Total GULP energy -278814.740441 kJ/mol
# GULP energy per Si atom -5576.294809 kJ/mol
# Density = 2.071218 g / cm^3
# Si number density = 20.759429 Si / 1000 Ang^3
#
#
#
# Elastic Constant Matrix: (Units=GPa)
#
#
# Indices 1 2 3 4 5 6 
#
# 1 74.8365 9.5382 1.5283 0.0000 0.0000 0.0000
# 2 9.5382 27.1729 18.3696 0.0000 0.0000 0.0000
# 3 1.5283 18.3696 115.8904 0.0000 0.0000 0.0000
# 4 0.0000 0.0000 0.0000 -62.4427 0.0000 0.0000
# 5 0.0000 0.0000 0.0000 0.0000 20.5270 0.0000
# 6 0.0000 0.0000 0.0000 0.0000 0.0000 659.8269
#
#
#
# Elastic Compliance Matrix: (Units=1/GPa)
#
#
# Indices 1 2 3 4 5 6 
#
# 1 0.014034 -0.005377 0.000667 0.000000 0.000000 0.000000
# 2 -0.005377 0.043279 -0.006789 0.000000 0.000000 0.000000
# 3 0.000667 -0.006789 0.009696 0.000000 0.000000 0.000000
# 4 0.000000 0.000000 0.000000 -0.016015 0.000000 0.000000
# 5 0.000000 0.000000 0.000000 0.000000 0.048716 0.000000
# 6 0.000000 0.000000 0.000000 0.000000 0.000000 0.001516
#
#
# Mechanical properties :
#
#
# Convention : Reuss Voigt Hill
#
# Bulk Modulus (GPa) = 22.72181 30.75243 26.73712
# Shear Modulus (GPa) = 35.99852 136.14650 86.07251
#
# Velocity S-wave (km/s) = 4.16875 8.10712 6.44608
# Velocity P-wave (km/s) = 5.84297 10.12322 8.26499
#
# Compressibility (1/GPa) = 0.04401057
#
# Stress axis : x y z
#
# Youngs Moduli (GPa) = 71.25453 23.10612 103.13349
#
# Poissons Ratio (x) = 0.12425 -0.06882
# Poissons Ratio (y) = 0.38316 0.70018
# Poissons Ratio (z) = -0.04755 0.15687
#
# Static dielectric constant tensor:
#      x y z
#    x 1.757390 0.000000 0.000000 
#    y 0.000000 1.748810 0.000000 
#    z 0.000000 0.000000 1.807200 
# 
# From -- ./inp_files/64492.got.cif
#   From: 2010.05.17/outbox.cif.g08.bks.cpg/sg74_33_cif.got.tgz:64492.got - 2010.06.03 17:57:02.
