data_PCOD9539761
_publ_section_title
;
Structure prediction by ZEFSAII (Michael W. Deem and Ramdas Pophale) SiO2 
 PCOD9539761
Probable space group: I M M A
;
_chemical_formula_sum "Si O2"
_cell_formula_units_Z 96
_cell_length_a 22.489127
_cell_length_b 14.648973
_cell_length_c 14.890440
_cell_angle_alpha 90.000000
_cell_angle_beta 90.000000
_cell_angle_gamma 90.000000
_cell_volume 4905.545480
_symmetry_space_group_name_H-M "I M M A"
_symmetry_group_IT_number 74
_symmetry_cell_setting 'orthorhombic'
loop_
_space_group_symop_operation_xyz
x,y,z
-x,1/2-y,z
x,-y,-z
-x,1/2+y,-z
-x,-y,-z
x,1/2+y,-z
-x,y,z
x,1/2-y,z
1/2+x,1/2+y,1/2+z
1/2-x,-y,1/2+z
1/2+x,1/2-y,1/2-z
1/2-x,y,1/2-z
1/2-x,1/2-y,1/2-z
1/2+x,y,1/2-z
1/2-x,1/2+y,1/2+z
1/2+x,-y,1/2+z
loop_
_atom_site_type_symbol
_atom_site_label
_atom_site_fract_x
_atom_site_fract_y
_atom_site_fract_z
Si Si1 0.250000 0.929511 0.750000
Si Si2 0.628084 0.000000 0.500000
Si Si3 0.432029 0.357340 0.839710
Si Si4 0.569863 0.851287 0.373709
Si Si5 0.069334 0.859096 0.690210
Si Si6 0.339134 0.996628 0.897453
Si Si7 0.145676 0.646538 0.858709
O O1 0.286042 0.988159 0.824583
O O2 0.201813 0.864310 0.794845
O O3 0.593343 0.066059 0.567888
O O4 0.658244 0.073901 0.436061
O O5 0.500000 0.386424 0.861576
O O6 0.427920 0.250000 0.860291
O O7 0.423309 0.368256 0.732441
O O8 0.380646 0.415006 0.884848
O O9 0.500000 0.845554 0.391106
O O10 0.595701 0.750000 0.393468
O O11 0.075453 0.750000 0.676707
O O12 0.114625 0.914279 0.626669
O O13 0.089848 0.877465 0.793620
O O14 0.000000 0.883715 0.677358
O O15 0.317429 0.000000 0.000000
O O16 0.137782 0.750000 0.890732
#
# Coordination Sequence:
#
# PCOD9539761 Si02
#       7
#     8   8  16  16  16  16  16
#     4  10  23  44  63  78 116 158 205 258 303 354
#     4  12  21  30  54  86 114 142 199 260 298 344
#     4   9  19  38  61  86 123 165 195 230 295 373
#     4   9  18  32  50  77 118 162 194 227 283 355
#     4   9  19  37  60  89 124 159 196 243 304 371
#     4  11  23  38  62  90 120 153 205 253 306 358
#     4  10  22  39  60  83 113 159 202 249 308 364
#
# _framework density 19.569690000000001
#
# number of rings (size 3 to 8) (size 9 to 14) (size 15 to 20)
#    0.000    2.167    0.000    4.500    1.167    5.333 
#    0.000    3.750    0.000    0.000    0.000    0.000 
#    0.000    0.000    0.000    0.000    0.000    0.000 
#
# Total GULP energy -267617.282823 kJ/mol
# GULP energy per Si atom -5575.360059 kJ/mol
# Density = 1.952515 g / cm^3
# Si number density = 19.569690 Si / 1000 Ang^3
#
#
#
# Elastic Constant Matrix: (Units=GPa)
#
#
# Indices 1 2 3 4 5 6 
#
# 1 73.5325 15.5188 42.5482 0.0000 0.0000 0.0000
# 2 15.5188 82.8475 42.2838 0.0000 0.0000 0.0000
# 3 42.5482 42.2838 72.4716 0.0000 0.0000 0.0000
# 4 0.0000 0.0000 0.0000 25.6905 0.0000 0.0000
# 5 0.0000 0.0000 0.0000 0.0000 21.9231 0.0000
# 6 0.0000 0.0000 0.0000 0.0000 0.0000 17.7207
#
#
#
# Elastic Compliance Matrix: (Units=1/GPa)
#
#
# Indices 1 2 3 4 5 6 
#
# 1 0.021248 0.003399 -0.014458 0.000000 0.000000 0.000000
# 2 0.003399 0.017733 -0.012342 0.000000 0.000000 0.000000
# 3 -0.014458 -0.012342 0.029487 0.000000 0.000000 0.000000
# 4 0.000000 0.000000 0.000000 0.038925 0.000000 0.000000
# 5 0.000000 0.000000 0.000000 0.000000 0.045614 0.000000
# 6 0.000000 0.000000 0.000000 0.000000 0.000000 0.056431
#
#
# Mechanical properties :
#
#
# Convention : Reuss Voigt Hill
#
# Bulk Modulus (GPa) = 46.15337 47.72812 46.94074
# Shear Modulus (GPa) = 18.97816 21.63361 20.30588
#
# Velocity S-wave (km/s) = 3.11750 3.32846 3.22470
# Velocity P-wave (km/s) = 6.04927 6.26205 6.15658
#
# Compressibility (1/GPa) = 0.02166689
#
# Stress axis : x y z
#
# Youngs Moduli (GPa) = 47.06376 56.39327 33.91285
#
# Poissons Ratio (x) = -0.19167 0.49030
# Poissons Ratio (y) = -0.15996 0.41854
# Poissons Ratio (z) = 0.68043 0.69598
#
# Static dielectric constant tensor:
#      x y z
#    x 1.669610 0.000000 0.000000 
#    y 0.000000 1.699450 0.000000 
#    z 0.000000 0.000000 1.726610 
# 
# From -- ./inp_files/35328.got.cif
#   From: 2010.05.17/outbox.cif.g08.bks.cpg/sg74_18_cif.got.tgz:35328.got - 2010.06.03 17:57:02.
