data_PCOD9539163
_publ_section_title
;
Structure prediction by ZEFSAII (Michael W. Deem and Ramdas Pophale) SiO2 
 PCOD9539163
Probable space group: I M M A
;
_chemical_formula_sum "Si O2"
_cell_formula_units_Z 112
_cell_length_a 15.714459
_cell_length_b 26.274521
_cell_length_c 14.350585
_cell_angle_alpha 90.000000
_cell_angle_beta 90.000000
_cell_angle_gamma 90.000000
_cell_volume 5925.211362
_symmetry_space_group_name_H-M "I M M A"
_symmetry_group_IT_number 74
_symmetry_cell_setting 'orthorhombic'
loop_
_space_group_symop_operation_xyz
x,y,z
-x,1/2-y,z
x,-y,-z
-x,1/2+y,-z
-x,-y,-z
x,1/2+y,-z
-x,y,z
x,1/2-y,z
1/2+x,1/2+y,1/2+z
1/2-x,-y,1/2+z
1/2+x,1/2-y,1/2-z
1/2-x,y,1/2-z
1/2-x,1/2-y,1/2-z
1/2+x,y,1/2-z
1/2-x,1/2+y,1/2+z
1/2+x,-y,1/2+z
loop_
_atom_site_type_symbol
_atom_site_label
_atom_site_fract_x
_atom_site_fract_y
_atom_site_fract_z
Si Si1 0.154237 0.250000 0.130357
Si Si2 0.252598 0.924951 0.946794
Si Si3 0.278180 0.533713 0.356924
Si Si4 0.855034 0.750000 0.648476
Si Si5 0.902361 0.147926 0.451436
Si Si6 0.596619 0.850421 0.529140
Si Si7 0.896132 0.191063 0.654937
Si Si8 0.098694 0.122967 0.824706
O O1 0.140861 0.250000 0.240626
O O2 0.256265 0.250000 0.116302
O O3 0.112877 0.299029 0.083954
O O4 0.335809 0.893997 0.915241
O O5 0.170385 0.889084 0.942236
O O6 0.227218 0.975240 0.889395
O O7 0.269637 0.939646 0.055563
O O8 0.250000 0.536482 0.250000
O O9 0.363047 0.568121 0.351170
O O10 0.896962 0.801029 0.609397
O O11 0.875616 0.166530 0.555061
O O12 0.000000 0.129556 0.454408
O O13 0.500000 0.869161 0.544864
O O14 0.606259 0.843291 0.417856
O O15 0.867083 0.250000 0.661470
O O16 0.863993 0.154124 0.737361
O O17 0.000000 0.192848 0.660178
O O18 0.000000 0.115125 0.803696
#
# Coordination Sequence:
#
# PCOD9539163 Si02
#       8
#     8  16  16   8  16  16  16  16
#     4  11  23  39  58  82 118 158 193 240 292 339
#     4  10  22  39  59  85 114 149 200 249 293 354
#     4  10  21  39  59  79 113 154 194 249 306 345
#     4  11  23  39  60  82 116 158 195 240 296 349
#     4  11  21  38  61  86 119 156 196 243 296 357
#     4  10  21  37  59  85 117 155 193 236 288 348
#     4   9  17  30  54  90 126 157 190 234 295 367
#     4   9  19  35  58  88 119 154 192 236 295 360
#
# _framework density 18.902277999999999
#
# number of rings (size 3 to 8) (size 9 to 14) (size 15 to 20)
#    0.000    2.000    2.143    1.286    1.000    2.857 
#    0.000    5.000    0.000    3.000    0.000    0.000 
#    0.000    0.000    0.000    0.000    0.000    0.000 
#
# Total GULP energy -312081.213038 kJ/mol
# GULP energy per Si atom -5572.878804 kJ/mol
# Density = 1.885926 g / cm^3
# Si number density = 18.902278 Si / 1000 Ang^3
#
#
#
# Elastic Constant Matrix: (Units=GPa)
#
#
# Indices 1 2 3 4 5 6 
#
# 1 66.3759 41.0947 36.3748 -0.0055 0.0000 0.0000
# 2 41.0947 113.1828 29.0813 0.0119 0.0000 0.0000
# 3 36.3748 29.0813 57.6244 0.0351 0.0000 0.0000
# 4 -0.0055 0.0119 0.0351-4603.0310 -0.0046 -0.0010
# 5 0.0000 0.0000 0.0000 -0.0046 19.8902 0.0000
# 6 0.0000 0.0000 0.0000 -0.0010 0.0000 10.4406
#
#
#
# Elastic Compliance Matrix: (Units=1/GPa)
#
#
# Indices 1 2 3 4 5 6 
#
# 1 0.026201 -0.006048 -0.013487 0.000000 0.000000 0.000000
# 2 -0.006048 0.011548 -0.002010 0.000000 0.000000 0.000000
# 3 -0.013487 -0.002010 0.026882 0.000000 0.000000 0.000000
# 4 0.000000 0.000000 0.000000 -0.000217 0.000000 0.000000
# 5 0.000000 0.000000 0.000000 0.000000 0.050276 0.000000
# 6 0.000000 0.000000 0.000000 0.000000 0.000000 0.095780
#
#
# Mechanical properties :
#
#
# Convention : Reuss Voigt Hill
#
# Bulk Modulus (GPa) = 46.42404 50.03163 48.22784
# Shear Modulus (GPa) = 19.17626 -905.83122 -443.32748
#
# Velocity S-wave (km/s) = 3.18857 -21.91480 -15.33120
# Velocity P-wave (km/s) = 6.17813 24.77536 16.96539
#
# Compressibility (1/GPa) = 0.02154056
#
# Stress axis : x y z
#
# Youngs Moduli (GPa) = 38.16645 86.59815 37.19998
#
# Poissons Ratio (x) = 0.52373 0.50172
# Poissons Ratio (y) = 0.23082 0.07478
# Poissons Ratio (z) = 0.51475 0.17407
#
# Static dielectric constant tensor:
#      x y z
#    x 1.679190 0.000000 0.000000 
#    y 0.000000 1.686660 0.000000 
#    z 0.000000 0.000000 1.669330 
# 
# From -- ./inp_files/33007.got.cif
#   From: 2010.05.17/outbox.cif.g08.bks.cpg/sg74_17_cif.got.tgz:33007.got - 2010.06.03 17:57:02.
