data_PCOD9539356
_publ_section_title
;
Structure prediction by ZEFSAII (Michael W. Deem and Ramdas Pophale) SiO2 
 PCOD9539356
Probable space group: I M M A
;
_chemical_formula_sum "Si O2"
_cell_formula_units_Z 72
_cell_length_a 9.334034
_cell_length_b 14.059497
_cell_length_c 28.848802
_cell_angle_alpha 90.000000
_cell_angle_beta 90.000000
_cell_angle_gamma 90.000000
_cell_volume 3785.880878
_symmetry_space_group_name_H-M "I M M A"
_symmetry_group_IT_number 74
_symmetry_cell_setting 'orthorhombic'
loop_
_space_group_symop_operation_xyz
x,y,z
-x,1/2-y,z
x,-y,-z
-x,1/2+y,-z
-x,-y,-z
x,1/2+y,-z
-x,y,z
x,1/2-y,z
1/2+x,1/2+y,1/2+z
1/2-x,-y,1/2+z
1/2+x,1/2-y,1/2-z
1/2-x,y,1/2-z
1/2-x,1/2-y,1/2-z
1/2+x,y,1/2-z
1/2-x,1/2+y,1/2+z
1/2+x,-y,1/2+z
loop_
_atom_site_type_symbol
_atom_site_label
_atom_site_fract_x
_atom_site_fract_y
_atom_site_fract_z
Si Si1 0.338485 0.934165 0.711051
Si Si2 0.825124 0.250000 0.801175
Si Si3 0.834658 0.750000 0.682738
Si Si4 0.833583 0.250000 0.428483
Si Si5 0.169820 0.035623 0.447504
Si Si6 0.837938 0.578648 0.129280
O O1 0.500000 0.916136 0.726876
O O2 0.250000 0.990616 0.750000
O O3 0.248051 0.840742 0.701297
O O4 0.345574 0.989040 0.663295
O O5 0.750000 0.250000 0.750000
O O6 0.788162 0.338707 0.835236
O O7 0.000000 0.250000 0.794174
O O8 0.500000 0.750000 0.803421
O O9 0.829671 0.750000 0.627132
O O10 0.774666 0.354442 0.443155
O O11 0.000000 0.250000 0.444517
O O12 0.000000 0.038608 0.435648
O O13 0.185572 0.000000 0.500000
O O14 0.244253 0.959240 0.413410
O O15 0.000000 0.603899 0.113759
#
# Coordination Sequence:
#
# PCOD9539356 Si02
#       6
#    16   8   8   8  16  16
#     4  11  22  35  53  81 114 149 190 232 276 337
#     4  10  22  41  62  88 120 157 200 250 303 363
#     4  11  20  34  56  78 110 152 185 223 273 330
#     4   9  18  35  57  84 117 151 184 229 286 337
#     4  10  21  38  62  89 118 153 197 245 294 352
#     4  10  22  39  59  83 116 152 193 243 295 351
#
# _framework density 19.018031000000001
#
# number of rings (size 3 to 8) (size 9 to 14) (size 15 to 20)
#    0.000    1.778    2.222    2.000    0.000    3.111 
#    0.000    1.667    0.000    0.000    0.000    0.000 
#    0.000    0.000    0.000    0.000    0.000    0.000 
#
# Total GULP energy -200540.811402 kJ/mol
# GULP energy per Si atom -5570.578095 kJ/mol
# Density = 1.897474 g / cm^3
# Si number density = 19.018031 Si / 1000 Ang^3
#
#
#
# Elastic Constant Matrix: (Units=GPa)
#
#
# Indices 1 2 3 4 5 6 
#
# 1 96.5270 37.6881 51.6412 0.0000 0.0000 0.0000
# 2 37.6881 116.1038 49.9808 0.0000 0.0000 0.0000
# 3 51.6412 49.9808 105.6608 0.0000 0.0000 0.0000
# 4 0.0000 0.0000 0.0000 36.3260 0.0000 0.0000
# 5 0.0000 0.0000 0.0000 0.0000 32.2176 0.0000
# 6 0.0000 0.0000 0.0000 0.0000 0.0000 18.8482
#
#
#
# Elastic Compliance Matrix: (Units=1/GPa)
#
#
# Indices 1 2 3 4 5 6 
#
# 1 0.014412 -0.002067 -0.006066 0.000000 0.000000 0.000000
# 2 -0.002067 0.011112 -0.004246 0.000000 0.000000 0.000000
# 3 -0.006066 -0.004246 0.014438 0.000000 0.000000 0.000000
# 4 0.000000 0.000000 0.000000 0.027529 0.000000 0.000000
# 5 0.000000 0.000000 0.000000 0.000000 0.031039 0.000000
# 6 0.000000 0.000000 0.000000 0.000000 0.000000 0.053055
#
#
# Mechanical properties :
#
#
# Convention : Reuss Voigt Hill
#
# Bulk Modulus (GPa) = 65.77519 66.32354 66.04937
# Shear Modulus (GPa) = 27.56186 29.41047 28.48616
#
# Velocity S-wave (km/s) = 3.81103 3.93676 3.87441
# Velocity P-wave (km/s) = 7.35024 7.45747 7.40405
#
# Compressibility (1/GPa) = 0.01520330
#
# Stress axis : x y z
#
# Youngs Moduli (GPa) = 69.38593 89.99485 69.26385
#
# Poissons Ratio (x) = 0.18601 0.42017
# Poissons Ratio (y) = 0.14341 0.29410
# Poissons Ratio (z) = 0.42091 0.38212
#
# Static dielectric constant tensor:
#      x y z
#    x 1.706150 0.000000 0.000000 
#    y 0.000000 1.722220 0.000000 
#    z 0.000000 0.000000 1.649810 
# 
# From -- ./inp_files/63722.got.cif
#   From: 2010.05.17/outbox.cif.g08.bks.cpg/sg74_32_cif.got.tgz:63722.got - 2010.06.03 17:57:02.
