data_PCOD9539991
_publ_section_title
;
Structure prediction by ZEFSAII (Michael W. Deem and Ramdas Pophale) SiO2 
 PCOD9539991
Probable space group: I M M A
;
_chemical_formula_sum "Si O2"
_cell_formula_units_Z 112
_cell_length_a 14.954781
_cell_length_b 29.255309
_cell_length_c 14.504686
_cell_angle_alpha 90.000000
_cell_angle_beta 90.000000
_cell_angle_gamma 90.000000
_cell_volume 6345.897875
_symmetry_space_group_name_H-M "I M M A"
_symmetry_group_IT_number 74
_symmetry_cell_setting 'orthorhombic'
loop_
_space_group_symop_operation_xyz
x,y,z
-x,1/2-y,z
x,-y,-z
-x,1/2+y,-z
-x,-y,-z
x,1/2+y,-z
-x,y,z
x,1/2-y,z
1/2+x,1/2+y,1/2+z
1/2-x,-y,1/2+z
1/2+x,1/2-y,1/2-z
1/2-x,y,1/2-z
1/2-x,1/2-y,1/2-z
1/2+x,y,1/2-z
1/2-x,1/2+y,1/2+z
1/2+x,-y,1/2+z
loop_
_atom_site_type_symbol
_atom_site_label
_atom_site_fract_x
_atom_site_fract_y
_atom_site_fract_z
Si Si1 0.266995 0.803362 0.640970
Si Si2 0.600542 0.964559 0.266972
Si Si3 0.143768 0.932320 0.733762
Si Si4 0.602061 0.617914 0.579328
Si Si5 0.900546 0.927824 0.427776
Si Si6 0.400162 0.142752 0.078580
Si Si7 0.702602 0.046466 0.547512
O O1 0.284681 0.750000 0.626501
O O2 0.250000 0.811211 0.750000
O O3 0.346238 0.835691 0.605227
O O4 0.176008 0.820282 0.593391
O O5 0.500000 0.963223 0.306841
O O6 0.605393 0.929442 0.182553
O O7 0.671652 0.955656 0.346748
O O8 0.615214 0.015112 0.223995
O O9 0.250000 0.931125 0.750000
O O10 0.102239 0.911876 0.826835
O O11 0.118753 0.899851 0.648415
O O12 0.500000 0.625202 0.549696
O O13 0.658405 0.589153 0.504786
O O14 0.897578 0.878806 0.476944
O O15 0.809741 0.951689 0.461040
O O16 0.000000 0.947071 0.451494
O O17 0.500000 0.159865 0.098687
O O18 0.669576 0.000000 0.500000
#
# Coordination Sequence:
#
# PCOD9539991 Si02
#       7
#    16  16  16  16  16  16  16
#     4  11  23  40  61  86 116 149 191 241 292 350
#     4  11  24  37  53  84 117 154 202 242 278 331
#     4  12  20  34  53  78 117 158 195 236 281 334
#     4  12  23  38  58  82 116 158 194 235 287 343
#     4  10  23  38  55  79 111 152 196 243 286 331
#     4  11  21  37  58  82 112 151 191 235 293 348
#     4  12  23  37  57  82 117 158 199 236 281 337
#
# _framework density 17.649197000000001
#
# number of rings (size 3 to 8) (size 9 to 14) (size 15 to 20)
#    0.000    0.714    5.714    3.000    2.000    1.429 
#    0.000    1.429    0.000    0.000    0.000    2.000 
#    0.000    3.429    0.000    0.000    0.000    0.000 
#
# Total GULP energy -312826.022879 kJ/mol
# GULP energy per Si atom -5586.178980 kJ/mol
# Density = 1.760903 g / cm^3
# Si number density = 17.649197 Si / 1000 Ang^3
#
#
#
# Elastic Constant Matrix: (Units=GPa)
#
#
# Indices 1 2 3 4 5 6 
#
# 1 145.1964 41.0421 19.5119 0.0000 0.0000 0.0000
# 2 41.0421 84.7908 39.7463 0.0000 0.0000 0.0000
# 3 19.5119 39.7463 55.5629 0.0000 0.0000 0.0000
# 4 0.0000 0.0000 0.0000 14.0046 0.0000 0.0000
# 5 0.0000 0.0000 0.0000 0.0000 26.8368 0.0000
# 6 0.0000 0.0000 0.0000 0.0000 0.0000 4.3529
#
#
#
# Elastic Compliance Matrix: (Units=1/GPa)
#
#
# Indices 1 2 3 4 5 6 
#
# 1 0.007979 -0.003835 -0.000059 0.000000 0.000000 0.000000
# 2 -0.003835 0.019586 -0.012664 0.000000 0.000000 0.000000
# 3 -0.000059 -0.012664 0.027078 0.000000 0.000000 0.000000
# 4 0.000000 0.000000 0.000000 0.071405 0.000000 0.000000
# 5 0.000000 0.000000 0.000000 0.000000 0.037262 0.000000
# 6 0.000000 0.000000 0.000000 0.000000 0.000000 0.229731
#
#
# Mechanical properties :
#
#
# Convention : Reuss Voigt Hill
#
# Bulk Modulus (GPa) = 46.45258 54.01673 50.23466
# Shear Modulus (GPa) = 11.53850 21.38887 16.46369
#
# Velocity S-wave (km/s) = 2.55966 3.48500 3.05754
# Velocity P-wave (km/s) = 5.92562 6.84586 6.40229
#
# Compressibility (1/GPa) = 0.02152733
#
# Stress axis : x y z
#
# Youngs Moduli (GPa) = 125.32839 51.05623 36.93098
#
# Poissons Ratio (x) = 0.19578 0.00218
# Poissons Ratio (y) = 0.48057 0.46770
# Poissons Ratio (z) = 0.00739 0.64659
#
# Static dielectric constant tensor:
#      x y z
#    x 1.654490 0.000000 0.000000 
#    y 0.000000 1.570150 0.000000 
#    z 0.000000 0.000000 1.605070 
# 
# From -- ./inp_files/32933.got.cif
#   From: 2010.05.17/outbox.cif.g08.bks.cpg/sg74_17_cif.got.tgz:32933.got - 2010.06.03 17:57:02.
