data_PCOD9539711
_publ_section_title
;
Structure prediction by ZEFSAII (Michael W. Deem and Ramdas Pophale) SiO2 
 PCOD9539711
Probable space group: I M M A
;
_chemical_formula_sum "Si O2"
_cell_formula_units_Z 56
_cell_length_a 10.903403
_cell_length_b 8.497948
_cell_length_c 28.781599
_cell_angle_alpha 90.000000
_cell_angle_beta 90.000000
_cell_angle_gamma 90.000000
_cell_volume 2666.803716
_symmetry_space_group_name_H-M "I M M A"
_symmetry_group_IT_number 74
_symmetry_cell_setting 'orthorhombic'
loop_
_space_group_symop_operation_xyz
x,y,z
-x,1/2-y,z
x,-y,-z
-x,1/2+y,-z
-x,-y,-z
x,1/2+y,-z
-x,y,z
x,1/2-y,z
1/2+x,1/2+y,1/2+z
1/2-x,-y,1/2+z
1/2+x,1/2-y,1/2-z
1/2-x,y,1/2-z
1/2-x,1/2-y,1/2-z
1/2+x,y,1/2-z
1/2-x,1/2+y,1/2+z
1/2+x,-y,1/2+z
loop_
_atom_site_type_symbol
_atom_site_label
_atom_site_fract_x
_atom_site_fract_y
_atom_site_fract_z
Si Si1 0.784157 0.076039 0.695685
Si Si2 0.631914 0.250000 0.216522
Si Si3 0.365649 0.565845 0.391474
Si Si4 0.864608 0.437874 0.447528
O O1 0.838191 0.250000 0.684247
O O2 0.750000 0.080868 0.750000
O O3 0.664939 0.058469 0.663298
O O4 0.858867 0.914393 0.688700
O O5 0.500000 0.250000 0.241266
O O6 0.750000 0.250000 0.250000
O O7 0.500000 0.497238 0.401652
O O8 0.368199 0.750000 0.404150
O O9 0.250172 0.492457 0.417375
O O10 0.850573 0.500000 0.500000
O O11 0.865296 0.250000 0.448414
O O12 0.000000 0.492335 0.430649
#
# Coordination Sequence:
#
# PCOD9539711 Si02
#       4
#    16   8  16  16
#     4   9  20  39  61  87 124 169 213 261 314 373
#     4  10  22  38  58  86 118 158 210 262 314 376
#     4  10  22  40  63  93 127 163 208 263 321 380
#     4  10  22  41  65  92 124 163 207 255 311 380
#
# _framework density 20.998922
#
# number of rings (size 3 to 8) (size 9 to 14) (size 15 to 20)
#    0.000    2.286    0.000    0.857    2.000    9.143 
#    0.000    8.571    0.000    0.000    0.000    0.000 
#    0.000    0.000    0.000    0.000    0.000    0.000 
#
# Total GULP energy -156032.764866 kJ/mol
# GULP energy per Si atom -5572.598745 kJ/mol
# Density = 2.095113 g / cm^3
# Si number density = 20.998922 Si / 1000 Ang^3
#
#
#
# Elastic Constant Matrix: (Units=GPa)
#
#
# Indices 1 2 3 4 5 6 
#
# 1 201.7802 50.1979 72.0535 0.0000 0.0000 0.0000
# 2 50.1979 134.1744 11.4372 0.0000 0.0000 0.0000
# 3 72.0535 11.4372 73.5416 0.0000 0.0000 0.0000
# 4 0.0000 0.0000 0.0000 20.9692 0.0000 0.0000
# 5 0.0000 0.0000 0.0000 0.0000 17.3518 0.0000
# 6 0.0000 0.0000 0.0000 0.0000 0.0000 4.5557
#
#
#
# Elastic Compliance Matrix: (Units=1/GPa)
#
#
# Indices 1 2 3 4 5 6 
#
# 1 0.008354 -0.002460 -0.007802 0.000000 0.000000 0.000000
# 2 -0.002460 0.008278 0.001123 0.000000 0.000000 0.000000
# 3 -0.007802 0.001123 0.021068 0.000000 0.000000 0.000000
# 4 0.000000 0.000000 0.000000 0.047689 0.000000 0.000000
# 5 0.000000 0.000000 0.000000 0.000000 0.057631 0.000000
# 6 0.000000 0.000000 0.000000 0.000000 0.000000 0.219505
#
#
# Mechanical properties :
#
#
# Convention : Reuss Voigt Hill
#
# Bulk Modulus (GPa) = 51.49249 75.20816 63.35032
# Shear Modulus (GPa) = 12.91067 26.96252 19.93660
#
# Velocity S-wave (km/s) = 2.48226 3.58718 3.08459
# Velocity P-wave (km/s) = 5.72627 7.28355 6.55135
#
# Compressibility (1/GPa) = 0.01942031
#
# Stress axis : x y z
#
# Youngs Moduli (GPa) = 119.70101 120.80600 47.46617
#
# Poissons Ratio (x) = 0.29723 0.37035
# Poissons Ratio (y) = 0.29451 -0.05332
# Poissons Ratio (z) = 0.93396 -0.13570
#
# Static dielectric constant tensor:
#      x y z
#    x 1.774470 0.000000 0.000000 
#    y 0.000000 1.805230 0.000000 
#    z 0.000000 0.000000 2.456890 
# 
# From -- ./inp_files/65502.got.cif
#   From: 2010.05.17/outbox.cif.g08.bks.cpg/sg74_33_cif.got.tgz:65502.got - 2010.06.03 17:57:02.
