data_PCOD9539527
_publ_section_title
;
Structure prediction by ZEFSAII (Michael W. Deem and Ramdas Pophale) SiO2 
 PCOD9539527
Probable space group: I M M A
;
_chemical_formula_sum "Si O2"
_cell_formula_units_Z 120
_cell_length_a 8.831374
_cell_length_b 27.168160
_cell_length_c 28.565938
_cell_angle_alpha 90.000000
_cell_angle_beta 90.000000
_cell_angle_gamma 90.000000
_cell_volume 6853.887831
_symmetry_space_group_name_H-M "I M M A"
_symmetry_group_IT_number 74
_symmetry_cell_setting 'orthorhombic'
loop_
_space_group_symop_operation_xyz
x,y,z
-x,1/2-y,z
x,-y,-z
-x,1/2+y,-z
-x,-y,-z
x,1/2+y,-z
-x,y,z
x,1/2-y,z
1/2+x,1/2+y,1/2+z
1/2-x,-y,1/2+z
1/2+x,1/2-y,1/2-z
1/2-x,y,1/2-z
1/2-x,1/2-y,1/2-z
1/2+x,y,1/2-z
1/2-x,1/2+y,1/2+z
1/2+x,-y,1/2+z
loop_
_atom_site_type_symbol
_atom_site_label
_atom_site_fract_x
_atom_site_fract_y
_atom_site_fract_z
Si Si1 0.181813 0.460287 0.300910
Si Si2 0.818980 0.603089 0.610838
Si Si3 0.319853 0.153954 0.861152
Si Si4 0.822993 0.309269 0.954464
Si Si5 0.680354 0.950642 0.359253
Si Si6 0.317562 0.693831 0.560584
Si Si7 0.817337 0.750000 0.301680
Si Si8 0.317399 0.505156 0.945662
O O1 0.250000 0.452044 0.250000
O O2 0.221721 0.417326 0.337899
O O3 0.247377 0.510114 0.323604
O O4 0.000000 0.463872 0.298892
O O5 0.743122 0.653691 0.596145
O O6 0.778170 0.559122 0.574699
O O7 0.000000 0.608708 0.608921
O O8 0.500000 0.147665 0.856782
O O9 0.276008 0.166182 0.914560
O O10 0.236499 0.103925 0.847528
O O11 0.272022 0.200991 0.830135
O O12 0.815286 0.250000 0.949637
O O13 0.000000 0.323436 0.948745
O O14 0.772867 0.320525 0.007421
O O15 0.500000 0.953752 0.357842
O O16 0.739796 0.966281 0.410862
O O17 0.500000 0.694216 0.561011
O O18 0.266539 0.750000 0.569534
O O19 0.750000 0.750000 0.250000
O O20 0.000000 0.750000 0.299265
O O21 0.500000 0.499349 0.941639
O O22 0.275556 0.500000 0.000000
#
# Coordination Sequence:
#
# PCOD9539527 Si02
#       8
#    16  16  16  16  16  16   8  16
#     4  10  21  40  63  86 111 142 182 230 282 336
#     4   9  19  34  54  83 114 146 184 224 275 331
#     4  11  22  38  56  78 108 142 185 235 284 340
#     4   9  18  33  52  76 107 145 186 228 274 325
#     4  11  23  37  55  83 112 145 187 230 281 334
#     4   9  19  34  52  79 116 153 188 226 269 319
#     4  10  24  42  60  80 102 136 184 234 289 344
#     4   9  19  36  54  77 113 152 186 229 283 334
#
# _framework density 17.508310999999999
#
# number of rings (size 3 to 8) (size 9 to 14) (size 15 to 20)
#    0.000    2.267    0.667    3.600    1.867    5.333 
#    0.000    2.667    0.000    0.400    0.000    0.000 
#    0.000    0.000    0.000    0.000    0.000    0.000 
#
# Total GULP energy -334928.000353 kJ/mol
# GULP energy per Si atom -5582.133339 kJ/mol
# Density = 1.746846 g / cm^3
# Si number density = 17.508311 Si / 1000 Ang^3
#
#
#
# Elastic Constant Matrix: (Units=GPa)
#
#
# Indices 1 2 3 4 5 6 
#
# 1 47.3184 39.9160 46.8446 0.0000 0.0000 0.0000
# 2 39.9160 118.7958 78.3518 0.0000 0.0000 0.0000
# 3 46.8446 78.3518 145.1849 0.0000 0.0000 0.0000
# 4 0.0000 0.0000 0.0000 10.9796 0.0000 0.0000
# 5 0.0000 0.0000 0.0000 0.0000 32.4809 0.0000
# 6 0.0000 0.0000 0.0000 0.0000 0.0000 26.9059
#
#
#
# Elastic Compliance Matrix: (Units=1/GPa)
#
#
# Indices 1 2 3 4 5 6 
#
# 1 0.034009 -0.006505 -0.007462 0.000000 0.000000 0.000000
# 2 -0.006505 0.014314 -0.005626 0.000000 0.000000 0.000000
# 3 -0.007462 -0.005626 0.012332 0.000000 0.000000 0.000000
# 4 0.000000 0.000000 0.000000 0.091078 0.000000 0.000000
# 5 0.000000 0.000000 0.000000 0.000000 0.030787 0.000000
# 6 0.000000 0.000000 0.000000 0.000000 0.000000 0.037167
#
#
# Mechanical properties :
#
#
# Convention : Reuss Voigt Hill
#
# Bulk Modulus (GPa) = 46.58236 71.28043 58.93139
# Shear Modulus (GPa) = 18.79493 23.81907 21.30700
#
# Velocity S-wave (km/s) = 3.27996 3.69242 3.49229
# Velocity P-wave (km/s) = 6.40374 7.67980 7.07061
#
# Compressibility (1/GPa) = 0.02146735
#
# Stress axis : x y z
#
# Youngs Moduli (GPa) = 29.40429 69.86051 81.09179
#
# Poissons Ratio (x) = 0.45446 0.60513
# Poissons Ratio (y) = 0.19128 0.45622
# Poissons Ratio (z) = 0.21942 0.39304
#
# Static dielectric constant tensor:
#      x y z
#    x 1.585360 0.000000 0.000000 
#    y 0.000000 1.588300 0.000000 
#    z 0.000000 0.000000 1.582080 
# 
# From -- ./inp_files/65048.got.cif
#   From: 2010.05.17/outbox.cif.g08.bks.cpg/sg74_33_cif.got.tgz:65048.got - 2010.06.03 17:57:02.
