data_PCOD9539851
_publ_section_title
;
Structure prediction by ZEFSAII (Michael W. Deem and Ramdas Pophale) SiO2 
 PCOD9539851
Probable space group: I M M A
;
_chemical_formula_sum "Si O2"
_cell_formula_units_Z 84
_cell_length_a 21.035792
_cell_length_b 15.535197
_cell_length_c 11.578010
_cell_angle_alpha 90.000000
_cell_angle_beta 90.000000
_cell_angle_gamma 90.000000
_cell_volume 3783.637778
_symmetry_space_group_name_H-M "I M M A"
_symmetry_group_IT_number 74
_symmetry_cell_setting 'orthorhombic'
loop_
_space_group_symop_operation_xyz
x,y,z
-x,1/2-y,z
x,-y,-z
-x,1/2+y,-z
-x,-y,-z
x,1/2+y,-z
-x,y,z
x,1/2-y,z
1/2+x,1/2+y,1/2+z
1/2-x,-y,1/2+z
1/2+x,1/2-y,1/2-z
1/2-x,y,1/2-z
1/2-x,1/2-y,1/2-z
1/2+x,y,1/2-z
1/2-x,1/2+y,1/2+z
1/2+x,-y,1/2+z
loop_
_atom_site_type_symbol
_atom_site_label
_atom_site_fract_x
_atom_site_fract_y
_atom_site_fract_z
Si Si1 0.000000 0.250000 0.436344
Si Si2 0.653795 0.404123 0.479547
Si Si3 0.722853 0.346733 0.118043
Si Si4 0.075750 0.750000 0.343789
Si Si5 0.000000 0.450750 0.376576
Si Si6 0.873744 0.558969 0.738894
Si Si7 0.324477 0.626982 0.271136
O O1 0.939079 0.250000 0.521002
O O2 0.000000 0.154781 0.379855
O O3 0.628874 0.500000 0.500000
O O4 0.729228 0.403186 0.455238
O O5 0.623975 0.382061 0.354804
O O6 0.650473 0.353059 0.598503
O O7 0.723535 0.250000 0.073315
O O8 0.750000 0.345246 0.250000
O O9 0.654546 0.386832 0.133573
O O10 0.122338 0.671183 0.308960
O O11 0.000000 0.750000 0.297551
O O12 0.000000 0.500000 0.500000
O O13 0.060136 0.477030 0.301548
O O14 0.828715 0.476658 0.760173
O O15 0.250000 0.651135 0.250000
#
# Coordination Sequence:
#
# PCOD9539851 Si02
#       7
#     4  16  16   8   8  16  16
#     4  10  26  48  66  94 138 174 244 292 340 428
#     4   9  19  37  61  96 131 164 215 274 338 404
#     4   9  18  34  59  88 128 164 203 267 335 390
#     4  10  25  47  65  91 139 177 224 279 332 416
#     4  12  26  44  68  92 130 190 238 288 360 430
#     4  10  22  40  63  94 131 172 225 280 344 411
#     4  11  22  41  70 100 134 174 226 276 340 415
#
# _framework density 22.200856000000002
#
# number of rings (size 3 to 8) (size 9 to 14) (size 15 to 20)
#    0.286    1.714    0.000    4.286    4.000    3.810 
#    1.714    1.429    0.000    0.000    0.000    0.000 
#    0.000    0.000    0.000    0.000    0.000    0.000 
#
# Total GULP energy -233843.555436 kJ/mol
# GULP energy per Si atom -5567.703701 kJ/mol
# Density = 2.215033 g / cm^3
# Si number density = 22.200856 Si / 1000 Ang^3
#
#
#
# Elastic Constant Matrix: (Units=GPa)
#
#
# Indices 1 2 3 4 5 6 
#
# 1 112.4204 3.8783 10.4118 0.0000 0.0000 0.0000
# 2 3.8783 88.2645 3.3799 0.0000 0.0000 0.0000
# 3 10.4118 3.3799 55.6301 0.0000 0.0000 0.0000
# 4 0.0000 0.0000 0.0000 16.4604 0.0000 0.0000
# 5 0.0000 0.0000 0.0000 0.0000 21.9930 0.0000
# 6 0.0000 0.0000 0.0000 0.0000 0.0000 27.0969
#
#
#
# Elastic Compliance Matrix: (Units=1/GPa)
#
#
# Indices 1 2 3 4 5 6 
#
# 1 0.009062 -0.000334 -0.001676 0.000000 0.000000 0.000000
# 2 -0.000334 0.011368 -0.000628 0.000000 0.000000 0.000000
# 3 -0.001676 -0.000628 0.018328 0.000000 0.000000 0.000000
# 4 0.000000 0.000000 0.000000 0.060752 0.000000 0.000000
# 5 0.000000 0.000000 0.000000 0.000000 0.045469 0.000000
# 6 0.000000 0.000000 0.000000 0.000000 0.000000 0.036905
#
#
# Mechanical properties :
#
#
# Convention : Reuss Voigt Hill
#
# Bulk Modulus (GPa) = 29.86677 32.40610 31.13644
# Shear Modulus (GPa) = 25.21180 29.01973 27.11576
#
# Velocity S-wave (km/s) = 3.37356 3.61937 3.49862
# Velocity P-wave (km/s) = 5.35319 5.66524 5.51142
#
# Compressibility (1/GPa) = 0.03348203
#
# Stress axis : x y z
#
# Youngs Moduli (GPa) = 110.35205 87.96381 54.56224
#
# Poissons Ratio (x) = 0.02938 0.09143
# Poissons Ratio (y) = 0.03686 0.03428
# Poissons Ratio (z) = 0.18492 0.05526
#
# Static dielectric constant tensor:
#      x y z
#    x 1.820400 0.000000 0.000000 
#    y 0.000000 1.864650 0.000000 
#    z 0.000000 0.000000 1.875490 
# 
# From -- ./inp_files/23653.got.cif
#   From: 2010.05.17/outbox.cif.g08.bks.cpg/sg74_12_cif.got.tgz:23653.got - 2010.06.03 17:57:02.
