data_PCOD9539088
_publ_section_title
;
Structure prediction by ZEFSAII (Michael W. Deem and Ramdas Pophale) SiO2 
 PCOD9539088
Probable space group: I M M A
;
_chemical_formula_sum "Si O2"
_cell_formula_units_Z 96
_cell_length_a 20.128947
_cell_length_b 14.809268
_cell_length_c 17.456922
_cell_angle_alpha 90.000000
_cell_angle_beta 90.000000
_cell_angle_gamma 90.000000
_cell_volume 5203.820652
_symmetry_space_group_name_H-M "I M M A"
_symmetry_group_IT_number 74
_symmetry_cell_setting 'orthorhombic'
loop_
_space_group_symop_operation_xyz
x,y,z
-x,1/2-y,z
x,-y,-z
-x,1/2+y,-z
-x,-y,-z
x,1/2+y,-z
-x,y,z
x,1/2-y,z
1/2+x,1/2+y,1/2+z
1/2-x,-y,1/2+z
1/2+x,1/2-y,1/2-z
1/2-x,y,1/2-z
1/2-x,1/2-y,1/2-z
1/2+x,y,1/2-z
1/2-x,1/2+y,1/2+z
1/2+x,-y,1/2+z
loop_
_atom_site_type_symbol
_atom_site_label
_atom_site_fract_x
_atom_site_fract_y
_atom_site_fract_z
Si Si1 0.794378 0.898493 0.028760
Si Si2 0.925586 0.647546 0.114788
Si Si3 0.260524 0.352309 0.362207
Si Si4 0.074024 0.041432 0.728253
Si Si5 0.296017 0.358508 0.824354
Si Si6 0.862576 0.359383 0.261565
O O1 0.866354 0.864333 0.055097
O O2 0.745261 0.887167 0.100481
O O3 0.766412 0.852754 0.952527
O O4 0.801047 0.000000 0.000000
O O5 0.920393 0.750000 0.146102
O O6 0.918595 0.578847 0.184936
O O7 0.000000 0.637360 0.081765
O O8 0.260778 0.250000 0.335025
O O9 0.191558 0.385351 0.327142
O O10 0.324926 0.388301 0.317523
O O11 0.134446 0.089085 0.683407
O O12 0.000000 0.068021 0.701863
O O13 0.080214 0.932763 0.727822
O O14 0.306282 0.250000 0.826277
O O15 0.250000 0.378545 0.750000
O O16 0.877891 0.250000 0.263214
#
# Coordination Sequence:
#
# PCOD9539088 Si02
#       6
#    16  16  16  16  16  16
#     4  12  22  34  57  89 118 151 194 243 298 352
#     4  10  21  37  56  82 121 161 196 239 292 355
#     4   9  18  33  55  81 111 148 193 245 292 340
#     4  11  22  36  58  86 117 158 201 245 301 356
#     4  11  23  39  62  90 119 153 200 251 293 350
#     4   9  19  36  57  84 118 158 203 249 299 353
#
# _framework density 18.447984000000002
#
# number of rings (size 3 to 8) (size 9 to 14) (size 15 to 20)
#    0.000    1.667    1.667    5.000    2.333    1.667 
#    0.000    0.833    0.000    5.500    0.000    4.667 
#    0.000    0.000    0.000    0.000    0.000    0.000 
#
# Total GULP energy -267487.336696 kJ/mol
# GULP energy per Si atom -5572.652848 kJ/mol
# Density = 1.840600 g / cm^3
# Si number density = 18.447984 Si / 1000 Ang^3
#
#
#
# Elastic Constant Matrix: (Units=GPa)
#
#
# Indices 1 2 3 4 5 6 
#
# 1 123.2335 46.5692 58.2489 0.0000 0.0000 0.0000
# 2 46.5692 101.2254 16.8460 0.0000 0.0000 0.0000
# 3 58.2489 16.8460 120.8556 0.0000 0.0000 0.0000
# 4 0.0000 0.0000 0.0000 25.8663 0.0000 0.0000
# 5 0.0000 0.0000 0.0000 0.0000 4.0234 0.0000
# 6 0.0000 0.0000 0.0000 0.0000 0.0000 27.9242
#
#
#
# Elastic Compliance Matrix: (Units=1/GPa)
#
#
# Indices 1 2 3 4 5 6 
#
# 1 0.012468 -0.004848 -0.005333 0.000000 0.000000 0.000000
# 2 -0.004848 0.011999 0.000664 0.000000 0.000000 0.000000
# 3 -0.005333 0.000664 0.010752 0.000000 0.000000 0.000000
# 4 0.000000 0.000000 0.000000 0.038660 0.000000 0.000000
# 5 0.000000 0.000000 0.000000 0.000000 0.248549 0.000000
# 6 0.000000 0.000000 0.000000 0.000000 0.000000 0.035811
#
#
# Mechanical properties :
#
#
# Convention : Reuss Voigt Hill
#
# Bulk Modulus (GPa) = 61.78882 65.40473 63.59677
# Shear Modulus (GPa) = 13.06614 26.47280 19.76947
#
# Velocity S-wave (km/s) = 2.66422 3.79225 3.27713
# Velocity P-wave (km/s) = 6.55975 7.39631 6.99056
#
# Compressibility (1/GPa) = 0.01618416
#
# Stress axis : x y z
#
# Youngs Moduli (GPa) = 80.20744 83.34123 93.00396
#
# Poissons Ratio (x) = 0.40406 0.49601
# Poissons Ratio (y) = 0.38887 -0.06177
# Poissons Ratio (z) = 0.42777 -0.05536
#
# Static dielectric constant tensor:
#      x y z
#    x 1.665860 0.000000 0.000000 
#    y 0.000000 1.825600 0.000000 
#    z 0.000000 0.000000 1.622040 
# 
# From -- ./inp_files/35305.got.cif
#   From: 2010.05.17/outbox.cif.g08.bks.cpg/sg74_18_cif.got.tgz:35305.got - 2010.06.03 17:57:02.
