data_PCOD9539458
_publ_section_title
;
Structure prediction by ZEFSAII (Michael W. Deem and Ramdas Pophale) SiO2 
 PCOD9539458
Probable space group: I M M A
;
_chemical_formula_sum "Si O2"
_cell_formula_units_Z 72
_cell_length_a 15.664070
_cell_length_b 8.819999
_cell_length_c 27.190980
_cell_angle_alpha 90.000000
_cell_angle_beta 90.000000
_cell_angle_gamma 90.000000
_cell_volume 3756.626446
_symmetry_space_group_name_H-M "I M M A"
_symmetry_group_IT_number 74
_symmetry_cell_setting 'orthorhombic'
loop_
_space_group_symop_operation_xyz
x,y,z
-x,1/2-y,z
x,-y,-z
-x,1/2+y,-z
-x,-y,-z
x,1/2+y,-z
-x,y,z
x,1/2-y,z
1/2+x,1/2+y,1/2+z
1/2-x,-y,1/2+z
1/2+x,1/2-y,1/2-z
1/2-x,y,1/2-z
1/2-x,1/2-y,1/2-z
1/2+x,y,1/2-z
1/2-x,1/2+y,1/2+z
1/2+x,-y,1/2+z
loop_
_atom_site_type_symbol
_atom_site_label
_atom_site_fract_x
_atom_site_fract_y
_atom_site_fract_z
Si Si1 0.500000 0.067785 0.402811
Si Si2 0.157286 0.567678 0.386064
Si Si3 0.673280 0.931775 0.446644
Si Si4 0.157950 0.567229 0.271441
Si Si5 0.000000 0.930475 0.554330
Si Si6 0.500000 0.568866 0.712427
O O1 0.500000 0.250000 0.407379
O O2 0.500000 0.026176 0.345075
O O3 0.584607 0.001111 0.427833
O O4 0.145520 0.750000 0.389432
O O5 0.249630 0.532397 0.409227
O O6 0.152346 0.524799 0.328788
O O7 0.083217 0.487796 0.416658
O O8 0.665685 0.750000 0.450040
O O9 0.693746 0.000000 0.500000
O O10 0.150789 0.750000 0.268424
O O11 0.250000 0.523749 0.250000
O O12 0.082852 0.495380 0.239770
O O13 0.000000 0.750000 0.551208
O O14 0.000000 0.000000 0.500000
O O15 0.500000 0.750000 0.715380
#
# Coordination Sequence:
#
# PCOD9539458 Si02
#       6
#     8  16  16  16   8   8
#     4  11  24  41  60  85 120 158 197 242 291 346
#     4  10  22  40  62  89 120 154 195 242 290 345
#     4  11  23  40  63  89 118 153 195 242 293 349
#     4  10  21  39  63  89 118 155 198 241 287 344
#     4  12  25  40  61  87 118 156 197 242 293 350
#     4  11  24  39  58  88 122 156 195 242 295 346
#
# _framework density 19.166134
#
# number of rings (size 3 to 8) (size 9 to 14) (size 15 to 20)
#    0.000    1.333    0.000    5.333    0.000   11.111 
#    0.000    0.000    0.000    0.000    0.000    0.000 
#    0.000    0.000    0.000    0.000    0.000    0.000 
#
# Total GULP energy -201420.659285 kJ/mol
# GULP energy per Si atom -5595.018313 kJ/mol
# Density = 1.912251 g / cm^3
# Si number density = 19.166134 Si / 1000 Ang^3
#
#
#
# Elastic Constant Matrix: (Units=GPa)
#
#
# Indices 1 2 3 4 5 6 
#
# 1 64.2023 17.2913 -15.9714 0.0000 0.0000 0.0000
# 2 17.2913 33.2763 16.7561 0.0000 0.0000 0.0000
# 3 -15.9714 16.7561 72.9278 0.0000 0.0000 0.0000
# 4 0.0000 0.0000 0.0000 31.4967 0.0000 0.0000
# 5 0.0000 0.0000 0.0000 0.0000 44.5401 0.0000
# 6 0.0000 0.0000 0.0000 0.0000 0.0000 -97.7882
#
#
#
# Elastic Compliance Matrix: (Units=1/GPa)
#
#
# Indices 1 2 3 4 5 6 
#
# 1 0.021847 -0.015562 0.008360 0.000000 0.000000 0.000000
# 2 -0.015562 0.045068 -0.013763 0.000000 0.000000 0.000000
# 3 0.008360 -0.013763 0.018705 0.000000 0.000000 0.000000
# 4 0.000000 0.000000 0.000000 0.031749 0.000000 0.000000
# 5 0.000000 0.000000 0.000000 0.000000 0.022452 0.000000
# 6 0.000000 0.000000 0.000000 0.000000 0.000000 -0.010226
#
#
# Mechanical properties :
#
#
# Convention : Reuss Voigt Hill
#
# Bulk Modulus (GPa) = 22.88832 22.95091 22.91961
# Shear Modulus (GPa) = 26.86905 5.80509 16.33707
#
# Velocity S-wave (km/s) = 3.74826 1.74224 2.92274
# Velocity P-wave (km/s) = 5.54081 4.00599 4.83469
#
# Compressibility (1/GPa) = 0.04369041
#
# Stress axis : x y z
#
# Youngs Moduli (GPa) = 45.77368 22.18868 53.46085
#
# Poissons Ratio (x) = 0.34529 -0.44693
# Poissons Ratio (y) = 0.71232 0.73578
# Poissons Ratio (z) = -0.38267 0.30538
#
# Static dielectric constant tensor:
#      x y z
#    x 1.618630 0.000000 0.000000 
#    y 0.000000 1.644020 0.000000 
#    z 0.000000 0.000000 1.643200 
# 
# From -- ./inp_files/63712.got.cif
#   From: 2010.05.17/outbox.cif.g08.bks.cpg/sg74_32_cif.got.tgz:63712.got - 2010.06.03 17:57:02.
