data_PCOD9539318
_publ_section_title
;
Structure prediction by ZEFSAII (Michael W. Deem and Ramdas Pophale) SiO2 
 PCOD9539318
Probable space group: I M M A
;
_chemical_formula_sum "Si O2"
_cell_formula_units_Z 88
_cell_length_a 9.284230
_cell_length_b 16.294417
_cell_length_c 30.766748
_cell_angle_alpha 90.000000
_cell_angle_beta 90.000000
_cell_angle_gamma 90.000000
_cell_volume 4654.427947
_symmetry_space_group_name_H-M "I M M A"
_symmetry_group_IT_number 74
_symmetry_cell_setting 'orthorhombic'
loop_
_space_group_symop_operation_xyz
x,y,z
-x,1/2-y,z
x,-y,-z
-x,1/2+y,-z
-x,-y,-z
x,1/2+y,-z
-x,y,z
x,1/2-y,z
1/2+x,1/2+y,1/2+z
1/2-x,-y,1/2+z
1/2+x,1/2-y,1/2-z
1/2-x,y,1/2-z
1/2-x,1/2-y,1/2-z
1/2+x,y,1/2-z
1/2-x,1/2+y,1/2+z
1/2+x,-y,1/2+z
loop_
_atom_site_type_symbol
_atom_site_label
_atom_site_fract_x
_atom_site_fract_y
_atom_site_fract_z
Si Si1 0.672881 0.072057 0.366361
Si Si2 0.672476 0.653853 0.543458
Si Si3 0.326852 0.750000 0.203317
Si Si4 0.662788 0.347545 0.208873
Si Si5 0.835160 0.651023 0.457354
Si Si6 0.673565 0.902288 0.140082
O O1 0.500000 0.072258 0.363103
O O2 0.713598 0.098352 0.415416
O O3 0.744533 0.136289 0.333769
O O4 0.739907 0.985401 0.352480
O O5 0.500000 0.652300 0.539860
O O6 0.714402 0.750000 0.550854
O O7 0.740419 0.624547 0.498234
O O8 0.500000 0.750000 0.209445
O O9 0.250000 0.750000 0.250000
O O10 0.290992 0.669902 0.174104
O O11 0.500000 0.380931 0.205655
O O12 0.650815 0.250000 0.214975
O O13 0.750000 0.382259 0.250000
O O14 0.832484 0.750000 0.456898
O O15 0.789876 0.623624 0.409412
O O16 0.000000 0.624405 0.464204
O O17 0.500000 0.914790 0.141964
#
# Coordination Sequence:
#
# PCOD9539318 Si02
#       6
#    16  16   8  16  16  16
#     4  11  23  37  55  83 120 156 192 234 283 341
#     4   9  19  35  54  79 114 155 192 232 282 333
#     4  10  22  42  66  88 112 144 186 240 299 356
#     4  10  21  38  61  86 112 147 190 233 280 335
#     4   9  17  33  58  82 106 144 194 240 286 344
#     4  10  21  39  60  82 112 148 187 237 296 349
#
# _framework density 18.906728000000001
#
# number of rings (size 3 to 8) (size 9 to 14) (size 15 to 20)
#    0.000    2.182    0.909    1.636    0.000    6.182 
#    0.000    7.273    0.000    0.000    0.000    0.000 
#    0.000    0.000    0.000    0.000    0.000    0.000 
#
# Total GULP energy -245481.763279 kJ/mol
# GULP energy per Si atom -5579.130984 kJ/mol
# Density = 1.886370 g / cm^3
# Si number density = 18.906728 Si / 1000 Ang^3
#
#
#
# Elastic Constant Matrix: (Units=GPa)
#
#
# Indices 1 2 3 4 5 6 
#
# 1 50.8721 29.6334 48.9793 0.0000 0.0000 0.0000
# 2 29.6334 47.0508 22.5086 0.0000 0.0000 0.0000
# 3 48.9793 22.5086 122.8760 0.0000 0.0000 0.0000
# 4 0.0000 0.0000 0.0000 20.6409 0.0000 0.0000
# 5 0.0000 0.0000 0.0000 0.0000 33.7047 0.0000
# 6 0.0000 0.0000 0.0000 0.0000 0.0000 22.8067
#
#
#
# Elastic Compliance Matrix: (Units=1/GPa)
#
#
# Indices 1 2 3 4 5 6 
#
# 1 0.046720 -0.022486 -0.014504 0.000000 0.000000 0.000000
# 2 -0.022486 0.034118 0.002713 0.000000 0.000000 0.000000
# 3 -0.014504 0.002713 0.013423 0.000000 0.000000 0.000000
# 4 0.000000 0.000000 0.000000 0.048448 0.000000 0.000000
# 5 0.000000 0.000000 0.000000 0.000000 0.029669 0.000000
# 6 0.000000 0.000000 0.000000 0.000000 0.000000 0.043847
#
#
# Mechanical properties :
#
#
# Convention : Reuss Voigt Hill
#
# Bulk Modulus (GPa) = 38.90025 47.00461 42.95243
# Shear Modulus (GPa) = 17.04471 23.40897 20.22684
#
# Velocity S-wave (km/s) = 3.00578 3.52252 3.27436
# Velocity P-wave (km/s) = 5.71540 6.43891 6.08791
#
# Compressibility (1/GPa) = 0.02570678
#
# Stress axis : x y z
#
# Youngs Moduli (GPa) = 21.40422 29.31018 74.50156
#
# Poissons Ratio (x) = 0.65908 1.08055
# Poissons Ratio (y) = 0.48130 -0.20216
# Poissons Ratio (z) = 0.31044 -0.07953
#
# Static dielectric constant tensor:
#      x y z
#    x 1.644150 0.000000 0.000000 
#    y 0.000000 1.675190 0.000000 
#    z 0.000000 0.000000 1.647780 
# 
# From -- ./inp_files/70311.got.cif
#   From: 2010.05.17/outbox.cif.g08.bks.cpg/sg74_36_cif.got.tgz:70311.got - 2010.06.03 17:57:02.
