data_PCOD9539886
_publ_section_title
;
Structure prediction by ZEFSAII (Michael W. Deem and Ramdas Pophale) SiO2 
 PCOD9539886
Probable space group: I M M A
;
_chemical_formula_sum "Si O2"
_cell_formula_units_Z 100
_cell_length_a 20.209397
_cell_length_b 19.134493
_cell_length_c 14.871182
_cell_angle_alpha 90.000000
_cell_angle_beta 90.000000
_cell_angle_gamma 90.000000
_cell_volume 5750.635003
_symmetry_space_group_name_H-M "I M M A"
_symmetry_group_IT_number 74
_symmetry_cell_setting 'orthorhombic'
loop_
_space_group_symop_operation_xyz
x,y,z
-x,1/2-y,z
x,-y,-z
-x,1/2+y,-z
-x,-y,-z
x,1/2+y,-z
-x,y,z
x,1/2-y,z
1/2+x,1/2+y,1/2+z
1/2-x,-y,1/2+z
1/2+x,1/2-y,1/2-z
1/2-x,y,1/2-z
1/2-x,1/2-y,1/2-z
1/2+x,y,1/2-z
1/2-x,1/2+y,1/2+z
1/2+x,-y,1/2+z
loop_
_atom_site_type_symbol
_atom_site_label
_atom_site_fract_x
_atom_site_fract_y
_atom_site_fract_z
Si Si1 0.302934 0.420287 0.028978
Si Si2 0.500000 0.250000 0.915653
Si Si3 0.867819 0.826979 0.376708
Si Si4 0.650622 0.080090 0.511980
Si Si5 0.577505 0.333301 0.367475
Si Si6 0.327631 0.086287 0.232213
Si Si7 0.326598 0.923357 0.277941
O O1 0.335247 0.406063 0.125216
O O2 0.317036 0.500000 0.000000
O O3 0.328259 0.368156 0.953000
O O4 0.223189 0.415102 0.034067
O O5 0.441214 0.309581 0.910304
O O6 0.837203 0.750000 0.358264
O O7 0.867851 0.873736 0.287546
O O8 0.602246 0.131957 0.460322
O O9 0.660987 0.092776 0.617766
O O10 0.627755 0.000000 0.500000
O O11 0.500000 0.348787 0.352312
O O12 0.585853 0.250000 0.370532
O O13 0.623463 0.366009 0.289710
O O14 0.250000 0.101650 0.250000
O O15 0.339507 0.005399 0.259822
O O16 0.250000 0.912238 0.250000
#
# Coordination Sequence:
#
# PCOD9539886 Si02
#       7
#    16   4  16  16  16  16  16
#     4  11  19  37  68  96 120 153 202 262 311 354
#     4   8  24  48  52  76 140 162 192 264 312 348
#     4  10  22  41  58  84 129 159 196 254 308 359
#     4  11  20  39  66  94 125 157 202 256 310 359
#     4  11  26  46  58  88 133 165 201 259 308 365
#     4  11  20  40  67  92 123 158 208 258 306 358
#     4  11  19  37  66  96 124 153 200 266 310 349
#
# _framework density 17.389384
#
# number of rings (size 3 to 8) (size 9 to 14) (size 15 to 20)
#    0.480    0.800    6.400    1.920    0.000    2.880 
#    4.320    0.400    0.000    0.000    0.000    0.000 
#    0.000    0.000    0.000    0.000    0.000    0.000 
#
# Total GULP energy -278409.206130 kJ/mol
# GULP energy per Si atom -5568.184123 kJ/mol
# Density = 1.734981 g / cm^3
# Si number density = 17.389384 Si / 1000 Ang^3
#
#
#
# Elastic Constant Matrix: (Units=GPa)
#
#
# Indices 1 2 3 4 5 6 
#
# 1 73.9949 69.0955 34.0803 0.0000 0.0000 0.0000
# 2 69.0955 104.0464 46.8874 0.0000 0.0000 0.0000
# 3 34.0803 46.8874 140.6405 0.0000 0.0000 0.0000
# 4 0.0000 0.0000 0.0000 22.6507 0.0000 0.0000
# 5 0.0000 0.0000 0.0000 0.0000 13.6799 0.0000
# 6 0.0000 0.0000 0.0000 0.0000 0.0000 37.4961
#
#
#
# Elastic Compliance Matrix: (Units=1/GPa)
#
#
# Indices 1 2 3 4 5 6 
#
# 1 0.035667 -0.023290 -0.000878 0.000000 0.000000 0.000000
# 2 -0.023290 0.026518 -0.003197 0.000000 0.000000 0.000000
# 3 -0.000878 -0.003197 0.008389 0.000000 0.000000 0.000000
# 4 0.000000 0.000000 0.000000 0.044149 0.000000 0.000000
# 5 0.000000 0.000000 0.000000 0.000000 0.073100 0.000000
# 6 0.000000 0.000000 0.000000 0.000000 0.000000 0.026669
#
#
# Mechanical properties :
#
#
# Convention : Reuss Voigt Hill
#
# Bulk Modulus (GPa) = 63.11796 68.75646 65.93721
# Shear Modulus (GPa) = 18.21464 26.00657 22.11060
#
# Velocity S-wave (km/s) = 3.23996 3.87142 3.56968
# Velocity P-wave (km/s) = 7.09733 7.72069 7.41556
#
# Compressibility (1/GPa) = 0.01584335
#
# Stress axis : x y z
#
# Youngs Moduli (GPa) = 28.03725 37.70979 119.20307
#
# Poissons Ratio (x) = 0.87826 0.10470
# Poissons Ratio (y) = 0.65299 0.38111
# Poissons Ratio (z) = 0.02463 0.12056
#
# Static dielectric constant tensor:
#      x y z
#    x 1.572100 0.000000 0.000000 
#    y 0.000000 1.587450 0.000000 
#    z 0.000000 0.000000 1.601630 
# 
# From -- ./inp_files/34319.got.cif
#   From: 2010.05.17/outbox.cif.g08.bks.cpg/sg74_18_cif.got.tgz:34319.got - 2010.06.03 17:57:02.
