data_PCOD9539678
_publ_section_title
;
Structure prediction by ZEFSAII (Michael W. Deem and Ramdas Pophale) SiO2 
 PCOD9539678
Probable space group: I M M A
;
_chemical_formula_sum "Si O2"
_cell_formula_units_Z 56
_cell_length_a 16.090515
_cell_length_b 15.177011
_cell_length_c 12.444865
_cell_angle_alpha 90.000000
_cell_angle_beta 90.000000
_cell_angle_gamma 90.000000
_cell_volume 3039.109746
_symmetry_space_group_name_H-M "I M M A"
_symmetry_group_IT_number 74
_symmetry_cell_setting 'orthorhombic'
loop_
_space_group_symop_operation_xyz
x,y,z
-x,1/2-y,z
x,-y,-z
-x,1/2+y,-z
-x,-y,-z
x,1/2+y,-z
-x,y,z
x,1/2-y,z
1/2+x,1/2+y,1/2+z
1/2-x,-y,1/2+z
1/2+x,1/2-y,1/2-z
1/2-x,y,1/2-z
1/2-x,1/2-y,1/2-z
1/2+x,y,1/2-z
1/2-x,1/2+y,1/2+z
1/2+x,-y,1/2+z
loop_
_atom_site_type_symbol
_atom_site_label
_atom_site_fract_x
_atom_site_fract_y
_atom_site_fract_z
Si Si1 0.599277 0.750000 0.446234
Si Si2 0.675949 0.000000 0.000000
Si Si3 0.400690 0.562888 0.785701
Si Si4 0.398986 0.250000 0.306332
Si Si5 0.162370 0.440365 0.901513
O O1 0.500000 0.750000 0.446078
O O2 0.628738 0.750000 0.570299
O O3 0.628582 0.841883 0.396100
O O4 0.622300 0.953618 0.908991
O O5 0.740860 0.062130 0.935559
O O6 0.500000 0.555089 0.769955
O O7 0.372657 0.660435 0.750949
O O8 0.356023 0.494024 0.706318
O O9 0.500000 0.250000 0.306196
O O10 0.123993 0.500000 0.000000
#
# Coordination Sequence:
#
# PCOD9539678 Si02
#       5
#     8   8  16   8  16
#     4  11  20  35  59  95 120 151 197 252 297 349
#     4  10  23  40  57  84 126 158 194 238 307 352
#     4  11  21  39  62  89 119 159 201 246 290 355
#     4   9  18  31  58  89 114 143 197 248 291 336
#     4  10  22  37  60  86 121 150 196 242 306 342
#
# _framework density 18.426448000000001
#
# number of rings (size 3 to 8) (size 9 to 14) (size 15 to 20)
#    0.857    0.857    2.857    2.143    0.000    2.286 
#    0.000    7.143    0.000    1.714    0.000    0.000 
#    0.000    0.000    0.000    0.000    0.000    0.000 
#
# Total GULP energy -156112.150608 kJ/mol
# GULP energy per Si atom -5575.433950 kJ/mol
# Density = 1.838451 g / cm^3
# Si number density = 18.426448 Si / 1000 Ang^3
#
#
#
# Elastic Constant Matrix: (Units=GPa)
#
#
# Indices 1 2 3 4 5 6 
#
# 1 28.3044 15.4942 18.6374 0.0000 0.0000 0.0000
# 2 15.4942 165.5696 66.6988 0.0000 0.0000 0.0000
# 3 18.6374 66.6988 123.1990 0.0000 0.0000 0.0000
# 4 0.0000 0.0000 0.0000 9.4205 0.0000 0.0000
# 5 0.0000 0.0000 0.0000 0.0000 30.2489 0.0000
# 6 0.0000 0.0000 0.0000 0.0000 0.0000 8.3061
#
#
#
# Elastic Compliance Matrix: (Units=1/GPa)
#
#
# Indices 1 2 3 4 5 6 
#
# 1 0.039589 -0.001653 -0.005094 0.000000 0.000000 0.000000
# 2 -0.001653 0.007793 -0.003969 0.000000 0.000000 0.000000
# 3 -0.005094 -0.003969 0.011037 0.000000 0.000000 0.000000
# 4 0.000000 0.000000 0.000000 0.106152 0.000000 0.000000
# 5 0.000000 0.000000 0.000000 0.000000 0.033059 0.000000
# 6 0.000000 0.000000 0.000000 0.000000 0.000000 0.120394
#
#
# Mechanical properties :
#
#
# Convention : Reuss Voigt Hill
#
# Bulk Modulus (GPa) = 27.03664 57.63709 42.33687
# Shear Modulus (GPa) = 14.21323 24.01127 19.11225
#
# Velocity S-wave (km/s) = 2.78033 3.61375 3.22408
# Velocity P-wave (km/s) = 5.00116 6.98281 6.07335
#
# Compressibility (1/GPa) = 0.03698684
#
# Stress axis : x y z
#
# Youngs Moduli (GPa) = 25.25937 128.31348 90.60807
#
# Poissons Ratio (x) = 0.21205 0.46159
# Poissons Ratio (y) = 0.04174 0.35965
# Poissons Ratio (z) = 0.12868 0.50931
#
# Static dielectric constant tensor:
#      x y z
#    x 1.654440 0.000000 0.000000 
#    y 0.000000 1.631100 0.000000 
#    z 0.000000 0.000000 1.624490 
# 
# From -- ./inp_files/21552.got.cif
#   From: 2010.05.17/outbox.cif.g08.bks.cpg/sg74_11_cif.got.tgz:21552.got - 2010.06.03 17:57:02.
