data_PCOD9539260
_publ_section_title
;
Structure prediction by ZEFSAII (Michael W. Deem and Ramdas Pophale) SiO2 
 PCOD9539260
Probable space group: I M M A
;
_chemical_formula_sum "Si O2"
_cell_formula_units_Z 96
_cell_length_a 18.443064
_cell_length_b 20.973745
_cell_length_c 12.814440
_cell_angle_alpha 90.000000
_cell_angle_beta 90.000000
_cell_angle_gamma 90.000000
_cell_volume 4956.883236
_symmetry_space_group_name_H-M "I M M A"
_symmetry_group_IT_number 74
_symmetry_cell_setting 'orthorhombic'
loop_
_space_group_symop_operation_xyz
x,y,z
-x,1/2-y,z
x,-y,-z
-x,1/2+y,-z
-x,-y,-z
x,1/2+y,-z
-x,y,z
x,1/2-y,z
1/2+x,1/2+y,1/2+z
1/2-x,-y,1/2+z
1/2+x,1/2-y,1/2-z
1/2-x,y,1/2-z
1/2-x,1/2-y,1/2-z
1/2+x,y,1/2-z
1/2-x,1/2+y,1/2+z
1/2+x,-y,1/2+z
loop_
_atom_site_type_symbol
_atom_site_label
_atom_site_fract_x
_atom_site_fract_y
_atom_site_fract_z
Si Si1 0.583691 0.584318 0.765097
Si Si2 0.585593 0.323450 0.045645
Si Si3 0.180272 0.364147 0.646392
Si Si4 0.662663 0.822133 0.373042
Si Si5 0.199126 0.006932 0.387199
Si Si6 0.352099 0.931487 0.546422
O O1 0.500000 0.564494 0.778828
O O2 0.596533 0.644185 0.841730
O O3 0.642720 0.534566 0.806275
O O4 0.601157 0.592366 0.643925
O O5 0.500000 0.326761 0.023538
O O6 0.608134 0.250000 0.048747
O O7 0.628283 0.357233 0.952464
O O8 0.249793 0.319907 0.629715
O O9 0.142977 0.345984 0.755941
O O10 0.214211 0.435055 0.647600
O O11 0.635150 0.750000 0.392710
O O12 0.645825 0.876227 0.459202
O O13 0.270492 0.050156 0.409978
O O14 0.162173 0.000000 0.500000
O O15 0.377300 0.000000 0.500000
#
# Coordination Sequence:
#
# PCOD9539260 Si02
#       6
#    16  16  16  16  16  16
#     4  11  24  38  59  89 120 155 203 251 297 357
#     4  10  21  38  58  82 116 156 195 242 302 359
#     4  11  20  37  59  87 119 150 191 247 307 357
#     4  11  22  35  59  90 118 152 200 251 299 355
#     4  11  20  36  63  87 116 157 194 246 306 364
#     4  11  22  41  61  86 121 166 202 242 304 366
#
# _framework density 19.367010000000001
#
# number of rings (size 3 to 8) (size 9 to 14) (size 15 to 20)
#    0.000    1.167    5.000    3.500    2.333    2.000 
#    0.000    0.833    0.000    5.000    0.000    0.000 
#    0.000    0.000    0.000    0.000    0.000    0.000 
#
# Total GULP energy -267645.496753 kJ/mol
# GULP energy per Si atom -5575.947849 kJ/mol
# Density = 1.932293 g / cm^3
# Si number density = 19.367010 Si / 1000 Ang^3
#
#
#
# Elastic Constant Matrix: (Units=GPa)
#
#
# Indices 1 2 3 4 5 6 
#
# 1 19.2038 11.0653 26.5171 0.0000 0.0000 0.0000
# 2 11.0653 117.8311 49.5540 0.0000 0.0000 0.0000
# 3 26.5171 49.5540 156.9217 0.0000 0.0000 0.0000
# 4 0.0000 0.0000 0.0000 18.6014 0.0000 0.0000
# 5 0.0000 0.0000 0.0000 0.0000 29.8161 0.0000
# 6 0.0000 0.0000 0.0000 0.0000 0.0000 -17.6623
#
#
#
# Elastic Compliance Matrix: (Units=1/GPa)
#
#
# Indices 1 2 3 4 5 6 
#
# 1 0.068250 -0.001798 -0.010965 0.000000 0.000000 0.000000
# 2 -0.001798 0.009834 -0.002802 0.000000 0.000000 0.000000
# 3 -0.010965 -0.002802 0.009110 0.000000 0.000000 0.000000
# 4 0.000000 0.000000 0.000000 0.053759 0.000000 0.000000
# 5 0.000000 0.000000 0.000000 0.000000 0.033539 0.000000
# 6 0.000000 0.000000 0.000000 0.000000 0.000000 -0.056618
#
#
# Mechanical properties :
#
#
# Convention : Reuss Voigt Hill
#
# Bulk Modulus (GPa) = 17.83656 52.02548 34.93102
# Shear Modulus (GPa) = 29.81656 19.93905 24.87781
#
# Velocity S-wave (km/s) = 3.92797 3.21212 3.58794
# Velocity P-wave (km/s) = 5.45909 6.37795 5.93633
#
# Compressibility (1/GPa) = 0.05606461
#
# Stress axis : x y z
#
# Youngs Moduli (GPa) = 14.65203 101.69047 109.76620
#
# Poissons Ratio (x) = 0.18281 1.20363
# Poissons Ratio (y) = 0.02634 0.30752
# Poissons Ratio (z) = 0.16066 0.28490
#
# Static dielectric constant tensor:
#      x y z
#    x 1.658500 0.000000 0.000000 
#    y 0.000000 1.711390 0.000000 
#    z 0.000000 0.000000 1.701350 
# 
# From -- ./inp_files/23953.got.cif
#   From: 2010.05.17/outbox.cif.g08.bks.cpg/sg74_12_cif.got.tgz:23953.got - 2010.06.03 17:57:02.
