data_PCOD9539932
_publ_section_title
;
Structure prediction by ZEFSAII (Michael W. Deem and Ramdas Pophale) SiO2 
 PCOD9539932
Probable space group: I M M A
;
_chemical_formula_sum "Si O2"
_cell_formula_units_Z 68
_cell_length_a 14.590927
_cell_length_b 22.277905
_cell_length_c 10.896085
_cell_angle_alpha 90.000000
_cell_angle_beta 90.000000
_cell_angle_gamma 90.000000
_cell_volume 3541.830021
_symmetry_space_group_name_H-M "I M M A"
_symmetry_group_IT_number 74
_symmetry_cell_setting 'orthorhombic'
loop_
_space_group_symop_operation_xyz
x,y,z
-x,1/2-y,z
x,-y,-z
-x,1/2+y,-z
-x,-y,-z
x,1/2+y,-z
-x,y,z
x,1/2-y,z
1/2+x,1/2+y,1/2+z
1/2-x,-y,1/2+z
1/2+x,1/2-y,1/2-z
1/2-x,y,1/2-z
1/2-x,1/2-y,1/2-z
1/2+x,y,1/2-z
1/2-x,1/2+y,1/2+z
1/2+x,-y,1/2+z
loop_
_atom_site_type_symbol
_atom_site_label
_atom_site_fract_x
_atom_site_fract_y
_atom_site_fract_z
Si Si1 0.606737 0.250000 0.016994
Si Si2 0.000000 0.250000 0.238189
Si Si3 0.000000 0.062802 0.436355
Si Si4 0.636183 0.903535 0.360676
Si Si5 0.000000 0.142532 0.041429
Si Si6 0.161170 0.374842 0.580591
Si Si7 0.000000 0.513304 0.835739
O O1 0.500000 0.250000 0.968094
O O2 0.661008 0.192905 0.967247
O O3 0.585540 0.250000 0.164524
O O4 0.000000 0.191229 0.150157
O O5 0.910161 0.095786 0.486254
O O6 0.000000 0.045257 0.295651
O O7 0.000000 0.000000 0.500000
O O8 0.586783 0.856700 0.451375
O O9 0.740096 0.906345 0.408548
O O10 0.627685 0.879295 0.221539
O O11 0.586336 0.968584 0.354872
O O12 0.000000 0.072654 0.082697
#
# Coordination Sequence:
#
# PCOD9539932 Si02
#       7
#     8   4   8  16   8  16   8
#     4  10  22  41  69  85 133 161 211 277 319 378
#     4  10  24  44  68  96 120 172 232 262 312 418
#     4  12  20  37  66  86 124 169 219 262 322 379
#     4  10  23  39  63  94 134 160 223 265 326 403
#     4  11  23  42  64  86 135 177 207 264 348 375
#     4  11  22  41  63 102 122 168 219 274 322 384
#     4  11  22  43  61  93 133 178 209 272 331 391
#
# _framework density 19.199114000000002
#
# number of rings (size 3 to 8) (size 9 to 14) (size 15 to 20)
#    0.353    0.941    3.529    3.529    0.000    5.647 
#    0.000    4.706    0.000    0.000    0.000    0.000 
#    0.000    0.000    0.000    0.000    0.000    0.000 
#
# Total GULP energy -189352.190435 kJ/mol
# GULP energy per Si atom -5569.182072 kJ/mol
# Density = 1.915542 g / cm^3
# Si number density = 19.199114 Si / 1000 Ang^3
#
#
#
# Elastic Constant Matrix: (Units=GPa)
#
#
# Indices 1 2 3 4 5 6 
#
# 1 115.6641 52.3461 51.4555 0.0000 0.0000 0.0000
# 2 52.3461 147.1339 53.1214 0.0000 0.0000 0.0000
# 3 51.4555 53.1214 144.2616 0.0004 -0.0002 0.0001
# 4 0.0000 0.0000 0.0004 36.2193 -0.0001 0.0000
# 5 0.0000 0.0000 -0.0002 -0.0001 142.2715 0.0000
# 6 0.0000 0.0000 0.0001 0.0000 0.0000 10.0078
#
#
#
# Elastic Compliance Matrix: (Units=1/GPa)
#
#
# Indices 1 2 3 4 5 6 
#
# 1 0.011291 -0.002956 -0.002939 0.000000 0.000000 0.000000
# 2 -0.002956 0.008613 -0.002117 0.000000 0.000000 0.000000
# 3 -0.002939 -0.002117 0.008760 0.000000 0.000000 0.000000
# 4 0.000000 0.000000 0.000000 0.027610 0.000000 0.000000
# 5 0.000000 0.000000 0.000000 0.000000 0.007029 0.000000
# 6 0.000000 0.000000 0.000000 0.000000 0.000000 0.099922
#
#
# Mechanical properties :
#
#
# Convention : Reuss Voigt Hill
#
# Bulk Modulus (GPa) = 79.11738 80.10062 79.60900
# Shear Modulus (GPa) = 27.25382 54.37550 40.81466
#
# Velocity S-wave (km/s) = 3.77176 5.32760 4.61571
# Velocity P-wave (km/s) = 7.76315 8.92502 8.36429
#
# Compressibility (1/GPa) = 0.01263945
#
# Stress axis : x y z
#
# Youngs Moduli (GPa) = 88.56713 116.11006 114.16017
#
# Poissons Ratio (x) = 0.34322 0.33549
# Poissons Ratio (y) = 0.26180 0.24168
# Poissons Ratio (z) = 0.26028 0.24581
#
# Static dielectric constant tensor:
#      x y z
#    x 1.722860 0.000000 0.000000 
#    y 0.000000 1.647900 0.000000 
#    z 0.000000 0.000000 1.584980 
# 
# From -- ./inp_files/20286.got.cif
#   From: 2010.05.17/outbox.cif.g08.bks.cpg/sg74_11_cif.got.tgz:20286.got - 2010.06.03 17:57:02.
