data_PCOD9539928
_publ_section_title
;
Structure prediction by ZEFSAII (Michael W. Deem and Ramdas Pophale) SiO2 
 PCOD9539928
Probable space group: I M M A
;
_chemical_formula_sum "Si O2"
_cell_formula_units_Z 100
_cell_length_a 25.762940
_cell_length_b 20.160490
_cell_length_c 7.756167
_cell_angle_alpha 90.000000
_cell_angle_beta 90.000000
_cell_angle_gamma 90.000000
_cell_volume 4028.502680
_symmetry_space_group_name_H-M "I M M A"
_symmetry_group_IT_number 74
_symmetry_cell_setting 'orthorhombic'
loop_
_space_group_symop_operation_xyz
x,y,z
-x,1/2-y,z
x,-y,-z
-x,1/2+y,-z
-x,-y,-z
x,1/2+y,-z
-x,y,z
x,1/2-y,z
1/2+x,1/2+y,1/2+z
1/2-x,-y,1/2+z
1/2+x,1/2-y,1/2-z
1/2-x,y,1/2-z
1/2-x,1/2-y,1/2-z
1/2+x,y,1/2-z
1/2-x,1/2+y,1/2+z
1/2+x,-y,1/2+z
loop_
_atom_site_type_symbol
_atom_site_label
_atom_site_fract_x
_atom_site_fract_y
_atom_site_fract_z
Si Si1 0.944930 0.648079 0.216681
Si Si2 0.668217 0.321225 0.835166
Si Si3 0.306017 0.971166 0.193032
Si Si4 0.919084 0.500328 0.709519
Si Si5 0.692218 0.324635 0.238862
Si Si6 0.500000 0.750000 0.828653
Si Si7 0.424193 0.356169 0.323426
O O1 0.893534 0.673679 0.308407
O O2 0.943581 0.568390 0.231370
O O3 0.000000 0.672990 0.287138
O O4 0.940536 0.664885 0.015234
O O5 0.685893 0.250000 0.760323
O O6 0.690945 0.391614 0.775378
O O7 0.680557 0.321223 0.036550
O O8 0.250000 0.993759 0.250000
O O9 0.359230 0.997145 0.273203
O O10 0.310337 0.000000 0.000000
O O11 0.921328 0.500000 0.500000
O O12 0.940194 0.568773 0.781066
O O13 0.697143 0.250000 0.311691
O O14 0.750000 0.355698 0.250000
O O15 0.638827 0.352927 0.315832
O O16 0.453951 0.692351 0.806062
#
# Coordination Sequence:
#
# PCOD9539928 Si02
#       7
#    16  16  16  16  16   4  16
#     4  11  25  43  69 100 139 190 237 294 364 432
#     4  10  24  44  65 101 143 179 236 296 365 431
#     4  10  22  41  67  94 132 177 227 285 352 414
#     4  10  24  46  68  99 136 180 238 298 351 433
#     4  10  22  43  67  96 136 186 234 286 349 422
#     4  12  28  44  66 106 144 196 224 304 358 448
#     4  12  24  45  71 101 146 183 242 288 367 438
#
# _framework density 24.823118999999998
#
# number of rings (size 3 to 8) (size 9 to 14) (size 15 to 20)
#    0.000    1.440    1.600    3.360    2.240    9.280 
#    4.320    1.600    0.000    0.960    0.000    0.000 
#    0.000    0.000    0.000    0.000    0.000    0.000 
#
# Total GULP energy -279022.343568 kJ/mol
# GULP energy per Si atom -5580.446871 kJ/mol
# Density = 2.476662 g / cm^3
# Si number density = 24.823119 Si / 1000 Ang^3
#
#
#
# Elastic Constant Matrix: (Units=GPa)
#
#
# Indices 1 2 3 4 5 6 
#
# 1 210.7501 23.2121 17.6875 0.0000 0.0000 0.0000
# 2 23.2121 181.6950 -18.1781 0.0000 0.0000 0.0000
# 3 17.6875 -18.1781 43.7237 0.0000 0.0000 0.0000
# 4 0.0000 0.0000 0.0000 889.9585 0.0000 0.0000
# 5 0.0000 0.0000 0.0000 0.0000 167.6371 0.0000
# 6 0.0000 0.0000 0.0000 0.0000 0.0000 -25.0892
#
#
#
# Elastic Compliance Matrix: (Units=1/GPa)
#
#
# Indices 1 2 3 4 5 6 
#
# 1 0.005045 -0.000885 -0.002409 0.000000 0.000000 0.000000
# 2 -0.000885 0.005898 0.002810 0.000000 0.000000 0.000000
# 3 -0.002409 0.002810 0.025014 0.000000 0.000000 0.000000
# 4 0.000000 0.000000 0.000000 0.001124 0.000000 0.000000
# 5 0.000000 0.000000 0.000000 0.000000 0.005965 0.000000
# 6 0.000000 0.000000 0.000000 0.000000 0.000000 -0.039858
#
#
# Mechanical properties :
#
#
# Convention : Reuss Voigt Hill
#
# Bulk Modulus (GPa) = 28.58096 53.51242 41.04669
# Shear Modulus (GPa) = 316.09109 234.06443 275.07776
#
# Velocity S-wave (km/s) = 11.29663 9.72099 10.53830
# Velocity P-wave (km/s) = 13.47927 12.14912 12.83144
#
# Compressibility (1/GPa) = 0.03498833
#
# Stress axis : x y z
#
# Youngs Moduli (GPa) = 198.22996 169.54864 39.97810
#
# Poissons Ratio (x) = 0.15013 0.09630
# Poissons Ratio (y) = 0.17553 -0.11235
# Poissons Ratio (z) = 0.47750 -0.47648
#
# Static dielectric constant tensor:
#      x y z
#    x 1.967070 0.000000 0.000000 
#    y 0.000000 3.416240 0.000000 
#    z 0.000000 0.000000 1.900590 
# 
# From -- ./inp_files/15228.got.cif
#   From: 2010.05.17/outbox.cif.g08.bks.cpg/sg74_8_cif.got.tgz:15228.got - 2010.06.03 17:57:02.
