data_PCOD9539468
_publ_section_title
;
Structure prediction by ZEFSAII (Michael W. Deem and Ramdas Pophale) SiO2 
 PCOD9539468
Probable space group: I M M A
;
_chemical_formula_sum "Si O2"
_cell_formula_units_Z 88
_cell_length_a 36.122800
_cell_length_b 22.312647
_cell_length_c 4.862255
_cell_angle_alpha 90.000000
_cell_angle_beta 90.000000
_cell_angle_gamma 90.000000
_cell_volume 3918.954605
_symmetry_space_group_name_H-M "I M M A"
_symmetry_group_IT_number 74
_symmetry_cell_setting 'orthorhombic'
loop_
_space_group_symop_operation_xyz
x,y,z
-x,1/2-y,z
x,-y,-z
-x,1/2+y,-z
-x,-y,-z
x,1/2+y,-z
-x,y,z
x,1/2-y,z
1/2+x,1/2+y,1/2+z
1/2-x,-y,1/2+z
1/2+x,1/2-y,1/2-z
1/2-x,y,1/2-z
1/2-x,1/2-y,1/2-z
1/2+x,y,1/2-z
1/2-x,1/2+y,1/2+z
1/2+x,-y,1/2+z
loop_
_atom_site_type_symbol
_atom_site_label
_atom_site_fract_x
_atom_site_fract_y
_atom_site_fract_z
Si Si1 0.348535 0.500000 0.500000
Si Si2 0.134460 0.315861 0.165587
Si Si3 0.683369 0.817796 0.169235
Si Si4 0.410244 0.085017 0.652682
Si Si5 0.542074 0.433976 0.135575
Si Si6 0.710629 0.934359 0.871704
O O1 0.377146 0.536469 0.305914
O O2 0.322797 0.547966 0.660696
O O3 0.118540 0.250000 0.124174
O O4 0.172700 0.318594 0.988800
O O5 0.108716 0.363235 0.022638
O O6 0.146206 0.321581 0.481474
O O7 0.699100 0.750000 0.111610
O O8 0.702302 0.879776 0.079318
O O9 0.441935 0.063523 0.441068
O O10 0.429989 0.101433 0.935684
O O11 0.500000 0.411723 0.133548
O O12 0.542465 0.500000 0.000000
O O13 0.750000 0.917182 0.750000
O O14 0.716617 0.000000 0.000000
#
# Coordination Sequence:
#
# PCOD9539468 Si02
#       6
#     8  16  16  16  16  16
#     4  12  24  38  59  94 118 164 214 256 307 394
#     4  10  21  39  63  93 123 159 210 267 313 359
#     4  10  22  41  65  90 124 167 217 271 315 376
#     4  12  22  37  65  90 120 165 203 260 304 371
#     4  11  23  39  58  92 130 160 197 247 318 379
#     4  12  26  42  62  90 135 173 209 269 334 384
#
# _framework density 22.454965999999999
#
# number of rings (size 3 to 8) (size 9 to 14) (size 15 to 20)
#    0.000    0.909    4.545    2.727    2.545    1.818 
#    0.000    0.000    0.000    7.091    0.000    0.000 
#    0.000    0.000    0.000    0.000    0.000    0.000 
#
# Total GULP energy -245737.274765 kJ/mol
# GULP energy per Si atom -5584.938063 kJ/mol
# Density = 2.240386 g / cm^3
# Si number density = 22.454966 Si / 1000 Ang^3
#
#
#
# Elastic Constant Matrix: (Units=GPa)
#
#
# Indices 1 2 3 4 5 6 
#
# 1 90.7730 -8.0382 13.7399 0.0002 -0.0002 0.0001
# 2 -8.0382 72.5064 -18.0142 0.0002 -0.0003 0.0001
# 3 13.7399 -18.0142 89.4514 0.0000 -0.0001 -0.0003
# 4 0.0002 0.0002 0.0000 26.5824 0.0000 0.0000
# 5 -0.0002 -0.0003 -0.0001 0.0000 21.9918 -0.0001
# 6 0.0001 0.0001 -0.0003 0.0000 -0.0001 3.8994
#
#
#
# Elastic Compliance Matrix: (Units=1/GPa)
#
#
# Indices 1 2 3 4 5 6 
#
# 1 0.011330 0.000867 -0.001566 0.000000 0.000000 0.000000
# 2 0.000867 0.014585 0.002804 0.000000 0.000000 0.000000
# 3 -0.001566 0.002804 0.011984 0.000000 0.000000 0.000001
# 4 0.000000 0.000000 0.000000 0.037619 0.000000 0.000000
# 5 0.000000 0.000000 0.000000 0.000000 0.045472 0.000001
# 6 0.000000 0.000000 0.000001 0.000000 0.000001 0.256451
#
#
# Mechanical properties :
#
#
# Convention : Reuss Voigt Hill
#
# Bulk Modulus (GPa) = 23.74734 25.34509 24.54621
# Shear Modulus (GPa) = 12.91099 28.16427 20.53763
#
# Velocity S-wave (km/s) = 2.40046 3.54539 3.02754
# Velocity P-wave (km/s) = 4.27568 5.29823 4.81418
#
# Compressibility (1/GPa) = 0.04210998
#
# Stress axis : x y z
#
# Youngs Moduli (GPa) = 88.25915 68.56518 83.44161
#
# Poissons Ratio (x) = -0.05945 0.13065
# Poissons Ratio (y) = -0.07653 -0.23397
# Poissons Ratio (z) = 0.13819 -0.19225
#
# Static dielectric constant tensor:
#      x y z
#    x 1.847630 0.000000 0.000000 
#    y 0.000000 1.892300 0.000000 
#    z 0.000000 0.000000 1.847570 
# 
# From -- ./inp_files/5144.got.cif
#   From: 2010.05.17/outbox.cif.g08.bks.cpg/sg74_3_cif.got.tgz:5144.got - 2010.06.03 17:57:02.
