data_PCOD9539243
_publ_section_title
;
Structure prediction by ZEFSAII (Michael W. Deem and Ramdas Pophale) SiO2 
 PCOD9539243
Probable space group: I M M A
;
_chemical_formula_sum "Si O2"
_cell_formula_units_Z 116
_cell_length_a 7.926915
_cell_length_b 26.194593
_cell_length_c 26.912503
_cell_angle_alpha 90.000000
_cell_angle_beta 90.000000
_cell_angle_gamma 90.000000
_cell_volume 5588.174349
_symmetry_space_group_name_H-M "I M M A"
_symmetry_group_IT_number 74
_symmetry_cell_setting 'orthorhombic'
loop_
_space_group_symop_operation_xyz
x,y,z
-x,1/2-y,z
x,-y,-z
-x,1/2+y,-z
-x,-y,-z
x,1/2+y,-z
-x,y,z
x,1/2-y,z
1/2+x,1/2+y,1/2+z
1/2-x,-y,1/2+z
1/2+x,1/2-y,1/2-z
1/2-x,y,1/2-z
1/2-x,1/2-y,1/2-z
1/2+x,y,1/2-z
1/2-x,1/2+y,1/2+z
1/2+x,-y,1/2+z
loop_
_atom_site_type_symbol
_atom_site_label
_atom_site_fract_x
_atom_site_fract_y
_atom_site_fract_z
Si Si1 0.188172 0.695069 0.654812
Si Si2 0.804189 0.695737 0.089467
Si Si3 0.205244 0.403624 0.966396
Si Si4 0.805870 0.888643 0.921495
Si Si5 0.696195 0.999689 0.097408
Si Si6 0.307111 0.174206 0.804258
Si Si7 0.000000 0.750000 0.803281
Si Si8 0.299102 0.057587 0.697033
O O1 0.189180 0.750000 0.625958
O O2 0.214909 0.648363 0.617483
O O3 0.347292 0.705725 0.690956
O O4 0.000000 0.691431 0.678350
O O5 0.727574 0.750000 0.073201
O O6 0.733603 0.642843 0.068462
O O7 0.796251 0.693364 0.148915
O O8 0.000000 0.696099 0.074031
O O9 0.264974 0.457778 0.945032
O O10 0.000000 0.406289 0.965692
O O11 0.260445 0.389759 0.022033
O O12 0.000000 0.871044 0.922916
O O13 0.797339 0.947891 0.906573
O O14 0.500000 0.012837 0.094966
O O15 0.739633 0.973673 0.149735
O O16 0.500000 0.188247 0.812394
O O17 0.250000 0.191558 0.750000
O O18 0.287841 0.112904 0.804248
O O19 0.500000 0.065265 0.694584
O O20 0.250000 0.033505 0.750000
#
# Coordination Sequence:
#
# PCOD9539243 Si02
#       8
#    16  16  16  16  16  16   4  16
#     4   9  17  31  52  78 107 142 184 229 273 325
#     4  10  21  38  57  79 106 141 185 235 288 344
#     4  10  22  38  56  75 105 147 190 234 287 345
#     4  11  21  36  56  81 112 150 193 237 287 339
#     4  12  24  37  55  82 113 146 185 232 280 337
#     4  11  21  35  57  81 104 137 176 228 287 346
#     4   8  14  32  52  74 106 148 176 232 270 326
#     4  11  21  37  60  84 110 142 180 225 283 347
#
# _framework density 20.758120000000002
#
# number of rings (size 3 to 8) (size 9 to 14) (size 15 to 20)
#    0.414    1.103    2.069    5.379    0.000    3.862 
#    0.000    1.379    0.000    0.000    0.000    0.000 
#    0.000    0.552    0.000    3.310    0.000    6.483 
#
# Total GULP energy -323076.030728 kJ/mol
# GULP energy per Si atom -5570.276392 kJ/mol
# Density = 2.071087 g / cm^3
# Si number density = 20.758120 Si / 1000 Ang^3
#
#
#
# Elastic Constant Matrix: (Units=GPa)
#
#
# Indices 1 2 3 4 5 6 
#
# 1 96.8402 -9.3139 -5.4186 0.0000 0.0000 0.0000
# 2 -9.3139 89.9253 6.3468 0.0000 0.0000 0.0000
# 3 -5.4186 6.3468 37.0125 0.0000 0.0000 0.0000
# 4 0.0000 0.0000 0.0000 -1.5212 0.0000 0.0000
# 5 0.0000 0.0000 0.0000 0.0000 17.9714 0.0000
# 6 0.0000 0.0000 0.0000 0.0000 0.0000 8.8450
#
#
#
# Elastic Compliance Matrix: (Units=1/GPa)
#
#
# Indices 1 2 3 4 5 6 
#
# 1 0.010498 0.000991 0.001367 0.000000 0.000000 0.000000
# 2 0.000991 0.011350 -0.001801 0.000000 0.000000 0.000000
# 3 0.001367 -0.001801 0.027527 0.000000 0.000000 0.000000
# 4 0.000000 0.000000 0.000000 -0.657394 0.000000 0.000000
# 5 0.000000 0.000000 0.000000 0.000000 0.055644 0.000000
# 6 0.000000 0.000000 0.000000 0.000000 0.000000 0.113059
#
#
# Mechanical properties :
#
#
# Convention : Reuss Voigt Hill
#
# Bulk Modulus (GPa) = 19.80655 23.00071 21.40363
# Shear Modulus (GPa) = -11.80359 20.53663 4.36652
#
# Velocity S-wave (km/s) = -2.38717 3.14877 1.45193
# Velocity P-wave (km/s) = 1.40149 4.93195 3.62548
#
# Compressibility (1/GPa) = 0.05048836
#
# Stress axis : x y z
#
# Youngs Moduli (GPa) = 95.25551 88.10498 36.32812
#
# Poissons Ratio (x) = -0.08730 -0.04966
# Poissons Ratio (y) = -0.09438 0.06543
# Poissons Ratio (z) = -0.13022 0.15870
#
# Static dielectric constant tensor:
#      x y z
#    x 1.769810 0.000000 0.000000 
#    y 0.000000 1.750480 0.000000 
#    z 0.000000 0.000000 1.756410 
# 
# From -- ./inp_files/70883.got.cif
#   From: 2010.05.17/outbox.cif.g08.bks.cpg/sg74_36_cif.got.tgz:70883.got - 2010.06.03 17:57:02.
