data_PCOD9539173
_publ_section_title
;
Structure prediction by ZEFSAII (Michael W. Deem and Ramdas Pophale) SiO2 
 PCOD9539173
Probable space group: I M M A
;
_chemical_formula_sum "Si O2"
_cell_formula_units_Z 112
_cell_length_a 28.825580
_cell_length_b 14.692187
_cell_length_c 12.445145
_cell_angle_alpha 90.000000
_cell_angle_beta 90.000000
_cell_angle_gamma 90.000000
_cell_volume 5270.653461
_symmetry_space_group_name_H-M "I M M A"
_symmetry_group_IT_number 74
_symmetry_cell_setting 'orthorhombic'
loop_
_space_group_symop_operation_xyz
x,y,z
-x,1/2-y,z
x,-y,-z
-x,1/2+y,-z
-x,-y,-z
x,1/2+y,-z
-x,y,z
x,1/2-y,z
1/2+x,1/2+y,1/2+z
1/2-x,-y,1/2+z
1/2+x,1/2-y,1/2-z
1/2-x,y,1/2-z
1/2-x,1/2-y,1/2-z
1/2+x,y,1/2-z
1/2-x,1/2+y,1/2+z
1/2+x,-y,1/2+z
loop_
_atom_site_type_symbol
_atom_site_label
_atom_site_fract_x
_atom_site_fract_y
_atom_site_fract_z
Si Si1 0.357469 0.351452 0.324124
Si Si2 0.195802 0.521385 0.238292
Si Si3 0.701773 0.849261 0.458227
Si Si4 0.306933 0.896348 0.039490
Si Si5 0.945721 0.545447 0.884993
Si Si6 0.554859 0.979674 0.156896
Si Si7 0.406830 0.147500 0.023168
O O1 0.354606 0.250000 0.277131
O O2 0.336199 0.432939 0.253717
O O3 0.326377 0.354889 0.431944
O O4 0.409589 0.374756 0.360361
O O5 0.250000 0.495063 0.250000
O O6 0.189727 0.570545 0.124031
O O7 0.186325 0.593808 0.332239
O O8 0.692404 0.750000 0.408479
O O9 0.756659 0.855201 0.481921
O O10 0.351248 0.851831 0.985550
O O11 0.305199 0.000000 0.000000
O O12 0.938259 0.476571 0.784838
O O13 0.000000 0.572789 0.882803
O O14 0.936071 0.500000 0.000000
O O15 0.500000 0.981700 0.136119
O O16 0.576148 0.897418 0.088963
O O17 0.575795 0.074273 0.110735
O O18 0.424173 0.250000 0.040008
#
# Coordination Sequence:
#
# PCOD9539173 Si02
#       7
#    16  16  16  16  16  16  16
#     4  11  23  39  60  89 123 159 202 249 304 371
#     4  10  21  37  60  83 118 164 205 253 303 357
#     4  10  21  37  59  87 117 155 203 254 307 365
#     4  11  21  37  56  82 123 160 205 248 297 359
#     4  10  22  43  69  91 118 162 210 264 327 380
#     4  10  22  42  64  91 124 159 208 261 312 379
#     4  11  22  37  61  92 127 167 205 249 309 375
#
# _framework density 21.249737
#
# number of rings (size 3 to 8) (size 9 to 14) (size 15 to 20)
#    0.000    1.571    1.429    5.143    0.000    5.429 
#    0.000    4.286    0.000    2.571    0.000    0.000 
#    0.000    0.000    0.000    0.000    0.000    0.000 
#
# Total GULP energy -313081.565500 kJ/mol
# GULP energy per Si atom -5590.742241 kJ/mol
# Density = 2.120137 g / cm^3
# Si number density = 21.249737 Si / 1000 Ang^3
#
#
#
# Elastic Constant Matrix: (Units=GPa)
#
#
# Indices 1 2 3 4 5 6 
#
# 1 91.7936 23.8609 26.9345 0.0000 0.0000 0.0000
# 2 23.8609 105.5851 7.6824 0.0000 0.0000 0.0000
# 3 26.9345 7.6824 98.9689 0.0000 0.0000 0.0000
# 4 0.0000 0.0000 0.0000 -11.8189 0.0000 0.0000
# 5 0.0000 0.0000 0.0000 0.0000 27.0867 0.0000
# 6 0.0000 0.0000 0.0000 0.0000 0.0000 6.1600
#
#
#
# Elastic Compliance Matrix: (Units=1/GPa)
#
#
# Indices 1 2 3 4 5 6 
#
# 1 0.012508 -0.002594 -0.003203 0.000000 0.000000 0.000000
# 2 -0.002594 0.010063 -0.000075 0.000000 0.000000 0.000000
# 3 -0.003203 -0.000075 0.010982 0.000000 0.000000 0.000000
# 4 0.000000 0.000000 0.000000 -0.084610 0.000000 0.000000
# 5 0.000000 0.000000 0.000000 0.000000 0.036918 0.000000
# 6 0.000000 0.000000 0.000000 0.000000 0.000000 0.162338
#
#
# Mechanical properties :
#
#
# Convention : Reuss Voigt Hill
#
# Bulk Modulus (GPa) = 45.85250 45.92258 45.88754
# Shear Modulus (GPa) = 29.90216 20.14353 25.02284
#
# Velocity S-wave (km/s) = 3.75531 3.08221 3.43528
# Velocity P-wave (km/s) = 6.35829 5.85871 6.11361
#
# Compressibility (1/GPa) = 0.02180906
#
# Stress axis : x y z
#
# Youngs Moduli (GPa) = 79.94912 99.37758 91.06095
#
# Poissons Ratio (x) = 0.25775 0.29164
# Poissons Ratio (y) = 0.20736 0.00685
# Poissons Ratio (z) = 0.25606 0.00748
#
# Static dielectric constant tensor:
#      x y z
#    x 1.770500 0.000000 0.000000 
#    y 0.000000 1.758680 0.000000 
#    z 0.000000 0.000000 1.817900 
# 
# From -- ./inp_files/27246.got.cif
#   From: 2010.05.17/outbox.cif.g08.bks.cpg/sg74_14_cif.got.tgz:27246.got - 2010.06.03 17:57:02.
