data_PCOD9539936
_publ_section_title
;
Structure prediction by ZEFSAII (Michael W. Deem and Ramdas Pophale) SiO2 
 PCOD9539936
Probable space group: I M M A
;
_chemical_formula_sum "Si O2"
_cell_formula_units_Z 96
_cell_length_a 22.821328
_cell_length_b 14.356866
_cell_length_c 14.890352
_cell_angle_alpha 90.000000
_cell_angle_beta 90.000000
_cell_angle_gamma 90.000000
_cell_volume 4878.715849
_symmetry_space_group_name_H-M "I M M A"
_symmetry_group_IT_number 74
_symmetry_cell_setting 'orthorhombic'
loop_
_space_group_symop_operation_xyz
x,y,z
-x,1/2-y,z
x,-y,-z
-x,1/2+y,-z
-x,-y,-z
x,1/2+y,-z
-x,y,z
x,1/2-y,z
1/2+x,1/2+y,1/2+z
1/2-x,-y,1/2+z
1/2+x,1/2-y,1/2-z
1/2-x,y,1/2-z
1/2-x,1/2-y,1/2-z
1/2+x,y,1/2-z
1/2-x,1/2+y,1/2+z
1/2+x,-y,1/2+z
loop_
_atom_site_type_symbol
_atom_site_label
_atom_site_fract_x
_atom_site_fract_y
_atom_site_fract_z
Si Si1 0.131301 0.482556 0.401499
Si Si2 0.570273 0.250000 0.693209
Si Si3 0.568727 0.541312 0.260199
Si Si4 0.634843 0.933484 0.585285
Si Si5 0.220439 0.859363 0.346701
Si Si6 0.243000 0.859292 0.551196
Si Si7 0.429079 0.750000 0.516164
O O1 0.106468 0.500000 0.500000
O O2 0.080136 0.480890 0.329270
O O3 0.167886 0.570458 0.364371
O O4 0.181529 0.404579 0.417918
O O5 0.500000 0.250000 0.690751
O O6 0.586116 0.348321 0.739203
O O7 0.590114 0.250000 0.589059
O O8 0.500000 0.538825 0.283830
O O9 0.607374 0.490260 0.333966
O O10 0.702375 0.905946 0.600616
O O11 0.597994 0.840775 0.562996
O O12 0.631494 0.000000 0.500000
O O13 0.204358 0.750000 0.343696
O O14 0.250000 0.880097 0.250000
O O15 0.254306 0.871135 0.442942
O O16 0.241671 0.750000 0.568685
O O17 0.500000 0.750000 0.519820
#
# Coordination Sequence:
#
# PCOD9539936 Si02
#       7
#    16   8  16  16  16  16   8
#     4  10  23  42  64  90 125 163 209 266 317 383
#     4   9  20  40  62  95 130 160 209 261 317 384
#     4  11  25  42  66  95 125 167 216 268 323 381
#     4  12  23  38  65  94 135 172 210 257 317 389
#     4   9  19  34  60  93 126 154 196 252 314 383
#     4  10  22  42  61  89 126 167 211 257 320 379
#     4  11  22  38  60  91 137 183 212 254 310 376
#
# _framework density 19.677309000000001
#
# number of rings (size 3 to 8) (size 9 to 14) (size 15 to 20)
#    0.000    1.667    2.500    2.000    5.833    1.000 
#    1.500    0.833    0.000    0.000    0.000    0.000 
#    0.000    0.000    0.000    0.000    0.000    0.000 
#
# Total GULP energy -267749.310587 kJ/mol
# GULP energy per Si atom -5578.110637 kJ/mol
# Density = 1.963252 g / cm^3
# Si number density = 19.677309 Si / 1000 Ang^3
#
#
#
# Elastic Constant Matrix: (Units=GPa)
#
#
# Indices 1 2 3 4 5 6 
#
# 1 46.3284 33.1091 21.1955 0.0000 0.0000 0.0000
# 2 33.1091 109.2980 45.7387 0.0000 0.0000 0.0000
# 3 21.1955 45.7387 86.0089 0.0000 0.0000 0.0000
# 4 0.0000 0.0000 0.0000 21.5078 0.0000 0.0000
# 5 0.0000 0.0000 0.0000 0.0000 52.4489 0.0000
# 6 0.0000 0.0000 0.0000 0.0000 0.0000 40.3280
#
#
#
# Elastic Compliance Matrix: (Units=1/GPa)
#
#
# Indices 1 2 3 4 5 6 
#
# 1 0.028174 -0.007241 -0.003093 0.000000 0.000000 0.000000
# 2 -0.007241 0.013629 -0.005463 0.000000 0.000000 0.000000
# 3 -0.003093 -0.005463 0.015294 0.000000 0.000000 0.000000
# 4 0.000000 0.000000 0.000000 0.046495 0.000000 0.000000
# 5 0.000000 0.000000 0.000000 0.000000 0.019066 0.000000
# 6 0.000000 0.000000 0.000000 0.000000 0.000000 0.024797
#
#
# Mechanical properties :
#
#
# Convention : Reuss Voigt Hill
#
# Bulk Modulus (GPa) = 39.20900 49.08021 44.14461
# Shear Modulus (GPa) = 26.65955 32.29641 29.47798
#
# Velocity S-wave (km/s) = 3.68480 4.05569 3.87469
# Velocity P-wave (km/s) = 6.17033 6.85042 6.51925
#
# Compressibility (1/GPa) = 0.02550435
#
# Stress axis : x y z
#
# Youngs Moduli (GPa) = 35.49314 73.37321 65.38407
#
# Poissons Ratio (x) = 0.53126 0.20221
# Poissons Ratio (y) = 0.25699 0.35722
# Poissons Ratio (z) = 0.10977 0.40087
#
# Static dielectric constant tensor:
#      x y z
#    x 1.711450 0.000000 0.000000 
#    y 0.000000 2.039270 0.000000 
#    z 0.000000 0.000000 1.770260 
# 
# From -- ./inp_files/35327.got.cif
#   From: 2010.05.17/outbox.cif.g08.bks.cpg/sg74_18_cif.got.tgz:35327.got - 2010.06.03 17:57:02.
