data_PCOD9539666
_publ_section_title
;
Structure prediction by ZEFSAII (Michael W. Deem and Ramdas Pophale) SiO2 
 PCOD9539666
Probable space group: I M M A
;
_chemical_formula_sum "Si O2"
_cell_formula_units_Z 112
_cell_length_a 16.471789
_cell_length_b 13.694155
_cell_length_c 23.142887
_cell_angle_alpha 90.000000
_cell_angle_beta 90.000000
_cell_angle_gamma 90.000000
_cell_volume 5220.276954
_symmetry_space_group_name_H-M "I M M A"
_symmetry_group_IT_number 74
_symmetry_cell_setting 'orthorhombic'
loop_
_space_group_symop_operation_xyz
x,y,z
-x,1/2-y,z
x,-y,-z
-x,1/2+y,-z
-x,-y,-z
x,1/2+y,-z
-x,y,z
x,1/2-y,z
1/2+x,1/2+y,1/2+z
1/2-x,-y,1/2+z
1/2+x,1/2-y,1/2-z
1/2-x,y,1/2-z
1/2-x,1/2-y,1/2-z
1/2+x,y,1/2-z
1/2-x,1/2+y,1/2+z
1/2+x,-y,1/2+z
loop_
_atom_site_type_symbol
_atom_site_label
_atom_site_fract_x
_atom_site_fract_y
_atom_site_fract_z
Si Si1 0.744328 0.864761 0.892091
Si Si2 0.905728 0.635752 0.386223
Si Si3 0.592018 0.641281 0.296081
Si Si4 0.087175 0.862549 0.064955
Si Si5 0.089617 0.936097 0.676341
Si Si6 0.328660 0.945871 0.713673
Si Si7 0.238142 0.368942 0.524378
O O1 0.761680 0.750000 0.893830
O O2 0.659698 0.883983 0.859535
O O3 0.733077 0.899837 0.957680
O O4 0.813987 0.912447 0.851623
O O5 0.892202 0.750000 0.369060
O O6 0.898554 0.552719 0.336814
O O7 0.838809 0.608575 0.434688
O O8 0.000000 0.630472 0.406738
O O9 0.500000 0.616080 0.275804
O O10 0.610862 0.750000 0.275521
O O11 0.587116 0.642537 0.365699
O O12 0.659432 0.561679 0.284388
O O13 0.086070 0.750000 0.043715
O O14 0.000000 0.907673 0.047468
O O15 0.173961 0.903817 0.046808
O O16 0.000000 0.909982 0.656167
O O17 0.099450 0.911201 0.744229
O O18 0.250000 0.916146 0.750000
O O19 0.239478 0.250000 0.525208
#
# Coordination Sequence:
#
# PCOD9539666 Si02
#       7
#    16  16  16  16  16  16  16
#     4  10  23  42  59  81 112 154 205 259 309 350
#     4   9  19  36  59  92 131 163 192 235 298 374
#     4   9  18  34  56  82 115 151 183 226 284 348
#     4   8  15  29  51  80 113 147 183 224 274 340
#     4  10  22  39  59  86 117 154 198 249 301 356
#     4  10  22  37  56  82 113 150 195 249 290 350
#     4   9  18  34  59  84 116 159 197 241 301 364
#
# _framework density 21.454799000000001
#
# number of rings (size 3 to 8) (size 9 to 14) (size 15 to 20)
#    0.000    2.714    0.000    1.286    4.000    4.857 
#    0.000    5.714    0.000    4.714    0.000    0.000 
#    0.000    0.000    0.000    0.000    0.000    0.000 
#
# Total GULP energy -312021.553347 kJ/mol
# GULP energy per Si atom -5571.813453 kJ/mol
# Density = 2.140597 g / cm^3
# Si number density = 21.454799 Si / 1000 Ang^3
#
#
#
# Elastic Constant Matrix: (Units=GPa)
#
#
# Indices 1 2 3 4 5 6 
#
# 1 117.4125 17.2627 61.6981 0.0000 0.0000 0.0000
# 2 17.2627 40.1897 11.2850 0.0000 0.0000 0.0000
# 3 61.6981 11.2850 119.2141 0.0000 0.0000 0.0000
# 4 0.0000 0.0000 0.0000 19.1606 0.0000 0.0000
# 5 0.0000 0.0000 0.0000 0.0000 39.9405 0.0000
# 6 0.0000 0.0000 0.0000 0.0000 0.0000 19.9412
#
#
#
# Elastic Compliance Matrix: (Units=1/GPa)
#
#
# Indices 1 2 3 4 5 6 
#
# 1 0.012173 -0.003554 -0.005964 0.000000 0.000000 0.000000
# 2 -0.003554 0.026599 -0.000678 0.000000 0.000000 0.000000
# 3 -0.005964 -0.000678 0.011539 0.000000 0.000000 0.000000
# 4 0.000000 0.000000 0.000000 0.052190 0.000000 0.000000
# 5 0.000000 0.000000 0.000000 0.000000 0.025037 0.000000
# 6 0.000000 0.000000 0.000000 0.000000 0.000000 0.050147
#
#
# Mechanical properties :
#
#
# Convention : Reuss Voigt Hill
#
# Bulk Modulus (GPa) = 33.42402 50.81198 42.11800
# Shear Modulus (GPa) = 24.03240 28.24648 26.13944
#
# Velocity S-wave (km/s) = 3.35048 3.63238 3.49427
# Velocity P-wave (km/s) = 5.52994 6.42860 5.99613
#
# Compressibility (1/GPa) = 0.02991860
#
# Stress axis : x y z
#
# Youngs Moduli (GPa) = 82.14626 37.59516 86.66265
#
# Poissons Ratio (x) = 0.13362 0.51684
# Poissons Ratio (y) = 0.29197 0.05880
# Poissons Ratio (z) = 0.48990 0.02551
#
# Static dielectric constant tensor:
#      x y z
#    x 1.772870 0.000000 0.000000 
#    y 0.000000 1.834500 0.000000 
#    z 0.000000 0.000000 1.804040 
# 
# From -- ./inp_files/60174.got.cif
#   From: 2010.05.17/outbox.cif.g08.bks.cpg/sg74_31_cif.got.tgz:60174.got - 2010.06.03 17:57:02.
