data_PCOD9539773
_publ_section_title
;
Structure prediction by ZEFSAII (Michael W. Deem and Ramdas Pophale) SiO2 
 PCOD9539773
Probable space group: I M M A
;
_chemical_formula_sum "Si O2"
_cell_formula_units_Z 120
_cell_length_a 24.939944
_cell_length_b 21.043285
_cell_length_c 11.994222
_cell_angle_alpha 90.000000
_cell_angle_beta 90.000000
_cell_angle_gamma 90.000000
_cell_volume 6294.787793
_symmetry_space_group_name_H-M "I M M A"
_symmetry_group_IT_number 74
_symmetry_cell_setting 'orthorhombic'
loop_
_space_group_symop_operation_xyz
x,y,z
-x,1/2-y,z
x,-y,-z
-x,1/2+y,-z
-x,-y,-z
x,1/2+y,-z
-x,y,z
x,1/2-y,z
1/2+x,1/2+y,1/2+z
1/2-x,-y,1/2+z
1/2+x,1/2-y,1/2-z
1/2-x,y,1/2-z
1/2-x,1/2-y,1/2-z
1/2+x,y,1/2-z
1/2-x,1/2+y,1/2+z
1/2+x,-y,1/2+z
loop_
_atom_site_type_symbol
_atom_site_label
_atom_site_fract_x
_atom_site_fract_y
_atom_site_fract_z
Si Si1 0.725438 0.679898 0.044039
Si Si2 0.921143 0.567402 0.654037
Si Si3 0.750000 0.985694 0.250000
Si Si4 0.441531 0.422133 0.889363
Si Si5 0.338142 0.377975 0.766211
Si Si6 0.145621 0.676420 0.031313
Si Si7 0.808479 0.943960 0.583274
Si Si8 0.939126 0.174612 0.161353
O O1 0.709085 0.750000 0.006056
O O2 0.702687 0.669973 0.169795
O O3 0.789266 0.673935 0.022511
O O4 0.700766 0.621061 0.979127
O O5 0.939952 0.493957 0.661984
O O6 0.935580 0.579898 0.524012
O O7 0.856952 0.565463 0.667182
O O8 0.938975 0.623464 0.737096
O O9 0.698350 0.940605 0.248751
O O10 0.755713 0.030123 0.356948
O O11 0.500000 0.394941 0.861327
O O12 0.389463 0.387909 0.843059
O O13 0.361730 0.359516 0.647058
O O14 0.131778 0.750000 0.048982
O O15 0.107864 0.656826 0.927529
O O16 0.825985 0.000000 0.500000
O O17 0.930555 0.250000 0.193789
O O18 0.000000 0.171809 0.113226
#
# Coordination Sequence:
#
# PCOD9539773 Si02
#       8
#    16  16   8  16  16  16  16  16
#     4  11  22  38  61  92 126 159 200 254 309 369
#     4  11  19  40  62  86 117 155 200 246 305 359
#     4  12  22  36  62  90 124 162 200 244 298 376
#     4  11  22  37  62  92 119 154 201 251 307 363
#     4  12  20  40  63  92 122 158 201 253 312 360
#     4  10  22  39  62  87 116 160 204 244 301 363
#     4  12  21  39  61  91 126 159 201 250 309 372
#     4  10  23  42  61  83 117 161 206 247 297 366
#
# _framework density 19.063389999999998
#
# number of rings (size 3 to 8) (size 9 to 14) (size 15 to 20)
#    0.000    0.933    6.667    2.000    1.867    2.133 
#    0.000    1.000    0.000    3.600    0.000    0.000 
#    0.000    0.000    0.000    0.000    0.000    0.000 
#
# Total GULP energy -334129.764765 kJ/mol
# GULP energy per Si atom -5568.829413 kJ/mol
# Density = 1.902000 g / cm^3
# Si number density = 19.063390 Si / 1000 Ang^3
#
#
#
# Elastic Constant Matrix: (Units=GPa)
#
#
# Indices 1 2 3 4 5 6 
#
# 1 114.2715 36.4709 40.7108 0.0000 0.0000 0.0000
# 2 36.4709 96.2260 49.0954 0.0000 0.0000 0.0000
# 3 40.7108 49.0954 81.2999 0.0000 0.0000 0.0000
# 4 0.0000 0.0000 0.0000 11.7789 0.0000 0.0000
# 5 0.0000 0.0000 0.0000 0.0000 16.6079 0.0000
# 6 0.0000 0.0000 0.0000 0.0000 0.0000 9.9767
#
#
#
# Elastic Compliance Matrix: (Units=1/GPa)
#
#
# Indices 1 2 3 4 5 6 
#
# 1 0.010898 -0.001946 -0.004282 0.000000 0.000000 0.000000
# 2 -0.001946 0.015367 -0.008306 0.000000 0.000000 0.000000
# 3 -0.004282 -0.008306 0.019460 0.000000 0.000000 0.000000
# 4 0.000000 0.000000 0.000000 0.084897 0.000000 0.000000
# 5 0.000000 0.000000 0.000000 0.000000 0.060212 0.000000
# 6 0.000000 0.000000 0.000000 0.000000 0.000000 0.100234
#
#
# Mechanical properties :
#
#
# Convention : Reuss Voigt Hill
#
# Bulk Modulus (GPa) = 60.03071 60.48353 60.25712
# Shear Modulus (GPa) = 15.35215 18.70740 17.02977
#
# Velocity S-wave (km/s) = 2.84090 3.13601 2.99209
# Velocity P-wave (km/s) = 6.50533 6.70143 6.60411
#
# Compressibility (1/GPa) = 0.01665814
#
# Stress axis : x y z
#
# Youngs Moduli (GPa) = 91.76344 65.07341 51.38739
#
# Poissons Ratio (x) = 0.12661 0.22004
# Poissons Ratio (y) = 0.17853 0.42681
# Poissons Ratio (z) = 0.39294 0.54048
#
# Static dielectric constant tensor:
#      x y z
#    x 1.705470 0.000000 0.000000 
#    y 0.000000 1.679090 0.000000 
#    z 0.000000 0.000000 1.700600 
# 
# From -- ./inp_files/25459.got.cif
#   From: 2010.05.17/outbox.cif.g08.bks.cpg/sg74_13_cif.got.tgz:25459.got - 2010.06.03 17:57:02.
