data_PCOD9539411
_publ_section_title
;
Structure prediction by ZEFSAII (Michael W. Deem and Ramdas Pophale) SiO2 
 PCOD9539411
Probable space group: I M M A
;
_chemical_formula_sum "Si O2"
_cell_formula_units_Z 88
_cell_length_a 20.632652
_cell_length_b 15.738193
_cell_length_c 14.336687
_cell_angle_alpha 90.000000
_cell_angle_beta 90.000000
_cell_angle_gamma 90.000000
_cell_volume 4655.418454
_symmetry_space_group_name_H-M "I M M A"
_symmetry_group_IT_number 74
_symmetry_cell_setting 'orthorhombic'
loop_
_space_group_symop_operation_xyz
x,y,z
-x,1/2-y,z
x,-y,-z
-x,1/2+y,-z
-x,-y,-z
x,1/2+y,-z
-x,y,z
x,1/2-y,z
1/2+x,1/2+y,1/2+z
1/2-x,-y,1/2+z
1/2+x,1/2-y,1/2-z
1/2-x,y,1/2-z
1/2-x,1/2-y,1/2-z
1/2+x,y,1/2-z
1/2-x,1/2+y,1/2+z
1/2+x,-y,1/2+z
loop_
_atom_site_type_symbol
_atom_site_label
_atom_site_fract_x
_atom_site_fract_y
_atom_site_fract_z
Si Si1 0.000000 0.154711 0.880621
Si Si2 0.500000 0.917397 0.565315
Si Si3 0.322864 0.750000 0.208796
Si Si4 0.138295 0.091708 0.824860
Si Si5 0.129595 0.098036 0.182942
Si Si6 0.419136 0.750000 0.814629
Si Si7 0.725758 0.099742 0.489304
Si Si8 0.328511 0.250000 0.008913
O O1 0.936062 0.104457 0.852946
O O2 0.000000 0.250000 0.841363
O O3 0.000000 0.158812 0.992178
O O4 0.436876 0.913434 0.626960
O O5 0.500000 0.000000 0.500000
O O6 0.250000 0.750000 0.250000
O O7 0.349627 0.836644 0.250143
O O8 0.340656 0.750000 0.101021
O O9 0.149600 0.997105 0.785598
O O10 0.181959 0.111433 0.916888
O O11 0.112410 0.168504 0.260228
O O12 0.182156 0.117966 0.102437
O O13 0.500000 0.750000 0.811269
O O14 0.388581 0.750000 0.919006
O O15 0.784354 0.165406 0.479886
O O16 0.744680 0.000000 0.500000
#
# Coordination Sequence:
#
# PCOD9539411 Si02
#       8
#     8   8   8  16  16   8  16   8
#     4  12  22  30  58  99 142 162 197 255 333 405
#     4  12  18  32  60  98 139 175 198 261 326 398
#     4  12  24  43  70  91 118 167 219 285 347 387
#     4  11  21  39  63 104 133 164 206 271 343 402
#     4  11  22  39  66  97 137 173 214 256 329 410
#     4  12  29  48  65  86 132 199 238 267 313 390
#     4  10  21  38  69 104 136 162 200 269 346 406
#     4  12  27  48  64  87 132 165 234 282 317 390
#
# _framework density 18.902704
#
# number of rings (size 3 to 8) (size 9 to 14) (size 15 to 20)
#    0.000    0.727    7.273    1.091    1.273    2.909 
#    1.636    0.000    0.000    1.636    0.000    0.000 
#    0.000    0.000    0.000    0.000    0.000    0.000 
#
# Total GULP energy -245301.037155 kJ/mol
# GULP energy per Si atom -5575.023572 kJ/mol
# Density = 1.885968 g / cm^3
# Si number density = 18.902704 Si / 1000 Ang^3
#
#
#
# Elastic Constant Matrix: (Units=GPa)
#
#
# Indices 1 2 3 4 5 6 
#
# 1 60.4948 41.8842 40.0592 0.0000 0.0000 0.0000
# 2 41.8842 126.3739 78.2642 0.0000 0.0000 0.0000
# 3 40.0592 78.2642 127.6865 0.0000 0.0000 0.0000
# 4 0.0000 0.0000 0.0000 577.0881 0.0000 0.0000
# 5 0.0000 0.0000 0.0000 0.0000 -33.4542 0.0000
# 6 0.0000 0.0000 0.0000 0.0000 0.0000-4760.7156
#
#
#
# Elastic Compliance Matrix: (Units=1/GPa)
#
#
# Indices 1 2 3 4 5 6 
#
# 1 0.022678 -0.005013 -0.004042 0.000000 0.000000 0.000000
# 2 -0.005013 0.013863 -0.006924 0.000000 0.000000 0.000000
# 3 -0.004042 -0.006924 0.013344 0.000000 0.000000 0.000000
# 4 0.000000 0.000000 0.000000 0.001733 0.000000 0.000000
# 5 0.000000 0.000000 0.000000 0.000000 -0.029892 0.000000
# 6 0.000000 0.000000 0.000000 0.000000 0.000000 -0.000210
#
#
# Mechanical properties :
#
#
# Convention : Reuss Voigt Hill
#
# Bulk Modulus (GPa) = 55.78525 70.55225 63.16875
# Shear Modulus (GPa) = 84.10522 -833.12649 -374.51063
#
# Velocity S-wave (km/s) = 6.67760 -21.01669 -14.09097
# Velocity P-wave (km/s) = 9.43555 23.48468 15.20692
#
# Compressibility (1/GPa) = 0.01792589
#
# Stress axis : x y z
#
# Youngs Moduli (GPa) = 44.09629 72.13601 74.93977
#
# Poissons Ratio (x) = 0.36160 0.30292
# Poissons Ratio (y) = 0.22104 0.51891
# Poissons Ratio (z) = 0.17824 0.49950
#
# Static dielectric constant tensor:
#      x y z
#    x 1.687810 0.000000 0.000000 
#    y 0.000000 1.633380 0.000000 
#    z 0.000000 0.000000 1.733450 
# 
# From -- ./inp_files/23753.got.cif
#   From: 2010.05.17/outbox.cif.g08.bks.cpg/sg74_12_cif.got.tgz:23753.got - 2010.06.03 17:57:02.
