data_PCOD9539738
_publ_section_title
;
Structure prediction by ZEFSAII (Michael W. Deem and Ramdas Pophale) SiO2 
 PCOD9539738
Probable space group: I M M A
;
_chemical_formula_sum "Si O2"
_cell_formula_units_Z 52
_cell_length_a 16.869159
_cell_length_b 19.456993
_cell_length_c 7.267725
_cell_angle_alpha 90.000000
_cell_angle_beta 90.000000
_cell_angle_gamma 90.000000
_cell_volume 2385.435292
_symmetry_space_group_name_H-M "I M M A"
_symmetry_group_IT_number 74
_symmetry_cell_setting 'orthorhombic'
loop_
_space_group_symop_operation_xyz
x,y,z
-x,1/2-y,z
x,-y,-z
-x,1/2+y,-z
-x,-y,-z
x,1/2+y,-z
-x,y,z
x,1/2-y,z
1/2+x,1/2+y,1/2+z
1/2-x,-y,1/2+z
1/2+x,1/2-y,1/2-z
1/2-x,y,1/2-z
1/2-x,1/2-y,1/2-z
1/2+x,y,1/2-z
1/2-x,1/2+y,1/2+z
1/2+x,-y,1/2+z
loop_
_atom_site_type_symbol
_atom_site_label
_atom_site_fract_x
_atom_site_fract_y
_atom_site_fract_z
Si Si1 0.814107 0.614764 0.041564
Si Si2 0.908719 0.671098 0.707802
Si Si3 0.250000 0.750000 0.250000
Si Si4 0.863314 0.930063 0.414091
O O1 0.794242 0.689142 0.128941
O O2 0.865736 0.574848 0.194210
O O3 0.856507 0.627497 0.849367
O O4 0.729563 0.577214 0.030104
O O5 0.880253 0.750000 0.695596
O O6 0.902884 0.635648 0.509422
O O7 0.000000 0.671436 0.768677
O O8 0.895392 0.000000 0.500000
#
# Coordination Sequence:
#
# PCOD9539738 Si02
#       4
#    16  16   4  16
#     4  10  22  38  65  92 126 159 212 268 317 361
#     4  11  25  41  63  94 130 170 208 254 317 385
#     4   8  16  36  56  92 112 150 200 260 308 346
#     4  10  24  40  65  94 125 162 215 263 312 371
#
# _framework density 21.798956
#
# number of rings (size 3 to 8) (size 9 to 14) (size 15 to 20)
#    0.000    2.154    1.538    0.923   17.231    3.077 
#    0.000    4.615    0.000    0.000    0.000    0.000 
#    0.000    0.000    0.000    0.000    0.000    0.000 
#
# Total GULP energy -144791.490781 kJ/mol
# GULP energy per Si atom -5568.903492 kJ/mol
# Density = 2.174934 g / cm^3
# Si number density = 21.798956 Si / 1000 Ang^3
#
#
#
# Elastic Constant Matrix: (Units=GPa)
#
#
# Indices 1 2 3 4 5 6 
#
# 1 25.2961 -7.4236 12.7051 0.0000 0.0000 0.0000
# 2 -7.4236 90.0329 7.2569 0.0000 0.0000 0.0000
# 3 12.7051 7.2569 73.1549 0.0000 0.0000 0.0000
# 4 0.0000 0.0000 0.0000 21.6295 0.0000 0.0000
# 5 0.0000 0.0000 0.0000 0.0000 4.3518 0.0000
# 6 0.0000 0.0000 0.0000 0.0000 0.0000 74.6284
#
#
#
# Elastic Compliance Matrix: (Units=1/GPa)
#
#
# Indices 1 2 3 4 5 6 
#
# 1 0.044953 0.004371 -0.008241 0.000000 0.000000 0.000000
# 2 0.004371 0.011622 -0.001912 0.000000 0.000000 0.000000
# 3 -0.008241 -0.001912 0.015291 0.000000 0.000000 0.000000
# 4 0.000000 0.000000 0.000000 0.046233 0.000000 0.000000
# 5 0.000000 0.000000 0.000000 0.000000 0.229793 0.000000
# 6 0.000000 0.000000 0.000000 0.000000 0.000000 0.013400
#
#
# Mechanical properties :
#
#
# Convention : Reuss Voigt Hill
#
# Bulk Modulus (GPa) = 16.58330 23.72895 20.15613
# Shear Modulus (GPa) = 12.72409 31.85163 22.28786
#
# Velocity S-wave (km/s) = 2.41861 3.82665 3.20101
# Velocity P-wave (km/s) = 3.92727 5.51664 4.78836
#
# Compressibility (1/GPa) = 0.06030164
#
# Stress axis : x y z
#
# Youngs Moduli (GPa) = 22.24525 86.04700 65.40007
#
# Poissons Ratio (x) = -0.37610 0.53895
# Poissons Ratio (y) = -0.09723 0.12504
# Poissons Ratio (z) = 0.18332 0.16452
#
# Static dielectric constant tensor:
#      x y z
#    x 1.829150 0.000000 0.000000 
#    y 0.000000 1.771880 0.000000 
#    z 0.000000 0.000000 1.791830 
# 
# From -- ./inp_files/2750.got.cif
#   From: 2010.05.17/outbox.cif.g08.bks.cpg/sg74_2_cif.got.tgz:2750.got - 2010.06.03 17:57:02.
