data_PCOD9539188
_publ_section_title
;
Structure prediction by ZEFSAII (Michael W. Deem and Ramdas Pophale) SiO2 
 PCOD9539188
Probable space group: I M M A
;
_chemical_formula_sum "Si O2"
_cell_formula_units_Z 112
_cell_length_a 15.750591
_cell_length_b 14.590945
_cell_length_c 24.120737
_cell_angle_alpha 90.000000
_cell_angle_beta 90.000000
_cell_angle_gamma 90.000000
_cell_volume 5543.331463
_symmetry_space_group_name_H-M "I M M A"
_symmetry_group_IT_number 74
_symmetry_cell_setting 'orthorhombic'
loop_
_space_group_symop_operation_xyz
x,y,z
-x,1/2-y,z
x,-y,-z
-x,1/2+y,-z
-x,-y,-z
x,1/2+y,-z
-x,y,z
x,1/2-y,z
1/2+x,1/2+y,1/2+z
1/2-x,-y,1/2+z
1/2+x,1/2-y,1/2-z
1/2-x,y,1/2-z
1/2-x,1/2-y,1/2-z
1/2+x,y,1/2-z
1/2-x,1/2+y,1/2+z
1/2+x,-y,1/2+z
loop_
_atom_site_type_symbol
_atom_site_label
_atom_site_fract_x
_atom_site_fract_y
_atom_site_fract_z
Si Si1 0.097702 0.561796 0.887172
Si Si2 0.287022 0.349627 0.811670
Si Si3 0.403531 0.147425 0.064211
Si Si4 0.273255 0.894424 0.515265
Si Si5 0.638441 0.149758 0.597917
Si Si6 0.405037 0.978541 0.830841
Si Si7 0.151622 0.142193 0.231085
O O1 0.163785 0.605226 0.931539
O O2 0.096293 0.450741 0.895027
O O3 0.131212 0.590626 0.826396
O O4 0.000000 0.593788 0.894539
O O5 0.330778 0.250000 0.816936
O O6 0.250000 0.355585 0.750000
O O7 0.211681 0.351616 0.855906
O O8 0.343828 0.437075 0.822003
O O9 0.500000 0.131384 0.041398
O O10 0.405040 0.250000 0.088512
O O11 0.321344 0.143372 0.025194
O O12 0.386610 0.075066 0.112559
O O13 0.320389 0.851041 0.463055
O O14 0.260824 0.000000 0.500000
O O15 0.594825 0.250000 0.604606
O O16 0.500000 0.014378 0.833989
O O17 0.398043 0.907358 0.780413
O O18 0.131157 0.250000 0.225439
O O19 0.250000 0.134733 0.250000
#
# Coordination Sequence:
#
# PCOD9539188 Si02
#       7
#    16  16  16  16  16  16  16
#     4  11  24  40  59  88 125 161 200 249 301 355
#     4  10  21  39  61  83 110 146 190 240 294 350
#     4  10  21  37  59  89 123 158 198 246 301 360
#     4  10  21  38  60  84 118 160 203 251 302 358
#     4  10  21  38  62  87 113 154 203 247 295 353
#     4  11  21  34  56  85 117 150 185 231 288 351
#     4  11  23  39  61  86 114 152 196 242 294 352
#
# _framework density 20.204457000000001
#
# number of rings (size 3 to 8) (size 9 to 14) (size 15 to 20)
#    0.000    1.571    0.000    6.000    0.000    7.429 
#    0.000    0.714    0.000    5.143    0.000    0.000 
#    0.000    0.000    0.000    0.000    0.000    0.000 
#
# Total GULP energy -312534.902960 kJ/mol
# GULP energy per Si atom -5580.980410 kJ/mol
# Density = 2.015847 g / cm^3
# Si number density = 20.204457 Si / 1000 Ang^3
#
#
#
# Elastic Constant Matrix: (Units=GPa)
#
#
# Indices 1 2 3 4 5 6 
#
# 1 98.2308 50.0309 40.6181 0.0000 0.0000 0.0000
# 2 50.0309 101.1709 6.1248 0.0000 0.0000 0.0000
# 3 40.6181 6.1248 69.5525 0.0000 0.0000 0.0000
# 4 0.0000 0.0000 0.0000 27.6155 0.0000 0.0000
# 5 0.0000 0.0000 0.0000 0.0000 7.5100 0.0000
# 6 0.0000 0.0000 0.0000 0.0000 0.0000 39.2805
#
#
#
# Elastic Compliance Matrix: (Units=1/GPa)
#
#
# Indices 1 2 3 4 5 6 
#
# 1 0.018845 -0.008699 -0.010239 0.000000 0.000000 0.000000
# 2 -0.008699 0.013953 0.003852 0.000000 0.000000 0.000000
# 3 -0.010239 0.003852 0.020018 0.000000 0.000000 0.000000
# 4 0.000000 0.000000 0.000000 0.036212 0.000000 0.000000
# 5 0.000000 0.000000 0.000000 0.000000 0.133155 0.000000
# 6 0.000000 0.000000 0.000000 0.000000 0.000000 0.025458
#
#
# Mechanical properties :
#
#
# Convention : Reuss Voigt Hill
#
# Bulk Modulus (GPa) = 44.16525 51.38910 47.77718
# Shear Modulus (GPa) = 17.52168 26.35989 21.94079
#
# Velocity S-wave (km/s) = 2.94805 3.61592 3.29893
# Velocity P-wave (km/s) = 5.78745 6.55156 6.18133
#
# Compressibility (1/GPa) = 0.02264224
#
# Stress axis : x y z
#
# Youngs Moduli (GPa) = 53.06576 71.66928 49.95513
#
# Poissons Ratio (x) = 0.62346 0.51149
# Poissons Ratio (y) = 0.46163 -0.19240
# Poissons Ratio (z) = 0.54334 -0.27603
#
# Static dielectric constant tensor:
#      x y z
#    x 1.709600 0.000000 0.000000 
#    y 0.000000 1.730830 0.000000 
#    z 0.000000 0.000000 1.698890 
# 
# From -- ./inp_files/60136.got.cif
#   From: 2010.05.17/outbox.cif.g08.bks.cpg/sg74_31_cif.got.tgz:60136.got - 2010.06.03 17:57:02.
