data_PCOD9539731
_publ_section_title
;
Structure prediction by ZEFSAII (Michael W. Deem and Ramdas Pophale) SiO2 
 PCOD9539731
Probable space group: I M M A
;
_chemical_formula_sum "Si O2"
_cell_formula_units_Z 72
_cell_length_a 14.351693
_cell_length_b 24.277559
_cell_length_c 10.263009
_cell_angle_alpha 90.000000
_cell_angle_beta 90.000000
_cell_angle_gamma 90.000000
_cell_volume 3575.879403
_symmetry_space_group_name_H-M "I M M A"
_symmetry_group_IT_number 74
_symmetry_cell_setting 'orthorhombic'
loop_
_space_group_symop_operation_xyz
x,y,z
-x,1/2-y,z
x,-y,-z
-x,1/2+y,-z
-x,-y,-z
x,1/2+y,-z
-x,y,z
x,1/2-y,z
1/2+x,1/2+y,1/2+z
1/2-x,-y,1/2+z
1/2+x,1/2-y,1/2-z
1/2-x,y,1/2-z
1/2-x,1/2-y,1/2-z
1/2+x,y,1/2-z
1/2-x,1/2+y,1/2+z
1/2+x,-y,1/2+z
loop_
_atom_site_type_symbol
_atom_site_label
_atom_site_fract_x
_atom_site_fract_y
_atom_site_fract_z
Si Si1 0.328680 0.812100 0.859246
Si Si2 0.000000 0.996650 0.157894
Si Si3 0.289772 0.837923 0.388824
Si Si4 0.695828 0.534322 0.367937
Si Si5 0.500000 0.621477 0.758496
Si Si6 0.500000 0.814708 0.482549
O O1 0.367658 0.750000 0.842468
O O2 0.250000 0.820735 0.750000
O O3 0.409384 0.856750 0.835732
O O4 0.273054 0.814728 0.994650
O O5 0.000000 0.056427 0.225199
O O6 0.091756 0.963369 0.187282
O O7 0.000000 0.000000 0.000000
O O8 0.250000 0.818422 0.250000
O O9 0.273648 0.903765 0.393719
O O10 0.400630 0.826842 0.410853
O O11 0.700702 0.500000 0.500000
O O12 0.750000 0.506449 0.250000
O O13 0.500000 0.650614 0.616280
O O14 0.500000 0.750000 0.513293
#
# Coordination Sequence:
#
# PCOD9539731 Si02
#       6
#    16   8  16  16   8   8
#     4  11  24  41  66  97 129 171 226 276 334 404
#     4  10  22  38  61  94 123 169 212 262 319 393
#     4  11  25  43  66  96 135 175 222 278 336 405
#     4  10  22  39  64  90 124 165 214 261 320 386
#     4  12  24  39  68  99 138 169 224 282 337 393
#     4  12  22  39  66  90 125 174 218 263 334 397
#
# _framework density 20.134906999999998
#
# number of rings (size 3 to 8) (size 9 to 14) (size 15 to 20)
#    0.000    1.111    2.222    5.000    3.111    2.667 
#    0.000    1.667    0.000    0.000    0.000    0.000 
#    0.000    0.000    0.000    0.000    0.000    0.000 
#
# Total GULP energy -200951.479221 kJ/mol
# GULP energy per Si atom -5581.985534 kJ/mol
# Density = 2.008908 g / cm^3
# Si number density = 20.134907 Si / 1000 Ang^3
#
#
#
# Elastic Constant Matrix: (Units=GPa)
#
#
# Indices 1 2 3 4 5 6 
#
# 1 97.1417 -9.7243 56.8727 0.0000 0.0000 0.0000
# 2 -9.7243 82.2591 11.6874 0.0003 0.0001 0.0001
# 3 56.8727 11.6874 121.5349 0.0015 0.0001 0.0002
# 4 0.0000 0.0003 0.0015 5.4246 0.0000 0.0003
# 5 0.0000 0.0001 0.0001 0.0000 30.8340 0.0000
# 6 0.0000 0.0001 0.0002 0.0003 0.0000 35.5890
#
#
#
# Elastic Compliance Matrix: (Units=1/GPa)
#
#
# Indices 1 2 3 4 5 6 
#
# 1 0.014775 0.002767 -0.007180 0.000002 0.000000 0.000000
# 2 0.002767 0.012843 -0.002530 0.000000 0.000000 0.000000
# 3 -0.007180 -0.002530 0.011831 -0.000003 0.000000 0.000000
# 4 0.000002 0.000000 -0.000003 0.184346 0.000000 -0.000001
# 5 0.000000 0.000000 0.000000 0.000000 0.032432 0.000000
# 6 0.000000 0.000000 0.000000 -0.000001 0.000000 0.028099
#
#
# Mechanical properties :
#
#
# Convention : Reuss Voigt Hill
#
# Bulk Modulus (GPa) = 39.11865 46.51193 42.81529
# Shear Modulus (GPa) = 16.30085 30.50950 23.40518
#
# Velocity S-wave (km/s) = 2.84840 3.89685 3.41312
# Velocity P-wave (km/s) = 5.50348 6.58768 6.06984
#
# Compressibility (1/GPa) = 0.02556325
#
# Stress axis : x y z
#
# Youngs Moduli (GPa) = 67.68271 77.86210 84.52172
#
# Poissons Ratio (x) = -0.21543 0.60687
# Poissons Ratio (y) = -0.18726 0.21382
# Poissons Ratio (z) = 0.48596 0.19697
#
# Static dielectric constant tensor:
#      x y z
#    x 1.691510 0.000000 0.000000 
#    y 0.000000 1.705320 0.000000 
#    z 0.000000 0.000000 1.709210 
# 
# From -- ./inp_files/9213.got.cif
#   From: 2010.05.17/outbox.cif.g08.bks.cpg/sg74_5_cif.got.tgz:9213.got - 2010.06.03 17:57:02.
