data_PCOD9539636
_publ_section_title
;
Structure prediction by ZEFSAII (Michael W. Deem and Ramdas Pophale) SiO2 
 PCOD9539636
Probable space group: I M M A
;
_chemical_formula_sum "Si O2"
_cell_formula_units_Z 88
_cell_length_a 14.617769
_cell_length_b 11.166136
_cell_length_c 30.724217
_cell_angle_alpha 90.000000
_cell_angle_beta 90.000000
_cell_angle_gamma 90.000000
_cell_volume 5014.929493
_symmetry_space_group_name_H-M "I M M A"
_symmetry_group_IT_number 74
_symmetry_cell_setting 'orthorhombic'
loop_
_space_group_symop_operation_xyz
x,y,z
-x,1/2-y,z
x,-y,-z
-x,1/2+y,-z
-x,-y,-z
x,1/2+y,-z
-x,y,z
x,1/2-y,z
1/2+x,1/2+y,1/2+z
1/2-x,-y,1/2+z
1/2+x,1/2-y,1/2-z
1/2-x,y,1/2-z
1/2-x,1/2-y,1/2-z
1/2+x,y,1/2-z
1/2-x,1/2+y,1/2+z
1/2+x,-y,1/2+z
loop_
_atom_site_type_symbol
_atom_site_label
_atom_site_fract_x
_atom_site_fract_y
_atom_site_fract_z
Si Si1 0.107904 0.250000 0.415998
Si Si2 0.801784 0.605412 0.126532
Si Si3 0.312626 0.493547 0.792005
Si Si4 0.500000 0.391228 0.760536
Si Si5 0.000000 0.610817 0.465039
Si Si6 0.184783 0.501666 0.448518
Si Si7 0.500000 0.604722 0.338884
Si Si8 0.608788 0.750000 0.811541
O O1 0.154741 0.368538 0.434766
O O2 0.114068 0.250000 0.363907
O O3 0.000000 0.250000 0.426394
O O4 0.795545 0.750000 0.126094
O O5 0.739042 0.553329 0.165320
O O6 0.765134 0.551085 0.081547
O O7 0.906346 0.570243 0.137286
O O8 0.250000 0.469723 0.750000
O O9 0.409310 0.429328 0.785411
O O10 0.339345 0.632586 0.795245
O O11 0.500000 0.250000 0.756358
O O12 0.500000 0.441026 0.710995
O O13 0.000000 0.500000 0.500000
O O14 0.904965 0.585166 0.440699
O O15 0.000000 0.750000 0.479418
O O16 0.205745 0.500000 0.500000
O O17 0.500000 0.750000 0.337316
O O18 0.500000 0.750000 0.799683
#
# Coordination Sequence:
#
# PCOD9539636 Si02
#       8
#     8  16  16   8   8  16   8   8
#     4  11  22  39  59  85 121 172 198 236 304 362
#     4  11  23  40  62  92 119 154 199 252 306 360
#     4  12  23  39  62  88 123 159 199 248 293 359
#     4  11  22  36  60  94 122 156 192 241 302 354
#     4  10  22  35  56  89 127 161 197 248 303 370
#     4  11  24  37  62  87 124 159 205 252 300 364
#     4   9  20  40  63  83 118 156 195 243 304 366
#     4  11  23  41  57  83 124 164 204 237 291 354
#
# _framework density 17.547604
#
# number of rings (size 3 to 8) (size 9 to 14) (size 15 to 20)
#    0.000    1.091    5.455    1.364    6.364    1.455 
#    0.000    2.273    0.000    1.636    0.000    0.000 
#    0.000    0.000    0.000    0.000    0.000    0.000 
#
# Total GULP energy -245700.966263 kJ/mol
# GULP energy per Si atom -5584.112870 kJ/mol
# Density = 1.750766 g / cm^3
# Si number density = 17.547604 Si / 1000 Ang^3
#
#
#
# Elastic Constant Matrix: (Units=GPa)
#
#
# Indices 1 2 3 4 5 6 
#
# 1 153.3088 35.4492 59.8632 0.0000 0.0000 0.0000
# 2 35.4492 95.4192 8.5732 0.0000 0.0000 0.0000
# 3 59.8632 8.5732 82.7222 0.0000 0.0000 0.0000
# 4 0.0000 0.0000 0.0000 4.1261 0.0000 0.0000
# 5 0.0000 0.0000 0.0000 0.0000 26.3307 0.0000
# 6 0.0000 0.0000 0.0000 0.0000 0.0000 31.0975
#
#
#
# Elastic Compliance Matrix: (Units=1/GPa)
#
#
# Indices 1 2 3 4 5 6 
#
# 1 0.009907 -0.003065 -0.006852 0.000000 0.000000 0.000000
# 2 -0.003065 0.011527 0.001023 0.000000 0.000000 0.000000
# 3 -0.006852 0.001023 0.016941 0.000000 0.000000 0.000000
# 4 0.000000 0.000000 0.000000 0.242357 0.000000 0.000000
# 5 0.000000 0.000000 0.000000 0.000000 0.037978 0.000000
# 6 0.000000 0.000000 0.000000 0.000000 0.000000 0.032157
#
#
# Mechanical properties :
#
#
# Convention : Reuss Voigt Hill
#
# Bulk Modulus (GPa) = 48.57160 59.91351 54.24255
# Shear Modulus (GPa) = 13.31501 27.48185 20.39843
#
# Velocity S-wave (km/s) = 2.75761 3.96173 3.41319
# Velocity P-wave (km/s) = 6.15461 7.42594 6.81996
#
# Compressibility (1/GPa) = 0.02058816
#
# Stress axis : x y z
#
# Youngs Moduli (GPa) = 100.94023 86.75462 59.02888
#
# Poissons Ratio (x) = 0.26589 0.40444
# Poissons Ratio (y) = 0.30937 -0.06041
# Poissons Ratio (z) = 0.69160 -0.08878
#
# Static dielectric constant tensor:
#      x y z
#    x 1.592740 0.000000 0.000000 
#    y 0.000000 1.599140 0.000000 
#    z 0.000000 0.000000 1.603030 
# 
# From -- ./inp_files/72431.got.cif
#   From: 2010.05.17/outbox.cif.g08.bks.cpg/sg74_37_cif.got.tgz:72431.got - 2010.06.03 17:57:02.
