data_PCOD9539895
_publ_section_title
;
Structure prediction by ZEFSAII (Michael W. Deem and Ramdas Pophale) SiO2 
 PCOD9539895
Probable space group: I M M A
;
_chemical_formula_sum "Si O2"
_cell_formula_units_Z 56
_cell_length_a 8.382978
_cell_length_b 12.178630
_cell_length_c 22.814296
_cell_angle_alpha 90.000000
_cell_angle_beta 90.000000
_cell_angle_gamma 90.000000
_cell_volume 2329.184196
_symmetry_space_group_name_H-M "I M M A"
_symmetry_group_IT_number 74
_symmetry_cell_setting 'orthorhombic'
loop_
_space_group_symop_operation_xyz
x,y,z
-x,1/2-y,z
x,-y,-z
-x,1/2+y,-z
-x,-y,-z
x,1/2+y,-z
-x,y,z
x,1/2-y,z
1/2+x,1/2+y,1/2+z
1/2-x,-y,1/2+z
1/2+x,1/2-y,1/2-z
1/2-x,y,1/2-z
1/2-x,1/2-y,1/2-z
1/2+x,y,1/2-z
1/2-x,1/2+y,1/2+z
1/2+x,-y,1/2+z
loop_
_atom_site_type_symbol
_atom_site_label
_atom_site_fract_x
_atom_site_fract_y
_atom_site_fract_z
Si Si1 0.820312 0.874181 0.451256
Si Si2 0.500000 0.873343 0.529220
Si Si3 0.831957 0.530619 0.660477
Si Si4 0.000000 0.950842 0.845297
Si Si5 0.000000 0.379902 0.746843
O O1 0.811344 0.750000 0.425869
O O2 0.665436 0.882848 0.492966
O O3 0.816705 0.965388 0.400806
O O4 0.000000 0.881063 0.479056
O O5 0.500000 0.750000 0.554006
O O6 0.500000 0.952079 0.584798
O O7 0.671307 0.597026 0.672181
O O8 0.859570 0.433536 0.707429
O O9 0.000000 0.593630 0.660670
O O10 0.000000 0.067663 0.811651
O O11 0.000000 0.250000 0.747469
#
# Coordination Sequence:
#
# PCOD9539895 Si02
#       5
#    16   8  16   8   8
#     4   9  17  34  58  86 119 152 196 247 297 356
#     4  10  23  39  59  86 118 160 206 250 295 343
#     4   9  21  35  58  90 119 156 190 240 297 363
#     4  12  23  38  57  85 125 165 200 239 289 353
#     4  10  22  41  62  90 127 160 192 237 296 365
#
# _framework density 24.042753999999999
#
# number of rings (size 3 to 8) (size 9 to 14) (size 15 to 20)
#    0.857    1.429    0.000    2.571    0.000    6.857 
#    0.000    2.857    0.000    3.429    0.000    0.000 
#    0.000    0.000    0.000    0.000    0.000    0.000 
#
# Total GULP energy -155939.920936 kJ/mol
# GULP energy per Si atom -5569.282891 kJ/mol
# Density = 2.398803 g / cm^3
# Si number density = 24.042754 Si / 1000 Ang^3
#
#
#
# Elastic Constant Matrix: (Units=GPa)
#
#
# Indices 1 2 3 4 5 6 
#
# 1 283.1336 9.5311 58.2174 0.0000 0.0000 0.0000
# 2 9.5311 39.6888 11.6913 0.0000 0.0000 0.0000
# 3 58.2174 11.6913 106.3363 0.0000 0.0000 0.0000
# 4 0.0000 0.0000 0.0000 6.6869 0.0000 0.0000
# 5 0.0000 0.0000 0.0000 0.0000 -1.3812 0.0000
# 6 0.0000 0.0000 0.0000 0.0000 0.0000 -16.2654
#
#
#
# Elastic Compliance Matrix: (Units=1/GPa)
#
#
# Indices 1 2 3 4 5 6 
#
# 1 0.003984 -0.000325 -0.002145 0.000000 0.000000 0.000000
# 2 -0.000325 0.026066 -0.002688 0.000000 0.000000 0.000000
# 3 -0.002145 -0.002688 0.010874 0.000000 0.000000 0.000000
# 4 0.000000 0.000000 0.000000 0.149545 0.000000 0.000000
# 5 0.000000 0.000000 0.000000 0.000000 -0.723999 0.000000
# 6 0.000000 0.000000 0.000000 0.000000 0.000000 -0.061480
#
#
# Mechanical properties :
#
#
# Convention : Reuss Voigt Hill
#
# Bulk Modulus (GPa) = 32.67166 65.33758 49.00462
# Shear Modulus (GPa) = -8.70336 21.12268 6.20966
#
# Velocity S-wave (km/s) = -1.90468 2.96724 1.60884
# Velocity P-wave (km/s) = 2.96334 6.24291 4.88648
#
# Compressibility (1/GPa) = 0.03060756
#
# Stress axis : x y z
#
# Youngs Moduli (GPa) = 251.00542 38.36444 91.96019
#
# Poissons Ratio (x) = 0.01246 0.19730
# Poissons Ratio (y) = 0.08151 0.24719
# Poissons Ratio (z) = 0.53852 0.10313
#
# Static dielectric constant tensor:
#      x y z
#    x 2.095930 0.000000 0.000000 
#    y 0.000000 1.882960 0.000000 
#    z 0.000000 0.000000 1.919720 
# 
# From -- ./inp_files/47852.got.cif
#   From: 2010.05.17/outbox.cif.g08.bks.cpg/sg74_24_cif.got.tgz:47852.got - 2010.06.03 17:57:02.
