data_PCOD9539283
_publ_section_title
;
Structure prediction by ZEFSAII (Michael W. Deem and Ramdas Pophale) SiO2 
 PCOD9539283
Probable space group: I M M A
;
_chemical_formula_sum "Si O2"
_cell_formula_units_Z 100
_cell_length_a 7.706011
_cell_length_b 21.955653
_cell_length_c 26.420790
_cell_angle_alpha 90.000000
_cell_angle_beta 90.000000
_cell_angle_gamma 90.000000
_cell_volume 4470.146764
_symmetry_space_group_name_H-M "I M M A"
_symmetry_group_IT_number 74
_symmetry_cell_setting 'orthorhombic'
loop_
_space_group_symop_operation_xyz
x,y,z
-x,1/2-y,z
x,-y,-z
-x,1/2+y,-z
-x,-y,-z
x,1/2+y,-z
-x,y,z
x,1/2-y,z
1/2+x,1/2+y,1/2+z
1/2-x,-y,1/2+z
1/2+x,1/2-y,1/2-z
1/2-x,y,1/2-z
1/2-x,1/2-y,1/2-z
1/2+x,y,1/2-z
1/2-x,1/2+y,1/2+z
1/2+x,-y,1/2+z
loop_
_atom_site_type_symbol
_atom_site_label
_atom_site_fract_x
_atom_site_fract_y
_atom_site_fract_z
Si Si1 0.292315 0.024134 0.805865
Si Si2 0.500000 0.250000 0.787915
Si Si3 0.208092 0.317587 0.942322
Si Si4 0.792936 0.680198 0.807162
Si Si5 0.798625 0.577012 0.616043
Si Si6 0.699812 0.932151 0.504151
Si Si7 0.302958 0.661820 0.322490
O O1 0.500000 0.029964 0.810025
O O2 0.250000 0.999498 0.750000
O O3 0.209748 0.090425 0.811334
O O4 0.231341 0.979120 0.850085
O O5 0.652376 0.197595 0.794701
O O6 0.276850 0.250000 0.955666
O O7 0.228771 0.327294 0.882354
O O8 0.000000 0.315732 0.951958
O O9 0.278526 0.376187 0.972329
O O10 0.731636 0.750000 0.812490
O O11 0.750000 0.660371 0.750000
O O12 0.714537 0.635859 0.848554
O O13 0.000000 0.679257 0.813086
O O14 0.703363 0.584508 0.563128
O O15 0.000000 0.565338 0.604097
O O16 0.500000 0.938063 0.485962
O O17 0.778554 0.000000 0.500000
O O18 0.500000 0.683145 0.311002
#
# Coordination Sequence:
#
# PCOD9539283 Si02
#       7
#    16   4  16  16  16  16  16
#     4  11  24  42  64  91 124 162 211 265 316 377
#     4  12  22  40  66  98 132 168 214 260 304 396
#     4   9  18  35  60  87 118 160 208 250 306 375
#     4  10  21  38  62  90 122 162 205 254 309 372
#     4  11  24  40  60  91 127 164 207 258 313 372
#     4  10  21  38  59  86 119 160 207 254 308 370
#     4  11  22  41  68  94 130 170 212 262 317 371
#
# _framework density 22.370629999999998
#
# number of rings (size 3 to 8) (size 9 to 14) (size 15 to 20)
#    0.000    1.600    1.600    3.120    0.000    7.040 
#    1.440    2.000    0.000    0.000    0.000    0.000 
#    0.000    0.000    0.000    0.000    0.000    0.000 
#
# Total GULP energy -279231.204251 kJ/mol
# GULP energy per Si atom -5584.624085 kJ/mol
# Density = 2.231971 g / cm^3
# Si number density = 22.370630 Si / 1000 Ang^3
#
#
#
# Elastic Constant Matrix: (Units=GPa)
#
#
# Indices 1 2 3 4 5 6 
#
# 1 95.7661 23.9193 20.7624 0.0000 0.0000 0.0000
# 2 23.9193 142.1931 61.1102 0.0000 0.0000 0.0000
# 3 20.7624 61.1102 101.9925 0.0000 0.0000 0.0000
# 4 0.0000 0.0000 0.0000 58.8299 0.0000 0.0000
# 5 0.0000 0.0000 0.0000 0.0000 21.2716 0.0000
# 6 0.0000 0.0000 0.0000 0.0000 0.0000 7.9935
#
#
#
# Elastic Compliance Matrix: (Units=1/GPa)
#
#
# Indices 1 2 3 4 5 6 
#
# 1 0.011075 -0.001204 -0.001533 0.000000 0.000000 0.000000
# 2 -0.001204 0.009603 -0.005508 0.000000 0.000000 0.000000
# 3 -0.001533 -0.005508 0.013417 0.000000 0.000000 0.000000
# 4 0.000000 0.000000 0.000000 0.016998 0.000000 0.000000
# 5 0.000000 0.000000 0.000000 0.000000 0.047011 0.000000
# 6 0.000000 0.000000 0.000000 0.000000 0.000000 0.125102
#
#
# Mechanical properties :
#
#
# Convention : Reuss Voigt Hill
#
# Bulk Modulus (GPa) = 56.80617 61.28172 59.04394
# Shear Modulus (GPa) = 20.36118 33.22965 26.79541
#
# Velocity S-wave (km/s) = 3.02018 3.85829 3.46467
# Velocity P-wave (km/s) = 6.13273 6.87763 6.51583
#
# Compressibility (1/GPa) = 0.01760372
#
# Stress axis : x y z
#
# Youngs Moduli (GPa) = 90.29144 104.13867 74.53153
#
# Poissons Ratio (x) = 0.12540 0.11426
# Poissons Ratio (y) = 0.10873 0.41055
# Poissons Ratio (z) = 0.13842 0.57364
#
# Static dielectric constant tensor:
#      x y z
#    x 1.822650 0.000000 0.000000 
#    y 0.000000 1.830080 0.000000 
#    z 0.000000 0.000000 1.802340 
# 
# From -- ./inp_files/64522.got.cif
#   From: 2010.05.17/outbox.cif.g08.bks.cpg/sg74_33_cif.got.tgz:64522.got - 2010.06.03 17:57:02.
