data_PCOD9539909
_publ_section_title
;
Structure prediction by ZEFSAII (Michael W. Deem and Ramdas Pophale) SiO2 
 PCOD9539909
Probable space group: I M M A
;
_chemical_formula_sum "Si O2"
_cell_formula_units_Z 112
_cell_length_a 15.783577
_cell_length_b 29.213576
_cell_length_c 11.277162
_cell_angle_alpha 90.000000
_cell_angle_beta 90.000000
_cell_angle_gamma 90.000000
_cell_volume 5199.839925
_symmetry_space_group_name_H-M "I M M A"
_symmetry_group_IT_number 74
_symmetry_cell_setting 'orthorhombic'
loop_
_space_group_symop_operation_xyz
x,y,z
-x,1/2-y,z
x,-y,-z
-x,1/2+y,-z
-x,-y,-z
x,1/2+y,-z
-x,y,z
x,1/2-y,z
1/2+x,1/2+y,1/2+z
1/2-x,-y,1/2+z
1/2+x,1/2-y,1/2-z
1/2-x,y,1/2-z
1/2-x,1/2-y,1/2-z
1/2+x,y,1/2-z
1/2-x,1/2+y,1/2+z
1/2+x,-y,1/2+z
loop_
_atom_site_type_symbol
_atom_site_label
_atom_site_fract_x
_atom_site_fract_y
_atom_site_fract_z
Si Si1 0.853687 0.450781 0.533380
Si Si2 0.095604 0.619411 0.791831
Si Si3 0.601387 0.941272 0.305181
Si Si4 0.236005 0.303258 0.617693
Si Si5 0.097268 0.852732 0.544816
Si Si6 0.094786 0.845843 0.055380
Si Si7 0.804323 0.970451 0.864985
O O1 0.893297 0.500000 0.500000
O O2 0.856343 0.442283 0.674490
O O3 0.899186 0.406970 0.479978
O O4 0.761617 0.454881 0.468123
O O5 0.126816 0.649929 0.681935
O O6 0.146102 0.573803 0.820304
O O7 0.000000 0.606349 0.757790
O O8 0.091813 0.644825 0.915939
O O9 0.500000 0.944904 0.288468
O O10 0.616106 0.893797 0.376383
O O11 0.634057 0.985686 0.377245
O O12 0.212317 0.250000 0.623675
O O13 0.250000 0.322015 0.750000
O O14 0.164569 0.329410 0.542785
O O15 0.330196 0.310067 0.568622
O O16 0.000000 0.836236 0.529557
O O17 0.000000 0.832097 0.096215
O O18 0.750000 0.983576 0.750000
#
# Coordination Sequence:
#
# PCOD9539909 Si02
#       7
#    16  16  16  16  16  16  16
#     4  12  24  38  60  95 131 179 235 288 344 414
#     4  10  22  41  64  93 134 179 227 277 338 418
#     4  11  25  42  61  90 132 183 237 294 356 424
#     4  11  26  46  72 104 135 173 226 288 355 426
#     4  11  24  44  70  99 136 182 228 285 347 412
#     4  10  24  44  69  97 132 176 223 281 352 425
#     4  12  23  36  56  92 130 183 231 289 347 404
#
# _framework density 21.539124000000001
#
# number of rings (size 3 to 8) (size 9 to 14) (size 15 to 20)
#    0.000    1.000    2.857    2.571    4.000    5.143 
#    0.000    5.000    0.000    2.571    0.000    0.000 
#    0.000    0.000    0.000    0.000    0.000    0.000 
#
# Total GULP energy -312672.609732 kJ/mol
# GULP energy per Si atom -5583.439460 kJ/mol
# Density = 2.149010 g / cm^3
# Si number density = 21.539124 Si / 1000 Ang^3
#
#
#
# Elastic Constant Matrix: (Units=GPa)
#
#
# Indices 1 2 3 4 5 6 
#
# 1 87.4674 26.3982 46.1728 -0.0002 0.0003 0.0000
# 2 26.3982 35.0523 23.5402 -0.0006 0.0005 0.0000
# 3 46.1728 23.5402 161.4178 -0.0016 0.0018 -0.0003
# 4 -0.0002 -0.0006 -0.0016 35.6491 0.0007 0.0000
# 5 0.0003 0.0005 0.0018 0.0007 44.7235 0.0001
# 6 0.0000 0.0000 -0.0003 0.0000 0.0001 5.8449
#
#
#
# Elastic Compliance Matrix: (Units=1/GPa)
#
#
# Indices 1 2 3 4 5 6 
#
# 1 0.016121 -0.010026 -0.003149 0.000000 0.000000 0.000000
# 2 -0.010026 0.037862 -0.002654 0.000000 0.000000 0.000000
# 3 -0.003149 -0.002654 0.007483 0.000000 0.000000 0.000000
# 4 0.000000 0.000000 0.000000 0.028051 0.000000 0.000000
# 5 0.000000 0.000000 0.000000 0.000000 0.022360 0.000000
# 6 0.000000 0.000000 0.000000 0.000000 0.000000 0.171090
#
#
# Mechanical properties :
#
#
# Convention : Reuss Voigt Hill
#
# Bulk Modulus (GPa) = 33.54817 52.90666 43.22741
# Shear Modulus (GPa) = 15.40545 29.76526 22.58536
#
# Velocity S-wave (km/s) = 2.67728 3.72145 3.24168
# Velocity P-wave (km/s) = 5.01661 6.56368 5.84159
#
# Compressibility (1/GPa) = 0.02980789
#
# Stress axis : x y z
#
# Youngs Moduli (GPa) = 62.03013 26.41200 133.63762
#
# Poissons Ratio (x) = 0.26481 0.42086
# Poissons Ratio (y) = 0.62192 0.35462
# Poissons Ratio (z) = 0.19535 0.07009
#
# Static dielectric constant tensor:
#      x y z
#    x 1.850600 0.000000 0.000000 
#    y 0.000000 1.791880 0.000000 
#    z 0.000000 0.000000 1.908450 
# 
# From -- ./inp_files/21155.got.cif
#   From: 2010.05.17/outbox.cif.g08.bks.cpg/sg74_11_cif.got.tgz:21155.got - 2010.06.03 17:57:02.
