data_PCOD9539559
_publ_section_title
;
Structure prediction by ZEFSAII (Michael W. Deem and Ramdas Pophale) SiO2 
 PCOD9539559
Probable space group: I M M A
;
_chemical_formula_sum "Si O2"
_cell_formula_units_Z 80
_cell_length_a 30.223113
_cell_length_b 18.238055
_cell_length_c 7.013296
_cell_angle_alpha 90.000000
_cell_angle_beta 90.000000
_cell_angle_gamma 90.000000
_cell_volume 3865.804479
_symmetry_space_group_name_H-M "I M M A"
_symmetry_group_IT_number 74
_symmetry_cell_setting 'orthorhombic'
loop_
_space_group_symop_operation_xyz
x,y,z
-x,1/2-y,z
x,-y,-z
-x,1/2+y,-z
-x,-y,-z
x,1/2+y,-z
-x,y,z
x,1/2-y,z
1/2+x,1/2+y,1/2+z
1/2-x,-y,1/2+z
1/2+x,1/2-y,1/2-z
1/2-x,y,1/2-z
1/2-x,1/2-y,1/2-z
1/2+x,y,1/2-z
1/2-x,1/2+y,1/2+z
1/2+x,-y,1/2+z
loop_
_atom_site_type_symbol
_atom_site_label
_atom_site_fract_x
_atom_site_fract_y
_atom_site_fract_z
Si Si1 0.694944 0.163729 0.067593
Si Si2 0.376571 0.916761 0.439990
Si Si3 0.949661 0.423607 0.612459
Si Si4 0.711537 0.663561 0.474932
Si Si5 0.601516 0.337392 0.169272
O O1 0.693994 0.250000 0.020029
O O2 0.703530 0.159369 0.295711
O O3 0.738014 0.134394 0.957294
O O4 0.645264 0.134891 0.053405
O O5 0.414134 0.917201 0.280029
O O6 0.330101 0.877922 0.385480
O O7 0.366614 0.000000 0.500000
O O8 0.395800 0.874281 0.624379
O O9 0.939826 0.361478 0.455635
O O10 0.000000 0.420134 0.683568
O O11 0.710054 0.750000 0.425079
O O12 0.604621 0.250000 0.190170
O O13 0.556406 0.500000 0.000000
#
# Coordination Sequence:
#
# PCOD9539559 Si02
#       5
#    16  16  16  16  16
#     4   7  12  27  54  84 118 159 194 229 289 357
#     4  11  21  37  63  92 122 159 207 253 310 374
#     4  11  25  44  63  85 119 165 209 259 328 392
#     4   8  14  28  54  87 120 156 196 236 287 357
#     4  10  21  40  66  94 124 162 207 258 308 371
#
# _framework density 20.694269999999999
#
# number of rings (size 3 to 8) (size 9 to 14) (size 15 to 20)
#    0.000    2.600    2.000    3.000    0.000    3.200 
#    0.000    2.000    4.400    3.600    0.000    0.000 
#    0.000    0.000    0.000    0.000    0.000    0.000 
#
# Total GULP energy -223160.379602 kJ/mol
# GULP energy per Si atom -5579.009490 kJ/mol
# Density = 2.064717 g / cm^3
# Si number density = 20.694270 Si / 1000 Ang^3
#
#
#
# Elastic Constant Matrix: (Units=GPa)
#
#
# Indices 1 2 3 4 5 6 
#
# 1 166.5035 44.0843 65.9662 0.0000 0.0000 0.0000
# 2 44.0843 83.1442 28.4439 0.0000 0.0000 0.0000
# 3 65.9662 28.4439 92.0743 0.0000 0.0000 0.0000
# 4 0.0000 0.0000 0.0000 13.3457 0.0000 0.0000
# 5 0.0000 0.0000 0.0000 0.0000 36.4449 0.0000
# 6 0.0000 0.0000 0.0000 0.0000 0.0000 39.2659
#
#
#
# Elastic Compliance Matrix: (Units=1/GPa)
#
#
# Indices 1 2 3 4 5 6 
#
# 1 0.008954 -0.002855 -0.005533 0.000000 0.000000 0.000000
# 2 -0.002855 0.014359 -0.002391 0.000000 0.000000 0.000000
# 3 -0.005533 -0.002391 0.015563 0.000000 0.000000 0.000000
# 4 0.000000 0.000000 0.000000 0.074930 0.000000 0.000000
# 5 0.000000 0.000000 0.000000 0.000000 0.027439 0.000000
# 6 0.000000 0.000000 0.000000 0.000000 0.000000 0.025467
#
#
# Mechanical properties :
#
#
# Convention : Reuss Voigt Hill
#
# Bulk Modulus (GPa) = 57.73851 68.74566 63.24209
# Shear Modulus (GPa) = 25.76765 31.35982 28.56373
#
# Velocity S-wave (km/s) = 3.53251 3.89702 3.71923
# Velocity P-wave (km/s) = 6.67828 7.31716 7.00501
#
# Compressibility (1/GPa) = 0.01731946
#
# Stress axis : x y z
#
# Youngs Moduli (GPa) = 111.68476 69.64440 64.25319
#
# Poissons Ratio (x) = 0.19880 0.35552
# Poissons Ratio (y) = 0.31881 0.15360
# Poissons Ratio (z) = 0.61796 0.16649
#
# Static dielectric constant tensor:
#      x y z
#    x 1.772580 0.000000 0.000000 
#    y 0.000000 1.707980 0.000000 
#    z 0.000000 0.000000 1.786500 
# 
# From -- ./inp_files/26095.got.cif
#   From: 2010.05.17/outbox.cif.g08.bks.cpg/sg74_14_cif.got.tgz:26095.got - 2010.06.03 17:57:02.
