data_PCOD9539588
_publ_section_title
;
Structure prediction by ZEFSAII (Michael W. Deem and Ramdas Pophale) SiO2 
 PCOD9539588
Probable space group: I M M A
;
_chemical_formula_sum "Si O2"
_cell_formula_units_Z 68
_cell_length_a 21.933527
_cell_length_b 9.563912
_cell_length_c 17.010896
_cell_angle_alpha 90.000000
_cell_angle_beta 90.000000
_cell_angle_gamma 90.000000
_cell_volume 3568.381133
_symmetry_space_group_name_H-M "I M M A"
_symmetry_group_IT_number 74
_symmetry_cell_setting 'orthorhombic'
loop_
_space_group_symop_operation_xyz
x,y,z
-x,1/2-y,z
x,-y,-z
-x,1/2+y,-z
-x,-y,-z
x,1/2+y,-z
-x,y,z
x,1/2-y,z
1/2+x,1/2+y,1/2+z
1/2-x,-y,1/2+z
1/2+x,1/2-y,1/2-z
1/2-x,y,1/2-z
1/2-x,1/2-y,1/2-z
1/2+x,y,1/2-z
1/2-x,1/2+y,1/2+z
1/2+x,-y,1/2+z
loop_
_atom_site_type_symbol
_atom_site_label
_atom_site_fract_x
_atom_site_fract_y
_atom_site_fract_z
Si Si1 0.601653 0.586224 0.370730
Si Si2 0.570133 0.908475 0.188824
Si Si3 0.500000 0.500000 0.500000
Si Si4 0.151978 0.587825 0.578019
Si Si5 0.277826 0.413584 0.334809
O O1 0.611890 0.750000 0.389842
O O2 0.574539 0.579208 0.282727
O O3 0.553680 0.526325 0.432880
O O4 0.665177 0.503111 0.364296
O O5 0.500000 0.925016 0.164579
O O6 0.590204 0.750000 0.168263
O O7 0.612139 0.021134 0.147296
O O8 0.140824 0.500000 0.500000
O O9 0.136844 0.750000 0.566719
O O10 0.222328 0.577738 0.604201
O O11 0.295846 0.250000 0.325803
O O12 0.250000 0.459348 0.250000
#
# Coordination Sequence:
#
# PCOD9539588 Si02
#       5
#    16  16   4  16  16
#     4  11  24  42  66  96 131 175 224 271 326 396
#     4  10  21  41  67  93 125 166 214 268 324 388
#     4  12  26  44  64 102 144 180 222 278 336 404
#     4  11  24  42  64  94 131 169 215 270 330 392
#     4  10  22  42  66  95 130 169 217 276 336 396
#
# _framework density 19.056260000000002
#
# number of rings (size 3 to 8) (size 9 to 14) (size 15 to 20)
#    0.000    1.412    3.529    1.059    1.647    5.176 
#    0.000    0.000    0.000    0.000    0.000    0.000 
#    0.000    0.000    0.000    0.000    0.000    0.000 
#
# Total GULP energy -189394.902338 kJ/mol
# GULP energy per Si atom -5570.438304 kJ/mol
# Density = 1.901289 g / cm^3
# Si number density = 19.056260 Si / 1000 Ang^3
#
#
#
# Elastic Constant Matrix: (Units=GPa)
#
#
# Indices 1 2 3 4 5 6 
#
# 1 123.7359 84.2735 46.8610 0.0000 0.0000 0.0000
# 2 84.2735 112.6833 67.2519 0.0000 0.0000 0.0000
# 3 46.8610 67.2519 104.6844 0.0000 0.0000 0.0000
# 4 0.0000 0.0000 0.0000 21.6189 0.0000 0.0000
# 5 0.0000 0.0000 0.0000 0.0000 36.7454 0.0000
# 6 0.0000 0.0000 0.0000 0.0000 0.0000 7.3506
#
#
#
# Elastic Compliance Matrix: (Units=1/GPa)
#
#
# Indices 1 2 3 4 5 6 
#
# 1 0.016522 -0.012881 0.000879 0.000000 0.000000 0.000000
# 2 -0.012881 0.024435 -0.009932 0.000000 0.000000 0.000000
# 3 0.000879 -0.009932 0.015539 0.000000 0.000000 0.000000
# 4 0.000000 0.000000 0.000000 0.046256 0.000000 0.000000
# 5 0.000000 0.000000 0.000000 0.000000 0.027214 0.000000
# 6 0.000000 0.000000 0.000000 0.000000 0.000000 0.136044
#
#
# Mechanical properties :
#
#
# Convention : Reuss Voigt Hill
#
# Bulk Modulus (GPa) = 79.18062 81.98626 80.58344
# Shear Modulus (GPa) = 15.91913 22.65745 19.28829
#
# Velocity S-wave (km/s) = 2.89342 3.45190 3.18492
# Velocity P-wave (km/s) = 7.26662 7.68141 7.47689
#
# Compressibility (1/GPa) = 0.01262935
#
# Stress axis : x y z
#
# Youngs Moduli (GPa) = 60.52671 40.92427 64.35265
#
# Poissons Ratio (x) = 0.52714 -0.05659
# Poissons Ratio (y) = 0.77964 0.63914
# Poissons Ratio (z) = -0.05322 0.40645
#
# Static dielectric constant tensor:
#      x y z
#    x 1.640950 0.000000 0.000000 
#    y 0.000000 1.663410 0.000000 
#    z 0.000000 0.000000 1.655450 
# 
# From -- ./inp_files/39187.got.cif
#   From: 2010.05.17/outbox.cif.g08.bks.cpg/sg74_20_cif.got.tgz:39187.got - 2010.06.03 17:57:02.
