data_PCOD9539490
_publ_section_title
;
Structure prediction by ZEFSAII (Michael W. Deem and Ramdas Pophale) SiO2 
 PCOD9539490
Probable space group: I M M A
;
_chemical_formula_sum "Si O2"
_cell_formula_units_Z 64
_cell_length_a 21.712149
_cell_length_b 19.300644
_cell_length_c 7.239836
_cell_angle_alpha 90.000000
_cell_angle_beta 90.000000
_cell_angle_gamma 90.000000
_cell_volume 3033.914513
_symmetry_space_group_name_H-M "I M M A"
_symmetry_group_IT_number 74
_symmetry_cell_setting 'orthorhombic'
loop_
_space_group_symop_operation_xyz
x,y,z
-x,1/2-y,z
x,-y,-z
-x,1/2+y,-z
-x,-y,-z
x,1/2+y,-z
-x,y,z
x,1/2-y,z
1/2+x,1/2+y,1/2+z
1/2-x,-y,1/2+z
1/2+x,1/2-y,1/2-z
1/2-x,y,1/2-z
1/2-x,1/2-y,1/2-z
1/2+x,y,1/2-z
1/2-x,1/2+y,1/2+z
1/2+x,-y,1/2+z
loop_
_atom_site_type_symbol
_atom_site_label
_atom_site_fract_x
_atom_site_fract_y
_atom_site_fract_z
Si Si1 0.888634 0.830496 0.330471
Si Si2 0.069155 0.068124 0.383870
Si Si3 0.858713 0.418000 0.015092
Si Si4 0.254600 0.173673 0.027030
O O1 0.901800 0.750000 0.300169
O O2 0.931883 0.868502 0.475374
O O3 0.893204 0.874769 0.142965
O O4 0.820535 0.834898 0.428973
O O5 0.112953 0.092305 0.217767
O O6 0.000000 0.051840 0.315100
O O7 0.091082 0.000000 0.500000
O O8 0.789899 0.389737 0.984823
O O9 0.861634 0.500000 0.000000
O O10 0.230244 0.250000 0.965283
O O11 0.250000 0.176344 0.250000
#
# Coordination Sequence:
#
# PCOD9539490 Si02
#       4
#    16  16  16  16
#     4  11  24  44  68  99 138 176 219 274 341 407
#     4  11  25  46  68  93 131 177 229 285 340 394
#     4  12  24  39  67 102 129 172 221 274 335 405
#     4  10  21  39  65  95 135 176 210 265 336 402
#
# _framework density 21.094859
#
# number of rings (size 3 to 8) (size 9 to 14) (size 15 to 20)
#    0.000    1.000    5.000    1.500    0.000    8.000 
#    0.000    0.000    0.000    0.000    0.000    0.000 
#    0.000    0.000    0.000    0.000    0.000    0.000 
#
# Total GULP energy -178518.059558 kJ/mol
# GULP energy per Si atom -5578.689361 kJ/mol
# Density = 2.104685 g / cm^3
# Si number density = 21.094859 Si / 1000 Ang^3
#
#
#
# Elastic Constant Matrix: (Units=GPa)
#
#
# Indices 1 2 3 4 5 6 
#
# 1 50.2843 26.4993 19.9511 0.0000 0.0000 0.0000
# 2 26.4993 161.3429 67.7553 0.0000 0.0000 0.0000
# 3 19.9511 67.7553 124.9470 0.0000 0.0000 0.0000
# 4 0.0000 0.0000 0.0000 -73.5014 0.0000 0.0000
# 5 0.0000 0.0000 0.0000 0.0000-2672.8300 0.0000
# 6 0.0000 0.0000 0.0000 0.0000 0.0000 20.8737
#
#
#
# Elastic Compliance Matrix: (Units=1/GPa)
#
#
# Indices 1 2 3 4 5 6 
#
# 1 0.022161 -0.002789 -0.002026 0.000000 0.000000 0.000000
# 2 -0.002789 0.008377 -0.004097 0.000000 0.000000 0.000000
# 3 -0.002026 -0.004097 0.010549 0.000000 0.000000 0.000000
# 4 0.000000 0.000000 0.000000 -0.013605 0.000000 0.000000
# 5 0.000000 0.000000 0.000000 0.000000 -0.000374 0.000000
# 6 0.000000 0.000000 0.000000 0.000000 0.000000 0.047907
#
#
# Mechanical properties :
#
#
# Convention : Reuss Voigt Hill
#
# Bulk Modulus (GPa) = 42.98938 62.77619 52.88279
# Shear Modulus (GPa) = 49.70592 -530.26698 -240.28053
#
# Velocity S-wave (km/s) = 4.85944 -15.87194 -10.68420
# Velocity P-wave (km/s) = 7.20478 17.49478 11.27294
#
# Compressibility (1/GPa) = 0.02326156
#
# Stress axis : x y z
#
# Youngs Moduli (GPa) = 45.12533 119.38066 94.79875
#
# Poissons Ratio (x) = 0.33293 0.19208
# Poissons Ratio (y) = 0.12585 0.38840
# Poissons Ratio (z) = 0.09143 0.48911
#
# Static dielectric constant tensor:
#      x y z
#    x 1.773930 0.000000 0.000000 
#    y 0.000000 1.728910 0.000000 
#    z 0.000000 0.000000 1.837060 
# 
# From -- ./inp_files/4337.got.cif
#   From: 2010.05.17/outbox.cif.g08.bks.cpg/sg74_3_cif.got.tgz:4337.got - 2010.06.03 17:57:02.
