data_PCOD9539834
_publ_section_title
;
Structure prediction by ZEFSAII (Michael W. Deem and Ramdas Pophale) SiO2 
 PCOD9539834
Probable space group: I M M A
;
_chemical_formula_sum "Si O2"
_cell_formula_units_Z 88
_cell_length_a 14.845235
_cell_length_b 20.868367
_cell_length_c 15.278367
_cell_angle_alpha 90.000000
_cell_angle_beta 90.000000
_cell_angle_gamma 90.000000
_cell_volume 4733.174114
_symmetry_space_group_name_H-M "I M M A"
_symmetry_group_IT_number 74
_symmetry_cell_setting 'orthorhombic'
loop_
_space_group_symop_operation_xyz
x,y,z
-x,1/2-y,z
x,-y,-z
-x,1/2+y,-z
-x,-y,-z
x,1/2+y,-z
-x,y,z
x,1/2-y,z
1/2+x,1/2+y,1/2+z
1/2-x,-y,1/2+z
1/2+x,1/2-y,1/2-z
1/2-x,y,1/2-z
1/2-x,1/2-y,1/2-z
1/2+x,y,1/2-z
1/2-x,1/2+y,1/2+z
1/2+x,-y,1/2+z
loop_
_atom_site_type_symbol
_atom_site_label
_atom_site_fract_x
_atom_site_fract_y
_atom_site_fract_z
Si Si1 0.807183 0.500000 0.500000
Si Si2 0.286755 0.820475 0.405399
Si Si3 0.107015 0.177685 0.088604
Si Si4 0.311602 0.449767 0.336239
Si Si5 0.898257 0.882569 0.406055
Si Si6 0.400142 0.580905 0.297772
O O1 0.745708 0.527744 0.578755
O O2 0.868582 0.442884 0.535918
O O3 0.304549 0.750000 0.367475
O O4 0.339266 0.825294 0.497062
O O5 0.180592 0.830978 0.418082
O O6 0.325282 0.876211 0.344541
O O7 0.121783 0.250000 0.124826
O O8 0.142929 0.118617 0.145515
O O9 0.000000 0.170542 0.073667
O O10 0.250000 0.446562 0.250000
O O11 0.381953 0.506949 0.318751
O O12 0.895755 0.905901 0.305372
O O13 0.000000 0.861297 0.425689
O O14 0.500000 0.599733 0.329165
#
# Coordination Sequence:
#
# PCOD9539834 Si02
#       6
#     8  16  16  16  16  16
#     4  12  21  40  61  90 122 156 195 254 307 352
#     4  11  22  39  61  87 123 163 203 254 310 363
#     4  10  22  40  62  90 123 159 200 251 312 367
#     4  12  21  38  67  91 121 160 202 248 304 359
#     4  11  23  39  59  86 122 163 205 248 300 363
#     4  11  22  37  60  92 123 154 201 251 300 365
#
# _framework density 18.592174
#
# number of rings (size 3 to 8) (size 9 to 14) (size 15 to 20)
#    0.000    0.909    5.455    1.909    0.000    3.273 
#    0.000    4.545    0.000    0.000    0.000    0.000 
#    0.000    0.000    0.000    0.000    0.000    0.000 
#
# Total GULP energy -245778.255021 kJ/mol
# GULP energy per Si atom -5585.869432 kJ/mol
# Density = 1.854986 g / cm^3
# Si number density = 18.592174 Si / 1000 Ang^3
#
#
#
# Elastic Constant Matrix: (Units=GPa)
#
#
# Indices 1 2 3 4 5 6 
#
# 1 133.2744 39.1945 32.8151 -0.0001 0.0000 0.0000
# 2 39.1945 105.4222 33.3021 0.0001 0.0000 0.0000
# 3 32.8151 33.3021 59.6297 0.0009 -0.0001 0.0002
# 4 -0.0001 0.0001 0.0009 -6.7516 -0.0002 0.0001
# 5 0.0000 0.0000 -0.0001 -0.0002 12.2894 0.0000
# 6 0.0000 0.0000 0.0002 0.0001 0.0000 15.5653
#
#
#
# Elastic Compliance Matrix: (Units=1/GPa)
#
#
# Indices 1 2 3 4 5 6 
#
# 1 0.009074 -0.002181 -0.003776 -0.000001 0.000000 0.000000
# 2 -0.002181 0.012042 -0.005525 -0.000001 0.000000 0.000000
# 3 -0.003776 -0.005525 0.021934 0.000003 0.000000 0.000000
# 4 -0.000001 -0.000001 0.000003 -0.148113 -0.000002 0.000001
# 5 0.000000 0.000000 0.000000 -0.000002 0.081371 0.000000
# 6 0.000000 0.000000 0.000000 0.000001 0.000000 0.064245
#
#
# Mechanical properties :
#
#
# Convention : Reuss Voigt Hill
#
# Bulk Modulus (GPa) = 49.78464 56.54997 53.16730
# Shear Modulus (GPa) = 71.21336 17.08827 44.15081
#
# Velocity S-wave (km/s) = 6.19565 3.03497 4.87837
# Velocity P-wave (km/s) = 8.83271 6.53938 7.77110
#
# Compressibility (1/GPa) = 0.02008652
#
# Stress axis : x y z
#
# Youngs Moduli (GPa) = 110.20019 83.04405 45.59232
#
# Poissons Ratio (x) = 0.18112 0.17214
# Poissons Ratio (y) = 0.24035 0.25189
# Poissons Ratio (z) = 0.41608 0.45881
#
# Static dielectric constant tensor:
#      x y z
#    x 1.647880 0.000000 0.000000 
#    y 0.000000 1.647540 0.000000 
#    z 0.000000 0.000000 1.618440 
# 
# From -- ./inp_files/32198.got.cif
#   From: 2010.05.17/outbox.cif.g08.bks.cpg/sg74_17_cif.got.tgz:32198.got - 2010.06.03 17:57:02.
