data_PCOD9539639
_publ_section_title
;
Structure prediction by ZEFSAII (Michael W. Deem and Ramdas Pophale) SiO2 
 PCOD9539639
Probable space group: I M M A
;
_chemical_formula_sum "Si O2"
_cell_formula_units_Z 96
_cell_length_a 18.870115
_cell_length_b 26.522413
_cell_length_c 10.380485
_cell_angle_alpha 90.000000
_cell_angle_beta 90.000000
_cell_angle_gamma 90.000000
_cell_volume 5195.235341
_symmetry_space_group_name_H-M "I M M A"
_symmetry_group_IT_number 74
_symmetry_cell_setting 'orthorhombic'
loop_
_space_group_symop_operation_xyz
x,y,z
-x,1/2-y,z
x,-y,-z
-x,1/2+y,-z
-x,-y,-z
x,1/2+y,-z
-x,y,z
x,1/2-y,z
1/2+x,1/2+y,1/2+z
1/2-x,-y,1/2+z
1/2+x,1/2-y,1/2-z
1/2-x,y,1/2-z
1/2-x,1/2-y,1/2-z
1/2+x,y,1/2-z
1/2-x,1/2+y,1/2+z
1/2+x,-y,1/2+z
loop_
_atom_site_type_symbol
_atom_site_label
_atom_site_fract_x
_atom_site_fract_y
_atom_site_fract_z
Si Si1 0.218444 0.192386 0.605662
Si Si2 0.919239 0.310026 0.243055
Si Si3 0.918403 0.645554 0.307678
Si Si4 0.581701 0.060005 0.007569
Si Si5 0.800345 0.627240 0.627466
Si Si6 0.414970 0.807193 0.451954
O O1 0.232560 0.250000 0.566721
O O2 0.250000 0.184541 0.750000
O O3 0.134561 0.182955 0.620908
O O4 0.239488 0.151540 0.496786
O O5 0.921591 0.250000 0.252090
O O6 0.858921 0.331469 0.332531
O O7 0.000000 0.328451 0.266718
O O8 0.896454 0.321860 0.096422
O O9 0.911222 0.590642 0.372174
O O10 0.898535 0.652623 0.158155
O O11 0.000000 0.660978 0.322902
O O12 0.500000 0.071445 0.052527
O O13 0.648027 0.080927 0.089364
O O14 0.586430 0.000000 0.000000
O O15 0.750000 0.617666 0.750000
O O16 0.500000 0.803388 0.455058
O O17 0.389120 0.750000 0.420687
#
# Coordination Sequence:
#
# PCOD9539639 Si02
#       6
#    16  16  16  16  16  16
#     4  10  22  36  50  76 115 154 189 224 263 317
#     4   9  18  32  52  80 115 152 188 224 264 320
#     4   9  17  31  54  80 102 134 182 231 277 324
#     4   9  19  39  64  84 103 135 187 247 297 336
#     4  11  23  37  56  82 113 148 187 226 285 346
#     4   8  14  25  45  76 110 142 173 211 263 319
#
# _framework density 18.478469
#
# number of rings (size 3 to 8) (size 9 to 14) (size 15 to 20)
#    0.000    2.667    0.000    2.500    2.333    3.000 
#    0.000    3.333    0.000    0.000    0.000    5.833 
#    0.000    0.000    0.000    0.000    0.000    0.000 
#
# Total GULP energy -267262.167855 kJ/mol
# GULP energy per Si atom -5567.961830 kJ/mol
# Density = 1.843641 g / cm^3
# Si number density = 18.478469 Si / 1000 Ang^3
#
#
#
# Elastic Constant Matrix: (Units=GPa)
#
#
# Indices 1 2 3 4 5 6 
#
# 1 95.3494 42.5763 39.9397 0.0000 0.0000 0.0000
# 2 42.5763 72.0317 47.9368 0.0000 0.0000 0.0000
# 3 39.9397 47.9368 100.3817 0.0000 0.0000 0.0000
# 4 0.0000 0.0000 0.0000 11.4651 0.0000 0.0000
# 5 0.0000 0.0000 0.0000 0.0000 18.7454 0.0000
# 6 0.0000 0.0000 0.0000 0.0000 0.0000 -5.3899
#
#
#
# Elastic Compliance Matrix: (Units=1/GPa)
#
#
# Indices 1 2 3 4 5 6 
#
# 1 0.014659 -0.007011 -0.002484 0.000000 0.000000 0.000000
# 2 -0.007011 0.023704 -0.008530 0.000000 0.000000 0.000000
# 3 -0.002484 -0.008530 0.015024 0.000000 0.000000 0.000000
# 4 0.000000 0.000000 0.000000 0.087222 0.000000 0.000000
# 5 0.000000 0.000000 0.000000 0.000000 0.053346 0.000000
# 6 0.000000 0.000000 0.000000 0.000000 0.000000 -0.185533
#
#
# Mechanical properties :
#
#
# Convention : Reuss Voigt Hill
#
# Bulk Modulus (GPa) = 57.68517 58.74094 58.21305
# Shear Modulus (GPa) = 99.50063 14.11812 56.80938
#
# Velocity S-wave (km/s) = 7.34600 2.76711 5.55070
# Velocity P-wave (km/s) = 10.16055 6.48591 8.52361
#
# Compressibility (1/GPa) = 0.01733548
#
# Stress axis : x y z
#
# Youngs Moduli (GPa) = 68.21676 42.18758 66.56094
#
# Poissons Ratio (x) = 0.29579 0.16536
# Poissons Ratio (y) = 0.47829 0.56776
# Poissons Ratio (z) = 0.16947 0.35986
#
# Static dielectric constant tensor:
#      x y z
#    x 1.701420 0.000000 0.000000 
#    y 0.000000 1.595500 0.000000 
#    z 0.000000 0.000000 1.706580 
# 
# From -- ./inp_files/12649.got.cif
#   From: 2010.05.17/outbox.cif.g08.bks.cpg/sg74_7_cif.got.tgz:12649.got - 2010.06.03 17:57:02.
