data_PCOD9539934
_publ_section_title
;
Structure prediction by ZEFSAII (Michael W. Deem and Ramdas Pophale) SiO2 
 PCOD9539934
Probable space group: I M M A
;
_chemical_formula_sum "Si O2"
_cell_formula_units_Z 44
_cell_length_a 7.454731
_cell_length_b 14.729672
_cell_length_c 15.744816
_cell_angle_alpha 90.000000
_cell_angle_beta 90.000000
_cell_angle_gamma 90.000000
_cell_volume 1728.871211
_symmetry_space_group_name_H-M "I M M A"
_symmetry_group_IT_number 74
_symmetry_cell_setting 'orthorhombic'
loop_
_space_group_symop_operation_xyz
x,y,z
-x,1/2-y,z
x,-y,-z
-x,1/2+y,-z
-x,-y,-z
x,1/2+y,-z
-x,y,z
x,1/2-y,z
1/2+x,1/2+y,1/2+z
1/2-x,-y,1/2+z
1/2+x,1/2-y,1/2-z
1/2-x,y,1/2-z
1/2-x,1/2-y,1/2-z
1/2+x,y,1/2-z
1/2-x,1/2+y,1/2+z
1/2+x,-y,1/2+z
loop_
_atom_site_type_symbol
_atom_site_label
_atom_site_fract_x
_atom_site_fract_y
_atom_site_fract_z
Si Si1 0.294987 0.122072 0.845033
Si Si2 0.783998 0.750000 0.851405
Si Si3 0.284459 0.557168 0.581287
Si Si4 0.000000 0.250000 0.915604
O O1 0.500000 0.142679 0.864795
O O2 0.250000 0.154068 0.750000
O O3 0.156601 0.171231 0.907406
O O4 0.263873 0.014506 0.846130
O O5 0.750000 0.750000 0.750000
O O6 0.717206 0.842595 0.895542
O O7 0.000000 0.750000 0.864227
O O8 0.215997 0.500000 0.500000
O O9 0.500000 0.563259 0.574772
#
# Coordination Sequence:
#
# PCOD9539934 Si02
#       4
#    16   8  16   4
#     4  12  24  40  67  98 137 181 237 289 354 422
#     4  10  22  41  71 100 136 188 243 285 352 428
#     4  10  22  43  66 102 140 183 233 297 362 421
#     4  12  24  42  62  96 136 178 218 284 346 426
#
# _framework density 25.450133000000001
#
# number of rings (size 3 to 8) (size 9 to 14) (size 15 to 20)
#    0.000    1.091    3.636    2.182    0.000    6.545 
#    3.273    0.000    0.000    0.000    0.000    0.000 
#    0.000    0.000    0.000    0.000    0.000    0.000 
#
# Total GULP energy -122665.502453 kJ/mol
# GULP energy per Si atom -5575.704657 kJ/mol
# Density = 2.539221 g / cm^3
# Si number density = 25.450133 Si / 1000 Ang^3
#
#
#
# Elastic Constant Matrix: (Units=GPa)
#
#
# Indices 1 2 3 4 5 6 
#
# 1 186.9014 46.1650 9.8257 0.0000 0.0000 0.0000
# 2 46.1650 307.0566 68.9901 0.0000 0.0000 0.0000
# 3 9.8257 68.9901 117.1354 0.0000 0.0000 0.0000
# 4 0.0000 0.0000 0.0000 -48.5892 0.0000 0.0000
# 5 0.0000 0.0000 0.0000 0.0000 20.7221 0.0000
# 6 0.0000 0.0000 0.0000 0.0000 0.0000 11.2772
#
#
#
# Elastic Compliance Matrix: (Units=1/GPa)
#
#
# Indices 1 2 3 4 5 6 
#
# 1 0.005557 -0.000842 0.000030 0.000000 0.000000 0.000000
# 2 -0.000842 0.003881 -0.002215 0.000000 0.000000 0.000000
# 3 0.000030 -0.002215 0.009839 0.000000 0.000000 0.000000
# 4 0.000000 0.000000 0.000000 -0.020581 0.000000 0.000000
# 5 0.000000 0.000000 0.000000 0.000000 0.048258 0.000000
# 6 0.000000 0.000000 0.000000 0.000000 0.000000 0.088675
#
#
# Mechanical properties :
#
#
# Convention : Reuss Voigt Hill
#
# Bulk Modulus (GPa) = 75.62999 95.67277 85.65138
# Shear Modulus (GPa) = 34.22512 29.08951 31.65732
#
# Velocity S-wave (km/s) = 3.67112 3.38450 3.53072
# Velocity P-wave (km/s) = 6.91020 7.27647 7.09570
#
# Compressibility (1/GPa) = 0.01322227
#
# Stress axis : x y z
#
# Youngs Moduli (GPa) = 179.95769 257.66119 101.63296
#
# Poissons Ratio (x) = 0.21700 -0.00304
# Poissons Ratio (y) = 0.15156 0.22514
# Poissons Ratio (z) = -0.00538 0.57077
#
# Static dielectric constant tensor:
#      x y z
#    x 1.912720 0.000000 0.000000 
#    y 0.000000 2.035390 0.000000 
#    z 0.000000 0.000000 2.246350 
# 
# From -- ./inp_files/38543.got.cif
#   From: 2010.05.17/outbox.cif.g08.bks.cpg/sg74_20_cif.got.tgz:38543.got - 2010.06.03 17:57:02.
