data_PCOD9539560
_publ_section_title
;
Structure prediction by ZEFSAII (Michael W. Deem and Ramdas Pophale) SiO2 
 PCOD9539560
Probable space group: I M M A
;
_chemical_formula_sum "Si O2"
_cell_formula_units_Z 68
_cell_length_a 16.952120
_cell_length_b 10.760701
_cell_length_c 18.703158
_cell_angle_alpha 90.000000
_cell_angle_beta 90.000000
_cell_angle_gamma 90.000000
_cell_volume 3411.768262
_symmetry_space_group_name_H-M "I M M A"
_symmetry_group_IT_number 74
_symmetry_cell_setting 'orthorhombic'
loop_
_space_group_symop_operation_xyz
x,y,z
-x,1/2-y,z
x,-y,-z
-x,1/2+y,-z
-x,-y,-z
x,1/2+y,-z
-x,y,z
x,1/2-y,z
1/2+x,1/2+y,1/2+z
1/2-x,-y,1/2+z
1/2+x,1/2-y,1/2-z
1/2-x,y,1/2-z
1/2-x,1/2-y,1/2-z
1/2+x,y,1/2-z
1/2-x,1/2+y,1/2+z
1/2+x,-y,1/2+z
loop_
_atom_site_type_symbol
_atom_site_label
_atom_site_fract_x
_atom_site_fract_y
_atom_site_fract_z
Si Si1 0.408277 0.612594 0.694349
Si Si2 0.837908 0.893052 0.284638
Si Si3 0.867279 0.953611 0.577702
Si Si4 0.000000 0.750000 0.613432
Si Si5 0.189262 0.615733 0.951078
O O1 0.500000 0.608708 0.675056
O O2 0.394448 0.750000 0.728625
O O3 0.387867 0.496410 0.743151
O O4 0.355230 0.606881 0.624023
O O5 0.863300 0.750000 0.276222
O O6 0.750000 0.902247 0.250000
O O7 0.846257 0.935050 0.367166
O O8 0.930850 0.859211 0.609254
O O9 0.782527 0.891069 0.563162
O O10 0.895966 0.000000 0.500000
O O11 0.170037 0.750000 0.984226
O O12 0.167199 0.500000 0.000000
#
# Coordination Sequence:
#
# PCOD9539560 Si02
#       5
#    16  16  16   4  16
#     4  10  23  42  66  96 131 171 222 273 328 395
#     4  11  25  44  68  98 132 174 219 272 338 400
#     4  11  25  43  66  92 132 176 225 273 327 397
#     4  12  26  44  64 100 128 182 228 278 338 378
#     4  10  21  40  66  94 126 173 217 272 327 396
#
# _framework density 19.931014000000001
#
# number of rings (size 3 to 8) (size 9 to 14) (size 15 to 20)
#    0.000    1.412    3.529    0.353    4.941    3.294 
#    0.000    0.000    0.000    0.000    0.000    0.000 
#    0.000    0.000    0.000    0.000    0.000    0.000 
#
# Total GULP energy -189293.276574 kJ/mol
# GULP energy per Si atom -5567.449311 kJ/mol
# Density = 1.988565 g / cm^3
# Si number density = 19.931014 Si / 1000 Ang^3
#
#
#
# Elastic Constant Matrix: (Units=GPa)
#
#
# Indices 1 2 3 4 5 6 
#
# 1 54.0531 31.7130 25.3856 0.0000 0.0000 0.0000
# 2 31.7130 176.8109 60.9956 0.0000 0.0000 0.0000
# 3 25.3856 60.9956 78.2406 0.0000 0.0000 0.0000
# 4 0.0000 0.0000 0.0000 21.0517 0.0000 0.0000
# 5 0.0000 0.0000 0.0000 0.0000 -8.4667 0.0000
# 6 0.0000 0.0000 0.0000 0.0000 0.0000 31.2783
#
#
#
# Elastic Compliance Matrix: (Units=1/GPa)
#
#
# Indices 1 2 3 4 5 6 
#
# 1 0.022363 -0.002063 -0.005648 0.000000 0.000000 0.000000
# 2 -0.002063 0.007927 -0.005510 0.000000 0.000000 0.000000
# 3 -0.005648 -0.005510 0.018909 0.000000 0.000000 0.000000
# 4 0.000000 0.000000 0.000000 0.047502 0.000000 0.000000
# 5 0.000000 0.000000 0.000000 0.000000 -0.118110 0.000000
# 6 0.000000 0.000000 0.000000 0.000000 0.000000 0.031971
#
#
# Mechanical properties :
#
#
# Convention : Reuss Voigt Hill
#
# Bulk Modulus (GPa) = 43.94164 60.58812 52.26488
# Shear Modulus (GPa) = 112.13397 21.50669 66.82033
#
# Velocity S-wave (km/s) = 7.50887 3.28846 5.79643
# Velocity P-wave (km/s) = 9.86267 6.69952 8.43077
#
# Compressibility (1/GPa) = 0.02275746
#
# Stress axis : x y z
#
# Youngs Moduli (GPa) = 44.71686 126.15672 52.88408
#
# Poissons Ratio (x) = 0.26023 0.29867
# Poissons Ratio (y) = 0.09224 0.29141
# Poissons Ratio (z) = 0.25255 0.69516
#
# Static dielectric constant tensor:
#      x y z
#    x 1.671180 0.000000 0.000000 
#    y 0.000000 1.711990 0.000000 
#    z 0.000000 0.000000 1.730350 
# 
# From -- ./inp_files/48125.got.cif
#   From: 2010.05.17/outbox.cif.g08.bks.cpg/sg74_25_cif.got.tgz:48125.got - 2010.06.03 17:57:02.
