data_PCOD9539428
_publ_section_title
;
Structure prediction by ZEFSAII (Michael W. Deem and Ramdas Pophale) SiO2 
 PCOD9539428
Probable space group: I M M A
;
_chemical_formula_sum "Si O2"
_cell_formula_units_Z 68
_cell_length_a 7.620272
_cell_length_b 23.782391
_cell_length_c 16.970226
_cell_angle_alpha 90.000000
_cell_angle_beta 90.000000
_cell_angle_gamma 90.000000
_cell_volume 3075.485009
_symmetry_space_group_name_H-M "I M M A"
_symmetry_group_IT_number 74
_symmetry_cell_setting 'orthorhombic'
loop_
_space_group_symop_operation_xyz
x,y,z
-x,1/2-y,z
x,-y,-z
-x,1/2+y,-z
-x,-y,-z
x,1/2+y,-z
-x,y,z
x,1/2-y,z
1/2+x,1/2+y,1/2+z
1/2-x,-y,1/2+z
1/2+x,1/2-y,1/2-z
1/2-x,y,1/2-z
1/2-x,1/2-y,1/2-z
1/2+x,y,1/2-z
1/2-x,1/2+y,1/2+z
1/2+x,-y,1/2+z
loop_
_atom_site_type_symbol
_atom_site_label
_atom_site_fract_x
_atom_site_fract_y
_atom_site_fract_z
Si Si1 0.290930 0.415872 0.342712
Si Si2 0.790592 0.538066 0.157231
Si Si3 0.703679 0.688852 0.949650
Si Si4 0.201687 0.162684 0.877665
Si Si5 0.500000 0.750000 0.172651
O O1 0.500000 0.416379 0.351646
O O2 0.250000 0.410553 0.250000
O O3 0.221945 0.477196 0.370748
O O4 0.225444 0.362700 0.390941
O O5 0.750000 0.540270 0.250000
O O6 0.735335 0.597753 0.122906
O O7 0.000000 0.536545 0.145890
O O8 0.500000 0.691013 0.973330
O O9 0.750037 0.750000 0.914398
O O10 0.803813 0.680744 0.031132
O O11 0.343391 0.201324 0.834734
O O12 0.000000 0.167154 0.846003
#
# Coordination Sequence:
#
# PCOD9539428 Si02
#       5
#    16  16  16  16   4
#     4  10  21  39  60  89 119 156 202 251 305 363
#     4   9  21  39  63  87 119 157 200 252 307 358
#     4  11  22  39  60  87 121 160 202 248 303 365
#     4  11  22  40  64  89 123 162 202 250 303 357
#     4  12  22  40  62  92 124 160 206 242 306 364
#
# _framework density 22.110332
#
# number of rings (size 3 to 8) (size 9 to 14) (size 15 to 20)
#    0.000    1.647    2.353    1.765    1.647    3.765 
#    0.000    5.294    0.000    0.000    0.000    0.000 
#    0.000    0.000    0.000    0.000    0.000    0.000 
#
# Total GULP energy -189385.638559 kJ/mol
# GULP energy per Si atom -5570.165840 kJ/mol
# Density = 2.206001 g / cm^3
# Si number density = 22.110332 Si / 1000 Ang^3
#
#
#
# Elastic Constant Matrix: (Units=GPa)
#
#
# Indices 1 2 3 4 5 6 
#
# 1 106.4500 50.1915 16.5881 0.0000 0.0000 0.0000
# 2 50.1915 249.7716 52.5379 0.0000 0.0000 0.0000
# 3 16.5881 52.5379 39.0798 0.0000 0.0000 0.0001
# 4 0.0000 0.0000 0.0000 37.8668 0.0000 0.0000
# 5 0.0000 0.0000 0.0000 0.0000 24.4970 0.0000
# 6 0.0000 0.0000 0.0001 0.0000 0.0000 -6.5165
#
#
#
# Elastic Compliance Matrix: (Units=1/GPa)
#
#
# Indices 1 2 3 4 5 6 
#
# 1 0.010519 -0.001638 -0.002263 0.000000 0.000000 0.000000
# 2 -0.001638 0.005837 -0.007152 0.000000 0.000000 0.000000
# 3 -0.002263 -0.007152 0.036165 0.000000 0.000000 0.000000
# 4 0.000000 0.000000 0.000000 0.026408 0.000000 0.000000
# 5 0.000000 0.000000 0.000000 0.000000 0.040821 0.000000
# 6 0.000000 0.000000 0.000000 0.000000 0.000000 -0.153457
#
#
# Mechanical properties :
#
#
# Convention : Reuss Voigt Hill
#
# Bulk Modulus (GPa) = 32.87920 70.43740 51.65830
# Shear Modulus (GPa) = -3419.47683 29.56838 -1694.95422
#
# Velocity S-wave (km/s) = -39.36888 3.66089 -27.71738
# Velocity P-wave (km/s) = 45.29506 7.05662 31.63737
#
# Compressibility (1/GPa) = 0.03041437
#
# Stress axis : x y z
#
# Youngs Moduli (GPa) = 95.06651 171.31571 27.65140
#
# Poissons Ratio (x) = 0.28057 0.06258
# Poissons Ratio (y) = 0.15569 0.19777
# Poissons Ratio (z) = 0.21516 1.22528
#
# Static dielectric constant tensor:
#      x y z
#    x 1.828610 0.000000 0.000000 
#    y 0.000000 1.861070 0.000000 
#    z 0.000000 0.000000 0.720930 
# 
# From -- ./inp_files/39179.got.cif
#   From: 2010.05.17/outbox.cif.g08.bks.cpg/sg74_20_cif.got.tgz:39179.got - 2010.06.03 17:57:02.
