data_PCOD9539039
_publ_section_title
;
Structure prediction by ZEFSAII (Michael W. Deem and Ramdas Pophale) SiO2 
 PCOD9539039
Probable space group: I M M A
;
_chemical_formula_sum "Si O2"
_cell_formula_units_Z 104
_cell_length_a 27.632189
_cell_length_b 20.629300
_cell_length_c 9.510732
_cell_angle_alpha 90.000000
_cell_angle_beta 90.000000
_cell_angle_gamma 90.000000
_cell_volume 5421.428398
_symmetry_space_group_name_H-M "I M M A"
_symmetry_group_IT_number 74
_symmetry_cell_setting 'orthorhombic'
loop_
_space_group_symop_operation_xyz
x,y,z
-x,1/2-y,z
x,-y,-z
-x,1/2+y,-z
-x,-y,-z
x,1/2+y,-z
-x,y,z
x,1/2-y,z
1/2+x,1/2+y,1/2+z
1/2-x,-y,1/2+z
1/2+x,1/2-y,1/2-z
1/2-x,y,1/2-z
1/2-x,1/2-y,1/2-z
1/2+x,y,1/2-z
1/2-x,1/2+y,1/2+z
1/2+x,-y,1/2+z
loop_
_atom_site_type_symbol
_atom_site_label
_atom_site_fract_x
_atom_site_fract_y
_atom_site_fract_z
Si Si1 0.693368 0.149125 0.232407
Si Si2 0.556342 0.864280 0.315939
Si Si3 0.302806 0.250000 0.003059
Si Si4 0.904167 0.986629 0.334283
Si Si5 0.685822 0.750000 0.539115
Si Si6 0.943535 0.934615 0.906577
Si Si7 0.373127 0.750000 0.255518
Si Si8 0.797015 0.000943 0.666055
O O1 0.750000 0.163927 0.250000
O O2 0.672840 0.186836 0.366418
O O3 0.691421 0.072352 0.217107
O O4 0.679801 0.187123 0.091394
O O5 0.500000 0.844791 0.315637
O O6 0.562075 0.930162 0.225807
O O7 0.570287 0.880225 0.478982
O O8 0.591775 0.811810 0.250629
O O9 0.330866 0.250000 0.858645
O O10 0.243717 0.250000 0.999042
O O11 0.910592 0.000000 0.500000
O O12 0.914963 0.049639 0.236402
O O13 0.848299 0.964150 0.312824
O O14 0.654156 0.750000 0.402586
O O15 0.000000 0.925331 0.871038
O O16 0.939359 0.000000 0.000000
O O17 0.750000 0.025113 0.750000
O O18 0.785804 0.000000 0.500000
#
# Coordination Sequence:
#
# PCOD9539039 Si02
#       8
#    16  16   8  16   8  16   8  16
#     4   8  17  38  60  77 116 163 188 229 282 336
#     4  10  23  42  57  81 117 153 193 242 298 353
#     4   9  19  36  60  84 118 143 193 241 281 334
#     4  10  21  36  62  88 115 147 197 237 288 343
#     4   9  19  38  60  90 110 155 203 230 280 340
#     4   8  16  34  58  80 106 141 184 236 282 336
#     4  12  24  34  60  90 112 152 192 249 299 336
#     4  10  22  37  54  86 126 159 186 228 286 339
#
# _framework density 19.183136000000001
#
# number of rings (size 3 to 8) (size 9 to 14) (size 15 to 20)
#    0.000    2.615    0.000    2.769    6.462    3.077 
#    5.538    0.000    0.000    0.000    0.000    6.462 
#    0.000    0.000    0.000    0.000    0.000    0.000 
#
# Total GULP energy -289656.291786 kJ/mol
# GULP energy per Si atom -5570.313304 kJ/mol
# Density = 1.913947 g / cm^3
# Si number density = 19.183136 Si / 1000 Ang^3
#
#
#
# Elastic Constant Matrix: (Units=GPa)
#
#
# Indices 1 2 3 4 5 6 
#
# 1 54.5258 3.5095 27.1776 0.0000 0.0000 0.0000
# 2 3.5095 38.5515 16.4935 0.0000 0.0000 0.0000
# 3 27.1776 16.4935 101.6494 0.0000 0.0000 0.0000
# 4 0.0000 0.0000 0.0000 9.3520 0.0000 0.0000
# 5 0.0000 0.0000 0.0000 0.0000 -185.8390 0.0000
# 6 0.0000 0.0000 0.0000 0.0000 0.0000 28.0505
#
#
#
# Elastic Compliance Matrix: (Units=1/GPa)
#
#
# Indices 1 2 3 4 5 6 
#
# 1 0.021170 0.000531 -0.005746 0.000000 0.000000 0.000000
# 2 0.000531 0.027888 -0.004667 0.000000 0.000000 0.000000
# 3 -0.005746 -0.004667 0.012131 0.000000 0.000000 0.000000
# 4 0.000000 0.000000 0.000000 0.106929 0.000000 0.000000
# 5 0.000000 0.000000 0.000000 0.000000 -0.005381 0.000000
# 6 0.000000 0.000000 0.000000 0.000000 0.000000 0.035650
#
#
# Mechanical properties :
#
#
# Convention : Reuss Voigt Hill
#
# Bulk Modulus (GPa) = 24.14014 32.12085 28.13050
# Shear Modulus (GPa) = 21.55552 -19.85090 0.85231
#
# Velocity S-wave (km/s) = 3.35576 -3.22034 0.66728
# Velocity P-wave (km/s) = 5.25606 1.71850 3.91021
#
# Compressibility (1/GPa) = 0.04142478
#
# Stress axis : x y z
#
# Youngs Moduli (GPa) = 47.23681 35.85812 82.43086
#
# Poissons Ratio (x) = -0.01905 0.47367
# Poissons Ratio (y) = -0.02510 0.38471
# Poissons Ratio (z) = 0.27144 0.16735
#
# Static dielectric constant tensor:
#      x y z
#    x 1.661240 0.000000 0.000000 
#    y 0.000000 1.725150 0.000000 
#    z 0.000000 0.000000 1.667770 
# 
# From -- ./inp_files/15281.got.cif
#   From: 2010.05.17/outbox.cif.g08.bks.cpg/sg74_8_cif.got.tgz:15281.got - 2010.06.03 17:57:02.
