data_PCOD9539595
_publ_section_title
;
Structure prediction by ZEFSAII (Michael W. Deem and Ramdas Pophale) SiO2 
 PCOD9539595
Probable space group: I M M A
;
_chemical_formula_sum "Si O2"
_cell_formula_units_Z 112
_cell_length_a 22.335256
_cell_length_b 15.018703
_cell_length_c 15.223734
_cell_angle_alpha 90.000000
_cell_angle_beta 90.000000
_cell_angle_gamma 90.000000
_cell_volume 5106.749449
_symmetry_space_group_name_H-M "I M M A"
_symmetry_group_IT_number 74
_symmetry_cell_setting 'orthorhombic'
loop_
_space_group_symop_operation_xyz
x,y,z
-x,1/2-y,z
x,-y,-z
-x,1/2+y,-z
-x,-y,-z
x,1/2+y,-z
-x,y,z
x,1/2-y,z
1/2+x,1/2+y,1/2+z
1/2-x,-y,1/2+z
1/2+x,1/2-y,1/2-z
1/2-x,y,1/2-z
1/2-x,1/2-y,1/2-z
1/2+x,y,1/2-z
1/2-x,1/2+y,1/2+z
1/2+x,-y,1/2+z
loop_
_atom_site_type_symbol
_atom_site_label
_atom_site_fract_x
_atom_site_fract_y
_atom_site_fract_z
Si Si1 0.933024 0.644683 0.054041
Si Si2 0.664060 0.852163 0.097663
Si Si3 0.635751 0.348808 0.099473
Si Si4 0.065486 0.885883 0.757255
Si Si5 0.236759 0.985287 0.648018
Si Si6 0.931478 0.599103 0.253323
Si Si7 0.340835 0.646747 0.592057
O O1 0.936997 0.750000 0.036993
O O2 0.916419 0.632121 0.155593
O O3 0.000000 0.606129 0.041178
O O4 0.882903 0.613201 0.987061
O O5 0.684611 0.750000 0.102872
O O6 0.616954 0.870629 0.175569
O O7 0.718693 0.921766 0.103154
O O8 0.631041 0.864878 0.004163
O O9 0.662343 0.250000 0.110695
O O10 0.576823 0.353094 0.158395
O O11 0.678539 0.423361 0.139125
O O12 0.117070 0.852571 0.821684
O O13 0.000000 0.859124 0.790221
O O14 0.068154 0.992564 0.753175
O O15 0.250000 0.002578 0.750000
O O16 0.288930 0.924802 0.607616
O O17 0.000000 0.628510 0.274027
O O18 0.320597 0.750000 0.576834
#
# Coordination Sequence:
#
# PCOD9539595 Si02
#       7
#    16  16  16  16  16  16  16
#     4   9  19  38  65  99 137 175 222 280 338 403
#     4  11  25  46  70  99 136 177 226 283 339 397
#     4  11  24  44  69  98 136 178 222 274 333 397
#     4  11  23  40  66 103 140 177 222 275 339 407
#     4  12  24  45  69  95 132 180 227 281 335 393
#     4  10  21  41  69 101 137 181 226 275 342 410
#     4  11  23  41  67  98 137 184 229 277 338 403
#
# _framework density 21.931760000000001
#
# number of rings (size 3 to 8) (size 9 to 14) (size 15 to 20)
#    0.000    1.286    2.857    2.143    0.000    4.571 
#   10.286    5.000    0.000    0.000    0.000    0.000 
#    0.000    1.714    0.000    0.000    0.000    0.000 
#
# Total GULP energy -313192.780585 kJ/mol
# GULP energy per Si atom -5592.728225 kJ/mol
# Density = 2.188184 g / cm^3
# Si number density = 21.931760 Si / 1000 Ang^3
#
#
#
# Elastic Constant Matrix: (Units=GPa)
#
#
# Indices 1 2 3 4 5 6 
#
# 1 98.3440 30.6802 41.7723 0.0000 0.0000 0.0000
# 2 30.6802 98.7620 5.6449 0.0000 0.0000 0.0000
# 3 41.7723 5.6449 72.2909 0.0000 0.0000 0.0000
# 4 0.0000 0.0000 0.0000 21.7320 0.0000 0.0000
# 5 0.0000 0.0000 0.0000 0.0000 34.7890 0.0000
# 6 0.0000 0.0000 0.0000 0.0000 0.0000 -37.9589
#
#
#
# Elastic Compliance Matrix: (Units=1/GPa)
#
#
# Indices 1 2 3 4 5 6 
#
# 1 0.015024 -0.004190 -0.008354 0.000000 0.000000 0.000000
# 2 -0.004190 0.011339 0.001536 0.000000 0.000000 0.000000
# 3 -0.008354 0.001536 0.018540 0.000000 0.000000 0.000000
# 4 0.000000 0.000000 0.000000 0.046015 0.000000 0.000000
# 5 0.000000 0.000000 0.000000 0.000000 0.028745 0.000000
# 6 0.000000 0.000000 0.000000 0.000000 0.000000 -0.026344
#
#
# Mechanical properties :
#
#
# Convention : Reuss Voigt Hill
#
# Bulk Modulus (GPa) = 43.69337 47.28796 45.49067
# Shear Modulus (GPa) = 40.66213 16.46574 28.56393
#
# Velocity S-wave (km/s) = 4.31052 2.74299 3.61279
# Velocity P-wave (km/s) = 6.68878 5.62496 6.17980
#
# Compressibility (1/GPa) = 0.02288677
#
# Stress axis : x y z
#
# Youngs Moduli (GPa) = 66.56044 88.19045 53.93610
#
# Poissons Ratio (x) = 0.36949 0.45059
# Poissons Ratio (y) = 0.27887 -0.08282
# Poissons Ratio (z) = 0.55606 -0.13542
#
# Static dielectric constant tensor:
#      x y z
#    x 1.821430 0.000000 0.000000 
#    y 0.000000 1.928100 0.000000 
#    z 0.000000 0.000000 1.787790 
# 
# From -- ./inp_files/36549.got.cif
#   From: 2010.05.17/outbox.cif.g08.bks.cpg/sg74_19_cif.got.tgz:36549.got - 2010.06.03 17:57:02.
