data_PCOD9539220
_publ_section_title
;
Structure prediction by ZEFSAII (Michael W. Deem and Ramdas Pophale) SiO2 
 PCOD9539220
Probable space group: I M M A
;
_chemical_formula_sum "Si O2"
_cell_formula_units_Z 68
_cell_length_a 7.445676
_cell_length_b 17.361151
_cell_length_c 22.771621
_cell_angle_alpha 90.000000
_cell_angle_beta 90.000000
_cell_angle_gamma 90.000000
_cell_volume 2943.585096
_symmetry_space_group_name_H-M "I M M A"
_symmetry_group_IT_number 74
_symmetry_cell_setting 'orthorhombic'
loop_
_space_group_symop_operation_xyz
x,y,z
-x,1/2-y,z
x,-y,-z
-x,1/2+y,-z
-x,-y,-z
x,1/2+y,-z
-x,y,z
x,1/2-y,z
1/2+x,1/2+y,1/2+z
1/2-x,-y,1/2+z
1/2+x,1/2-y,1/2-z
1/2-x,y,1/2-z
1/2-x,1/2-y,1/2-z
1/2+x,y,1/2-z
1/2-x,1/2+y,1/2+z
1/2+x,-y,1/2+z
loop_
_atom_site_type_symbol
_atom_site_label
_atom_site_fract_x
_atom_site_fract_y
_atom_site_fract_z
Si Si1 0.209261 0.579364 0.472856
Si Si2 0.217145 0.164214 0.089428
Si Si3 0.706522 0.626084 0.156052
Si Si4 0.213014 0.456041 0.186155
Si Si5 0.000000 0.250000 0.807203
O O1 0.288071 0.500000 0.500000
O O2 0.226704 0.641647 0.523953
O O3 0.276723 0.611596 0.410982
O O4 0.000000 0.562810 0.460630
O O5 0.277565 0.250000 0.104913
O O6 0.281047 0.099099 0.134480
O O7 0.000000 0.163568 0.091010
O O8 0.500000 0.655269 0.155449
O O9 0.704988 0.540728 0.182944
O O10 0.842228 0.682887 0.187720
O O11 0.250000 0.421435 0.250000
O O12 0.000000 0.465056 0.178461
#
# Coordination Sequence:
#
# PCOD9539220 Si02
#       5
#    16  16  16  16   4
#     4  10  21  37  61  93 132 174 221 269 329 398
#     4  10  23  39  62  98 136 175 224 276 333 397
#     4  11  24  43  68 101 135 176 229 277 336 411
#     4  11  23  43  69  94 128 178 228 280 338 403
#     4  12  26  44  68  98 140 176 222 278 356 390
#
# _framework density 23.101081000000001
#
# number of rings (size 3 to 8) (size 9 to 14) (size 15 to 20)
#    0.000    1.412    3.529    1.059    3.294    2.353 
#    0.000    0.588    0.000    0.000    0.000    0.000 
#    0.000    0.000    0.000    0.000    0.000    0.000 
#
# Total GULP energy -189744.762249 kJ/mol
# GULP energy per Si atom -5580.728301 kJ/mol
# Density = 2.304850 g / cm^3
# Si number density = 23.101081 Si / 1000 Ang^3
#
#
#
# Elastic Constant Matrix: (Units=GPa)
#
#
# Indices 1 2 3 4 5 6 
#
# 1 124.3606 24.7234 3.3754 0.0000 0.0000 0.0000
# 2 24.7234 117.0817 11.8611 0.0000 0.0000 0.0000
# 3 3.3754 11.8611 109.0100 0.0000 0.0000 0.0000
# 4 0.0000 0.0000 0.0000 -11.3835 0.0000 0.0000
# 5 0.0000 0.0000 0.0000 0.0000 14.5506 0.0000
# 6 0.0000 0.0000 0.0000 0.0000 0.0000 27.9876
#
#
#
# Elastic Compliance Matrix: (Units=1/GPa)
#
#
# Indices 1 2 3 4 5 6 
#
# 1 0.008394 -0.001766 -0.000068 0.000000 0.000000 0.000000
# 2 -0.001766 0.009008 -0.000925 0.000000 0.000000 0.000000
# 3 -0.000068 -0.000925 0.009276 0.000000 0.000000 0.000000
# 4 0.000000 0.000000 0.000000 -0.087846 0.000000 0.000000
# 5 0.000000 0.000000 0.000000 0.000000 0.068726 0.000000
# 6 0.000000 0.000000 0.000000 0.000000 0.000000 0.035730
#
#
# Mechanical properties :
#
#
# Convention : Reuss Voigt Hill
#
# Bulk Modulus (GPa) = 47.25862 47.81912 47.53887
# Shear Modulus (GPa) = 89.51149 26.93043 58.22096
#
# Velocity S-wave (km/s) = 6.23152 3.41803 5.02568
# Velocity P-wave (km/s) = 8.50162 6.02679 7.36884
#
# Compressibility (1/GPa) = 0.02116016
#
# Stress axis : x y z
#
# Youngs Moduli (GPa) = 119.13291 111.01693 107.80208
#
# Poissons Ratio (x) = 0.19602 0.00731
# Poissons Ratio (y) = 0.21035 0.09976
# Poissons Ratio (z) = 0.00808 0.10274
#
# Static dielectric constant tensor:
#      x y z
#    x 1.898790 0.000000 0.000000 
#    y 0.000000 1.824660 0.000000 
#    z 0.000000 0.000000 1.910100 
# 
# From -- ./inp_files/48122.got.cif
#   From: 2010.05.17/outbox.cif.g08.bks.cpg/sg74_25_cif.got.tgz:48122.got - 2010.06.03 17:57:02.
