data_PCOD9539117
_publ_section_title
;
Structure prediction by ZEFSAII (Michael W. Deem and Ramdas Pophale) SiO2 
 PCOD9539117
Probable space group: I M M A
;
_chemical_formula_sum "Si O2"
_cell_formula_units_Z 104
_cell_length_a 8.110802
_cell_length_b 29.356114
_cell_length_c 20.470553
_cell_angle_alpha 90.000000
_cell_angle_beta 90.000000
_cell_angle_gamma 90.000000
_cell_volume 4874.071998
_symmetry_space_group_name_H-M "I M M A"
_symmetry_group_IT_number 74
_symmetry_cell_setting 'orthorhombic'
loop_
_space_group_symop_operation_xyz
x,y,z
-x,1/2-y,z
x,-y,-z
-x,1/2+y,-z
-x,-y,-z
x,1/2+y,-z
-x,y,z
x,1/2-y,z
1/2+x,1/2+y,1/2+z
1/2-x,-y,1/2+z
1/2+x,1/2-y,1/2-z
1/2-x,y,1/2-z
1/2-x,1/2-y,1/2-z
1/2+x,y,1/2-z
1/2-x,1/2+y,1/2+z
1/2+x,-y,1/2+z
loop_
_atom_site_type_symbol
_atom_site_label
_atom_site_fract_x
_atom_site_fract_y
_atom_site_fract_z
Si Si1 0.799599 0.164986 0.909967
Si Si2 0.190131 0.543034 0.541505
Si Si3 0.699063 0.197141 0.322687
Si Si4 0.193925 0.086853 0.681888
Si Si5 0.310565 0.985087 0.678833
Si Si6 0.301331 0.250000 0.675337
Si Si7 0.303979 0.854649 0.549763
O O1 0.733870 0.118526 0.878836
O O2 0.743253 0.205593 0.863427
O O3 0.000000 0.163296 0.909113
O O4 0.744208 0.170852 0.984607
O O5 0.259423 0.500000 0.500000
O O6 0.204385 0.531366 0.617984
O O7 0.273197 0.592126 0.535990
O O8 0.000000 0.548051 0.521142
O O9 0.500000 0.197096 0.324003
O O10 0.753196 0.250000 0.331624
O O11 0.750000 0.182173 0.250000
O O12 0.761676 0.165253 0.381830
O O13 0.250000 0.109980 0.750000
O O14 0.000000 0.076511 0.684601
O O15 0.293331 0.039815 0.678525
O O16 0.500000 0.971554 0.668779
O O17 0.250000 0.969362 0.750000
O O18 0.500000 0.250000 0.672741
O O19 0.250000 0.250000 0.750000
O O20 0.500000 0.848043 0.552908
#
# Coordination Sequence:
#
# PCOD9539117 Si02
#       7
#    16  16  16  16  16   8  16
#     4  10  21  37  57  83 114 151 195 243 294 349
#     4  11  24  41  60  85 121 162 202 249 304 361
#     4   9  19  37  62  90 120 155 196 245 303 365
#     4  11  21  35  56  82 114 152 196 242 292 349
#     4  11  22  38  61  87 116 151 195 244 296 352
#     4  10  22  38  58  84 115 152 192 238 291 344
#     4  10  22  38  60  88 117 155 201 247 300 361
#
# _framework density 21.337394
#
# number of rings (size 3 to 8) (size 9 to 14) (size 15 to 20)
#    0.000    1.692    0.000    5.538    1.077    7.385 
#    0.000    1.538    0.000    0.000    0.000    0.000 
#    0.000    0.000    0.000    0.000    0.000    0.000 
#
# Total GULP energy -290504.644924 kJ/mol
# GULP energy per Si atom -5586.627787 kJ/mol
# Density = 2.128883 g / cm^3
# Si number density = 21.337394 Si / 1000 Ang^3
#
#
#
# Elastic Constant Matrix: (Units=GPa)
#
#
# Indices 1 2 3 4 5 6 
#
# 1 31.8011 -6.5315 2.7803 0.0000 0.0000 0.0000
# 2 -6.5315 54.5146 58.1706 0.0000 0.0000 0.0000
# 3 2.7803 58.1706 172.2103 0.0000 0.0000 0.0000
# 4 0.0000 0.0000 0.0000 34.4261 0.0000 0.0000
# 5 0.0000 0.0000 0.0000 0.0000 26.8543 0.0000
# 6 0.0000 0.0000 0.0000 0.0000 0.0000 6.3902
#
#
#
# Elastic Compliance Matrix: (Units=1/GPa)
#
#
# Indices 1 2 3 4 5 6 
#
# 1 0.033161 0.007106 -0.002936 0.000000 0.000000 0.000000
# 2 0.007106 0.030204 -0.010317 0.000000 0.000000 0.000000
# 3 -0.002936 -0.010317 0.009339 0.000000 0.000000 0.000000
# 4 0.000000 0.000000 0.000000 0.029048 0.000000 0.000000
# 5 0.000000 0.000000 0.000000 0.000000 0.037238 0.000000
# 6 0.000000 0.000000 0.000000 0.000000 0.000000 0.156489
#
#
# Mechanical properties :
#
#
# Convention : Reuss Voigt Hill
#
# Bulk Modulus (GPa) = 16.55343 40.81832 28.68588
# Shear Modulus (GPa) = 15.24801 27.14123 21.19462
#
# Velocity S-wave (km/s) = 2.67613 3.57038 3.15510
# Velocity P-wave (km/s) = 4.16217 6.01401 5.17165
#
# Compressibility (1/GPa) = 0.06041042
#
# Stress axis : x y z
#
# Youngs Moduli (GPa) = 30.15549 33.10781 107.07396
#
# Poissons Ratio (x) = -0.23525 0.31432
# Poissons Ratio (y) = -0.21427 1.10472
# Poissons Ratio (z) = 0.08852 0.34159
#
# Static dielectric constant tensor:
#      x y z
#    x 1.771180 0.000000 0.000000 
#    y 0.000000 1.823250 0.000000 
#    z 0.000000 0.000000 1.802760 
# 
# From -- ./inp_files/49308.got.cif
#   From: 2010.05.17/outbox.cif.g08.bks.cpg/sg74_25_cif.got.tgz:49308.got - 2010.06.03 17:57:02.
