data_PCOD9539630
_publ_section_title
;
Structure prediction by ZEFSAII (Michael W. Deem and Ramdas Pophale) SiO2 
 PCOD9539630
Probable space group: I M M A
;
_chemical_formula_sum "Si O2"
_cell_formula_units_Z 76
_cell_length_a 14.901388
_cell_length_b 24.106882
_cell_length_c 11.049934
_cell_angle_alpha 90.000000
_cell_angle_beta 90.000000
_cell_angle_gamma 90.000000
_cell_volume 3969.423615
_symmetry_space_group_name_H-M "I M M A"
_symmetry_group_IT_number 74
_symmetry_cell_setting 'orthorhombic'
loop_
_space_group_symop_operation_xyz
x,y,z
-x,1/2-y,z
x,-y,-z
-x,1/2+y,-z
-x,-y,-z
x,1/2+y,-z
-x,y,z
x,1/2-y,z
1/2+x,1/2+y,1/2+z
1/2-x,-y,1/2+z
1/2+x,1/2-y,1/2-z
1/2-x,y,1/2-z
1/2-x,1/2-y,1/2-z
1/2+x,y,1/2-z
1/2-x,1/2+y,1/2+z
1/2+x,-y,1/2+z
loop_
_atom_site_type_symbol
_atom_site_label
_atom_site_fract_x
_atom_site_fract_y
_atom_site_fract_z
Si Si1 0.895533 0.250000 0.206699
Si Si2 0.701492 0.645108 0.012222
Si Si3 0.500000 0.028459 0.870542
Si Si4 0.500000 0.250000 0.735450
Si Si5 0.171903 0.750000 0.062478
Si Si6 0.500000 0.656737 0.065049
Si Si7 0.694387 0.527077 0.133203
Si Si8 0.750000 0.843071 0.750000
O O1 0.837213 0.196988 0.246989
O O2 0.000000 0.250000 0.242204
O O3 0.884209 0.250000 0.062062
O O4 0.739484 0.627529 0.879600
O O5 0.762863 0.696101 0.059172
O O6 0.596672 0.663551 0.000257
O O7 0.703920 0.592742 0.102411
O O8 0.500000 0.093816 0.890022
O O9 0.405326 0.012636 0.818977
O O10 0.500000 0.000000 0.000000
O O11 0.594160 0.250000 0.662699
O O12 0.500000 0.302977 0.821558
O O13 0.750000 0.511255 0.250000
O O14 0.709043 0.500000 0.000000
#
# Coordination Sequence:
#
# PCOD9539630 Si02
#       8
#     8  16   8   4   8   8  16   8
#     4   9  17  34  52  76 111 156 193 234 284 347
#     4  10  22  39  59  89 120 156 203 251 305 364
#     4   8  18  40  61  84 119 156 196 251 313 360
#     4  12  24  34  56  86 132 170 200 244 310 378
#     4  10  22  37  55  83 125 162 195 243 306 359
#     4  10  22  34  55  88 114 159 203 238 299 376
#     4  10  22  40  67  90 120 160 204 258 310 368
#     4   9  20  34  56  80 110 152 194 245 288 348
#
# _framework density 19.146356999999998
#
# number of rings (size 3 to 8) (size 9 to 14) (size 15 to 20)
#    0.000    2.316    0.526    1.263    8.842    0.842 
#    0.000    0.526    0.000    0.000    0.000    0.000 
#    0.000    0.000    0.000    0.000    0.000    0.000 
#
# Total GULP energy -211541.070179 kJ/mol
# GULP energy per Si atom -5566.870268 kJ/mol
# Density = 1.910278 g / cm^3
# Si number density = 19.146357 Si / 1000 Ang^3
#
#
#
# Elastic Constant Matrix: (Units=GPa)
#
#
# Indices 1 2 3 4 5 6 
#
# 1 183.6490 22.9231 60.0957 0.0001 0.0000 0.0000
# 2 22.9231 57.1435 24.1280 0.0000 0.0000 0.0000
# 3 60.0957 24.1280 94.3216 -0.0005 0.0001 -0.0003
# 4 0.0001 0.0000 -0.0005 -40.0891 0.0000 -0.0002
# 5 0.0000 0.0000 0.0001 0.0000 42.9939 0.0000
# 6 0.0000 0.0000 -0.0003 -0.0002 0.0000 7.0694
#
#
#
# Elastic Compliance Matrix: (Units=1/GPa)
#
#
# Indices 1 2 3 4 5 6 
#
# 1 0.006933 -0.001027 -0.004154 0.000000 0.000000 0.000000
# 2 -0.001027 0.019771 -0.004403 0.000000 0.000000 0.000000
# 3 -0.004154 -0.004403 0.014375 0.000000 0.000000 0.000001
# 4 0.000000 0.000000 0.000000 -0.024944 0.000000 -0.000001
# 5 0.000000 0.000000 0.000000 0.000000 0.023259 0.000000
# 6 0.000000 0.000000 0.000001 -0.000001 0.000000 0.141456
#
#
# Mechanical properties :
#
#
# Convention : Reuss Voigt Hill
#
# Bulk Modulus (GPa) = 45.64150 61.04529 53.34339
# Shear Modulus (GPa) = 24.11709 17.19266 20.65488
#
# Velocity S-wave (km/s) = 3.55296 2.99985 3.28806
# Velocity P-wave (km/s) = 6.38133 6.62959 6.50664
#
# Compressibility (1/GPa) = 0.02190989
#
# Stress axis : x y z
#
# Youngs Moduli (GPa) = 144.24148 50.57924 69.56348
#
# Poissons Ratio (x) = 0.05194 0.28900
# Poissons Ratio (y) = 0.14813 0.30630
# Poissons Ratio (z) = 0.59924 0.22271
#
# Static dielectric constant tensor:
#      x y z
#    x 1.787720 0.000000 0.000000 
#    y 0.000000 1.670640 0.000000 
#    z 0.000000 0.000000 1.657940 
# 
# From -- ./inp_files/20618.got.cif
#   From: 2010.05.17/outbox.cif.g08.bks.cpg/sg74_11_cif.got.tgz:20618.got - 2010.06.03 17:57:02.
