data_PCOD9539350
_publ_section_title
;
Structure prediction by ZEFSAII (Michael W. Deem and Ramdas Pophale) SiO2 
 PCOD9539350
Probable space group: I M M A
;
_chemical_formula_sum "Si O2"
_cell_formula_units_Z 48
_cell_length_a 15.906205
_cell_length_b 15.027033
_cell_length_c 9.238854
_cell_angle_alpha 90.000000
_cell_angle_beta 90.000000
_cell_angle_gamma 90.000000
_cell_volume 2208.299223
_symmetry_space_group_name_H-M "I M M A"
_symmetry_group_IT_number 74
_symmetry_cell_setting 'orthorhombic'
loop_
_space_group_symop_operation_xyz
x,y,z
-x,1/2-y,z
x,-y,-z
-x,1/2+y,-z
-x,-y,-z
x,1/2+y,-z
-x,y,z
x,1/2-y,z
1/2+x,1/2+y,1/2+z
1/2-x,-y,1/2+z
1/2+x,1/2-y,1/2-z
1/2-x,y,1/2-z
1/2-x,1/2-y,1/2-z
1/2+x,y,1/2-z
1/2-x,1/2+y,1/2+z
1/2+x,-y,1/2+z
loop_
_atom_site_type_symbol
_atom_site_label
_atom_site_fract_x
_atom_site_fract_y
_atom_site_fract_z
Si Si1 0.666275 0.903060 0.568737
Si Si2 0.500000 0.642087 0.102079
Si Si3 0.352122 0.852447 0.887491
Si Si4 0.500000 0.599330 0.430896
O O1 0.644284 0.907528 0.739080
O O2 0.756181 0.855867 0.558305
O O3 0.586827 0.859537 0.488657
O O4 0.678370 0.000000 0.500000
O O5 0.500000 0.750000 0.121980
O O6 0.500000 0.598605 0.258792
O O7 0.581890 0.618305 0.007951
O O8 0.372453 0.750000 0.848779
O O9 0.500000 0.500000 0.500000
#
# Coordination Sequence:
#
# PCOD9539350 Si02
#       4
#    16   8  16   8
#     4  10  21  38  61  91 121 156 198 245 299 354
#     4  10  23  40  62  89 119 157 202 246 294 352
#     4  10  22  42  64  88 119 160 202 246 297 354
#     4  10  23  40  58  87 123 157 194 242 301 354
#
# _framework density 21.736184999999999
#
# number of rings (size 3 to 8) (size 9 to 14) (size 15 to 20)
#    0.000    2.000    0.000    3.000    0.000   14.667 
#    0.000   10.833    0.000    0.000    0.000    0.000 
#    0.000    0.000    0.000    0.000    0.000    0.000 
#
# Total GULP energy -134122.993317 kJ/mol
# GULP energy per Si atom -5588.458055 kJ/mol
# Density = 2.168671 g / cm^3
# Si number density = 21.736185 Si / 1000 Ang^3
#
#
#
# Elastic Constant Matrix: (Units=GPa)
#
#
# Indices 1 2 3 4 5 6 
#
# 1 172.6357 0.2565 117.1684 0.0000 0.0000 0.0000
# 2 0.2565 77.8062 49.2724 0.0000 0.0000 0.0000
# 3 117.1684 49.2724 195.7845 0.0000 0.0000 0.0000
# 4 0.0000 0.0000 0.0000 76.7312 0.0000 0.0000
# 5 0.0000 0.0000 0.0000 0.0000 30.4356 0.0000
# 6 0.0000 0.0000 0.0000 0.0000 0.0000 25.0317
#
#
#
# Elastic Compliance Matrix: (Units=1/GPa)
#
#
# Indices 1 2 3 4 5 6 
#
# 1 0.011179 0.004996 -0.007948 0.000000 0.000000 0.000000
# 2 0.004996 0.017522 -0.007400 0.000000 0.000000 0.000000
# 3 -0.007948 -0.007400 0.011726 0.000000 0.000000 0.000000
# 4 0.000000 0.000000 0.000000 0.013033 0.000000 0.000000
# 5 0.000000 0.000000 0.000000 0.000000 0.032856 0.000000
# 6 0.000000 0.000000 0.000000 0.000000 0.000000 0.039949
#
#
# Mechanical properties :
#
#
# Convention : Reuss Voigt Hill
#
# Bulk Modulus (GPa) = 50.69684 86.62457 68.66070
# Shear Modulus (GPa) = 32.56420 45.07496 38.81958
#
# Velocity S-wave (km/s) = 3.87480 4.55876 4.23063
# Velocity P-wave (km/s) = 6.58735 8.22490 7.45124
#
# Compressibility (1/GPa) = 0.01972510
#
# Stress axis : x y z
#
# Youngs Moduli (GPa) = 89.45180 57.07118 85.27903
#
# Poissons Ratio (x) = -0.28514 0.67777
# Poissons Ratio (y) = -0.44691 0.63104
# Poissons Ratio (z) = 0.71093 0.42231
#
# Static dielectric constant tensor:
#      x y z
#    x 1.826750 0.000000 0.000000 
#    y 0.000000 1.837360 0.000000 
#    z 0.000000 0.000000 1.737530 
# 
# From -- ./inp_files/8108.got.cif
#   From: 2010.05.17/outbox.cif.g08.bks.cpg/sg74_5_cif.got.tgz:8108.got - 2010.06.03 17:57:02.
