data_PCOD9539321
_publ_section_title
;
Structure prediction by ZEFSAII (Michael W. Deem and Ramdas Pophale) SiO2 
 PCOD9539321
Probable space group: I M M A
;
_chemical_formula_sum "Si O2"
_cell_formula_units_Z 96
_cell_length_a 17.070506
_cell_length_b 15.546993
_cell_length_c 19.857230
_cell_angle_alpha 90.000000
_cell_angle_beta 90.000000
_cell_angle_gamma 90.000000
_cell_volume 5270.010296
_symmetry_space_group_name_H-M "I M M A"
_symmetry_group_IT_number 74
_symmetry_cell_setting 'orthorhombic'
loop_
_space_group_symop_operation_xyz
x,y,z
-x,1/2-y,z
x,-y,-z
-x,1/2+y,-z
-x,-y,-z
x,1/2+y,-z
-x,y,z
x,1/2-y,z
1/2+x,1/2+y,1/2+z
1/2-x,-y,1/2+z
1/2+x,1/2-y,1/2-z
1/2-x,y,1/2-z
1/2-x,1/2-y,1/2-z
1/2+x,y,1/2-z
1/2-x,1/2+y,1/2+z
1/2+x,-y,1/2+z
loop_
_atom_site_type_symbol
_atom_site_label
_atom_site_fract_x
_atom_site_fract_y
_atom_site_fract_z
Si Si1 0.500000 0.153093 0.329856
Si Si2 0.346311 0.073092 0.550091
Si Si3 0.500000 0.345875 0.490485
Si Si4 0.686067 0.152403 0.931077
Si Si5 0.353536 0.529085 0.684398
Si Si6 0.673127 0.012780 0.163751
Si Si7 0.407530 0.849801 0.929944
O O1 0.500000 0.250000 0.301584
O O2 0.500000 0.158005 0.410450
O O3 0.580184 0.102497 0.313222
O O4 0.422987 0.106663 0.514228
O O5 0.279088 0.143795 0.556738
O O6 0.312344 0.000000 0.500000
O O7 0.370857 0.035092 0.622576
O O8 0.500000 0.250000 0.518819
O O9 0.666834 0.250000 0.908855
O O10 0.670227 0.075227 0.878945
O O11 0.639861 0.135907 0.000650
O O12 0.352009 0.492652 0.759967
O O13 0.262224 0.550444 0.667988
O O14 0.621411 0.084115 0.126494
O O15 0.500000 0.860975 0.942126
O O16 0.394158 0.750000 0.909894
#
# Coordination Sequence:
#
# PCOD9539321 Si02
#       7
#     8  16   8  16  16  16  16
#     4  11  23  37  57  87 119 152 191 237 289 346
#     4  11  19  36  59  83 114 156 193 238 286 343
#     4  11  22  34  54  86 118 150 192 241 289 340
#     4  10  21  38  61  87 114 149 195 245 293 345
#     4  10  22  39  57  84 115 154 194 234 284 349
#     4  10  22  40  60  85 118 155 194 236 294 346
#     4  10  22  39  61  89 118 147 191 243 293 348
#
# _framework density 18.216284000000002
#
# number of rings (size 3 to 8) (size 9 to 14) (size 15 to 20)
#    0.000    1.667    1.667    3.750    1.167    2.667 
#    0.000    9.167    0.000    0.000    0.000    0.000 
#    0.000    0.000    0.000    0.000    0.000    0.000 
#
# Total GULP energy -267680.934486 kJ/mol
# GULP energy per Si atom -5576.686135 kJ/mol
# Density = 1.817482 g / cm^3
# Si number density = 18.216284 Si / 1000 Ang^3
#
#
#
# Elastic Constant Matrix: (Units=GPa)
#
#
# Indices 1 2 3 4 5 6 
#
# 1 47.1984 34.3024 21.4681 0.0000 0.0000 0.0000
# 2 34.3024 86.0257 41.1561 0.0000 0.0000 0.0000
# 3 21.4681 41.1561 93.6172 0.0000 0.0000 0.0000
# 4 0.0000 0.0000 0.0000 10.9495 0.0000 0.0000
# 5 0.0000 0.0000 0.0000 0.0000 23.9574 0.0000
# 6 0.0000 0.0000 0.0000 0.0000 0.0000 19.7170
#
#
#
# Elastic Compliance Matrix: (Units=1/GPa)
#
#
# Indices 1 2 3 4 5 6 
#
# 1 0.030144 -0.011033 -0.002062 0.000000 0.000000 0.000000
# 2 -0.011033 0.018759 -0.005717 0.000000 0.000000 0.000000
# 3 -0.002062 -0.005717 0.013668 0.000000 0.000000 0.000000
# 4 0.000000 0.000000 0.000000 0.091329 0.000000 0.000000
# 5 0.000000 0.000000 0.000000 0.000000 0.041741 0.000000
# 6 0.000000 0.000000 0.000000 0.000000 0.000000 0.050718
#
#
# Mechanical properties :
#
#
# Convention : Reuss Voigt Hill
#
# Bulk Modulus (GPa) = 40.08575 46.74382 43.41479
# Shear Modulus (GPa) = 17.10593 19.58576 18.34584
#
# Velocity S-wave (km/s) = 3.06771 3.28255 3.17695
# Velocity P-wave (km/s) = 5.88226 6.33111 6.11081
#
# Compressibility (1/GPa) = 0.02494652
#
# Stress axis : x y z
#
# Youngs Moduli (GPa) = 33.17457 53.30844 73.16448
#
# Poissons Ratio (x) = 0.58816 0.15087
# Poissons Ratio (y) = 0.36602 0.41826
# Poissons Ratio (z) = 0.06841 0.30475
#
# Static dielectric constant tensor:
#      x y z
#    x 1.660760 0.000000 0.000000 
#    y 0.000000 1.636810 0.000000 
#    z 0.000000 0.000000 1.606200 
# 
# From -- ./inp_files/51945.got.cif
#   From: 2010.05.17/outbox.cif.g08.bks.cpg/sg74_26_cif.got.tgz:51945.got - 2010.06.03 17:57:02.
