data_PCOD9539414
_publ_section_title
;
Structure prediction by ZEFSAII (Michael W. Deem and Ramdas Pophale) SiO2 
 PCOD9539414
Probable space group: I M M A
;
_chemical_formula_sum "Si O2"
_cell_formula_units_Z 104
_cell_length_a 26.682460
_cell_length_b 16.194756
_cell_length_c 12.367670
_cell_angle_alpha 90.000000
_cell_angle_beta 90.000000
_cell_angle_gamma 90.000000
_cell_volume 5344.267214
_symmetry_space_group_name_H-M "I M M A"
_symmetry_group_IT_number 74
_symmetry_cell_setting 'orthorhombic'
loop_
_space_group_symop_operation_xyz
x,y,z
-x,1/2-y,z
x,-y,-z
-x,1/2+y,-z
-x,-y,-z
x,1/2+y,-z
-x,y,z
x,1/2-y,z
1/2+x,1/2+y,1/2+z
1/2-x,-y,1/2+z
1/2+x,1/2-y,1/2-z
1/2-x,y,1/2-z
1/2-x,1/2-y,1/2-z
1/2+x,y,1/2-z
1/2-x,1/2+y,1/2+z
1/2+x,-y,1/2+z
loop_
_atom_site_type_symbol
_atom_site_label
_atom_site_fract_x
_atom_site_fract_y
_atom_site_fract_z
Si Si1 0.360100 0.650143 0.723156
Si Si2 0.441220 0.913590 0.561855
Si Si3 0.851808 0.849858 0.301650
Si Si4 0.723195 0.563259 0.580146
Si Si5 0.824131 0.849163 0.538200
Si Si6 0.055831 0.154041 0.836220
Si Si7 0.250000 0.566138 0.250000
O O1 0.364080 0.750000 0.717711
O O2 0.407290 0.607876 0.664205
O O3 0.313031 0.618008 0.652859
O O4 0.349694 0.625814 0.848142
O O5 0.500000 0.910414 0.590298
O O6 0.431598 0.850438 0.463136
O O7 0.431597 0.000000 0.500000
O O8 0.851560 0.750000 0.297383
O O9 0.851514 0.875233 0.427712
O O10 0.899763 0.882435 0.235893
O O11 0.800420 0.881111 0.248077
O O12 0.694559 0.500000 0.500000
O O13 0.766770 0.619956 0.531477
O O14 0.752727 0.496613 0.651175
O O15 0.823162 0.750000 0.539546
O O16 0.052375 0.250000 0.805727
O O17 0.000000 0.116553 0.822377
#
# Coordination Sequence:
#
# PCOD9539414 Si02
#       7
#    16  16  16  16  16  16   8
#     4  11  23  38  59  83 113 154 192 230 280 345
#     4  10  22  39  60  86 115 144 182 238 290 335
#     4  10  22  38  57  84 117 152 192 238 290 345
#     4  12  23  37  55  83 113 151 192 235 282 340
#     4  10  21  39  56  78 116 154 188 231 283 338
#     4   9  19  37  60  84 112 148 186 228 283 342
#     4  12  23  36  57  84 116 152 190 242 289 338
#
# _framework density 19.460104000000001
#
# number of rings (size 3 to 8) (size 9 to 14) (size 15 to 20)
#    0.000    1.538    3.077    1.615    4.308    2.154 
#    0.000    0.769    0.000    2.769    0.000    4.308 
#    0.000    0.000    0.000    0.000    0.000    0.000 
#
# Total GULP energy -289988.786697 kJ/mol
# GULP energy per Si atom -5576.707436 kJ/mol
# Density = 1.941581 g / cm^3
# Si number density = 19.460104 Si / 1000 Ang^3
#
#
#
# Elastic Constant Matrix: (Units=GPa)
#
#
# Indices 1 2 3 4 5 6 
#
# 1 116.5659 19.3329 49.1970 0.0000 0.0000 0.0000
# 2 19.3329 41.0082 17.4334 0.0000 0.0000 0.0000
# 3 49.1970 17.4334 60.2158 0.0000 0.0000 0.0000
# 4 0.0000 0.0000 0.0000 -61.2459 0.0000 0.0000
# 5 0.0000 0.0000 0.0000 0.0000 33.0148 0.0000
# 6 0.0000 0.0000 0.0000 0.0000 0.0000 16.8519
#
#
#
# Elastic Compliance Matrix: (Units=1/GPa)
#
#
# Indices 1 2 3 4 5 6 
#
# 1 0.013219 -0.001871 -0.010258 0.000000 0.000000 0.000000
# 2 -0.001871 0.028073 -0.006599 0.000000 0.000000 0.000000
# 3 -0.010258 -0.006599 0.026898 0.000000 0.000000 0.000000
# 4 0.000000 0.000000 0.000000 -0.016328 0.000000 0.000000
# 5 0.000000 0.000000 0.000000 0.000000 0.030289 0.000000
# 6 0.000000 0.000000 0.000000 0.000000 0.000000 0.059340
#
#
# Mechanical properties :
#
#
# Convention : Reuss Voigt Hill
#
# Bulk Modulus (GPa) = 32.53737 43.30181 37.91959
# Shear Modulus (GPa) = 26.42811 6.51261 16.47036
#
# Velocity S-wave (km/s) = 3.68919 1.83137 2.91239
# Velocity P-wave (km/s) = 5.90789 5.17414 5.55315
#
# Compressibility (1/GPa) = 0.03073389
#
# Stress axis : x y z
#
# Youngs Moduli (GPa) = 75.65102 35.62179 37.17687
#
# Poissons Ratio (x) = 0.06664 0.38136
# Poissons Ratio (y) = 0.14153 0.24533
# Poissons Ratio (z) = 0.77604 0.23507
#
# Static dielectric constant tensor:
#      x y z
#    x 1.677430 0.000000 0.000000 
#    y 0.000000 1.726070 0.000000 
#    z 0.000000 0.000000 1.744090 
# 
# From -- ./inp_files/26344.got.cif
#   From: 2010.05.17/outbox.cif.g08.bks.cpg/sg74_14_cif.got.tgz:26344.got - 2010.06.03 17:57:02.
