data_PCOD9539484
_publ_section_title
;
Structure prediction by ZEFSAII (Michael W. Deem and Ramdas Pophale) SiO2 
 PCOD9539484
Probable space group: I M M A
;
_chemical_formula_sum "Si O2"
_cell_formula_units_Z 88
_cell_length_a 20.558297
_cell_length_b 10.026315
_cell_length_c 18.512272
_cell_angle_alpha 90.000000
_cell_angle_beta 90.000000
_cell_angle_gamma 90.000000
_cell_volume 3815.822843
_symmetry_space_group_name_H-M "I M M A"
_symmetry_group_IT_number 74
_symmetry_cell_setting 'orthorhombic'
loop_
_space_group_symop_operation_xyz
x,y,z
-x,1/2-y,z
x,-y,-z
-x,1/2+y,-z
-x,-y,-z
x,1/2+y,-z
-x,y,z
x,1/2-y,z
1/2+x,1/2+y,1/2+z
1/2-x,-y,1/2+z
1/2+x,1/2-y,1/2-z
1/2-x,y,1/2-z
1/2-x,1/2-y,1/2-z
1/2+x,y,1/2-z
1/2-x,1/2+y,1/2+z
1/2+x,-y,1/2+z
loop_
_atom_site_type_symbol
_atom_site_label
_atom_site_fract_x
_atom_site_fract_y
_atom_site_fract_z
Si Si1 0.156862 0.250000 0.574391
Si Si2 0.578499 0.250000 0.558352
Si Si3 0.383413 0.900846 0.720473
Si Si4 0.926230 0.750000 0.567643
Si Si5 0.922519 0.583448 0.941356
Si Si6 0.428195 0.969836 0.148813
Si Si7 0.213055 0.250000 0.860703
Si Si8 0.750000 0.017418 0.750000
O O1 0.125901 0.250000 0.495705
O O2 0.127325 0.375168 0.617974
O O3 0.234845 0.250000 0.573988
O O4 0.500000 0.250000 0.578028
O O5 0.584334 0.417266 0.537010
O O6 0.638655 0.250000 0.615186
O O7 0.407081 0.750000 0.732902
O O8 0.383873 0.920975 0.634865
O O9 0.424549 0.008270 0.765323
O O10 0.312511 0.923537 0.755185
O O11 0.920074 0.615958 0.614031
O O12 0.000000 0.750000 0.537365
O O13 0.909111 0.750000 0.962381
O O14 0.000000 0.591017 0.924548
O O15 0.500000 0.919453 0.128530
O O16 0.231523 0.380351 0.814189
#
# Coordination Sequence:
#
# PCOD9539484 Si02
#       8
#     8   8  16   8  16  16   8   8
#     4  12  23  44  66 101 142 192 238 294 358 428
#     4  10  21  42  68 100 133 172 231 290 355 433
#     4  12  23  42  69  99 139 188 236 294 355 432
#     4  10  22  42  69 100 143 189 237 305 355 404
#     4  10  21  39  65 100 137 174 228 293 356 422
#     4  11  23  41  68 105 141 187 244 294 353 424
#     4  11  24  46  71  95 140 184 222 293 359 427
#     4  11  25  46  66  92 139 183 228 284 360 414
#
# _framework density 23.061868
#
# number of rings (size 3 to 8) (size 9 to 14) (size 15 to 20)
#    0.000    1.091    3.636    3.273    0.000    2.182 
#    3.273    0.909    0.000    0.000    0.000    0.000 
#    0.000    0.000    0.000    0.000    0.000    0.000 
#
# Total GULP energy -245713.311504 kJ/mol
# GULP energy per Si atom -5584.393443 kJ/mol
# Density = 2.300938 g / cm^3
# Si number density = 23.061868 Si / 1000 Ang^3
#
#
#
# Elastic Constant Matrix: (Units=GPa)
#
#
# Indices 1 2 3 4 5 6 
#
# 1 112.3703 10.6931 43.6826 0.0000 0.0000 0.0000
# 2 10.6931 135.4764 40.1236 0.0000 0.0000 0.0000
# 3 43.6826 40.1236 110.1620 0.0000 0.0000 0.0000
# 4 0.0000 0.0000 0.0000 44.6600 0.0000 0.0000
# 5 0.0000 0.0000 0.0000 0.0000 33.5338 0.0000
# 6 0.0000 0.0000 0.0000 0.0000 0.0000 30.3133
#
#
#
# Elastic Compliance Matrix: (Units=1/GPa)
#
#
# Indices 1 2 3 4 5 6 
#
# 1 0.010546 0.000455 -0.004348 0.000000 0.000000 0.000000
# 2 0.000455 0.008294 -0.003201 0.000000 0.000000 0.000000
# 3 -0.004348 -0.003201 0.011967 0.000000 0.000000 0.000000
# 4 0.000000 0.000000 0.000000 0.022391 0.000000 0.000000
# 5 0.000000 0.000000 0.000000 0.000000 0.029821 0.000000
# 6 0.000000 0.000000 0.000000 0.000000 0.000000 0.032989
#
#
# Mechanical properties :
#
#
# Convention : Reuss Voigt Hill
#
# Bulk Modulus (GPa) = 60.16941 60.77861 60.47401
# Shear Modulus (GPa) = 36.83652 39.26870 38.05261
#
# Velocity S-wave (km/s) = 4.00095 4.13092 4.06645
# Velocity P-wave (km/s) = 6.89134 7.01174 6.95180
#
# Compressibility (1/GPa) = 0.01661974
#
# Stress axis : x y z
#
# Youngs Moduli (GPa) = 94.82358 120.57601 83.55997
#
# Poissons Ratio (x) = -0.05489 0.36328
# Poissons Ratio (y) = -0.04317 0.26749
# Poissons Ratio (z) = 0.41225 0.38599
#
# Static dielectric constant tensor:
#      x y z
#    x 1.826700 0.000000 0.000000 
#    y 0.000000 1.910140 0.000000 
#    z 0.000000 0.000000 1.883410 
# 
# From -- ./inp_files/61522.got.cif
#   From: 2010.05.17/outbox.cif.g08.bks.cpg/sg74_31_cif.got.tgz:61522.got - 2010.06.03 17:57:02.
