data_PCOD9539107
_publ_section_title
;
Structure prediction by ZEFSAII (Michael W. Deem and Ramdas Pophale) SiO2 
 PCOD9539107
Probable space group: I M M A
;
_chemical_formula_sum "Si O2"
_cell_formula_units_Z 100
_cell_length_a 7.940998
_cell_length_b 22.467257
_cell_length_c 29.389817
_cell_angle_alpha 90.000000
_cell_angle_beta 90.000000
_cell_angle_gamma 90.000000
_cell_volume 5243.509047
_symmetry_space_group_name_H-M "I M M A"
_symmetry_group_IT_number 74
_symmetry_cell_setting 'orthorhombic'
loop_
_space_group_symop_operation_xyz
x,y,z
-x,1/2-y,z
x,-y,-z
-x,1/2+y,-z
-x,-y,-z
x,1/2+y,-z
-x,y,z
x,1/2-y,z
1/2+x,1/2+y,1/2+z
1/2-x,-y,1/2+z
1/2+x,1/2-y,1/2-z
1/2-x,y,1/2-z
1/2-x,1/2-y,1/2-z
1/2+x,y,1/2-z
1/2-x,1/2+y,1/2+z
1/2+x,-y,1/2+z
loop_
_atom_site_type_symbol
_atom_site_label
_atom_site_fract_x
_atom_site_fract_y
_atom_site_fract_z
Si Si1 0.202685 0.454927 0.303145
Si Si2 0.692634 0.940585 0.454906
Si Si3 0.808263 0.847589 0.867099
Si Si4 0.000000 0.750000 0.636226
Si Si5 0.298744 0.684334 0.302775
Si Si6 0.192986 0.577850 0.549471
Si Si7 0.305654 0.427614 0.858023
O O1 0.250000 0.458303 0.250000
O O2 0.280366 0.397968 0.328399
O O3 0.257444 0.514483 0.330460
O O4 0.000000 0.451320 0.306253
O O5 0.500000 0.940609 0.469457
O O6 0.790277 0.908468 0.495774
O O7 0.711731 0.914583 0.404926
O O8 0.752285 0.008843 0.448739
O O9 0.652524 0.801639 0.864055
O O10 0.794708 0.881340 0.915871
O O11 0.000000 0.823663 0.862475
O O12 0.500000 0.677557 0.307003
O O13 0.251686 0.750000 0.320602
O O14 0.250000 0.682931 0.250000
O O15 0.209899 0.629985 0.327030
O O16 0.000000 0.581995 0.563898
O O17 0.500000 0.439377 0.869912
#
# Coordination Sequence:
#
# PCOD9539107 Si02
#       7
#    16  16  16   4  16  16  16
#     4  11  23  40  63  94 131 164 206 266 329 388
#     4  11  21  33  57  94 128 163 205 250 308 376
#     4  12  24  44  71  96 128 169 214 270 331 390
#     4  12  26  48  70  96 126 168 222 272 316 412
#     4  10  21  37  57  81 115 160 208 255 298 359
#     4  11  20  37  61  92 128 163 202 253 314 376
#     4  11  22  36  58  90 126 166 206 257 315 371
#
# _framework density 19.071199
#
# number of rings (size 3 to 8) (size 9 to 14) (size 15 to 20)
#    0.000    0.960    3.200    6.000    0.000    4.160 
#    0.000    0.400    1.760    0.000    0.000    0.000 
#    0.000    0.000    0.000    0.000    0.000    0.000 
#
# Total GULP energy -278671.986097 kJ/mol
# GULP energy per Si atom -5573.439722 kJ/mol
# Density = 1.902779 g / cm^3
# Si number density = 19.071199 Si / 1000 Ang^3
#
#
#
# Elastic Constant Matrix: (Units=GPa)
#
#
# Indices 1 2 3 4 5 6 
#
# 1 107.3181 16.6828 -3.3519 0.0000 0.0000 0.0000
# 2 16.6828 75.5780 23.9443 0.0000 0.0000 0.0000
# 3 -3.3519 23.9443 85.0788 0.0000 0.0000 0.0000
# 4 0.0000 0.0000 0.0000 -0.5897 0.0000 0.0000
# 5 0.0000 0.0000 0.0000 0.0000 30.6798 0.0000
# 6 0.0000 0.0000 0.0000 0.0000 0.0000 25.7237
#
#
#
# Elastic Compliance Matrix: (Units=1/GPa)
#
#
# Indices 1 2 3 4 5 6 
#
# 1 0.009740 -0.002494 0.001086 0.000000 0.000000 0.000000
# 2 -0.002494 0.015165 -0.004366 0.000000 0.000000 0.000000
# 3 0.001086 -0.004366 0.013025 0.000000 0.000000 0.000000
# 4 0.000000 0.000000 0.000000 -1.695702 0.000000 0.000000
# 5 0.000000 0.000000 0.000000 0.000000 0.032595 0.000000
# 6 0.000000 0.000000 0.000000 0.000000 0.000000 0.038875
#
#
# Mechanical properties :
#
#
# Convention : Reuss Voigt Hill
#
# Bulk Modulus (GPa) = 37.90584 38.05837 37.98211
# Shear Modulus (GPa) = -3.19293 26.54273 11.67490
#
# Velocity S-wave (km/s) = -1.29532 3.73469 2.47690
# Velocity P-wave (km/s) = 4.20499 6.21261 5.30464
#
# Compressibility (1/GPa) = 0.02638116
#
# Stress axis : x y z
#
# Youngs Moduli (GPa) = 102.67290 65.94058 76.77293
#
# Poissons Ratio (x) = 0.16444 -0.08334
# Poissons Ratio (y) = 0.25605 0.33521
# Poissons Ratio (z) = -0.11146 0.28792
#
# Static dielectric constant tensor:
#      x y z
#    x 1.703860 0.000000 0.000000 
#    y 0.000000 1.647250 0.000000 
#    z 0.000000 0.000000 1.692640 
# 
# From -- ./inp_files/64533.got.cif
#   From: 2010.05.17/outbox.cif.g08.bks.cpg/sg74_33_cif.got.tgz:64533.got - 2010.06.03 17:57:02.
