data_PCOD9539121
_publ_section_title
;
Structure prediction by ZEFSAII (Michael W. Deem and Ramdas Pophale) SiO2 
 PCOD9539121
Probable space group: I M M A
;
_chemical_formula_sum "Si O2"
_cell_formula_units_Z 64
_cell_length_a 9.675889
_cell_length_b 15.592965
_cell_length_c 19.670769
_cell_angle_alpha 90.000000
_cell_angle_beta 90.000000
_cell_angle_gamma 90.000000
_cell_volume 2967.842980
_symmetry_space_group_name_H-M "I M M A"
_symmetry_group_IT_number 74
_symmetry_cell_setting 'orthorhombic'
loop_
_space_group_symop_operation_xyz
x,y,z
-x,1/2-y,z
x,-y,-z
-x,1/2+y,-z
-x,-y,-z
x,1/2+y,-z
-x,y,z
x,1/2-y,z
1/2+x,1/2+y,1/2+z
1/2-x,-y,1/2+z
1/2+x,1/2-y,1/2-z
1/2-x,y,1/2-z
1/2-x,1/2-y,1/2-z
1/2+x,y,1/2-z
1/2-x,1/2+y,1/2+z
1/2+x,-y,1/2+z
loop_
_atom_site_type_symbol
_atom_site_label
_atom_site_fract_x
_atom_site_fract_y
_atom_site_fract_z
Si Si1 0.651111 0.152819 0.575713
Si Si2 0.346710 0.854787 0.188338
Si Si3 0.665105 0.353242 0.180334
Si Si4 0.838880 0.075837 0.057239
O O1 0.500000 0.113344 0.589216
O O2 0.641471 0.250000 0.600460
O O3 0.774185 0.114760 0.619379
O O4 0.675255 0.153623 0.495976
O O5 0.500000 0.888626 0.195704
O O6 0.356074 0.750000 0.189257
O O7 0.250000 0.880511 0.250000
O O8 0.500000 0.370644 0.186539
O O9 0.679570 0.250000 0.166870
O O10 0.750000 0.370510 0.250000
O O11 0.736667 0.407252 0.119397
O O12 0.000000 0.072966 0.079418
O O13 0.816165 0.000000 0.000000
#
# Coordination Sequence:
#
# PCOD9539121 Si02
#       4
#    16  16  16  16
#     4   9  17  30  49  72  99 134 176 222 273 331
#     4   9  16  26  42  65  93 124 161 207 254 301
#     4  10  21  38  63  93 122 155 200 255 310 363
#     4  10  21  37  57  83 117 154 190 233 292 361
#
# _framework density 21.564484
#
# number of rings (size 3 to 8) (size 9 to 14) (size 15 to 20)
#    0.000    2.500    0.000    2.250    0.000    7.000 
#    0.000    3.750    0.000    0.000    0.000    0.000 
#    0.000    0.000    0.000    0.000    0.000    0.000 
#
# Total GULP energy -178240.922501 kJ/mol
# GULP energy per Si atom -5570.028828 kJ/mol
# Density = 2.151540 g / cm^3
# Si number density = 21.564484 Si / 1000 Ang^3
#
#
#
# Elastic Constant Matrix: (Units=GPa)
#
#
# Indices 1 2 3 4 5 6 
#
# 1 216.6341 35.9733 127.3524 0.0000 0.0000 0.0000
# 2 35.9733 65.5605 29.3943 0.0000 0.0000 0.0000
# 3 127.3524 29.3943 136.6669 0.0000 0.0000 0.0000
# 4 0.0000 0.0000 0.0000 25.1119 0.0000 0.0000
# 5 0.0000 0.0000 0.0000 0.0000 46.7207 0.0000
# 6 0.0000 0.0000 0.0000 0.0000 0.0000 16.3557
#
#
#
# Elastic Compliance Matrix: (Units=1/GPa)
#
#
# Indices 1 2 3 4 5 6 
#
# 1 0.010339 -0.001498 -0.009312 0.000000 0.000000 0.000000
# 2 -0.001498 0.017098 -0.002282 0.000000 0.000000 0.000000
# 3 -0.009312 -0.002282 0.016486 0.000000 0.000000 0.000000
# 4 0.000000 0.000000 0.000000 0.039822 0.000000 0.000000
# 5 0.000000 0.000000 0.000000 0.000000 0.021404 0.000000
# 6 0.000000 0.000000 0.000000 0.000000 0.000000 0.061141
#
#
# Mechanical properties :
#
#
# Convention : Reuss Voigt Hill
#
# Bulk Modulus (GPa) = 56.37338 89.36683 72.87011
# Shear Modulus (GPa) = 25.20340 32.71377 28.95858
#
# Velocity S-wave (km/s) = 3.42240 3.89912 3.66851
# Velocity P-wave (km/s) = 6.46650 7.86146 7.19785
#
# Compressibility (1/GPa) = 0.01773887
#
# Stress axis : x y z
#
# Youngs Moduli (GPa) = 96.71807 58.48646 60.65913
#
# Poissons Ratio (x) = 0.08761 0.56489
# Poissons Ratio (y) = 0.14488 0.13840
# Poissons Ratio (z) = 0.90068 0.13344
#
# Static dielectric constant tensor:
#      x y z
#    x 1.747850 0.000000 0.000000 
#    y 0.000000 1.998310 0.000000 
#    z 0.000000 0.000000 1.757640 
# 
# From -- ./inp_files/39069.got.cif
#   From: 2010.05.17/outbox.cif.g08.bks.cpg/sg74_20_cif.got.tgz:39069.got - 2010.06.03 17:57:02.
