data_PCOD9539581
_publ_section_title
;
Structure prediction by ZEFSAII (Michael W. Deem and Ramdas Pophale) SiO2 
 PCOD9539581
Probable space group: I M M A
;
_chemical_formula_sum "Si O2"
_cell_formula_units_Z 120
_cell_length_a 17.389093
_cell_length_b 23.962034
_cell_length_c 12.967982
_cell_angle_alpha 90.000000
_cell_angle_beta 90.000000
_cell_angle_gamma 90.000000
_cell_volume 5403.473293
_symmetry_space_group_name_H-M "I M M A"
_symmetry_group_IT_number 74
_symmetry_cell_setting 'orthorhombic'
loop_
_space_group_symop_operation_xyz
x,y,z
-x,1/2-y,z
x,-y,-z
-x,1/2+y,-z
-x,-y,-z
x,1/2+y,-z
-x,y,z
x,1/2-y,z
1/2+x,1/2+y,1/2+z
1/2-x,-y,1/2+z
1/2+x,1/2-y,1/2-z
1/2-x,y,1/2-z
1/2-x,1/2-y,1/2-z
1/2+x,y,1/2-z
1/2-x,1/2+y,1/2+z
1/2+x,-y,1/2+z
loop_
_atom_site_type_symbol
_atom_site_label
_atom_site_fract_x
_atom_site_fract_y
_atom_site_fract_z
Si Si1 0.842088 0.688594 0.263922
Si Si2 0.158136 0.750000 0.999782
Si Si3 0.587357 0.074916 0.706912
Si Si4 0.665183 0.624197 0.800613
Si Si5 0.698001 0.164488 0.979340
Si Si6 0.088460 0.513703 0.619436
Si Si7 0.087414 0.639684 0.909073
Si Si8 0.202808 0.939627 0.032296
O O1 0.859112 0.750000 0.217758
O O2 0.750000 0.679628 0.250000
O O3 0.891073 0.639993 0.214517
O O4 0.854878 0.686140 0.386735
O O5 0.226303 0.702362 0.019073
O O6 0.100598 0.698932 0.964409
O O7 0.500000 0.068063 0.670220
O O8 0.594586 0.042667 0.814294
O O9 0.650443 0.050387 0.631479
O O10 0.750000 0.626292 0.750000
O O11 0.664928 0.660398 0.905628
O O12 0.642998 0.561692 0.835425
O O13 0.608490 0.645218 0.711679
O O14 0.727711 0.102781 0.949593
O O15 0.098860 0.500000 0.500000
O O16 0.000000 0.534212 0.632262
O O17 0.000000 0.620847 0.922617
O O18 0.146359 0.592780 0.952839
O O19 0.230204 0.000000 0.000000
#
# Coordination Sequence:
#
# PCOD9539581 Si02
#       8
#    16   8  16  16  16  16  16  16
#     4  11  23  41  68  92 127 169 217 271 326 390
#     4  10  21  41  65  90 128 164 215 261 317 390
#     4  11  24  41  64  95 128 174 221 268 333 394
#     4  12  23  39  62  97 128 166 216 266 324 395
#     4  11  23  41  63  98 130 169 211 268 334 383
#     4  10  23  44  65  87 127 174 217 267 325 396
#     4  11  24  42  65  93 130 173 214 267 327 388
#     4  11  23  40  64  95 132 166 211 273 331 396
#
# _framework density 22.207937000000001
#
# number of rings (size 3 to 8) (size 9 to 14) (size 15 to 20)
#    0.000    1.067    4.667    2.600    0.000    5.600 
#    0.000    0.667    0.000    0.000    0.000    0.000 
#    0.000    0.000    0.000    0.000    0.000    0.000 
#
# Total GULP energy -334696.891394 kJ/mol
# GULP energy per Si atom -5578.281523 kJ/mol
# Density = 2.215739 g / cm^3
# Si number density = 22.207937 Si / 1000 Ang^3
#
#
#
# Elastic Constant Matrix: (Units=GPa)
#
#
# Indices 1 2 3 4 5 6 
#
# 1 29.9741 -4.2928 -5.3962 0.0000 0.0000 0.0000
# 2 -4.2928 94.2416 -21.2343 0.0000 0.0000 0.0000
# 3 -5.3962 -21.2343 50.7696 0.0000 0.0000 0.0000
# 4 0.0000 0.0000 0.0000 29.9393 0.0000 0.0000
# 5 0.0000 0.0000 0.0000 0.0000 13.1335 0.0000
# 6 0.0000 0.0000 0.0000 0.0000 0.0000 17.8123
#
#
#
# Elastic Compliance Matrix: (Units=1/GPa)
#
#
# Indices 1 2 3 4 5 6 
#
# 1 0.034605 0.002655 0.004789 0.000000 0.000000 0.000000
# 2 0.002655 0.011919 0.005267 0.000000 0.000000 0.000000
# 3 0.004789 0.005267 0.022409 0.000000 0.000000 0.000000
# 4 0.000000 0.000000 0.000000 0.033401 0.000000 0.000000
# 5 0.000000 0.000000 0.000000 0.000000 0.076141 0.000000
# 6 0.000000 0.000000 0.000000 0.000000 0.000000 0.056141
#
#
# Mechanical properties :
#
#
# Convention : Reuss Voigt Hill
#
# Bulk Modulus (GPa) = 10.59836 12.57096 11.58466
# Shear Modulus (GPa) = 20.77751 25.90424 23.34087
#
# Velocity S-wave (km/s) = 3.06206 3.41902 3.24545
# Velocity P-wave (km/s) = 4.15744 4.61077 4.38996
#
# Compressibility (1/GPa) = 0.09435422
#
# Stress axis : x y z
#
# Youngs Moduli (GPa) = 28.89794 83.90126 44.62533
#
# Poissons Ratio (x) = -0.22278 -0.21369
# Poissons Ratio (y) = -0.07673 -0.23505
# Poissons Ratio (z) = -0.13838 -0.44193
#
# Static dielectric constant tensor:
#      x y z
#    x 1.819930 0.000000 0.000000 
#    y 0.000000 1.798430 0.000000 
#    z 0.000000 0.000000 1.946600 
# 
# From -- ./inp_files/24237.got.cif
#   From: 2010.05.17/outbox.cif.g08.bks.cpg/sg74_13_cif.got.tgz:24237.got - 2010.06.03 17:57:02.
