data_PCOD9539198
_publ_section_title
;
Structure prediction by ZEFSAII (Michael W. Deem and Ramdas Pophale) SiO2 
 PCOD9539198
Probable space group: I M M A
;
_chemical_formula_sum "Si O2"
_cell_formula_units_Z 72
_cell_length_a 15.754189
_cell_length_b 8.850721
_cell_length_c 27.227151
_cell_angle_alpha 90.000000
_cell_angle_beta 90.000000
_cell_angle_gamma 90.000000
_cell_volume 3796.443160
_symmetry_space_group_name_H-M "I M M A"
_symmetry_group_IT_number 74
_symmetry_cell_setting 'orthorhombic'
loop_
_space_group_symop_operation_xyz
x,y,z
-x,1/2-y,z
x,-y,-z
-x,1/2+y,-z
-x,-y,-z
x,1/2+y,-z
-x,y,z
x,1/2-y,z
1/2+x,1/2+y,1/2+z
1/2-x,-y,1/2+z
1/2+x,1/2-y,1/2-z
1/2-x,y,1/2-z
1/2-x,1/2-y,1/2-z
1/2+x,y,1/2-z
1/2-x,1/2+y,1/2+z
1/2+x,-y,1/2+z
loop_
_atom_site_type_symbol
_atom_site_label
_atom_site_fract_x
_atom_site_fract_y
_atom_site_fract_z
Si Si1 0.500000 0.567433 0.377698
Si Si2 0.165594 0.568231 0.395559
Si Si3 0.657919 0.931945 0.446381
Si Si4 0.166100 0.568463 0.280210
Si Si5 0.000000 0.930196 0.554375
Si Si6 0.500000 0.570212 0.730740
O O1 0.500000 0.750000 0.371828
O O2 0.416853 0.524582 0.408952
O O3 0.500000 0.493577 0.324486
O O4 0.155130 0.750000 0.400467
O O5 0.250557 0.523521 0.424710
O O6 0.175895 0.534793 0.337861
O O7 0.083397 0.487845 0.417399
O O8 0.656528 0.750000 0.449986
O O9 0.644281 0.000000 0.500000
O O10 0.156097 0.750000 0.275128
O O11 0.250000 0.524404 0.250000
O O12 0.083269 0.490349 0.258390
O O13 0.000000 0.750000 0.551333
O O14 0.000000 0.000000 0.500000
O O15 0.500000 0.750000 0.730161
#
# Coordination Sequence:
#
# PCOD9539198 Si02
#       6
#     8  16  16  16   8   8
#     4  10  21  40  62  84 115 157 201 236 275 341
#     4  10  21  38  60  87 116 149 191 236 284 340
#     4  10  21  37  60  88 117 150 190 236 285 340
#     4  10  21  40  65  88 115 156 201 240 283 345
#     4  12  25  40  59  83 113 151 193 238 289 343
#     4  12  25  38  57  89 124 154 191 244 301 348
#
# _framework density 18.965119999999999
#
# number of rings (size 3 to 8) (size 9 to 14) (size 15 to 20)
#    0.000    1.556    0.000    5.000    0.000   11.111 
#    0.000    2.222    0.000    0.000    0.000    0.000 
#    0.000    0.000    0.000    0.000    0.000    0.000 
#
# Total GULP energy -201333.568568 kJ/mol
# GULP energy per Si atom -5592.599127 kJ/mol
# Density = 1.892195 g / cm^3
# Si number density = 18.965120 Si / 1000 Ang^3
#
#
#
# Elastic Constant Matrix: (Units=GPa)
#
#
# Indices 1 2 3 4 5 6 
#
# 1 74.6023 19.0330 -12.8491 0.0000 0.0000 0.0000
# 2 19.0330 25.7014 22.0679 0.0000 0.0000 0.0000
# 3 -12.8491 22.0679 65.0984 0.0000 0.0000 0.0000
# 4 0.0000 0.0000 0.0000 33.3783 0.0000 0.0000
# 5 0.0000 0.0000 0.0000 0.0000 43.5687 0.0000
# 6 0.0000 0.0000 0.0000 0.0000 0.0000 -5.5228
#
#
#
# Elastic Compliance Matrix: (Units=1/GPa)
#
#
# Indices 1 2 3 4 5 6 
#
# 1 0.023785 -0.030532 0.015045 0.000000 0.000000 0.000000
# 2 -0.030532 0.094075 -0.037917 0.000000 0.000000 0.000000
# 3 0.015045 -0.037917 0.031184 0.000000 0.000000 0.000000
# 4 0.000000 0.000000 0.000000 0.029960 0.000000 0.000000
# 5 0.000000 0.000000 0.000000 0.000000 0.022952 0.000000
# 6 0.000000 0.000000 0.000000 0.000000 0.000000 -0.181067
#
#
# Mechanical properties :
#
#
# Convention : Reuss Voigt Hill
#
# Bulk Modulus (GPa) = 23.67619 24.65619 24.16619
# Shear Modulus (GPa) = 35.26687 23.42820 29.34754
#
# Velocity S-wave (km/s) = 4.31695 3.51854 3.93803
# Velocity P-wave (km/s) = 6.11222 5.43469 5.78338
#
# Compressibility (1/GPa) = 0.04223653
#
# Stress axis : x y z
#
# Youngs Moduli (GPa) = 42.04325 10.62980 32.06725
#
# Poissons Ratio (x) = 0.32455 -0.48244
# Poissons Ratio (y) = 1.28365 1.21590
# Poissons Ratio (z) = -0.63253 0.40305
#
# Static dielectric constant tensor:
#      x y z
#    x 1.632560 0.000000 0.000000 
#    y 0.000000 1.635490 0.000000 
#    z 0.000000 0.000000 1.620100 
# 
# From -- ./inp_files/66777.got.cif
#   From: 2010.05.17/outbox.cif.g08.bks.cpg/sg74_34_cif.got.tgz:66777.got - 2010.06.03 17:57:02.
