data_PCOD9539952
_publ_section_title
;
Structure prediction by ZEFSAII (Michael W. Deem and Ramdas Pophale) SiO2 
 PCOD9539952
Probable space group: I M M A
;
_chemical_formula_sum "Si O2"
_cell_formula_units_Z 112
_cell_length_a 14.540747
_cell_length_b 22.507714
_cell_length_c 16.532547
_cell_angle_alpha 90.000000
_cell_angle_beta 90.000000
_cell_angle_gamma 90.000000
_cell_volume 5410.755033
_symmetry_space_group_name_H-M "I M M A"
_symmetry_group_IT_number 74
_symmetry_cell_setting 'orthorhombic'
loop_
_space_group_symop_operation_xyz
x,y,z
-x,1/2-y,z
x,-y,-z
-x,1/2+y,-z
-x,-y,-z
x,1/2+y,-z
-x,y,z
x,1/2-y,z
1/2+x,1/2+y,1/2+z
1/2-x,-y,1/2+z
1/2+x,1/2-y,1/2-z
1/2-x,y,1/2-z
1/2-x,1/2-y,1/2-z
1/2+x,y,1/2-z
1/2-x,1/2+y,1/2+z
1/2+x,-y,1/2+z
loop_
_atom_site_type_symbol
_atom_site_label
_atom_site_fract_x
_atom_site_fract_y
_atom_site_fract_z
Si Si1 0.395442 0.088569 0.610984
Si Si2 0.229841 0.820117 0.658691
Si Si3 0.108716 0.089065 0.428479
Si Si4 0.736108 0.005892 0.840760
Si Si5 0.639960 0.684495 0.251602
Si Si6 0.397634 0.894974 0.118316
Si Si7 0.108898 0.819369 0.968678
O O1 0.500000 0.068992 0.598867
O O2 0.329970 0.031850 0.622240
O O3 0.391827 0.132662 0.688289
O O4 0.368493 0.132468 0.537514
O O5 0.211604 0.750000 0.658398
O O6 0.250000 0.838947 0.750000
O O7 0.143772 0.854509 0.621471
O O8 0.321037 0.830432 0.604653
O O9 0.122584 0.102308 0.523419
O O10 0.000000 0.075634 0.416432
O O11 0.176996 0.037308 0.397804
O O12 0.750000 0.981725 0.750000
O O13 0.673925 0.064635 0.834372
O O14 0.608483 0.750000 0.277253
O O15 0.750000 0.684783 0.250000
O O16 0.607957 0.668544 0.161083
O O17 0.500000 0.919219 0.129459
O O18 0.121956 0.750000 0.994884
O O19 0.000000 0.825372 0.948360
#
# Coordination Sequence:
#
# PCOD9539952 Si02
#       7
#    16  16  16  16  16  16  16
#     4  11  21  37  62  93 131 174 213 259 319 379
#     4  10  22  42  68  95 123 158 202 263 329 386
#     4  11  26  44  66  92 124 169 216 266 327 390
#     4  12  23  41  62  89 123 168 218 274 319 375
#     4  11  22  37  61  97 138 179 216 257 318 386
#     4  11  22  40  63  91 127 172 218 262 314 378
#     4   9  19  36  61  93 127 165 207 253 314 387
#
# _framework density 20.699515000000002
#
# number of rings (size 3 to 8) (size 9 to 14) (size 15 to 20)
#    0.000    1.286    2.857    3.000    0.000    4.857 
#    0.000    3.571    0.000    3.429    0.000    0.000 
#    0.000    0.000    0.000    0.000    0.000    0.000 
#
# Total GULP energy -312862.670198 kJ/mol
# GULP energy per Si atom -5586.833396 kJ/mol
# Density = 2.065240 g / cm^3
# Si number density = 20.699515 Si / 1000 Ang^3
#
#
#
# Elastic Constant Matrix: (Units=GPa)
#
#
# Indices 1 2 3 4 5 6 
#
# 1 116.7180 45.6939 53.9746 0.0000 0.0000 0.0000
# 2 45.6939 78.3054 50.9927 -0.0002 0.0000 0.0000
# 3 53.9746 50.9927 127.3585 -0.0005 -0.0001 0.0000
# 4 0.0000 -0.0002 -0.0005 26.8876 -0.0001 0.0000
# 5 0.0000 0.0000 -0.0001 -0.0001 22.3604 0.0000
# 6 0.0000 0.0000 0.0000 0.0000 0.0000 1.6585
#
#
#
# Elastic Compliance Matrix: (Units=1/GPa)
#
#
# Indices 1 2 3 4 5 6 
#
# 1 0.011930 -0.004963 -0.003069 0.000000 0.000000 0.000000
# 2 -0.004963 0.019339 -0.005640 0.000000 0.000000 0.000000
# 3 -0.003069 -0.005640 0.011410 0.000000 0.000000 0.000000
# 4 0.000000 0.000000 0.000000 0.037192 0.000000 0.000000
# 5 0.000000 0.000000 0.000000 0.000000 0.044722 -0.000001
# 6 0.000000 0.000000 0.000000 0.000000 -0.000001 0.602963
#
#
# Mechanical properties :
#
#
# Convention : Reuss Voigt Hill
#
# Bulk Modulus (GPa) = 65.20472 69.30049 67.25261
# Shear Modulus (GPa) = 6.57884 21.62936 14.10410
#
# Velocity S-wave (km/s) = 1.78470 3.23603 2.61315
# Velocity P-wave (km/s) = 5.98464 6.89308 6.45486
#
# Compressibility (1/GPa) = 0.01533631
#
# Stress axis : x y z
#
# Youngs Moduli (GPa) = 83.82437 51.70813 87.63871
#
# Poissons Ratio (x) = 0.25663 0.26893
# Poissons Ratio (y) = 0.41603 0.49427
# Poissons Ratio (z) = 0.25723 0.29163
#
# Static dielectric constant tensor:
#      x y z
#    x 1.755850 0.000000 0.000000 
#    y 0.000000 1.770850 0.000000 
#    z 0.000000 0.000000 1.746960 
# 
# From -- ./inp_files/32770.got.cif
#   From: 2010.05.17/outbox.cif.g08.bks.cpg/sg74_17_cif.got.tgz:32770.got - 2010.06.03 17:57:02.
