data_PCOD9539358
_publ_section_title
;
Structure prediction by ZEFSAII (Michael W. Deem and Ramdas Pophale) SiO2 
 PCOD9539358
Probable space group: I M M A
;
_chemical_formula_sum "Si O2"
_cell_formula_units_Z 72
_cell_length_a 14.931789
_cell_length_b 25.251307
_cell_length_c 7.136653
_cell_angle_alpha 90.000000
_cell_angle_beta 90.000000
_cell_angle_gamma 90.000000
_cell_volume 2690.854946
_symmetry_space_group_name_H-M "I M M A"
_symmetry_group_IT_number 74
_symmetry_cell_setting 'orthorhombic'
loop_
_space_group_symop_operation_xyz
x,y,z
-x,1/2-y,z
x,-y,-z
-x,1/2+y,-z
-x,-y,-z
x,1/2+y,-z
-x,y,z
x,1/2-y,z
1/2+x,1/2+y,1/2+z
1/2-x,-y,1/2+z
1/2+x,1/2-y,1/2-z
1/2-x,y,1/2-z
1/2-x,1/2-y,1/2-z
1/2+x,y,1/2-z
1/2-x,1/2+y,1/2+z
1/2+x,-y,1/2+z
loop_
_atom_site_type_symbol
_atom_site_label
_atom_site_fract_x
_atom_site_fract_y
_atom_site_fract_z
Si Si1 0.106430 0.750000 0.320069
Si Si2 0.250000 0.944972 0.750000
Si Si3 0.108558 0.250000 0.258004
Si Si4 0.393158 0.634416 0.733658
Si Si5 0.649415 0.368209 0.816662
Si Si6 0.096254 0.482998 0.782433
O O1 0.145699 0.750000 0.531028
O O2 0.128780 0.808534 0.245920
O O3 0.000000 0.750000 0.329857
O O4 0.318842 0.904560 0.648900
O O5 0.175703 0.986250 0.679998
O O6 0.131125 0.306095 0.171726
O O7 0.000000 0.250000 0.270144
O O8 0.500000 0.625179 0.699968
O O9 0.374666 0.631729 0.959649
O O10 0.750000 0.378045 0.750000
O O11 0.599181 0.420060 0.740888
O O12 0.000000 0.502957 0.716135
O O13 0.104545 0.500000 0.000000
#
# Coordination Sequence:
#
# PCOD9539358 Si02
#       6
#     8   8   8  16  16  16
#     4   9  17  31  56  89 118 154 197 246 302 357
#     4  12  24  37  58  87 114 156 210 250 286 368
#     4   7  14  32  56  85 119 152 194 247 304 354
#     4  10  21  38  62  90 121 159 202 253 305 362
#     4  11  20  37  61  90 122 155 202 250 304 368
#     4  11  24  41  58  81 120 161 196 250 308 354
#
# _framework density 26.757294999999999
#
# number of rings (size 3 to 8) (size 9 to 14) (size 15 to 20)
#    0.000    1.778    1.111    5.667    0.000    0.444 
#    0.000    2.222    0.000    1.333    0.000    4.667 
#    0.000    0.000    0.000    0.000    0.000    0.000 
#
# Total GULP energy -200994.150140 kJ/mol
# GULP energy per Si atom -5583.170837 kJ/mol
# Density = 2.669639 g / cm^3
# Si number density = 26.757295 Si / 1000 Ang^3
#
#
#
# Elastic Constant Matrix: (Units=GPa)
#
#
# Indices 1 2 3 4 5 6 
#
# 1 215.9737 80.8088 8.3886 -0.0021 -0.0022 -0.0003
# 2 80.8088 256.5157 35.0361 -0.0109 -0.0063 -0.0012
# 3 8.3886 35.0361 132.7169 -0.0644 -0.0231 -0.0039
# 4 -0.0021 -0.0109 -0.0644 20.9982 -0.0110 -0.0014
# 5 -0.0022 -0.0063 -0.0231 -0.0110 -55.6182 0.0039
# 6 -0.0003 -0.0012 -0.0039 -0.0014 0.0039 62.1293
#
#
#
# Elastic Compliance Matrix: (Units=1/GPa)
#
#
# Indices 1 2 3 4 5 6 
#
# 1 0.005250 -0.001669 0.000109 0.000000 0.000000 0.000000
# 2 -0.001669 0.004575 -0.001102 -0.000001 0.000000 0.000000
# 3 0.000109 -0.001102 0.007819 0.000023 -0.000003 0.000000
# 4 0.000000 -0.000001 0.000023 0.047623 -0.000009 0.000001
# 5 0.000000 0.000000 -0.000003 -0.000009 -0.017980 0.000001
# 6 0.000000 0.000000 0.000000 0.000001 0.000001 0.016095
#
#
# Mechanical properties :
#
#
# Convention : Reuss Voigt Hill
#
# Bulk Modulus (GPa) = 81.17326 94.85257 88.01292
# Shear Modulus (GPa) = 68.66801 37.56670 53.11736
#
# Velocity S-wave (km/s) = 5.07139 3.75104 4.46034
# Velocity P-wave (km/s) = 8.04330 7.36794 7.71302
#
# Compressibility (1/GPa) = 0.01231933
#
# Stress axis : x y z
#
# Youngs Moduli (GPa) = 190.46203 218.59504 127.89452
#
# Poissons Ratio (x) = 0.36480 -0.01390
# Poissons Ratio (y) = 0.31785 0.14096
# Poissons Ratio (z) = -0.02070 0.24093
#
# Static dielectric constant tensor:
#      x y z
#    x 2.026860 0.000000 0.000000 
#    y 0.000000 2.176530 0.000000 
#    z 0.000000 0.000000 2.158080 
# 
# From -- ./inp_files/9230.got.cif
#   From: 2010.05.17/outbox.cif.g08.bks.cpg/sg74_5_cif.got.tgz:9230.got - 2010.06.03 17:57:02.
