data_PCOD9539880
_publ_section_title
;
Structure prediction by ZEFSAII (Michael W. Deem and Ramdas Pophale) SiO2 
 PCOD9539880
Probable space group: I M M A
;
_chemical_formula_sum "Si O2"
_cell_formula_units_Z 48
_cell_length_a 8.489426
_cell_length_b 29.308731
_cell_length_c 8.888675
_cell_angle_alpha 90.000000
_cell_angle_beta 90.000000
_cell_angle_gamma 90.000000
_cell_volume 2211.629475
_symmetry_space_group_name_H-M "I M M A"
_symmetry_group_IT_number 74
_symmetry_cell_setting 'orthorhombic'
loop_
_space_group_symop_operation_xyz
x,y,z
-x,1/2-y,z
x,-y,-z
-x,1/2+y,-z
-x,-y,-z
x,1/2+y,-z
-x,y,z
x,1/2-y,z
1/2+x,1/2+y,1/2+z
1/2-x,-y,1/2+z
1/2+x,1/2-y,1/2-z
1/2-x,y,1/2-z
1/2-x,1/2-y,1/2-z
1/2+x,y,1/2-z
1/2-x,1/2+y,1/2+z
1/2+x,-y,1/2+z
loop_
_atom_site_type_symbol
_atom_site_label
_atom_site_fract_x
_atom_site_fract_y
_atom_site_fract_z
Si Si1 0.323254 0.935446 0.492109
Si Si2 0.311455 0.658432 0.078550
Si Si3 0.811012 0.750000 0.920894
Si Si4 0.250000 0.001343 0.750000
O O1 0.500000 0.934930 0.423501
O O2 0.261579 0.884592 0.510116
O O3 0.336674 0.965114 0.642801
O O4 0.204902 0.962174 0.379834
O O5 0.500000 0.656522 0.076445
O O6 0.250000 0.655178 0.250000
O O7 0.252570 0.705275 0.005529
O O8 0.750000 0.750000 0.750000
O O9 0.000000 0.750000 0.923061
#
# Coordination Sequence:
#
# PCOD9539880 Si02
#       4
#    16  16   8   8
#     4  11  24  43  67 101 140 182 235 286 343 410
#     4  12  26  46  73 104 140 183 232 282 345 410
#     4  12  27  50  77 106 142 176 224 282 345 412
#     4  10  22  40  68  96 140 182 236 282 348 398
#
# _framework density 21.703455000000002
#
# number of rings (size 3 to 8) (size 9 to 14) (size 15 to 20)
#    0.000    0.667    1.667    7.000    2.333    4.000 
#    0.000    8.333    0.000    0.000    0.000    0.000 
#    0.000    0.000    0.000    0.000    0.000    0.000 
#
# Total GULP energy -133794.397515 kJ/mol
# GULP energy per Si atom -5574.766563 kJ/mol
# Density = 2.165406 g / cm^3
# Si number density = 21.703455 Si / 1000 Ang^3
#
#
#
# Elastic Constant Matrix: (Units=GPa)
#
#
# Indices 1 2 3 4 5 6 
#
# 1 147.7416 60.5343 42.0581 -0.0001 0.0000 0.0000
# 2 60.5343 216.0040 31.3485 -0.0002 0.0000 -0.0001
# 3 42.0581 31.3485 56.1406 -0.0009 0.0001 0.0000
# 4 -0.0001 -0.0002 -0.0009 36.5209 0.0000 -0.0002
# 5 0.0000 0.0000 0.0001 0.0000 29.9653 0.0003
# 6 0.0000 -0.0001 0.0000 -0.0002 0.0003 131.0670
#
#
#
# Elastic Compliance Matrix: (Units=1/GPa)
#
#
# Indices 1 2 3 4 5 6 
#
# 1 0.009148 -0.001707 -0.005900 0.000000 0.000000 0.000000
# 2 -0.001707 0.005356 -0.001712 0.000000 0.000000 0.000000
# 3 -0.005900 -0.001712 0.023188 0.000001 0.000000 0.000000
# 4 0.000000 0.000000 0.000001 0.027382 0.000000 0.000000
# 5 0.000000 0.000000 0.000000 0.000000 0.033372 0.000000
# 6 0.000000 0.000000 0.000000 0.000000 0.000000 0.007630
#
#
# Mechanical properties :
#
#
# Convention : Reuss Voigt Hill
#
# Bulk Modulus (GPa) = 52.48147 76.41867 64.45007
# Shear Modulus (GPa) = 38.14913 58.57366 48.36140
#
# Velocity S-wave (km/s) = 4.19709 5.20065 4.72559
# Velocity P-wave (km/s) = 6.90805 8.44684 7.71590
#
# Compressibility (1/GPa) = 0.01905434
#
# Stress axis : x y z
#
# Youngs Moduli (GPa) = 109.31836 186.68975 43.12565
#
# Poissons Ratio (x) = 0.31875 0.25442
# Poissons Ratio (y) = 0.18665 0.07383
# Poissons Ratio (z) = 0.64493 0.31960
#
# Static dielectric constant tensor:
#      x y z
#    x 1.832980 0.000000 0.000000 
#    y 0.000000 1.753060 0.000000 
#    z 0.000000 0.000000 1.773680 
# 
# From -- ./inp_files/6135.got.cif
#   From: 2010.05.17/outbox.cif.g08.bks.cpg/sg74_4_cif.got.tgz:6135.got - 2010.06.03 17:57:02.
