data_PCOD9539580
_publ_section_title
;
Structure prediction by ZEFSAII (Michael W. Deem and Ramdas Pophale) SiO2 
 PCOD9539580
Probable space group: I M M A
;
_chemical_formula_sum "Si O2"
_cell_formula_units_Z 48
_cell_length_a 27.706773
_cell_length_b 12.420067
_cell_length_c 5.540423
_cell_angle_alpha 90.000000
_cell_angle_beta 90.000000
_cell_angle_gamma 90.000000
_cell_volume 1906.570235
_symmetry_space_group_name_H-M "I M M A"
_symmetry_group_IT_number 74
_symmetry_cell_setting 'orthorhombic'
loop_
_space_group_symop_operation_xyz
x,y,z
-x,1/2-y,z
x,-y,-z
-x,1/2+y,-z
-x,-y,-z
x,1/2+y,-z
-x,y,z
x,1/2-y,z
1/2+x,1/2+y,1/2+z
1/2-x,-y,1/2+z
1/2+x,1/2-y,1/2-z
1/2-x,y,1/2-z
1/2-x,1/2-y,1/2-z
1/2+x,y,1/2-z
1/2-x,1/2+y,1/2+z
1/2+x,-y,1/2+z
loop_
_atom_site_type_symbol
_atom_site_label
_atom_site_fract_x
_atom_site_fract_y
_atom_site_fract_z
Si Si1 0.107545 0.375296 0.146993
Si Si2 0.750000 0.065352 0.750000
Si Si3 0.855775 0.627118 0.357797
Si Si4 0.000000 0.623399 0.890638
O O1 0.121994 0.250000 0.115185
O O2 0.140601 0.415884 0.366671
O O3 0.112480 0.414779 0.869105
O O4 0.052088 0.377735 0.235150
O O5 0.800326 0.126881 0.723281
O O6 0.745187 0.000000 0.500000
O O7 0.873024 0.750000 0.389675
O O8 0.000000 0.750000 0.005684
O O9 0.000000 0.500000 0.000000
#
# Coordination Sequence:
#
# PCOD9539580 Si02
#       4
#    16   8  16   8
#     4   9  20  38  64  94 126 166 219 276 335 400
#     4  12  25  38  57  90 126 164 212 268 331 402
#     4  10  21  41  64  89 123 168 217 271 333 402
#     4  10  22  42  68 102 140 184 234 288 348 416
#
# _framework density 25.176100000000002
#
# number of rings (size 3 to 8) (size 9 to 14) (size 15 to 20)
#    0.000    2.000    0.000    2.500    0.000    5.333 
#    0.000   15.000    0.000    0.000    0.000    2.333 
#    0.000    0.000    0.000    0.000    0.000    0.000 
#
# Total GULP energy -133647.651618 kJ/mol
# GULP energy per Si atom -5568.652151 kJ/mol
# Density = 2.511880 g / cm^3
# Si number density = 25.176100 Si / 1000 Ang^3
#
#
#
# Elastic Constant Matrix: (Units=GPa)
#
#
# Indices 1 2 3 4 5 6 
#
# 1 141.6669 -7.9731 36.8814 0.0000 0.0000 0.0000
# 2 -7.9731 74.3236 37.7953 0.0000 0.0000 0.0000
# 3 36.8814 37.7953 169.5806 0.0000 0.0000 -0.0002
# 4 0.0000 0.0000 0.0000 46.2922 0.0000 -0.0001
# 5 0.0000 0.0000 0.0000 0.0000 14.7762 0.0000
# 6 0.0000 0.0000 -0.0002 -0.0001 0.0000 19.4562
#
#
#
# Elastic Compliance Matrix: (Units=1/GPa)
#
#
# Indices 1 2 3 4 5 6 
#
# 1 0.007712 0.001895 -0.002100 0.000000 0.000000 0.000000
# 2 0.001895 0.015640 -0.003898 0.000000 0.000000 0.000000
# 3 -0.002100 -0.003898 0.007222 0.000000 0.000000 0.000000
# 4 0.000000 0.000000 0.000000 0.021602 0.000000 0.000000
# 5 0.000000 0.000000 0.000000 0.000000 0.067676 0.000000
# 6 0.000000 0.000000 0.000000 0.000000 0.000000 0.051397
#
#
# Mechanical properties :
#
#
# Convention : Reuss Voigt Hill
#
# Bulk Modulus (GPa) = 44.70384 57.66427 51.18406
# Shear Modulus (GPa) = 26.75059 37.36276 32.05667
#
# Velocity S-wave (km/s) = 3.26320 3.85652 3.57220
# Velocity P-wave (km/s) = 5.65623 6.54098 6.11463
#
# Compressibility (1/GPa) = 0.02236944
#
# Stress axis : x y z
#
# Youngs Moduli (GPa) = 129.66677 63.93793 138.46007
#
# Poissons Ratio (x) = -0.12116 0.29071
# Poissons Ratio (y) = -0.24572 0.53971
# Poissons Ratio (z) = 0.27225 0.24923
#
# Static dielectric constant tensor:
#      x y z
#    x 1.863230 0.000000 0.000000 
#    y 0.000000 2.237940 0.000000 
#    z 0.000000 0.000000 2.094920 
# 
# From -- ./inp_files/4163.got.cif
#   From: 2010.05.17/outbox.cif.g08.bks.cpg/sg74_3_cif.got.tgz:4163.got - 2010.06.03 17:57:02.
