data_PCOD9539347
_publ_section_title
;
Structure prediction by ZEFSAII (Michael W. Deem and Ramdas Pophale) SiO2 
 PCOD9539347
Probable space group: I M M A
;
_chemical_formula_sum "Si O2"
_cell_formula_units_Z 88
_cell_length_a 28.426833
_cell_length_b 8.248523
_cell_length_c 18.127313
_cell_angle_alpha 90.000000
_cell_angle_beta 90.000000
_cell_angle_gamma 90.000000
_cell_volume 4250.481219
_symmetry_space_group_name_H-M "I M M A"
_symmetry_group_IT_number 74
_symmetry_cell_setting 'orthorhombic'
loop_
_space_group_symop_operation_xyz
x,y,z
-x,1/2-y,z
x,-y,-z
-x,1/2+y,-z
-x,-y,-z
x,1/2+y,-z
-x,y,z
x,1/2-y,z
1/2+x,1/2+y,1/2+z
1/2-x,-y,1/2+z
1/2+x,1/2-y,1/2-z
1/2-x,y,1/2-z
1/2-x,1/2-y,1/2-z
1/2+x,y,1/2-z
1/2-x,1/2+y,1/2+z
1/2+x,-y,1/2+z
loop_
_atom_site_type_symbol
_atom_site_label
_atom_site_fract_x
_atom_site_fract_y
_atom_site_fract_z
Si Si1 0.446782 0.056538 0.161959
Si Si2 0.855989 0.553899 0.582035
Si Si3 0.500000 0.556042 0.583859
Si Si4 0.587197 0.440998 0.680419
Si Si5 0.734739 0.947783 0.831494
Si Si6 0.826621 0.556062 0.916866
O O1 0.500000 0.989811 0.156924
O O2 0.450080 0.250000 0.151650
O O3 0.407800 0.993260 0.104895
O O4 0.425233 0.026499 0.242798
O O5 0.843469 0.500000 0.500000
O O6 0.856489 0.750000 0.584251
O O7 0.816238 0.498359 0.640080
O O8 0.500000 0.750000 0.588812
O O9 0.500000 0.500000 0.500000
O O10 0.545736 0.487776 0.624375
O O11 0.587339 0.250000 0.693286
O O12 0.635518 0.493175 0.641954
O O13 0.733872 0.750000 0.829401
O O14 0.750000 0.002789 0.750000
O O15 0.774940 0.996302 0.889705
O O16 0.828477 0.750000 0.915640
O O17 0.836763 0.500000 0.000000
#
# Coordination Sequence:
#
# PCOD9539347 Si02
#       6
#    16  16   8  16  16  16
#     4  10  21  39  63  88 117 158 205 251 302 361
#     4  10  21  38  61  90 123 160 203 252 306 362
#     4  12  24  40  60  84 117 156 199 246 296 354
#     4  12  24  39  59  87 119 154 198 248 300 356
#     4   9  18  35  60  87 116 155 203 249 298 358
#     4  11  22  37  58  84 118 159 200 246 297 355
#
# _framework density 20.703536
#
# number of rings (size 3 to 8) (size 9 to 14) (size 15 to 20)
#    0.000    1.455    0.909    5.182    0.000    4.000 
#    0.000    0.909    0.000    3.818    0.000    0.000 
#    0.000    0.000    0.000    0.000    0.000    0.000 
#
# Total GULP energy -245967.918786 kJ/mol
# GULP energy per Si atom -5590.179972 kJ/mol
# Density = 2.065641 g / cm^3
# Si number density = 20.703536 Si / 1000 Ang^3
#
#
#
# Elastic Constant Matrix: (Units=GPa)
#
#
# Indices 1 2 3 4 5 6 
#
# 1 148.0776 14.0560 41.0301 0.0000 0.0000 0.0000
# 2 14.0560 15.9001 -14.0358 0.0000 0.0000 0.0000
# 3 41.0301 -14.0358 92.8020 0.0000 0.0000 0.0000
# 4 0.0000 0.0000 0.0000 26.0585 0.0000 0.0000
# 5 0.0000 0.0000 0.0000 0.0000 11.0444 0.0000
# 6 0.0000 0.0000 0.0000 0.0000 0.0000 -63.6354
#
#
#
# Elastic Compliance Matrix: (Units=1/GPa)
#
#
# Indices 1 2 3 4 5 6 
#
# 1 0.009986 -0.014686 -0.006636 0.000000 0.000000 0.000000
# 2 -0.014686 0.094181 0.020737 0.000000 0.000000 0.000000
# 3 -0.006636 0.020737 0.016846 0.000000 0.000000 0.000000
# 4 0.000000 0.000000 0.000000 0.038375 0.000000 0.000000
# 5 0.000000 0.000000 0.000000 0.000000 0.090544 0.000000
# 6 0.000000 0.000000 0.000000 0.000000 0.000000 -0.015715
#
#
# Mechanical properties :
#
#
# Convention : Reuss Voigt Hill
#
# Bulk Modulus (GPa) = 8.34421 37.65336 22.99879
# Shear Modulus (GPa) = 18.15968 9.07546 13.61757
#
# Velocity S-wave (km/s) = 2.96485 2.09596 2.56743
# Velocity P-wave (km/s) = 3.96983 4.90753 4.46337
#
# Compressibility (1/GPa) = 0.11984358
#
# Stress axis : x y z
#
# Youngs Moduli (GPa) = 100.13955 10.61785 59.36085
#
# Poissons Ratio (x) = 0.15593 0.39393
# Poissons Ratio (y) = 1.47065 -1.23099
# Poissons Ratio (z) = 0.66455 -0.22019
#
# Static dielectric constant tensor:
#      x y z
#    x 1.753370 0.000000 0.000000 
#    y 0.000000 1.724590 0.000000 
#    z 0.000000 0.000000 1.587880 
# 
# From -- ./inp_files/47008.got.cif
#   From: 2010.05.17/outbox.cif.g08.bks.cpg/sg74_24_cif.got.tgz:47008.got - 2010.06.03 17:57:02.
