data_PCOD9539927
_publ_section_title
;
Structure prediction by ZEFSAII (Michael W. Deem and Ramdas Pophale) SiO2 
 PCOD9539927
Probable space group: I M M A
;
_chemical_formula_sum "Si O2"
_cell_formula_units_Z 96
_cell_length_a 21.152842
_cell_length_b 13.778287
_cell_length_c 16.233329
_cell_angle_alpha 90.000000
_cell_angle_beta 90.000000
_cell_angle_gamma 90.000000
_cell_volume 4731.202567
_symmetry_space_group_name_H-M "I M M A"
_symmetry_group_IT_number 74
_symmetry_cell_setting 'orthorhombic'
loop_
_space_group_symop_operation_xyz
x,y,z
-x,1/2-y,z
x,-y,-z
-x,1/2+y,-z
-x,-y,-z
x,1/2+y,-z
-x,y,z
x,1/2-y,z
1/2+x,1/2+y,1/2+z
1/2-x,-y,1/2+z
1/2+x,1/2-y,1/2-z
1/2-x,y,1/2-z
1/2-x,1/2-y,1/2-z
1/2+x,y,1/2-z
1/2-x,1/2+y,1/2+z
1/2+x,-y,1/2+z
loop_
_atom_site_type_symbol
_atom_site_label
_atom_site_fract_x
_atom_site_fract_y
_atom_site_fract_z
Si Si1 0.367106 0.250000 0.903328
Si Si2 0.927302 0.109815 0.471660
Si Si3 0.250000 0.442067 0.250000
Si Si4 0.779217 0.250000 0.878033
Si Si5 0.701241 0.961062 0.415154
Si Si6 0.601428 0.750000 0.275520
Si Si7 0.070171 0.968713 0.161432
Si Si8 0.887274 0.361817 0.282819
O O1 0.295598 0.250000 0.873275
O O2 0.409195 0.250000 0.821720
O O3 0.383181 0.338687 0.962057
O O4 0.902623 0.125845 0.379325
O O5 0.000000 0.144701 0.475706
O O6 0.928046 0.000000 0.500000
O O7 0.262497 0.507210 0.331706
O O8 0.187211 0.379605 0.265981
O O9 0.798160 0.153529 0.924430
O O10 0.823751 0.250000 0.797940
O O11 0.628503 0.990578 0.399151
O O12 0.728390 0.000000 0.500000
O O13 0.577537 0.644843 0.309242
O O14 0.000000 0.979439 0.126731
O O15 0.078930 0.049295 0.234001
O O16 0.904153 0.250000 0.259086
#
# Coordination Sequence:
#
# PCOD9539927 Si02
#       8
#     8  16   8   8  16   8  16  16
#     4  12  24  34  61  91 121 165 210 266 324 384
#     4  11  25  40  56  87 128 170 218 262 320 392
#     4  10  25  41  68  94 130 171 222 265 328 404
#     4  10  25  38  64  94 127 165 211 269 333 388
#     4  10  24  43  65  97 133 166 213 274 325 390
#     4  10  22  42  63  93 130 160 216 277 334 391
#     4  10  22  41  67  94 121 170 217 265 328 387
#     4  11  23  41  62  90 131 174 215 271 324 393
#
# _framework density 20.290824000000001
#
# number of rings (size 3 to 8) (size 9 to 14) (size 15 to 20)
#    0.000    1.500    0.833    2.500   11.667    4.000 
#    6.000    0.000    0.000    0.000    0.000    0.000 
#    0.000    0.000    0.000    0.000    0.000    0.000 
#
# Total GULP energy -267754.264587 kJ/mol
# GULP energy per Si atom -5578.213846 kJ/mol
# Density = 2.024464 g / cm^3
# Si number density = 20.290824 Si / 1000 Ang^3
#
#
#
# Elastic Constant Matrix: (Units=GPa)
#
#
# Indices 1 2 3 4 5 6 
#
# 1 91.1398 11.5548 5.0412 0.0000 0.0000 0.0000
# 2 11.5548 137.5321 34.4888 0.0000 0.0000 0.0000
# 3 5.0412 34.4888 96.8047 0.0000 0.0000 0.0000
# 4 0.0000 0.0000 0.0000 -439.9284 0.0000 0.0000
# 5 0.0000 0.0000 0.0000 0.0000 8.6660 0.0000
# 6 0.0000 0.0000 0.0000 0.0000 0.0000 20.1458
#
#
#
# Elastic Compliance Matrix: (Units=1/GPa)
#
#
# Indices 1 2 3 4 5 6 
#
# 1 0.011097 -0.000865 -0.000270 0.000000 0.000000 0.000000
# 2 -0.000865 0.008052 -0.002824 0.000000 0.000000 0.000000
# 3 -0.000270 -0.002824 0.011350 0.000000 0.000000 0.000000
# 4 0.000000 0.000000 0.000000 -0.002273 0.000000 0.000000
# 5 0.000000 0.000000 0.000000 0.000000 0.115393 0.000000
# 6 0.000000 0.000000 0.000000 0.000000 0.000000 0.049638
#
#
# Mechanical properties :
#
#
# Convention : Reuss Voigt Hill
#
# Bulk Modulus (GPa) = 44.28219 47.51626 45.89923
# Shear Modulus (GPa) = 23.95780 -63.93054 -19.98637
#
# Velocity S-wave (km/s) = 3.43989 -5.61921 -3.14187
# Velocity P-wave (km/s) = 6.13582 4.31651 3.08351
#
# Compressibility (1/GPa) = 0.02258244
#
# Stress axis : x y z
#
# Youngs Moduli (GPa) = 90.11691 124.19675 88.10503
#
# Poissons Ratio (x) = 0.10738 0.02377
# Poissons Ratio (y) = 0.07792 0.24877
# Poissons Ratio (z) = 0.02432 0.35068
#
# Static dielectric constant tensor:
#      x y z
#    x 1.738610 0.000000 0.000000 
#    y 0.000000 1.736170 0.000000 
#    z 0.000000 0.000000 1.708250 
# 
# From -- ./inp_files/35363.got.cif
#   From: 2010.05.17/outbox.cif.g08.bks.cpg/sg74_18_cif.got.tgz:35363.got - 2010.06.03 17:57:02.
