data_PCOD9539579
_publ_section_title
;
Structure prediction by ZEFSAII (Michael W. Deem and Ramdas Pophale) SiO2 
 PCOD9539579
Probable space group: I M M A
;
_chemical_formula_sum "Si O2"
_cell_formula_units_Z 64
_cell_length_a 17.964127
_cell_length_b 19.336447
_cell_length_c 8.162872
_cell_angle_alpha 90.000000
_cell_angle_beta 90.000000
_cell_angle_gamma 90.000000
_cell_volume 2835.474724
_symmetry_space_group_name_H-M "I M M A"
_symmetry_group_IT_number 74
_symmetry_cell_setting 'orthorhombic'
loop_
_space_group_symop_operation_xyz
x,y,z
-x,1/2-y,z
x,-y,-z
-x,1/2+y,-z
-x,-y,-z
x,1/2+y,-z
-x,y,z
x,1/2-y,z
1/2+x,1/2+y,1/2+z
1/2-x,-y,1/2+z
1/2+x,1/2-y,1/2-z
1/2-x,y,1/2-z
1/2-x,1/2-y,1/2-z
1/2+x,y,1/2-z
1/2-x,1/2+y,1/2+z
1/2+x,-y,1/2+z
loop_
_atom_site_type_symbol
_atom_site_label
_atom_site_fract_x
_atom_site_fract_y
_atom_site_fract_z
Si Si1 0.893059 0.419299 0.616528
Si Si2 0.263590 0.065457 0.436556
Si Si3 0.324443 0.174255 0.634449
Si Si4 0.000000 0.522603 0.804020
Si Si5 0.500000 0.162807 0.126134
O O1 0.811345 0.433784 0.544914
O O2 0.883388 0.372409 0.775387
O O3 0.933305 0.487768 0.690504
O O4 0.932311 0.368314 0.484763
O O5 0.250000 0.054890 0.250000
O O6 0.302682 0.137448 0.467869
O O7 0.309997 0.000000 0.500000
O O8 0.352601 0.250000 0.609667
O O9 0.250000 0.176407 0.750000
O O10 0.000000 0.606838 0.779592
O O11 0.000000 0.500000 0.000000
O O12 0.500000 0.250000 0.143762
#
# Coordination Sequence:
#
# PCOD9539579 Si02
#       5
#    16  16  16   8   8
#     4  10  21  41  64  88 122 161 205 252 304 365
#     4  11  22  36  58  88 121 160 202 245 298 362
#     4   9  19  36  59  88 121 155 194 247 309 367
#     4  11  25  43  65  90 121 166 214 257 302 364
#     4  11  23  41  66  92 121 158 204 259 310 360
#
# _framework density 22.571176000000001
#
# number of rings (size 3 to 8) (size 9 to 14) (size 15 to 20)
#    0.000    1.750    0.000    6.000    0.000    6.500 
#    0.000    6.250    0.000    0.000    0.000    0.000 
#    0.000    0.000    0.000    0.000    0.000    0.000 
#
# Total GULP energy -178203.585752 kJ/mol
# GULP energy per Si atom -5568.862055 kJ/mol
# Density = 2.251980 g / cm^3
# Si number density = 22.571176 Si / 1000 Ang^3
#
#
#
# Elastic Constant Matrix: (Units=GPa)
#
#
# Indices 1 2 3 4 5 6 
#
# 1 33.5761 20.3162 -5.3831 0.0000 0.0000 0.0000
# 2 20.3162 204.8309 47.9468 0.0000 0.0000 0.0000
# 3 -5.3831 47.9468 128.5262 0.0000 0.0000 0.0000
# 4 0.0000 0.0000 0.0000 31.7037 0.0000 0.0000
# 5 0.0000 0.0000 0.0000 0.0000 10.5283 0.0000
# 6 0.0000 0.0000 0.0000 0.0000 0.0000 33.0835
#
#
#
# Elastic Compliance Matrix: (Units=1/GPa)
#
#
# Indices 1 2 3 4 5 6 
#
# 1 0.032590 -0.003892 0.002817 0.000000 0.000000 0.000000
# 2 -0.003892 0.005814 -0.002332 0.000000 0.000000 0.000000
# 3 0.002817 -0.002332 0.008768 0.000000 0.000000 0.000000
# 4 0.000000 0.000000 0.000000 0.031542 0.000000 0.000000
# 5 0.000000 0.000000 0.000000 0.000000 0.094982 0.000000
# 6 0.000000 0.000000 0.000000 0.000000 0.000000 0.030227
#
#
# Mechanical properties :
#
#
# Convention : Reuss Voigt Hill
#
# Bulk Modulus (GPa) = 24.77817 54.74367 39.76092
# Shear Modulus (GPa) = 22.30261 35.33330 28.81795
#
# Velocity S-wave (km/s) = 3.14682 3.96083 3.57705
# Velocity P-wave (km/s) = 4.91985 6.72488 5.89190
#
# Compressibility (1/GPa) = 0.04035810
#
# Stress axis : x y z
#
# Youngs Moduli (GPa) = 30.68472 172.00076 114.04588
#
# Poissons Ratio (x) = 0.66938 -0.32124
# Poissons Ratio (y) = 0.11942 0.26594
# Poissons Ratio (z) = -0.08643 0.40109
#
# Static dielectric constant tensor:
#      x y z
#    x 1.951290 0.000000 0.000000 
#    y 0.000000 1.874710 0.000000 
#    z 0.000000 0.000000 1.822930 
# 
# From -- ./inp_files/11845.got.cif
#   From: 2010.05.17/outbox.cif.g08.bks.cpg/sg74_6_cif.got.tgz:11845.got - 2010.06.03 17:57:02.
