data_PCOD9539187
_publ_section_title
;
Structure prediction by ZEFSAII (Michael W. Deem and Ramdas Pophale) SiO2 
 PCOD9539187
Probable space group: I M M A
;
_chemical_formula_sum "Si O2"
_cell_formula_units_Z 88
_cell_length_a 9.030957
_cell_length_b 24.858279
_cell_length_c 20.219241
_cell_angle_alpha 90.000000
_cell_angle_beta 90.000000
_cell_angle_gamma 90.000000
_cell_volume 4539.099275
_symmetry_space_group_name_H-M "I M M A"
_symmetry_group_IT_number 74
_symmetry_cell_setting 'orthorhombic'
loop_
_space_group_symop_operation_xyz
x,y,z
-x,1/2-y,z
x,-y,-z
-x,1/2+y,-z
-x,-y,-z
x,1/2+y,-z
-x,y,z
x,1/2-y,z
1/2+x,1/2+y,1/2+z
1/2-x,-y,1/2+z
1/2+x,1/2-y,1/2-z
1/2-x,y,1/2-z
1/2-x,1/2-y,1/2-z
1/2+x,y,1/2-z
1/2-x,1/2+y,1/2+z
1/2+x,-y,1/2+z
loop_
_atom_site_type_symbol
_atom_site_label
_atom_site_fract_x
_atom_site_fract_y
_atom_site_fract_z
Si Si1 0.672788 0.833113 0.437731
Si Si2 0.829636 0.037464 0.935324
Si Si3 0.175510 0.373638 0.184555
Si Si4 0.674129 0.509573 0.813770
Si Si5 0.177036 0.750000 0.177165
Si Si6 0.166955 0.811702 0.571551
O O1 0.500000 0.818815 0.450468
O O2 0.680810 0.898060 0.441884
O O3 0.712690 0.802467 0.369120
O O4 0.776616 0.813375 0.496654
O O5 0.000000 0.025617 0.913877
O O6 0.713239 0.021462 0.879881
O O7 0.805217 0.000000 0.000000
O O8 0.250000 0.348246 0.250000
O O9 0.246411 0.432772 0.179583
O O10 0.221946 0.343238 0.118586
O O11 0.000000 0.376537 0.192218
O O12 0.500000 0.515965 0.803652
O O13 0.750000 0.482593 0.750000
O O14 0.250000 0.750000 0.250000
O O15 0.000000 0.750000 0.186939
O O16 0.163795 0.750000 0.593343
O O17 0.000000 0.834149 0.576865
#
# Coordination Sequence:
#
# PCOD9539187 Si02
#       6
#    16  16  16  16   8  16
#     4  10  21  39  62  87 120 159 201 251 307 369
#     4  10  21  37  59  89 122 157 200 250 306 366
#     4  11  22  38  60  85 118 158 200 246 294 350
#     4  11  22  38  60  85 118 156 196 243 295 357
#     4  10  22  40  62  88 119 158 207 258 314 370
#     4  11  23  38  59  87 119 155 197 245 296 355
#
# _framework density 19.387108000000001
#
# number of rings (size 3 to 8) (size 9 to 14) (size 15 to 20)
#    0.000    1.455    0.909    6.000    0.000    5.455 
#    0.000    1.818    0.000    0.000    0.000    0.000 
#    0.000    0.000    0.000    0.000    0.000    0.000 
#
# Total GULP energy -245584.169791 kJ/mol
# GULP energy per Si atom -5581.458404 kJ/mol
# Density = 1.934298 g / cm^3
# Si number density = 19.387108 Si / 1000 Ang^3
#
#
#
# Elastic Constant Matrix: (Units=GPa)
#
#
# Indices 1 2 3 4 5 6 
#
# 1 143.7313 29.8384 51.3040 0.0000 0.0000 0.0000
# 2 29.8384 74.4330 31.2104 0.0000 0.0000 0.0000
# 3 51.3040 31.2104 97.6319 0.0000 0.0000 0.0000
# 4 0.0000 0.0000 0.0000 26.1663 0.0000 0.0000
# 5 0.0000 0.0000 0.0000 0.0000 39.3838 0.0000
# 6 0.0000 0.0000 0.0000 0.0000 0.0000 -2.2084
#
#
#
# Elastic Compliance Matrix: (Units=1/GPa)
#
#
# Indices 1 2 3 4 5 6 
#
# 1 0.008774 -0.001829 -0.004026 0.000000 0.000000 0.000000
# 2 -0.001829 0.015896 -0.004120 0.000000 0.000000 0.000000
# 3 -0.004026 -0.004120 0.013675 0.000000 0.000000 0.000000
# 4 0.000000 0.000000 0.000000 0.038217 0.000000 0.000000
# 5 0.000000 0.000000 0.000000 0.000000 0.025391 0.000000
# 6 0.000000 0.000000 0.000000 0.000000 0.000000 -0.452817
#
#
# Mechanical properties :
#
#
# Convention : Reuss Voigt Hill
#
# Bulk Modulus (GPa) = 54.36427 60.05575 57.21001
# Shear Modulus (GPa) = -15.39498 26.23124 5.41813
#
# Velocity S-wave (km/s) = -2.82101 3.68234 1.67355
# Velocity P-wave (km/s) = 4.18229 7.00884 5.77129
#
# Compressibility (1/GPa) = 0.01839444
#
# Stress axis : x y z
#
# Youngs Moduli (GPa) = 113.97029 62.90946 73.12475
#
# Poissons Ratio (x) = 0.11508 0.29440
# Poissons Ratio (y) = 0.20848 0.30129
# Poissons Ratio (z) = 0.45884 0.25920
#
# Static dielectric constant tensor:
#      x y z
#    x 1.663570 0.000000 0.000000 
#    y 0.000000 1.721190 0.000000 
#    z 0.000000 0.000000 1.709080 
# 
# From -- ./inp_files/48751.got.cif
#   From: 2010.05.17/outbox.cif.g08.bks.cpg/sg74_25_cif.got.tgz:48751.got - 2010.06.03 17:57:02.
