data_PCOD9539497
_publ_section_title
;
Structure prediction by ZEFSAII (Michael W. Deem and Ramdas Pophale) SiO2 
 PCOD9539497
Probable space group: I M M A
;
_chemical_formula_sum "Si O2"
_cell_formula_units_Z 56
_cell_length_a 10.048906
_cell_length_b 11.125024
_cell_length_c 25.191581
_cell_angle_alpha 90.000000
_cell_angle_beta 90.000000
_cell_angle_gamma 90.000000
_cell_volume 2816.275678
_symmetry_space_group_name_H-M "I M M A"
_symmetry_group_IT_number 74
_symmetry_cell_setting 'orthorhombic'
loop_
_space_group_symop_operation_xyz
x,y,z
-x,1/2-y,z
x,-y,-z
-x,1/2+y,-z
-x,-y,-z
x,1/2+y,-z
-x,y,z
x,1/2-y,z
1/2+x,1/2+y,1/2+z
1/2-x,-y,1/2+z
1/2+x,1/2-y,1/2-z
1/2-x,y,1/2-z
1/2-x,1/2-y,1/2-z
1/2+x,y,1/2-z
1/2-x,1/2+y,1/2+z
1/2+x,-y,1/2+z
loop_
_atom_site_type_symbol
_atom_site_label
_atom_site_fract_x
_atom_site_fract_y
_atom_site_fract_z
Si Si1 0.339238 0.750000 0.194965
Si Si2 0.500000 0.112424 0.342365
Si Si3 0.846321 0.611694 0.533033
Si Si4 0.715063 0.496576 0.145740
Si Si5 0.000000 0.617295 0.716088
O O1 0.500000 0.750000 0.207231
O O2 0.250000 0.750000 0.250000
O O3 0.304700 0.863658 0.157875
O O4 0.500000 0.250000 0.362882
O O5 0.500000 0.118944 0.278807
O O6 0.367501 0.042159 0.357108
O O7 0.783036 0.500000 0.500000
O O8 0.792075 0.750000 0.529981
O O9 0.846273 0.562017 0.593026
O O10 0.000000 0.621340 0.514894
O O11 0.633888 0.441987 0.195017
O O12 0.000000 0.750000 0.693470
#
# Coordination Sequence:
#
# PCOD9539497 Si02
#       5
#     8   8  16  16   8
#     4  12  26  42  66  96 138 180 224 272 325 397
#     4  11  24  39  62  95 129 171 212 267 328 401
#     4  10  21  39  66  94 126 164 218 281 339 393
#     4  12  24  40  64  91 132 170 220 267 332 387
#     4  11  20  37  62  89 125 163 214 265 320 385
#
# _framework density 19.884416999999999
#
# number of rings (size 3 to 8) (size 9 to 14) (size 15 to 20)
#    0.000    0.857    2.857    5.143    4.000    2.286 
#    0.000    0.714    0.000    0.000    0.000    0.000 
#    0.000    0.000    0.000    0.000    0.000    0.000 
#
# Total GULP energy -156088.324200 kJ/mol
# GULP energy per Si atom -5574.583007 kJ/mol
# Density = 1.983916 g / cm^3
# Si number density = 19.884417 Si / 1000 Ang^3
#
#
#
# Elastic Constant Matrix: (Units=GPa)
#
#
# Indices 1 2 3 4 5 6 
#
# 1 121.5094 41.0629 -7.3155 0.0000 0.0000 0.0000
# 2 41.0629 217.4786 29.2131 0.0000 0.0000 0.0000
# 3 -7.3155 29.2131 45.5299 0.0000 0.0000 0.0000
# 4 0.0000 0.0000 0.0000 19.8492 0.0000 0.0000
# 5 0.0000 0.0000 0.0000 0.0000 -2.2957 0.0000
# 6 0.0000 0.0000 0.0000 0.0000 0.0000 17.5415
#
#
#
# Elastic Compliance Matrix: (Units=1/GPa)
#
#
# Indices 1 2 3 4 5 6 
#
# 1 0.009108 -0.002097 0.002809 0.000000 0.000000 0.000000
# 2 -0.002097 0.005515 -0.003875 0.000000 0.000000 0.000000
# 3 0.002809 -0.003875 0.024901 0.000000 0.000000 0.000000
# 4 0.000000 0.000000 0.000000 0.050380 0.000000 0.000000
# 5 0.000000 0.000000 0.000000 0.000000 -0.435602 0.000000
# 6 0.000000 0.000000 0.000000 0.000000 0.000000 0.057008
#
#
# Mechanical properties :
#
#
# Convention : Reuss Voigt Hill
#
# Bulk Modulus (GPa) = 30.12344 56.71544 43.41944
# Shear Modulus (GPa) = -18.42984 28.45617 5.01316
#
# Velocity S-wave (km/s) = -3.04772 3.78706 1.58954
# Velocity P-wave (km/s) = 1.67253 6.90702 5.02515
#
# Compressibility (1/GPa) = 0.03319674
#
# Stress axis : x y z
#
# Youngs Moduli (GPa) = 109.79903 181.33593 40.15851
#
# Poissons Ratio (x) = 0.38025 -0.11280
# Poissons Ratio (y) = 0.23024 0.15562
# Poissons Ratio (z) = -0.30840 0.70272
#
# Static dielectric constant tensor:
#      x y z
#    x 1.715100 0.000000 0.000000 
#    y 0.000000 1.902460 0.000000 
#    z 0.000000 0.000000 1.702880 
# 
# From -- ./inp_files/63294.got.cif
#   From: 2010.05.17/outbox.cif.g08.bks.cpg/sg74_32_cif.got.tgz:63294.got - 2010.06.03 17:57:02.
