data_PCOD9539319
_publ_section_title
;
Structure prediction by ZEFSAII (Michael W. Deem and Ramdas Pophale) SiO2 
 PCOD9539319
Probable space group: I M M A
;
_chemical_formula_sum "Si O2"
_cell_formula_units_Z 100
_cell_length_a 7.643860
_cell_length_b 27.670872
_cell_length_c 22.574250
_cell_angle_alpha 90.000000
_cell_angle_beta 90.000000
_cell_angle_gamma 90.000000
_cell_volume 4774.730898
_symmetry_space_group_name_H-M "I M M A"
_symmetry_group_IT_number 74
_symmetry_cell_setting 'orthorhombic'
loop_
_space_group_symop_operation_xyz
x,y,z
-x,1/2-y,z
x,-y,-z
-x,1/2+y,-z
-x,-y,-z
x,1/2+y,-z
-x,y,z
x,1/2-y,z
1/2+x,1/2+y,1/2+z
1/2-x,-y,1/2+z
1/2+x,1/2-y,1/2-z
1/2-x,y,1/2-z
1/2-x,1/2-y,1/2-z
1/2+x,y,1/2-z
1/2-x,1/2+y,1/2+z
1/2+x,-y,1/2+z
loop_
_atom_site_type_symbol
_atom_site_label
_atom_site_fract_x
_atom_site_fract_y
_atom_site_fract_z
Si Si1 0.802298 0.385947 0.408517
Si Si2 0.205532 0.804104 0.816090
Si Si3 0.000000 0.750000 0.362125
Si Si4 0.711597 0.822373 0.317591
Si Si5 0.705146 0.570132 0.346800
Si Si6 0.290653 0.034418 0.315404
Si Si7 0.212781 0.554569 0.483198
O O1 0.741662 0.340823 0.369347
O O2 0.792821 0.431716 0.364615
O O3 0.719351 0.406259 0.469049
O O4 0.000000 0.373972 0.424290
O O5 0.284904 0.750000 0.822973
O O6 0.250000 0.822640 0.750000
O O7 0.000000 0.798706 0.815628
O O8 0.157077 0.708390 0.357780
O O9 0.500000 0.817395 0.329040
O O10 0.750000 0.806743 0.250000
O O11 0.766755 0.878528 0.323219
O O12 0.500000 0.568982 0.332624
O O13 0.779452 0.520314 0.320897
O O14 0.729964 0.567204 0.417255
O O15 0.500000 0.035369 0.325042
O O16 0.250000 0.052803 0.250000
O O17 0.269733 0.500000 0.500000
O O18 0.000000 0.554270 0.484973
#
# Coordination Sequence:
#
# PCOD9539319 Si02
#       7
#    16  16   4  16  16  16  16
#     4  11  22  37  58  88 117 155 198 244 293 354
#     4  10  21  38  61  88 118 154 195 244 297 355
#     4  12  24  40  66  94 118 174 192 272 314 372
#     4  11  23  39  62  95 125 159 210 255 316 380
#     4  10  23  39  58  87 120 155 199 249 300 362
#     4  11  22  36  55  83 121 157 190 235 296 357
#     4  10  21  38  61  86 115 158 205 246 292 356
#
# _framework density 20.943587999999998
#
# number of rings (size 3 to 8) (size 9 to 14) (size 15 to 20)
#    0.000    1.440    2.400    2.880    1.120    3.200 
#    0.000    0.000    1.760    0.000    0.000    0.000 
#    0.000    0.000    0.000    0.000    0.000    0.000 
#
# Total GULP energy -278570.223332 kJ/mol
# GULP energy per Si atom -5571.404467 kJ/mol
# Density = 2.089592 g / cm^3
# Si number density = 20.943588 Si / 1000 Ang^3
#
#
#
# Elastic Constant Matrix: (Units=GPa)
#
#
# Indices 1 2 3 4 5 6 
#
# 1 77.5236 12.2188 -20.7762 0.0000 0.0000 0.0000
# 2 12.2188 106.1759 8.3802 0.0000 0.0000 0.0000
# 3 -20.7762 8.3802 55.4246 0.0000 0.0000 0.0000
# 4 0.0000 0.0000 0.0000 20.7678 0.0000 0.0000
# 5 0.0000 0.0000 0.0000 0.0000 21.3098 0.0000
# 6 0.0000 0.0000 0.0000 0.0000 0.0000 66.7924
#
#
#
# Elastic Compliance Matrix: (Units=1/GPa)
#
#
# Indices 1 2 3 4 5 6 
#
# 1 0.014818 -0.002170 0.005883 0.000000 0.000000 0.000000
# 2 -0.002170 0.009850 -0.002303 0.000000 0.000000 0.000000
# 3 0.005883 -0.002303 0.020596 0.000000 0.000000 0.000000
# 4 0.000000 0.000000 0.000000 0.048151 0.000000 0.000000
# 5 0.000000 0.000000 0.000000 0.000000 0.046927 0.000000
# 6 0.000000 0.000000 0.000000 0.000000 0.000000 0.014972
#
#
# Mechanical properties :
#
#
# Convention : Reuss Voigt Hill
#
# Bulk Modulus (GPa) = 20.79684 26.52996 23.66340
# Shear Modulus (GPa) = 29.67002 37.72742 33.69872
#
# Velocity S-wave (km/s) = 3.76794 4.24887 4.01562
# Velocity P-wave (km/s) = 5.37414 6.06345 5.72917
#
# Compressibility (1/GPa) = 0.04808423
#
# Stress axis : x y z
#
# Youngs Moduli (GPa) = 67.48661 101.52556 48.55363
#
# Poissons Ratio (x) = 0.22026 -0.28562
# Poissons Ratio (y) = 0.14641 0.11180
# Poissons Ratio (z) = -0.39699 0.23377
#
# Static dielectric constant tensor:
#      x y z
#    x 1.811650 0.000000 0.000000 
#    y 0.000000 1.815550 0.000000 
#    z 0.000000 0.000000 1.788680 
# 
# From -- ./inp_files/49265.got.cif
#   From: 2010.05.17/outbox.cif.g08.bks.cpg/sg74_25_cif.got.tgz:49265.got - 2010.06.03 17:57:02.
