data_PCOD9539984
_publ_section_title
;
Structure prediction by ZEFSAII (Michael W. Deem and Ramdas Pophale) SiO2 
 PCOD9539984
Probable space group: I M M A
;
_chemical_formula_sum "Si O2"
_cell_formula_units_Z 52
_cell_length_a 17.810892
_cell_length_b 15.804249
_cell_length_c 8.345328
_cell_angle_alpha 90.000000
_cell_angle_beta 90.000000
_cell_angle_gamma 90.000000
_cell_volume 2349.107786
_symmetry_space_group_name_H-M "I M M A"
_symmetry_group_IT_number 74
_symmetry_cell_setting 'orthorhombic'
loop_
_space_group_symop_operation_xyz
x,y,z
-x,1/2-y,z
x,-y,-z
-x,1/2+y,-z
-x,-y,-z
x,1/2+y,-z
-x,y,z
x,1/2-y,z
1/2+x,1/2+y,1/2+z
1/2-x,-y,1/2+z
1/2+x,1/2-y,1/2-z
1/2-x,y,1/2-z
1/2-x,1/2-y,1/2-z
1/2+x,y,1/2-z
1/2-x,1/2+y,1/2+z
1/2+x,-y,1/2+z
loop_
_atom_site_type_symbol
_atom_site_label
_atom_site_fract_x
_atom_site_fract_y
_atom_site_fract_z
Si Si1 0.500000 0.000000 0.000000
Si Si2 0.392122 0.654512 0.057892
Si Si3 0.081705 0.150517 0.938620
Si Si4 0.259557 0.593423 0.561073
O O1 0.565119 0.924575 0.978428
O O2 0.416186 0.750000 0.011535
O O3 0.409584 0.643266 0.246700
O O4 0.303250 0.649533 0.025724
O O5 0.081352 0.250000 0.976737
O O6 0.000000 0.114258 0.984518
O O7 0.154616 0.112097 0.018167
O O8 0.243068 0.500000 0.500000
O O9 0.250000 0.601431 0.750000
#
# Coordination Sequence:
#
# PCOD9539984 Si02
#       4
#     4  16  16  16
#     4  12  22  40  72 108 142 184 232 288 330 426
#     4  11  23  43  72 103 142 186 232 286 345 414
#     4  10  22  44  71 100 136 180 231 285 348 416
#     4  12  26  44  69  99 138 185 236 289 351 416
#
# _framework density 22.136061999999999
#
# number of rings (size 3 to 8) (size 9 to 14) (size 15 to 20)
#    0.000    0.923    3.077    4.154    0.000    5.538 
#    2.769    0.000    0.000    0.000    0.000    0.000 
#    0.000    0.000    0.000    0.000    0.000    0.000 
#
# Total GULP energy -144826.095967 kJ/mol
# GULP energy per Si atom -5570.234460 kJ/mol
# Density = 2.208568 g / cm^3
# Si number density = 22.136062 Si / 1000 Ang^3
#
#
#
# Elastic Constant Matrix: (Units=GPa)
#
#
# Indices 1 2 3 4 5 6 
#
# 1 221.5121 59.4800 40.5305 0.0000 0.0000 0.0000
# 2 59.4800 130.3583 13.1975 0.0000 0.0000 0.0000
# 3 40.5305 13.1975 21.5674 0.0000 0.0000 0.0000
# 4 0.0000 0.0000 0.0000 7.9815 0.0000 0.0000
# 5 0.0000 0.0000 0.0000 0.0000 -98.5844 0.0000
# 6 0.0000 0.0000 0.0000 0.0000 0.0000 41.8504
#
#
#
# Elastic Compliance Matrix: (Units=1/GPa)
#
#
# Indices 1 2 3 4 5 6 
#
# 1 0.007379 -0.002093 -0.012587 0.000000 0.000000 0.000000
# 2 -0.002093 0.008771 -0.001434 0.000000 0.000000 0.000000
# 3 -0.012587 -0.001434 0.070899 0.000000 0.000000 0.000000
# 4 0.000000 0.000000 0.000000 0.125289 0.000000 0.000000
# 5 0.000000 0.000000 0.000000 0.000000 -0.010144 0.000000
# 6 0.000000 0.000000 0.000000 0.000000 0.000000 0.023895
#
#
# Mechanical properties :
#
#
# Convention : Reuss Voigt Hill
#
# Bulk Modulus (GPa) = 18.24138 66.65043 42.44591
# Shear Modulus (GPa) = 18.07713 7.59815 12.83764
#
# Velocity S-wave (km/s) = 2.86079 1.85470 2.41081
# Velocity P-wave (km/s) = 4.37842 5.89588 5.19288
#
# Compressibility (1/GPa) = 0.05482041
#
# Stress axis : x y z
#
# Youngs Moduli (GPa) = 135.51058 114.00837 14.10463
#
# Poissons Ratio (x) = 0.23859 0.17754
# Poissons Ratio (y) = 0.28359 0.02023
# Poissons Ratio (z) = 1.70571 0.16354
#
# Static dielectric constant tensor:
#      x y z
#    x 1.526390 0.000000 0.000000 
#    y 0.000000 1.798830 0.000000 
#    z 0.000000 0.000000 1.797270 
# 
# From -- ./inp_files/11582.got.cif
#   From: 2010.05.17/outbox.cif.g08.bks.cpg/sg74_6_cif.got.tgz:11582.got - 2010.06.03 17:57:02.
