data_PCOD9539185
_publ_section_title
;
Structure prediction by ZEFSAII (Michael W. Deem and Ramdas Pophale) SiO2 
 PCOD9539185
Probable space group: I M M A
;
_chemical_formula_sum "Si O2"
_cell_formula_units_Z 72
_cell_length_a 22.836750
_cell_length_b 24.550222
_cell_length_c 5.657076
_cell_angle_alpha 90.000000
_cell_angle_beta 90.000000
_cell_angle_gamma 90.000000
_cell_volume 3171.624285
_symmetry_space_group_name_H-M "I M M A"
_symmetry_group_IT_number 74
_symmetry_cell_setting 'orthorhombic'
loop_
_space_group_symop_operation_xyz
x,y,z
-x,1/2-y,z
x,-y,-z
-x,1/2+y,-z
-x,-y,-z
x,1/2+y,-z
-x,y,z
x,1/2-y,z
1/2+x,1/2+y,1/2+z
1/2-x,-y,1/2+z
1/2+x,1/2-y,1/2-z
1/2-x,y,1/2-z
1/2-x,1/2-y,1/2-z
1/2+x,y,1/2-z
1/2-x,1/2+y,1/2+z
1/2+x,-y,1/2+z
loop_
_atom_site_type_symbol
_atom_site_label
_atom_site_fract_x
_atom_site_fract_y
_atom_site_fract_z
Si Si1 0.853051 0.613176 0.530634
Si Si2 0.931670 0.811749 0.218853
Si Si3 0.933264 0.467753 0.246795
Si Si4 0.322981 0.811168 0.590624
Si Si5 0.750000 0.389625 0.750000
O O1 0.904329 0.639550 0.373164
O O2 0.883588 0.577375 0.729641
O O3 0.801363 0.580860 0.396351
O O4 0.821186 0.664770 0.648821
O O5 0.925159 0.750000 0.325141
O O6 0.891056 0.810825 0.987992
O O7 0.000000 0.820444 0.173881
O O8 0.929093 0.500000 0.500000
O O9 0.000000 0.445942 0.238933
O O10 0.925389 0.500000 0.000000
O O11 0.301068 0.750000 0.568969
O O12 0.289074 0.851346 0.417774
#
# Coordination Sequence:
#
# PCOD9539185 Si02
#       5
#    16  16  16  16   8
#     4  11  22  38  64  89 125 165 217 269 328 388
#     4   9  19  34  54  88 130 168 208 258 322 392
#     4  10  24  45  72 102 131 167 216 277 345 410
#     4  10  21  37  59  88 127 169 213 260 315 386
#     4  10  23  38  60  88 122 172 222 260 319 380
#
# _framework density 22.7013
#
# number of rings (size 3 to 8) (size 9 to 14) (size 15 to 20)
#    0.000    2.000    0.000    2.333    6.222    5.333 
#    0.000    2.222    4.889    0.000    0.000    0.000 
#    0.000    0.000    0.000    0.000    0.000    0.000 
#
# Total GULP energy -200882.303896 kJ/mol
# GULP energy per Si atom -5580.063997 kJ/mol
# Density = 2.264963 g / cm^3
# Si number density = 22.701300 Si / 1000 Ang^3
#
#
#
# Elastic Constant Matrix: (Units=GPa)
#
#
# Indices 1 2 3 4 5 6 
#
# 1 156.3404 27.8899 41.4711 0.0000 0.0000 0.0000
# 2 27.8899 32.9811 11.9103 0.0000 0.0000 0.0000
# 3 41.4711 11.9103 72.9551 0.0000 0.0000 0.0000
# 4 0.0000 0.0000 0.0000 21.5322 0.0000 0.0000
# 5 0.0000 0.0000 0.0000 0.0000 40.3826 0.0000
# 6 0.0000 0.0000 0.0000 0.0000 0.0000 16.6706
#
#
#
# Elastic Compliance Matrix: (Units=1/GPa)
#
#
# Indices 1 2 3 4 5 6 
#
# 1 0.008446 -0.005747 -0.003863 0.000000 0.000000 0.000000
# 2 -0.005747 0.036131 -0.002631 0.000000 0.000000 0.000000
# 3 -0.003863 -0.002631 0.016333 0.000000 0.000000 0.000000
# 4 0.000000 0.000000 0.000000 0.046442 0.000000 0.000000
# 5 0.000000 0.000000 0.000000 0.000000 0.024763 0.000000
# 6 0.000000 0.000000 0.000000 0.000000 0.000000 0.059986
#
#
# Mechanical properties :
#
#
# Convention : Reuss Voigt Hill
#
# Bulk Modulus (GPa) = 27.45289 47.20214 37.32752
# Shear Modulus (GPa) = 21.86015 27.78409 24.82212
#
# Velocity S-wave (km/s) = 3.10651 3.50222 3.31028
# Velocity P-wave (km/s) = 4.99865 6.09852 5.57577
#
# Compressibility (1/GPa) = 0.03642604
#
# Stress axis : x y z
#
# Youngs Moduli (GPa) = 118.39506 27.67709 61.22746
#
# Poissons Ratio (x) = 0.15907 0.23652
# Poissons Ratio (y) = 0.68047 0.16112
# Poissons Ratio (z) = 0.45736 0.07283
#
# Static dielectric constant tensor:
#      x y z
#    x 1.842600 0.000000 0.000000 
#    y 0.000000 1.895320 0.000000 
#    z 0.000000 0.000000 1.892680 
# 
# From -- ./inp_files/3756.got.cif
#   From: 2010.05.17/outbox.cif.g08.bks.cpg/sg74_2_cif.got.tgz:3756.got - 2010.06.03 17:57:02.
