data_PCOD9539074
_publ_section_title
;
Structure prediction by ZEFSAII (Michael W. Deem and Ramdas Pophale) SiO2 
 PCOD9539074
Probable space group: I M M A
;
_chemical_formula_sum "Si O2"
_cell_formula_units_Z 84
_cell_length_a 7.355508
_cell_length_b 34.960131
_cell_length_c 13.141582
_cell_angle_alpha 90.000000
_cell_angle_beta 90.000000
_cell_angle_gamma 90.000000
_cell_volume 3379.351546
_symmetry_space_group_name_H-M "I M M A"
_symmetry_group_IT_number 74
_symmetry_cell_setting 'orthorhombic'
loop_
_space_group_symop_operation_xyz
x,y,z
-x,1/2-y,z
x,-y,-z
-x,1/2+y,-z
-x,-y,-z
x,1/2+y,-z
-x,y,z
x,1/2-y,z
1/2+x,1/2+y,1/2+z
1/2-x,-y,1/2+z
1/2+x,1/2-y,1/2-z
1/2-x,y,1/2-z
1/2-x,1/2-y,1/2-z
1/2+x,y,1/2-z
1/2-x,1/2+y,1/2+z
1/2+x,-y,1/2+z
loop_
_atom_site_type_symbol
_atom_site_label
_atom_site_fract_x
_atom_site_fract_y
_atom_site_fract_z
Si Si1 0.716299 0.434668 0.868457
Si Si2 0.716240 0.518209 0.869165
Si Si3 0.782995 0.293642 0.638764
Si Si4 0.221201 0.898717 0.565039
Si Si5 0.750000 0.750000 0.750000
Si Si6 0.278063 0.316314 0.087282
O O1 0.500000 0.437235 0.877838
O O2 0.750000 0.428064 0.750000
O O3 0.784632 0.476539 0.907085
O O4 0.774102 0.401836 0.945854
O O5 0.500000 0.519406 0.890937
O O6 0.750000 0.513368 0.750000
O O7 0.785978 0.560636 0.892418
O O8 0.712594 0.250000 0.644357
O O9 0.750000 0.312160 0.750000
O O10 0.721369 0.310210 0.530506
O O11 0.000000 0.292280 0.629861
O O12 0.281314 0.859321 0.614903
O O13 0.000000 0.898105 0.571598
O O14 0.783521 0.783492 0.836623
O O15 0.500000 0.313868 0.091017
#
# Coordination Sequence:
#
# PCOD9539074 Si02
#       6
#    16  16  16  16   4  16
#     4   9  17  31  52  78 107 142 177 216 266 321
#     4   9  17  30  50  75 105 139 179 220 262 314
#     4   9  17  33  56  79 104 132 168 215 270 330
#     4   9  18  32  52  75 101 137 181 220 260 321
#     4  12  22  36  58  74 102 144 184 230 274 334
#     4  10  21  37  56  79 106 144 186 230 284 334
#
# _framework density 24.856839000000001
#
# number of rings (size 3 to 8) (size 9 to 14) (size 15 to 20)
#    0.000    2.667    0.952    0.857    1.333    3.048 
#    0.000    2.857    0.000    8.000    0.000    0.000 
#    0.000    0.000    0.000    0.000    0.000    0.000 
#
# Total GULP energy -233802.306520 kJ/mol
# GULP energy per Si atom -5566.721584 kJ/mol
# Density = 2.480026 g / cm^3
# Si number density = 24.856839 Si / 1000 Ang^3
#
#
#
# Elastic Constant Matrix: (Units=GPa)
#
#
# Indices 1 2 3 4 5 6 
#
# 1 90.6240 5.2447 -3.6988 0.0000 0.0000 0.0000
# 2 5.2447 204.8068 70.6958 0.0000 0.0000 0.0000
# 3 -3.6988 70.6958 106.3516 0.0000 0.0000 0.0000
# 4 0.0000 0.0000 0.0000 8.7668 0.0000 0.0000
# 5 0.0000 0.0000 0.0000 0.0000 -8.6556 0.0000
# 6 0.0000 0.0000 0.0000 0.0000 0.0000 -5.1819
#
#
#
# Elastic Compliance Matrix: (Units=1/GPa)
#
#
# Indices 1 2 3 4 5 6 
#
# 1 0.011096 -0.000542 0.000746 0.000000 0.000000 0.000000
# 2 -0.000542 0.006363 -0.004249 0.000000 0.000000 0.000000
# 3 0.000746 -0.004249 0.012253 0.000000 0.000000 0.000000
# 4 0.000000 0.000000 0.000000 0.114067 0.000000 0.000000
# 5 0.000000 0.000000 0.000000 0.000000 -0.115532 0.000000
# 6 0.000000 0.000000 0.000000 0.000000 0.000000 -0.192980
#
#
# Mechanical properties :
#
#
# Convention : Reuss Voigt Hill
#
# Bulk Modulus (GPa) = 46.24531 60.69621 53.47076
# Shear Modulus (GPa) = -33.45916 20.95524 -6.25196
#
# Velocity S-wave (km/s) = -3.67287 2.90666 -1.58766
# Velocity P-wave (km/s) = 0.81143 5.97798 4.26583
#
# Compressibility (1/GPa) = 0.02162381
#
# Stress axis : x y z
#
# Youngs Moduli (GPa) = 90.11938 157.15707 81.61328
#
# Poissons Ratio (x) = 0.08512 -0.06088
# Poissons Ratio (y) = 0.04881 0.34674
# Poissons Ratio (z) = -0.06723 0.66770
#
# Static dielectric constant tensor:
#      x y z
#    x 2.172280 0.000000 0.000000 
#    y 0.000000 1.963310 0.000000 
#    z 0.000000 0.000000 1.994910 
# 
# From -- ./inp_files/19095.got.cif
#   From: 2010.05.17/outbox.cif.g08.bks.cpg/sg74_10_cif.got.tgz:19095.got - 2010.06.03 17:57:02.
