data_PCOD9539816
_publ_section_title
;
Structure prediction by ZEFSAII (Michael W. Deem and Ramdas Pophale) SiO2 
 PCOD9539816
Probable space group: I M M A
;
_chemical_formula_sum "Si O2"
_cell_formula_units_Z 64
_cell_length_a 14.173694
_cell_length_b 24.623065
_cell_length_c 9.681560
_cell_angle_alpha 90.000000
_cell_angle_beta 90.000000
_cell_angle_gamma 90.000000
_cell_volume 3378.862394
_symmetry_space_group_name_H-M "I M M A"
_symmetry_group_IT_number 74
_symmetry_cell_setting 'orthorhombic'
loop_
_space_group_symop_operation_xyz
x,y,z
-x,1/2-y,z
x,-y,-z
-x,1/2+y,-z
-x,-y,-z
x,1/2+y,-z
-x,y,z
x,1/2-y,z
1/2+x,1/2+y,1/2+z
1/2-x,-y,1/2+z
1/2+x,1/2-y,1/2-z
1/2-x,y,1/2-z
1/2-x,1/2-y,1/2-z
1/2+x,y,1/2-z
1/2-x,1/2+y,1/2+z
1/2+x,-y,1/2+z
loop_
_atom_site_type_symbol
_atom_site_label
_atom_site_fract_x
_atom_site_fract_y
_atom_site_fract_z
Si Si1 0.798284 0.687700 0.399186
Si Si2 0.000000 0.470328 0.785470
Si Si3 0.500000 0.130603 0.926063
Si Si4 0.696690 0.110549 0.388280
Si Si5 0.340373 0.000000 0.500000
Si Si6 0.500000 0.404491 0.245370
O O1 0.802952 0.750000 0.448732
O O2 0.750000 0.687245 0.250000
O O3 0.903565 0.662967 0.394559
O O4 0.732088 0.650927 0.495472
O O5 0.000000 0.423336 0.671229
O O6 0.000000 0.530606 0.722156
O O7 0.091290 0.471086 0.887001
O O8 0.500000 0.119888 0.091720
O O9 0.750000 0.125158 0.250000
O O10 0.718532 0.048396 0.432630
O O11 0.588624 0.110583 0.340759
#
# Coordination Sequence:
#
# PCOD9539816 Si02
#       6
#    16   8   8  16   8   8
#     4  11  26  45  66  94 126 167 222 273 322 383
#     4   9  19  35  61  89 132 169 205 259 314 388
#     4  12  21  41  67  93 128 169 210 269 327 378
#     4  11  22  41  63  93 131 169 212 263 317 388
#     4   9  20  36  58  95 132 170 208 259 322 389
#     4  10  22  40  60  98 131 167 213 258 319 388
#
# _framework density 18.941286999999999
#
# number of rings (size 3 to 8) (size 9 to 14) (size 15 to 20)
#    0.000    1.500    2.500    3.000    0.000    6.500 
#    0.000    1.875    0.000    0.000    0.000    0.000 
#    0.000    0.000    0.000    0.000    0.000    0.000 
#
# Total GULP energy -178634.519757 kJ/mol
# GULP energy per Si atom -5582.328742 kJ/mol
# Density = 1.889818 g / cm^3
# Si number density = 18.941287 Si / 1000 Ang^3
#
#
#
# Elastic Constant Matrix: (Units=GPa)
#
#
# Indices 1 2 3 4 5 6 
#
# 1 94.3238 60.3807 31.0282 0.0001 -0.0010 0.0000
# 2 60.3807 125.4322 60.9727 -0.0001 -0.0001 0.0003
# 3 31.0282 60.9727 94.1127 -0.0013 0.0024 0.0007
# 4 0.0001 -0.0001 -0.0013 25.2481 0.0007 0.0004
# 5 -0.0010 -0.0001 0.0024 0.0007 -65.1108 -0.0007
# 6 0.0000 0.0003 0.0007 0.0004 -0.0007 26.5962
#
#
#
# Elastic Compliance Matrix: (Units=1/GPa)
#
#
# Indices 1 2 3 4 5 6 
#
# 1 0.015334 -0.007188 -0.000399 0.000000 0.000000 0.000000
# 2 -0.007188 0.015007 -0.007353 0.000000 0.000000 0.000000
# 3 -0.000399 -0.007353 0.015521 0.000001 0.000001 0.000000
# 4 0.000000 0.000000 0.000001 0.039607 0.000000 -0.000001
# 5 0.000000 0.000000 0.000001 0.000000 -0.015358 0.000000
# 6 0.000000 0.000000 0.000000 -0.000001 0.000000 0.037599
#
#
# Mechanical properties :
#
#
# Convention : Reuss Voigt Hill
#
# Bulk Modulus (GPa) = 62.56634 68.73687 65.65160
# Shear Modulus (GPa) = 34.98586 8.11250 21.54918
#
# Velocity S-wave (km/s) = 4.30242 2.07178 3.37661
# Velocity P-wave (km/s) = 7.60161 6.48778 7.06667
#
# Compressibility (1/GPa) = 0.01598304
#
# Stress axis : x y z
#
# Youngs Moduli (GPa) = 65.21404 66.63765 64.43065
#
# Poissons Ratio (x) = 0.47897 0.02570
# Poissons Ratio (y) = 0.46874 0.47373
# Poissons Ratio (z) = 0.02601 0.48996
#
# Static dielectric constant tensor:
#      x y z
#    x 1.608490 0.000000 0.000000 
#    y 0.000000 1.647540 0.000000 
#    z 0.000000 0.000000 1.647030 
# 
# From -- ./inp_files/8937.got.cif
#   From: 2010.05.17/outbox.cif.g08.bks.cpg/sg74_5_cif.got.tgz:8937.got - 2010.06.03 17:57:02.
