data_PCOD9539721
_publ_section_title
;
Structure prediction by ZEFSAII (Michael W. Deem and Ramdas Pophale) SiO2 
 PCOD9539721
Probable space group: I M M A
;
_chemical_formula_sum "Si O2"
_cell_formula_units_Z 80
_cell_length_a 18.359909
_cell_length_b 25.435431
_cell_length_c 8.470529
_cell_angle_alpha 90.000000
_cell_angle_beta 90.000000
_cell_angle_gamma 90.000000
_cell_volume 3955.670960
_symmetry_space_group_name_H-M "I M M A"
_symmetry_group_IT_number 74
_symmetry_cell_setting 'orthorhombic'
loop_
_space_group_symop_operation_xyz
x,y,z
-x,1/2-y,z
x,-y,-z
-x,1/2+y,-z
-x,-y,-z
x,1/2+y,-z
-x,y,z
x,1/2-y,z
1/2+x,1/2+y,1/2+z
1/2-x,-y,1/2+z
1/2+x,1/2-y,1/2-z
1/2-x,y,1/2-z
1/2-x,1/2-y,1/2-z
1/2+x,y,1/2-z
1/2-x,1/2+y,1/2+z
1/2+x,-y,1/2+z
loop_
_atom_site_type_symbol
_atom_site_label
_atom_site_fract_x
_atom_site_fract_y
_atom_site_fract_z
Si Si1 0.309236 0.360435 0.871742
Si Si2 0.084413 0.516025 0.175576
Si Si3 0.804308 0.545265 0.609849
Si Si4 0.414924 0.639978 0.382755
Si Si5 0.297202 0.690194 0.594466
O O1 0.250000 0.385457 0.750000
O O2 0.374988 0.336097 0.771040
O O3 0.326503 0.405288 0.001421
O O4 0.262625 0.315995 0.957795
O O5 0.129933 0.485323 0.305494
O O6 0.090715 0.578858 0.167958
O O7 0.000000 0.502313 0.198487
O O8 0.105833 0.500000 0.000000
O O9 0.769482 0.500000 0.500000
O O10 0.750000 0.561082 0.750000
O O11 0.500000 0.652955 0.405023
O O12 0.364802 0.654106 0.534767
O O13 0.323653 0.750000 0.609463
O O14 0.250000 0.677289 0.750000
#
# Coordination Sequence:
#
# PCOD9539721 Si02
#       5
#    16  16  16  16  16
#     4  10  22  38  59  89 123 160 207 257 306 368
#     4  10  23  39  55  83 125 167 204 245 304 365
#     4  12  23  33  56  85 121 165 210 259 296 355
#     4  10  22  41  62  89 125 161 204 253 305 370
#     4  10  23  43  67  92 120 157 203 260 319 375
#
# _framework density 20.224129999999999
#
# number of rings (size 3 to 8) (size 9 to 14) (size 15 to 20)
#    0.000    1.600    2.000    1.800   11.200    5.200 
#    0.000    1.000    0.000    1.200    0.000    0.000 
#    0.000    0.000    0.000    0.000    0.000    0.000 
#
# Total GULP energy -223017.247859 kJ/mol
# GULP energy per Si atom -5575.431196 kJ/mol
# Density = 2.017810 g / cm^3
# Si number density = 20.224130 Si / 1000 Ang^3
#
#
#
# Elastic Constant Matrix: (Units=GPa)
#
#
# Indices 1 2 3 4 5 6 
#
# 1 156.0125 25.1418 69.6009 0.0000 0.0000 0.0000
# 2 25.1418 44.0752 27.2221 0.0000 0.0000 0.0000
# 3 69.6009 27.2221 118.7689 0.0000 0.0000 0.0000
# 4 0.0000 0.0000 0.0000 14.0756 0.0000 0.0000
# 5 0.0000 0.0000 0.0000 0.0000 25.8990 0.0000
# 6 0.0000 0.0000 0.0000 0.0000 0.0000 12.9692
#
#
#
# Elastic Compliance Matrix: (Units=1/GPa)
#
#
# Indices 1 2 3 4 5 6 
#
# 1 0.008850 -0.002149 -0.004694 0.000000 0.000000 0.000000
# 2 -0.002149 0.026952 -0.004918 0.000000 0.000000 0.000000
# 3 -0.004694 -0.004918 0.012297 0.000000 0.000000 0.000000
# 4 0.000000 0.000000 0.000000 0.071045 0.000000 0.000000
# 5 0.000000 0.000000 0.000000 0.000000 0.038612 0.000000
# 6 0.000000 0.000000 0.000000 0.000000 0.000000 0.077106
#
#
# Mechanical properties :
#
#
# Convention : Reuss Voigt Hill
#
# Bulk Modulus (GPa) = 40.68732 62.53179 51.60956
# Shear Modulus (GPa) = 18.75633 23.71486 21.23559
#
# Velocity S-wave (km/s) = 3.04867 3.42804 3.24391
# Velocity P-wave (km/s) = 5.70564 6.83046 6.29323
#
# Compressibility (1/GPa) = 0.02457768
#
# Stress axis : x y z
#
# Youngs Moduli (GPa) = 112.99327 37.10299 81.31743
#
# Poissons Ratio (x) = 0.07975 0.38168
# Poissons Ratio (y) = 0.24287 0.39991
# Poissons Ratio (z) = 0.53035 0.18247
#
# Static dielectric constant tensor:
#      x y z
#    x 1.732730 0.000000 0.000000 
#    y 0.000000 1.831930 0.000000 
#    z 0.000000 0.000000 1.763650 
# 
# From -- ./inp_files/11129.got.cif
#   From: 2010.05.17/outbox.cif.g08.bks.cpg/sg74_6_cif.got.tgz:11129.got - 2010.06.03 17:57:02.
