data_PCOD9539415
_publ_section_title
;
Structure prediction by ZEFSAII (Michael W. Deem and Ramdas Pophale) SiO2 
 PCOD9539415
Probable space group: I M M A
;
_chemical_formula_sum "Si O2"
_cell_formula_units_Z 84
_cell_length_a 19.415647
_cell_length_b 25.723731
_cell_length_c 8.647788
_cell_angle_alpha 90.000000
_cell_angle_beta 90.000000
_cell_angle_gamma 90.000000
_cell_volume 4319.076150
_symmetry_space_group_name_H-M "I M M A"
_symmetry_group_IT_number 74
_symmetry_cell_setting 'orthorhombic'
loop_
_space_group_symop_operation_xyz
x,y,z
-x,1/2-y,z
x,-y,-z
-x,1/2+y,-z
-x,-y,-z
x,1/2+y,-z
-x,y,z
x,1/2-y,z
1/2+x,1/2+y,1/2+z
1/2-x,-y,1/2+z
1/2+x,1/2-y,1/2-z
1/2-x,y,1/2-z
1/2-x,1/2-y,1/2-z
1/2+x,y,1/2-z
1/2-x,1/2+y,1/2+z
1/2+x,-y,1/2+z
loop_
_atom_site_type_symbol
_atom_site_label
_atom_site_fract_x
_atom_site_fract_y
_atom_site_fract_z
Si Si1 0.890546 0.947716 0.789956
Si Si2 0.219930 0.415733 0.978458
Si Si3 0.077310 0.639188 0.543566
Si Si4 0.223638 0.191619 0.427617
Si Si5 0.500000 0.500000 0.500000
Si Si6 0.358827 0.556504 0.164745
O O1 0.816992 0.935714 0.867300
O O2 0.915095 0.899099 0.690585
O O3 0.890555 0.999727 0.685892
O O4 0.940791 0.961455 0.929191
O O5 0.235490 0.354403 0.987515
O O6 0.293934 0.441789 0.951230
O O7 0.173157 0.428396 0.830713
O O8 0.142368 0.677910 0.556134
O O9 0.089860 0.600504 0.397873
O O10 0.000000 0.661300 0.538657
O O11 0.236451 0.250000 0.484831
O O12 0.250000 0.189302 0.250000
#
# Coordination Sequence:
#
# PCOD9539415 Si02
#       6
#    16  16  16  16   4  16
#     4  12  22  38  55  83 124 160 200 231 283 351
#     4  10  21  39  57  85 116 150 201 244 292 340
#     4  11  24  38  58  87 122 158 195 241 295 358
#     4  10  21  40  66  90 111 145 200 259 306 348
#     4  12  24  36  54  84 122 176 192 232 280 360
#     4  10  23  35  55  87 120 158 191 237 287 348
#
# _framework density 19.448605000000001
#
# number of rings (size 3 to 8) (size 9 to 14) (size 15 to 20)
#    0.000    1.333    4.762    0.571    1.333   11.810 
#    0.000    7.619    0.000    0.000    0.000    0.000 
#    0.000    0.000    0.000    0.000    0.000    0.000 
#
# Total GULP energy -234099.311146 kJ/mol
# GULP energy per Si atom -5573.793123 kJ/mol
# Density = 1.940434 g / cm^3
# Si number density = 19.448605 Si / 1000 Ang^3
#
#
#
# Elastic Constant Matrix: (Units=GPa)
#
#
# Indices 1 2 3 4 5 6 
#
# 1 92.9669 5.3433 7.3467 0.0000 0.0000 0.0000
# 2 5.3433 90.5841 -1.6231 0.0000 0.0000 0.0000
# 3 7.3467 -1.6231 18.4997 0.0000 0.0000 0.0000
# 4 0.0000 0.0000 0.0000 17.4548 0.0000 0.0000
# 5 0.0000 0.0000 0.0000 0.0000 3.8823 0.0000
# 6 0.0000 0.0000 0.0000 0.0000 0.0000 10.0128
#
#
#
# Elastic Compliance Matrix: (Units=1/GPa)
#
#
# Indices 1 2 3 4 5 6 
#
# 1 0.011154 -0.000738 -0.004494 0.000000 0.000000 0.000000
# 2 -0.000738 0.011106 0.001268 0.000000 0.000000 0.000000
# 3 -0.004494 0.001268 0.055951 0.000000 0.000000 0.000000
# 4 0.000000 0.000000 0.000000 0.057291 0.000000 0.000000
# 5 0.000000 0.000000 0.000000 0.000000 0.257579 0.000000
# 6 0.000000 0.000000 0.000000 0.000000 0.000000 0.099872
#
#
# Mechanical properties :
#
#
# Convention : Reuss Voigt Hill
#
# Bulk Modulus (GPa) = 14.22868 24.90938 19.56903
# Shear Modulus (GPa) = 9.53633 19.00222 14.26928
#
# Velocity S-wave (km/s) = 2.21675 3.12917 2.71161
# Velocity P-wave (km/s) = 3.72611 5.08834 4.45955
#
# Compressibility (1/GPa) = 0.07028057
#
# Stress axis : x y z
#
# Youngs Moduli (GPa) = 89.65283 90.04347 17.87274
#
# Poissons Ratio (x) = 0.06650 0.08033
# Poissons Ratio (y) = 0.06621 -0.02266
# Poissons Ratio (z) = 0.40294 -0.11415
#
# Static dielectric constant tensor:
#      x y z
#    x 1.662810 0.000000 0.000000 
#    y 0.000000 1.651910 0.000000 
#    z 0.000000 0.000000 1.726770 
# 
# From -- ./inp_files/12328.got.cif
#   From: 2010.05.17/outbox.cif.g08.bks.cpg/sg74_7_cif.got.tgz:12328.got - 2010.06.03 17:57:02.
