data_PCOD9539221
_publ_section_title
;
Structure prediction by ZEFSAII (Michael W. Deem and Ramdas Pophale) SiO2 
 PCOD9539221
Probable space group: I M M A
;
_chemical_formula_sum "Si O2"
_cell_formula_units_Z 96
_cell_length_a 14.004538
_cell_length_b 21.917481
_cell_length_c 14.086670
_cell_angle_alpha 90.000000
_cell_angle_beta 90.000000
_cell_angle_gamma 90.000000
_cell_volume 4323.821591
_symmetry_space_group_name_H-M "I M M A"
_symmetry_group_IT_number 74
_symmetry_cell_setting 'orthorhombic'
loop_
_space_group_symop_operation_xyz
x,y,z
-x,1/2-y,z
x,-y,-z
-x,1/2+y,-z
-x,-y,-z
x,1/2+y,-z
-x,y,z
x,1/2-y,z
1/2+x,1/2+y,1/2+z
1/2-x,-y,1/2+z
1/2+x,1/2-y,1/2-z
1/2-x,y,1/2-z
1/2-x,1/2-y,1/2-z
1/2+x,y,1/2-z
1/2-x,1/2+y,1/2+z
1/2+x,-y,1/2+z
loop_
_atom_site_type_symbol
_atom_site_label
_atom_site_fract_x
_atom_site_fract_y
_atom_site_fract_z
Si Si1 0.886543 0.550830 0.212760
Si Si2 0.770140 0.849736 0.523308
Si Si3 0.674473 0.685401 0.336064
Si Si4 0.886795 0.420590 0.133789
Si Si5 0.889194 0.682394 0.704718
Si Si6 0.114116 0.948940 0.427071
O O1 0.871761 0.618283 0.171026
O O2 0.857533 0.489925 0.157011
O O3 0.846430 0.547925 0.320300
O O4 0.000000 0.542923 0.221457
O O5 0.725448 0.812155 0.437826
O O6 0.684587 0.893807 0.556693
O O7 0.816212 0.820986 0.617355
O O8 0.855615 0.886273 0.473956
O O9 0.618929 0.750000 0.325522
O O10 0.750000 0.684989 0.250000
O O11 0.875707 0.374768 0.224492
O O12 0.000000 0.418719 0.107650
O O13 0.878659 0.750000 0.750999
O O14 0.000000 0.678476 0.671880
O O15 0.000000 0.954311 0.422066
O O16 0.149339 0.000000 0.500000
#
# Coordination Sequence:
#
# PCOD9539221 Si02
#       6
#    16  16  16  16  16  16
#     4  10  22  44  67  88 127 172 218 273 330 391
#     4  12  23  38  68  96 131 175 220 266 325 393
#     4  11  25  43  61  90 131 170 219 274 323 384
#     4  10  24  43  66 100 137 175 216 267 327 396
#     4  10  22  42  67 100 139 172 213 269 329 397
#     4  10  21  37  61  96 130 164 216 275 329 386
#
# _framework density 22.202580999999999
#
# number of rings (size 3 to 8) (size 9 to 14) (size 15 to 20)
#    0.000    1.500    1.667    2.500    2.333    7.000 
#    0.000    1.667    0.000    0.000    0.000    0.000 
#    0.000    0.000    0.000    0.000    0.000    0.000 
#
# Total GULP energy -267932.629082 kJ/mol
# GULP energy per Si atom -5581.929773 kJ/mol
# Density = 2.215205 g / cm^3
# Si number density = 22.202581 Si / 1000 Ang^3
#
#
#
# Elastic Constant Matrix: (Units=GPa)
#
#
# Indices 1 2 3 4 5 6 
#
# 1 61.5743 27.6904 26.7569 -0.0001 0.0000 0.0000
# 2 27.6904 171.1679 44.2561 0.0001 0.0000 0.0001
# 3 26.7569 44.2561 83.4145 0.0007 0.0000 0.0001
# 4 -0.0001 0.0001 0.0007 45.3868 0.0000 0.0000
# 5 0.0000 0.0000 0.0000 0.0000 21.6659 0.0000
# 6 0.0000 0.0001 0.0001 0.0000 0.0000 2.0639
#
#
#
# Elastic Compliance Matrix: (Units=1/GPa)
#
#
# Indices 1 2 3 4 5 6 
#
# 1 0.019320 -0.001765 -0.005261 0.000000 0.000000 0.000000
# 2 -0.001765 0.006932 -0.003112 0.000000 0.000000 0.000000
# 3 -0.005261 -0.003112 0.015327 0.000000 0.000000 0.000000
# 4 0.000000 0.000000 0.000000 0.022033 0.000000 0.000000
# 5 0.000000 0.000000 0.000000 0.000000 0.046155 0.000000
# 6 0.000000 0.000000 0.000000 0.000000 0.000000 0.484509
#
#
# Mechanical properties :
#
#
# Convention : Reuss Voigt Hill
#
# Bulk Modulus (GPa) = 46.93990 57.06261 52.00125
# Shear Modulus (GPa) = 8.04306 28.32024 18.18165
#
# Velocity S-wave (km/s) = 1.90537 3.57534 2.86474
# Velocity P-wave (km/s) = 5.10178 6.54223 5.86638
#
# Compressibility (1/GPa) = 0.02130384
#
# Stress axis : x y z
#
# Youngs Moduli (GPa) = 51.75851 144.25122 65.24527
#
# Poissons Ratio (x) = 0.25465 0.34324
# Poissons Ratio (y) = 0.09137 0.20303
# Poissons Ratio (z) = 0.27229 0.44887
#
# Static dielectric constant tensor:
#      x y z
#    x 1.818410 0.000000 0.000000 
#    y 0.000000 1.863190 0.000000 
#    z 0.000000 0.000000 1.813380 
# 
# From -- ./inp_files/32388.got.cif
#   From: 2010.05.17/outbox.cif.g08.bks.cpg/sg74_17_cif.got.tgz:32388.got - 2010.06.03 17:57:02.
