data_PCOD9539043
_publ_section_title
;
Structure prediction by ZEFSAII (Michael W. Deem and Ramdas Pophale) SiO2 
 PCOD9539043
Probable space group: I M M A
;
_chemical_formula_sum "Si O2"
_cell_formula_units_Z 72
_cell_length_a 9.708688
_cell_length_b 14.084582
_cell_length_c 21.775778
_cell_angle_alpha 90.000000
_cell_angle_beta 90.000000
_cell_angle_gamma 90.000000
_cell_volume 2977.681123
_symmetry_space_group_name_H-M "I M M A"
_symmetry_group_IT_number 74
_symmetry_cell_setting 'orthorhombic'
loop_
_space_group_symop_operation_xyz
x,y,z
-x,1/2-y,z
x,-y,-z
-x,1/2+y,-z
-x,-y,-z
x,1/2+y,-z
-x,y,z
x,1/2-y,z
1/2+x,1/2+y,1/2+z
1/2-x,-y,1/2+z
1/2+x,1/2-y,1/2-z
1/2-x,y,1/2-z
1/2-x,1/2-y,1/2-z
1/2+x,y,1/2-z
1/2-x,1/2+y,1/2+z
1/2+x,-y,1/2+z
loop_
_atom_site_type_symbol
_atom_site_label
_atom_site_fract_x
_atom_site_fract_y
_atom_site_fract_z
Si Si1 0.845952 0.858603 0.084948
Si Si2 0.154837 0.365442 0.692612
Si Si3 0.500000 0.913937 0.737609
Si Si4 0.759186 0.136530 0.335690
Si Si5 0.654801 0.107359 0.023851
O O1 0.861621 0.750000 0.107451
O O2 0.731489 0.899263 0.131533
O O3 0.000000 0.900520 0.084814
O O4 0.776366 0.853218 0.018727
O O5 0.142359 0.250000 0.691103
O O6 0.250000 0.389154 0.750000
O O7 0.000000 0.404568 0.701302
O O8 0.621236 0.916530 0.684416
O O9 0.619729 0.892646 0.789787
O O10 0.732819 0.250000 0.328658
O O11 0.805864 0.118392 0.405488
O O12 0.500000 0.146401 0.013232
O O13 0.648790 0.000000 0.000000
#
# Coordination Sequence:
#
# PCOD9539043 Si02
#       5
#    16  16   8  16  16
#     4  10  21  37  59  87 115 148 199 254 304 363
#     4   9  16  28  51  81 112 144 181 234 295 345
#     4  10  21  36  64 100 130 156 199 262 325 380
#     4  11  20  37  64  97 128 161 205 260 319 378
#     4  11  25  42  60  82 123 170 209 246 303 375
#
# _framework density 24.179888999999999
#
# number of rings (size 3 to 8) (size 9 to 14) (size 15 to 20)
#    0.000    1.778    1.111    4.667    1.556    5.333 
#    0.000    0.000    4.889    0.000    0.000    0.000 
#    0.000    0.000    0.000    0.000    0.000    0.000 
#
# Total GULP energy -200437.834981 kJ/mol
# GULP energy per Si atom -5567.717638 kJ/mol
# Density = 2.412485 g / cm^3
# Si number density = 24.179889 Si / 1000 Ang^3
#
#
#
# Elastic Constant Matrix: (Units=GPa)
#
#
# Indices 1 2 3 4 5 6 
#
# 1 260.3938 -2.5520 74.1836 0.0000 0.0000 0.0000
# 2 -2.5520 61.5409 1.6946 0.0000 0.0000 0.0000
# 3 74.1836 1.6946 140.4558 0.0000 0.0000 0.0000
# 4 0.0000 0.0000 0.0000 -6.7425 0.0000 0.0000
# 5 0.0000 0.0000 0.0000 0.0000 44.7225 0.0000
# 6 0.0000 0.0000 0.0000 0.0000 0.0000 12.8497
#
#
#
# Elastic Compliance Matrix: (Units=1/GPa)
#
#
# Indices 1 2 3 4 5 6 
#
# 1 0.004524 0.000254 -0.002393 0.000000 0.000000 0.000000
# 2 0.000254 0.016269 -0.000330 0.000000 0.000000 0.000000
# 3 -0.002393 -0.000330 0.008387 0.000000 0.000000 0.000000
# 4 0.000000 0.000000 0.000000 -0.148312 0.000000 0.000000
# 5 0.000000 0.000000 0.000000 0.000000 0.022360 0.000000
# 6 0.000000 0.000000 0.000000 0.000000 0.000000 0.077823
#
#
# Mechanical properties :
#
#
# Convention : Reuss Voigt Hill
#
# Bulk Modulus (GPa) = 41.25062 67.67143 54.46102
# Shear Modulus (GPa) = -843.31877 36.10355 -403.60761
#
# Velocity S-wave (km/s) = -18.69561 3.86829 -12.93372
# Velocity P-wave (km/s) = 21.18815 6.92813 14.15872
#
# Compressibility (1/GPa) = 0.02424206
#
# Stress axis : x y z
#
# Youngs Moduli (GPa) = 221.01964 61.46679 119.22629
#
# Poissons Ratio (x) = -0.01558 0.28528
# Poissons Ratio (y) = -0.05603 0.03937
# Poissons Ratio (z) = 0.52884 0.02029
#
# Static dielectric constant tensor:
#      x y z
#    x 1.902370 0.000000 0.000000 
#    y 0.000000 2.187540 0.000000 
#    z 0.000000 0.000000 1.891590 
# 
# From -- ./inp_files/48380.got.cif
#   From: 2010.05.17/outbox.cif.g08.bks.cpg/sg74_25_cif.got.tgz:48380.got - 2010.06.03 17:57:02.
