data_PCOD9539213
_publ_section_title
;
Structure prediction by ZEFSAII (Michael W. Deem and Ramdas Pophale) SiO2 
 PCOD9539213
Probable space group: I M M A
;
_chemical_formula_sum "Si O2"
_cell_formula_units_Z 92
_cell_length_a 9.433491
_cell_length_b 19.432531
_cell_length_c 25.976284
_cell_angle_alpha 90.000000
_cell_angle_beta 90.000000
_cell_angle_gamma 90.000000
_cell_volume 4761.884227
_symmetry_space_group_name_H-M "I M M A"
_symmetry_group_IT_number 74
_symmetry_cell_setting 'orthorhombic'
loop_
_space_group_symop_operation_xyz
x,y,z
-x,1/2-y,z
x,-y,-z
-x,1/2+y,-z
-x,-y,-z
x,1/2+y,-z
-x,y,z
x,1/2-y,z
1/2+x,1/2+y,1/2+z
1/2-x,-y,1/2+z
1/2+x,1/2-y,1/2-z
1/2-x,y,1/2-z
1/2-x,1/2-y,1/2-z
1/2+x,y,1/2-z
1/2-x,1/2+y,1/2+z
1/2+x,-y,1/2+z
loop_
_atom_site_type_symbol
_atom_site_label
_atom_site_fract_x
_atom_site_fract_y
_atom_site_fract_z
Si Si1 0.000000 0.250000 0.270131
Si Si2 0.662756 0.468907 0.199665
Si Si3 0.789835 0.250000 0.172204
Si Si4 0.666967 0.670212 0.403294
Si Si5 0.171908 0.579144 0.000448
Si Si6 0.336007 0.608117 0.614359
Si Si7 0.836346 0.364603 0.699449
O O1 0.119658 0.250000 0.224032
O O2 0.125479 0.250000 0.313531
O O3 0.500000 0.444365 0.203262
O O4 0.750000 0.444876 0.250000
O O5 0.739234 0.441313 0.148964
O O6 0.663425 0.551755 0.199464
O O7 0.827197 0.182461 0.139813
O O8 0.500000 0.654957 0.392696
O O9 0.675513 0.750000 0.419215
O O10 0.718939 0.621562 0.449658
O O11 0.756971 0.659160 0.351858
O O12 0.000000 0.579646 0.003260
O O13 0.219170 0.500000 0.000000
O O14 0.209722 0.610178 0.945057
O O15 0.500000 0.583319 0.616182
O O16 0.750000 0.342095 0.750000
O O17 0.000000 0.341965 0.701137
#
# Coordination Sequence:
#
# PCOD9539213 Si02
#       7
#     4  16   8  16  16  16  16
#     4  10  24  42  56  78 124 158 208 242 308 354
#     4  10  22  36  56  84 116 153 195 243 296 353
#     4  11  24  38  58  84 116 164 199 256 296 366
#     4  10  21  37  61  89 119 155 194 242 295 350
#     4   9  19  36  60  87 117 155 200 248 297 354
#     4  11  22  36  58  86 116 153 202 248 299 355
#     4  10  21  39  61  88 120 153 193 240 292 354
#
# _framework density 19.320083
#
# number of rings (size 3 to 8) (size 9 to 14) (size 15 to 20)
#    0.000    1.913    0.870    2.087    4.870    4.174 
#    0.000    0.870    0.000    3.130    0.000    0.000 
#    0.000    0.000    0.000    0.000    0.000    0.000 
#
# Total GULP energy -256440.341187 kJ/mol
# GULP energy per Si atom -5574.790026 kJ/mol
# Density = 1.927611 g / cm^3
# Si number density = 19.320083 Si / 1000 Ang^3
#
#
#
# Elastic Constant Matrix: (Units=GPa)
#
#
# Indices 1 2 3 4 5 6 
#
# 1 130.0980 27.0519 65.7855 0.0000 0.0000 0.0000
# 2 27.0519 50.1619 47.1673 0.0000 0.0000 0.0000
# 3 65.7855 47.1673 169.6882 0.0000 0.0000 0.0000
# 4 0.0000 0.0000 0.0000 27.0682 0.0000 0.0000
# 5 0.0000 0.0000 0.0000 0.0000 27.8872 0.0000
# 6 0.0000 0.0000 0.0000 0.0000 0.0000 16.9508
#
#
#
# Elastic Compliance Matrix: (Units=1/GPa)
#
#
# Indices 1 2 3 4 5 6 
#
# 1 0.009754 -0.002308 -0.003140 0.000000 0.000000 0.000000
# 2 -0.002308 0.027536 -0.006759 0.000000 0.000000 0.000000
# 3 -0.003140 -0.006759 0.008989 0.000000 0.000000 0.000000
# 4 0.000000 0.000000 0.000000 0.036944 0.000000 0.000000
# 5 0.000000 0.000000 0.000000 0.000000 0.035859 0.000000
# 6 0.000000 0.000000 0.000000 0.000000 0.000000 0.058994
#
#
# Mechanical properties :
#
#
# Convention : Reuss Voigt Hill
#
# Bulk Modulus (GPa) = 45.73498 69.99528 57.86513
# Shear Modulus (GPa) = 23.83464 28.37746 26.10605
#
# Velocity S-wave (km/s) = 3.51618 3.83666 3.67991
# Velocity P-wave (km/s) = 6.34100 7.47894 6.93336
#
# Compressibility (1/GPa) = 0.02186510
#
# Stress axis : x y z
#
# Youngs Moduli (GPa) = 102.52009 36.31643 111.24249
#
# Poissons Ratio (x) = 0.08381 0.34931
# Poissons Ratio (y) = 0.23659 0.75192
# Poissons Ratio (z) = 0.32192 0.24547
#
# Static dielectric constant tensor:
#      x y z
#    x 1.670490 0.000000 0.000000 
#    y 0.000000 1.687750 0.000000 
#    z 0.000000 0.000000 1.635250 
# 
# From -- ./inp_files/57081.got.cif
#   From: 2010.05.17/outbox.cif.g08.bks.cpg/sg74_29_cif.got.tgz:57081.got - 2010.06.03 17:57:02.
