data_PCOD9539979
_publ_section_title
;
Structure prediction by ZEFSAII (Michael W. Deem and Ramdas Pophale) SiO2 
 PCOD9539979
Probable space group: I M M A
;
_chemical_formula_sum "Si O2"
_cell_formula_units_Z 72
_cell_length_a 17.189346
_cell_length_b 11.961055
_cell_length_c 18.388307
_cell_angle_alpha 90.000000
_cell_angle_beta 90.000000
_cell_angle_gamma 90.000000
_cell_volume 3780.685805
_symmetry_space_group_name_H-M "I M M A"
_symmetry_group_IT_number 74
_symmetry_cell_setting 'orthorhombic'
loop_
_space_group_symop_operation_xyz
x,y,z
-x,1/2-y,z
x,-y,-z
-x,1/2+y,-z
-x,-y,-z
x,1/2+y,-z
-x,y,z
x,1/2-y,z
1/2+x,1/2+y,1/2+z
1/2-x,-y,1/2+z
1/2+x,1/2-y,1/2-z
1/2-x,y,1/2-z
1/2-x,1/2-y,1/2-z
1/2+x,y,1/2-z
1/2-x,1/2+y,1/2+z
1/2+x,-y,1/2+z
loop_
_atom_site_type_symbol
_atom_site_label
_atom_site_fract_x
_atom_site_fract_y
_atom_site_fract_z
Si Si1 0.254465 0.750000 0.371237
Si Si2 0.500000 0.618591 0.545041
Si Si3 0.912342 0.996383 0.282238
Si Si4 0.700962 0.486511 0.918312
Si Si5 0.154731 0.379402 0.144095
Si Si6 0.875605 0.250000 0.754932
O O1 0.236942 0.862356 0.413563
O O2 0.194122 0.750000 0.304011
O O3 0.339115 0.750000 0.335241
O O4 0.500000 0.750000 0.513434
O O5 0.500000 0.500000 0.500000
O O6 0.422544 0.612847 0.594501
O O7 0.865908 0.001582 0.357964
O O8 0.917096 0.866310 0.259518
O O9 0.000000 0.042486 0.286637
O O10 0.863048 0.056409 0.219165
O O11 0.771892 0.567765 0.897123
O O12 0.671735 0.500000 0.000000
O O13 0.169796 0.250000 0.159821
#
# Coordination Sequence:
#
# PCOD9539979 Si02
#       6
#     8   8  16  16  16   8
#     4   9  18  36  62  86 121 150 202 259 301 364
#     4  10  22  44  64  94 137 170 208 266 325 382
#     4  11  22  40  65  92 123 162 211 258 309 369
#     4  11  24  40  62  92 126 164 206 256 314 372
#     4  11  23  41  64  90 126 165 208 257 309 377
#     4   9  17  36  62  92 114 152 200 260 309 356
#
# _framework density 19.044163999999999
#
# number of rings (size 3 to 8) (size 9 to 14) (size 15 to 20)
#    0.000    1.556    3.333    1.667    1.556    2.222 
#    4.000    0.000    0.000    0.000    0.000    0.000 
#    0.000    0.000    0.000    0.000    0.000    0.000 
#
# Total GULP energy -200867.950593 kJ/mol
# GULP energy per Si atom -5579.665294 kJ/mol
# Density = 1.900082 g / cm^3
# Si number density = 19.044164 Si / 1000 Ang^3
#
#
#
# Elastic Constant Matrix: (Units=GPa)
#
#
# Indices 1 2 3 4 5 6 
#
# 1 46.4227 3.3361 6.5427 0.0000 0.0000 0.0000
# 2 3.3361 124.1775 45.7514 0.0000 0.0000 0.0000
# 3 6.5427 45.7514 100.7736 0.0000 0.0000 0.0000
# 4 0.0000 0.0000 0.0000 23.9055 0.0000 0.0000
# 5 0.0000 0.0000 0.0000 0.0000 17.1876 0.0000
# 6 0.0000 0.0000 0.0000 0.0000 0.0000 13.5954
#
#
#
# Elastic Compliance Matrix: (Units=1/GPa)
#
#
# Indices 1 2 3 4 5 6 
#
# 1 0.021741 -0.000077 -0.001377 0.000000 0.000000 0.000000
# 2 -0.000077 0.009671 -0.004386 0.000000 0.000000 0.000000
# 3 -0.001377 -0.004386 0.012004 0.000000 0.000000 0.000000
# 4 0.000000 0.000000 0.000000 0.041831 0.000000 0.000000
# 5 0.000000 0.000000 0.000000 0.000000 0.058182 0.000000
# 6 0.000000 0.000000 0.000000 0.000000 0.000000 0.073555
#
#
# Mechanical properties :
#
#
# Convention : Reuss Voigt Hill
#
# Bulk Modulus (GPa) = 31.50887 42.51490 37.01189
# Shear Modulus (GPa) = 20.89952 25.32059 23.11006
#
# Velocity S-wave (km/s) = 3.31633 3.65029 3.48731
# Velocity P-wave (km/s) = 5.58974 6.33553 5.97428
#
# Compressibility (1/GPa) = 0.03173710
#
# Stress axis : x y z
#
# Youngs Moduli (GPa) = 45.99664 103.40330 83.30777
#
# Poissons Ratio (x) = 0.00795 0.11468
# Poissons Ratio (y) = 0.00354 0.36535
# Poissons Ratio (z) = 0.06332 0.45349
#
# Static dielectric constant tensor:
#      x y z
#    x 1.646170 0.000000 0.000000 
#    y 0.000000 1.670670 0.000000 
#    z 0.000000 0.000000 1.645850 
# 
# From -- ./inp_files/43748.got.cif
#   From: 2010.05.17/outbox.cif.g08.bks.cpg/sg74_22_cif.got.tgz:43748.got - 2010.06.03 17:57:02.
