data_PCOD9539299
_publ_section_title
;
Structure prediction by ZEFSAII (Michael W. Deem and Ramdas Pophale) SiO2 
 PCOD9539299
Probable space group: I M M A
;
_chemical_formula_sum "Si O2"
_cell_formula_units_Z 88
_cell_length_a 8.619640
_cell_length_b 31.317730
_cell_length_c 18.004891
_cell_angle_alpha 90.000000
_cell_angle_beta 90.000000
_cell_angle_gamma 90.000000
_cell_volume 4860.376361
_symmetry_space_group_name_H-M "I M M A"
_symmetry_group_IT_number 74
_symmetry_cell_setting 'orthorhombic'
loop_
_space_group_symop_operation_xyz
x,y,z
-x,1/2-y,z
x,-y,-z
-x,1/2+y,-z
-x,-y,-z
x,1/2+y,-z
-x,y,z
x,1/2-y,z
1/2+x,1/2+y,1/2+z
1/2-x,-y,1/2+z
1/2+x,1/2-y,1/2-z
1/2-x,y,1/2-z
1/2-x,1/2-y,1/2-z
1/2+x,y,1/2-z
1/2-x,1/2+y,1/2+z
1/2+x,-y,1/2+z
loop_
_atom_site_type_symbol
_atom_site_label
_atom_site_fract_x
_atom_site_fract_y
_atom_site_fract_z
Si Si1 0.814783 0.750000 0.667214
Si Si2 0.686631 0.701216 0.333866
Si Si3 0.184781 0.418181 0.326516
Si Si4 0.183934 0.049486 0.018702
Si Si5 0.315029 0.663550 0.603255
Si Si6 0.185025 0.130699 0.552630
O O1 0.750000 0.750000 0.750000
O O2 0.748933 0.791284 0.627062
O O3 0.000000 0.750000 0.667583
O O4 0.500000 0.698973 0.333556
O O5 0.729367 0.750000 0.359482
O O6 0.750000 0.697004 0.250000
O O7 0.750875 0.662626 0.384245
O O8 0.250000 0.437415 0.250000
O O9 0.234640 0.441735 0.402237
O O10 0.261993 0.371761 0.337392
O O11 0.000000 0.414786 0.323094
O O12 0.000000 0.058120 0.026807
O O13 0.248613 0.082421 0.956540
O O14 0.206069 0.000000 0.000000
O O15 0.500000 0.663544 0.596462
O O16 0.238144 0.650930 0.525429
O O17 0.000000 0.128670 0.558104
#
# Coordination Sequence:
#
# PCOD9539299 Si02
#       6
#     8  16  16  16  16  16
#     4  12  24  38  52  74 107 144 185 228 276 324
#     4  10  21  38  60  86 118 155 197 244 297 353
#     4  11  21  36  58  83 112 146 186 229 278 335
#     4  10  21  39  62  87 116 149 189 239 293 348
#     4  11  22  37  55  78 109 146 188 231 276 325
#     4  11  22  37  59  86 116 151 191 235 284 344
#
# _framework density 18.105595000000001
#
# number of rings (size 3 to 8) (size 9 to 14) (size 15 to 20)
#    0.000    1.273    0.000    9.545    1.273    2.545 
#    0.000    0.909    0.000    4.364    0.000    0.000 
#    0.000    0.000    0.000    0.000    0.000    0.000 
#
# Total GULP energy -245735.797322 kJ/mol
# GULP energy per Si atom -5584.904485 kJ/mol
# Density = 1.806439 g / cm^3
# Si number density = 18.105595 Si / 1000 Ang^3
#
#
#
# Elastic Constant Matrix: (Units=GPa)
#
#
# Indices 1 2 3 4 5 6 
#
# 1 101.5438 42.2006 17.4501 0.0000 0.0000 0.0000
# 2 42.2006 112.6441 35.5897 -0.0001 0.0000 0.0000
# 3 17.4501 35.5897 69.2188 0.0000 0.0000 0.0000
# 4 0.0000 -0.0001 0.0000 17.2182 0.0000 0.0000
# 5 0.0000 0.0000 0.0000 0.0000 35.8366 0.0000
# 6 0.0000 0.0000 0.0000 0.0000 0.0000 25.2116
#
#
#
# Elastic Compliance Matrix: (Units=1/GPa)
#
#
# Indices 1 2 3 4 5 6 
#
# 1 0.011704 -0.004122 -0.000831 0.000000 0.000000 0.000000
# 2 -0.004122 0.012051 -0.005157 0.000000 0.000000 0.000000
# 3 -0.000831 -0.005157 0.017308 0.000000 0.000000 0.000000
# 4 0.000000 0.000000 0.000000 0.058078 0.000000 0.000000
# 5 0.000000 0.000000 0.000000 0.000000 0.027904 0.000000
# 6 0.000000 0.000000 0.000000 0.000000 0.000000 0.039664
#
#
# Mechanical properties :
#
#
# Convention : Reuss Voigt Hill
#
# Bulk Modulus (GPa) = 47.97890 52.65418 50.31654
# Shear Modulus (GPa) = 25.78942 28.19771 26.99356
#
# Velocity S-wave (km/s) = 3.77820 3.95068 3.86540
# Velocity P-wave (km/s) = 6.75204 7.06791 6.91178
#
# Compressibility (1/GPa) = 0.02084249
#
# Stress axis : x y z
#
# Youngs Moduli (GPa) = 85.44159 82.97947 57.77659
#
# Poissons Ratio (x) = 0.34205 0.04802
# Poissons Ratio (y) = 0.35220 0.29796
# Poissons Ratio (z) = 0.07101 0.42793
#
# Static dielectric constant tensor:
#      x y z
#    x 1.601650 0.000000 0.000000 
#    y 0.000000 1.622100 0.000000 
#    z 0.000000 0.000000 1.601430 
# 
# From -- ./inp_files/40104.got.cif
#   From: 2010.05.17/outbox.cif.g08.bks.cpg/sg74_21_cif.got.tgz:40104.got - 2010.06.03 17:57:02.
