data_PCOD9539750
_publ_section_title
;
Structure prediction by ZEFSAII (Michael W. Deem and Ramdas Pophale) SiO2 
 PCOD9539750
Probable space group: I M M A
;
_chemical_formula_sum "Si O2"
_cell_formula_units_Z 104
_cell_length_a 28.883055
_cell_length_b 21.735180
_cell_length_c 8.953069
_cell_angle_alpha 90.000000
_cell_angle_beta 90.000000
_cell_angle_gamma 90.000000
_cell_volume 5620.543326
_symmetry_space_group_name_H-M "I M M A"
_symmetry_group_IT_number 74
_symmetry_cell_setting 'orthorhombic'
loop_
_space_group_symop_operation_xyz
x,y,z
-x,1/2-y,z
x,-y,-z
-x,1/2+y,-z
-x,-y,-z
x,1/2+y,-z
-x,y,z
x,1/2-y,z
1/2+x,1/2+y,1/2+z
1/2-x,-y,1/2+z
1/2+x,1/2-y,1/2-z
1/2-x,y,1/2-z
1/2-x,1/2-y,1/2-z
1/2+x,y,1/2-z
1/2-x,1/2+y,1/2+z
1/2+x,-y,1/2+z
loop_
_atom_site_type_symbol
_atom_site_label
_atom_site_fract_x
_atom_site_fract_y
_atom_site_fract_z
Si Si1 0.872994 0.062057 0.771716
Si Si2 0.554872 0.750000 0.692112
Si Si3 0.623306 0.886600 0.935982
Si Si4 0.796788 0.474462 0.332829
Si Si5 0.552802 0.046929 0.276349
Si Si6 0.078023 0.643223 0.011794
Si Si7 0.605180 0.750000 0.975141
Si Si8 0.050122 0.750000 0.232795
O O1 0.879458 0.091189 0.607606
O O2 0.824535 0.026094 0.762566
O O3 0.914029 0.012055 0.791591
O O4 0.879079 0.112221 0.901979
O O5 0.500000 0.750000 0.650831
O O6 0.581696 0.808083 0.622635
O O7 0.560168 0.750000 0.868433
O O8 0.666211 0.920135 0.856484
O O9 0.577464 0.911181 0.850924
O O10 0.629689 0.813735 0.938025
O O11 0.787535 0.500000 0.500000
O O12 0.750000 0.457082 0.250000
O O13 0.500000 0.031264 0.238098
O O14 0.552974 0.086655 0.429216
O O15 0.054107 0.687991 0.133508
O O16 0.590034 0.750000 0.146064
O O17 0.000000 0.750000 0.305888
#
# Coordination Sequence:
#
# PCOD9539750 Si02
#       8
#    16   8  16  16  16  16   8   8
#     4  10  22  39  57  86 118 152 193 240 292 356
#     4  11  23  37  53  78 114 159 211 256 282 323
#     4  10  22  40  58  85 116 151 201 239 285 345
#     4   9  20  40  66  92 117 142 184 241 297 362
#     4  11  22  35  53  78 119 161 193 245 296 337
#     4  11  21  36  52  80 117 153 195 254 288 331
#     4  12  21  40  61  76 109 166 195 246 291 336
#     4  11  23  35  55  80 108 162 221 248 274 333
#
# _framework density 18.503547999999999
#
# number of rings (size 3 to 8) (size 9 to 14) (size 15 to 20)
#    0.000    1.538    3.077    3.923    0.000    6.769 
#    0.000    0.385    0.000    0.000    0.000    4.308 
#    0.000    0.000    0.000    0.000    0.000    0.000 
#
# Total GULP energy -289782.816061 kJ/mol
# GULP energy per Si atom -5572.746463 kJ/mol
# Density = 1.846143 g / cm^3
# Si number density = 18.503548 Si / 1000 Ang^3
#
#
#
# Elastic Constant Matrix: (Units=GPa)
#
#
# Indices 1 2 3 4 5 6 
#
# 1 85.1433 25.7791 32.4902 0.0000 0.0000 0.0000
# 2 25.7791 105.1863 24.6018 0.0000 0.0000 0.0000
# 3 32.4902 24.6018 69.6541 0.0000 0.0000 0.0000
# 4 0.0000 0.0000 0.0000 32.9292 0.0000 0.0000
# 5 0.0000 0.0000 0.0000 0.0000 25.7830 0.0000
# 6 0.0000 0.0000 0.0000 0.0000 0.0000 -1.5645
#
#
#
# Elastic Compliance Matrix: (Units=1/GPa)
#
#
# Indices 1 2 3 4 5 6 
#
# 1 0.014734 -0.002184 -0.006101 0.000000 0.000000 0.000000
# 2 -0.002184 0.010687 -0.002756 0.000000 0.000000 0.000000
# 3 -0.006101 -0.002756 0.018176 0.000000 0.000000 0.000000
# 4 0.000000 0.000000 0.000000 0.030368 0.000000 0.000000
# 5 0.000000 0.000000 0.000000 0.000000 0.038785 0.000000
# 6 0.000000 0.000000 0.000000 0.000000 0.000000 -0.639187
#
#
# Mechanical properties :
#
#
# Convention : Reuss Voigt Hill
#
# Bulk Modulus (GPa) = 46.48014 47.30288 46.89151
# Shear Modulus (GPa) = -10.05667 23.23705 6.59019
#
# Velocity S-wave (km/s) = -2.33384 3.54759 1.88926
# Velocity P-wave (km/s) = 4.23222 6.51155 5.49145
#
# Compressibility (1/GPa) = 0.02151457
#
# Stress axis : x y z
#
# Youngs Moduli (GPa) = 67.86804 93.57373 55.01748
#
# Poissons Ratio (x) = 0.20437 0.33569
# Poissons Ratio (y) = 0.14823 0.15162
# Poissons Ratio (z) = 0.41410 0.25787
#
# Static dielectric constant tensor:
#      x y z
#    x 1.587890 0.000000 0.000000 
#    y 0.000000 1.673960 0.000000 
#    z 0.000000 0.000000 1.670500 
# 
# From -- ./inp_files/16233.got.cif
#   From: 2010.05.17/outbox.cif.g08.bks.cpg/sg74_9_cif.got.tgz:16233.got - 2010.06.03 17:57:02.
