data_PCOD9539752
_publ_section_title
;
Structure prediction by ZEFSAII (Michael W. Deem and Ramdas Pophale) SiO2 
 PCOD9539752
Probable space group: I M M A
;
_chemical_formula_sum "Si O2"
_cell_formula_units_Z 96
_cell_length_a 16.962966
_cell_length_b 14.351004
_cell_length_c 21.020096
_cell_angle_alpha 90.000000
_cell_angle_beta 90.000000
_cell_angle_gamma 90.000000
_cell_volume 5117.039533
_symmetry_space_group_name_H-M "I M M A"
_symmetry_group_IT_number 74
_symmetry_cell_setting 'orthorhombic'
loop_
_space_group_symop_operation_xyz
x,y,z
-x,1/2-y,z
x,-y,-z
-x,1/2+y,-z
-x,-y,-z
x,1/2+y,-z
-x,y,z
x,1/2-y,z
1/2+x,1/2+y,1/2+z
1/2-x,-y,1/2+z
1/2+x,1/2-y,1/2-z
1/2-x,y,1/2-z
1/2-x,1/2-y,1/2-z
1/2+x,y,1/2-z
1/2-x,1/2+y,1/2+z
1/2+x,-y,1/2+z
loop_
_atom_site_type_symbol
_atom_site_label
_atom_site_fract_x
_atom_site_fract_y
_atom_site_fract_z
Si Si1 0.500000 0.137766 0.375447
Si Si2 0.360443 0.142350 0.613111
Si Si3 0.500000 0.362844 0.520651
Si Si4 0.678193 0.142607 0.913565
Si Si5 0.355088 0.537245 0.691108
Si Si6 0.672587 0.038153 0.162338
Si Si7 0.408890 0.862139 0.955560
O O1 0.500000 0.250000 0.372965
O O2 0.500000 0.104710 0.448615
O O3 0.577946 0.097635 0.342298
O O4 0.376025 0.250000 0.631269
O O5 0.423148 0.111271 0.560516
O O6 0.273175 0.139147 0.583079
O O7 0.366187 0.070985 0.671433
O O8 0.500000 0.250000 0.517609
O O9 0.655635 0.250000 0.899943
O O10 0.658672 0.068908 0.858806
O O11 0.637806 0.113293 0.979751
O O12 0.358648 0.552198 0.766575
O O13 0.266448 0.558777 0.666463
O O14 0.632108 0.097864 0.107234
O O15 0.500000 0.892617 0.959419
O O16 0.407661 0.750000 0.951964
#
# Coordination Sequence:
#
# PCOD9539752 Si02
#       7
#     8  16   8  16  16  16  16
#     4  11  25  41  58  82 116 153 194 238 277 328
#     4   9  18  35  60  88 118 148 182 228 282 343
#     4   9  19  35  57  84 113 147 186 230 278 324
#     4   9  19  36  60  88 115 146 184 231 289 344
#     4  10  23  39  56  85 117 152 192 227 279 341
#     4  10  22  39  58  84 117 149 189 236 280 335
#     4  10  22  39  60  84 111 147 194 242 288 332
#
# _framework density 18.760846999999998
#
# number of rings (size 3 to 8) (size 9 to 14) (size 15 to 20)
#    0.000    2.333    0.000    1.000    3.500    4.667 
#    0.000    5.000    0.000    0.000    0.000    0.000 
#    0.000    0.000    0.000    0.000    0.000    0.000 
#
# Total GULP energy -267874.328888 kJ/mol
# GULP energy per Si atom -5580.715185 kJ/mol
# Density = 1.871815 g / cm^3
# Si number density = 18.760847 Si / 1000 Ang^3
#
#
#
# Elastic Constant Matrix: (Units=GPa)
#
#
# Indices 1 2 3 4 5 6 
#
# 1 24.4699 7.8549 6.4538 0.0000 0.0000 0.0000
# 2 7.8549 40.5291 -10.8099 0.0000 0.0000 0.0000
# 3 6.4538 -10.8099 44.7126 0.0000 0.0000 0.0000
# 4 0.0000 0.0000 0.0000 16.2917 0.0000 0.0000
# 5 0.0000 0.0000 0.0000 0.0000 24.3939 0.0000
# 6 0.0000 0.0000 0.0000 0.0000 0.0000 23.4003
#
#
#
# Elastic Compliance Matrix: (Units=1/GPa)
#
#
# Indices 1 2 3 4 5 6 
#
# 1 0.047169 -0.011713 -0.009640 0.000000 0.000000 0.000000
# 2 -0.011713 0.029283 0.008770 0.000000 0.000000 0.000000
# 3 -0.009640 0.008770 0.025877 0.000000 0.000000 0.000000
# 4 0.000000 0.000000 0.000000 0.061381 0.000000 0.000000
# 5 0.000000 0.000000 0.000000 0.000000 0.040994 0.000000
# 6 0.000000 0.000000 0.000000 0.000000 0.000000 0.042735
#
#
# Mechanical properties :
#
#
# Convention : Reuss Voigt Hill
#
# Bulk Modulus (GPa) = 12.95960 12.96769 12.96364
# Shear Modulus (GPa) = 16.76026 19.89802 18.32914
#
# Velocity S-wave (km/s) = 2.99216 3.26024 3.12907
# Velocity P-wave (km/s) = 4.34283 4.59340 4.46987
#
# Compressibility (1/GPa) = 0.07716289
#
# Stress axis : x y z
#
# Youngs Moduli (GPa) = 21.20043 34.14968 38.64458
#
# Poissons Ratio (x) = 0.39999 0.37254
# Poissons Ratio (y) = 0.24832 -0.33892
# Poissons Ratio (z) = 0.20438 -0.29950
#
# Static dielectric constant tensor:
#      x y z
#    x 1.639130 0.000000 0.000000 
#    y 0.000000 1.677420 0.000000 
#    z 0.000000 0.000000 1.599370 
# 
# From -- ./inp_files/51946.got.cif
#   From: 2010.05.17/outbox.cif.g08.bks.cpg/sg74_26_cif.got.tgz:51946.got - 2010.06.03 17:57:02.
