data_PCOD9539007
_publ_section_title
;
Structure prediction by ZEFSAII (Michael W. Deem and Ramdas Pophale) SiO2 
 PCOD9539007
Probable space group: I M M A
;
_chemical_formula_sum "Si O2"
_cell_formula_units_Z 96
_cell_length_a 13.854715
_cell_length_b 20.876317
_cell_length_c 16.182367
_cell_angle_alpha 90.000000
_cell_angle_beta 90.000000
_cell_angle_gamma 90.000000
_cell_volume 4680.513753
_symmetry_space_group_name_H-M "I M M A"
_symmetry_group_IT_number 74
_symmetry_cell_setting 'orthorhombic'
loop_
_space_group_symop_operation_xyz
x,y,z
-x,1/2-y,z
x,-y,-z
-x,1/2+y,-z
-x,-y,-z
x,1/2+y,-z
-x,y,z
x,1/2-y,z
1/2+x,1/2+y,1/2+z
1/2-x,-y,1/2+z
1/2+x,1/2-y,1/2-z
1/2-x,y,1/2-z
1/2-x,1/2-y,1/2-z
1/2+x,y,1/2-z
1/2-x,1/2+y,1/2+z
1/2+x,-y,1/2+z
loop_
_atom_site_type_symbol
_atom_site_label
_atom_site_fract_x
_atom_site_fract_y
_atom_site_fract_z
Si Si1 0.889488 0.049115 0.643368
Si Si2 0.302318 0.319856 0.572491
Si Si3 0.613409 0.178091 0.750519
Si Si4 0.780901 0.080739 0.338599
Si Si5 0.887943 0.132786 0.491326
Si Si6 0.108561 0.928878 0.963883
O O1 0.874161 0.115762 0.692424
O O2 0.879244 0.068062 0.546872
O O3 0.000000 0.029279 0.657600
O O4 0.821911 0.991350 0.669817
O O5 0.341832 0.250000 0.549445
O O6 0.317920 0.325484 0.670744
O O7 0.194179 0.324440 0.535143
O O8 0.360980 0.377690 0.532569
O O9 0.500000 0.175771 0.723772
O O10 0.625886 0.250000 0.788019
O O11 0.750000 0.107548 0.250000
O O12 0.856438 0.118703 0.397300
O O13 0.684017 0.077620 0.391262
O O14 0.000000 0.153807 0.498329
O O15 0.000000 0.917291 0.935982
O O16 0.115074 0.000000 0.000000
#
# Coordination Sequence:
#
# PCOD9539007 Si02
#       6
#    16  16  16  16  16  16
#     4  10  21  36  58  84 119 168 211 247 296 360
#     4  10  21  38  63  93 127 167 205 248 307 370
#     4   9  19  35  57  91 131 166 204 248 295 361
#     4  11  23  37  60  85 115 153 202 262 314 367
#     4  10  22  40  59  84 121 161 205 254 306 365
#     4  10  22  39  60  88 122 158 203 255 308 368
#
# _framework density 20.510567999999999
#
# number of rings (size 3 to 8) (size 9 to 14) (size 15 to 20)
#    0.000    2.000    0.000    3.500    4.667    4.667 
#    0.000    3.333    0.000    8.000    0.000    9.333 
#    0.000    0.000    0.000    0.000    0.000    0.000 
#
# Total GULP energy -268060.480506 kJ/mol
# GULP energy per Si atom -5584.593344 kJ/mol
# Density = 2.046388 g / cm^3
# Si number density = 20.510568 Si / 1000 Ang^3
#
#
#
# Elastic Constant Matrix: (Units=GPa)
#
#
# Indices 1 2 3 4 5 6 
#
# 1 79.0763 12.9267 10.6198 -0.0001 0.0000 0.0000
# 2 12.9267 85.2004 25.4874 0.0000 0.0000 0.0000
# 3 10.6198 25.4874 92.0266 0.0000 0.0000 0.0000
# 4 -0.0001 0.0000 0.0000 15.9720 0.0000 0.0000
# 5 0.0000 0.0000 0.0000 0.0000 20.3357 0.0000
# 6 0.0000 0.0000 0.0000 0.0000 0.0000 3.1302
#
#
#
# Elastic Compliance Matrix: (Units=1/GPa)
#
#
# Indices 1 2 3 4 5 6 
#
# 1 0.013059 -0.001669 -0.001045 0.000000 0.000000 0.000000
# 2 -0.001669 0.013011 -0.003411 0.000000 0.000000 0.000000
# 3 -0.001045 -0.003411 0.011932 0.000000 0.000000 0.000000
# 4 0.000000 0.000000 0.000000 0.062610 0.000000 0.000000
# 5 0.000000 0.000000 0.000000 0.000000 0.049175 0.000000
# 6 0.000000 0.000000 0.000000 0.000000 0.000000 0.319466
#
#
# Mechanical properties :
#
#
# Convention : Reuss Voigt Hill
#
# Bulk Modulus (GPa) = 38.83117 39.37456 39.10287
# Shear Modulus (GPa) = 10.20233 21.70554 15.95393
#
# Velocity S-wave (km/s) = 2.23271 3.25662 2.79200
# Velocity P-wave (km/s) = 5.06162 5.77751 5.43138
#
# Compressibility (1/GPa) = 0.02575251
#
# Stress axis : x y z
#
# Youngs Moduli (GPa) = 76.57472 76.86074 83.81083
#
# Poissons Ratio (x) = 0.12826 0.08757
# Poissons Ratio (y) = 0.12779 0.28586
# Poissons Ratio (z) = 0.08001 0.26215
#
# Static dielectric constant tensor:
#      x y z
#    x 1.772510 0.000000 0.000000 
#    y 0.000000 1.722080 0.000000 
#    z 0.000000 0.000000 1.739210 
# 
# From -- ./inp_files/32410.got.cif
#   From: 2010.05.17/outbox.cif.g08.bks.cpg/sg74_17_cif.got.tgz:32410.got - 2010.06.03 17:57:02.
