data_PCOD9539660
_publ_section_title
;
Structure prediction by ZEFSAII (Michael W. Deem and Ramdas Pophale) SiO2 
 PCOD9539660
Probable space group: I M M A
;
_chemical_formula_sum "Si O2"
_cell_formula_units_Z 112
_cell_length_a 14.019974
_cell_length_b 27.872742
_cell_length_c 12.359077
_cell_angle_alpha 90.000000
_cell_angle_beta 90.000000
_cell_angle_gamma 90.000000
_cell_volume 4829.619775
_symmetry_space_group_name_H-M "I M M A"
_symmetry_group_IT_number 74
_symmetry_cell_setting 'orthorhombic'
loop_
_space_group_symop_operation_xyz
x,y,z
-x,1/2-y,z
x,-y,-z
-x,1/2+y,-z
-x,-y,-z
x,1/2+y,-z
-x,y,z
x,1/2-y,z
1/2+x,1/2+y,1/2+z
1/2-x,-y,1/2+z
1/2+x,1/2-y,1/2-z
1/2-x,y,1/2-z
1/2-x,1/2-y,1/2-z
1/2+x,y,1/2-z
1/2-x,1/2+y,1/2+z
1/2+x,-y,1/2+z
loop_
_atom_site_type_symbol
_atom_site_label
_atom_site_fract_x
_atom_site_fract_y
_atom_site_fract_z
Si Si1 0.612610 0.301733 0.185915
Si Si2 0.110693 0.908186 0.740359
Si Si3 0.314789 0.445789 0.027799
Si Si4 0.690301 0.656401 0.020902
Si Si5 0.107177 0.692644 0.018223
Si Si6 0.101537 0.943395 0.986216
Si Si7 0.894214 0.307020 0.725917
O O1 0.500000 0.300632 0.202387
O O2 0.648920 0.250000 0.226089
O O3 0.643286 0.352583 0.236789
O O4 0.635455 0.307670 0.059035
O O5 0.174278 0.939006 0.657211
O O6 0.108135 0.928322 0.861066
O O7 0.000000 0.910229 0.701774
O O8 0.209878 0.437142 0.974439
O O9 0.345776 0.500000 0.000000
O O10 0.359934 0.395453 0.990735
O O11 0.800531 0.663020 0.980998
O O12 0.681576 0.670544 0.145445
O O13 0.122782 0.750000 0.003472
O O14 0.105528 0.682457 0.146814
O O15 0.000000 0.682420 0.973829
O O16 0.000000 0.922689 0.030208
O O17 0.092094 0.000000 0.000000
O O18 0.882592 0.250000 0.718362
O O19 0.000000 0.319993 0.684711
#
# Coordination Sequence:
#
# PCOD9539660 Si02
#       7
#    16  16  16  16  16  16  16
#     4   9  17  29  49  80 111 138 174 217 264 326
#     4   9  18  34  58  84 111 143 175 218 275 325
#     4  10  22  37  53  76 108 144 181 225 276 324
#     4  11  19  29  49  71  99 140 184 228 274 325
#     4   9  18  31  47  71 105 143 181 223 273 326
#     4   9  18  36  61  82  99 129 177 223 264 316
#     4   9  17  30  49  73 102 137 177 222 272 326
#
# _framework density 23.190232999999999
#
# number of rings (size 3 to 8) (size 9 to 14) (size 15 to 20)
#    0.000    2.571    0.000    3.429    0.000    3.714 
#    0.000    5.714    0.000   15.429    0.000    2.000 
#    0.000    0.000    0.000    0.000    0.000    0.571 
#
# Total GULP energy -311932.832045 kJ/mol
# GULP energy per Si atom -5570.229144 kJ/mol
# Density = 2.313745 g / cm^3
# Si number density = 23.190233 Si / 1000 Ang^3
#
#
#
# Elastic Constant Matrix: (Units=GPa)
#
#
# Indices 1 2 3 4 5 6 
#
# 1 81.4610 15.6496 0.4760 0.0000 0.0000 0.0000
# 2 15.6496 156.2631 32.3905 -0.0002 0.0000 0.0000
# 3 0.4760 32.3905 68.3739 0.0004 -0.0001 0.0000
# 4 0.0000 -0.0002 0.0004 66.9982 0.0000 0.0001
# 5 0.0000 0.0000 -0.0001 0.0000 25.8508 0.0000
# 6 0.0000 0.0000 0.0000 0.0001 0.0000 10.0472
#
#
#
# Elastic Compliance Matrix: (Units=1/GPa)
#
#
# Indices 1 2 3 4 5 6 
#
# 1 0.012536 -0.001372 0.000563 0.000000 0.000000 0.000000
# 2 -0.001372 0.007246 -0.003423 0.000000 0.000000 0.000000
# 3 0.000563 -0.003423 0.016243 0.000000 0.000000 0.000000
# 4 0.000000 0.000000 0.000000 0.014926 0.000000 0.000000
# 5 0.000000 0.000000 0.000000 0.000000 0.038684 0.000000
# 6 0.000000 0.000000 0.000000 0.000000 0.000000 0.099530
#
#
# Mechanical properties :
#
#
# Convention : Reuss Voigt Hill
#
# Bulk Modulus (GPa) = 36.28381 44.79222 40.53801
# Shear Modulus (GPa) = 24.17594 37.75137 30.96366
#
# Velocity S-wave (km/s) = 3.23229 4.03910 3.65801
# Velocity P-wave (km/s) = 5.44154 6.41167 5.94642
#
# Compressibility (1/GPa) = 0.02756050
#
# Stress axis : x y z
#
# Youngs Moduli (GPa) = 79.76943 137.99830 61.56409
#
# Poissons Ratio (x) = 0.18935 -0.03465
# Poissons Ratio (y) = 0.10945 0.21075
# Poissons Ratio (z) = -0.04489 0.47241
#
# Static dielectric constant tensor:
#      x y z
#    x 2.077710 0.000000 0.000000 
#    y 0.000000 1.887430 0.000000 
#    z 0.000000 0.000000 1.860840 
# 
# From -- ./inp_files/32930.got.cif
#   From: 2010.05.17/outbox.cif.g08.bks.cpg/sg74_17_cif.got.tgz:32930.got - 2010.06.03 17:57:02.
