data_PCOD9539430
_publ_section_title
;
Structure prediction by ZEFSAII (Michael W. Deem and Ramdas Pophale) SiO2 
 PCOD9539430
Probable space group: I M M A
;
_chemical_formula_sum "Si O2"
_cell_formula_units_Z 92
_cell_length_a 10.096391
_cell_length_b 21.187889
_cell_length_c 24.180137
_cell_angle_alpha 90.000000
_cell_angle_beta 90.000000
_cell_angle_gamma 90.000000
_cell_volume 5172.644209
_symmetry_space_group_name_H-M "I M M A"
_symmetry_group_IT_number 74
_symmetry_cell_setting 'orthorhombic'
loop_
_space_group_symop_operation_xyz
x,y,z
-x,1/2-y,z
x,-y,-z
-x,1/2+y,-z
-x,-y,-z
x,1/2+y,-z
-x,y,z
x,1/2-y,z
1/2+x,1/2+y,1/2+z
1/2-x,-y,1/2+z
1/2+x,1/2-y,1/2-z
1/2-x,y,1/2-z
1/2-x,1/2-y,1/2-z
1/2+x,y,1/2-z
1/2-x,1/2+y,1/2+z
1/2+x,-y,1/2+z
loop_
_atom_site_type_symbol
_atom_site_label
_atom_site_fract_x
_atom_site_fract_y
_atom_site_fract_z
Si Si1 0.000000 0.250000 0.739490
Si Si2 0.155351 0.861931 0.084424
Si Si3 0.766038 0.750000 0.166241
Si Si4 0.500000 0.326342 0.198508
Si Si5 0.000000 0.175766 0.169602
Si Si6 0.343837 0.505140 0.566038
Si Si7 0.727660 0.375374 0.122397
Si Si8 0.854383 0.176028 0.492959
O O1 0.882567 0.250000 0.788058
O O2 0.880247 0.250000 0.692386
O O3 0.212612 0.812979 0.129064
O O4 0.167030 0.936739 0.095124
O O5 0.000000 0.847661 0.076917
O O6 0.236661 0.852407 0.028368
O O7 0.500000 0.250000 0.186557
O O8 0.500000 0.333369 0.264399
O O9 0.625803 0.361223 0.171572
O O10 0.130070 0.146858 0.142863
O O11 0.000000 0.250000 0.158782
O O12 0.313268 0.500000 0.500000
O O13 0.500000 0.524309 0.568857
O O14 0.250435 0.554899 0.597187
O O15 0.673939 0.334799 0.071136
O O16 0.856655 0.250000 0.504909
O O17 0.000000 0.149325 0.506853
#
# Coordination Sequence:
#
# PCOD9539430 Si02
#       8
#     4  16   8   8   8  16  16  16
#     4  10  24  42  72  90 128 162 212 270 340 370
#     4  11  22  38  65  93 125 165 209 252 318 384
#     4  11  22  44  68 100 126 166 211 280 322 375
#     4  11  24  44  65  90 128 163 206 274 322 352
#     4  11  24  40  67  92 112 163 224 262 306 362
#     4  10  21  39  60  90 128 171 201 247 310 383
#     4  12  22  41  62  89 126 167 209 252 314 382
#     4  11  23  36  56  94 133 161 195 255 324 378
#
# _framework density 17.785872999999999
#
# number of rings (size 3 to 8) (size 9 to 14) (size 15 to 20)
#    0.000    1.043    5.217    2.087    2.435    1.391 
#    1.565    1.304   11.478    0.000    0.000    0.000 
#    0.000    0.000    0.000    0.000    0.000    0.000 
#
# Total GULP energy -256133.426413 kJ/mol
# GULP energy per Si atom -5568.117966 kJ/mol
# Density = 1.774539 g / cm^3
# Si number density = 17.785873 Si / 1000 Ang^3
#
#
#
# Elastic Constant Matrix: (Units=GPa)
#
#
# Indices 1 2 3 4 5 6 
#
# 1 110.7712 30.1308 26.0375 0.0000 0.0000 0.0000
# 2 30.1308 83.5246 31.8788 0.0000 0.0000 0.0000
# 3 26.0375 31.8788 59.2673 0.0000 0.0000 0.0000
# 4 0.0000 0.0000 0.0000 19.7216 0.0000 0.0000
# 5 0.0000 0.0000 0.0000 0.0000 28.4557 0.0000
# 6 0.0000 0.0000 0.0000 0.0000 0.0000 10.1569
#
#
#
# Elastic Compliance Matrix: (Units=1/GPa)
#
#
# Indices 1 2 3 4 5 6 
#
# 1 0.010481 -0.002546 -0.003235 0.000000 0.000000 0.000000
# 2 -0.002546 0.015684 -0.007317 0.000000 0.000000 0.000000
# 3 -0.003235 -0.007317 0.022230 0.000000 0.000000 0.000000
# 4 0.000000 0.000000 0.000000 0.050706 0.000000 0.000000
# 5 0.000000 0.000000 0.000000 0.000000 0.035142 0.000000
# 6 0.000000 0.000000 0.000000 0.000000 0.000000 0.098455
#
#
# Mechanical properties :
#
#
# Convention : Reuss Voigt Hill
#
# Bulk Modulus (GPa) = 45.05051 47.73969 46.39510
# Shear Modulus (GPa) = 18.77626 22.70124 20.73875
#
# Velocity S-wave (km/s) = 3.25265 3.57650 3.41841
# Velocity P-wave (km/s) = 6.28416 6.62984 6.45931
#
# Compressibility (1/GPa) = 0.02219731
#
# Stress axis : x y z
#
# Youngs Moduli (GPa) = 95.41474 63.75969 44.98473
#
# Poissons Ratio (x) = 0.16234 0.14552
# Poissons Ratio (y) = 0.24294 0.32918
# Poissons Ratio (z) = 0.30865 0.46656
#
# Static dielectric constant tensor:
#      x y z
#    x 1.614160 0.000000 0.000000 
#    y 0.000000 1.616640 0.000000 
#    z 0.000000 0.000000 1.600110 
# 
# From -- ./inp_files/57102.got.cif
#   From: 2010.05.17/outbox.cif.g08.bks.cpg/sg74_29_cif.got.tgz:57102.got - 2010.06.03 17:57:02.
