data_PCOD9539969
_publ_section_title
;
Structure prediction by ZEFSAII (Michael W. Deem and Ramdas Pophale) SiO2 
 PCOD9539969
Probable space group: I M M A
;
_chemical_formula_sum "Si O2"
_cell_formula_units_Z 56
_cell_length_a 17.550798
_cell_length_b 8.790294
_cell_length_c 17.649731
_cell_angle_alpha 90.000000
_cell_angle_beta 90.000000
_cell_angle_gamma 90.000000
_cell_volume 2722.941802
_symmetry_space_group_name_H-M "I M M A"
_symmetry_group_IT_number 74
_symmetry_cell_setting 'orthorhombic'
loop_
_space_group_symop_operation_xyz
x,y,z
-x,1/2-y,z
x,-y,-z
-x,1/2+y,-z
-x,-y,-z
x,1/2+y,-z
-x,y,z
x,1/2-y,z
1/2+x,1/2+y,1/2+z
1/2-x,-y,1/2+z
1/2+x,1/2-y,1/2-z
1/2-x,y,1/2-z
1/2-x,1/2-y,1/2-z
1/2+x,y,1/2-z
1/2-x,1/2+y,1/2+z
1/2+x,-y,1/2+z
loop_
_atom_site_type_symbol
_atom_site_label
_atom_site_fract_x
_atom_site_fract_y
_atom_site_fract_z
Si Si1 0.638751 0.931874 0.178271
Si Si2 0.000000 0.931672 0.583483
Si Si3 0.410746 0.431641 0.648833
Si Si4 0.732471 0.569774 0.580076
O O1 0.638827 0.750000 0.168219
O O2 0.617594 0.962530 0.265430
O O3 0.573556 0.007346 0.127540
O O4 0.717974 0.998138 0.147987
O O5 0.000000 0.750000 0.580975
O O6 0.000000 0.000000 0.500000
O O7 0.500000 0.469888 0.642047
O O8 0.402400 0.250000 0.635559
O O9 0.354846 0.522417 0.594080
O O10 0.758730 0.500000 0.500000
O O11 0.741626 0.750000 0.578928
#
# Coordination Sequence:
#
# PCOD9539969 Si02
#       4
#    16   8  16  16
#     4  11  22  42  67  94 128 168 211 259 318 383
#     4  12  24  38  60  92 131 170 211 260 314 376
#     4  10  22  43  69  96 127 168 212 258 318 385
#     4  12  26  43  64  94 129 170 215 267 321 376
#
# _framework density 20.565992999999999
#
# number of rings (size 3 to 8) (size 9 to 14) (size 15 to 20)
#    0.000    0.857    1.429    6.429    0.000    6.857 
#    0.000    0.000    0.000    0.000    0.000    0.000 
#    0.000    0.000    0.000    0.000    0.000    0.000 
#
# Total GULP energy -156758.814678 kJ/mol
# GULP energy per Si atom -5598.529096 kJ/mol
# Density = 2.051918 g / cm^3
# Si number density = 20.565993 Si / 1000 Ang^3
#
#
#
# Elastic Constant Matrix: (Units=GPa)
#
#
# Indices 1 2 3 4 5 6 
#
# 1 101.1860 27.3300 0.0075 0.0000 0.0000 0.0000
# 2 27.3300 86.8705 30.0055 0.0000 0.0000 0.0000
# 3 0.0075 30.0055 30.2460 0.0000 0.0000 0.0000
# 4 0.0000 0.0000 0.0000 29.2087 0.0000 0.0000
# 5 0.0000 0.0000 0.0000 0.0000 77.7805 0.0000
# 6 0.0000 0.0000 0.0000 0.0000 0.0000 38.8376
#
#
#
# Elastic Compliance Matrix: (Units=1/GPa)
#
#
# Indices 1 2 3 4 5 6 
#
# 1 0.011349 -0.005430 0.005384 0.000000 0.000000 0.000000
# 2 -0.005430 0.020110 -0.019949 0.000000 0.000000 0.000000
# 3 0.005384 -0.019949 0.052851 0.000000 0.000000 0.000000
# 4 0.000000 0.000000 0.000000 0.034236 0.000000 0.000000
# 5 0.000000 0.000000 0.000000 0.000000 0.012857 0.000000
# 6 0.000000 0.000000 0.000000 0.000000 0.000000 0.025748
#
#
# Mechanical properties :
#
#
# Convention : Reuss Voigt Hill
#
# Bulk Modulus (GPa) = 22.56283 36.99871 29.78077
# Shear Modulus (GPa) = 23.59430 39.89601 31.74515
#
# Velocity S-wave (km/s) = 3.39078 4.40921 3.93310
# Velocity P-wave (km/s) = 5.13075 6.62954 5.92771
#
# Compressibility (1/GPa) = 0.04432069
#
# Stress axis : x y z
#
# Youngs Moduli (GPa) = 88.11288 49.72586 18.92098
#
# Poissons Ratio (x) = 0.27002 -0.10188
# Poissons Ratio (y) = 0.47847 0.37746
# Poissons Ratio (z) = -0.47442 0.99198
#
# Static dielectric constant tensor:
#      x y z
#    x 1.756980 0.000000 0.000000 
#    y 0.000000 1.678130 0.000000 
#    z 0.000000 0.000000 1.711440 
# 
# From -- ./inp_files/28515.got.cif
#   From: 2010.05.17/outbox.cif.g08.bks.cpg/sg74_15_cif.got.tgz:28515.got - 2010.06.03 17:57:02.
