data_PCOD9539830
_publ_section_title
;
Structure prediction by ZEFSAII (Michael W. Deem and Ramdas Pophale) SiO2 
 PCOD9539830
Probable space group: I M M A
;
_chemical_formula_sum "Si O2"
_cell_formula_units_Z 64
_cell_length_a 30.764382
_cell_length_b 11.426421
_cell_length_c 8.984161
_cell_angle_alpha 90.000000
_cell_angle_beta 90.000000
_cell_angle_gamma 90.000000
_cell_volume 3158.173192
_symmetry_space_group_name_H-M "I M M A"
_symmetry_group_IT_number 74
_symmetry_cell_setting 'orthorhombic'
loop_
_space_group_symop_operation_xyz
x,y,z
-x,1/2-y,z
x,-y,-z
-x,1/2+y,-z
-x,-y,-z
x,1/2+y,-z
-x,y,z
x,1/2-y,z
1/2+x,1/2+y,1/2+z
1/2-x,-y,1/2+z
1/2+x,1/2-y,1/2-z
1/2-x,y,1/2-z
1/2-x,1/2-y,1/2-z
1/2+x,y,1/2-z
1/2-x,1/2+y,1/2+z
1/2+x,-y,1/2+z
loop_
_atom_site_type_symbol
_atom_site_label
_atom_site_fract_x
_atom_site_fract_y
_atom_site_fract_z
Si Si1 0.326557 0.750000 0.741394
Si Si2 0.250000 0.936518 0.250000
Si Si3 0.000000 0.880763 0.405660
Si Si4 0.343670 0.009594 0.323985
Si Si5 0.403039 0.384173 0.892450
Si Si6 0.746787 0.750000 0.990282
O O1 0.357067 0.862513 0.729358
O O2 0.294911 0.750000 0.883889
O O3 0.291907 0.750000 0.602157
O O4 0.245379 0.859152 0.397948
O O5 0.293431 0.007687 0.274280
O O6 0.952642 0.885310 0.330251
O O7 0.000000 0.750000 0.481341
O O8 0.000000 0.000000 0.500000
O O9 0.347344 0.000000 0.500000
O O10 0.368790 0.908675 0.237931
O O11 0.395995 0.250000 0.951308
O O12 0.398969 0.500000 0.000000
#
# Coordination Sequence:
#
# PCOD9539830 Si02
#       6
#     8   8   8  16  16   8
#     4  11  24  40  58  85 122 162 216 268 309 374
#     4  11  24  39  58  84 120 167 213 268 318 362
#     4   8  16  40  67  96 124 156 198 258 315 376
#     4  12  27  40  58  88 127 168 214 261 316 367
#     4  10  24  42  70  98 127 161 208 259 319 381
#     4  10  22  40  62  80 114 166 222 265 315 367
#
# _framework density 20.264880000000002
#
# number of rings (size 3 to 8) (size 9 to 14) (size 15 to 20)
#    0.000    1.500    2.500    1.500   10.500    0.000 
#    0.000    0.625    0.000    0.000    0.000    0.000 
#    0.000    0.000    0.000    0.000    0.000    0.000 
#
# Total GULP energy -178427.363369 kJ/mol
# GULP energy per Si atom -5575.855105 kJ/mol
# Density = 2.021876 g / cm^3
# Si number density = 20.264880 Si / 1000 Ang^3
#
#
#
# Elastic Constant Matrix: (Units=GPa)
#
#
# Indices 1 2 3 4 5 6 
#
# 1 78.6933 25.5954 29.5317 0.0000 0.0000 0.0000
# 2 25.5954 147.2586 31.1214 0.0000 0.0000 0.0000
# 3 29.5317 31.1214 85.9350 0.0000 0.0000 0.0000
# 4 0.0000 0.0000 0.0000 16.2094 0.0000 0.0000
# 5 0.0000 0.0000 0.0000 0.0000 10.6921 0.0000
# 6 0.0000 0.0000 0.0000 0.0000 0.0000 31.7184
#
#
#
# Elastic Compliance Matrix: (Units=1/GPa)
#
#
# Indices 1 2 3 4 5 6 
#
# 1 0.014945 -0.001638 -0.004543 0.000000 0.000000 0.000000
# 2 -0.001638 0.007533 -0.002165 0.000000 0.000000 0.000000
# 3 -0.004543 -0.002165 0.013982 0.000000 0.000000 0.000000
# 4 0.000000 0.000000 0.000000 0.061692 0.000000 0.000000
# 5 0.000000 0.000000 0.000000 0.000000 0.093527 0.000000
# 6 0.000000 0.000000 0.000000 0.000000 0.000000 0.031527
#
#
# Mechanical properties :
#
#
# Convention : Reuss Voigt Hill
#
# Bulk Modulus (GPa) = 50.58524 53.82042 52.20283
# Shear Modulus (GPa) = 20.28496 26.76655 23.52575
#
# Velocity S-wave (km/s) = 3.16728 3.63827 3.41091
# Velocity P-wave (km/s) = 6.19611 6.65323 6.42873
#
# Compressibility (1/GPa) = 0.01976861
#
# Stress axis : x y z
#
# Youngs Moduli (GPa) = 66.91201 132.74886 71.52037
#
# Poissons Ratio (x) = 0.21738 0.32490
# Poissons Ratio (y) = 0.10957 0.15487
# Poissons Ratio (z) = 0.30397 0.28745
#
# Static dielectric constant tensor:
#      x y z
#    x 1.932470 0.000000 0.000000 
#    y 0.000000 1.841890 0.000000 
#    z 0.000000 0.000000 1.705940 
# 
# From -- ./inp_files/15860.got.cif
#   From: 2010.05.17/outbox.cif.g08.bks.cpg/sg74_8_cif.got.tgz:15860.got - 2010.06.03 17:57:02.
