data_PCOD9539978
_publ_section_title
;
Structure prediction by ZEFSAII (Michael W. Deem and Ramdas Pophale) SiO2 
 PCOD9539978
Probable space group: I M M A
;
_chemical_formula_sum "Si O2"
_cell_formula_units_Z 116
_cell_length_a 19.269824
_cell_length_b 21.589333
_cell_length_c 16.218526
_cell_angle_alpha 90.000000
_cell_angle_beta 90.000000
_cell_angle_gamma 90.000000
_cell_volume 6747.274120
_symmetry_space_group_name_H-M "I M M A"
_symmetry_group_IT_number 74
_symmetry_cell_setting 'orthorhombic'
loop_
_space_group_symop_operation_xyz
x,y,z
-x,1/2-y,z
x,-y,-z
-x,1/2+y,-z
-x,-y,-z
x,1/2+y,-z
-x,y,z
x,1/2-y,z
1/2+x,1/2+y,1/2+z
1/2-x,-y,1/2+z
1/2+x,1/2-y,1/2-z
1/2-x,y,1/2-z
1/2-x,1/2-y,1/2-z
1/2+x,y,1/2-z
1/2-x,1/2+y,1/2+z
1/2+x,-y,1/2+z
loop_
_atom_site_type_symbol
_atom_site_label
_atom_site_fract_x
_atom_site_fract_y
_atom_site_fract_z
Si Si1 0.000000 0.250000 0.863627
Si Si2 0.076908 0.623090 0.124258
Si Si3 0.082758 0.179969 0.281271
Si Si4 0.817675 0.072076 0.003807
Si Si5 0.682361 0.086256 0.303933
Si Si6 0.169372 0.553983 0.255087
Si Si7 0.916647 0.179127 0.476003
Si Si8 0.660720 0.437852 0.947119
O O1 0.940760 0.194953 0.865208
O O2 0.118612 0.596556 0.202141
O O3 0.000000 0.592562 0.116463
O O4 0.124679 0.610277 0.045062
O O5 0.103545 0.250000 0.258103
O O6 0.121157 0.129685 0.227229
O O7 0.098549 0.171891 0.378442
O O8 0.000000 0.175227 0.272483
O O9 0.807420 0.091704 0.098411
O O10 0.742654 0.074557 0.960381
O O11 0.839247 0.000000 0.000000
O O12 0.750000 0.102904 0.250000
O O13 0.667365 0.014569 0.283796
O O14 0.250000 0.574767 0.250000
O O15 0.148662 0.550397 0.350693
O O16 0.896237 0.250000 0.499831
O O17 0.880294 0.122872 0.523023
O O18 0.000000 0.175191 0.486210
O O19 0.643789 0.500000 0.000000
#
# Coordination Sequence:
#
# PCOD9539978 Si02
#       8
#     4  16  16  16  16  16  16  16
#     4   8  24  48  64  84 128 156 210 272 304 344
#     4  10  22  44  64  88 122 160 208 257 307 358
#     4   9  19  37  56  78 115 158 198 239 293 362
#     4  11  20  39  62  88 121 157 199 248 306 370
#     4  11  21  35  59  90 122 154 197 252 301 362
#     4  11  20  39  62  87 121 155 201 250 306 366
#     4   9  19  38  57  80 118 159 201 247 299 366
#     4  11  21  36  62  91 121 156 199 255 308 371
#
# _framework density 17.192126999999999
#
# number of rings (size 3 to 8) (size 9 to 14) (size 15 to 20)
#    0.414    1.379    2.759    4.966    0.000    2.483 
#    3.724    0.345    0.000    0.000    0.000    0.000 
#    0.000    0.000    0.000    0.000    0.000    0.000 
#
# Total GULP energy -322906.112756 kJ/mol
# GULP energy per Si atom -5567.346772 kJ/mol
# Density = 1.715300 g / cm^3
# Si number density = 17.192127 Si / 1000 Ang^3
#
#
#
# Elastic Constant Matrix: (Units=GPa)
#
#
# Indices 1 2 3 4 5 6 
#
# 1 60.7106 47.2802 44.0112 0.0000 0.0000 0.0000
# 2 47.2802 73.8592 37.9015 0.0000 0.0000 0.0000
# 3 44.0112 37.9015 127.7256 0.0000 0.0000 0.0000
# 4 0.0000 0.0000 0.0000 13.7504 0.0000 0.0000
# 5 0.0000 0.0000 0.0000 0.0000 19.5361 0.0000
# 6 0.0000 0.0000 0.0000 0.0000 0.0000 68.5258
#
#
#
# Elastic Compliance Matrix: (Units=1/GPa)
#
#
# Indices 1 2 3 4 5 6 
#
# 1 0.037254 -0.020361 -0.006795 0.000000 0.000000 0.000000
# 2 -0.020361 0.027099 -0.001026 0.000000 0.000000 0.000000
# 3 -0.006795 -0.001026 0.010475 0.000000 0.000000 0.000000
# 4 0.000000 0.000000 0.000000 0.072725 0.000000 0.000000
# 5 0.000000 0.000000 0.000000 0.000000 0.051187 0.000000
# 6 0.000000 0.000000 0.000000 0.000000 0.000000 0.014593
#
#
# Mechanical properties :
#
#
# Convention : Reuss Voigt Hill
#
# Bulk Modulus (GPa) = 54.15497 57.85348 56.00422
# Shear Modulus (GPa) = 18.12564 29.23595 23.68079
#
# Velocity S-wave (km/s) = 3.25052 4.12824 3.71539
# Velocity P-wave (km/s) = 6.75693 7.51314 7.14505
#
# Compressibility (1/GPa) = 0.01846553
#
# Stress axis : x y z
#
# Youngs Moduli (GPa) = 26.84260 36.90115 95.46527
#
# Poissons Ratio (x) = 0.75134 0.64868
# Poissons Ratio (y) = 0.54654 0.09791
# Poissons Ratio (z) = 0.18239 0.03785
#
# Static dielectric constant tensor:
#      x y z
#    x 1.592630 0.000000 0.000000 
#    y 0.000000 1.561560 0.000000 
#    z 0.000000 0.000000 1.592060 
# 
# From -- ./inp_files/34552.got.cif
#   From: 2010.05.17/outbox.cif.g08.bks.cpg/sg74_18_cif.got.tgz:34552.got - 2010.06.03 17:57:02.
