data_PCOD9539848
_publ_section_title
;
Structure prediction by ZEFSAII (Michael W. Deem and Ramdas Pophale) SiO2 
 PCOD9539848
Probable space group: I M M A
;
_chemical_formula_sum "Si O2"
_cell_formula_units_Z 56
_cell_length_a 15.365888
_cell_length_b 14.324477
_cell_length_c 12.016156
_cell_angle_alpha 90.000000
_cell_angle_beta 90.000000
_cell_angle_gamma 90.000000
_cell_volume 2644.855781
_symmetry_space_group_name_H-M "I M M A"
_symmetry_group_IT_number 74
_symmetry_cell_setting 'orthorhombic'
loop_
_space_group_symop_operation_xyz
x,y,z
-x,1/2-y,z
x,-y,-z
-x,1/2+y,-z
-x,-y,-z
x,1/2+y,-z
-x,y,z
x,1/2-y,z
1/2+x,1/2+y,1/2+z
1/2-x,-y,1/2+z
1/2+x,1/2-y,1/2-z
1/2-x,y,1/2-z
1/2-x,1/2-y,1/2-z
1/2+x,y,1/2-z
1/2-x,1/2+y,1/2+z
1/2+x,-y,1/2+z
loop_
_atom_site_type_symbol
_atom_site_label
_atom_site_fract_x
_atom_site_fract_y
_atom_site_fract_z
Si Si1 0.500000 0.406712 0.577215
Si Si2 0.311997 0.642274 0.358075
Si Si3 0.000000 0.646728 0.837075
Si Si4 0.201431 0.000000 0.500000
Si Si5 0.842783 0.362211 0.309706
O O1 0.500000 0.500000 0.500000
O O2 0.412771 0.389655 0.647830
O O3 0.500000 0.342662 0.468205
O O4 0.312659 0.750000 0.396308
O O5 0.250000 0.638217 0.250000
O O6 0.264539 0.574095 0.442118
O O7 0.913099 0.606849 0.783068
O O8 0.000000 0.750000 0.788816
O O9 0.149955 0.065002 0.411785
O O10 0.848989 0.250000 0.340104
O O11 0.750000 0.373342 0.250000
#
# Coordination Sequence:
#
# PCOD9539848 Si02
#       5
#     8  16   8   8  16
#     4  12  24  42  72 102 127 172 234 285 333 401
#     4  11  25  44  66  98 139 180 223 281 348 410
#     4  10  22  41  66  94 122 164 222 283 338 393
#     4  12  22  38  64  94 132 176 224 270 342 404
#     4  10  22  40  63  92 128 168 219 280 337 399
#
# _framework density 21.173179000000001
#
# number of rings (size 3 to 8) (size 9 to 14) (size 15 to 20)
#    0.000    1.143    1.429    4.714    4.000    2.857 
#    0.000    1.429    0.000    3.429    0.000    0.000 
#    0.000    0.000    0.000    0.000    0.000    0.000 
#
# Total GULP energy -156059.046786 kJ/mol
# GULP energy per Si atom -5573.537385 kJ/mol
# Density = 2.112499 g / cm^3
# Si number density = 21.173179 Si / 1000 Ang^3
#
#
#
# Elastic Constant Matrix: (Units=GPa)
#
#
# Indices 1 2 3 4 5 6 
#
# 1 146.9007 21.6768 47.7838 0.0000 0.0000 0.0000
# 2 21.6768 151.9384 38.8560 0.0000 0.0000 0.0000
# 3 47.7838 38.8560 73.9288 0.0000 0.0000 0.0000
# 4 0.0000 0.0000 0.0000 45.4634 0.0000 0.0000
# 5 0.0000 0.0000 0.0000 0.0000 39.7599 0.0000
# 6 0.0000 0.0000 0.0000 0.0000 0.0000 -352.2069
#
#
#
# Elastic Compliance Matrix: (Units=1/GPa)
#
#
# Indices 1 2 3 4 5 6 
#
# 1 0.008626 0.000225 -0.005694 0.000000 0.000000 0.000000
# 2 0.000225 0.007610 -0.004145 0.000000 0.000000 0.000000
# 3 -0.005694 -0.004145 0.019386 0.000000 0.000000 0.000000
# 4 0.000000 0.000000 0.000000 0.021996 0.000000 0.000000
# 5 0.000000 0.000000 0.000000 0.000000 0.025151 0.000000
# 6 0.000000 0.000000 0.000000 0.000000 0.000000 -0.002839
#
#
# Mechanical properties :
#
#
# Convention : Reuss Voigt Hill
#
# Bulk Modulus (GPa) = 60.99900 65.48904 63.24402
# Shear Modulus (GPa) = 47.79162 -35.76665 6.01248
#
# Velocity S-wave (km/s) = 4.75613 -4.11450 1.68696
# Velocity P-wave (km/s) = 7.68330 2.90262 5.80768
#
# Compressibility (1/GPa) = 0.01639371
#
# Stress axis : x y z
#
# Youngs Moduli (GPa) = 115.92582 131.41431 51.58486
#
# Poissons Ratio (x) = -0.02963 0.29373
# Poissons Ratio (y) = -0.02614 0.21383
# Poissons Ratio (z) = 0.66009 0.54474
#
# Static dielectric constant tensor:
#      x y z
#    x 1.765920 0.000000 0.000000 
#    y 0.000000 1.522010 0.000000 
#    z 0.000000 0.000000 1.770050 
# 
# From -- ./inp_files/19601.got.cif
#   From: 2010.05.17/outbox.cif.g08.bks.cpg/sg74_10_cif.got.tgz:19601.got - 2010.06.03 17:57:02.
