data_PCOD9539495
_publ_section_title
;
Structure prediction by ZEFSAII (Michael W. Deem and Ramdas Pophale) SiO2 
 PCOD9539495
Probable space group: I M M A
;
_chemical_formula_sum "Si O2"
_cell_formula_units_Z 96
_cell_length_a 21.875867
_cell_length_b 15.953579
_cell_length_c 13.409095
_cell_angle_alpha 90.000000
_cell_angle_beta 90.000000
_cell_angle_gamma 90.000000
_cell_volume 4679.752330
_symmetry_space_group_name_H-M "I M M A"
_symmetry_group_IT_number 74
_symmetry_cell_setting 'orthorhombic'
loop_
_space_group_symop_operation_xyz
x,y,z
-x,1/2-y,z
x,-y,-z
-x,1/2+y,-z
-x,-y,-z
x,1/2+y,-z
-x,y,z
x,1/2-y,z
1/2+x,1/2+y,1/2+z
1/2-x,-y,1/2+z
1/2+x,1/2-y,1/2-z
1/2-x,y,1/2-z
1/2-x,1/2-y,1/2-z
1/2+x,y,1/2-z
1/2-x,1/2+y,1/2+z
1/2+x,-y,1/2+z
loop_
_atom_site_type_symbol
_atom_site_label
_atom_site_fract_x
_atom_site_fract_y
_atom_site_fract_z
Si Si1 0.156168 0.654823 0.563877
Si Si2 0.846532 0.576933 0.350499
Si Si3 0.566907 0.068466 0.208295
Si Si4 0.261085 0.956874 0.607481
Si Si5 0.101175 0.079641 0.073412
Si Si6 0.325600 0.750000 0.261104
Si Si7 0.576023 0.750000 0.447987
O O1 0.154352 0.750000 0.531922
O O2 0.144901 0.597011 0.467398
O O3 0.108660 0.634948 0.650528
O O4 0.222704 0.628357 0.603191
O O5 0.901208 0.520652 0.310749
O O6 0.784512 0.521891 0.337402
O O7 0.842392 0.664015 0.293780
O O8 0.500000 0.070045 0.162988
O O9 0.562942 0.082896 0.325863
O O10 0.331298 0.934713 0.623083
O O11 0.264299 0.000000 0.500000
O O12 0.090944 0.165091 0.010948
O O13 0.089378 0.000000 0.000000
O O14 0.250000 0.750000 0.250000
O O15 0.370868 0.750000 0.359722
O O16 0.500000 0.750000 0.424809
#
# Coordination Sequence:
#
# PCOD9539495 Si02
#       7
#    16  16  16  16  16   8   8
#     4  10  21  39  65  98 139 173 215 288 354 418
#     4  10  22  42  67 103 136 178 227 298 357 427
#     4  11  25  43  65  93 133 186 242 282 342 426
#     4   8  19  37  65  96 134 165 221 274 344 414
#     4  11  25  45  74 100 138 194 235 294 356 418
#     4  12  28  40  77 108 142 179 234 296 365 425
#     4  12  30  50  69 109 154 192 247 301 358 440
#
# _framework density 20.513905999999999
#
# number of rings (size 3 to 8) (size 9 to 14) (size 15 to 20)
#    0.000    1.667    0.833    3.000   11.667    7.000 
#    0.000    0.833    0.000    0.000    0.000    0.000 
#    0.000    0.000    0.000    0.000    0.000    0.000 
#
# Total GULP energy -267431.146109 kJ/mol
# GULP energy per Si atom -5571.482211 kJ/mol
# Density = 2.046722 g / cm^3
# Si number density = 20.513906 Si / 1000 Ang^3
#
#
#
# Elastic Constant Matrix: (Units=GPa)
#
#
# Indices 1 2 3 4 5 6 
#
# 1 137.5962 19.7504 30.3473 0.0000 0.0000 0.0000
# 2 19.7504 119.1045 32.2140 0.0000 0.0000 0.0000
# 3 30.3473 32.2140 94.8597 0.0000 0.0000 0.0000
# 4 0.0000 0.0000 0.0000 22.9118 0.0000 0.0000
# 5 0.0000 0.0000 0.0000 0.0000 9.9932 0.0000
# 6 0.0000 0.0000 0.0000 0.0000 0.0000 -31.9407
#
#
#
# Elastic Compliance Matrix: (Units=1/GPa)
#
#
# Indices 1 2 3 4 5 6 
#
# 1 0.007870 -0.000687 -0.002284 0.000000 0.000000 0.000000
# 2 -0.000687 0.009305 -0.002940 0.000000 0.000000 0.000000
# 3 -0.002284 -0.002940 0.012271 0.000000 0.000000 0.000000
# 4 0.000000 0.000000 0.000000 0.043646 0.000000 0.000000
# 5 0.000000 0.000000 0.000000 0.000000 0.100068 0.000000
# 6 0.000000 0.000000 0.000000 0.000000 0.000000 -0.031308
#
#
# Mechanical properties :
#
#
# Convention : Reuss Voigt Hill
#
# Bulk Modulus (GPa) = 56.74430 57.35377 57.04903
# Shear Modulus (GPa) = 31.33810 18.14277 24.74044
#
# Velocity S-wave (km/s) = 3.91276 2.97713 3.47657
# Velocity P-wave (km/s) = 6.93789 6.31165 6.63217
#
# Compressibility (1/GPa) = 0.01762292
#
# Stress axis : x y z
#
# Youngs Moduli (GPa) = 127.06286 107.46728 81.49182
#
# Poissons Ratio (x) = 0.07385 0.18616
# Poissons Ratio (y) = 0.08732 0.23960
# Poissons Ratio (z) = 0.29026 0.31597
#
# Static dielectric constant tensor:
#      x y z
#    x 1.766700 0.000000 0.000000 
#    y 0.000000 1.693210 0.000000 
#    z 0.000000 0.000000 1.757310 
# 
# From -- ./inp_files/32422.got.cif
#   From: 2010.05.17/outbox.cif.g08.bks.cpg/sg74_17_cif.got.tgz:32422.got - 2010.06.03 17:57:02.
