data_PCOD9539822
_publ_section_title
;
Structure prediction by ZEFSAII (Michael W. Deem and Ramdas Pophale) SiO2 
 PCOD9539822
Probable space group: I M M A
;
_chemical_formula_sum "Si O2"
_cell_formula_units_Z 116
_cell_length_a 20.276477
_cell_length_b 15.176363
_cell_length_c 17.814202
_cell_angle_alpha 90.000000
_cell_angle_beta 90.000000
_cell_angle_gamma 90.000000
_cell_volume 5481.842805
_symmetry_space_group_name_H-M "I M M A"
_symmetry_group_IT_number 74
_symmetry_cell_setting 'orthorhombic'
loop_
_space_group_symop_operation_xyz
x,y,z
-x,1/2-y,z
x,-y,-z
-x,1/2+y,-z
-x,-y,-z
x,1/2+y,-z
-x,y,z
x,1/2-y,z
1/2+x,1/2+y,1/2+z
1/2-x,-y,1/2+z
1/2+x,1/2-y,1/2-z
1/2-x,y,1/2-z
1/2-x,1/2-y,1/2-z
1/2+x,y,1/2-z
1/2-x,1/2+y,1/2+z
1/2+x,-y,1/2+z
loop_
_atom_site_type_symbol
_atom_site_label
_atom_site_fract_x
_atom_site_fract_y
_atom_site_fract_z
Si Si1 0.075675 0.392135 0.723371
Si Si2 0.305938 0.352360 0.486307
Si Si3 0.573266 0.397669 0.208005
Si Si4 0.392681 0.899343 0.386145
Si Si5 0.500000 0.750000 0.425791
Si Si6 0.074020 0.646436 0.441663
Si Si7 0.926362 0.105100 0.119458
Si Si8 0.832900 0.143993 0.427351
O O1 0.071499 0.496948 0.714668
O O2 0.115498 0.372761 0.798781
O O3 0.100442 0.359665 0.643148
O O4 0.000000 0.358582 0.734971
O O5 0.294635 0.250000 0.505717
O O6 0.327783 0.400357 0.562568
O O7 0.368053 0.358769 0.430788
O O8 0.241130 0.387462 0.443971
O O9 0.500000 0.367778 0.181469
O O10 0.582389 0.366812 0.293725
O O11 0.631230 0.375659 0.150911
O O12 0.442524 0.827827 0.420197
O O13 0.422144 0.998329 0.385625
O O14 0.067837 0.750000 0.458134
O O15 0.120624 0.609145 0.505637
O O16 0.000000 0.607394 0.441877
O O17 0.000000 0.132939 0.095261
O O18 0.830114 0.250000 0.431274
#
# Coordination Sequence:
#
# PCOD9539822 Si02
#       8
#    16  16  16  16   4  16  16  16
#     4   9  18  33  56  89 119 145 187 244 298 353
#     4  11  25  39  58  84 120 165 204 245 296 359
#     4   9  19  38  62  85 114 151 193 248 305 357
#     4  11  21  37  59  91 121 156 195 240 298 360
#     4  12  20  32  70  96 116 164 200 240 298 364
#     4   9  18  32  57  86 113 148 194 248 299 349
#     4  10  22  40  61  89 121 150 194 258 302 349
#     4  10  22  41  57  80 118 157 202 248 295 357
#
# _framework density 21.160767
#
# number of rings (size 3 to 8) (size 9 to 14) (size 15 to 20)
#    0.000    2.069    2.069    1.655    1.931    3.310 
#    4.966    5.517    0.000    2.483    0.000    0.000 
#    0.000    0.000    0.000    0.000    0.000    0.000 
#
# Total GULP energy -323251.347326 kJ/mol
# GULP energy per Si atom -5573.299092 kJ/mol
# Density = 2.111260 g / cm^3
# Si number density = 21.160767 Si / 1000 Ang^3
#
#
#
# Elastic Constant Matrix: (Units=GPa)
#
#
# Indices 1 2 3 4 5 6 
#
# 1 125.2853 13.0824 86.8470 0.0000 0.0000 0.0000
# 2 13.0824 41.7517 1.5766 0.0000 0.0000 0.0000
# 3 86.8470 1.5766 132.5753 0.0000 0.0000 0.0000
# 4 0.0000 0.0000 0.0000 25.8558 0.0000 0.0000
# 5 0.0000 0.0000 0.0000 0.0000 16.8854 0.0000
# 6 0.0000 0.0000 0.0000 0.0000 0.0000 21.4532
#
#
#
# Elastic Compliance Matrix: (Units=1/GPa)
#
#
# Indices 1 2 3 4 5 6 
#
# 1 0.015405 -0.004448 -0.010038 0.000000 0.000000 0.000000
# 2 -0.004448 0.025246 0.002613 0.000000 0.000000 0.000000
# 3 -0.010038 0.002613 0.014088 0.000000 0.000000 0.000000
# 4 0.000000 0.000000 0.000000 0.038676 0.000000 0.000000
# 5 0.000000 0.000000 0.000000 0.000000 0.059223 0.000000
# 6 0.000000 0.000000 0.000000 0.000000 0.000000 0.046613
#
#
# Mechanical properties :
#
#
# Convention : Reuss Voigt Hill
#
# Bulk Modulus (GPa) = 32.26535 55.84715 44.05625
# Shear Modulus (GPa) = 21.42914 26.04597 23.73756
#
# Velocity S-wave (km/s) = 3.18572 3.51217 3.35292
# Velocity P-wave (km/s) = 5.36773 6.54952 5.98786
#
# Compressibility (1/GPa) = 0.03099300
#
# Stress axis : x y z
#
# Youngs Moduli (GPa) = 64.91475 39.61006 70.98360
#
# Poissons Ratio (x) = 0.17618 0.71257
# Poissons Ratio (y) = 0.28873 -0.18551
# Poissons Ratio (z) = 0.65164 -0.10352
#
# Static dielectric constant tensor:
#      x y z
#    x 1.769660 0.000000 0.000000 
#    y 0.000000 1.791830 0.000000 
#    z 0.000000 0.000000 1.788620 
# 
# From -- ./inp_files/44247.got.cif
#   From: 2010.05.17/outbox.cif.g08.bks.cpg/sg74_23_cif.got.tgz:44247.got - 2010.06.03 17:57:02.
