data_PCOD9539010
_publ_section_title
;
Structure prediction by ZEFSAII (Michael W. Deem and Ramdas Pophale) SiO2 
 PCOD9539010
Probable space group: I M M A
;
_chemical_formula_sum "Si O2"
_cell_formula_units_Z 72
_cell_length_a 14.163900
_cell_length_b 17.433330
_cell_length_c 15.583400
_cell_angle_alpha 90.000000
_cell_angle_beta 90.000000
_cell_angle_gamma 90.000000
_cell_volume 3847.914570
_symmetry_space_group_name_H-M "I M M A"
_symmetry_group_IT_number 74
_symmetry_cell_setting 'orthorhombic'
loop_
_space_group_symop_operation_xyz
x,y,z
-x,1/2-y,z
x,-y,-z
-x,1/2+y,-z
-x,-y,-z
x,1/2+y,-z
-x,y,z
x,1/2-y,z
1/2+x,1/2+y,1/2+z
1/2-x,-y,1/2+z
1/2+x,1/2-y,1/2-z
1/2-x,y,1/2-z
1/2-x,1/2-y,1/2-z
1/2+x,y,1/2-z
1/2-x,1/2+y,1/2+z
1/2+x,-y,1/2+z
loop_
_atom_site_type_symbol
_atom_site_label
_atom_site_fract_x
_atom_site_fract_y
_atom_site_fract_z
Si Si1 0.394603 0.250000 0.924205
Si Si2 0.394804 0.883883 0.410655
Si Si3 0.112501 0.123215 0.446596
Si Si4 0.745455 0.000000 0.500000
Si Si5 0.205056 0.250000 0.342555
Si Si6 0.141672 0.250000 0.773398
Si Si7 0.897203 0.750000 0.949599
O O1 0.500000 0.250000 0.960566
O O2 0.400019 0.250000 0.822464
O O3 0.355909 0.173133 0.968356
O O4 0.500000 0.917745 0.401337
O O5 0.379189 0.826356 0.329382
O O6 0.395668 0.824443 0.489814
O O7 0.319895 0.948851 0.436724
O O8 0.182421 0.051998 0.445645
O O9 0.140067 0.177827 0.367690
O O10 0.000000 0.105116 0.449420
O O11 0.250000 0.250000 0.250000
O O12 0.299827 0.250000 0.399632
O O13 0.250000 0.250000 0.750000
O O14 0.000000 0.750000 0.903359
#
# Coordination Sequence:
#
# PCOD9539010 Si02
#       7
#     8  16  16   8   8   8   8
#     4   9  18  36  60  83 111 146 185 238 292 339
#     4  10  21  36  58  87 120 156 195 240 285 345
#     4  10  22  39  61  88 118 155 196 240 297 359
#     4  12  20  36  62  82 122 166 196 226 292 362
#     4  11  21  39  64  85 111 145 200 257 296 333
#     4  11  20  33  59  92 118 144 194 246 290 338
#     4   9  18  36  59  83 109 146 196 239 287 341
#
# _framework density 18.711435000000002
#
# number of rings (size 3 to 8) (size 9 to 14) (size 15 to 20)
#    0.000    1.778    2.222    4.667    3.111    0.889 
#    0.000    3.333    0.000    5.333    0.000    0.000 
#    0.000    0.000    0.000    0.000    0.000    0.000 
#
# Total GULP energy -200434.735919 kJ/mol
# GULP energy per Si atom -5567.631553 kJ/mol
# Density = 1.866885 g / cm^3
# Si number density = 18.711435 Si / 1000 Ang^3
#
#
#
# Elastic Constant Matrix: (Units=GPa)
#
#
# Indices 1 2 3 4 5 6 
#
# 1 159.9303 61.3074 33.4173 0.0000 0.0000 0.0000
# 2 61.3074 107.8942 26.6297 0.0000 0.0000 0.0000
# 3 33.4173 26.6297 86.5585 0.0000 0.0000 0.0000
# 4 0.0000 0.0000 0.0000 1.9911 0.0000 0.0000
# 5 0.0000 0.0000 0.0000 0.0000 26.4995 0.0000
# 6 0.0000 0.0000 0.0000 0.0000 0.0000 -84.7269
#
#
#
# Elastic Compliance Matrix: (Units=1/GPa)
#
#
# Indices 1 2 3 4 5 6 
#
# 1 0.008270 -0.004233 -0.001891 0.000000 0.000000 0.000000
# 2 -0.004233 0.012196 -0.002118 0.000000 0.000000 0.000000
# 3 -0.001891 -0.002118 0.012934 0.000000 0.000000 0.000000
# 4 0.000000 0.000000 0.000000 0.502228 0.000000 0.000000
# 5 0.000000 0.000000 0.000000 0.000000 0.037737 0.000000
# 6 0.000000 0.000000 0.000000 0.000000 0.000000 -0.011803
#
#
# Mechanical properties :
#
#
# Convention : Reuss Voigt Hill
#
# Bulk Modulus (GPa) = 59.10847 66.34353 62.72600
# Shear Modulus (GPa) = 8.56626 4.28798 6.42712
#
# Velocity S-wave (km/s) = 2.14197 1.51546 1.85535
# Velocity P-wave (km/s) = 6.14617 6.21251 6.17943
#
# Compressibility (1/GPa) = 0.01691805
#
# Stress axis : x y z
#
# Youngs Moduli (GPa) = 120.91392 81.99278 77.31299
#
# Poissons Ratio (x) = 0.34705 0.14618
# Poissons Ratio (y) = 0.51179 0.16375
# Poissons Ratio (z) = 0.22861 0.17366
#
# Static dielectric constant tensor:
#      x y z
#    x 1.636530 0.000000 0.000000 
#    y 0.000000 1.679580 0.000000 
#    z 0.000000 0.000000 1.670420 
# 
# From -- ./inp_files/31987.got.cif
#   From: 2010.05.17/outbox.cif.g08.bks.cpg/sg74_16_cif.got.tgz:31987.got - 2010.06.03 17:57:02.
