data_PCOD9539864
_publ_section_title
;
Structure prediction by ZEFSAII (Michael W. Deem and Ramdas Pophale) SiO2 
 PCOD9539864
Probable space group: I M M A
;
_chemical_formula_sum "Si O2"
_cell_formula_units_Z 52
_cell_length_a 9.952907
_cell_length_b 7.405871
_cell_length_c 30.744257
_cell_angle_alpha 90.000000
_cell_angle_beta 90.000000
_cell_angle_gamma 90.000000
_cell_volume 2266.157502
_symmetry_space_group_name_H-M "I M M A"
_symmetry_group_IT_number 74
_symmetry_cell_setting 'orthorhombic'
loop_
_space_group_symop_operation_xyz
x,y,z
-x,1/2-y,z
x,-y,-z
-x,1/2+y,-z
-x,-y,-z
x,1/2+y,-z
-x,y,z
x,1/2-y,z
1/2+x,1/2+y,1/2+z
1/2-x,-y,1/2+z
1/2+x,1/2-y,1/2-z
1/2-x,y,1/2-z
1/2-x,1/2-y,1/2-z
1/2+x,y,1/2-z
1/2-x,1/2+y,1/2+z
1/2+x,-y,1/2+z
loop_
_atom_site_type_symbol
_atom_site_label
_atom_site_fract_x
_atom_site_fract_y
_atom_site_fract_z
Si Si1 0.645656 0.533790 0.860265
Si Si2 0.500000 0.750000 0.452787
Si Si3 0.150725 0.038601 0.786302
Si Si4 0.753058 0.963861 0.953461
O O1 0.500000 0.465743 0.844576
O O2 0.644089 0.750000 0.856182
O O3 0.771150 0.471227 0.831831
O O4 0.666947 0.492040 0.910834
O O5 0.382845 0.591509 0.452638
O O6 0.136529 0.250000 0.775766
O O7 0.250000 0.958130 0.750000
O O8 0.000000 0.962301 0.787722
O O9 0.788742 0.750000 0.951137
O O10 0.684899 0.000000 0.000000
#
# Coordination Sequence:
#
# PCOD9539864 Si02
#       4
#    16   4  16  16
#     4  10  24  44  63  89 127 169 214 267 322 388
#     4  12  24  40  64  94 134 178 208 284 322 398
#     4  10  22  40  65  96 127 162 209 263 321 390
#     4  11  24  40  63  96 129 174 221 271 324 391
#
# _framework density 22.946331000000001
#
# number of rings (size 3 to 8) (size 9 to 14) (size 15 to 20)
#    0.000    1.538    1.538    1.846    4.308    3.692 
#    0.000    0.000    0.000    0.000    0.000    0.000 
#    0.000    0.000    0.000    0.000    0.000    0.000 
#
# Total GULP energy -144762.815691 kJ/mol
# GULP energy per Si atom -5567.800603 kJ/mol
# Density = 2.289410 g / cm^3
# Si number density = 22.946331 Si / 1000 Ang^3
#
#
#
# Elastic Constant Matrix: (Units=GPa)
#
#
# Indices 1 2 3 4 5 6 
#
# 1 191.3722 24.4941 73.1970 0.0000 0.0000 0.0000
# 2 24.4941 115.5698 3.2754 0.0000 0.0000 0.0000
# 3 73.1970 3.2754 117.7839 0.0000 0.0000 0.0000
# 4 0.0000 0.0000 0.0000 -27.4035 0.0000 0.0000
# 5 0.0000 0.0000 0.0000 0.0000 -100.1701 0.0000
# 6 0.0000 0.0000 0.0000 0.0000 0.0000 78.4185
#
#
#
# Elastic Compliance Matrix: (Units=1/GPa)
#
#
# Indices 1 2 3 4 5 6 
#
# 1 0.007066 -0.001374 -0.004353 0.000000 0.000000 0.000000
# 2 -0.001374 0.008927 0.000606 0.000000 0.000000 0.000000
# 3 -0.004353 0.000606 0.011179 0.000000 0.000000 0.000000
# 4 0.000000 0.000000 0.000000 -0.036492 0.000000 0.000000
# 5 0.000000 0.000000 0.000000 0.000000 -0.009983 0.000000
# 6 0.000000 0.000000 0.000000 0.000000 0.000000 0.012752
#
#
# Mechanical properties :
#
#
# Convention : Reuss Voigt Hill
#
# Bulk Modulus (GPa) = 59.07200 69.62875 64.35038
# Shear Modulus (GPa) = 535.60394 11.75294 273.67844
#
# Velocity S-wave (km/s) = 15.29453 2.26562 10.93288
# Velocity P-wave (km/s) = 18.37652 6.10361 13.69216
#
# Compressibility (1/GPa) = 0.01692849
#
# Stress axis : x y z
#
# Youngs Moduli (GPa) = 141.51601 112.02127 89.45693
#
# Poissons Ratio (x) = 0.15395 0.38942
# Poissons Ratio (y) = 0.19448 -0.05419
# Poissons Ratio (z) = 0.61604 -0.06786
#
# Static dielectric constant tensor:
#      x y z
#    x 1.855840 0.000000 0.000000 
#    y 0.000000 1.871910 0.000000 
#    z 0.000000 0.000000 1.886870 
# 
# From -- ./inp_files/65438.got.cif
#   From: 2010.05.17/outbox.cif.g08.bks.cpg/sg74_33_cif.got.tgz:65438.got - 2010.06.03 17:57:02.
