data_PCOD9539658
_publ_section_title
;
Structure prediction by ZEFSAII (Michael W. Deem and Ramdas Pophale) SiO2 
 PCOD9539658
Probable space group: I M M A
;
_chemical_formula_sum "Si O2"
_cell_formula_units_Z 80
_cell_length_a 21.764014
_cell_length_b 14.136377
_cell_length_c 12.817530
_cell_angle_alpha 90.000000
_cell_angle_beta 90.000000
_cell_angle_gamma 90.000000
_cell_volume 3943.496484
_symmetry_space_group_name_H-M "I M M A"
_symmetry_group_IT_number 74
_symmetry_cell_setting 'orthorhombic'
loop_
_space_group_symop_operation_xyz
x,y,z
-x,1/2-y,z
x,-y,-z
-x,1/2+y,-z
-x,-y,-z
x,1/2+y,-z
-x,y,z
x,1/2-y,z
1/2+x,1/2+y,1/2+z
1/2-x,-y,1/2+z
1/2+x,1/2-y,1/2-z
1/2-x,y,1/2-z
1/2-x,1/2-y,1/2-z
1/2+x,y,1/2-z
1/2-x,1/2+y,1/2+z
1/2+x,-y,1/2+z
loop_
_atom_site_type_symbol
_atom_site_label
_atom_site_fract_x
_atom_site_fract_y
_atom_site_fract_z
Si Si1 0.734839 0.864603 0.923065
Si Si2 0.293549 0.865431 0.153716
Si Si3 0.070718 0.997924 0.886071
Si Si4 0.431226 0.862921 0.212025
Si Si5 0.845968 0.136764 0.234043
O O1 0.733093 0.750000 0.928888
O O2 0.793761 0.885884 0.852269
O O3 0.677918 0.891397 0.848565
O O4 0.732336 0.898103 0.041917
O O5 0.291771 0.750000 0.156483
O O6 0.250000 0.897630 0.250000
O O7 0.365874 0.891719 0.161405
O O8 0.097560 0.923205 0.805288
O O9 0.000000 0.971843 0.900242
O O10 0.074373 0.099112 0.830081
O O11 0.100662 0.000000 0.000000
O O12 0.500000 0.895775 0.174668
O O13 0.432454 0.750000 0.207996
O O14 0.855610 0.250000 0.233137
#
# Coordination Sequence:
#
# PCOD9539658 Si02
#       5
#    16  16  16  16  16
#     4   8  16  33  54  81 113 143 180 224 270 326
#     4   9  17  30  54  85 112 140 182 233 275 318
#     4  10  22  37  52  78 111 140 183 235 272 323
#     4   9  19  37  57  77 108 147 180 220 281 334
#     4   9  18  35  58  78 108 150 181 217 274 331
#
# _framework density 20.286567000000002
#
# number of rings (size 3 to 8) (size 9 to 14) (size 15 to 20)
#    0.000    3.000    0.000    1.200    2.800    1.200 
#    3.600    4.000    0.000    6.000    0.000    0.000 
#    0.000    0.000    0.000    0.000    0.000    0.000 
#
# Total GULP energy -222853.532271 kJ/mol
# GULP energy per Si atom -5571.338307 kJ/mol
# Density = 2.024039 g / cm^3
# Si number density = 20.286567 Si / 1000 Ang^3
#
#
#
# Elastic Constant Matrix: (Units=GPa)
#
#
# Indices 1 2 3 4 5 6 
#
# 1 79.7017 14.4677 42.1202 0.0000 0.0000 0.0000
# 2 14.4677 39.9404 8.7407 0.0000 0.0000 0.0000
# 3 42.1202 8.7407 139.4484 0.0000 0.0000 0.0000
# 4 0.0000 0.0000 0.0000 17.8021 0.0000 0.0000
# 5 0.0000 0.0000 0.0000 0.0000 23.1656 0.0000
# 6 0.0000 0.0000 0.0000 0.0000 0.0000 15.2058
#
#
#
# Elastic Compliance Matrix: (Units=1/GPa)
#
#
# Indices 1 2 3 4 5 6 
#
# 1 0.015766 -0.004734 -0.004465 0.000000 0.000000 0.000000
# 2 -0.004734 0.026807 -0.000250 0.000000 0.000000 0.000000
# 3 -0.004465 -0.000250 0.008536 0.000000 0.000000 0.000000
# 4 0.000000 0.000000 0.000000 0.056173 0.000000 0.000000
# 5 0.000000 0.000000 0.000000 0.000000 0.043168 0.000000
# 6 0.000000 0.000000 0.000000 0.000000 0.000000 0.065764
#
#
# Mechanical properties :
#
#
# Convention : Reuss Voigt Hill
#
# Bulk Modulus (GPa) = 31.04698 43.30530 37.17614
# Shear Modulus (GPa) = 20.33770 24.15214 22.24492
#
# Velocity S-wave (km/s) = 3.16970 3.45418 3.31499
# Velocity P-wave (km/s) = 5.36035 6.10750 5.74608
#
# Compressibility (1/GPa) = 0.03220925
#
# Stress axis : x y z
#
# Youngs Moduli (GPa) = 63.42808 37.30393 117.15683
#
# Poissons Ratio (x) = 0.17659 0.52315
# Poissons Ratio (y) = 0.30025 0.02934
# Poissons Ratio (z) = 0.28323 0.00934
#
# Static dielectric constant tensor:
#      x y z
#    x 1.754460 0.000000 0.000000 
#    y 0.000000 1.750100 0.000000 
#    z 0.000000 0.000000 1.697610 
# 
# From -- ./inp_files/24893.got.cif
#   From: 2010.05.17/outbox.cif.g08.bks.cpg/sg74_13_cif.got.tgz:24893.got - 2010.06.03 17:57:02.
