data_PCOD9539875
_publ_section_title
;
Structure prediction by ZEFSAII (Michael W. Deem and Ramdas Pophale) SiO2 
 PCOD9539875
Probable space group: I M M A
;
_chemical_formula_sum "Si O2"
_cell_formula_units_Z 112
_cell_length_a 23.992427
_cell_length_b 14.846734
_cell_length_c 13.781993
_cell_angle_alpha 90.000000
_cell_angle_beta 90.000000
_cell_angle_gamma 90.000000
_cell_volume 4909.272448
_symmetry_space_group_name_H-M "I M M A"
_symmetry_group_IT_number 74
_symmetry_cell_setting 'orthorhombic'
loop_
_space_group_symop_operation_xyz
x,y,z
-x,1/2-y,z
x,-y,-z
-x,1/2+y,-z
-x,-y,-z
x,1/2+y,-z
-x,y,z
x,1/2-y,z
1/2+x,1/2+y,1/2+z
1/2-x,-y,1/2+z
1/2+x,1/2-y,1/2-z
1/2-x,y,1/2-z
1/2-x,1/2-y,1/2-z
1/2+x,y,1/2-z
1/2-x,1/2+y,1/2+z
1/2+x,-y,1/2+z
loop_
_atom_site_type_symbol
_atom_site_label
_atom_site_fract_x
_atom_site_fract_y
_atom_site_fract_z
Si Si1 0.325585 0.846654 0.027729
Si Si2 0.627883 0.145549 0.642471
Si Si3 0.061853 0.594137 0.555525
Si Si4 0.763155 0.653714 0.864107
Si Si5 0.065923 0.146109 0.060442
Si Si6 0.762040 0.456418 0.863370
Si Si7 0.067011 0.985956 0.763815
O O1 0.315020 0.750000 0.077425
O O2 0.390024 0.855865 0.002576
O O3 0.293695 0.844793 0.924990
O O4 0.295246 0.926487 0.085498
O O5 0.622456 0.250000 0.670040
O O6 0.595756 0.130410 0.541379
O O7 0.691516 0.119000 0.621895
O O8 0.601505 0.077606 0.721387
O O9 0.057003 0.500000 0.500000
O O10 0.079045 0.568113 0.665107
O O11 0.000000 0.636352 0.557812
O O12 0.792431 0.750000 0.886935
O O13 0.750000 0.653650 0.750000
O O14 0.785962 0.555058 0.891816
O O15 0.074943 0.250000 0.090299
O O16 0.081454 0.078231 0.145756
O O17 0.000000 0.134497 0.043589
O O18 0.750000 0.461035 0.750000
O O19 0.000000 0.004087 0.764257
#
# Coordination Sequence:
#
# PCOD9539875 Si02
#       7
#    16  16  16  16  16  16  16
#     4  11  24  42  67  96 132 176 221 277 339 401
#     4  11  24  40  63  98 135 177 230 277 332 414
#     4  10  23  43  67  95 129 176 231 283 337 399
#     4   9  20  39  64  96 126 165 218 269 329 398
#     4   9  19  39  67  98 134 172 213 272 342 407
#     4  11  25  44  68  92 130 180 223 275 335 402
#     4  10  22  40  67  99 134 177 224 279 344 408
#
# _framework density 22.813972
#
# number of rings (size 3 to 8) (size 9 to 14) (size 15 to 20)
#    0.000    1.857    0.000    2.571    6.000    6.286 
#    0.000    3.571    0.000    2.571    0.000    0.000 
#    0.000    0.000    0.000    0.000    0.000    0.000 
#
# Total GULP energy -313038.099431 kJ/mol
# GULP energy per Si atom -5589.966061 kJ/mol
# Density = 2.276205 g / cm^3
# Si number density = 22.813972 Si / 1000 Ang^3
#
#
#
# Elastic Constant Matrix: (Units=GPa)
#
#
# Indices 1 2 3 4 5 6 
#
# 1 105.6860 40.4210 29.3447 0.0000 0.0000 0.0000
# 2 40.4210 130.5687 36.3758 0.0000 0.0000 0.0000
# 3 29.3447 36.3758 56.6796 0.0000 0.0000 0.0000
# 4 0.0000 0.0000 0.0000 0.7549 0.0000 0.0000
# 5 0.0000 0.0000 0.0000 0.0000 58.2746 0.0000
# 6 0.0000 0.0000 0.0000 0.0000 0.0000 36.3540
#
#
#
# Elastic Compliance Matrix: (Units=1/GPa)
#
#
# Indices 1 2 3 4 5 6 
#
# 1 0.011608 -0.002337 -0.004510 0.000000 0.000000 0.000000
# 2 -0.002337 0.009797 -0.005077 0.000000 0.000000 0.000000
# 3 -0.004510 -0.005077 0.023237 0.000000 0.000000 0.000000
# 4 0.000000 0.000000 0.000000 1.324633 0.000000 0.000000
# 5 0.000000 0.000000 0.000000 0.000000 0.017160 0.000000
# 6 0.000000 0.000000 0.000000 0.000000 0.000000 0.027507
#
#
# Mechanical properties :
#
#
# Convention : Reuss Voigt Hill
#
# Bulk Modulus (GPa) = 48.09424 56.13526 52.11475
# Shear Modulus (GPa) = 3.46088 31.52957 17.49522
#
# Velocity S-wave (km/s) = 1.23300 3.72160 2.77224
# Velocity P-wave (km/s) = 4.81185 6.56705 5.75673
#
# Compressibility (1/GPa) = 0.02079251
#
# Stress axis : x y z
#
# Youngs Moduli (GPa) = 86.14682 102.07337 43.03573
#
# Poissons Ratio (x) = 0.23856 0.19409
# Poissons Ratio (y) = 0.20134 0.21851
# Poissons Ratio (z) = 0.38851 0.51827
#
# Static dielectric constant tensor:
#      x y z
#    x 1.678250 0.000000 0.000000 
#    y 0.000000 1.920050 0.000000 
#    z 0.000000 0.000000 1.847140 
# 
# From -- ./inp_files/36508.got.cif
#   From: 2010.05.17/outbox.cif.g08.bks.cpg/sg74_19_cif.got.tgz:36508.got - 2010.06.03 17:57:02.
