data_PCOD9539748
_publ_section_title
;
Structure prediction by ZEFSAII (Michael W. Deem and Ramdas Pophale) SiO2 
 PCOD9539748
Probable space group: I M M A
;
_chemical_formula_sum "Si O2"
_cell_formula_units_Z 112
_cell_length_a 18.187072
_cell_length_b 26.814059
_cell_length_c 12.366355
_cell_angle_alpha 90.000000
_cell_angle_beta 90.000000
_cell_angle_gamma 90.000000
_cell_volume 6030.690717
_symmetry_space_group_name_H-M "I M M A"
_symmetry_group_IT_number 74
_symmetry_cell_setting 'orthorhombic'
loop_
_space_group_symop_operation_xyz
x,y,z
-x,1/2-y,z
x,-y,-z
-x,1/2+y,-z
-x,-y,-z
x,1/2+y,-z
-x,y,z
x,1/2-y,z
1/2+x,1/2+y,1/2+z
1/2-x,-y,1/2+z
1/2+x,1/2-y,1/2-z
1/2-x,y,1/2-z
1/2-x,1/2-y,1/2-z
1/2+x,y,1/2-z
1/2-x,1/2+y,1/2+z
1/2+x,-y,1/2+z
loop_
_atom_site_type_symbol
_atom_site_label
_atom_site_fract_x
_atom_site_fract_y
_atom_site_fract_z
Si Si1 0.634952 0.546396 0.558106
Si Si2 0.815822 0.543383 0.169535
Si Si3 0.848468 0.807369 0.060301
Si Si4 0.584610 0.872738 0.260816
Si Si5 0.914334 0.808748 0.625798
Si Si6 0.084836 0.849421 0.856840
Si Si7 0.176417 0.191095 0.590863
O O1 0.591381 0.500000 0.500000
O O2 0.675175 0.515929 0.653073
O O3 0.688233 0.561178 0.456936
O O4 0.593953 0.593653 0.603808
O O5 0.750000 0.555391 0.250000
O O6 0.886157 0.571627 0.218014
O O7 0.863424 0.750000 0.087357
O O8 0.901844 0.842983 0.127743
O O9 0.763641 0.817869 0.089124
O O10 0.863664 0.817165 0.934661
O O11 0.500000 0.871483 0.229151
O O12 0.635444 0.843983 0.175459
O O13 0.908884 0.750000 0.654818
O O14 0.896849 0.840929 0.731587
O O15 0.860348 0.817719 0.525908
O O16 0.000000 0.817765 0.594545
O O17 0.000000 0.833667 0.870738
O O18 0.165081 0.250000 0.617534
#
# Coordination Sequence:
#
# PCOD9539748 Si02
#       7
#    16  16  16  16  16  16  16
#     4   8  20  36  57  86 110 147 187 233 294 351
#     4   9  19  39  60  82 116 147 190 236 291 351
#     4  11  22  35  54  85 119 154 194 244 295 340
#     4  12  23  35  58  88 117 154 194 239 295 354
#     4   9  19  37  58  80 113 157 199 240 286 344
#     4  11  21  36  57  86 118 150 193 241 295 351
#     4  10  22  39  57  80 116 162 205 241 284 343
#
# _framework density 18.571670000000001
#
# number of rings (size 3 to 8) (size 9 to 14) (size 15 to 20)
#    0.857    1.000    1.429    3.000    0.000    5.714 
#    2.571    2.143    0.000    0.000    0.000    5.000 
#    0.000    0.000    0.000    0.000    0.000    0.000 
#
# Total GULP energy -311996.304925 kJ/mol
# GULP energy per Si atom -5571.362588 kJ/mol
# Density = 1.852940 g / cm^3
# Si number density = 18.571670 Si / 1000 Ang^3
#
#
#
# Elastic Constant Matrix: (Units=GPa)
#
#
# Indices 1 2 3 4 5 6 
#
# 1 52.3626 17.2437 14.7595 0.0000 0.0000 0.0000
# 2 17.2437 51.8476 26.6124 0.0000 0.0000 0.0000
# 3 14.7595 26.6124 67.0460 0.0000 0.0000 0.0000
# 4 0.0000 0.0000 0.0000 35.6675 0.0000 0.0000
# 5 0.0000 0.0000 0.0000 0.0000 25.3611 0.0000
# 6 0.0000 0.0000 0.0000 0.0000 0.0000 13.3277
#
#
#
# Elastic Compliance Matrix: (Units=1/GPa)
#
#
# Indices 1 2 3 4 5 6 
#
# 1 0.021752 -0.005999 -0.002407 0.000000 0.000000 0.000000
# 2 -0.005999 0.025876 -0.008951 0.000000 0.000000 0.000000
# 3 -0.002407 -0.008951 0.018998 0.000000 0.000000 0.000000
# 4 0.000000 0.000000 0.000000 0.028037 0.000000 0.000000
# 5 0.000000 0.000000 0.000000 0.000000 0.039431 0.000000
# 6 0.000000 0.000000 0.000000 0.000000 0.000000 0.075032
#
#
# Mechanical properties :
#
#
# Convention : Reuss Voigt Hill
#
# Bulk Modulus (GPa) = 31.33534 32.05414 31.69474
# Shear Modulus (GPa) = 19.64825 22.38063 21.01444
#
# Velocity S-wave (km/s) = 3.25617 3.47521 3.36747
# Velocity P-wave (km/s) = 5.57191 5.77927 5.67654
#
# Compressibility (1/GPa) = 0.03191285
#
# Stress axis : x y z
#
# Youngs Moduli (GPa) = 45.97371 38.64516 52.63763
#
# Poissons Ratio (x) = 0.23181 0.12672
# Poissons Ratio (y) = 0.27578 0.47114
# Poissons Ratio (z) = 0.11068 0.34590
#
# Static dielectric constant tensor:
#      x y z
#    x 1.630420 0.000000 0.000000 
#    y 0.000000 1.665390 0.000000 
#    z 0.000000 0.000000 1.654180 
# 
# From -- ./inp_files/21153.got.cif
#   From: 2010.05.17/outbox.cif.g08.bks.cpg/sg74_11_cif.got.tgz:21153.got - 2010.06.03 17:57:02.
