data_PCOD9539178
_publ_section_title
;
Structure prediction by ZEFSAII (Michael W. Deem and Ramdas Pophale) SiO2 
 PCOD9539178
Probable space group: I M M A
;
_chemical_formula_sum "Si O2"
_cell_formula_units_Z 64
_cell_length_a 8.664488
_cell_length_b 11.909795
_cell_length_c 29.529423
_cell_angle_alpha 90.000000
_cell_angle_beta 90.000000
_cell_angle_gamma 90.000000
_cell_volume 3047.208364
_symmetry_space_group_name_H-M "I M M A"
_symmetry_group_IT_number 74
_symmetry_cell_setting 'orthorhombic'
loop_
_space_group_symop_operation_xyz
x,y,z
-x,1/2-y,z
x,-y,-z
-x,1/2+y,-z
-x,-y,-z
x,1/2+y,-z
-x,y,z
x,1/2-y,z
1/2+x,1/2+y,1/2+z
1/2-x,-y,1/2+z
1/2+x,1/2-y,1/2-z
1/2-x,y,1/2-z
1/2-x,1/2-y,1/2-z
1/2+x,y,1/2-z
1/2-x,1/2+y,1/2+z
1/2+x,-y,1/2+z
loop_
_atom_site_type_symbol
_atom_site_label
_atom_site_fract_x
_atom_site_fract_y
_atom_site_fract_z
Si Si1 0.174984 0.951224 0.050611
Si Si2 0.500000 0.876006 0.025640
Si Si3 0.677116 0.943250 0.641706
Si Si4 0.321086 0.884317 0.202095
Si Si5 0.178495 0.750000 0.700233
O O1 0.334894 0.880984 0.051878
O O2 0.000000 0.903318 0.059876
O O3 0.197549 0.049030 0.087917
O O4 0.167252 0.000000 0.000000
O O5 0.500000 0.750000 0.002773
O O6 0.500000 0.000000 0.000000
O O7 0.500000 0.917231 0.651254
O O8 0.775371 0.855953 0.669864
O O9 0.723173 0.063798 0.661694
O O10 0.500000 0.918204 0.198961
O O11 0.314021 0.750000 0.201148
O O12 0.250000 0.922948 0.250000
O O13 0.250000 0.750000 0.750000
O O14 0.000000 0.750000 0.707899
#
# Coordination Sequence:
#
# PCOD9539178 Si02
#       5
#    16   8  16  16   8
#     4   9  21  43  66  95 134 179 232 290 351 419
#     4  10  22  42  68 100 138 184 238 302 364 434
#     4  11  23  41  65  93 129 172 221 276 342 415
#     4  10  21  37  59  87 121 160 207 260 319 389
#     4  12  26  44  68  98 138 180 230 290 357 438
#
# _framework density 21.002829999999999
#
# number of rings (size 3 to 8) (size 9 to 14) (size 15 to 20)
#    0.000    1.750    0.000    3.375    3.500    3.000 
#    9.000    2.500    0.000    0.000    0.000    0.000 
#    0.000    0.000    0.000    0.000    0.000    0.000 
#
# Total GULP energy -178319.955758 kJ/mol
# GULP energy per Si atom -5572.498617 kJ/mol
# Density = 2.095503 g / cm^3
# Si number density = 21.002830 Si / 1000 Ang^3
#
#
#
# Elastic Constant Matrix: (Units=GPa)
#
#
# Indices 1 2 3 4 5 6 
#
# 1 170.9037 38.2261 41.2315 0.0000 0.0000 0.0000
# 2 38.2261 68.4587 30.2432 0.0000 0.0000 0.0000
# 3 41.2315 30.2432 136.1038 0.0000 0.0000 0.0000
# 4 0.0000 0.0000 0.0000 4.7231 0.0000 0.0000
# 5 0.0000 0.0000 0.0000 0.0000 27.8675 0.0000
# 6 0.0000 0.0000 0.0000 0.0000 0.0000 19.5137
#
#
#
# Elastic Compliance Matrix: (Units=1/GPa)
#
#
# Indices 1 2 3 4 5 6 
#
# 1 0.006909 -0.003253 -0.001370 0.000000 0.000000 0.000000
# 2 -0.003253 0.017729 -0.002954 0.000000 0.000000 0.000000
# 3 -0.001370 -0.002954 0.008419 0.000000 0.000000 0.000000
# 4 0.000000 0.000000 0.000000 0.211726 0.000000 0.000000
# 5 0.000000 0.000000 0.000000 0.000000 0.035884 0.000000
# 6 0.000000 0.000000 0.000000 0.000000 0.000000 0.051246
#
#
# Mechanical properties :
#
#
# Convention : Reuss Voigt Hill
#
# Bulk Modulus (GPa) = 55.85757 66.09642 60.97699
# Shear Modulus (GPa) = 14.16291 28.13855 21.15073
#
# Velocity S-wave (km/s) = 2.59961 3.66423 3.17684
# Velocity P-wave (km/s) = 5.97190 7.03141 6.52320
#
# Compressibility (1/GPa) = 0.01790268
#
# Stress axis : x y z
#
# Youngs Moduli (GPa) = 144.73067 56.40604 118.78062
#
# Poissons Ratio (x) = 0.18347 0.16277
# Poissons Ratio (y) = 0.47076 0.35088
# Poissons Ratio (z) = 0.19833 0.16663
#
# Static dielectric constant tensor:
#      x y z
#    x 1.773130 0.000000 0.000000 
#    y 0.000000 1.794890 0.000000 
#    z 0.000000 0.000000 1.769850 
# 
# From -- ./inp_files/69789.got.cif
#   From: 2010.05.17/outbox.cif.g08.bks.cpg/sg74_35_cif.got.tgz:69789.got - 2010.06.03 17:57:02.
