data_PCOD9539410
_publ_section_title
;
Structure prediction by ZEFSAII (Michael W. Deem and Ramdas Pophale) SiO2 
 PCOD9539410
Probable space group: I M M A
;
_chemical_formula_sum "Si O2"
_cell_formula_units_Z 88
_cell_length_a 13.540440
_cell_length_b 11.498053
_cell_length_c 31.410508
_cell_angle_alpha 90.000000
_cell_angle_beta 90.000000
_cell_angle_gamma 90.000000
_cell_volume 4890.261055
_symmetry_space_group_name_H-M "I M M A"
_symmetry_group_IT_number 74
_symmetry_cell_setting 'orthorhombic'
loop_
_space_group_symop_operation_xyz
x,y,z
-x,1/2-y,z
x,-y,-z
-x,1/2+y,-z
-x,-y,-z
x,1/2+y,-z
-x,y,z
x,1/2-y,z
1/2+x,1/2+y,1/2+z
1/2-x,-y,1/2+z
1/2+x,1/2-y,1/2-z
1/2-x,y,1/2-z
1/2-x,1/2-y,1/2-z
1/2+x,y,1/2-z
1/2-x,1/2+y,1/2+z
1/2+x,-y,1/2+z
loop_
_atom_site_type_symbol
_atom_site_label
_atom_site_fract_x
_atom_site_fract_y
_atom_site_fract_z
Si Si1 0.500000 0.889546 0.658616
Si Si2 0.000000 0.884058 0.030236
Si Si3 0.115584 0.250000 0.670033
Si Si4 0.710380 0.611130 0.625106
Si Si5 0.689639 0.507207 0.206201
Si Si6 0.381292 0.250000 0.932659
Si Si7 0.000000 0.389190 0.255882
Si Si8 0.277668 0.946568 0.452936
O O1 0.500000 0.750000 0.662696
O O2 0.403719 0.920164 0.632750
O O3 0.500000 0.934019 0.707001
O O4 0.890620 0.894972 0.052547
O O5 0.000000 0.750000 0.011730
O O6 0.000000 0.000000 0.000000
O O7 0.165009 0.134724 0.688739
O O8 0.122132 0.250000 0.618874
O O9 0.000000 0.250000 0.681841
O O10 0.722030 0.750000 0.621511
O O11 0.760975 0.564200 0.667919
O O12 0.740925 0.544546 0.582708
O O13 0.750000 0.515400 0.250000
O O14 0.593196 0.437494 0.219625
O O15 0.500000 0.250000 0.944213
O O16 0.313712 0.142404 0.948295
O O17 0.000000 0.250000 0.255174
O O18 0.276111 0.000000 0.500000
#
# Coordination Sequence:
#
# PCOD9539410 Si02
#       8
#     8   8   8  16  16   8   8  16
#     4   9  19  37  59  88 130 163 194 248 317 381
#     4  10  21  38  68 103 130 170 214 263 332 393
#     4  11  23  43  64  86 123 169 212 260 308 371
#     4  11  23  39  63  96 127 163 207 262 322 380
#     4  12  23  39  63  89 124 164 213 255 310 378
#     4  11  24  44  68  90 122 174 217 261 321 373
#     4  11  22  36  60  91 123 164 204 253 312 372
#     4  11  24  42  69  94 130 167 213 268 325 388
#
# _framework density 17.994949999999999
#
# number of rings (size 3 to 8) (size 9 to 14) (size 15 to 20)
#    0.000    1.091    5.455    1.364    1.273    1.818 
#    0.000    0.909    0.000    0.000    0.000    0.000 
#    0.000    0.000    0.000    0.000    0.000    0.000 
#
# Total GULP energy -245243.146998 kJ/mol
# GULP energy per Si atom -5573.707886 kJ/mol
# Density = 1.795399 g / cm^3
# Si number density = 17.994950 Si / 1000 Ang^3
#
#
#
# Elastic Constant Matrix: (Units=GPa)
#
#
# Indices 1 2 3 4 5 6 
#
# 1 141.7992 61.1015 49.5235 0.0000 0.0000 0.0000
# 2 61.1015 132.8625 55.6173 0.0000 0.0000 0.0000
# 3 49.5235 55.6173 117.6291 0.0000 0.0000 0.0000
# 4 0.0000 0.0000 0.0000 21.1295 0.0000 0.0000
# 5 0.0000 0.0000 0.0000 0.0000 22.1750 0.0000
# 6 0.0000 0.0000 0.0000 0.0000 0.0000 35.7756
#
#
#
# Elastic Compliance Matrix: (Units=1/GPa)
#
#
# Indices 1 2 3 4 5 6 
#
# 1 0.009292 -0.003286 -0.002358 0.000000 0.000000 0.000000
# 2 -0.003286 0.010546 -0.003603 0.000000 0.000000 0.000000
# 3 -0.002358 -0.003603 0.011198 0.000000 0.000000 0.000000
# 4 0.000000 0.000000 0.000000 0.047327 0.000000 0.000000
# 5 0.000000 0.000000 0.000000 0.000000 0.045096 0.000000
# 6 0.000000 0.000000 0.000000 0.000000 0.000000 0.027952
#
#
# Mechanical properties :
#
#
# Convention : Reuss Voigt Hill
#
# Bulk Modulus (GPa) = 79.73773 80.53061 80.13417
# Shear Modulus (GPa) = 28.72158 30.88592 29.80375
#
# Velocity S-wave (km/s) = 3.99945 4.14740 4.07409
# Velocity P-wave (km/s) = 8.10770 8.23307 8.17063
#
# Compressibility (1/GPa) = 0.01254112
#
# Stress axis : x y z
#
# Youngs Moduli (GPa) = 107.62189 94.82333 89.30410
#
# Poissons Ratio (x) = 0.31158 0.21061
# Poissons Ratio (y) = 0.35364 0.32175
# Poissons Ratio (z) = 0.25381 0.34164
#
# Static dielectric constant tensor:
#      x y z
#    x 1.625260 0.000000 0.000000 
#    y 0.000000 1.603970 0.000000 
#    z 0.000000 0.000000 1.663930 
# 
# From -- ./inp_files/71665.got.cif
#   From: 2010.05.17/outbox.cif.g08.bks.cpg/sg74_36_cif.got.tgz:71665.got - 2010.06.03 17:57:02.
