data_PCOD9539095
_publ_section_title
;
Structure prediction by ZEFSAII (Michael W. Deem and Ramdas Pophale) SiO2 
 PCOD9539095
Probable space group: I M M A
;
_chemical_formula_sum "Si O2"
_cell_formula_units_Z 116
_cell_length_a 7.841269
_cell_length_b 27.670168
_cell_length_c 28.760671
_cell_angle_alpha 90.000000
_cell_angle_beta 90.000000
_cell_angle_gamma 90.000000
_cell_volume 6240.180657
_symmetry_space_group_name_H-M "I M M A"
_symmetry_group_IT_number 74
_symmetry_cell_setting 'orthorhombic'
loop_
_space_group_symop_operation_xyz
x,y,z
-x,1/2-y,z
x,-y,-z
-x,1/2+y,-z
-x,-y,-z
x,1/2+y,-z
-x,y,z
x,1/2-y,z
1/2+x,1/2+y,1/2+z
1/2-x,-y,1/2+z
1/2+x,1/2-y,1/2-z
1/2-x,y,1/2-z
1/2-x,1/2-y,1/2-z
1/2+x,y,1/2-z
1/2-x,1/2+y,1/2+z
1/2+x,-y,1/2+z
loop_
_atom_site_type_symbol
_atom_site_label
_atom_site_fract_x
_atom_site_fract_y
_atom_site_fract_z
Si Si1 0.000000 0.750000 0.335111
Si Si2 0.798631 0.421011 0.661533
Si Si3 0.298516 0.109516 0.368494
Si Si4 0.698186 0.680967 0.303609
Si Si5 0.796404 0.563429 0.540334
Si Si6 0.704033 0.474941 0.302090
Si Si7 0.702638 0.695330 0.801822
Si Si8 0.791470 0.045219 0.561579
O O1 0.845772 0.708366 0.332294
O O2 0.710190 0.376016 0.685893
O O3 0.773419 0.471853 0.687431
O O4 0.734079 0.429602 0.608779
O O5 0.000000 0.410778 0.660245
O O6 0.500000 0.104286 0.368066
O O7 0.243546 0.103724 0.421751
O O8 0.226257 0.064421 0.338640
O O9 0.257103 0.158622 0.341720
O O10 0.500000 0.695631 0.310687
O O11 0.750000 0.690249 0.250000
O O12 0.736446 0.569158 0.487184
O O13 0.735011 0.510922 0.558773
O O14 0.000000 0.559531 0.537497
O O15 0.500000 0.477226 0.306057
O O16 0.750000 0.459828 0.250000
O O17 0.500000 0.698190 0.803449
O O18 0.773244 0.750000 0.807015
O O19 0.750000 0.677733 0.750000
O O20 0.000000 0.045083 0.563161
#
# Coordination Sequence:
#
# PCOD9539095 Si02
#       8
#     4  16  16  16  16  16  16  16
#     4  12  24  44  62  90 112 148 194 238 296 338
#     4  11  20  36  55  82 113 149 186 227 284 339
#     4  11  22  34  51  80 112 147 188 227 278 334
#     4  12  24  39  61  87 116 149 190 242 288 344
#     4   9  16  32  54  81 106 144 189 230 272 329
#     4  11  23  35  48  71 109 151 187 221 266 332
#     4  10  21  37  57  80 107 140 183 235 282 331
#     4   8  16  30  55  80 110 145 186 228 276 330
#
# _framework density 18.589205
#
# number of rings (size 3 to 8) (size 9 to 14) (size 15 to 20)
#    0.000    1.655    2.759    3.724    0.000    3.586 
#    0.000    2.759    0.000    0.000    1.793    0.000 
#    0.000    0.000    0.000    0.000    0.000    0.000 
#
# Total GULP energy -323198.210782 kJ/mol
# GULP energy per Si atom -5572.382945 kJ/mol
# Density = 1.854690 g / cm^3
# Si number density = 18.589205 Si / 1000 Ang^3
#
#
#
# Elastic Constant Matrix: (Units=GPa)
#
#
# Indices 1 2 3 4 5 6 
#
# 1 75.1695 4.1769 -0.9156 0.0000 0.0000 0.0000
# 2 4.1769 56.8207 10.6260 0.0000 0.0000 0.0000
# 3 -0.9156 10.6260 78.8901 0.0000 0.0000 0.0000
# 4 0.0000 0.0000 0.0000 14.5551 0.0000 0.0000
# 5 0.0000 0.0000 0.0000 0.0000 13.7192 0.0000
# 6 0.0000 0.0000 0.0000 0.0000 0.0000 27.6429
#
#
#
# Elastic Compliance Matrix: (Units=1/GPa)
#
#
# Indices 1 2 3 4 5 6 
#
# 1 0.013365 -0.001038 0.000295 0.000000 0.000000 0.000000
# 2 -0.001038 0.018135 -0.002455 0.000000 0.000000 0.000000
# 3 0.000295 -0.002455 0.013010 0.000000 0.000000 0.000000
# 4 0.000000 0.000000 0.000000 0.068704 0.000000 0.000000
# 5 0.000000 0.000000 0.000000 0.000000 0.072891 0.000000
# 6 0.000000 0.000000 0.000000 0.000000 0.000000 0.036176
#
#
# Mechanical properties :
#
#
# Convention : Reuss Voigt Hill
#
# Bulk Modulus (GPa) = 26.23691 26.51721 26.37706
# Shear Modulus (GPa) = 20.71432 24.31631 22.51531
#
# Velocity S-wave (km/s) = 3.34176 3.62067 3.48401
# Velocity P-wave (km/s) = 5.38837 5.63692 5.51404
#
# Compressibility (1/GPa) = 0.03811425
#
# Stress axis : x y z
#
# Youngs Moduli (GPa) = 74.82499 55.14336 76.86444
#
# Poissons Ratio (x) = 0.05722 -0.02266
# Poissons Ratio (y) = 0.07764 0.18868
# Poissons Ratio (z) = -0.02206 0.13536
#
# Static dielectric constant tensor:
#      x y z
#    x 1.668620 0.000000 0.000000 
#    y 0.000000 1.664230 0.000000 
#    z 0.000000 0.000000 1.643730 
# 
# From -- ./inp_files/65056.got.cif
#   From: 2010.05.17/outbox.cif.g08.bks.cpg/sg74_33_cif.got.tgz:65056.got - 2010.06.03 17:57:02.
