data_PCOD9539133
_publ_section_title
;
Structure prediction by ZEFSAII (Michael W. Deem and Ramdas Pophale) SiO2 
 PCOD9539133
Probable space group: I M M A
;
_chemical_formula_sum "Si O2"
_cell_formula_units_Z 96
_cell_length_a 8.683051
_cell_length_b 28.036731
_cell_length_c 20.695598
_cell_angle_alpha 90.000000
_cell_angle_beta 90.000000
_cell_angle_gamma 90.000000
_cell_volume 5038.226716
_symmetry_space_group_name_H-M "I M M A"
_symmetry_group_IT_number 74
_symmetry_cell_setting 'orthorhombic'
loop_
_space_group_symop_operation_xyz
x,y,z
-x,1/2-y,z
x,-y,-z
-x,1/2+y,-z
-x,-y,-z
x,1/2+y,-z
-x,y,z
x,1/2-y,z
1/2+x,1/2+y,1/2+z
1/2-x,-y,1/2+z
1/2+x,1/2-y,1/2-z
1/2-x,y,1/2-z
1/2-x,1/2-y,1/2-z
1/2+x,y,1/2-z
1/2-x,1/2+y,1/2+z
1/2+x,-y,1/2+z
loop_
_atom_site_type_symbol
_atom_site_label
_atom_site_fract_x
_atom_site_fract_y
_atom_site_fract_z
Si Si1 0.185189 0.805049 0.578109
Si Si2 0.184148 0.036340 0.943046
Si Si3 0.185656 0.305406 0.681081
Si Si4 0.314662 0.859744 0.052383
Si Si5 0.183546 0.120325 0.179301
Si Si6 0.183751 0.984062 0.679015
O O1 0.230581 0.750000 0.586053
O O2 0.218971 0.823676 0.506030
O O3 0.265974 0.839894 0.628601
O O4 0.000000 0.808255 0.587156
O O5 0.236464 0.089614 0.959431
O O6 0.000000 0.034043 0.936698
O O7 0.260128 0.019945 0.875992
O O8 0.231080 0.000000 0.000000
O O9 0.232815 0.250000 0.671804
O O10 0.250000 0.321777 0.750000
O O11 0.235355 0.337138 0.620545
O O12 0.000000 0.306324 0.683254
O O13 0.500000 0.866306 0.054401
O O14 0.250000 0.132264 0.250000
O O15 0.253508 0.068690 0.161620
O O16 0.000000 0.116134 0.182538
O O17 0.250000 0.995708 0.750000
O O18 0.000000 0.982879 0.682245
#
# Coordination Sequence:
#
# PCOD9539133 Si02
#       6
#    16  16  16  16  16  16
#     4  10  21  38  60  85 114 150 193 240 289 341
#     4  11  24  40  58  83 116 152 191 237 286 337
#     4   9  18  34  56  82 112 146 184 226 273 326
#     4  10  21  37  58  83 112 149 191 235 284 338
#     4  11  22  38  60  86 117 151 188 231 282 341
#     4  11  22  39  63  88 116 150 190 235 285 343
#
# _framework density 19.054323
#
# number of rings (size 3 to 8) (size 9 to 14) (size 15 to 20)
#    0.000    1.667    0.000    6.000    0.000    8.667 
#    0.000    1.667    0.000    3.000    0.000    0.000 
#    0.000    0.000    0.000    0.000    0.000    0.000 
#
# Total GULP energy -268332.838667 kJ/mol
# GULP energy per Si atom -5590.267472 kJ/mol
# Density = 1.901095 g / cm^3
# Si number density = 19.054323 Si / 1000 Ang^3
#
#
#
# Elastic Constant Matrix: (Units=GPa)
#
#
# Indices 1 2 3 4 5 6 
#
# 1 59.4276 6.8281 9.9993 0.0000 0.0000 0.0000
# 2 6.8281 21.8047 -5.8654 0.0000 0.0000 0.0000
# 3 9.9993 -5.8654 24.5113 0.0001 0.0000 0.0000
# 4 0.0000 0.0000 0.0001 41.2777 0.0000 0.0000
# 5 0.0000 0.0000 0.0000 0.0000 30.9519 0.0000
# 6 0.0000 0.0000 0.0000 0.0000 0.0000 5.9192
#
#
#
# Elastic Compliance Matrix: (Units=1/GPa)
#
#
# Indices 1 2 3 4 5 6 
#
# 1 0.019539 -0.008831 -0.010084 0.000000 0.000000 0.000000
# 2 -0.008831 0.053008 0.016287 0.000000 0.000000 0.000000
# 3 -0.010084 0.016287 0.048809 0.000000 0.000000 0.000000
# 4 0.000000 0.000000 0.000000 0.024226 0.000000 0.000000
# 5 0.000000 0.000000 0.000000 0.000000 0.032308 0.000000
# 6 0.000000 0.000000 0.000000 0.000000 0.000000 0.168943
#
#
# Mechanical properties :
#
#
# Convention : Reuss Voigt Hill
#
# Bulk Modulus (GPa) = 8.61327 14.18529 11.39928
# Shear Modulus (GPa) = 12.79464 21.94852 17.37158
#
# Velocity S-wave (km/s) = 2.59411 3.39764 3.02269
# Velocity P-wave (km/s) = 3.67461 4.78045 4.26353
#
# Compressibility (1/GPa) = 0.11609995
#
# Stress axis : x y z
#
# Youngs Moduli (GPa) = 51.18076 18.86496 20.48821
#
# Poissons Ratio (x) = 0.16660 0.20660
# Poissons Ratio (y) = 0.45198 -0.33369
# Poissons Ratio (z) = 0.51610 -0.30726
#
# Static dielectric constant tensor:
#      x y z
#    x 1.643380 0.000000 0.000000 
#    y 0.000000 1.636640 0.000000 
#    z 0.000000 0.000000 1.646060 
# 
# From -- ./inp_files/49121.got.cif
#   From: 2010.05.17/outbox.cif.g08.bks.cpg/sg74_25_cif.got.tgz:49121.got - 2010.06.03 17:57:02.
