data_PCOD9539325
_publ_section_title
;
Structure prediction by ZEFSAII (Michael W. Deem and Ramdas Pophale) SiO2 
 PCOD9539325
Probable space group: I M M A
;
_chemical_formula_sum "Si O2"
_cell_formula_units_Z 112
_cell_length_a 13.792414
_cell_length_b 16.114824
_cell_length_c 25.316463
_cell_angle_alpha 90.000000
_cell_angle_beta 90.000000
_cell_angle_gamma 90.000000
_cell_volume 5626.895906
_symmetry_space_group_name_H-M "I M M A"
_symmetry_group_IT_number 74
_symmetry_cell_setting 'orthorhombic'
loop_
_space_group_symop_operation_xyz
x,y,z
-x,1/2-y,z
x,-y,-z
-x,1/2+y,-z
-x,-y,-z
x,1/2+y,-z
-x,y,z
x,1/2-y,z
1/2+x,1/2+y,1/2+z
1/2-x,-y,1/2+z
1/2+x,1/2-y,1/2-z
1/2-x,y,1/2-z
1/2-x,1/2-y,1/2-z
1/2+x,y,1/2-z
1/2-x,1/2+y,1/2+z
1/2+x,-y,1/2+z
loop_
_atom_site_type_symbol
_atom_site_label
_atom_site_fract_x
_atom_site_fract_y
_atom_site_fract_z
Si Si1 0.610556 0.603745 0.885259
Si Si2 0.264615 0.344033 0.687049
Si Si3 0.783603 0.660261 0.809914
Si Si4 0.694566 0.653303 0.997334
Si Si5 0.612682 0.407138 0.892801
Si Si6 0.886069 0.503279 0.847454
Si Si7 0.109008 0.578278 0.961556
O O1 0.500000 0.629514 0.873087
O O2 0.691335 0.644891 0.848068
O O3 0.634157 0.623767 0.946342
O O4 0.617810 0.504476 0.878576
O O5 0.301171 0.250000 0.677553
O O6 0.250000 0.353458 0.750000
O O7 0.166752 0.356659 0.653133
O O8 0.332495 0.418380 0.666713
O O9 0.827845 0.750000 0.825194
O O10 0.750000 0.665127 0.750000
O O11 0.852831 0.580881 0.812517
O O12 0.676855 0.750000 0.006174
O O13 0.806832 0.637562 0.982342
O O14 0.664774 0.606555 0.050849
O O15 0.500000 0.383704 0.897886
O O16 0.862615 0.538235 0.905648
O O17 0.000000 0.489407 0.844191
O O18 0.000000 0.614547 0.957676
O O19 0.104721 0.500000 0.000000
#
# Coordination Sequence:
#
# PCOD9539325 Si02
#       7
#    16  16  16  16  16  16  16
#     4  11  23  40  65  93 126 171 217 263 322 392
#     4  11  24  43  66  94 131 173 219 270 325 387
#     4  11  24  43  65  93 131 168 213 273 329 385
#     4  12  23  37  61  93 132 168 208 265 322 386
#     4  11  24  42  66  95 128 169 216 267 325 386
#     4  11  23  41  66  93 127 168 217 269 321 388
#     4  10  21  38  61  87 119 163 210 260 318 377
#
# _framework density 19.904402000000001
#
# number of rings (size 3 to 8) (size 9 to 14) (size 15 to 20)
#    0.000    1.000    2.857    3.857    0.000    6.000 
#    0.000    4.286    0.000    4.286    0.000    0.000 
#    0.000    0.000    0.000    0.000    0.000    0.000 
#
# Total GULP energy -312922.416866 kJ/mol
# GULP energy per Si atom -5587.900301 kJ/mol
# Density = 1.985910 g / cm^3
# Si number density = 19.904402 Si / 1000 Ang^3
#
#
#
# Elastic Constant Matrix: (Units=GPa)
#
#
# Indices 1 2 3 4 5 6 
#
# 1 89.4009 29.0252 27.2309 0.0000 0.0000 0.0000
# 2 29.0252 100.1330 13.1525 0.0000 0.0000 0.0000
# 3 27.2309 13.1525 103.0770 0.0000 0.0000 0.0000
# 4 0.0000 0.0000 0.0000 29.5319 0.0000 0.0000
# 5 0.0000 0.0000 0.0000 0.0000 49.8449 0.0000
# 6 0.0000 0.0000 0.0000 0.0000 0.0000 6.2033
#
#
#
# Elastic Compliance Matrix: (Units=1/GPa)
#
#
# Indices 1 2 3 4 5 6 
#
# 1 0.013232 -0.003434 -0.003057 0.000000 0.000000 0.000000
# 2 -0.003434 0.011048 -0.000503 0.000000 0.000000 0.000000
# 3 -0.003057 -0.000503 0.010573 0.000000 0.000000 0.000000
# 4 0.000000 0.000000 0.000000 0.033862 0.000000 0.000000
# 5 0.000000 0.000000 0.000000 0.000000 0.020062 0.000000
# 6 0.000000 0.000000 0.000000 0.000000 0.000000 0.161204
#
#
# Mechanical properties :
#
#
# Convention : Reuss Voigt Hill
#
# Bulk Modulus (GPa) = 47.92604 47.93645 47.93124
# Shear Modulus (GPa) = 18.45537 31.99617 25.22577
#
# Velocity S-wave (km/s) = 3.04830 4.01370 3.56384
# Velocity P-wave (km/s) = 6.04317 6.75392 6.40840
#
# Compressibility (1/GPa) = 0.02086548
#
# Stress axis : x y z
#
# Youngs Moduli (GPa) = 75.57622 90.51349 94.57770
#
# Poissons Ratio (x) = 0.31081 0.28916
# Poissons Ratio (y) = 0.25952 0.04753
# Poissons Ratio (z) = 0.23107 0.04549
#
# Static dielectric constant tensor:
#      x y z
#    x 1.718720 0.000000 0.000000 
#    y 0.000000 1.722630 0.000000 
#    z 0.000000 0.000000 1.631160 
# 
# From -- ./inp_files/60194.got.cif
#   From: 2010.05.17/outbox.cif.g08.bks.cpg/sg74_31_cif.got.tgz:60194.got - 2010.06.03 17:57:02.
