data_PCOD9539412
_publ_section_title
;
Structure prediction by ZEFSAII (Michael W. Deem and Ramdas Pophale) SiO2 
 PCOD9539412
Probable space group: I M M A
;
_chemical_formula_sum "Si O2"
_cell_formula_units_Z 52
_cell_length_a 18.103424
_cell_length_b 15.988918
_cell_length_c 6.959356
_cell_angle_alpha 90.000000
_cell_angle_beta 90.000000
_cell_angle_gamma 90.000000
_cell_volume 2014.414558
_symmetry_space_group_name_H-M "I M M A"
_symmetry_group_IT_number 74
_symmetry_cell_setting 'orthorhombic'
loop_
_space_group_symop_operation_xyz
x,y,z
-x,1/2-y,z
x,-y,-z
-x,1/2+y,-z
-x,-y,-z
x,1/2+y,-z
-x,y,z
x,1/2-y,z
1/2+x,1/2+y,1/2+z
1/2-x,-y,1/2+z
1/2+x,1/2-y,1/2-z
1/2-x,y,1/2-z
1/2-x,1/2-y,1/2-z
1/2+x,y,1/2-z
1/2-x,1/2+y,1/2+z
1/2+x,-y,1/2+z
loop_
_atom_site_type_symbol
_atom_site_label
_atom_site_fract_x
_atom_site_fract_y
_atom_site_fract_z
Si Si1 0.083540 0.844413 0.763946
Si Si2 0.200898 0.408951 0.519250
Si Si3 0.582253 0.578387 0.355194
Si Si4 0.750000 0.750000 0.250000
O O1 0.085726 0.750000 0.689788
O O2 0.000000 0.877687 0.722128
O O3 0.151694 0.891587 0.668669
O O4 0.090241 0.846220 0.994070
O O5 0.239712 0.500000 0.500000
O O6 0.140653 0.420393 0.688278
O O7 0.242892 0.325447 0.583963
O O8 0.586480 0.500000 0.500000
O O9 0.500000 0.581212 0.271229
#
# Coordination Sequence:
#
# PCOD9539412 Si02
#       4
#    16  16  16   4
#     4  10  21  39  68 110 149 184 227 293 384 461
#     4  12  25  48  73  98 145 197 246 313 375 428
#     4  10  21  38  69 110 142 174 227 292 372 465
#     4  12  32  52  68 106 140 194 284 310 338 438
#
# _framework density 25.813952
#
# number of rings (size 3 to 8) (size 9 to 14) (size 15 to 20)
#    0.000    1.231    4.615    0.923    2.154    2.462 
#    0.000    1.538    0.000    0.000    0.000    0.000 
#    0.000    0.000    0.000    0.000    0.000    0.000 
#
# Total GULP energy -144984.832919 kJ/mol
# GULP energy per Si atom -5576.339728 kJ/mol
# Density = 2.575520 g / cm^3
# Si number density = 25.813952 Si / 1000 Ang^3
#
#
#
# Elastic Constant Matrix: (Units=GPa)
#
#
# Indices 1 2 3 4 5 6 
#
# 1 95.3608 37.3482 6.8152 0.0000 0.0000 0.0000
# 2 37.3482 208.8342 10.5261 0.0000 0.0000 0.0000
# 3 6.8152 10.5261 71.5668 0.0000 0.0000 0.0000
# 4 0.0000 0.0000 0.0000 42.7441 0.0000 0.0000
# 5 0.0000 0.0000 0.0000 0.0000 51.8304 0.0000
# 6 0.0000 0.0000 0.0000 0.0000 0.0000 19.8965
#
#
#
# Elastic Compliance Matrix: (Units=1/GPa)
#
#
# Indices 1 2 3 4 5 6 
#
# 1 0.011320 -0.001985 -0.000786 0.000000 0.000000 0.000000
# 2 -0.001985 0.005172 -0.000572 0.000000 0.000000 0.000000
# 3 -0.000786 -0.000572 0.014132 0.000000 0.000000 0.000000
# 4 0.000000 0.000000 0.000000 0.023395 0.000000 0.000000
# 5 0.000000 0.000000 0.000000 0.000000 0.019294 0.000000
# 6 0.000000 0.000000 0.000000 0.000000 0.000000 0.050260
#
#
# Mechanical properties :
#
#
# Convention : Reuss Voigt Hill
#
# Bulk Modulus (GPa) = 41.77295 53.90451 47.83873
# Shear Modulus (GPa) = 36.16950 44.29903 40.23426
#
# Velocity S-wave (km/s) = 3.74727 4.14706 3.95223
# Velocity P-wave (km/s) = 5.91102 6.62255 6.27687
#
# Compressibility (1/GPa) = 0.02393894
#
# Stress axis : x y z
#
# Youngs Moduli (GPa) = 88.33886 193.33828 70.76184
#
# Poissons Ratio (x) = 0.38375 0.05562
# Poissons Ratio (y) = 0.17534 0.04046
# Poissons Ratio (z) = 0.06944 0.11054
#
# Static dielectric constant tensor:
#      x y z
#    x 2.035850 0.000000 0.000000 
#    y 0.000000 2.126270 0.000000 
#    z 0.000000 0.000000 1.997310 
# 
# From -- ./inp_files/11576.got.cif
#   From: 2010.05.17/outbox.cif.g08.bks.cpg/sg74_6_cif.got.tgz:11576.got - 2010.06.03 17:57:02.
