data_PCOD9539601
_publ_section_title
;
Structure prediction by ZEFSAII (Michael W. Deem and Ramdas Pophale) SiO2 
 PCOD9539601
Probable space group: I M M A
;
_chemical_formula_sum "Si O2"
_cell_formula_units_Z 72
_cell_length_a 24.319123
_cell_length_b 12.820490
_cell_length_c 12.591623
_cell_angle_alpha 90.000000
_cell_angle_beta 90.000000
_cell_angle_gamma 90.000000
_cell_volume 3925.854916
_symmetry_space_group_name_H-M "I M M A"
_symmetry_group_IT_number 74
_symmetry_cell_setting 'orthorhombic'
loop_
_space_group_symop_operation_xyz
x,y,z
-x,1/2-y,z
x,-y,-z
-x,1/2+y,-z
-x,-y,-z
x,1/2+y,-z
-x,y,z
x,1/2-y,z
1/2+x,1/2+y,1/2+z
1/2-x,-y,1/2+z
1/2+x,1/2-y,1/2-z
1/2-x,y,1/2-z
1/2-x,1/2-y,1/2-z
1/2+x,y,1/2-z
1/2-x,1/2+y,1/2+z
1/2+x,-y,1/2+z
loop_
_atom_site_type_symbol
_atom_site_label
_atom_site_fract_x
_atom_site_fract_y
_atom_site_fract_z
Si Si1 0.891445 0.473952 0.622964
Si Si2 0.500000 0.553609 0.612898
Si Si3 0.772493 0.868145 0.369556
Si Si4 0.685696 0.000000 0.500000
Si Si5 0.500000 0.371826 0.785532
Si Si6 0.384181 0.871667 0.677248
O O1 0.901050 0.500000 0.500000
O O2 0.831831 0.420957 0.627851
O O3 0.886701 0.569662 0.707980
O O4 0.942971 0.400949 0.655404
O O5 0.500000 0.500000 0.500000
O O6 0.500000 0.453719 0.690011
O O7 0.553877 0.620925 0.633911
O O8 0.779491 0.750000 0.404769
O O9 0.750000 0.871131 0.250000
O O10 0.726386 0.921009 0.441171
O O11 0.650902 0.061187 0.409177
O O12 0.500000 0.250000 0.757011
O O13 0.366680 0.750000 0.684858
#
# Coordination Sequence:
#
# PCOD9539601 Si02
#       6
#    16   8  16   8   8  16
#     4  11  23  44  64  90 128 163 217 265 306 376
#     4  10  21  42  62  95 130 160 207 252 308 386
#     4  11  23  40  63  90 127 171 207 255 315 369
#     4  12  22  43  62  97 130 160 212 266 308 392
#     4  10  23  40  64  94 121 160 207 261 313 364
#     4  11  24  41  65  95 130 169 205 260 323 373
#
# _framework density 18.339953999999999
#
# number of rings (size 3 to 8) (size 9 to 14) (size 15 to 20)
#    0.000    1.111    4.444    2.000    0.000    2.667 
#    0.000    1.111    0.000    0.000    0.000    0.000 
#    0.000    0.000    0.000    0.000    0.000    0.000 
#
# Total GULP energy -200798.562174 kJ/mol
# GULP energy per Si atom -5577.737838 kJ/mol
# Density = 1.829821 g / cm^3
# Si number density = 18.339954 Si / 1000 Ang^3
#
#
#
# Elastic Constant Matrix: (Units=GPa)
#
#
# Indices 1 2 3 4 5 6 
#
# 1 107.8965 16.3464 19.7266 0.0000 0.0000 0.0000
# 2 16.3464 94.8211 29.0575 0.0000 0.0000 0.0000
# 3 19.7266 29.0575 88.0672 0.0000 0.0000 0.0000
# 4 0.0000 0.0000 0.0000 14.9039 0.0000 0.0000
# 5 0.0000 0.0000 0.0000 0.0000 18.6724 0.0000
# 6 0.0000 0.0000 0.0000 0.0000 0.0000 -78.1884
#
#
#
# Elastic Compliance Matrix: (Units=1/GPa)
#
#
# Indices 1 2 3 4 5 6 
#
# 1 0.009771 -0.001128 -0.001817 0.000000 0.000000 0.000000
# 2 -0.001128 0.011863 -0.003661 0.000000 0.000000 0.000000
# 3 -0.001817 -0.003661 0.012970 0.000000 0.000000 0.000000
# 4 0.000000 0.000000 0.000000 0.067097 0.000000 0.000000
# 5 0.000000 0.000000 0.000000 0.000000 0.053555 0.000000
# 6 0.000000 0.000000 0.000000 0.000000 0.000000 -0.012790
#
#
# Mechanical properties :
#
#
# Convention : Reuss Voigt Hill
#
# Bulk Modulus (GPa) = 46.74613 46.78286 46.76450
# Shear Modulus (GPa) = 30.71101 6.12120 18.41610
#
# Velocity S-wave (km/s) = 4.09656 1.82890 3.17227
# Velocity P-wave (km/s) = 6.92241 5.47941 6.24274
#
# Compressibility (1/GPa) = 0.02139214
#
# Stress axis : x y z
#
# Youngs Moduli (GPa) = 102.34240 84.29836 77.10133
#
# Poissons Ratio (x) = 0.09507 0.14006
# Poissons Ratio (y) = 0.11542 0.28230
# Poissons Ratio (z) = 0.18591 0.30865
#
# Static dielectric constant tensor:
#      x y z
#    x 1.647540 0.000000 0.000000 
#    y 0.000000 1.621130 0.000000 
#    z 0.000000 0.000000 1.654390 
# 
# From -- ./inp_files/26015.got.cif
#   From: 2010.05.17/outbox.cif.g08.bks.cpg/sg74_14_cif.got.tgz:26015.got - 2010.06.03 17:57:02.
