data_PCOD9539272
_publ_section_title
;
Structure prediction by ZEFSAII (Michael W. Deem and Ramdas Pophale) SiO2 
 PCOD9539272
Probable space group: I M M A
;
_chemical_formula_sum "Si O2"
_cell_formula_units_Z 96
_cell_length_a 22.687676
_cell_length_b 17.619883
_cell_length_c 12.848481
_cell_angle_alpha 90.000000
_cell_angle_beta 90.000000
_cell_angle_gamma 90.000000
_cell_volume 5136.234200
_symmetry_space_group_name_H-M "I M M A"
_symmetry_group_IT_number 74
_symmetry_cell_setting 'orthorhombic'
loop_
_space_group_symop_operation_xyz
x,y,z
-x,1/2-y,z
x,-y,-z
-x,1/2+y,-z
-x,-y,-z
x,1/2+y,-z
-x,y,z
x,1/2-y,z
1/2+x,1/2+y,1/2+z
1/2-x,-y,1/2+z
1/2+x,1/2-y,1/2-z
1/2-x,y,1/2-z
1/2-x,1/2-y,1/2-z
1/2+x,y,1/2-z
1/2-x,1/2+y,1/2+z
1/2+x,-y,1/2+z
loop_
_atom_site_type_symbol
_atom_site_label
_atom_site_fract_x
_atom_site_fract_y
_atom_site_fract_z
Si Si1 0.428484 0.417858 0.557864
Si Si2 0.153937 0.952185 0.242741
Si Si3 0.932002 0.250000 0.028161
Si Si4 0.153090 0.617718 0.714219
Si Si5 0.567266 0.750000 0.779198
Si Si6 0.759252 0.063377 0.586758
Si Si7 0.272535 0.660323 0.594628
O O1 0.412072 0.500000 0.500000
O O2 0.500000 0.419407 0.562648
O O3 0.397304 0.419150 0.670927
O O4 0.410705 0.334751 0.508738
O O5 0.186211 0.911782 0.340467
O O6 0.208382 0.967599 0.162934
O O7 0.133347 0.031651 0.290643
O O8 0.000000 0.250000 0.993845
O O9 0.930684 0.250000 0.153240
O O10 0.102779 0.676335 0.685562
O O11 0.211029 0.633637 0.646244
O O12 0.175339 0.631595 0.831955
O O13 0.500000 0.750000 0.812457
O O14 0.729482 0.130204 0.521697
O O15 0.774649 0.000000 0.500000
O O16 0.275036 0.750000 0.598678
#
# Coordination Sequence:
#
# PCOD9539272 Si02
#       7
#    16  16   8  16   8  16  16
#     4  10  21  38  59  83 112 151 192 232 285 348
#     4  11  22  34  56  84 111 146 188 228 279 335
#     4   9  20  36  53  76 112 150 182 225 282 335
#     4  11  19  33  57  81 109 149 182 225 287 340
#     4  11  22  33  51  87 119 139 180 238 288 332
#     4  11  20  36  54  81 114 145 181 231 278 329
#     4  11  20  35  56  81 110 146 188 226 279 349
#
# _framework density 18.690736000000001
#
# number of rings (size 3 to 8) (size 9 to 14) (size 15 to 20)
#    0.000    1.333    5.000    3.000    2.333    2.000 
#    1.500    0.833    0.000    1.500    0.000    0.000 
#    0.000    0.000    0.000    0.000    0.000    0.000 
#
# Total GULP energy -267455.415971 kJ/mol
# GULP energy per Si atom -5571.987833 kJ/mol
# Density = 1.864820 g / cm^3
# Si number density = 18.690736 Si / 1000 Ang^3
#
#
#
# Elastic Constant Matrix: (Units=GPa)
#
#
# Indices 1 2 3 4 5 6 
#
# 1 74.2586 3.2736 8.5549 0.0000 0.0000 0.0000
# 2 3.2736 71.9806 -0.2715 0.0000 0.0000 0.0000
# 3 8.5549 -0.2715 51.1434 0.0000 0.0000 0.0000
# 4 0.0000 0.0000 0.0000 11.9390 0.0000 0.0000
# 5 0.0000 0.0000 0.0000 0.0000 30.5364 0.0000
# 6 0.0000 0.0000 0.0000 0.0000 0.0000 -40.7656
#
#
#
# Elastic Compliance Matrix: (Units=1/GPa)
#
#
# Indices 1 2 3 4 5 6 
#
# 1 0.013760 -0.000634 -0.002305 0.000000 0.000000 0.000000
# 2 -0.000634 0.013922 0.000180 0.000000 0.000000 0.000000
# 3 -0.002305 0.000180 0.019939 0.000000 0.000000 0.000000
# 4 0.000000 0.000000 0.000000 0.083759 0.000000 0.000000
# 5 0.000000 0.000000 0.000000 0.000000 0.032748 0.000000
# 6 0.000000 0.000000 0.000000 0.000000 0.000000 -0.024530
#
#
# Mechanical properties :
#
#
# Convention : Reuss Voigt Hill
#
# Bulk Modulus (GPa) = 23.75154 24.49964 24.12559
# Shear Modulus (GPa) = 31.41666 12.73033 22.07349
#
# Velocity S-wave (km/s) = 4.10429 2.61263 3.44028
# Velocity P-wave (km/s) = 5.93258 4.71566 5.35877
#
# Compressibility (1/GPa) = 0.04210254
#
# Stress axis : x y z
#
# Youngs Moduli (GPa) = 72.67459 71.82794 50.15196
#
# Poissons Ratio (x) = 0.04557 0.11560
# Poissons Ratio (y) = 0.04611 -0.00903
# Poissons Ratio (z) = 0.16752 -0.01293
#
# Static dielectric constant tensor:
#      x y z
#    x 1.669950 0.000000 0.000000 
#    y 0.000000 1.706060 0.000000 
#    z 0.000000 0.000000 1.660250 
# 
# From -- ./inp_files/25203.got.cif
#   From: 2010.05.17/outbox.cif.g08.bks.cpg/sg74_13_cif.got.tgz:25203.got - 2010.06.03 17:57:02.
