data_PCOD9539982
_publ_section_title
;
Structure prediction by ZEFSAII (Michael W. Deem and Ramdas Pophale) SiO2 
 PCOD9539982
Probable space group: I M M A
;
_chemical_formula_sum "Si O2"
_cell_formula_units_Z 88
_cell_length_a 22.085234
_cell_length_b 13.979320
_cell_length_c 15.625989
_cell_angle_alpha 90.000000
_cell_angle_beta 90.000000
_cell_angle_gamma 90.000000
_cell_volume 4824.313987
_symmetry_space_group_name_H-M "I M M A"
_symmetry_group_IT_number 74
_symmetry_cell_setting 'orthorhombic'
loop_
_space_group_symop_operation_xyz
x,y,z
-x,1/2-y,z
x,-y,-z
-x,1/2+y,-z
-x,-y,-z
x,1/2+y,-z
-x,y,z
x,1/2-y,z
1/2+x,1/2+y,1/2+z
1/2-x,-y,1/2+z
1/2+x,1/2-y,1/2-z
1/2-x,y,1/2-z
1/2-x,1/2-y,1/2-z
1/2+x,y,1/2-z
1/2-x,1/2+y,1/2+z
1/2+x,-y,1/2+z
loop_
_atom_site_type_symbol
_atom_site_label
_atom_site_fract_x
_atom_site_fract_y
_atom_site_fract_z
Si Si1 0.128004 0.059070 0.413352
Si Si2 0.621936 0.560684 0.585392
Si Si3 0.572421 0.750000 0.982669
Si Si4 0.748769 0.861167 0.647857
Si Si5 0.573265 0.750000 0.180533
Si Si6 0.427078 0.453597 0.749822
Si Si7 0.500000 0.866347 0.522623
O O1 0.096588 0.158955 0.433196
O O2 0.198475 0.075270 0.393001
O O3 0.120204 0.000000 0.500000
O O4 0.095598 0.011946 0.332073
O O5 0.634320 0.500000 0.500000
O O6 0.682687 0.614726 0.612457
O O7 0.602410 0.492602 0.663672
O O8 0.564315 0.628950 0.567500
O O9 0.500000 0.750000 0.984671
O O10 0.594309 0.750000 0.081851
O O11 0.762881 0.750000 0.631051
O O12 0.750000 0.875825 0.750000
O O13 0.500000 0.750000 0.176725
O O14 0.591186 0.844778 0.230620
O O15 0.500000 0.459276 0.742465
O O16 0.500000 0.750000 0.483548
O O17 0.500000 0.000000 0.500000
#
# Coordination Sequence:
#
# PCOD9539982 Si02
#       7
#    16  16   8  16   8  16   8
#     4  12  23  39  65  89 128 167 209 261 322 388
#     4  11  23  43  65  95 129 167 218 271 329 389
#     4  11  22  38  59  97 129 166 209 260 320 387
#     4  11  23  41  63  87 121 167 214 263 320 387
#     4   9  20  38  62  90 132 168 208 256 313 402
#     4  11  22  40  63  96 130 169 212 264 329 389
#     4  10  22  44  70 100 133 170 220 285 340 395
#
# _framework density 18.240935
#
# number of rings (size 3 to 8) (size 9 to 14) (size 15 to 20)
#    0.000    1.091    5.455    1.636    0.000    0.727 
#    9.818    0.000    0.000    1.091    0.000    0.000 
#    0.000    0.000    0.000    0.000    0.000    0.000 
#
# Total GULP energy -244944.805039 kJ/mol
# GULP energy per Si atom -5566.927387 kJ/mol
# Density = 1.819942 g / cm^3
# Si number density = 18.240935 Si / 1000 Ang^3
#
#
#
# Elastic Constant Matrix: (Units=GPa)
#
#
# Indices 1 2 3 4 5 6 
#
# 1 70.5766 13.3801 10.4081 0.0000 0.0000 0.0000
# 2 13.3801 104.7552 48.1461 0.0000 0.0000 0.0000
# 3 10.4081 48.1461 111.8464 0.0000 0.0000 0.0000
# 4 0.0000 0.0000 0.0000 -6.8723 0.0000 0.0000
# 5 0.0000 0.0000 0.0000 0.0000 27.9955 0.0000
# 6 0.0000 0.0000 0.0000 0.0000 0.0000 19.5674
#
#
#
# Elastic Compliance Matrix: (Units=1/GPa)
#
#
# Indices 1 2 3 4 5 6 
#
# 1 0.014563 -0.001542 -0.000691 0.000000 0.000000 0.000000
# 2 -0.001542 0.012064 -0.005050 0.000000 0.000000 0.000000
# 3 -0.000691 -0.005050 0.011179 0.000000 0.000000 0.000000
# 4 0.000000 0.000000 0.000000 -0.145513 0.000000 0.000000
# 5 0.000000 0.000000 0.000000 0.000000 0.035720 0.000000
# 6 0.000000 0.000000 0.000000 0.000000 0.000000 0.051105
#
#
# Mechanical properties :
#
#
# Convention : Reuss Voigt Hill
#
# Bulk Modulus (GPa) = 43.03007 47.89409 45.46208
# Shear Modulus (GPa) = 3491.84610 22.48772 1757.16691
#
# Velocity S-wave (km/s) = 43.80008 3.51496 31.07090
# Velocity P-wave (km/s) = 50.80916 6.54115 36.22400
#
# Compressibility (1/GPa) = 0.02323956
#
# Stress axis : x y z
#
# Youngs Moduli (GPa) = 68.66550 82.89203 89.45482
#
# Poissons Ratio (x) = 0.12786 0.06184
# Poissons Ratio (y) = 0.10591 0.45171
# Poissons Ratio (z) = 0.04747 0.41857
#
# Static dielectric constant tensor:
#      x y z
#    x 1.605450 0.000000 0.000000 
#    y 0.000000 1.364080 0.000000 
#    z 0.000000 0.000000 1.595560 
# 
# From -- ./inp_files/36285.got.cif
#   From: 2010.05.17/outbox.cif.g08.bks.cpg/sg74_19_cif.got.tgz:36285.got - 2010.06.03 17:57:02.
