data_PCOD9539617
_publ_section_title
;
Structure prediction by ZEFSAII (Michael W. Deem and Ramdas Pophale) SiO2 
 PCOD9539617
Probable space group: I M M A
;
_chemical_formula_sum "Si O2"
_cell_formula_units_Z 72
_cell_length_a 15.466636
_cell_length_b 9.874378
_cell_length_c 24.575217
_cell_angle_alpha 90.000000
_cell_angle_beta 90.000000
_cell_angle_gamma 90.000000
_cell_volume 3753.210948
_symmetry_space_group_name_H-M "I M M A"
_symmetry_group_IT_number 74
_symmetry_cell_setting 'orthorhombic'
loop_
_space_group_symop_operation_xyz
x,y,z
-x,1/2-y,z
x,-y,-z
-x,1/2+y,-z
-x,-y,-z
x,1/2+y,-z
-x,y,z
x,1/2-y,z
1/2+x,1/2+y,1/2+z
1/2-x,-y,1/2+z
1/2+x,1/2-y,1/2-z
1/2-x,y,1/2-z
1/2-x,1/2-y,1/2-z
1/2+x,y,1/2-z
1/2-x,1/2+y,1/2+z
1/2+x,-y,1/2+z
loop_
_atom_site_type_symbol
_atom_site_label
_atom_site_fract_x
_atom_site_fract_y
_atom_site_fract_z
Si Si1 0.131265 0.414098 0.633125
Si Si2 0.105388 0.750000 0.931820
Si Si3 0.600310 0.250000 0.554380
Si Si4 0.000000 0.079647 0.441529
Si Si5 0.165978 0.012564 0.871246
Si Si6 0.145234 0.594987 0.244477
O O1 0.117991 0.250000 0.623351
O O2 0.080222 0.513899 0.592618
O O3 0.232942 0.447472 0.629828
O O4 0.107737 0.441865 0.696601
O O5 0.144731 0.875682 0.900717
O O6 0.000000 0.750000 0.929293
O O7 0.138832 0.750000 0.994066
O O8 0.500000 0.250000 0.543970
O O9 0.623333 0.376244 0.590835
O O10 0.000000 0.250000 0.444669
O O11 0.000000 0.000000 0.500000
O O12 0.128055 0.012542 0.810073
O O13 0.119833 0.750000 0.233174
O O14 0.250000 0.593584 0.250000
#
# Coordination Sequence:
#
# PCOD9539617 Si02
#       6
#    16   8   8   8  16  16
#     4  10  21  43  69  97 126 162 213 272 322 377
#     4  11  26  40  53  87 137 171 204 272 323 367
#     4  11  22  40  61  85 123 165 218 260 309 371
#     4  12  28  48  68  96 136 174 213 266 323 381
#     4  11  20  40  65  93 123 170 218 260 319 391
#     4   8  15  34  64  92 121 156 206 267 317 373
#
# _framework density 19.183575000000001
#
# number of rings (size 3 to 8) (size 9 to 14) (size 15 to 20)
#    0.000    1.778    2.222    3.667    1.556    3.556 
#    6.000    1.667    0.000    0.000    0.000    0.000 
#    0.000    0.000    0.000    0.000    0.000    0.000 
#
# Total GULP energy -200578.779238 kJ/mol
# GULP energy per Si atom -5571.632757 kJ/mol
# Density = 1.913991 g / cm^3
# Si number density = 19.183575 Si / 1000 Ang^3
#
#
#
# Elastic Constant Matrix: (Units=GPa)
#
#
# Indices 1 2 3 4 5 6 
#
# 1 38.6365 21.2555 34.2358 0.0000 0.0000 0.0000
# 2 21.2555 156.3295 79.0065 0.0000 0.0000 0.0000
# 3 34.2358 79.0065 174.7184 0.0000 0.0000 0.0000
# 4 0.0000 0.0000 0.0000 -43.6310 0.0000 0.0000
# 5 0.0000 0.0000 0.0000 0.0000 119.1310 0.0000
# 6 0.0000 0.0000 0.0000 0.0000 0.0000 -170.3171
#
#
#
# Elastic Compliance Matrix: (Units=1/GPa)
#
#
# Indices 1 2 3 4 5 6 
#
# 1 0.031594 -0.001513 -0.005507 0.000000 0.000000 0.000000
# 2 -0.001513 0.008364 -0.003486 0.000000 0.000000 0.000000
# 3 -0.005507 -0.003486 0.008379 0.000000 0.000000 0.000000
# 4 0.000000 0.000000 0.000000 -0.022919 0.000000 0.000000
# 5 0.000000 0.000000 0.000000 0.000000 0.008394 0.000000
# 6 0.000000 0.000000 0.000000 0.000000 0.000000 -0.005871
#
#
# Mechanical properties :
#
#
# Convention : Reuss Voigt Hill
#
# Bulk Modulus (GPa) = 36.59466 70.96445 53.77955
# Shear Modulus (GPa) = 86.11886 -3.28432 41.41727
#
# Velocity S-wave (km/s) = 6.70742 -1.30987 4.65154
# Velocity P-wave (km/s) = 8.89401 5.89787 7.54613
#
# Compressibility (1/GPa) = 0.02732639
#
# Stress axis : x y z
#
# Youngs Moduli (GPa) = 31.65162 119.55898 119.34902
#
# Poissons Ratio (x) = 0.18085 0.65723
# Poissons Ratio (y) = 0.04788 0.41602
# Poissons Ratio (z) = 0.17430 0.41676
#
# Static dielectric constant tensor:
#      x y z
#    x 1.717890 0.000000 0.000000 
#    y 0.000000 1.610100 0.000000 
#    z 0.000000 0.000000 1.698490 
# 
# From -- ./inp_files/60640.got.cif
#   From: 2010.05.17/outbox.cif.g08.bks.cpg/sg74_31_cif.got.tgz:60640.got - 2010.06.03 17:57:02.
