data_PCOD9539692
_publ_section_title
;
Structure prediction by ZEFSAII (Michael W. Deem and Ramdas Pophale) SiO2 
 PCOD9539692
Probable space group: I M M A
;
_chemical_formula_sum "Si O2"
_cell_formula_units_Z 72
_cell_length_a 9.833170
_cell_length_b 14.492514
_cell_length_c 25.494870
_cell_angle_alpha 90.000000
_cell_angle_beta 90.000000
_cell_angle_gamma 90.000000
_cell_volume 3633.206461
_symmetry_space_group_name_H-M "I M M A"
_symmetry_group_IT_number 74
_symmetry_cell_setting 'orthorhombic'
loop_
_space_group_symop_operation_xyz
x,y,z
-x,1/2-y,z
x,-y,-z
-x,1/2+y,-z
-x,-y,-z
x,1/2+y,-z
-x,y,z
x,1/2-y,z
1/2+x,1/2+y,1/2+z
1/2-x,-y,1/2+z
1/2+x,1/2-y,1/2-z
1/2-x,y,1/2-z
1/2-x,1/2-y,1/2-z
1/2+x,y,1/2-z
1/2-x,1/2+y,1/2+z
1/2+x,-y,1/2+z
loop_
_atom_site_type_symbol
_atom_site_label
_atom_site_fract_x
_atom_site_fract_y
_atom_site_fract_z
Si Si1 0.343065 0.384204 0.600951
Si Si2 0.150001 0.642767 0.791187
Si Si3 0.838194 0.250000 0.803495
Si Si4 0.157870 0.893752 0.906568
Si Si5 0.343189 0.112325 0.996611
O O1 0.500000 0.358709 0.587696
O O2 0.312281 0.337065 0.657030
O O3 0.338626 0.495306 0.600243
O O4 0.236606 0.357670 0.555673
O O5 0.134535 0.750000 0.776046
O O6 0.250000 0.597017 0.750000
O O7 0.202656 0.642331 0.850149
O O8 0.000000 0.599614 0.791522
O O9 0.750000 0.250000 0.750000
O O10 0.000000 0.250000 0.790801
O O11 0.254295 0.861094 0.952957
O O12 0.000000 0.867563 0.916178
O O13 0.500000 0.142042 0.997556
O O14 0.343902 0.000000 0.000000
#
# Coordination Sequence:
#
# PCOD9539692 Si02
#       5
#    16  16   8  16  16
#     4   9  18  34  53  72  97 132 169 204 247 299
#     4   9  18  32  48  68  96 128 160 197 240 286
#     4  10  22  38  54  74 102 136 175 218 259 300
#     4   9  17  31  52  74  98 131 168 202 244 302
#     4   9  17  30  50  76 102 126 157 202 252 297
#
# _framework density 19.817205000000001
#
# number of rings (size 3 to 8) (size 9 to 14) (size 15 to 20)
#    0.000    2.889    0.000    0.667    0.000    5.333 
#    2.000    0.000    0.000    0.000    0.000    0.000 
#    0.000    0.000    0.000    0.000    0.000    0.000 
#
# Total GULP energy -200636.451448 kJ/mol
# GULP energy per Si atom -5573.234762 kJ/mol
# Density = 1.977210 g / cm^3
# Si number density = 19.817205 Si / 1000 Ang^3
#
#
#
# Elastic Constant Matrix: (Units=GPa)
#
#
# Indices 1 2 3 4 5 6 
#
# 1 134.2435 16.1100 128.6189 0.0000 0.0000 0.0000
# 2 16.1100 65.9864 11.4730 0.0000 0.0000 0.0000
# 3 128.6189 11.4730 184.3025 0.0000 0.0000 0.0000
# 4 0.0000 0.0000 0.0000 25.3153 0.0000 0.0000
# 5 0.0000 0.0000 0.0000 0.0000 44.1114 0.0000
# 6 0.0000 0.0000 0.0000 0.0000 0.0000 2.2864
#
#
#
# Elastic Compliance Matrix: (Units=1/GPa)
#
#
# Indices 1 2 3 4 5 6 
#
# 1 0.023000 -0.002855 -0.015873 0.000000 0.000000 0.000000
# 2 -0.002855 0.015675 0.001017 0.000000 0.000000 0.000000
# 3 -0.015873 0.001017 0.016440 0.000000 0.000000 0.000000
# 4 0.000000 0.000000 0.000000 0.039502 0.000000 0.000000
# 5 0.000000 0.000000 0.000000 0.000000 0.022670 0.000000
# 6 0.000000 0.000000 0.000000 0.000000 0.000000 0.437362
#
#
# Mechanical properties :
#
#
# Convention : Reuss Voigt Hill
#
# Bulk Modulus (GPa) = 50.78330 77.43735 64.11032
# Shear Modulus (GPa) = 8.38032 29.56466 18.97249
#
# Velocity S-wave (km/s) = 2.05864 3.86666 3.09750
# Velocity P-wave (km/s) = 5.59751 7.68735 6.72412
#
# Compressibility (1/GPa) = 0.01969151
#
# Stress axis : x y z
#
# Youngs Moduli (GPa) = 43.47843 63.79606 60.82748
#
# Poissons Ratio (x) = 0.18216 0.96552
# Poissons Ratio (y) = 0.12415 -0.06186
# Poissons Ratio (z) = 0.69014 -0.06487
#
# Static dielectric constant tensor:
#      x y z
#    x 1.732260 0.000000 0.000000 
#    y 0.000000 2.058580 0.000000 
#    z 0.000000 0.000000 1.661830 
# 
# From -- ./inp_files/48394.got.cif
#   From: 2010.05.17/outbox.cif.g08.bks.cpg/sg74_25_cif.got.tgz:48394.got - 2010.06.03 17:57:02.
