data_PCOD9539124
_publ_section_title
;
Structure prediction by ZEFSAII (Michael W. Deem and Ramdas Pophale) SiO2 
 PCOD9539124
Probable space group: I M M A
;
_chemical_formula_sum "Si O2"
_cell_formula_units_Z 72
_cell_length_a 13.969927
_cell_length_b 10.317890
_cell_length_c 28.325325
_cell_angle_alpha 90.000000
_cell_angle_beta 90.000000
_cell_angle_gamma 90.000000
_cell_volume 4082.817163
_symmetry_space_group_name_H-M "I M M A"
_symmetry_group_IT_number 74
_symmetry_cell_setting 'orthorhombic'
loop_
_space_group_symop_operation_xyz
x,y,z
-x,1/2-y,z
x,-y,-z
-x,1/2+y,-z
-x,-y,-z
x,1/2+y,-z
-x,y,z
x,1/2-y,z
1/2+x,1/2+y,1/2+z
1/2-x,-y,1/2+z
1/2+x,1/2-y,1/2-z
1/2-x,y,1/2-z
1/2-x,1/2-y,1/2-z
1/2+x,y,1/2-z
1/2-x,1/2+y,1/2+z
1/2+x,-y,1/2+z
loop_
_atom_site_type_symbol
_atom_site_label
_atom_site_fract_x
_atom_site_fract_y
_atom_site_fract_z
Si Si1 0.500000 0.382649 0.966081
Si Si2 0.000000 0.250000 0.756043
Si Si3 0.500000 0.250000 0.257639
Si Si4 0.704547 0.750000 0.697833
Si Si5 0.213592 0.498648 0.646305
Si Si6 0.500000 0.501842 0.812147
Si Si7 0.203736 0.750000 0.199065
Si Si8 0.713685 0.597218 0.045496
O O1 0.500000 0.250000 0.995498
O O2 0.600868 0.387243 0.941200
O O3 0.500000 0.500000 0.000000
O O4 0.000000 0.374590 0.721298
O O5 0.908371 0.250000 0.790083
O O6 0.592419 0.250000 0.291020
O O7 0.500000 0.374692 0.223015
O O8 0.750000 0.750000 0.750000
O O9 0.740722 0.874437 0.669403
O O10 0.257233 0.374959 0.672531
O O11 0.247172 0.477661 0.592154
O O12 0.098609 0.503989 0.657316
O O13 0.250000 0.750000 0.250000
O O14 0.746387 0.750000 0.038701
O O15 0.723432 0.500000 0.000000
#
# Coordination Sequence:
#
# PCOD9539124 Si02
#       8
#     8   4   4   8  16   8   8  16
#     4   8  15  30  50  75 112 152 190 234 281 341
#     4  12  24  34  62  86 118 164 194 244 316 346
#     4  12  24  42  60  84 122 166 204 242 306 354
#     4  12  24  42  61  86 123 162 202 253 295 363
#     4  12  23  38  61  90 124 161 206 246 300 360
#     4  12  21  36  60  88 123 166 202 239 293 366
#     4  12  22  40  57  90 121 154 202 255 297 363
#     4  10  21  37  57  84 119 158 202 249 298 355
#
# _framework density 17.634882000000001
#
# number of rings (size 3 to 8) (size 9 to 14) (size 15 to 20)
#    0.000    0.889    5.556    2.667    1.556    0.000 
#    0.000    0.000    0.000    0.000    0.000    4.667 
#    0.000    0.000    0.000    0.000    0.000    0.000 
#
# Total GULP energy -200444.574887 kJ/mol
# GULP energy per Si atom -5567.904858 kJ/mol
# Density = 1.759474 g / cm^3
# Si number density = 17.634882 Si / 1000 Ang^3
#
#
#
# Elastic Constant Matrix: (Units=GPa)
#
#
# Indices 1 2 3 4 5 6 
#
# 1 109.7034 34.6727 37.5080 0.0000 0.0000 0.0000
# 2 34.6727 188.0605 86.5252 0.0000 0.0000 0.0000
# 3 37.5080 86.5252 151.5383 0.0000 0.0000 0.0000
# 4 0.0000 0.0000 0.0000 28.2560 0.0000 0.0000
# 5 0.0000 0.0000 0.0000 0.0000 11.7714 0.0000
# 6 0.0000 0.0000 0.0000 0.0000 0.0000 25.3147
#
#
#
# Elastic Compliance Matrix: (Units=1/GPa)
#
#
# Indices 1 2 3 4 5 6 
#
# 1 0.010085 -0.000964 -0.001946 0.000000 0.000000 0.000000
# 2 -0.000964 0.007304 -0.003932 0.000000 0.000000 0.000000
# 3 -0.001946 -0.003932 0.009326 0.000000 0.000000 0.000000
# 4 0.000000 0.000000 0.000000 0.035391 0.000000 0.000000
# 5 0.000000 0.000000 0.000000 0.000000 0.084951 0.000000
# 6 0.000000 0.000000 0.000000 0.000000 0.000000 0.039503
#
#
# Mechanical properties :
#
#
# Convention : Reuss Voigt Hill
#
# Bulk Modulus (GPa) = 76.73664 85.19044 80.96354
# Shear Modulus (GPa) = 24.43938 32.44153 28.44045
#
# Velocity S-wave (km/s) = 3.72675 4.29374 4.02025
# Velocity P-wave (km/s) = 7.88205 8.54367 8.21952
#
# Compressibility (1/GPa) = 0.01303158
#
# Stress axis : x y z
#
# Youngs Moduli (GPa) = 99.15228 136.90642 107.23132
#
# Poissons Ratio (x) = 0.13201 0.20865
# Poissons Ratio (y) = 0.09561 0.42162
# Poissons Ratio (z) = 0.19293 0.53830
#
# Static dielectric constant tensor:
#      x y z
#    x 1.642260 0.000000 0.000000 
#    y 0.000000 1.578530 0.000000 
#    z 0.000000 0.000000 1.600340 
# 
# From -- ./inp_files/66839.got.cif
#   From: 2010.05.17/outbox.cif.g08.bks.cpg/sg74_34_cif.got.tgz:66839.got - 2010.06.03 17:57:02.
