data_PCOD9539656
_publ_section_title
;
Structure prediction by ZEFSAII (Michael W. Deem and Ramdas Pophale) SiO2 
 PCOD9539656
Probable space group: I M M A
;
_chemical_formula_sum "Si O2"
_cell_formula_units_Z 52
_cell_length_a 10.675809
_cell_length_b 14.033706
_cell_length_c 16.278815
_cell_angle_alpha 90.000000
_cell_angle_beta 90.000000
_cell_angle_gamma 90.000000
_cell_volume 2438.911025
_symmetry_space_group_name_H-M "I M M A"
_symmetry_group_IT_number 74
_symmetry_cell_setting 'orthorhombic'
loop_
_space_group_symop_operation_xyz
x,y,z
-x,1/2-y,z
x,-y,-z
-x,1/2+y,-z
-x,-y,-z
x,1/2+y,-z
-x,y,z
x,1/2-y,z
1/2+x,1/2+y,1/2+z
1/2-x,-y,1/2+z
1/2+x,1/2-y,1/2-z
1/2-x,y,1/2-z
1/2-x,1/2-y,1/2-z
1/2+x,y,1/2-z
1/2-x,1/2+y,1/2+z
1/2+x,-y,1/2+z
loop_
_atom_site_type_symbol
_atom_site_label
_atom_site_fract_x
_atom_site_fract_y
_atom_site_fract_z
Si Si1 0.744692 0.641300 0.150976
Si Si2 0.732487 0.250000 0.152277
Si Si3 0.000000 0.910807 0.060402
Si Si4 0.500000 0.750000 0.571950
Si Si5 0.359107 0.948660 0.819444
O O1 0.716189 0.750000 0.120761
O O2 0.750000 0.649295 0.250000
O O3 0.655343 0.550130 0.134275
O O4 0.878189 0.606683 0.116104
O O5 0.750000 0.250000 0.250000
O O6 0.873205 0.250000 0.121491
O O7 0.665523 0.350279 0.130958
O O8 0.000000 0.834694 0.989986
O O9 0.000000 0.000000 0.000000
O O10 0.500000 0.943132 0.784233
O O11 0.250000 0.950144 0.750000
#
# Coordination Sequence:
#
# PCOD9539656 Si02
#       5
#    16   8   8   4  16
#     4  10  22  40  68 104 145 187 251 306 368 432
#     4  10  23  38  66  98 146 186 255 301 365 440
#     4  12  24  44  72 110 152 188 250 313 375 453
#     4  12  24  42  70 106 138 192 248 292 388 438
#     4  10  22  36  62  99 140 182 239 306 371 423
#
# _framework density 21.320989999999998
#
# number of rings (size 3 to 8) (size 9 to 14) (size 15 to 20)
#    0.000    1.538    1.538    2.308   17.231    0.615 
#    0.000    0.000    0.000   10.154    0.000    0.000 
#    0.000    0.000    0.000    0.000    0.000    0.000 
#
# Total GULP energy -144796.954394 kJ/mol
# GULP energy per Si atom -5569.113631 kJ/mol
# Density = 2.127246 g / cm^3
# Si number density = 21.320990 Si / 1000 Ang^3
#
#
#
# Elastic Constant Matrix: (Units=GPa)
#
#
# Indices 1 2 3 4 5 6 
#
# 1 174.6093 50.3843 47.5961 0.0000 0.0000 0.0000
# 2 50.3843 251.5499 20.0643 0.0000 0.0000 0.0000
# 3 47.5961 20.0643 73.1281 0.0000 0.0000 0.0000
# 4 0.0000 0.0000 0.0000 21.8538 0.0000 0.0000
# 5 0.0000 0.0000 0.0000 0.0000 29.7115 0.0000
# 6 0.0000 0.0000 0.0000 0.0000 0.0000 27.2407
#
#
#
# Elastic Compliance Matrix: (Units=1/GPa)
#
#
# Indices 1 2 3 4 5 6 
#
# 1 0.007248 -0.001100 -0.004416 0.000000 0.000000 0.000000
# 2 -0.001100 0.004231 -0.000445 0.000000 0.000000 0.000000
# 3 -0.004416 -0.000445 0.016671 0.000000 0.000000 0.000000
# 4 0.000000 0.000000 0.000000 0.045759 0.000000 0.000000
# 5 0.000000 0.000000 0.000000 0.000000 0.033657 0.000000
# 6 0.000000 0.000000 0.000000 0.000000 0.000000 0.036710
#
#
# Mechanical properties :
#
#
# Convention : Reuss Voigt Hill
#
# Bulk Modulus (GPa) = 61.61858 81.70851 71.66355
# Shear Modulus (GPa) = 30.93941 41.17736 36.05839
#
# Velocity S-wave (km/s) = 3.81350 4.39943 4.11690
# Velocity P-wave (km/s) = 6.95367 8.01329 7.50221
#
# Compressibility (1/GPa) = 0.01622887
#
# Stress axis : x y z
#
# Youngs Moduli (GPa) = 137.96857 236.34513 59.98493
#
# Poissons Ratio (x) = 0.25987 0.26488
# Poissons Ratio (y) = 0.15170 0.02671
# Poissons Ratio (z) = 0.60924 0.10523
#
# Static dielectric constant tensor:
#      x y z
#    x 2.323440 0.000000 0.000000 
#    y 0.000000 1.884690 0.000000 
#    z 0.000000 0.000000 2.285180 
# 
# From -- ./inp_files/50116.got.cif
#   From: 2010.05.17/outbox.cif.g08.bks.cpg/sg74_26_cif.got.tgz:50116.got - 2010.06.03 17:57:02.
