data_PCOD9539296
_publ_section_title
;
Structure prediction by ZEFSAII (Michael W. Deem and Ramdas Pophale) SiO2 
 PCOD9539296
Probable space group: I M M A
;
_chemical_formula_sum "Si O2"
_cell_formula_units_Z 96
_cell_length_a 26.743460
_cell_length_b 8.811794
_cell_length_c 20.427542
_cell_angle_alpha 90.000000
_cell_angle_beta 90.000000
_cell_angle_gamma 90.000000
_cell_volume 4813.910840
_symmetry_space_group_name_H-M "I M M A"
_symmetry_group_IT_number 74
_symmetry_cell_setting 'orthorhombic'
loop_
_space_group_symop_operation_xyz
x,y,z
-x,1/2-y,z
x,-y,-z
-x,1/2+y,-z
-x,-y,-z
x,1/2+y,-z
-x,y,z
x,1/2-y,z
1/2+x,1/2+y,1/2+z
1/2-x,-y,1/2+z
1/2+x,1/2-y,1/2-z
1/2-x,y,1/2-z
1/2-x,1/2-y,1/2-z
1/2+x,y,1/2-z
1/2-x,1/2+y,1/2+z
1/2+x,-y,1/2+z
loop_
_atom_site_type_symbol
_atom_site_label
_atom_site_fract_x
_atom_site_fract_y
_atom_site_fract_z
Si Si1 0.209877 0.070189 0.804776
Si Si2 0.056903 0.570507 0.667264
Si Si3 0.745850 0.430315 0.069545
Si Si4 0.594302 0.571527 0.295955
Si Si5 0.560463 0.572520 0.569274
Si Si6 0.636390 0.069076 0.929876
O O1 0.217646 0.250000 0.817709
O O2 0.250000 0.023211 0.750000
O O3 0.153175 0.050633 0.781408
O O4 0.218895 0.979659 0.871320
O O5 0.065966 0.750000 0.660239
O O6 0.063753 0.522149 0.742514
O O7 0.096634 0.479351 0.624306
O O8 0.000000 0.538058 0.646643
O O9 0.742303 0.250000 0.063918
O O10 0.690965 0.499322 0.084458
O O11 0.761910 0.500000 0.000000
O O12 0.582505 0.750000 0.290701
O O13 0.583024 0.514134 0.368824
O O14 0.575828 0.500000 0.500000
O O15 0.500000 0.561123 0.573409
O O16 0.573952 0.750000 0.571254
O O17 0.640605 0.250000 0.934050
O O18 0.620983 0.000000 0.000000
#
# Coordination Sequence:
#
# PCOD9539296 Si02
#       6
#    16  16  16  16  16  16
#     4  10  22  40  60  84 116 153 194 241 291 342
#     4  11  24  41  61  87 120 156 196 243 292 345
#     4  11  22  38  62  89 119 155 195 239 289 347
#     4  11  23  38  60  88 118 154 195 242 294 349
#     4  10  21  38  60  85 115 152 193 239 290 346
#     4  11  22  39  63  89 120 156 195 240 290 347
#
# _framework density 19.942205000000001
#
# number of rings (size 3 to 8) (size 9 to 14) (size 15 to 20)
#    0.000    1.333    0.000    7.000    0.000    8.333 
#    0.000    0.000    0.000    0.000    0.000    0.000 
#    0.000    0.000    0.000    0.000    0.000    0.000 
#
# Total GULP energy -268549.665057 kJ/mol
# GULP energy per Si atom -5594.784689 kJ/mol
# Density = 1.989682 g / cm^3
# Si number density = 19.942205 Si / 1000 Ang^3
#
#
#
# Elastic Constant Matrix: (Units=GPa)
#
#
# Indices 1 2 3 4 5 6 
#
# 1 18.8489 26.2902 6.4927 0.0000 0.0000 0.0000
# 2 26.2902 105.3157 9.6956 0.0000 0.0000 0.0000
# 3 6.4927 9.6956 43.5135 0.0000 0.0000 0.0000
# 4 0.0000 0.0000 0.0000 38.9160 0.0000 0.0000
# 5 0.0000 0.0000 0.0000 0.0000 29.6252 0.0000
# 6 0.0000 0.0000 0.0000 0.0000 0.0000 6.4047
#
#
#
# Elastic Compliance Matrix: (Units=1/GPa)
#
#
# Indices 1 2 3 4 5 6 
#
# 1 0.084055 -0.020244 -0.008031 0.000000 0.000000 0.000000
# 2 -0.020244 0.014569 -0.000226 0.000000 0.000000 0.000000
# 3 -0.008031 -0.000226 0.024230 0.000000 0.000000 0.000000
# 4 0.000000 0.000000 0.000000 0.025696 0.000000 0.000000
# 5 0.000000 0.000000 0.000000 0.000000 0.033755 0.000000
# 6 0.000000 0.000000 0.000000 0.000000 0.000000 0.156135
#
#
# Mechanical properties :
#
#
# Convention : Reuss Voigt Hill
#
# Bulk Modulus (GPa) = 15.18524 28.07056 21.62790
# Shear Modulus (GPa) = 11.97909 23.33582 17.65746
#
# Velocity S-wave (km/s) = 2.45356 3.42449 2.97885
# Velocity P-wave (km/s) = 3.95699 5.45369 4.76447
#
# Compressibility (1/GPa) = 0.06585342
#
# Stress axis : x y z
#
# Youngs Moduli (GPa) = 11.89692 68.63657 41.27107
#
# Poissons Ratio (x) = 1.38945 0.33147
# Poissons Ratio (y) = 0.24084 0.00932
# Poissons Ratio (z) = 0.09555 0.01549
#
# Static dielectric constant tensor:
#      x y z
#    x 1.701650 0.000000 0.000000 
#    y 0.000000 1.667690 0.000000 
#    z 0.000000 0.000000 1.685400 
# 
# From -- ./inp_files/55043.got.cif
#   From: 2010.05.17/outbox.cif.g08.bks.cpg/sg74_28_cif.got.tgz:55043.got - 2010.06.03 17:57:02.
