data_PCOD9539704
_publ_section_title
;
Structure prediction by ZEFSAII (Michael W. Deem and Ramdas Pophale) SiO2 
 PCOD9539704
Probable space group: I M M A
;
_chemical_formula_sum "Si O2"
_cell_formula_units_Z 72
_cell_length_a 10.526627
_cell_length_b 16.225908
_cell_length_c 25.124245
_cell_angle_alpha 90.000000
_cell_angle_beta 90.000000
_cell_angle_gamma 90.000000
_cell_volume 4291.323584
_symmetry_space_group_name_H-M "I M M A"
_symmetry_group_IT_number 74
_symmetry_cell_setting 'orthorhombic'
loop_
_space_group_symop_operation_xyz
x,y,z
-x,1/2-y,z
x,-y,-z
-x,1/2+y,-z
-x,-y,-z
x,1/2+y,-z
-x,y,z
x,1/2-y,z
1/2+x,1/2+y,1/2+z
1/2-x,-y,1/2+z
1/2+x,1/2-y,1/2-z
1/2-x,y,1/2-z
1/2-x,1/2-y,1/2-z
1/2+x,y,1/2-z
1/2-x,1/2+y,1/2+z
1/2+x,-y,1/2+z
loop_
_atom_site_type_symbol
_atom_site_label
_atom_site_fract_x
_atom_site_fract_y
_atom_site_fract_z
Si Si1 0.500000 0.848082 0.786409
Si Si2 0.785505 0.970286 0.442519
Si Si3 0.750000 0.552175 0.750000
Si Si4 0.500000 0.901855 0.908857
Si Si5 0.149245 0.750000 0.202832
Si Si6 0.500000 0.657438 0.025857
Si Si7 0.353034 0.431842 0.661075
O O1 0.500000 0.750000 0.775629
O O2 0.373924 0.892049 0.762422
O O3 0.500000 0.862181 0.850650
O O4 0.877819 0.892999 0.454056
O O5 0.680064 0.950496 0.399645
O O6 0.738138 0.000000 0.500000
O O7 0.877391 0.039939 0.417412
O O8 0.725850 0.491179 0.700111
O O9 0.500000 0.844884 0.961388
O O10 0.250000 0.750000 0.250000
O O11 0.170933 0.664804 0.171680
O O12 0.000000 0.750000 0.220020
O O13 0.500000 0.750000 0.045533
O O14 0.500000 0.447810 0.672878
#
# Coordination Sequence:
#
# PCOD9539704 Si02
#       7
#     8  16   8   8   8   8  16
#     4  12  24  39  60  89 114 147 195 243 286 343
#     4   9  19  35  56  82 110 144 193 230 278 354
#     4  12  23  39  62  84 114 158 192 233 297 346
#     4   9  17  35  58  80 111 144 180 230 289 335
#     4  10  22  38  56  88 122 154 192 241 284 341
#     4   9  18  32  53  86 113 140 179 238 287 334
#     4  11  22  38  59  83 117 154 193 236 287 352
#
# _framework density 16.778040000000001
#
# number of rings (size 3 to 8) (size 9 to 14) (size 15 to 20)
#    0.000    1.778    4.444    2.000    1.556    0.444 
#    4.000    0.000    0.000    0.000    0.000    0.000 
#    0.000    0.000    0.000    0.000    0.000    0.000 
#
# Total GULP energy -200718.104854 kJ/mol
# GULP energy per Si atom -5575.502913 kJ/mol
# Density = 1.673985 g / cm^3
# Si number density = 16.778040 Si / 1000 Ang^3
#
#
#
# Elastic Constant Matrix: (Units=GPa)
#
#
# Indices 1 2 3 4 5 6 
#
# 1 60.3657 46.5084 29.3117 0.0000 0.0000 0.0000
# 2 46.5084 129.9838 41.6248 0.0000 0.0000 0.0000
# 3 29.3117 41.6248 93.3897 0.0000 0.0000 0.0000
# 4 0.0000 0.0000 0.0000 18.6678 0.0000 0.0000
# 5 0.0000 0.0000 0.0000 0.0000 28.0825 0.0000
# 6 0.0000 0.0000 0.0000 0.0000 0.0000 15.5753
#
#
#
# Elastic Compliance Matrix: (Units=1/GPa)
#
#
# Indices 1 2 3 4 5 6 
#
# 1 0.024314 -0.007297 -0.004379 0.000000 0.000000 0.000000
# 2 -0.007297 0.011164 -0.002686 0.000000 0.000000 0.000000
# 3 -0.004379 -0.002686 0.013279 0.000000 0.000000 0.000000
# 4 0.000000 0.000000 0.000000 0.053568 0.000000 0.000000
# 5 0.000000 0.000000 0.000000 0.000000 0.035609 0.000000
# 6 0.000000 0.000000 0.000000 0.000000 0.000000 0.064204
#
#
# Mechanical properties :
#
#
# Convention : Reuss Voigt Hill
#
# Bulk Modulus (GPa) = 49.91537 57.62544 53.77040
# Shear Modulus (GPa) = 21.04896 23.55139 22.30017
#
# Velocity S-wave (km/s) = 3.54581 3.75067 3.64968
# Velocity P-wave (km/s) = 6.82486 7.29226 7.06242
#
# Compressibility (1/GPa) = 0.02003391
#
# Stress axis : x y z
#
# Youngs Moduli (GPa) = 41.12828 89.57101 75.30572
#
# Poissons Ratio (x) = 0.65364 0.32975
# Poissons Ratio (y) = 0.30013 0.20225
# Poissons Ratio (z) = 0.18009 0.24056
#
# Static dielectric constant tensor:
#      x y z
#    x 1.550950 0.000000 0.000000 
#    y 0.000000 1.575000 0.000000 
#    z 0.000000 0.000000 1.549240 
# 
# From -- ./inp_files/63742.got.cif
#   From: 2010.05.17/outbox.cif.g08.bks.cpg/sg74_32_cif.got.tgz:63742.got - 2010.06.03 17:57:02.
