data_PCOD9539758
_publ_section_title
;
Structure prediction by ZEFSAII (Michael W. Deem and Ramdas Pophale) SiO2 
 PCOD9539758
Probable space group: I M M A
;
_chemical_formula_sum "Si O2"
_cell_formula_units_Z 104
_cell_length_a 22.448018
_cell_length_b 8.482474
_cell_length_c 27.744463
_cell_angle_alpha 90.000000
_cell_angle_beta 90.000000
_cell_angle_gamma 90.000000
_cell_volume 5282.954404
_symmetry_space_group_name_H-M "I M M A"
_symmetry_group_IT_number 74
_symmetry_cell_setting 'orthorhombic'
loop_
_space_group_symop_operation_xyz
x,y,z
-x,1/2-y,z
x,-y,-z
-x,1/2+y,-z
-x,-y,-z
x,1/2+y,-z
-x,y,z
x,1/2-y,z
1/2+x,1/2+y,1/2+z
1/2-x,-y,1/2+z
1/2+x,1/2-y,1/2-z
1/2-x,y,1/2-z
1/2-x,1/2-y,1/2-z
1/2+x,y,1/2-z
1/2-x,1/2+y,1/2+z
1/2+x,-y,1/2+z
loop_
_atom_site_type_symbol
_atom_site_label
_atom_site_fract_x
_atom_site_fract_y
_atom_site_fract_z
Si Si1 0.223587 0.061486 0.945621
Si Si2 0.389543 0.558516 0.614330
Si Si3 0.568961 0.938124 0.177132
Si Si4 0.681675 0.062147 0.122980
Si Si5 0.000000 0.560543 0.947109
Si Si6 0.396849 0.930913 0.718445
Si Si7 0.724215 0.075609 0.697404
O O1 0.223597 0.250000 0.946062
O O2 0.173351 0.003432 0.906876
O O3 0.287693 0.998912 0.926278
O O4 0.211370 0.000000 0.000000
O O5 0.384620 0.750000 0.616437
O O6 0.439454 0.506547 0.577267
O O7 0.417560 0.508746 0.666251
O O8 0.500000 0.986669 0.170138
O O9 0.572987 0.750000 0.172168
O O10 0.615097 0.013904 0.139158
O O11 0.587440 0.980832 0.232335
O O12 0.686718 0.250000 0.124704
O O13 0.723829 0.982745 0.163161
O O14 0.000000 0.750000 0.944341
O O15 0.000000 0.500000 0.000000
O O16 0.414645 0.750000 0.725480
O O17 0.326999 0.948074 0.705662
O O18 0.701473 0.250000 0.681782
O O19 0.750000 0.095112 0.750000
#
# Coordination Sequence:
#
# PCOD9539758 Si02
#       7
#    16  16  16  16   8  16  16
#     4  12  25  42  66  93 125 159 200 257 317 376
#     4  10  22  39  59  86 122 162 209 259 311 366
#     4  11  25  43  62  88 126 169 211 257 309 372
#     4  12  24  40  64  92 123 159 206 256 311 377
#     4  10  22  40  58  78 110 158 210 264 311 360
#     4  11  22  35  58  87 121 161 204 251 301 361
#     4  11  21  34  56  85 121 158 196 241 296 354
#
# _framework density 19.685955
#
# number of rings (size 3 to 8) (size 9 to 14) (size 15 to 20)
#    0.000    0.923    3.077    4.615    1.077    4.308 
#    0.000    0.000    0.000    0.462    0.000    0.000 
#    0.000    0.000    0.000    0.000    0.000    0.000 
#
# Total GULP energy -290067.485404 kJ/mol
# GULP energy per Si atom -5578.220873 kJ/mol
# Density = 1.964115 g / cm^3
# Si number density = 19.685955 Si / 1000 Ang^3
#
#
#
# Elastic Constant Matrix: (Units=GPa)
#
#
# Indices 1 2 3 4 5 6 
#
# 1 101.9700 16.0104 23.7145 0.0000 0.0000 0.0000
# 2 16.0104 72.9646 23.9782 0.0000 0.0000 0.0000
# 3 23.7145 23.9782 64.2623 0.0000 0.0000 0.0000
# 4 0.0000 0.0000 0.0000 55.5983 0.0000 0.0000
# 5 0.0000 0.0000 0.0000 0.0000 35.9618 0.0000
# 6 0.0000 0.0000 0.0000 0.0000 0.0000 23.6073
#
#
#
# Elastic Compliance Matrix: (Units=1/GPa)
#
#
# Indices 1 2 3 4 5 6 
#
# 1 0.010820 -0.001211 -0.003541 0.000000 0.000000 0.000000
# 2 -0.001211 0.015756 -0.005432 0.000000 0.000000 0.000000
# 3 -0.003541 -0.005432 0.018895 0.000000 0.000000 0.000000
# 4 0.000000 0.000000 0.000000 0.017986 0.000000 0.000000
# 5 0.000000 0.000000 0.000000 0.000000 0.027807 0.000000
# 6 0.000000 0.000000 0.000000 0.000000 0.000000 0.042360
#
#
# Mechanical properties :
#
#
# Convention : Reuss Voigt Hill
#
# Bulk Modulus (GPa) = 39.83562 40.73367 40.28464
# Shear Modulus (GPa) = 30.79555 34.73308 32.76432
#
# Velocity S-wave (km/s) = 3.95947 4.20498 4.08407
# Velocity P-wave (km/s) = 6.41737 6.65676 6.53816
#
# Compressibility (1/GPa) = 0.02510316
#
# Stress axis : x y z
#
# Youngs Moduli (GPa) = 92.41751 63.46738 52.92385
#
# Poissons Ratio (x) = 0.07683 0.18742
# Poissons Ratio (y) = 0.11187 0.28750
# Poissons Ratio (z) = 0.32728 0.34478
#
# Static dielectric constant tensor:
#      x y z
#    x 1.676670 0.000000 0.000000 
#    y 0.000000 1.841060 0.000000 
#    z 0.000000 0.000000 1.305560 
# 
# From -- ./inp_files/73369.got.cif
#   From: 2010.05.17/outbox.cif.g08.bks.cpg/sg74_37_cif.got.tgz:73369.got - 2010.06.03 17:57:02.
