data_PCOD9539917
_publ_section_title
;
Structure prediction by ZEFSAII (Michael W. Deem and Ramdas Pophale) SiO2 
 PCOD9539917
Probable space group: I M M A
;
_chemical_formula_sum "Si O2"
_cell_formula_units_Z 96
_cell_length_a 17.251097
_cell_length_b 27.795285
_cell_length_c 9.874571
_cell_angle_alpha 90.000000
_cell_angle_beta 90.000000
_cell_angle_gamma 90.000000
_cell_volume 4734.848477
_symmetry_space_group_name_H-M "I M M A"
_symmetry_group_IT_number 74
_symmetry_cell_setting 'orthorhombic'
loop_
_space_group_symop_operation_xyz
x,y,z
-x,1/2-y,z
x,-y,-z
-x,1/2+y,-z
-x,-y,-z
x,1/2+y,-z
-x,y,z
x,1/2-y,z
1/2+x,1/2+y,1/2+z
1/2-x,-y,1/2+z
1/2+x,1/2-y,1/2-z
1/2-x,y,1/2-z
1/2-x,1/2-y,1/2-z
1/2+x,y,1/2-z
1/2-x,1/2+y,1/2+z
1/2+x,-y,1/2+z
loop_
_atom_site_type_symbol
_atom_site_label
_atom_site_fract_x
_atom_site_fract_y
_atom_site_fract_z
Si Si1 0.908582 0.123829 0.740743
Si Si2 0.813286 0.192262 0.558211
Si Si3 0.407779 0.019780 0.856563
Si Si4 0.815058 0.471302 0.140026
Si Si5 0.337649 0.632154 0.524784
Si Si6 0.155340 0.304757 0.262092
O O1 0.860621 0.167985 0.678544
O O2 0.879093 0.073822 0.674458
O O3 0.892736 0.119794 0.900328
O O4 0.000000 0.129561 0.715033
O O5 0.801978 0.250000 0.571822
O O6 0.732184 0.164495 0.536448
O O7 0.860308 0.183382 0.417974
O O8 0.500000 0.023730 0.869331
O O9 0.389759 0.985368 0.729370
O O10 0.376732 0.000000 0.000000
O O11 0.750000 0.484876 0.250000
O O12 0.813091 0.500000 0.000000
O O13 0.807300 0.416033 0.096711
O O14 0.377128 0.661820 0.645670
O O15 0.133070 0.250000 0.236428
O O16 0.250000 0.307451 0.250000
#
# Coordination Sequence:
#
# PCOD9539917 Si02
#       6
#    16  16  16  16  16  16
#     4  11  25  42  61  90 126 165 211 264 315 373
#     4  10  22  41  66  92 124 165 210 258 316 386
#     4  10  24  45  65  87 126 177 220 258 315 388
#     4  12  25  38  62  96 130 164 206 270 321 373
#     4  11  22  38  63  93 124 161 206 258 317 385
#     4   8  16  34  60  88 116 150 199 254 301 364
#
# _framework density 20.275199000000001
#
# number of rings (size 3 to 8) (size 9 to 14) (size 15 to 20)
#    0.000    1.667    1.667    4.000    7.000    3.333 
#    0.000    0.833    0.000    1.000    0.000    0.000 
#    0.000    0.000    0.000    0.000    0.000    0.000 
#
# Total GULP energy -267903.976748 kJ/mol
# GULP energy per Si atom -5581.332849 kJ/mol
# Density = 2.022905 g / cm^3
# Si number density = 20.275199 Si / 1000 Ang^3
#
#
#
# Elastic Constant Matrix: (Units=GPa)
#
#
# Indices 1 2 3 4 5 6 
#
# 1 19.2242 18.7599 8.2639 -0.0002 0.0000 -0.0001
# 2 18.7599 102.0683 53.7029 0.0002 0.0000 0.0001
# 3 8.2639 53.7029 144.2764 0.0030 -0.0003 0.0004
# 4 -0.0002 0.0002 0.0030 36.5709 0.0000 0.0002
# 5 0.0000 0.0000 -0.0003 0.0000 25.6158 0.0000
# 6 -0.0001 0.0001 0.0004 0.0002 0.0000 11.9299
#
#
#
# Elastic Compliance Matrix: (Units=1/GPa)
#
#
# Indices 1 2 3 4 5 6 
#
# 1 0.063476 -0.012129 0.000879 0.000000 0.000000 0.000000
# 2 -0.012129 0.014501 -0.004703 0.000000 0.000000 0.000000
# 3 0.000879 -0.004703 0.008631 -0.000001 0.000000 0.000000
# 4 0.000000 0.000000 -0.000001 0.027344 0.000000 0.000000
# 5 0.000000 0.000000 0.000000 0.000000 0.039038 0.000000
# 6 0.000000 0.000000 0.000000 0.000000 0.000000 0.083823
#
#
# Mechanical properties :
#
#
# Convention : Reuss Voigt Hill
#
# Bulk Modulus (GPa) = 18.28081 47.44694 32.86387
# Shear Modulus (GPa) = 17.42438 27.14612 22.28525
#
# Velocity S-wave (km/s) = 2.93472 3.66304 3.31892
# Velocity P-wave (km/s) = 4.52983 6.42984 5.56157
#
# Compressibility (1/GPa) = 0.05470218
#
# Stress axis : x y z
#
# Youngs Moduli (GPa) = 15.75396 68.96027 115.85720
#
# Poissons Ratio (x) = 0.83643 -0.10183
# Poissons Ratio (y) = 0.19108 0.54486
# Poissons Ratio (z) = -0.01385 0.32431
#
# Static dielectric constant tensor:
#      x y z
#    x 1.755160 0.000000 0.000000 
#    y 0.000000 1.721570 0.000000 
#    z 0.000000 0.000000 1.744690 
# 
# From -- ./inp_files/12704.got.cif
#   From: 2010.05.17/outbox.cif.g08.bks.cpg/sg74_7_cif.got.tgz:12704.got - 2010.06.03 17:57:02.
