data_PCOD9539989
_publ_section_title
;
Structure prediction by ZEFSAII (Michael W. Deem and Ramdas Pophale) SiO2 
 PCOD9539989
Probable space group: I M M A
;
_chemical_formula_sum "Si O2"
_cell_formula_units_Z 88
_cell_length_a 16.078072
_cell_length_b 14.169773
_cell_length_c 22.399013
_cell_angle_alpha 90.000000
_cell_angle_beta 90.000000
_cell_angle_gamma 90.000000
_cell_volume 5103.002063
_symmetry_space_group_name_H-M "I M M A"
_symmetry_group_IT_number 74
_symmetry_cell_setting 'orthorhombic'
loop_
_space_group_symop_operation_xyz
x,y,z
-x,1/2-y,z
x,-y,-z
-x,1/2+y,-z
-x,-y,-z
x,1/2+y,-z
-x,y,z
x,1/2-y,z
1/2+x,1/2+y,1/2+z
1/2-x,-y,1/2+z
1/2+x,1/2-y,1/2-z
1/2-x,y,1/2-z
1/2-x,1/2-y,1/2-z
1/2+x,y,1/2-z
1/2-x,1/2+y,1/2+z
1/2+x,-y,1/2+z
loop_
_atom_site_type_symbol
_atom_site_label
_atom_site_fract_x
_atom_site_fract_y
_atom_site_fract_z
Si Si1 0.304166 0.500000 0.000000
Si Si2 0.409290 0.137288 0.312288
Si Si3 0.403225 0.140580 0.912405
Si Si4 0.263342 0.358135 0.820507
Si Si5 0.739234 0.951742 0.618380
Si Si6 0.904858 0.364039 0.326535
O O1 0.359283 0.571626 0.039902
O O2 0.246369 0.447562 0.047586
O O3 0.500000 0.101499 0.332307
O O4 0.412763 0.250000 0.310955
O O5 0.332991 0.108493 0.352616
O O6 0.397302 0.108872 0.243194
O O7 0.500000 0.117408 0.906963
O O8 0.395507 0.250000 0.932437
O O9 0.356762 0.136119 0.848151
O O10 0.235141 0.250000 0.831835
O O11 0.250000 0.375672 0.750000
O O12 0.221965 0.441989 0.858036
O O13 0.829848 0.915784 0.640526
O O14 0.895390 0.250000 0.331717
O O15 0.000000 0.386338 0.346155
#
# Coordination Sequence:
#
# PCOD9539989 Si02
#       6
#     8  16  16  16  16  16
#     4  10  23  34  45  70 100 132 174 212 234 280
#     4   9  18  33  54  81 106 125 155 202 254 311
#     4   9  18  33  51  71  99 133 165 202 248 294
#     4   9  18  32  49  69  93 124 167 215 254 289
#     4  11  20  33  51  71  99 140 173 201 248 295
#     4   9  18  31  50  81 113 132 153 193 247 311
#
# _framework density 17.244751999999998
#
# number of rings (size 3 to 8) (size 9 to 14) (size 15 to 20)
#    0.000    2.545    0.000    3.545    0.000    6.545 
#    0.000    3.182    0.000    1.636    0.000    0.000 
#    0.000    0.000    0.000    0.000    0.000    0.000 
#
# Total GULP energy -245016.379899 kJ/mol
# GULP energy per Si atom -5568.554089 kJ/mol
# Density = 1.720550 g / cm^3
# Si number density = 17.244752 Si / 1000 Ang^3
#
#
#
# Elastic Constant Matrix: (Units=GPa)
#
#
# Indices 1 2 3 4 5 6 
#
# 1 72.3708 19.1100 56.3253 0.0000 0.0000 0.0000
# 2 19.1100 42.7673 30.7386 0.0000 0.0000 0.0000
# 3 56.3253 30.7386 102.6237 0.0000 0.0000 0.0000
# 4 0.0000 0.0000 0.0000 21.8253 0.0000 0.0000
# 5 0.0000 0.0000 0.0000 0.0000 5.4669 0.0000
# 6 0.0000 0.0000 0.0000 0.0000 0.0000 3.1150
#
#
#
# Elastic Compliance Matrix: (Units=1/GPa)
#
#
# Indices 1 2 3 4 5 6 
#
# 1 0.024209 -0.001615 -0.012803 0.000000 0.000000 0.000000
# 2 -0.001615 0.029905 -0.008071 0.000000 0.000000 0.000000
# 3 -0.012803 -0.008071 0.019189 0.000000 0.000000 0.000000
# 4 0.000000 0.000000 0.000000 0.045818 0.000000 0.000000
# 5 0.000000 0.000000 0.000000 0.000000 0.182918 0.000000
# 6 0.000000 0.000000 0.000000 0.000000 0.000000 0.321024
#
#
# Mechanical properties :
#
#
# Convention : Reuss Voigt Hill
#
# Bulk Modulus (GPa) = 35.30572 47.78996 41.54784
# Shear Modulus (GPa) = 7.38025 13.52064 10.45045
#
# Velocity S-wave (km/s) = 2.07099 2.80312 2.46439
# Velocity P-wave (km/s) = 5.12215 6.18462 5.67829
#
# Compressibility (1/GPa) = 0.02832403
#
# Stress axis : x y z
#
# Youngs Moduli (GPa) = 41.30711 33.43934 52.11335
#
# Poissons Ratio (x) = 0.05401 0.66723
# Poissons Ratio (y) = 0.06672 0.42060
# Poissons Ratio (z) = 0.52887 0.26988
#
# Static dielectric constant tensor:
#      x y z
#    x 1.580960 0.000000 0.000000 
#    y 0.000000 1.627940 0.000000 
#    z 0.000000 0.000000 1.578710 
# 
# From -- ./inp_files/51728.got.cif
#   From: 2010.05.17/outbox.cif.g08.bks.cpg/sg74_26_cif.got.tgz:51728.got - 2010.06.03 17:57:02.
