data_PCOD9539218
_publ_section_title
;
Structure prediction by ZEFSAII (Michael W. Deem and Ramdas Pophale) SiO2 
 PCOD9539218
Probable space group: I M M A
;
_chemical_formula_sum "Si O2"
_cell_formula_units_Z 64
_cell_length_a 10.352705
_cell_length_b 25.029325
_cell_length_c 13.415734
_cell_angle_alpha 90.000000
_cell_angle_beta 90.000000
_cell_angle_gamma 90.000000
_cell_volume 3476.301335
_symmetry_space_group_name_H-M "I M M A"
_symmetry_group_IT_number 74
_symmetry_cell_setting 'orthorhombic'
loop_
_space_group_symop_operation_xyz
x,y,z
-x,1/2-y,z
x,-y,-z
-x,1/2+y,-z
-x,-y,-z
x,1/2+y,-z
-x,y,z
x,1/2-y,z
1/2+x,1/2+y,1/2+z
1/2-x,-y,1/2+z
1/2+x,1/2-y,1/2-z
1/2-x,y,1/2-z
1/2-x,1/2-y,1/2-z
1/2+x,y,1/2-z
1/2-x,1/2+y,1/2+z
1/2+x,-y,1/2+z
loop_
_atom_site_type_symbol
_atom_site_label
_atom_site_fract_x
_atom_site_fract_y
_atom_site_fract_z
Si Si1 0.143155 0.020660 0.613799
Si Si2 0.651078 0.599296 0.832797
Si Si3 0.000000 0.313312 0.896246
Si Si4 0.738796 0.873031 0.057698
Si Si5 0.500000 0.187127 0.842516
O O1 0.242421 0.069503 0.614814
O O2 0.000000 0.043054 0.636133
O O3 0.141506 0.000000 0.500000
O O4 0.158350 0.965566 0.671938
O O5 0.500000 0.613723 0.818183
O O6 0.750000 0.620817 0.750000
O O7 0.695295 0.616072 0.943710
O O8 0.872866 0.342261 0.937259
O O9 0.000000 0.250000 0.918690
O O10 0.000000 0.319470 0.776506
O O11 0.627352 0.838988 0.110645
O O12 0.500000 0.250000 0.864367
#
# Coordination Sequence:
#
# PCOD9539218 Si02
#       5
#    16  16   8  16   8
#     4   8  15  33  56  82 115 152 192 230 274 338
#     4  10  21  37  61  91 124 161 197 236 286 351
#     4  11  26  40  58  91 121 145 194 262 308 349
#     4  11  20  40  62  86 120 162 193 241 301 353
#     4  11  22  40  64  85 109 149 204 248 304 365
#
# _framework density 18.410371999999999
#
# number of rings (size 3 to 8) (size 9 to 14) (size 15 to 20)
#    0.000    2.000    2.500    3.000    1.750    4.000 
#    2.250    1.875    0.000    4.500    0.000    0.000 
#    0.000    0.000    0.000    0.000    0.000    0.000 
#
# Total GULP energy -178429.139894 kJ/mol
# GULP energy per Si atom -5575.910622 kJ/mol
# Density = 1.836847 g / cm^3
# Si number density = 18.410372 Si / 1000 Ang^3
#
#
#
# Elastic Constant Matrix: (Units=GPa)
#
#
# Indices 1 2 3 4 5 6 
#
# 1 165.6790 66.0101 44.5412 0.0000 0.0000 0.0000
# 2 66.0101 96.5007 23.6097 0.0000 0.0000 0.0000
# 3 44.5412 23.6097 54.2703 0.0000 0.0000 0.0000
# 4 0.0000 0.0000 0.0000 21.8727 0.0000 0.0000
# 5 0.0000 0.0000 0.0000 0.0000 32.0684 0.0000
# 6 0.0000 0.0000 0.0000 0.0000 0.0000 24.0197
#
#
#
# Elastic Compliance Matrix: (Units=1/GPa)
#
#
# Indices 1 2 3 4 5 6 
#
# 1 0.009624 -0.005205 -0.005635 0.000000 0.000000 0.000000
# 2 -0.005205 0.014412 -0.001998 0.000000 0.000000 0.000000
# 3 -0.005635 -0.001998 0.023920 0.000000 0.000000 0.000000
# 4 0.000000 0.000000 0.000000 0.045719 0.000000 0.000000
# 5 0.000000 0.000000 0.000000 0.000000 0.031183 0.000000
# 6 0.000000 0.000000 0.000000 0.000000 0.000000 0.041633
#
#
# Mechanical properties :
#
#
# Convention : Reuss Voigt Hill
#
# Bulk Modulus (GPa) = 44.88083 64.97467 54.92775
# Shear Modulus (GPa) = 25.05099 27.74474 26.39786
#
# Velocity S-wave (km/s) = 3.69277 3.88624 3.79074
# Velocity P-wave (km/s) = 6.52786 7.45025 7.00426
#
# Compressibility (1/GPa) = 0.02228123
#
# Stress axis : x y z
#
# Youngs Moduli (GPa) = 103.90369 69.38804 41.80608
#
# Poissons Ratio (x) = 0.36115 0.23556
# Poissons Ratio (y) = 0.54080 0.08352
# Poissons Ratio (z) = 0.58546 0.13863
#
# Static dielectric constant tensor:
#      x y z
#    x 1.628280 0.000000 0.000000 
#    y 0.000000 1.640700 0.000000 
#    z 0.000000 0.000000 1.642220 
# 
# From -- ./inp_files/28878.got.cif
#   From: 2010.05.17/outbox.cif.g08.bks.cpg/sg74_15_cif.got.tgz:28878.got - 2010.06.03 17:57:02.
