data_PCOD9539910
_publ_section_title
;
Structure prediction by ZEFSAII (Michael W. Deem and Ramdas Pophale) SiO2 
 PCOD9539910
Probable space group: I M M A
;
_chemical_formula_sum "Si O2"
_cell_formula_units_Z 44
_cell_length_a 22.613749
_cell_length_b 9.567500
_cell_length_c 10.584184
_cell_angle_alpha 90.000000
_cell_angle_beta 90.000000
_cell_angle_gamma 90.000000
_cell_volume 2289.962759
_symmetry_space_group_name_H-M "I M M A"
_symmetry_group_IT_number 74
_symmetry_cell_setting 'orthorhombic'
loop_
_space_group_symop_operation_xyz
x,y,z
-x,1/2-y,z
x,-y,-z
-x,1/2+y,-z
-x,-y,-z
x,1/2+y,-z
-x,y,z
x,1/2-y,z
1/2+x,1/2+y,1/2+z
1/2-x,-y,1/2+z
1/2+x,1/2-y,1/2-z
1/2-x,y,1/2-z
1/2-x,1/2-y,1/2-z
1/2+x,y,1/2-z
1/2-x,1/2+y,1/2+z
1/2+x,-y,1/2+z
loop_
_atom_site_type_symbol
_atom_site_label
_atom_site_fract_x
_atom_site_fract_y
_atom_site_fract_z
Si Si1 0.500000 0.750000 0.319807
Si Si2 0.000000 0.974261 0.651162
Si Si3 0.796202 0.500000 0.000000
Si Si4 0.622421 0.250000 0.530443
Si Si5 0.096688 0.250000 0.272748
Si Si6 0.722417 0.250000 0.114410
O O1 0.500000 0.616556 0.228981
O O2 0.558208 0.750000 0.407399
O O3 0.943485 0.883569 0.694805
O O4 0.000000 0.000000 0.500000
O O5 0.841390 0.609269 0.068387
O O6 0.750665 0.611427 0.943168
O O7 0.616079 0.250000 0.375852
O O8 0.152728 0.250000 0.365626
O O9 0.750000 0.250000 0.250000
#
# Coordination Sequence:
#
# PCOD9539910 Si02
#       6
#     4   8   8   8   8   8
#     4  12  24  38  72  98 120 166 218 272 330 366
#     4  11  26  45  62  97 132 171 216 272 316 404
#     4  10  22  41  64  99 134 162 218 270 322 396
#     4  11  22  42  67 103 128 165 224 278 319 389
#     4  11  23  44  68  86 136 179 211 263 342 379
#     4  11  23  43  66  95 132 177 210 271 336 389
#
# _framework density 19.214288
#
# number of rings (size 3 to 8) (size 9 to 14) (size 15 to 20)
#    0.000    1.091    3.636    4.364    2.545    2.182 
#    0.000    3.636    0.000    0.000    0.000    0.000 
#    0.000    0.000    0.000    0.000    0.000    0.000 
#
# Total GULP energy -122569.379152 kJ/mol
# GULP energy per Si atom -5571.335416 kJ/mol
# Density = 1.917055 g / cm^3
# Si number density = 19.214288 Si / 1000 Ang^3
#
#
#
# Elastic Constant Matrix: (Units=GPa)
#
#
# Indices 1 2 3 4 5 6 
#
# 1 194.7053 93.1538 46.9519 0.0000 0.0000 0.0000
# 2 93.1538 208.2961 57.9904 0.0000 0.0000 0.0000
# 3 46.9519 57.9904 91.0692 0.0000 0.0000 0.0000
# 4 0.0000 0.0000 0.0000 -2.4702 0.0000 0.0000
# 5 0.0000 0.0000 0.0000 0.0000 33.0413 0.0000
# 6 0.0000 0.0000 0.0000 0.0000 0.0000 34.1161
#
#
#
# Elastic Compliance Matrix: (Units=1/GPa)
#
#
# Indices 1 2 3 4 5 6 
#
# 1 0.006796 -0.002508 -0.001906 0.000000 0.000000 0.000000
# 2 -0.002508 0.006761 -0.003012 0.000000 0.000000 0.000000
# 3 -0.001906 -0.003012 0.013882 0.000000 0.000000 0.000000
# 4 0.000000 0.000000 0.000000 -0.404828 0.000000 0.000000
# 5 0.000000 0.000000 0.000000 0.000000 0.030265 0.000000
# 6 0.000000 0.000000 0.000000 0.000000 0.000000 0.029312
#
#
# Mechanical properties :
#
#
# Convention : Reuss Voigt Hill
#
# Bulk Modulus (GPa) = 79.46123 98.91809 89.18966
# Shear Modulus (GPa) = -16.73563 32.66908 7.96672
#
# Velocity S-wave (km/s) = -2.95447 4.12788 2.03844
# Velocity P-wave (km/s) = 5.45954 8.62047 7.21523
#
# Compressibility (1/GPa) = 0.01258475
#
# Stress axis : x y z
#
# Youngs Moduli (GPa) = 147.14947 147.90100 72.03813
#
# Poissons Ratio (x) = 0.37101 0.13733
# Poissons Ratio (y) = 0.36912 0.21699
# Poissons Ratio (z) = 0.28052 0.44550
#
# Static dielectric constant tensor:
#      x y z
#    x 1.821350 0.000000 0.000000 
#    y 0.000000 1.652530 0.000000 
#    z 0.000000 0.000000 1.643830 
# 
# From -- ./inp_files/17046.got.cif
#   From: 2010.05.17/outbox.cif.g08.bks.cpg/sg74_9_cif.got.tgz:17046.got - 2010.06.03 17:57:02.
