data_PCOD9539767
_publ_section_title
;
Structure prediction by ZEFSAII (Michael W. Deem and Ramdas Pophale) SiO2 
 PCOD9539767
Probable space group: I M M A
;
_chemical_formula_sum "Si O2"
_cell_formula_units_Z 72
_cell_length_a 16.667782
_cell_length_b 8.500298
_cell_length_c 26.390597
_cell_angle_alpha 90.000000
_cell_angle_beta 90.000000
_cell_angle_gamma 90.000000
_cell_volume 3739.049182
_symmetry_space_group_name_H-M "I M M A"
_symmetry_group_IT_number 74
_symmetry_cell_setting 'orthorhombic'
loop_
_space_group_symop_operation_xyz
x,y,z
-x,1/2-y,z
x,-y,-z
-x,1/2+y,-z
-x,-y,-z
x,1/2+y,-z
-x,y,z
x,1/2-y,z
1/2+x,1/2+y,1/2+z
1/2-x,-y,1/2+z
1/2+x,1/2-y,1/2-z
1/2-x,y,1/2-z
1/2-x,1/2-y,1/2-z
1/2+x,y,1/2-z
1/2-x,1/2+y,1/2+z
1/2+x,-y,1/2+z
loop_
_atom_site_type_symbol
_atom_site_label
_atom_site_fract_x
_atom_site_fract_y
_atom_site_fract_z
Si Si1 0.596511 0.250000 0.701203
Si Si2 0.000000 0.565877 0.443382
Si Si3 0.402283 0.565916 0.760071
Si Si4 0.093860 0.250000 0.918703
Si Si5 0.857838 0.065589 0.375083
Si Si6 0.263035 0.072313 0.554046
O O1 0.500000 0.250000 0.708405
O O2 0.624142 0.417700 0.725137
O O3 0.611255 0.250000 0.641296
O O4 0.000000 0.500000 0.500000
O O5 0.923177 0.514219 0.411023
O O6 0.000000 0.750000 0.448031
O O7 0.500000 0.566577 0.761458
O O8 0.378937 0.750000 0.747345
O O9 0.370372 0.526364 0.816329
O O10 0.141634 0.100893 0.941317
O O11 0.000000 0.250000 0.927742
O O12 0.871746 0.250000 0.378973
O O13 0.772605 0.022483 0.399221
O O14 0.229457 0.250000 0.556829
O O15 0.241929 0.000000 0.500000
#
# Coordination Sequence:
#
# PCOD9539767 Si02
#       6
#     8   8  16   8  16  16
#     4   9  18  35  63  89 122 157 203 260 322 365
#     4  12  24  34  52  80 122 170 222 258 284 341
#     4   9  18  32  55  88 125 168 212 250 291 354
#     4   9  22  43  67  92 114 149 202 263 324 399
#     4  11  21  36  56  84 126 166 212 248 294 353
#     4  10  22  39  61  85 117 155 196 249 320 369
#
# _framework density 19.256232000000001
#
# number of rings (size 3 to 8) (size 9 to 14) (size 15 to 20)
#    0.667    1.333    1.111    3.000    3.111    0.444 
#    0.000    4.444    0.000    5.333    0.000    0.000 
#    0.000    0.000    0.000    0.000    0.000    0.000 
#
# Total GULP energy -200596.217283 kJ/mol
# GULP energy per Si atom -5572.117147 kJ/mol
# Density = 1.921240 g / cm^3
# Si number density = 19.256232 Si / 1000 Ang^3
#
#
#
# Elastic Constant Matrix: (Units=GPa)
#
#
# Indices 1 2 3 4 5 6 
#
# 1 40.9139 -14.0223 -15.2260 0.0000 0.0000 0.0000
# 2 -14.0223 63.5157 30.4337 0.0000 0.0000 0.0000
# 3 -15.2260 30.4337 33.3367 0.0000 0.0000 0.0000
# 4 0.0000 0.0000 0.0000 13.0774 0.0000 0.0000
# 5 0.0000 0.0000 0.0000 0.0000 14.1441 0.0000
# 6 0.0000 0.0000 0.0000 0.0000 0.0000 18.2429
#
#
#
# Elastic Compliance Matrix: (Units=1/GPa)
#
#
# Indices 1 2 3 4 5 6 
#
# 1 0.029447 0.000101 0.013358 0.000000 0.000000 0.000000
# 2 0.000101 0.027986 -0.025503 0.000000 0.000000 0.000000
# 3 0.013358 -0.025503 0.059380 0.000000 0.000000 0.000000
# 4 0.000000 0.000000 0.000000 0.076468 0.000000 0.000000
# 5 0.000000 0.000000 0.000000 0.000000 0.070701 0.000000
# 6 0.000000 0.000000 0.000000 0.000000 0.000000 0.054816
#
#
# Mechanical properties :
#
#
# Convention : Reuss Voigt Hill
#
# Bulk Modulus (GPa) = 10.78474 15.57079 13.17777
# Shear Modulus (GPa) = 13.37628 18.19828 15.78728
#
# Velocity S-wave (km/s) = 2.63847 3.07752 2.86641
# Velocity P-wave (km/s) = 3.85939 4.55322 4.22059
#
# Compressibility (1/GPa) = 0.09272360
#
# Stress axis : x y z
#
# Youngs Moduli (GPa) = 33.95924 35.73169 16.84058
#
# Poissons Ratio (x) = -0.00360 -0.22495
# Poissons Ratio (y) = -0.00342 0.42949
# Poissons Ratio (z) = -0.45361 0.91128
#
# Static dielectric constant tensor:
#      x y z
#    x 1.701340 0.000000 0.000000 
#    y 0.000000 1.609780 0.000000 
#    z 0.000000 0.000000 1.634300 
# 
# From -- ./inp_files/61308.got.cif
#   From: 2010.05.17/outbox.cif.g08.bks.cpg/sg74_31_cif.got.tgz:61308.got - 2010.06.03 17:57:02.
