data_PCOD9539606
_publ_section_title
;
Structure prediction by ZEFSAII (Michael W. Deem and Ramdas Pophale) SiO2 
 PCOD9539606
Probable space group: I M M A
;
_chemical_formula_sum "Si O2"
_cell_formula_units_Z 84
_cell_length_a 14.166118
_cell_length_b 21.212254
_cell_length_c 12.282853
_cell_angle_alpha 90.000000
_cell_angle_beta 90.000000
_cell_angle_gamma 90.000000
_cell_volume 3690.939514
_symmetry_space_group_name_H-M "I M M A"
_symmetry_group_IT_number 74
_symmetry_cell_setting 'orthorhombic'
loop_
_space_group_symop_operation_xyz
x,y,z
-x,1/2-y,z
x,-y,-z
-x,1/2+y,-z
-x,-y,-z
x,1/2+y,-z
-x,y,z
x,1/2-y,z
1/2+x,1/2+y,1/2+z
1/2-x,-y,1/2+z
1/2+x,1/2-y,1/2-z
1/2-x,y,1/2-z
1/2-x,1/2-y,1/2-z
1/2+x,y,1/2-z
1/2-x,1/2+y,1/2+z
1/2+x,-y,1/2+z
loop_
_atom_site_type_symbol
_atom_site_label
_atom_site_fract_x
_atom_site_fract_y
_atom_site_fract_z
Si Si1 0.641768 0.352582 0.759454
Si Si2 0.114199 0.676193 0.581118
Si Si3 0.000000 0.750000 0.338435
Si Si4 0.386039 0.320237 0.330994
Si Si5 0.186882 0.061314 0.561188
Si Si6 0.393191 0.594447 0.463356
O O1 0.750000 0.332510 0.750000
O O2 0.580875 0.304715 0.827849
O O3 0.643894 0.420211 0.821658
O O4 0.603333 0.356761 0.637297
O O5 0.133052 0.750000 0.555781
O O6 0.142915 0.665558 0.707317
O O7 0.164098 0.623552 0.509395
O O8 0.000000 0.669545 0.571746
O O9 0.500000 0.316321 0.326361
O O10 0.350762 0.250000 0.360577
O O11 0.367925 0.371119 0.423731
O O12 0.300742 0.054486 0.569461
O O13 0.148540 0.000000 0.500000
O O14 0.500000 0.568039 0.471632
#
# Coordination Sequence:
#
# PCOD9539606 Si02
#       6
#    16  16   4  16  16  16
#     4  10  24  42  65 104 137 173 225 277 338 415
#     4   9  20  40  65  97 134 170 216 271 326 397
#     4  12  22  40  74 102 136 184 208 278 354 394
#     4   8  16  33  61  96 129 162 205 259 326 393
#     4  11  26  45  64  93 133 179 225 279 332 400
#     4  10  21  42  67  94 129 167 221 277 332 399
#
# _framework density 22.758431999999999
#
# number of rings (size 3 to 8) (size 9 to 14) (size 15 to 20)
#    0.000    2.286    0.952    1.429    4.000    2.286 
#   10.286    1.905    0.000    0.000    0.000    0.000 
#    0.000    0.000    0.000    0.000    0.000    0.000 
#
# Total GULP energy -233945.282922 kJ/mol
# GULP energy per Si atom -5570.125784 kJ/mol
# Density = 2.270663 g / cm^3
# Si number density = 22.758432 Si / 1000 Ang^3
#
#
#
# Elastic Constant Matrix: (Units=GPa)
#
#
# Indices 1 2 3 4 5 6 
#
# 1 112.4699 28.0831 7.7861 0.0000 0.0000 0.0000
# 2 28.0831 77.2513 32.9494 0.0000 0.0000 0.0000
# 3 7.7861 32.9494 109.3893 -0.0001 0.0000 0.0001
# 4 0.0000 0.0000 -0.0001 3.1068 0.0000 0.0000
# 5 0.0000 0.0000 0.0000 0.0000 52.8601 0.0000
# 6 0.0000 0.0000 0.0001 0.0000 0.0000 12.2212
#
#
#
# Elastic Compliance Matrix: (Units=1/GPa)
#
#
# Indices 1 2 3 4 5 6 
#
# 1 0.009797 -0.003745 0.000431 0.000000 0.000000 0.000000
# 2 -0.003745 0.016285 -0.004639 0.000000 0.000000 0.000000
# 3 0.000431 -0.004639 0.010508 0.000000 0.000000 0.000000
# 4 0.000000 0.000000 0.000000 0.321874 0.000000 -0.000001
# 5 0.000000 0.000000 0.000000 0.000000 0.018918 0.000000
# 6 0.000000 0.000000 0.000000 -0.000001 0.000000 0.081825
#
#
# Mechanical properties :
#
#
# Convention : Reuss Voigt Hill
#
# Bulk Modulus (GPa) = 48.34732 48.52752 48.43742
# Shear Modulus (GPa) = 10.37329 28.99041 19.68185
#
# Velocity S-wave (km/s) = 2.13726 3.57295 2.94397
# Velocity P-wave (km/s) = 5.23262 6.19600 5.73458
#
# Compressibility (1/GPa) = 0.02068367
#
# Stress axis : x y z
#
# Youngs Moduli (GPa) = 102.07657 61.40750 95.16381
#
# Poissons Ratio (x) = 0.22997 -0.04099
# Poissons Ratio (y) = 0.38228 0.44142
# Poissons Ratio (z) = -0.04397 0.28484
#
# Static dielectric constant tensor:
#      x y z
#    x 1.885470 0.000000 0.000000 
#    y 0.000000 1.838510 0.000000 
#    z 0.000000 0.000000 1.920550 
# 
# From -- ./inp_files/20655.got.cif
#   From: 2010.05.17/outbox.cif.g08.bks.cpg/sg74_11_cif.got.tgz:20655.got - 2010.06.03 17:57:02.
