data_PCOD9539258
_publ_section_title
;
Structure prediction by ZEFSAII (Michael W. Deem and Ramdas Pophale) SiO2 
 PCOD9539258
Probable space group: I M M A
;
_chemical_formula_sum "Si O2"
_cell_formula_units_Z 88
_cell_length_a 28.342835
_cell_length_b 8.630804
_cell_length_c 19.963921
_cell_angle_alpha 90.000000
_cell_angle_beta 90.000000
_cell_angle_gamma 90.000000
_cell_volume 4883.603376
_symmetry_space_group_name_H-M "I M M A"
_symmetry_group_IT_number 74
_symmetry_cell_setting 'orthorhombic'
loop_
_space_group_symop_operation_xyz
x,y,z
-x,1/2-y,z
x,-y,-z
-x,1/2+y,-z
-x,-y,-z
x,1/2+y,-z
-x,y,z
x,1/2-y,z
1/2+x,1/2+y,1/2+z
1/2-x,-y,1/2+z
1/2+x,1/2-y,1/2-z
1/2-x,y,1/2-z
1/2-x,1/2-y,1/2-z
1/2+x,y,1/2-z
1/2-x,1/2+y,1/2+z
1/2+x,-y,1/2+z
loop_
_atom_site_type_symbol
_atom_site_label
_atom_site_fract_x
_atom_site_fract_y
_atom_site_fract_z
Si Si1 0.500000 0.934669 0.424908
Si Si2 0.288485 0.438103 0.839963
Si Si3 0.184164 0.562583 0.188838
Si Si4 0.916420 0.435603 0.166392
Si Si5 0.626002 0.064864 0.926826
Si Si6 0.445402 0.936476 0.817476
O O1 0.500000 0.750000 0.426737
O O2 0.500000 0.000000 0.500000
O O3 0.453810 0.992942 0.384889
O O4 0.288003 0.250000 0.839652
O O5 0.233943 0.486119 0.844083
O O6 0.309875 0.482639 0.767373
O O7 0.323376 0.490903 0.898090
O O8 0.180605 0.750000 0.186230
O O9 0.137395 0.490244 0.157714
O O10 0.919492 0.250000 0.161977
O O11 0.930794 0.482539 0.242199
O O12 0.626749 0.250000 0.929742
O O13 0.587521 0.012460 0.872802
O O14 0.616277 0.000000 0.000000
O O15 0.500000 0.976896 0.828129
O O16 0.440784 0.750000 0.821745
#
# Coordination Sequence:
#
# PCOD9539258 Si02
#       6
#     8  16  16  16  16  16
#     4  12  26  44  66  90 119 156 193 232 288 352
#     4   8  16  31  54  81 112 147 193 244 287 338
#     4   9  16  32  57  85 112 147 193 241 289 338
#     4  11  21  37  60  91 124 152 188 238 290 344
#     4  11  22  37  56  81 113 154 196 241 294 349
#     4  10  21  38  58  82 114 151 191 240 288 336
#
# _framework density 18.019480999999999
#
# number of rings (size 3 to 8) (size 9 to 14) (size 15 to 20)
#    0.000    2.000    2.727    3.000    0.000    1.455 
#    0.000    4.545    0.000    2.182    0.000    0.000 
#    0.000    0.000    0.000    0.000    0.000    0.000 
#
# Total GULP energy -245595.686538 kJ/mol
# GULP energy per Si atom -5581.720149 kJ/mol
# Density = 1.797847 g / cm^3
# Si number density = 18.019481 Si / 1000 Ang^3
#
#
#
# Elastic Constant Matrix: (Units=GPa)
#
#
# Indices 1 2 3 4 5 6 
#
# 1 163.8454 49.1706 82.3166 0.0000 0.0000 0.0000
# 2 49.1706 47.5446 44.6634 0.0000 0.0000 0.0000
# 3 82.3166 44.6634 131.1166 0.0000 0.0000 0.0000
# 4 0.0000 0.0000 0.0000 20.4107 0.0000 0.0000
# 5 0.0000 0.0000 0.0000 0.0000 24.2184 0.0000
# 6 0.0000 0.0000 0.0000 0.0000 0.0000 21.4562
#
#
#
# Elastic Compliance Matrix: (Units=1/GPa)
#
#
# Indices 1 2 3 4 5 6 
#
# 1 0.010167 -0.006645 -0.004120 0.000000 0.000000 0.000000
# 2 -0.006645 0.035274 -0.007844 0.000000 0.000000 0.000000
# 3 -0.004120 -0.007844 0.012885 0.000000 0.000000 0.000000
# 4 0.000000 0.000000 0.000000 0.048994 0.000000 0.000000
# 5 0.000000 0.000000 0.000000 0.000000 0.041291 0.000000
# 6 0.000000 0.000000 0.000000 0.000000 0.000000 0.046606
#
#
# Mechanical properties :
#
#
# Convention : Reuss Voigt Hill
#
# Bulk Modulus (GPa) = 47.37276 77.20086 62.28681
# Shear Modulus (GPa) = 20.87945 24.30746 22.59345
#
# Velocity S-wave (km/s) = 3.40768 3.67680 3.54479
# Velocity P-wave (km/s) = 6.46760 7.80776 7.16907
#
# Compressibility (1/GPa) = 0.02110918
#
# Stress axis : x y z
#
# Youngs Moduli (GPa) = 98.35572 28.34983 77.60983
#
# Poissons Ratio (x) = 0.18839 0.31972
# Poissons Ratio (y) = 0.65358 0.60875
# Poissons Ratio (z) = 0.40518 0.22237
#
# Static dielectric constant tensor:
#      x y z
#    x 1.621030 0.000000 0.000000 
#    y 0.000000 1.604950 0.000000 
#    z 0.000000 0.000000 1.593580 
# 
# From -- ./inp_files/55065.got.cif
#   From: 2010.05.17/outbox.cif.g08.bks.cpg/sg74_28_cif.got.tgz:55065.got - 2010.06.03 17:57:02.
