data_PCOD9539123
_publ_section_title
;
Structure prediction by ZEFSAII (Michael W. Deem and Ramdas Pophale) SiO2 
 PCOD9539123
Probable space group: I M M A
;
_chemical_formula_sum "Si O2"
_cell_formula_units_Z 120
_cell_length_a 9.542638
_cell_length_b 28.279778
_cell_length_c 23.924715
_cell_angle_alpha 90.000000
_cell_angle_beta 90.000000
_cell_angle_gamma 90.000000
_cell_volume 6456.411733
_symmetry_space_group_name_H-M "I M M A"
_symmetry_group_IT_number 74
_symmetry_cell_setting 'orthorhombic'
loop_
_space_group_symop_operation_xyz
x,y,z
-x,1/2-y,z
x,-y,-z
-x,1/2+y,-z
-x,-y,-z
x,1/2+y,-z
-x,y,z
x,1/2-y,z
1/2+x,1/2+y,1/2+z
1/2-x,-y,1/2+z
1/2+x,1/2-y,1/2-z
1/2-x,y,1/2-z
1/2-x,1/2-y,1/2-z
1/2+x,y,1/2-z
1/2-x,1/2+y,1/2+z
1/2+x,-y,1/2+z
loop_
_atom_site_type_symbol
_atom_site_label
_atom_site_fract_x
_atom_site_fract_y
_atom_site_fract_z
Si Si1 0.749041 0.063480 0.172500
Si Si2 0.500000 0.586136 0.740434
Si Si3 0.164326 0.304774 0.026843
Si Si4 0.331312 0.365376 0.805213
Si Si5 0.161082 0.193794 0.893465
Si Si6 0.156176 0.051868 0.972684
Si Si7 0.662012 0.044448 0.661029
Si Si8 0.334303 0.608013 0.943396
O O1 0.620424 0.072724 0.213077
O O2 0.708772 0.076084 0.109325
O O3 0.877565 0.094701 0.193428
O O4 0.801508 0.009207 0.176811
O O5 0.198002 0.250000 0.038181
O O6 0.181953 0.312362 0.959874
O O7 0.000000 0.312128 0.038982
O O8 0.260555 0.341174 0.059500
O O9 0.500000 0.363725 0.800596
O O10 0.250000 0.347266 0.750000
O O11 0.271665 0.335172 0.857193
O O12 0.272087 0.418464 0.814314
O O13 0.171032 0.250000 0.882014
O O14 0.000000 0.178587 0.880437
O O15 0.168783 0.048532 0.906198
O O16 0.000000 0.071303 0.985579
O O17 0.273126 0.083392 0.001264
O O18 0.163532 0.000000 0.000000
O O19 0.500000 0.054642 0.678160
O O20 0.500000 0.612491 0.945759
#
# Coordination Sequence:
#
# PCOD9539123 Si02
#       8
#    16   8  16  16  16  16  16  16
#     4  11  23  40  59  87 111 161 198 250 294 345
#     4  10  24  40  60  80 119 148 207 246 294 340
#     4   9  20  39  66  95 122 155 193 236 293 361
#     4  12  27  40  57  83 115 157 204 251 300 350
#     4   9  19  41  67  89 116 150 192 242 297 356
#     4  10  21  37  57  84 118 160 202 237 289 360
#     4  11  23  39  60  83 117 157 202 248 298 347
#     4  12  24  37  58  91 126 158 197 244 299 353
#
# _framework density 18.586175000000001
#
# number of rings (size 3 to 8) (size 9 to 14) (size 15 to 20)
#    0.000    1.467    2.667    3.200    4.667    5.333 
#    0.000    1.333    0.000    0.000    0.000    2.800 
#    0.000    0.000    0.000    0.000    0.000    0.000 
#
# Total GULP energy -334153.530049 kJ/mol
# GULP energy per Si atom -5569.225501 kJ/mol
# Density = 1.854387 g / cm^3
# Si number density = 18.586175 Si / 1000 Ang^3
#
#
#
# Elastic Constant Matrix: (Units=GPa)
#
#
# Indices 1 2 3 4 5 6 
#
# 1 150.8179 30.1199 22.5982 0.0000 0.0000 0.0000
# 2 30.1199 55.7032 0.9964 0.0000 0.0000 0.0000
# 3 22.5982 0.9964 29.9378 0.0000 0.0000 0.0000
# 4 0.0000 0.0000 0.0000 10.7905 0.0000 0.0000
# 5 0.0000 0.0000 0.0000 0.0000 31.3351 0.0000
# 6 0.0000 0.0000 0.0000 0.0000 0.0000 33.9192
#
#
#
# Elastic Compliance Matrix: (Units=1/GPa)
#
#
# Indices 1 2 3 4 5 6 
#
# 1 0.008455 -0.004461 -0.006234 0.000000 0.000000 0.000000
# 2 -0.004461 0.020316 0.002691 0.000000 0.000000 0.000000
# 3 -0.006234 0.002691 0.038019 0.000000 0.000000 0.000000
# 4 0.000000 0.000000 0.000000 0.092674 0.000000 0.000000
# 5 0.000000 0.000000 0.000000 0.000000 0.031913 0.000000
# 6 0.000000 0.000000 0.000000 0.000000 0.000000 0.029482
#
#
# Mechanical properties :
#
#
# Convention : Reuss Voigt Hill
#
# Bulk Modulus (GPa) = 19.69175 38.20977 28.95076
# Shear Modulus (GPa) = 19.70098 27.39192 23.54645
#
# Velocity S-wave (km/s) = 3.25927 3.84315 3.56319
# Velocity P-wave (km/s) = 4.97811 6.34790 5.70427
#
# Compressibility (1/GPa) = 0.05078270
#
# Stress axis : x y z
#
# Youngs Moduli (GPa) = 118.26738 49.22215 26.30288
#
# Poissons Ratio (x) = 0.21956 0.16397
# Poissons Ratio (y) = 0.52753 -0.07078
# Poissons Ratio (z) = 0.73728 -0.13245
#
# Static dielectric constant tensor:
#      x y z
#    x 1.611250 0.000000 0.000000 
#    y 0.000000 1.663090 0.000000 
#    z 0.000000 0.000000 1.661910 
# 
# From -- ./inp_files/65121.got.cif
#   From: 2010.05.17/outbox.cif.g08.bks.cpg/sg74_33_cif.got.tgz:65121.got - 2010.06.03 17:57:02.
