data_PCOD9539504
_publ_section_title
;
Structure prediction by ZEFSAII (Michael W. Deem and Ramdas Pophale) SiO2 
 PCOD9539504
Probable space group: I M M A
;
_chemical_formula_sum "Si O2"
_cell_formula_units_Z 116
_cell_length_a 27.063210
_cell_length_b 23.369448
_cell_length_c 9.141574
_cell_angle_alpha 90.000000
_cell_angle_beta 90.000000
_cell_angle_gamma 90.000000
_cell_volume 5781.609308
_symmetry_space_group_name_H-M "I M M A"
_symmetry_group_IT_number 74
_symmetry_cell_setting 'orthorhombic'
loop_
_space_group_symop_operation_xyz
x,y,z
-x,1/2-y,z
x,-y,-z
-x,1/2+y,-z
-x,-y,-z
x,1/2+y,-z
-x,y,z
x,1/2-y,z
1/2+x,1/2+y,1/2+z
1/2-x,-y,1/2+z
1/2+x,1/2-y,1/2-z
1/2-x,y,1/2-z
1/2-x,1/2-y,1/2-z
1/2+x,y,1/2-z
1/2-x,1/2+y,1/2+z
1/2+x,-y,1/2+z
loop_
_atom_site_type_symbol
_atom_site_label
_atom_site_fract_x
_atom_site_fract_y
_atom_site_fract_z
Si Si1 0.442906 0.026482 0.218626
Si Si2 0.771856 0.445957 0.088777
Si Si3 0.208587 0.856013 0.443640
Si Si4 0.943240 0.139733 0.480116
Si Si5 0.140144 0.685668 0.708028
Si Si6 0.881494 0.412360 0.717501
Si Si7 0.750000 0.250000 0.750000
Si Si8 0.878464 0.912073 0.937349
O O1 0.500000 0.006521 0.220899
O O2 0.439122 0.077490 0.100033
O O3 0.426074 0.056555 0.369710
O O4 0.404841 0.975112 0.189624
O O5 0.750000 0.443110 0.250000
O O6 0.830638 0.450067 0.099924
O O7 0.752061 0.500000 0.000000
O O8 0.756711 0.390484 0.995653
O O9 0.180078 0.839106 0.593543
O O10 0.171692 0.898070 0.353605
O O11 0.222818 0.800797 0.349651
O O12 0.910822 0.181947 0.382580
O O13 0.918227 0.131696 0.636841
O O14 0.000000 0.155595 0.487974
O O15 0.153178 0.750000 0.748585
O O16 0.132207 0.645893 0.848173
O O17 0.881098 0.403810 0.890613
#
# Coordination Sequence:
#
# PCOD9539504 Si02
#       8
#    16  16  16  16  16  16   4  16
#     4  10  21  39  66  97 133 174 214 265 331 413
#     4  12  27  44  66  96 136 182 226 275 348 416
#     4  11  25  44  66  94 127 175 222 288 334 398
#     4   9  20  37  63  96 127 168 218 265 334 408
#     4  10  21  44  65  86 122 167 223 274 331 395
#     4  11  22  37  61  93 134 163 212 271 334 387
#     4  12  24  44  74  96 130 168 250 286 336 404
#     4  11  24  41  58  95 132 169 218 270 328 400
#
# _framework density 20.063618000000002
#
# number of rings (size 3 to 8) (size 9 to 14) (size 15 to 20)
#    0.000    1.379    2.069    2.897    4.828    3.034 
#    4.966    1.034    0.000    0.000    0.000    0.000 
#    0.000    0.000    0.000    0.000    0.000    0.000 
#
# Total GULP energy -323551.498763 kJ/mol
# GULP energy per Si atom -5578.474117 kJ/mol
# Density = 2.001795 g / cm^3
# Si number density = 20.063618 Si / 1000 Ang^3
#
#
#
# Elastic Constant Matrix: (Units=GPa)
#
#
# Indices 1 2 3 4 5 6 
#
# 1 73.3278 11.5457 20.1445 0.0000 0.0000 0.0000
# 2 11.5457 88.3133 18.6775 0.0000 0.0000 0.0000
# 3 20.1445 18.6775 90.5826 0.0000 0.0000 0.0000
# 4 0.0000 0.0000 0.0000 15.3798 0.0000 0.0000
# 5 0.0000 0.0000 0.0000 0.0000 16.4551 0.0000
# 6 0.0000 0.0000 0.0000 0.0000 0.0000 10.7425
#
#
#
# Elastic Compliance Matrix: (Units=1/GPa)
#
#
# Indices 1 2 3 4 5 6 
#
# 1 0.014663 -0.001283 -0.002996 0.000000 0.000000 0.000000
# 2 -0.001283 0.011952 -0.002179 0.000000 0.000000 0.000000
# 3 -0.002996 -0.002179 0.012155 0.000000 0.000000 0.000000
# 4 0.000000 0.000000 0.000000 0.065020 0.000000 0.000000
# 5 0.000000 0.000000 0.000000 0.000000 0.060771 0.000000
# 6 0.000000 0.000000 0.000000 0.000000 0.000000 0.093089
#
#
# Mechanical properties :
#
#
# Convention : Reuss Voigt Hill
#
# Bulk Modulus (GPa) = 38.68049 39.21768 38.94908
# Shear Modulus (GPa) = 17.90931 21.97255 19.94093
#
# Velocity S-wave (km/s) = 2.99093 3.31289 3.15601
# Velocity P-wave (km/s) = 5.59002 5.85002 5.72149
#
# Compressibility (1/GPa) = 0.02585283
#
# Stress axis : x y z
#
# Youngs Moduli (GPa) = 68.20095 83.66849 82.26891
#
# Poissons Ratio (x) = 0.10737 0.24649
# Poissons Ratio (y) = 0.08752 0.17927
# Poissons Ratio (z) = 0.20434 0.18232
#
# Static dielectric constant tensor:
#      x y z
#    x 1.700390 0.000000 0.000000 
#    y 0.000000 1.714520 0.000000 
#    z 0.000000 0.000000 1.496540 
# 
# From -- ./inp_files/15450.got.cif
#   From: 2010.05.17/outbox.cif.g08.bks.cpg/sg74_8_cif.got.tgz:15450.got - 2010.06.03 17:57:02.
