data_PCOD9539797
_publ_section_title
;
Structure prediction by ZEFSAII (Michael W. Deem and Ramdas Pophale) SiO2 
 PCOD9539797
Probable space group: I M M A
;
_chemical_formula_sum "Si O2"
_cell_formula_units_Z 48
_cell_length_a 13.987200
_cell_length_b 15.345487
_cell_length_c 9.999086
_cell_angle_alpha 90.000000
_cell_angle_beta 90.000000
_cell_angle_gamma 90.000000
_cell_volume 2146.207776
_symmetry_space_group_name_H-M "I M M A"
_symmetry_group_IT_number 74
_symmetry_cell_setting 'orthorhombic'
loop_
_space_group_symop_operation_xyz
x,y,z
-x,1/2-y,z
x,-y,-z
-x,1/2+y,-z
-x,-y,-z
x,1/2+y,-z
-x,y,z
x,1/2-y,z
1/2+x,1/2+y,1/2+z
1/2-x,-y,1/2+z
1/2+x,1/2-y,1/2-z
1/2-x,y,1/2-z
1/2-x,1/2-y,1/2-z
1/2+x,y,1/2-z
1/2-x,1/2+y,1/2+z
1/2+x,-y,1/2+z
loop_
_atom_site_type_symbol
_atom_site_label
_atom_site_fract_x
_atom_site_fract_y
_atom_site_fract_z
Si Si1 0.000000 0.105212 0.996625
Si Si2 0.500000 0.649442 0.809495
Si Si3 0.167187 0.478621 0.356818
Si Si4 0.135234 0.153921 0.763800
O O1 0.000000 0.138233 0.147937
O O2 0.091033 0.139470 0.911215
O O3 0.000000 0.000000 0.000000
O O4 0.500000 0.750000 0.845153
O O5 0.406312 0.600262 0.862277
O O6 0.211694 0.500000 0.500000
O O7 0.250000 0.461274 0.250000
O O8 0.109616 0.565698 0.313650
O O9 0.104431 0.250000 0.716713
O O10 0.250000 0.154124 0.750000
#
# Coordination Sequence:
#
# PCOD9539797 Si02
#       4
#     8   8  16  16
#     4  12  22  43  72 106 143 190 235 296 356 425
#     4  12  27  45  72 105 146 191 240 296 356 416
#     4  11  26  46  73 108 145 188 235 295 361 422
#     4  10  22  39  67 102 141 183 231 285 349 424
#
# _framework density 22.365030000000001
#
# number of rings (size 3 to 8) (size 9 to 14) (size 15 to 20)
#    0.000    1.000    3.333    2.000    9.333    2.000 
#    0.000    0.000    0.000    0.000    0.000    0.000 
#    0.000    0.000    0.000    0.000    0.000    0.000 
#
# Total GULP energy -134141.130707 kJ/mol
# GULP energy per Si atom -5589.213779 kJ/mol
# Density = 2.231413 g / cm^3
# Si number density = 22.365030 Si / 1000 Ang^3
#
#
#
# Elastic Constant Matrix: (Units=GPa)
#
#
# Indices 1 2 3 4 5 6 
#
# 1 162.0153 39.2235 42.8225 0.0000 0.0000 0.0000
# 2 39.2235 211.1056 -9.7123 0.0000 0.0000 0.0000
# 3 42.8225 -9.7123 113.3694 0.0000 0.0000 0.0000
# 4 0.0000 0.0000 0.0000 20.9403 0.0000 0.0000
# 5 0.0000 0.0000 0.0000 0.0000 35.4773 0.0000
# 6 0.0000 0.0000 0.0000 0.0000 0.0000 20.3574
#
#
#
# Elastic Compliance Matrix: (Units=1/GPa)
#
#
# Indices 1 2 3 4 5 6 
#
# 1 0.007294 -0.001488 -0.002883 0.000000 0.000000 0.000000
# 2 -0.001488 0.005059 0.000995 0.000000 0.000000 0.000000
# 3 -0.002883 0.000995 0.009995 0.000000 0.000000 0.000000
# 4 0.000000 0.000000 0.000000 0.047755 0.000000 0.000000
# 5 0.000000 0.000000 0.000000 0.000000 0.028187 0.000000
# 6 0.000000 0.000000 0.000000 0.000000 0.000000 0.049122
#
#
# Mechanical properties :
#
#
# Convention : Reuss Voigt Hill
#
# Bulk Modulus (GPa) = 64.11056 70.12865 67.11960
# Shear Modulus (GPa) = 31.37504 42.96544 37.17024
#
# Velocity S-wave (km/s) = 3.74954 4.38779 4.08116
# Velocity P-wave (km/s) = 6.89008 7.55610 7.23076
#
# Compressibility (1/GPa) = 0.01559805
#
# Stress axis : x y z
#
# Youngs Moduli (GPa) = 137.09092 197.65883 100.05107
#
# Poissons Ratio (x) = 0.29410 0.28842
# Poissons Ratio (y) = 0.20398 -0.09960
# Poissons Ratio (z) = 0.39520 -0.19676
#
# Static dielectric constant tensor:
#      x y z
#    x 1.862180 0.000000 0.000000 
#    y 0.000000 1.838260 0.000000 
#    z 0.000000 0.000000 1.827860 
# 
# From -- ./inp_files/8099.got.cif
#   From: 2010.05.17/outbox.cif.g08.bks.cpg/sg74_5_cif.got.tgz:8099.got - 2010.06.03 17:57:02.
