data_PCOD9539833
_publ_section_title
;
Structure prediction by ZEFSAII (Michael W. Deem and Ramdas Pophale) SiO2 
 PCOD9539833
Probable space group: I M M A
;
_chemical_formula_sum "Si O2"
_cell_formula_units_Z 48
_cell_length_a 12.117348
_cell_length_b 15.639770
_cell_length_c 9.916663
_cell_angle_alpha 90.000000
_cell_angle_beta 90.000000
_cell_angle_gamma 90.000000
_cell_volume 1879.331951
_symmetry_space_group_name_H-M "I M M A"
_symmetry_group_IT_number 74
_symmetry_cell_setting 'orthorhombic'
loop_
_space_group_symop_operation_xyz
x,y,z
-x,1/2-y,z
x,-y,-z
-x,1/2+y,-z
-x,-y,-z
x,1/2+y,-z
-x,y,z
x,1/2-y,z
1/2+x,1/2+y,1/2+z
1/2-x,-y,1/2+z
1/2+x,1/2-y,1/2-z
1/2-x,y,1/2-z
1/2-x,1/2-y,1/2-z
1/2+x,y,1/2-z
1/2-x,1/2+y,1/2+z
1/2+x,-y,1/2+z
loop_
_atom_site_type_symbol
_atom_site_label
_atom_site_fract_x
_atom_site_fract_y
_atom_site_fract_z
Si Si1 0.121311 0.850391 0.353349
Si Si2 0.341162 0.906672 0.451323
Si Si3 0.123804 0.153080 0.231098
O O1 0.150868 0.750000 0.352797
O O2 0.290653 0.900602 0.060287
O O3 0.000000 0.859735 0.409018
O O4 0.877477 0.882374 0.198858
O O5 0.380047 0.844920 0.568701
O O6 0.375107 0.000000 0.500000
O O7 0.129489 0.250000 0.287294
O O8 0.250000 0.113805 0.250000
O O9 0.000000 0.117662 0.270735
#
# Coordination Sequence:
#
# PCOD9539833 Si02
#       3
#    16  16  16
#     4  10  22  42  67  91 121 168 222 270 319 385
#     4  11  23  38  60  94 126 162 206 263 326 383
#     4  10  22  40  62  89 124 168 214 257 311 384
#
# _framework density 25.540991999999999
#
# number of rings (size 3 to 8) (size 9 to 14) (size 15 to 20)
#    0.000    1.667    0.000    5.000    4.667    7.333 
#    0.000    3.333    0.000    0.000    0.000    0.000 
#    0.000    0.000    0.000    0.000    0.000    0.000 
#
# Total GULP energy -134008.476966 kJ/mol
# GULP energy per Si atom -5583.686540 kJ/mol
# Density = 2.548286 g / cm^3
# Si number density = 25.540992 Si / 1000 Ang^3
#
#
#
# Elastic Constant Matrix: (Units=GPa)
#
#
# Indices 1 2 3 4 5 6 
#
# 1 248.9173 10.8726 21.0363 0.0000 0.0000 0.0000
# 2 10.8726 99.7813 20.2782 0.0000 0.0000 0.0000
# 3 21.0363 20.2782 114.4551 0.0000 0.0000 0.0000
# 4 0.0000 0.0000 0.0000 19.2133 0.0000 0.0000
# 5 0.0000 0.0000 0.0000 0.0000 -13.6489 0.0000
# 6 0.0000 0.0000 0.0000 0.0000 0.0000 24.6649
#
#
#
# Elastic Compliance Matrix: (Units=1/GPa)
#
#
# Indices 1 2 3 4 5 6 
#
# 1 0.004090 -0.000304 -0.000698 0.000000 0.000000 0.000000
# 2 -0.000304 0.010419 -0.001790 0.000000 0.000000 0.000000
# 3 -0.000698 -0.001790 0.009182 0.000000 0.000000 0.000000
# 4 0.000000 0.000000 0.000000 0.052047 0.000000 0.000000
# 5 0.000000 0.000000 0.000000 0.000000 -0.073266 0.000000
# 6 0.000000 0.000000 0.000000 0.000000 0.000000 0.040543
#
#
# Mechanical properties :
#
#
# Convention : Reuss Voigt Hill
#
# Bulk Modulus (GPa) = 55.22582 63.05867 59.14224
# Shear Modulus (GPa) = 91.51673 33.44364 62.48019
#
# Velocity S-wave (km/s) = 5.99242 3.62250 4.95134
# Velocity P-wave (km/s) = 8.33955 6.49919 7.47622
#
# Compressibility (1/GPa) = 0.01810747
#
# Stress axis : x y z
#
# Youngs Moduli (GPa) = 244.52007 95.98023 108.90330
#
# Poissons Ratio (x) = 0.02916 0.07600
# Poissons Ratio (y) = 0.07429 0.19495
# Poissons Ratio (z) = 0.17063 0.17181
#
# Static dielectric constant tensor:
#      x y z
#    x 2.128710 0.000000 0.000000 
#    y 0.000000 1.984930 0.000000 
#    z 0.000000 0.000000 1.992880 
# 
# From -- ./inp_files/38604.got.cif
#   From: 2010.05.17/outbox.cif.g08.bks.cpg/sg74_20_cif.got.tgz:38604.got - 2010.06.03 17:57:02.
