data_PCOD9539483
_publ_section_title
;
Structure prediction by ZEFSAII (Michael W. Deem and Ramdas Pophale) SiO2 
 PCOD9539483
Probable space group: I M M A
;
_chemical_formula_sum "Si O2"
_cell_formula_units_Z 84
_cell_length_a 23.838558
_cell_length_b 14.471567
_cell_length_c 12.491400
_cell_angle_alpha 90.000000
_cell_angle_beta 90.000000
_cell_angle_gamma 90.000000
_cell_volume 4309.299277
_symmetry_space_group_name_H-M "I M M A"
_symmetry_group_IT_number 74
_symmetry_cell_setting 'orthorhombic'
loop_
_space_group_symop_operation_xyz
x,y,z
-x,1/2-y,z
x,-y,-z
-x,1/2+y,-z
-x,-y,-z
x,1/2+y,-z
-x,y,z
x,1/2-y,z
1/2+x,1/2+y,1/2+z
1/2-x,-y,1/2+z
1/2+x,1/2-y,1/2-z
1/2-x,y,1/2-z
1/2-x,1/2-y,1/2-z
1/2+x,y,1/2-z
1/2-x,1/2+y,1/2+z
1/2+x,-y,1/2+z
loop_
_atom_site_type_symbol
_atom_site_label
_atom_site_fract_x
_atom_site_fract_y
_atom_site_fract_z
Si Si1 0.500000 0.750000 0.419895
Si Si2 0.000000 0.147878 0.696070
Si Si3 0.276278 0.356031 0.858443
Si Si4 0.889566 0.458938 0.614627
Si Si5 0.000000 0.581027 0.915129
Si Si6 0.618372 0.032424 0.335091
Si Si7 0.340905 0.643150 0.468866
O O1 0.500000 0.670388 0.322856
O O2 0.500000 0.828650 0.513610
O O3 0.943389 0.095229 0.661772
O O4 0.000000 0.250000 0.643696
O O5 0.290032 0.250000 0.830493
O O6 0.250000 0.399586 0.750000
O O7 0.333440 0.398685 0.899414
O O8 0.224582 0.358020 0.939848
O O9 0.904819 0.500000 0.500000
O O10 0.870251 0.527998 0.709606
O O11 0.055133 0.566891 0.846391
O O12 0.000000 0.500000 0.000000
O O13 0.651369 0.102405 0.412789
O O14 0.628628 0.930065 0.388665
O O15 0.362045 0.750000 0.456483
#
# Coordination Sequence:
#
# PCOD9539483 Si02
#       7
#     4   8  16  16   8  16  16
#     4  10  26  40  78  98 138 168 212 280 338 404
#     4  10  25  42  68  95 120 166 228 268 329 383
#     4  10  21  39  64  96 127 167 227 277 324 391
#     4  12  25  42  66  91 133 176 223 277 322 389
#     4  12  22  39  61 106 129 162 204 271 337 409
#     4  11  24  38  63  95 133 167 217 265 338 399
#     4  10  22  38  63  94 131 165 207 274 339 378
#
# _framework density 19.492728
#
# number of rings (size 3 to 8) (size 9 to 14) (size 15 to 20)
#    0.286    0.952    3.810    2.571    4.000    0.762 
#    0.000    1.905    2.095    2.286    0.000    0.000 
#    0.000    0.000    0.000    0.000    0.000    0.000 
#
# Total GULP energy -233836.535442 kJ/mol
# GULP energy per Si atom -5567.536558 kJ/mol
# Density = 1.944836 g / cm^3
# Si number density = 19.492728 Si / 1000 Ang^3
#
#
#
# Elastic Constant Matrix: (Units=GPa)
#
#
# Indices 1 2 3 4 5 6 
#
# 1 93.9432 34.0333 15.9817 0.0000 0.0000 0.0000
# 2 34.0333 108.8087 45.4437 0.0000 0.0000 0.0000
# 3 15.9817 45.4437 114.5921 0.0000 0.0000 0.0000
# 4 0.0000 0.0000 0.0000 23.0588 0.0000 0.0000
# 5 0.0000 0.0000 0.0000 0.0000 -11.0231 0.0000
# 6 0.0000 0.0000 0.0000 0.0000 0.0000 23.6023
#
#
#
# Elastic Compliance Matrix: (Units=1/GPa)
#
#
# Indices 1 2 3 4 5 6 
#
# 1 0.012010 -0.003664 -0.000222 0.000000 0.000000 0.000000
# 2 -0.003664 0.012132 -0.004300 0.000000 0.000000 0.000000
# 3 -0.000222 -0.004300 0.010463 0.000000 0.000000 0.000000
# 4 0.000000 0.000000 0.000000 0.043367 0.000000 0.000000
# 5 0.000000 0.000000 0.000000 0.000000 -0.090719 0.000000
# 6 0.000000 0.000000 0.000000 0.000000 0.000000 0.042369
#
#
# Mechanical properties :
#
#
# Convention : Reuss Voigt Hill
#
# Bulk Modulus (GPa) = 54.84588 56.47350 55.65969
# Shear Modulus (GPa) = 96.01992 21.91995 58.96994
#
# Velocity S-wave (km/s) = 7.02612 3.35702 5.50617
# Velocity P-wave (km/s) = 9.69636 6.63782 8.30903
#
# Compressibility (1/GPa) = 0.01823291
#
# Stress axis : x y z
#
# Youngs Moduli (GPa) = 83.26558 82.42380 95.57519
#
# Poissons Ratio (x) = 0.30198 0.02122
# Poissons Ratio (y) = 0.30506 0.41101
# Poissons Ratio (z) = 0.01849 0.35445
#
# Static dielectric constant tensor:
#      x y z
#    x 1.682890 0.000000 0.000000 
#    y 0.000000 1.734720 0.000000 
#    z 0.000000 0.000000 1.700500 
# 
# From -- ./inp_files/25019.got.cif
#   From: 2010.05.17/outbox.cif.g08.bks.cpg/sg74_13_cif.got.tgz:25019.got - 2010.06.03 17:57:02.
