data_PCOD9539967
_publ_section_title
;
Structure prediction by ZEFSAII (Michael W. Deem and Ramdas Pophale) SiO2 
 PCOD9539967
Probable space group: I M M A
;
_chemical_formula_sum "Si O2"
_cell_formula_units_Z 84
_cell_length_a 15.061838
_cell_length_b 20.213014
_cell_length_c 12.318501
_cell_angle_alpha 90.000000
_cell_angle_beta 90.000000
_cell_angle_gamma 90.000000
_cell_volume 3750.307791
_symmetry_space_group_name_H-M "I M M A"
_symmetry_group_IT_number 74
_symmetry_cell_setting 'orthorhombic'
loop_
_space_group_symop_operation_xyz
x,y,z
-x,1/2-y,z
x,-y,-z
-x,1/2+y,-z
-x,-y,-z
x,1/2+y,-z
-x,y,z
x,1/2-y,z
1/2+x,1/2+y,1/2+z
1/2-x,-y,1/2+z
1/2+x,1/2-y,1/2-z
1/2-x,y,1/2-z
1/2-x,1/2-y,1/2-z
1/2+x,y,1/2-z
1/2-x,1/2+y,1/2+z
1/2+x,-y,1/2+z
loop_
_atom_site_type_symbol
_atom_site_label
_atom_site_fract_x
_atom_site_fract_y
_atom_site_fract_z
Si Si1 0.144673 0.407488 0.247426
Si Si2 0.396319 0.322430 0.802837
Si Si3 0.606749 0.053591 0.667104
Si Si4 0.649877 0.325185 0.049931
Si Si5 0.143181 0.141826 0.019516
Si Si6 0.000000 0.250000 0.949937
O O1 0.250000 0.395394 0.250000
O O2 0.131434 0.484534 0.222270
O O3 0.114457 0.377312 0.361725
O O4 0.108889 0.369531 0.141857
O O5 0.500000 0.317567 0.770906
O O6 0.356315 0.250000 0.778867
O O7 0.359610 0.385776 0.741791
O O8 0.392222 0.332637 0.931580
O O9 0.500000 0.053691 0.660872
O O10 0.641723 0.073305 0.548045
O O11 0.634164 0.250000 0.089156
O O12 0.755574 0.334002 0.029572
O O13 0.078275 0.192479 0.960022
#
# Coordination Sequence:
#
# PCOD9539967 Si02
#       6
#    16  16  16  16  16   4
#     4  10  25  42  61  90 128 171 209 263 322 386
#     4   9  21  40  63  92 125 165 215 272 320 377
#     4  11  24  41  63  92 132 168 215 267 325 392
#     4  10  22  43  66  91 126 168 219 269 319 385
#     4  11  24  40  65  94 131 165 213 268 329 387
#     4  12  24  40  64 106 128 172 214 274 342 382
#
# _framework density 22.398161999999999
#
# number of rings (size 3 to 8) (size 9 to 14) (size 15 to 20)
#    0.000    1.714    1.905    0.571    6.667    3.429 
#    0.000    3.810    0.000    0.000    0.000    0.000 
#    0.000    0.000    0.000    0.000    0.000    0.000 
#
# Total GULP energy -234207.695132 kJ/mol
# GULP energy per Si atom -5576.373694 kJ/mol
# Density = 2.234718 g / cm^3
# Si number density = 22.398162 Si / 1000 Ang^3
#
#
#
# Elastic Constant Matrix: (Units=GPa)
#
#
# Indices 1 2 3 4 5 6 
#
# 1 55.9989 9.0761 14.8700 0.0000 0.0000 0.0000
# 2 9.0761 95.4535 44.5107 0.0000 0.0000 0.0000
# 3 14.8700 44.5107 109.8447 0.0001 0.0000 0.0000
# 4 0.0000 0.0000 0.0001 548.8991 0.0000 0.0000
# 5 0.0000 0.0000 0.0000 0.0000 26.4549 0.0000
# 6 0.0000 0.0000 0.0000 0.0000 0.0000 51.6505
#
#
#
# Elastic Compliance Matrix: (Units=1/GPa)
#
#
# Indices 1 2 3 4 5 6 
#
# 1 0.018565 -0.000732 -0.002217 0.000000 0.000000 0.000000
# 2 -0.000732 0.012946 -0.005147 0.000000 0.000000 0.000000
# 3 -0.002217 -0.005147 0.011489 0.000000 0.000000 0.000000
# 4 0.000000 0.000000 0.000000 0.001822 0.000000 0.000000
# 5 0.000000 0.000000 0.000000 0.000000 0.037800 0.000000
# 6 0.000000 0.000000 0.000000 0.000000 0.000000 0.019361
#
#
# Mechanical properties :
#
#
# Convention : Reuss Voigt Hill
#
# Bulk Modulus (GPa) = 37.29976 44.24561 40.77269
# Shear Modulus (GPa) = 39.33612 138.25693 88.79653
#
# Velocity S-wave (km/s) = 4.19528 7.86517 6.30322
# Velocity P-wave (km/s) = 6.33690 10.11327 8.43903
#
# Compressibility (1/GPa) = 0.02680983
#
# Stress axis : x y z
#
# Youngs Moduli (GPa) = 53.86566 77.24480 87.03669
#
# Poissons Ratio (x) = 0.05651 0.19294
# Poissons Ratio (y) = 0.03940 0.44796
# Poissons Ratio (z) = 0.11941 0.39756
#
# Static dielectric constant tensor:
#      x y z
#    x 1.819570 0.000000 0.000000 
#    y 0.000000 1.839160 0.000000 
#    z 0.000000 0.000000 1.864240 
# 
# From -- ./inp_files/22114.got.cif
#   From: 2010.05.17/outbox.cif.g08.bks.cpg/sg74_12_cif.got.tgz:22114.got - 2010.06.03 17:57:02.
