data_PCOD9539996
_publ_section_title
;
Structure prediction by ZEFSAII (Michael W. Deem and Ramdas Pophale) SiO2 
 PCOD9539996
Probable space group: I M M A
;
_chemical_formula_sum "Si O2"
_cell_formula_units_Z 80
_cell_length_a 13.835951
_cell_length_b 13.171261
_cell_length_c 24.373585
_cell_angle_alpha 90.000000
_cell_angle_beta 90.000000
_cell_angle_gamma 90.000000
_cell_volume 4441.767104
_symmetry_space_group_name_H-M "I M M A"
_symmetry_group_IT_number 74
_symmetry_cell_setting 'orthorhombic'
loop_
_space_group_symop_operation_xyz
x,y,z
-x,1/2-y,z
x,-y,-z
-x,1/2+y,-z
-x,-y,-z
x,1/2+y,-z
-x,y,z
x,1/2-y,z
1/2+x,1/2+y,1/2+z
1/2-x,-y,1/2+z
1/2+x,1/2-y,1/2-z
1/2-x,y,1/2-z
1/2-x,1/2-y,1/2-z
1/2+x,y,1/2-z
1/2-x,1/2+y,1/2+z
1/2+x,-y,1/2+z
loop_
_atom_site_type_symbol
_atom_site_label
_atom_site_fract_x
_atom_site_fract_y
_atom_site_fract_z
Si Si1 0.214839 0.459062 0.339009
Si Si2 0.385186 0.750000 0.411877
Si Si3 0.387109 0.250000 0.992769
Si Si4 0.392905 0.522161 0.266809
Si Si5 0.615512 0.750000 0.874833
Si Si6 0.658492 0.750000 0.290071
Si Si7 0.754888 0.078523 0.951208
O O1 0.316646 0.465403 0.306275
O O2 0.142179 0.510637 0.295659
O O3 0.170741 0.349076 0.352232
O O4 0.228922 0.520345 0.395221
O O5 0.500000 0.750000 0.401567
O O6 0.324545 0.750000 0.355128
O O7 0.348343 0.649954 0.442768
O O8 0.500000 0.250000 0.979005
O O9 0.332572 0.347472 0.968456
O O10 0.377747 0.250000 0.058862
O O11 0.500000 0.481324 0.274315
O O12 0.391794 0.642267 0.279702
O O13 0.500000 0.750000 0.861074
O O14 0.750000 0.750000 0.250000
O O15 0.771017 0.000000 0.000000
#
# Coordination Sequence:
#
# PCOD9539996 Si02
#       7
#    16   8   8  16   8   8  16
#     4  11  23  41  63  89 124 158 208 252 307 363
#     4  11  23  39  63  92 126 167 203 243 302 367
#     4  10  23  38  60  92 122 159 202 248 306 364
#     4  11  23  39  63  92 124 164 203 250 306 363
#     4  11  23  42  64  87 119 162 205 253 311 366
#     4  12  19  38  60  93 126 158 199 251 303 363
#     4  11  22  40  64  91 126 160 201 255 302 358
#
# _framework density 18.010850000000001
#
# number of rings (size 3 to 8) (size 9 to 14) (size 15 to 20)
#    0.000    1.000    6.000    1.500    0.000    4.800 
#    0.000    1.500    0.000    0.000    0.000    0.000 
#    0.000    0.000    0.000    0.000    0.000    0.000 
#
# Total GULP energy -223239.908578 kJ/mol
# GULP energy per Si atom -5580.997714 kJ/mol
# Density = 1.796986 g / cm^3
# Si number density = 18.010850 Si / 1000 Ang^3
#
#
#
# Elastic Constant Matrix: (Units=GPa)
#
#
# Indices 1 2 3 4 5 6 
#
# 1 137.1731 46.0772 45.3467 0.0000 0.0000 0.0000
# 2 46.0772 122.7259 61.4472 0.0000 0.0000 0.0000
# 3 45.3467 61.4472 129.8033 0.0000 0.0000 0.0000
# 4 0.0000 0.0000 0.0000 27.1396 0.0000 0.0000
# 5 0.0000 0.0000 0.0000 0.0000 11.8509 0.0000
# 6 0.0000 0.0000 0.0000 0.0000 0.0000 8.5277
#
#
#
# Elastic Compliance Matrix: (Units=1/GPa)
#
#
# Indices 1 2 3 4 5 6 
#
# 1 0.008706 -0.002288 -0.001958 0.000000 0.000000 0.000000
# 2 -0.002288 0.011281 -0.004541 0.000000 0.000000 0.000000
# 3 -0.001958 -0.004541 0.010538 0.000000 0.000000 0.000000
# 4 0.000000 0.000000 0.000000 0.036847 0.000000 0.000000
# 5 0.000000 0.000000 0.000000 0.000000 0.084381 0.000000
# 6 0.000000 0.000000 0.000000 0.000000 0.000000 0.117265
#
#
# Mechanical properties :
#
#
# Convention : Reuss Voigt Hill
#
# Bulk Modulus (GPa) = 77.22010 77.27161 77.24586
# Shear Modulus (GPa) = 17.18749 25.29238 21.23994
#
# Velocity S-wave (km/s) = 3.09250 3.75145 3.43780
# Velocity P-wave (km/s) = 7.46450 7.85878 7.66417
#
# Compressibility (1/GPa) = 0.01295000
#
# Stress axis : x y z
#
# Youngs Moduli (GPa) = 114.86284 88.64553 94.89780
#
# Poissons Ratio (x) = 0.20284 0.18583
# Poissons Ratio (y) = 0.26283 0.43092
# Poissons Ratio (z) = 0.22493 0.40253
#
# Static dielectric constant tensor:
#      x y z
#    x 1.616820 0.000000 0.000000 
#    y 0.000000 1.618680 0.000000 
#    z 0.000000 0.000000 1.604440 
# 
# From -- ./inp_files/59774.got.cif
#   From: 2010.05.17/outbox.cif.g08.bks.cpg/sg74_30_cif.got.tgz:59774.got - 2010.06.03 17:57:02.
