data_PCOD9539103
_publ_section_title
;
Structure prediction by ZEFSAII (Michael W. Deem and Ramdas Pophale) SiO2 
 PCOD9539103
Probable space group: I M M A
;
_chemical_formula_sum "Si O2"
_cell_formula_units_Z 96
_cell_length_a 19.096830
_cell_length_b 8.636079
_cell_length_c 30.667392
_cell_angle_alpha 90.000000
_cell_angle_beta 90.000000
_cell_angle_gamma 90.000000
_cell_volume 5057.719421
_symmetry_space_group_name_H-M "I M M A"
_symmetry_group_IT_number 74
_symmetry_cell_setting 'orthorhombic'
loop_
_space_group_symop_operation_xyz
x,y,z
-x,1/2-y,z
x,-y,-z
-x,1/2+y,-z
-x,-y,-z
x,1/2+y,-z
-x,y,z
x,1/2-y,z
1/2+x,1/2+y,1/2+z
1/2-x,-y,1/2+z
1/2+x,1/2-y,1/2-z
1/2-x,y,1/2-z
1/2-x,1/2-y,1/2-z
1/2+x,y,1/2-z
1/2-x,1/2+y,1/2+z
1/2+x,-y,1/2+z
loop_
_atom_site_type_symbol
_atom_site_label
_atom_site_fract_x
_atom_site_fract_y
_atom_site_fract_z
Si Si1 0.418343 0.064537 0.047524
Si Si2 0.080326 0.937123 0.794031
Si Si3 0.084148 0.571605 0.045732
Si Si4 0.332277 0.432600 0.377892
Si Si5 0.179839 0.063066 0.723611
Si Si6 0.681807 0.065632 0.877352
O O1 0.500000 0.017946 0.053849
O O2 0.415092 0.250000 0.045913
O O3 0.371197 0.006287 0.087597
O O4 0.395979 0.000000 0.000000
O O5 0.081188 0.750000 0.793190
O O6 0.131457 0.987915 0.833169
O O7 0.000000 0.986414 0.801004
O O8 0.113305 0.002370 0.750036
O O9 0.107017 0.750000 0.050446
O O10 0.112998 0.467315 0.084251
O O11 0.000000 0.569977 0.046380
O O12 0.107772 0.500000 0.000000
O O13 0.317829 0.250000 0.374250
O O14 0.261203 0.520908 0.388745
O O15 0.181009 0.250000 0.723869
O O16 0.250000 0.010703 0.750000
O O17 0.175408 0.011845 0.673237
O O18 0.672572 0.250000 0.878069
#
# Coordination Sequence:
#
# PCOD9539103 Si02
#       6
#    16  16  16  16  16  16
#     4  10  22  42  67  94 125 160 200 249 307 369
#     4  10  22  38  58  86 118 154 197 244 295 353
#     4  10  21  37  57  81 111 149 192 239 291 345
#     4  11  22  37  58  84 117 154 195 243 295 350
#     4  10  21  39  60  84 118 158 201 248 300 355
#     4  11  23  39  62  90 122 158 201 247 297 359
#
# _framework density 18.980886000000002
#
# number of rings (size 3 to 8) (size 9 to 14) (size 15 to 20)
#    0.000    1.667    1.667    2.500    0.000    6.667 
#    0.000    6.667    0.000    0.000    0.000    0.000 
#    0.000    0.000    0.000    0.000    0.000    0.000 
#
# Total GULP energy -268040.520798 kJ/mol
# GULP energy per Si atom -5584.177517 kJ/mol
# Density = 1.893768 g / cm^3
# Si number density = 18.980886 Si / 1000 Ang^3
#
#
#
# Elastic Constant Matrix: (Units=GPa)
#
#
# Indices 1 2 3 4 5 6 
#
# 1 83.1907 22.8690 46.1972 0.0000 0.0000 0.0000
# 2 22.8690 23.2971 28.4446 0.0000 0.0000 0.0000
# 3 46.1972 28.4446 126.3267 0.0000 0.0000 0.0000
# 4 0.0000 0.0000 0.0000 24.0715 0.0000 0.0000
# 5 0.0000 0.0000 0.0000 0.0000 34.0573 0.0000
# 6 0.0000 0.0000 0.0000 0.0000 0.0000 27.7171
#
#
#
# Elastic Compliance Matrix: (Units=1/GPa)
#
#
# Indices 1 2 3 4 5 6 
#
# 1 0.017514 -0.012926 -0.003494 0.000000 0.000000 0.000000
# 2 -0.012926 0.068738 -0.010751 0.000000 0.000000 0.000000
# 3 -0.003494 -0.010751 0.011615 0.000000 0.000000 0.000000
# 4 0.000000 0.000000 0.000000 0.041543 0.000000 0.000000
# 5 0.000000 0.000000 0.000000 0.000000 0.029362 0.000000
# 6 0.000000 0.000000 0.000000 0.000000 0.000000 0.036079
#
#
# Mechanical properties :
#
#
# Convention : Reuss Voigt Hill
#
# Bulk Modulus (GPa) = 22.97529 47.53736 35.25633
# Shear Modulus (GPa) = 18.26805 26.18941 22.22873
#
# Velocity S-wave (km/s) = 3.10569 3.71857 3.42586
# Velocity P-wave (km/s) = 4.99912 6.59820 5.85352
#
# Compressibility (1/GPa) = 0.04352503
#
# Stress axis : x y z
#
# Youngs Moduli (GPa) = 57.09569 14.54796 86.09874
#
# Poissons Ratio (x) = 0.18805 0.30087
# Poissons Ratio (y) = 0.73802 0.92561
# Poissons Ratio (z) = 0.19952 0.15640
#
# Static dielectric constant tensor:
#      x y z
#    x 1.647490 0.000000 0.000000 
#    y 0.000000 1.649740 0.000000 
#    z 0.000000 0.000000 1.665370 
# 
# From -- ./inp_files/68139.got.cif
#   From: 2010.05.17/outbox.cif.g08.bks.cpg/sg74_35_cif.got.tgz:68139.got - 2010.06.03 17:57:02.
