data_PCOD9539291
_publ_section_title
;
Structure prediction by ZEFSAII (Michael W. Deem and Ramdas Pophale) SiO2 
 PCOD9539291
Probable space group: I M M A
;
_chemical_formula_sum "Si O2"
_cell_formula_units_Z 80
_cell_length_a 8.149316
_cell_length_b 17.407152
_cell_length_c 28.838612
_cell_angle_alpha 90.000000
_cell_angle_beta 90.000000
_cell_angle_gamma 90.000000
_cell_volume 4090.941169
_symmetry_space_group_name_H-M "I M M A"
_symmetry_group_IT_number 74
_symmetry_cell_setting 'orthorhombic'
loop_
_space_group_symop_operation_xyz
x,y,z
-x,1/2-y,z
x,-y,-z
-x,1/2+y,-z
-x,-y,-z
x,1/2+y,-z
-x,y,z
x,1/2-y,z
1/2+x,1/2+y,1/2+z
1/2-x,-y,1/2+z
1/2+x,1/2-y,1/2-z
1/2-x,y,1/2-z
1/2-x,1/2-y,1/2-z
1/2+x,y,1/2-z
1/2-x,1/2+y,1/2+z
1/2+x,-y,1/2+z
loop_
_atom_site_type_symbol
_atom_site_label
_atom_site_fract_x
_atom_site_fract_y
_atom_site_fract_z
Si Si1 0.695391 0.837469 0.068640
Si Si2 0.312834 0.250000 0.076980
Si Si3 0.697687 0.510518 0.109809
Si Si4 0.689826 0.100718 0.470513
Si Si5 0.302442 0.584625 0.799070
Si Si6 0.688991 0.250000 0.325045
O O1 0.500000 0.831427 0.075188
O O2 0.762697 0.750000 0.069989
O O3 0.758030 0.901521 0.104968
O O4 0.724319 0.875937 0.018410
O O5 0.500000 0.250000 0.058893
O O6 0.217553 0.324186 0.060420
O O7 0.311793 0.250000 0.131857
O O8 0.500000 0.511587 0.112005
O O9 0.743600 0.466914 0.062084
O O10 0.752811 0.463250 0.155294
O O11 0.500000 0.086939 0.480295
O O12 0.500000 0.591667 0.800837
O O13 0.250000 0.548265 0.750000
O O14 0.223191 0.669513 0.800204
O O15 0.500000 0.250000 0.340630
#
# Coordination Sequence:
#
# PCOD9539291 Si02
#       6
#    16   8  16  16  16   8
#     4  10  21  38  60  83 111 150 193 235 281 337
#     4  12  22  35  55  80 116 160 194 229 272 327
#     4  10  22  39  59  82 111 151 193 233 282 339
#     4  12  23  35  55  85 118 153 190 232 281 330
#     4  11  23  39  59  82 113 150 190 235 283 337
#     4  12  23  37  58  86 117 150 190 231 277 333
#
# _framework density 19.555402000000001
#
# number of rings (size 3 to 8) (size 9 to 14) (size 15 to 20)
#    0.000    1.000    3.000    5.100    0.000    4.000 
#    0.000    0.000    0.000    0.600    0.000    0.000 
#    0.000    0.000    0.000    0.000    0.000    0.200 
#
# Total GULP energy -223300.842593 kJ/mol
# GULP energy per Si atom -5582.521065 kJ/mol
# Density = 1.951089 g / cm^3
# Si number density = 19.555402 Si / 1000 Ang^3
#
#
#
# Elastic Constant Matrix: (Units=GPa)
#
#
# Indices 1 2 3 4 5 6 
#
# 1 43.9918 14.3908 3.6261 0.0000 0.0000 0.0000
# 2 14.3908 166.4189 68.4474 0.0000 0.0000 0.0000
# 3 3.6261 68.4474 59.5814 0.0000 0.0000 0.0000
# 4 0.0000 0.0000 0.0000 -2.6276 0.0000 0.0000
# 5 0.0000 0.0000 0.0000 0.0000 18.2261 0.0000
# 6 0.0000 0.0000 0.0000 0.0000 0.0000 -69.2201
#
#
#
# Elastic Compliance Matrix: (Units=1/GPa)
#
#
# Indices 1 2 3 4 5 6 
#
# 1 0.023485 -0.002735 0.001713 0.000000 0.000000 0.000000
# 2 -0.002735 0.011710 -0.013286 0.000000 0.000000 0.000000
# 3 0.001713 -0.013286 0.031942 0.000000 0.000000 0.000000
# 4 0.000000 0.000000 0.000000 -0.380571 0.000000 0.000000
# 5 0.000000 0.000000 0.000000 0.000000 0.054866 0.000000
# 6 0.000000 0.000000 0.000000 0.000000 0.000000 -0.014447
#
#
# Mechanical properties :
#
#
# Convention : Reuss Voigt Hill
#
# Bulk Modulus (GPa) = 25.95976 49.21341 37.58658
# Shear Modulus (GPa) = -21.59292 1.51086 -10.04103
#
# Velocity S-wave (km/s) = -3.32654 0.87993 -2.26844
# Velocity P-wave (km/s) = 1.20446 5.12378 3.52154
#
# Compressibility (1/GPa) = 0.03852116
#
# Stress axis : x y z
#
# Youngs Moduli (GPa) = 42.58007 85.39754 31.30630
#
# Poissons Ratio (x) = 0.23360 -0.05364
# Poissons Ratio (y) = 0.11648 0.41593
# Poissons Ratio (z) = -0.07295 1.13459
#
# Static dielectric constant tensor:
#      x y z
#    x 1.679200 0.000000 0.000000 
#    y 0.000000 1.722150 0.000000 
#    z 0.000000 0.000000 1.689180 
# 
# From -- ./inp_files/64004.got.cif
#   From: 2010.05.17/outbox.cif.g08.bks.cpg/sg74_33_cif.got.tgz:64004.got - 2010.06.03 17:57:02.
