data_PCOD9539966
_publ_section_title
;
Structure prediction by ZEFSAII (Michael W. Deem and Ramdas Pophale) SiO2 
 PCOD9539966
Probable space group: I M M A
;
_chemical_formula_sum "Si O2"
_cell_formula_units_Z 68
_cell_length_a 18.310247
_cell_length_b 12.840199
_cell_length_c 11.703738
_cell_angle_alpha 90.000000
_cell_angle_beta 90.000000
_cell_angle_gamma 90.000000
_cell_volume 2751.633249
_symmetry_space_group_name_H-M "I M M A"
_symmetry_group_IT_number 74
_symmetry_cell_setting 'orthorhombic'
loop_
_space_group_symop_operation_xyz
x,y,z
-x,1/2-y,z
x,-y,-z
-x,1/2+y,-z
-x,-y,-z
x,1/2+y,-z
-x,y,z
x,1/2-y,z
1/2+x,1/2+y,1/2+z
1/2-x,-y,1/2+z
1/2+x,1/2-y,1/2-z
1/2-x,y,1/2-z
1/2-x,1/2-y,1/2-z
1/2+x,y,1/2-z
1/2-x,1/2+y,1/2+z
1/2+x,-y,1/2+z
loop_
_atom_site_type_symbol
_atom_site_label
_atom_site_fract_x
_atom_site_fract_y
_atom_site_fract_z
Si Si1 0.414701 0.635119 0.230037
Si Si2 0.500000 0.750000 0.659178
Si Si3 0.919806 0.370930 0.454711
Si Si4 0.609183 0.445205 0.389575
Si Si5 0.735392 0.366478 0.115118
O O1 0.500000 0.636498 0.263504
O O2 0.383457 0.750000 0.260470
O O3 0.414487 0.627980 0.092129
O O4 0.383078 0.536070 0.295000
O O5 0.563825 0.655758 0.652340
O O6 0.923495 0.250000 0.416447
O O7 0.843807 0.414941 0.408778
O O8 0.000000 0.414353 0.419581
O O9 0.575007 0.500000 0.500000
O O10 0.689578 0.411027 0.429771
O O11 0.728816 0.250000 0.067912
O O12 0.750000 0.363065 0.250000
#
# Coordination Sequence:
#
# PCOD9539966 Si02
#       5
#    16   4  16  16  16
#     4   9  19  37  68 106 139 178 237 298 357 418
#     4  12  26  48  64 104 138 200 240 286 350 438
#     4   8  16  37  69 106 141 178 230 298 362 425
#     4  12  26  42  70  98 146 190 241 298 348 426
#     4  10  22  43  66 101 145 186 233 293 363 431
#
# _framework density 24.712596000000001
#
# number of rings (size 3 to 8) (size 9 to 14) (size 15 to 20)
#    0.000    2.118    2.353    1.765    1.647    1.882 
#    2.118    0.000    0.000    8.471    0.000    0.000 
#    0.000    1.882    0.000    0.000    0.000    0.000 
#
# Total GULP energy -189463.170262 kJ/mol
# GULP energy per Si atom -5572.446184 kJ/mol
# Density = 2.465635 g / cm^3
# Si number density = 24.712596 Si / 1000 Ang^3
#
#
#
# Elastic Constant Matrix: (Units=GPa)
#
#
# Indices 1 2 3 4 5 6 
#
# 1 223.5326 66.5191 22.7902 0.0000 0.0000 0.0000
# 2 66.5191 182.4679 38.6415 0.0000 0.0000 0.0000
# 3 22.7902 38.6415 69.2114 0.0000 0.0000 0.0000
# 4 0.0000 0.0000 0.0000 15.5222 0.0000 0.0000
# 5 0.0000 0.0000 0.0000 0.0000 34.4704 0.0000
# 6 0.0000 0.0000 0.0000 0.0000 0.0000 -16.8097
#
#
#
# Elastic Compliance Matrix: (Units=1/GPa)
#
#
# Indices 1 2 3 4 5 6 
#
# 1 0.005049 -0.001688 -0.000720 0.000000 0.000000 0.000000
# 2 -0.001688 0.006780 -0.003229 0.000000 0.000000 0.000000
# 3 -0.000720 -0.003229 0.016489 0.000000 0.000000 0.000000
# 4 0.000000 0.000000 0.000000 0.064424 0.000000 0.000000
# 5 0.000000 0.000000 0.000000 0.000000 0.029010 0.000000
# 6 0.000000 0.000000 0.000000 0.000000 0.000000 -0.059489
#
#
# Mechanical properties :
#
#
# Convention : Reuss Voigt Hill
#
# Bulk Modulus (GPa) = 58.67726 81.23484 69.95605
# Shear Modulus (GPa) = 63.11633 29.78731 46.45182
#
# Velocity S-wave (km/s) = 5.05921 3.47558 4.34023
# Velocity P-wave (km/s) = 7.61071 7.00353 7.31342
#
# Compressibility (1/GPa) = 0.01704238
#
# Stress axis : x y z
#
# Youngs Moduli (GPa) = 198.04176 147.49797 60.64814
#
# Poissons Ratio (x) = 0.24902 0.04367
# Poissons Ratio (y) = 0.33435 0.19585
# Poissons Ratio (z) = 0.14261 0.47631
#
# Static dielectric constant tensor:
#      x y z
#    x 1.961070 0.000000 0.000000 
#    y 0.000000 2.026240 0.000000 
#    z 0.000000 0.000000 2.016910 
# 
# From -- ./inp_files/43724.got.cif
#   From: 2010.05.17/outbox.cif.g08.bks.cpg/sg74_22_cif.got.tgz:43724.got - 2010.06.03 17:57:02.
