data_PCOD9539036
_publ_section_title
;
Structure prediction by ZEFSAII (Michael W. Deem and Ramdas Pophale) SiO2 
 PCOD9539036
Probable space group: I M M A
;
_chemical_formula_sum "Si O2"
_cell_formula_units_Z 92
_cell_length_a 22.149019
_cell_length_b 15.646277
_cell_length_c 13.591690
_cell_angle_alpha 90.000000
_cell_angle_beta 90.000000
_cell_angle_gamma 90.000000
_cell_volume 4710.195909
_symmetry_space_group_name_H-M "I M M A"
_symmetry_group_IT_number 74
_symmetry_cell_setting 'orthorhombic'
loop_
_space_group_symop_operation_xyz
x,y,z
-x,1/2-y,z
x,-y,-z
-x,1/2+y,-z
-x,-y,-z
x,1/2+y,-z
-x,y,z
x,1/2-y,z
1/2+x,1/2+y,1/2+z
1/2-x,-y,1/2+z
1/2+x,1/2-y,1/2-z
1/2-x,y,1/2-z
1/2-x,1/2-y,1/2-z
1/2+x,y,1/2-z
1/2-x,1/2+y,1/2+z
1/2+x,-y,1/2+z
loop_
_atom_site_type_symbol
_atom_site_label
_atom_site_fract_x
_atom_site_fract_y
_atom_site_fract_z
Si Si1 0.818522 0.147216 0.540692
Si Si2 0.199208 0.554387 0.085375
Si Si3 0.876851 0.147413 0.751319
Si Si4 0.250000 0.929808 0.750000
Si Si5 0.500000 0.404664 0.827526
Si Si6 0.128691 0.147787 0.334344
Si Si7 0.000000 0.903743 0.650847
Si Si8 0.000000 0.750000 0.487918
O O1 0.816988 0.250000 0.536520
O O2 0.751758 0.109848 0.534261
O O3 0.843961 0.124189 0.648022
O O4 0.859811 0.119522 0.448644
O O5 0.158504 0.612629 0.154905
O O6 0.232413 0.489393 0.158888
O O7 0.167295 0.500000 0.000000
O O8 0.880543 0.250000 0.754783
O O9 0.941672 0.105656 0.740275
O O10 0.189551 0.877871 0.722622
O O11 0.500000 0.496838 0.879611
O O12 0.500000 0.325237 0.902492
O O13 0.123439 0.250000 0.334001
O O14 0.065394 0.109352 0.297175
O O15 0.000000 0.826681 0.571723
#
# Coordination Sequence:
#
# PCOD9539036 Si02
#       8
#    16  16  16   8   8  16   8   4
#     4  10  21  36  61  91 126 168 212 266 332 394
#     4  12  23  39  60  92 128 163 224 279 334 402
#     4  11  22  41  67  93 132 174 225 282 338 401
#     4  12  23  40  63  92 130 176 224 271 338 401
#     4  12  25  41  66  98 134 177 225 279 339 403
#     4  11  23  42  63  93 135 179 223 274 332 406
#     4  12  25  41  65  97 141 182 220 269 344 410
#     4  12  22  44  60 106 142 180 218 274 336 426
#
# _framework density 19.532095999999999
#
# number of rings (size 3 to 8) (size 9 to 14) (size 15 to 20)
#    0.000    0.696    5.217    3.130    2.435    1.391 
#    0.000    0.435    0.000    0.000    0.000    2.435 
#    0.000    0.000    0.000    0.000    0.000    0.000 
#
# Total GULP energy -256385.773039 kJ/mol
# GULP energy per Si atom -5573.603762 kJ/mol
# Density = 1.948764 g / cm^3
# Si number density = 19.532096 Si / 1000 Ang^3
#
#
#
# Elastic Constant Matrix: (Units=GPa)
#
#
# Indices 1 2 3 4 5 6 
#
# 1 126.0554 50.5038 33.1494 0.0000 0.0000 0.0000
# 2 50.5038 93.9192 19.6598 0.0000 0.0000 0.0000
# 3 33.1494 19.6598 55.1632 0.0000 0.0000 0.0000
# 4 0.0000 0.0000 0.0000 23.2651 0.0000 0.0000
# 5 0.0000 0.0000 0.0000 0.0000 -48.3046 0.0000
# 6 0.0000 0.0000 0.0000 0.0000 0.0000 17.2312
#
#
#
# Elastic Compliance Matrix: (Units=1/GPa)
#
#
# Indices 1 2 3 4 5 6 
#
# 1 0.011247 -0.005007 -0.004974 0.000000 0.000000 0.000000
# 2 -0.005007 0.013735 -0.001886 0.000000 0.000000 0.000000
# 3 -0.004974 -0.001886 0.021790 0.000000 0.000000 0.000000
# 4 0.000000 0.000000 0.000000 0.042983 0.000000 0.000000
# 5 0.000000 0.000000 0.000000 0.000000 -0.020702 0.000000
# 6 0.000000 0.000000 0.000000 0.000000 0.000000 0.058034
#
#
# Mechanical properties :
#
#
# Convention : Reuss Voigt Hill
#
# Bulk Modulus (GPa) = 43.40921 53.52931 48.46926
# Shear Modulus (GPa) = 31.54576 9.89332 20.71954
#
# Velocity S-wave (km/s) = 4.02316 2.25303 3.26052
# Velocity P-wave (km/s) = 6.62222 5.85094 6.24850
#
# Compressibility (1/GPa) = 0.02303659
#
# Stress axis : x y z
#
# Youngs Moduli (GPa) = 88.91198 72.80898 45.89355
#
# Poissons Ratio (x) = 0.36453 0.22829
# Poissons Ratio (y) = 0.44516 0.08657
# Poissons Ratio (z) = 0.44228 0.13733
#
# Static dielectric constant tensor:
#      x y z
#    x 1.748730 0.000000 0.000000 
#    y 0.000000 1.690530 0.000000 
#    z 0.000000 0.000000 1.688350 
# 
# From -- ./inp_files/35347.got.cif
#   From: 2010.05.17/outbox.cif.g08.bks.cpg/sg74_18_cif.got.tgz:35347.got - 2010.06.03 17:57:02.
