data_PCOD9539771
_publ_section_title
;
Structure prediction by ZEFSAII (Michael W. Deem and Ramdas Pophale) SiO2 
 PCOD9539771
Probable space group: I M M A
;
_chemical_formula_sum "Si O2"
_cell_formula_units_Z 72
_cell_length_a 28.095825
_cell_length_b 14.512297
_cell_length_c 9.453008
_cell_angle_alpha 90.000000
_cell_angle_beta 90.000000
_cell_angle_gamma 90.000000
_cell_volume 3854.321809
_symmetry_space_group_name_H-M "I M M A"
_symmetry_group_IT_number 74
_symmetry_cell_setting 'orthorhombic'
loop_
_space_group_symop_operation_xyz
x,y,z
-x,1/2-y,z
x,-y,-z
-x,1/2+y,-z
-x,-y,-z
x,1/2+y,-z
-x,y,z
x,1/2-y,z
1/2+x,1/2+y,1/2+z
1/2-x,-y,1/2+z
1/2+x,1/2-y,1/2-z
1/2-x,y,1/2-z
1/2-x,1/2-y,1/2-z
1/2+x,y,1/2-z
1/2-x,1/2+y,1/2+z
1/2+x,-y,1/2+z
loop_
_atom_site_type_symbol
_atom_site_label
_atom_site_fract_x
_atom_site_fract_y
_atom_site_fract_z
Si Si1 0.692886 0.250000 0.233753
Si Si2 0.304835 0.750000 0.213066
Si Si3 0.054102 0.596301 0.081664
Si Si4 0.447705 0.902278 0.079386
Si Si5 0.655285 0.388783 0.006645
Si Si6 0.629345 0.250000 0.512641
O O1 0.750000 0.250000 0.250000
O O2 0.676408 0.340319 0.145535
O O3 0.664088 0.250000 0.379404
O O4 0.250000 0.750000 0.250000
O O5 0.337951 0.750000 0.349220
O O6 0.316952 0.840079 0.120922
O O7 0.060028 0.586120 0.251741
O O8 0.094066 0.663148 0.021328
O O9 0.000000 0.631799 0.060312
O O10 0.057335 0.500000 0.000000
O O11 0.500000 0.857949 0.060874
O O12 0.400045 0.859735 0.014437
O O13 0.450521 0.000000 0.000000
O O14 0.658424 0.500000 0.000000
#
# Coordination Sequence:
#
# PCOD9539771 Si02
#       6
#     8   8  16  16  16   8
#     4  11  27  46  62  88 129 159 205 275 313 357
#     4  11  23  42  63  90 122 156 209 266 309 360
#     4  10  22  39  61  94 133 165 200 249 303 371
#     4   9  18  35  63  94 126 161 203 248 296 360
#     4  10  22  43  67  92 120 163 207 253 306 369
#     4  12  23  38  63  92 121 169 203 245 327 370
#
# _framework density 18.680329
#
# number of rings (size 3 to 8) (size 9 to 14) (size 15 to 20)
#    0.000    1.778    2.222    1.667    6.222    0.889 
#    0.000    5.556    0.000    0.000    0.000    0.000 
#    0.000    0.000    0.000    0.000    0.000    0.000 
#
# Total GULP energy -200821.203040 kJ/mol
# GULP energy per Si atom -5578.366751 kJ/mol
# Density = 1.863781 g / cm^3
# Si number density = 18.680329 Si / 1000 Ang^3
#
#
#
# Elastic Constant Matrix: (Units=GPa)
#
#
# Indices 1 2 3 4 5 6 
#
# 1 184.9296 60.4454 70.4546 0.0000 0.0000 0.0000
# 2 60.4454 124.8298 54.2831 0.0000 0.0000 0.0000
# 3 70.4546 54.2831 126.6986 0.0000 0.0000 0.0000
# 4 0.0000 0.0000 0.0000 23.7454 0.0000 0.0000
# 5 0.0000 0.0000 0.0000 0.0000 49.8380 0.0000
# 6 0.0000 0.0000 0.0000 0.0000 0.0000 29.1573
#
#
#
# Elastic Compliance Matrix: (Units=1/GPa)
#
#
# Indices 1 2 3 4 5 6 
#
# 1 0.007313 -0.002179 -0.003133 0.000000 0.000000 0.000000
# 2 -0.002179 0.010494 -0.003285 0.000000 0.000000 0.000000
# 3 -0.003133 -0.003285 0.011042 0.000000 0.000000 0.000000
# 4 0.000000 0.000000 0.000000 0.042113 0.000000 0.000000
# 5 0.000000 0.000000 0.000000 0.000000 0.020065 0.000000
# 6 0.000000 0.000000 0.000000 0.000000 0.000000 0.034297
#
#
# Mechanical properties :
#
#
# Convention : Reuss Voigt Hill
#
# Bulk Modulus (GPa) = 85.78841 89.64712 87.71777
# Shear Modulus (GPa) = 34.15207 37.29981 35.72594
#
# Velocity S-wave (km/s) = 4.28043 4.47334 4.37795
# Velocity P-wave (km/s) = 8.39366 8.64727 8.52141
#
# Compressibility (1/GPa) = 0.01165659
#
# Stress axis : x y z
#
# Youngs Moduli (GPa) = 136.73655 95.29037 90.55992
#
# Poissons Ratio (x) = 0.20761 0.28376
# Poissons Ratio (y) = 0.29791 0.29746
# Poissons Ratio (z) = 0.42844 0.31299
#
# Static dielectric constant tensor:
#      x y z
#    x 1.655140 0.000000 0.000000 
#    y 0.000000 1.622430 0.000000 
#    z 0.000000 0.000000 1.563060 
# 
# From -- ./inp_files/14772.got.cif
#   From: 2010.05.17/outbox.cif.g08.bks.cpg/sg74_8_cif.got.tgz:14772.got - 2010.06.03 17:57:02.
