data_PCOD9539128
_publ_section_title
;
Structure prediction by ZEFSAII (Michael W. Deem and Ramdas Pophale) SiO2 
 PCOD9539128
Probable space group: I M M A
;
_chemical_formula_sum "Si O2"
_cell_formula_units_Z 96
_cell_length_a 25.857788
_cell_length_b 15.313333
_cell_length_c 11.551388
_cell_angle_alpha 90.000000
_cell_angle_beta 90.000000
_cell_angle_gamma 90.000000
_cell_volume 4573.990611
_symmetry_space_group_name_H-M "I M M A"
_symmetry_group_IT_number 74
_symmetry_cell_setting 'orthorhombic'
loop_
_space_group_symop_operation_xyz
x,y,z
-x,1/2-y,z
x,-y,-z
-x,1/2+y,-z
-x,-y,-z
x,1/2+y,-z
-x,y,z
x,1/2-y,z
1/2+x,1/2+y,1/2+z
1/2-x,-y,1/2+z
1/2+x,1/2-y,1/2-z
1/2-x,y,1/2-z
1/2-x,1/2-y,1/2-z
1/2+x,y,1/2-z
1/2-x,1/2+y,1/2+z
1/2+x,-y,1/2+z
loop_
_atom_site_type_symbol
_atom_site_label
_atom_site_fract_x
_atom_site_fract_y
_atom_site_fract_z
Si Si1 0.909577 0.151388 0.699911
Si Si2 0.770133 0.646492 0.973685
Si Si3 0.304572 0.102201 0.707606
Si Si4 0.056627 0.508911 0.860955
Si Si5 0.839743 0.413319 0.230986
Si Si6 0.651254 0.647266 0.983405
O O1 0.932446 0.250000 0.694280
O O2 0.852654 0.158365 0.755047
O O3 0.936939 0.080556 0.783909
O O4 0.893269 0.114315 0.571648
O O5 0.771405 0.750000 0.997835
O O6 0.797033 0.632839 0.849638
O O7 0.710953 0.615728 0.993341
O O8 0.803097 0.596356 0.069665
O O9 0.250000 0.137716 0.750000
O O10 0.314129 0.006759 0.760002
O O11 0.106917 0.565976 0.833781
O O12 0.000000 0.545764 0.829240
O O13 0.056642 0.500000 0.000000
O O14 0.856902 0.366381 0.347826
O O15 0.652394 0.750000 0.008549
#
# Coordination Sequence:
#
# PCOD9539128 Si02
#       6
#    16  16  16  16  16  16
#     4  10  21  38  61  89 119 156 199 245 298 358
#     4  11  21  34  55  82 120 166 204 242 293 354
#     4  11  20  31  50  80 118 155 196 242 292 353
#     4  10  23  44  66  87 114 149 199 261 316 363
#     4  11  22  36  56  85 117 156 203 249 300 355
#     4  10  21  37  57  85 124 164 199 237 291 363
#
# _framework density 20.988237999999999
#
# number of rings (size 3 to 8) (size 9 to 14) (size 15 to 20)
#    0.000    1.500    1.667    5.000    0.000    5.000 
#    0.000    2.500    0.000    5.000    0.000    0.000 
#    0.000    0.000    0.000    0.000    0.000    0.000 
#
# Total GULP energy -267559.291395 kJ/mol
# GULP energy per Si atom -5574.151904 kJ/mol
# Density = 2.094047 g / cm^3
# Si number density = 20.988238 Si / 1000 Ang^3
#
#
#
# Elastic Constant Matrix: (Units=GPa)
#
#
# Indices 1 2 3 4 5 6 
#
# 1 85.3347 3.2331 17.6600 0.0000 0.0000 0.0000
# 2 3.2331 48.0152 16.2411 0.0000 0.0000 0.0000
# 3 17.6600 16.2411 133.2944 0.0000 0.0000 0.0000
# 4 0.0000 0.0000 0.0000 24.4791 0.0000 0.0000
# 5 0.0000 0.0000 0.0000 0.0000 13.2653 0.0000
# 6 0.0000 0.0000 0.0000 0.0000 0.0000 27.6992
#
#
#
# Elastic Compliance Matrix: (Units=1/GPa)
#
#
# Indices 1 2 3 4 5 6 
#
# 1 0.012053 -0.000283 -0.001562 0.000000 0.000000 0.000000
# 2 -0.000283 0.021729 -0.002610 0.000000 0.000000 0.000000
# 3 -0.001562 -0.002610 0.008027 0.000000 0.000000 0.000000
# 4 0.000000 0.000000 0.000000 0.040851 0.000000 0.000000
# 5 0.000000 0.000000 0.000000 0.000000 0.075385 0.000000
# 6 0.000000 0.000000 0.000000 0.000000 0.000000 0.036102
#
#
# Mechanical properties :
#
#
# Convention : Reuss Voigt Hill
#
# Bulk Modulus (GPa) = 30.39739 37.87919 34.13829
# Shear Modulus (GPa) = 23.36193 28.38938 25.87566
#
# Velocity S-wave (km/s) = 3.33993 3.68181 3.51503
# Velocity P-wave (km/s) = 5.42107 6.01342 5.72491
#
# Compressibility (1/GPa) = 0.03289756
#
# Stress axis : x y z
#
# Youngs Moduli (GPa) = 82.96958 46.02225 124.57656
#
# Poissons Ratio (x) = 0.01303 0.19463
# Poissons Ratio (y) = 0.02349 0.32514
# Poissons Ratio (z) = 0.12963 0.12012
#
# Static dielectric constant tensor:
#      x y z
#    x 1.735140 0.000000 0.000000 
#    y 0.000000 1.785340 0.000000 
#    z 0.000000 0.000000 1.873690 
# 
# From -- ./inp_files/26277.got.cif
#   From: 2010.05.17/outbox.cif.g08.bks.cpg/sg74_14_cif.got.tgz:26277.got - 2010.06.03 17:57:02.
