data_PCOD9539259
_publ_section_title
;
Structure prediction by ZEFSAII (Michael W. Deem and Ramdas Pophale) SiO2 
 PCOD9539259
Probable space group: I M M A
;
_chemical_formula_sum "Si O2"
_cell_formula_units_Z 88
_cell_length_a 22.116461
_cell_length_b 8.599972
_cell_length_c 23.770500
_cell_angle_alpha 90.000000
_cell_angle_beta 90.000000
_cell_angle_gamma 90.000000
_cell_volume 4521.171571
_symmetry_space_group_name_H-M "I M M A"
_symmetry_group_IT_number 74
_symmetry_cell_setting 'orthorhombic'
loop_
_space_group_symop_operation_xyz
x,y,z
-x,1/2-y,z
x,-y,-z
-x,1/2+y,-z
-x,-y,-z
x,1/2+y,-z
-x,y,z
x,1/2-y,z
1/2+x,1/2+y,1/2+z
1/2-x,-y,1/2+z
1/2+x,1/2-y,1/2-z
1/2-x,y,1/2-z
1/2-x,1/2-y,1/2-z
1/2+x,y,1/2-z
1/2-x,1/2+y,1/2+z
1/2+x,-y,1/2+z
loop_
_atom_site_type_symbol
_atom_site_label
_atom_site_fract_x
_atom_site_fract_y
_atom_site_fract_z
Si Si1 0.375717 0.062709 0.116356
Si Si2 0.572222 0.572889 0.440745
Si Si3 0.758324 0.434699 0.560006
Si Si4 0.500000 0.563752 0.064239
Si Si5 0.681492 0.938254 0.764936
Si Si6 0.341460 0.432246 0.357156
O O1 0.380170 0.250000 0.116838
O O2 0.350995 0.008202 0.177994
O O3 0.323092 0.010294 0.073777
O O4 0.439776 0.994432 0.096650
O O5 0.590479 0.500000 0.500000
O O6 0.500000 0.575413 0.438678
O O7 0.594768 0.750000 0.435884
O O8 0.599289 0.467923 0.392371
O O9 0.736467 0.500000 0.500000
O O10 0.763559 0.250000 0.557120
O O11 0.712643 0.482157 0.610007
O O12 0.500000 0.750000 0.062082
O O13 0.500000 0.500000 0.000000
O O14 0.684278 0.750000 0.770378
O O15 0.750000 0.990163 0.750000
O O16 0.648009 0.979547 0.707208
O O17 0.325800 0.250000 0.357410
#
# Coordination Sequence:
#
# PCOD9539259 Si02
#       6
#    16  16  16   8  16  16
#     4  11  22  42  68  93 124 163 209 257 310 370
#     4  10  21  38  58  82 116 155 196 244 300 358
#     4  12  24  38  58  89 124 159 199 249 309 368
#     4  12  26  46  68  96 130 168 215 264 323 382
#     4   9  18  37  64  91 120 156 199 244 295 360
#     4  11  21  37  61  88 118 156 202 249 297 361
#
# _framework density 19.463981
#
# number of rings (size 3 to 8) (size 9 to 14) (size 15 to 20)
#    0.000    1.273    1.818    5.182    0.000    1.091 
#    1.636    4.545    0.000    0.000    0.000    0.000 
#    0.000    0.000    0.000    0.000    0.000    0.000 
#
# Total GULP energy -245770.429294 kJ/mol
# GULP energy per Si atom -5585.691575 kJ/mol
# Density = 1.941968 g / cm^3
# Si number density = 19.463981 Si / 1000 Ang^3
#
#
#
# Elastic Constant Matrix: (Units=GPa)
#
#
# Indices 1 2 3 4 5 6 
#
# 1 94.6055 30.1696 55.5116 0.0000 0.0000 0.0000
# 2 30.1696 87.5846 33.8258 0.0000 0.0000 0.0000
# 3 55.5116 33.8258 146.8230 0.0000 0.0000 0.0000
# 4 0.0000 0.0000 0.0000 23.1670 0.0000 0.0000
# 5 0.0000 0.0000 0.0000 0.0000 17.2055 0.0000
# 6 0.0000 0.0000 0.0000 0.0000 0.0000 31.8360
#
#
#
# Elastic Compliance Matrix: (Units=1/GPa)
#
#
# Indices 1 2 3 4 5 6 
#
# 1 0.014320 -0.003119 -0.004696 0.000000 0.000000 0.000000
# 2 -0.003119 0.013212 -0.001865 0.000000 0.000000 0.000000
# 3 -0.004696 -0.001865 0.009016 0.000000 0.000000 0.000000
# 4 0.000000 0.000000 0.000000 0.043165 0.000000 0.000000
# 5 0.000000 0.000000 0.000000 0.000000 0.058121 0.000000
# 6 0.000000 0.000000 0.000000 0.000000 0.000000 0.031411
#
#
# Mechanical properties :
#
#
# Convention : Reuss Voigt Hill
#
# Bulk Modulus (GPa) = 58.17579 63.11412 60.64496
# Shear Modulus (GPa) = 25.72899 28.40879 27.06889
#
# Velocity S-wave (km/s) = 3.63971 3.82456 3.73328
# Velocity P-wave (km/s) = 6.90052 7.21107 7.05750
#
# Compressibility (1/GPa) = 0.01718928
#
# Stress axis : x y z
#
# Youngs Moduli (GPa) = 69.83150 75.68828 110.91610
#
# Poissons Ratio (x) = 0.23609 0.52082
# Poissons Ratio (y) = 0.21782 0.20680
# Poissons Ratio (z) = 0.32790 0.14112
#
# Static dielectric constant tensor:
#      x y z
#    x 1.688000 0.000000 0.000000 
#    y 0.000000 1.678140 0.000000 
#    z 0.000000 0.000000 1.686380 
# 
# From -- ./inp_files/61457.got.cif
#   From: 2010.05.17/outbox.cif.g08.bks.cpg/sg74_31_cif.got.tgz:61457.got - 2010.06.03 17:57:02.
