data_PCOD9539779
_publ_section_title
;
Structure prediction by ZEFSAII (Michael W. Deem and Ramdas Pophale) SiO2 
 PCOD9539779
Probable space group: I M M A
;
_chemical_formula_sum "Si O2"
_cell_formula_units_Z 72
_cell_length_a 20.505441
_cell_length_b 15.668626
_cell_length_c 10.691787
_cell_angle_alpha 90.000000
_cell_angle_beta 90.000000
_cell_angle_gamma 90.000000
_cell_volume 3435.186548
_symmetry_space_group_name_H-M "I M M A"
_symmetry_group_IT_number 74
_symmetry_cell_setting 'orthorhombic'
loop_
_space_group_symop_operation_xyz
x,y,z
-x,1/2-y,z
x,-y,-z
-x,1/2+y,-z
-x,-y,-z
x,1/2+y,-z
-x,y,z
x,1/2-y,z
1/2+x,1/2+y,1/2+z
1/2-x,-y,1/2+z
1/2+x,1/2-y,1/2-z
1/2-x,y,1/2-z
1/2-x,1/2-y,1/2-z
1/2+x,y,1/2-z
1/2-x,1/2+y,1/2+z
1/2+x,-y,1/2+z
loop_
_atom_site_type_symbol
_atom_site_label
_atom_site_fract_x
_atom_site_fract_y
_atom_site_fract_z
Si Si1 0.905386 0.918548 0.078016
Si Si2 0.000000 0.433274 0.696363
Si Si3 0.111253 0.750000 0.654733
Si Si4 0.500000 0.378347 0.080741
Si Si5 0.271875 0.750000 0.039337
Si Si6 0.878933 0.250000 0.050958
Si Si7 0.749031 0.562501 0.389360
O O1 0.915886 0.832407 0.001387
O O2 0.827666 0.926008 0.087369
O O3 0.938648 0.916911 0.213173
O O4 0.928650 0.000000 0.000000
O O5 0.000000 0.529360 0.644252
O O6 0.000000 0.379258 0.569865
O O7 0.065113 0.670025 0.622983
O O8 0.176946 0.750000 0.574074
O O9 0.124973 0.750000 0.800881
O O10 0.196264 0.750000 0.996444
O O11 0.280452 0.842018 0.108398
O O12 0.774737 0.500000 0.500000
O O13 0.750000 0.524090 0.250000
#
# Coordination Sequence:
#
# PCOD9539779 Si02
#       7
#    16   8   8   8   8   8  16
#     4  10  22  39  63  92 124 164 213 269 319 389
#     4  11  23  43  62  86 128 164 218 253 336 376
#     4  11  23  43  63  91 131 160 219 266 323 381
#     4  10  26  41  60  94 121 171 214 268 306 401
#     4  10  23  41  68  95 130 178 212 272 334 392
#     4  10  22  40  65  98 125 165 216 263 329 393
#     4  10  23  41  63  98 132 171 223 271 331 399
#
# _framework density 20.959561000000001
#
# number of rings (size 3 to 8) (size 9 to 14) (size 15 to 20)
#    0.000    1.778    0.000    2.333    3.111   11.111 
#    0.000    0.000    0.000    0.000    0.000    0.000 
#    0.000    0.000    0.000    0.000    0.000    0.000 
#
# Total GULP energy -201031.281836 kJ/mol
# GULP energy per Si atom -5584.202273 kJ/mol
# Density = 2.091186 g / cm^3
# Si number density = 20.959561 Si / 1000 Ang^3
#
#
#
# Elastic Constant Matrix: (Units=GPa)
#
#
# Indices 1 2 3 4 5 6 
#
# 1 33.0871 17.6873 -7.7611 0.0000 0.0000 0.0000
# 2 17.6873 96.8234 37.7103 0.0000 0.0000 0.0000
# 3 -7.7611 37.7103 129.3018 0.0000 0.0000 0.0000
# 4 0.0000 0.0000 0.0000 30.2812 0.0000 0.0000
# 5 0.0000 0.0000 0.0000 0.0000 38.7135 0.0000
# 6 0.0000 0.0000 0.0000 0.0000 0.0000 0.2859
#
#
#
# Elastic Compliance Matrix: (Units=1/GPa)
#
#
# Indices 1 2 3 4 5 6 
#
# 1 0.035735 -0.008307 0.004568 0.000000 0.000000 0.000000
# 2 -0.008307 0.013583 -0.004460 0.000000 0.000000 0.000000
# 3 0.004568 -0.004460 0.009309 0.000000 0.000000 0.000000
# 4 0.000000 0.000000 0.000000 0.033024 0.000000 0.000000
# 5 0.000000 0.000000 0.000000 0.000000 0.025831 0.000000
# 6 0.000000 0.000000 0.000000 0.000000 0.000000 3.497898
#
#
# Mechanical properties :
#
#
# Convention : Reuss Voigt Hill
#
# Bulk Modulus (GPa) = 23.68090 39.38726 31.53408
# Shear Modulus (GPa) = 1.37142 27.96118 14.66630
#
# Velocity S-wave (km/s) = 0.80978 3.65643 2.64813
# Velocity P-wave (km/s) = 3.49245 6.05465 4.94247
#
# Compressibility (1/GPa) = 0.04222813
#
# Stress axis : x y z
#
# Youngs Moduli (GPa) = 27.98354 73.62367 107.42607
#
# Poissons Ratio (x) = 0.61159 -0.49068
# Poissons Ratio (y) = 0.23246 0.47911
# Poissons Ratio (z) = -0.12782 0.32836
#
# Static dielectric constant tensor:
#      x y z
#    x 1.728140 0.000000 0.000000 
#    y 0.000000 1.787160 0.000000 
#    z 0.000000 0.000000 1.735270 
# 
# From -- ./inp_files/13536.got.cif
#   From: 2010.05.17/outbox.cif.g08.bks.cpg/sg74_7_cif.got.tgz:13536.got - 2010.06.03 17:57:02.
