data_PCOD9539853
_publ_section_title
;
Structure prediction by ZEFSAII (Michael W. Deem and Ramdas Pophale) SiO2 
 PCOD9539853
Probable space group: I M M A
;
_chemical_formula_sum "Si O2"
_cell_formula_units_Z 100
_cell_length_a 25.576048
_cell_length_b 20.607984
_cell_length_c 7.654102
_cell_angle_alpha 90.000000
_cell_angle_beta 90.000000
_cell_angle_gamma 90.000000
_cell_volume 4034.253572
_symmetry_space_group_name_H-M "I M M A"
_symmetry_group_IT_number 74
_symmetry_cell_setting 'orthorhombic'
loop_
_space_group_symop_operation_xyz
x,y,z
-x,1/2-y,z
x,-y,-z
-x,1/2+y,-z
-x,-y,-z
x,1/2+y,-z
-x,y,z
x,1/2-y,z
1/2+x,1/2+y,1/2+z
1/2-x,-y,1/2+z
1/2+x,1/2-y,1/2-z
1/2-x,y,1/2-z
1/2-x,1/2-y,1/2-z
1/2+x,y,1/2-z
1/2-x,1/2+y,1/2+z
1/2+x,-y,1/2+z
loop_
_atom_site_type_symbol
_atom_site_label
_atom_site_fract_x
_atom_site_fract_y
_atom_site_fract_z
Si Si1 0.944293 0.642030 0.234273
Si Si2 0.668477 0.319719 0.839072
Si Si3 0.307102 0.968845 0.191965
Si Si4 0.919618 0.499829 0.800131
Si Si5 0.692263 0.323038 0.247344
Si Si6 0.500000 0.750000 0.808224
Si Si7 0.422964 0.359778 0.320164
O O1 0.893261 0.676517 0.304405
O O2 0.940041 0.566002 0.284432
O O3 0.000000 0.669559 0.291702
O O4 0.941311 0.644787 0.022310
O O5 0.687727 0.250000 0.765177
O O6 0.690473 0.390230 0.785563
O O7 0.678472 0.318684 0.044455
O O8 0.250000 0.989990 0.250000
O O9 0.356853 0.994043 0.297559
O O10 0.315576 0.000000 0.000000
O O11 0.934064 0.570495 0.734061
O O12 0.937761 0.500000 0.000000
O O13 0.698076 0.250000 0.321494
O O14 0.750000 0.354562 0.250000
O O15 0.640225 0.352671 0.330934
O O16 0.453745 0.694067 0.785987
#
# Coordination Sequence:
#
# PCOD9539853 Si02
#       7
#    16  16  16  16  16   4  16
#     4  10  22  40  64  91 129 175 217 265 328 389
#     4  10  24  42  63  95 134 166 213 265 332 394
#     4  11  23  41  67  92 125 168 216 268 325 384
#     4   9  21  38  61  89 122 165 216 264 313 391
#     4  10  22  42  63  89 127 171 214 261 318 383
#     4  12  24  36  60 102 132 168 212 280 322 384
#     4  11  22  39  64  94 132 165 221 270 326 384
#
# _framework density 24.787732999999999
#
# number of rings (size 3 to 8) (size 9 to 14) (size 15 to 20)
#    0.000    1.760    1.600    1.440    2.240    8.000 
#    1.440    1.600    0.000    2.880    0.000    0.000 
#    0.000    0.000    0.000    0.000    0.000    0.000 
#
# Total GULP energy -278949.912850 kJ/mol
# GULP energy per Si atom -5578.998257 kJ/mol
# Density = 2.473132 g / cm^3
# Si number density = 24.787733 Si / 1000 Ang^3
#
#
#
# Elastic Constant Matrix: (Units=GPa)
#
#
# Indices 1 2 3 4 5 6 
#
# 1 192.2497 17.6921 16.4486 0.0000 0.0000 0.0000
# 2 17.6921 181.3111 -12.1789 0.0000 0.0000 0.0000
# 3 16.4486 -12.1789 44.0488 0.0000 0.0000 0.0000
# 4 0.0000 0.0000 0.0000 12.9039 0.0000 0.0000
# 5 0.0000 0.0000 0.0000 0.0000 9.4023 0.0000
# 6 0.0000 0.0000 0.0000 0.0000 0.0000 -25.8849
#
#
#
# Elastic Compliance Matrix: (Units=1/GPa)
#
#
# Indices 1 2 3 4 5 6 
#
# 1 0.005455 -0.000682 -0.002225 0.000000 0.000000 0.000000
# 2 -0.000682 0.005705 0.001832 0.000000 0.000000 0.000000
# 3 -0.002225 0.001832 0.024040 0.000000 0.000000 0.000000
# 4 0.000000 0.000000 0.000000 0.077496 0.000000 0.000000
# 5 0.000000 0.000000 0.000000 0.000000 0.106357 0.000000
# 6 0.000000 0.000000 0.000000 0.000000 0.000000 -0.038633
#
#
# Mechanical properties :
#
#
# Convention : Reuss Voigt Hill
#
# Bulk Modulus (GPa) = 30.25823 51.28147 40.76985
# Shear Modulus (GPa) = 25.82826 25.66078 25.74452
#
# Velocity S-wave (km/s) = 3.23147 3.22098 3.22623
# Velocity P-wave (km/s) = 5.11436 5.87929 5.51011
#
# Compressibility (1/GPa) = 0.03304885
#
# Stress axis : x y z
#
# Youngs Moduli (GPa) = 183.32784 175.28612 41.59804
#
# Poissons Ratio (x) = 0.11950 0.09257
# Poissons Ratio (y) = 0.12498 -0.07620
# Poissons Ratio (z) = 0.40797 -0.32111
#
# Static dielectric constant tensor:
#      x y z
#    x 1.846900 0.000000 0.000000 
#    y 0.000000 2.088940 0.000000 
#    z 0.000000 0.000000 1.951260 
# 
# From -- ./inp_files/15229.got.cif
#   From: 2010.05.17/outbox.cif.g08.bks.cpg/sg74_8_cif.got.tgz:15229.got - 2010.06.03 17:57:02.
