data_PCOD9539061
_publ_section_title
;
Structure prediction by ZEFSAII (Michael W. Deem and Ramdas Pophale) SiO2 
 PCOD9539061
Probable space group: I M M A
;
_chemical_formula_sum "Si O2"
_cell_formula_units_Z 72
_cell_length_a 13.357056
_cell_length_b 8.326797
_cell_length_c 32.431286
_cell_angle_alpha 90.000000
_cell_angle_beta 90.000000
_cell_angle_gamma 90.000000
_cell_volume 3607.056076
_symmetry_space_group_name_H-M "I M M A"
_symmetry_group_IT_number 74
_symmetry_cell_setting 'orthorhombic'
loop_
_space_group_symop_operation_xyz
x,y,z
-x,1/2-y,z
x,-y,-z
-x,1/2+y,-z
-x,-y,-z
x,1/2+y,-z
-x,y,z
x,1/2-y,z
1/2+x,1/2+y,1/2+z
1/2-x,-y,1/2+z
1/2+x,1/2-y,1/2-z
1/2-x,y,1/2-z
1/2-x,1/2-y,1/2-z
1/2+x,y,1/2-z
1/2-x,1/2+y,1/2+z
1/2+x,-y,1/2+z
loop_
_atom_site_type_symbol
_atom_site_label
_atom_site_fract_x
_atom_site_fract_y
_atom_site_fract_z
Si Si1 0.886476 0.555869 0.546787
Si Si2 0.806208 0.444481 0.098002
Si Si3 0.812245 0.564801 0.190500
Si Si4 0.000000 0.556435 0.953322
Si Si5 0.887432 0.937833 0.726425
O O1 0.865750 0.500000 0.500000
O O2 0.886053 0.750000 0.547001
O O3 0.798781 0.501540 0.577566
O O4 0.000000 0.502829 0.557592
O O5 0.804763 0.250000 0.099084
O O6 0.822352 0.505944 0.144084
O O7 0.899539 0.497362 0.069977
O O8 0.841124 0.750000 0.194272
O O9 0.872881 0.464985 0.224691
O O10 0.696704 0.540591 0.203868
O O11 0.000000 0.750000 0.952631
O O12 0.000000 0.500000 0.000000
O O13 0.869574 0.750000 0.717134
O O14 0.000000 0.979535 0.714384
#
# Coordination Sequence:
#
# PCOD9539061 Si02
#       5
#    16  16  16   8  16
#     4   9  18  33  54  78 105 139 179 227 280 336
#     4  10  21  37  55  79 112 149 192 233 280 346
#     4  11  23  37  56  86 118 147 186 237 288 337
#     4  10  22  38  58  82 112 152 194 244 294 344
#     4  10  21  39  63  84 110 151 191 231 282 346
#
# _framework density 19.960877
#
# number of rings (size 3 to 8) (size 9 to 14) (size 15 to 20)
#    0.000    2.000    0.000    4.667    1.556    4.444 
#    0.000    2.222    0.000    0.000    0.000    0.000 
#    0.000    0.000    0.000    0.000    0.000    0.000 
#
# Total GULP energy -201098.142890 kJ/mol
# GULP energy per Si atom -5586.059525 kJ/mol
# Density = 1.991545 g / cm^3
# Si number density = 19.960877 Si / 1000 Ang^3
#
#
#
# Elastic Constant Matrix: (Units=GPa)
#
#
# Indices 1 2 3 4 5 6 
#
# 1 71.0077 5.1384 24.4664 0.0000 0.0000 0.0000
# 2 5.1384 14.1788 -4.2738 0.0000 0.0000 0.0000
# 3 24.4664 -4.2738 105.4154 0.0000 0.0000 0.0000
# 4 0.0000 0.0000 0.0000 33.1316 0.0000 0.0000
# 5 0.0000 0.0000 0.0000 0.0000 4.0062 0.0000
# 6 0.0000 0.0000 0.0000 0.0000 0.0000 10.9765
#
#
#
# Elastic Compliance Matrix: (Units=1/GPa)
#
#
# Indices 1 2 3 4 5 6 
#
# 1 0.015963 -0.006987 -0.003988 0.000000 0.000000 0.000000
# 2 -0.006987 0.074459 0.004640 0.000000 0.000000 0.000000
# 3 -0.003988 0.004640 0.010600 0.000000 0.000000 0.000000
# 4 0.000000 0.000000 0.000000 0.030183 0.000000 0.000000
# 5 0.000000 0.000000 0.000000 0.000000 0.249615 0.000000
# 6 0.000000 0.000000 0.000000 0.000000 0.000000 0.091104
#
#
# Mechanical properties :
#
#
# Convention : Reuss Voigt Hill
#
# Bulk Modulus (GPa) = 11.31835 26.80711 19.06273
# Shear Modulus (GPa) = 9.72680 20.64089 15.18385
#
# Velocity S-wave (km/s) = 2.20987 3.21918 2.76104
# Velocity P-wave (km/s) = 3.49198 5.22269 4.44243
#
# Compressibility (1/GPa) = 0.08835211
#
# Stress axis : x y z
#
# Youngs Moduli (GPa) = 62.64584 13.43022 94.33923
#
# Poissons Ratio (x) = 0.09384 0.37624
# Poissons Ratio (y) = 0.43771 -0.43777
# Poissons Ratio (z) = 0.24984 -0.06232
#
# Static dielectric constant tensor:
#      x y z
#    x 1.716320 0.000000 0.000000 
#    y 0.000000 1.579620 0.000000 
#    z 0.000000 0.000000 1.661050 
# 
# From -- ./inp_files/66738.got.cif
#   From: 2010.05.17/outbox.cif.g08.bks.cpg/sg74_34_cif.got.tgz:66738.got - 2010.06.03 17:57:02.
