data_PCOD9539561
_publ_section_title
;
Structure prediction by ZEFSAII (Michael W. Deem and Ramdas Pophale) SiO2 
 PCOD9539561
Probable space group: I M M A
;
_chemical_formula_sum "Si O2"
_cell_formula_units_Z 88
_cell_length_a 23.986165
_cell_length_b 14.687496
_cell_length_c 11.118954
_cell_angle_alpha 90.000000
_cell_angle_beta 90.000000
_cell_angle_gamma 90.000000
_cell_volume 3917.170829
_symmetry_space_group_name_H-M "I M M A"
_symmetry_group_IT_number 74
_symmetry_cell_setting 'orthorhombic'
loop_
_space_group_symop_operation_xyz
x,y,z
-x,1/2-y,z
x,-y,-z
-x,1/2+y,-z
-x,-y,-z
x,1/2+y,-z
-x,y,z
x,1/2-y,z
1/2+x,1/2+y,1/2+z
1/2-x,-y,1/2+z
1/2+x,1/2-y,1/2-z
1/2-x,y,1/2-z
1/2-x,1/2-y,1/2-z
1/2+x,y,1/2-z
1/2-x,1/2+y,1/2+z
1/2+x,-y,1/2+z
loop_
_atom_site_type_symbol
_atom_site_label
_atom_site_fract_x
_atom_site_fract_y
_atom_site_fract_z
Si Si1 0.561434 0.356148 0.936153
Si Si2 0.331789 0.097803 0.545537
Si Si3 0.633449 0.647871 0.712069
Si Si4 0.936551 0.528280 0.192568
Si Si5 0.756343 0.750000 0.076578
Si Si6 0.322618 0.900120 0.949172
O O1 0.500000 0.372399 0.990994
O O2 0.563914 0.250000 0.899511
O O3 0.566579 0.420185 0.819932
O O4 0.613032 0.376139 0.021108
O O5 0.340603 0.151213 0.420933
O O6 0.390816 0.074226 0.606378
O O7 0.297361 0.167294 0.627946
O O8 0.308716 0.000000 0.500000
O O9 0.617590 0.750000 0.747873
O O10 0.583421 0.575664 0.706909
O O11 0.678958 0.609119 0.805439
O O12 0.000000 0.534811 0.148737
O O13 0.717287 0.670849 0.013731
O O14 0.313343 0.000000 0.000000
#
# Coordination Sequence:
#
# PCOD9539561 Si02
#       6
#    16  16  16  16   8  16
#     4  10  21  40  66  95 133 176 218 275 343 409
#     4  10  24  44  67  97 135 173 233 278 346 407
#     4  11  22  41  69  99 137 176 220 282 336 416
#     4  10  23  44  71 100 139 177 218 284 350 413
#     4  12  24  45  69  96 132 186 231 291 330 404
#     4  12  24  41  67 101 138 176 232 279 342 403
#
# _framework density 22.465192999999999
#
# number of rings (size 3 to 8) (size 9 to 14) (size 15 to 20)
#    0.000    1.273    4.545    0.545    1.273    6.182 
#    0.000    1.818    0.000    0.000    0.000    0.000 
#    0.000    0.000    0.000    0.000    0.000    0.000 
#
# Total GULP energy -244979.603500 kJ/mol
# GULP energy per Si atom -5567.718261 kJ/mol
# Density = 2.241406 g / cm^3
# Si number density = 22.465193 Si / 1000 Ang^3
#
#
#
# Elastic Constant Matrix: (Units=GPa)
#
#
# Indices 1 2 3 4 5 6 
#
# 1 116.3823 34.3678 10.9316 0.0000 0.0000 0.0000
# 2 34.3678 193.0473 10.0024 0.0000 0.0000 0.0000
# 3 10.9316 10.0024 50.6591 0.0000 0.0000 0.0000
# 4 0.0000 0.0000 0.0000 26.1188 0.0000 0.0000
# 5 0.0000 0.0000 0.0000 0.0000 6.2493 0.0000
# 6 0.0000 0.0000 0.0000 0.0000 0.0000 8.1951
#
#
#
# Elastic Compliance Matrix: (Units=1/GPa)
#
#
# Indices 1 2 3 4 5 6 
#
# 1 0.009209 -0.001552 -0.001681 0.000000 0.000000 0.000000
# 2 -0.001552 0.005495 -0.000750 0.000000 0.000000 0.000000
# 3 -0.001681 -0.000750 0.020251 0.000000 0.000000 0.000000
# 4 0.000000 0.000000 0.000000 0.038287 0.000000 0.000000
# 5 0.000000 0.000000 0.000000 0.000000 0.160017 0.000000
# 6 0.000000 0.000000 0.000000 0.000000 0.000000 0.122024
#
#
# Mechanical properties :
#
#
# Convention : Reuss Voigt Hill
#
# Bulk Modulus (GPa) = 37.05281 52.29914 44.67597
# Shear Modulus (GPa) = 13.43202 28.43176 20.93189
#
# Velocity S-wave (km/s) = 2.44786 3.56137 3.05577
# Velocity P-wave (km/s) = 4.95162 6.34364 5.69036
#
# Compressibility (1/GPa) = 0.02698851
#
# Stress axis : x y z
#
# Youngs Moduli (GPa) = 108.59381 181.97381 49.38142
#
# Poissons Ratio (x) = 0.28248 0.08299
# Poissons Ratio (y) = 0.16857 0.03704
# Poissons Ratio (z) = 0.18250 0.13649
#
# Static dielectric constant tensor:
#      x y z
#    x 1.878600 0.000000 0.000000 
#    y 0.000000 1.822260 0.000000 
#    z 0.000000 0.000000 1.918600 
# 
# From -- ./inp_files/24966.got.cif
#   From: 2010.05.17/outbox.cif.g08.bks.cpg/sg74_13_cif.got.tgz:24966.got - 2010.06.03 17:57:02.
