data_PCOD9539397
_publ_section_title
;
Structure prediction by ZEFSAII (Michael W. Deem and Ramdas Pophale) SiO2 
 PCOD9539397
Probable space group: I M M A
;
_chemical_formula_sum "Si O2"
_cell_formula_units_Z 96
_cell_length_a 14.287785
_cell_length_b 14.849878
_cell_length_c 18.005949
_cell_angle_alpha 90.000000
_cell_angle_beta 90.000000
_cell_angle_gamma 90.000000
_cell_volume 3820.355765
_symmetry_space_group_name_H-M "I M M A"
_symmetry_group_IT_number 74
_symmetry_cell_setting 'orthorhombic'
loop_
_space_group_symop_operation_xyz
x,y,z
-x,1/2-y,z
x,-y,-z
-x,1/2+y,-z
-x,-y,-z
x,1/2+y,-z
-x,y,z
x,1/2-y,z
1/2+x,1/2+y,1/2+z
1/2-x,-y,1/2+z
1/2+x,1/2-y,1/2-z
1/2-x,y,1/2-z
1/2-x,1/2-y,1/2-z
1/2+x,y,1/2-z
1/2-x,1/2+y,1/2+z
1/2+x,-y,1/2+z
loop_
_atom_site_type_symbol
_atom_site_label
_atom_site_fract_x
_atom_site_fract_y
_atom_site_fract_z
Si Si1 0.000000 0.846351 0.795704
Si Si2 0.610042 0.960303 0.174129
Si Si3 0.113019 0.143447 0.824533
Si Si4 0.500000 0.080930 0.443147
Si Si5 0.603978 0.605304 0.018033
Si Si6 0.673051 0.151384 0.187139
Si Si7 0.685340 0.145982 0.519198
O O1 0.000000 0.925987 0.854693
O O2 0.084093 0.846610 0.739956
O O3 0.000000 0.750000 0.838651
O O4 0.500000 0.984453 0.179011
O O5 0.637317 0.915246 0.252017
O O6 0.613396 0.888453 0.107340
O O7 0.664966 0.051712 0.152333
O O8 0.136033 0.250000 0.811608
O O9 0.162053 0.104744 0.899234
O O10 0.000000 0.140686 0.836165
O O11 0.601570 0.123690 0.462673
O O12 0.500000 0.000000 0.500000
O O13 0.500000 0.643204 0.995064
O O14 0.708128 0.632778 0.992333
O O15 0.596618 0.500000 0.000000
O O16 0.678308 0.250000 0.147429
O O17 0.750000 0.149257 0.250000
O O18 0.674022 0.250000 0.534376
#
# Coordination Sequence:
#
# PCOD9539397 Si02
#       7
#     8  16  16   8  16  16  16
#     4  10  22  42  62  88 129 162 204 266 315 378
#     4  10  21  38  65  88 121 165 210 268 324 386
#     4   9  19  36  61  96 133 163 201 256 320 389
#     4  12  26  38  66 102 134 176 215 258 326 400
#     4  10  24  45  63  88 123 168 221 272 326 388
#     4  10  22  37  59  90 123 163 210 264 323 383
#     4  11  23  41  65  94 132 172 213 263 321 394
#
# _framework density 25.128549
#
# number of rings (size 3 to 8) (size 9 to 14) (size 15 to 20)
#    0.000    1.833    1.667    1.250    4.667    2.333 
#    0.000    5.833    0.000    3.000    0.000    0.000 
#    0.000    0.000    0.000    0.000    0.000    0.000 
#
# Total GULP energy -267772.119304 kJ/mol
# GULP energy per Si atom -5578.585819 kJ/mol
# Density = 2.507136 g / cm^3
# Si number density = 25.128549 Si / 1000 Ang^3
#
#
#
# Elastic Constant Matrix: (Units=GPa)
#
#
# Indices 1 2 3 4 5 6 
#
# 1 163.5322 -0.4364 -0.0846 0.0000 0.0000 0.0000
# 2 -0.4364 76.9263 -0.2241 0.0000 0.0000 0.0000
# 3 -0.0846 -0.2241 74.7841 0.0000 0.0000 0.0000
# 4 0.0000 0.0000 0.0000 20.6379 0.0000 0.0000
# 5 0.0000 0.0000 0.0000 0.0000 31.3378 0.0000
# 6 0.0000 0.0000 0.0000 0.0000 0.0000 919.5867
#
#
#
# Elastic Compliance Matrix: (Units=1/GPa)
#
#
# Indices 1 2 3 4 5 6 
#
# 1 0.006115 0.000035 0.000007 0.000000 0.000000 0.000000
# 2 0.000035 0.013000 0.000039 0.000000 0.000000 0.000000
# 3 0.000007 0.000039 0.013372 0.000000 0.000000 0.000000
# 4 0.000000 0.000000 0.000000 0.048455 0.000000 0.000000
# 5 0.000000 0.000000 0.000000 0.000000 0.031910 0.000000
# 6 0.000000 0.000000 0.000000 0.000000 0.000000 0.001087
#
#
# Mechanical properties :
#
#
# Convention : Reuss Voigt Hill
#
# Bulk Modulus (GPa) = 30.62952 34.86141 32.74547
# Shear Modulus (GPa) = 40.10894 215.37832 127.74363
#
# Velocity S-wave (km/s) = 3.99952 9.26805 7.13768
# Velocity P-wave (km/s) = 5.79170 11.33280 8.99933
#
# Compressibility (1/GPa) = 0.03264824
#
# Stress axis : x y z
#
# Youngs Moduli (GPa) = 163.52967 76.92451 74.78339
#
# Poissons Ratio (x) = -0.00267 -0.00052
# Poissons Ratio (y) = -0.00568 -0.00292
# Poissons Ratio (z) = -0.00115 -0.00300
#
# Static dielectric constant tensor:
#      x y z
#    x 2.007990 0.000000 0.000000 
#    y 0.000000 2.089370 0.000000 
#    z 0.000000 0.000000 2.053970 
# 
# From -- ./inp_files/51962.got.cif
#   From: 2010.05.17/outbox.cif.g08.bks.cpg/sg74_26_cif.got.tgz:51962.got - 2010.06.03 17:57:02.
