data_PCOD9539322
_publ_section_title
;
Structure prediction by ZEFSAII (Michael W. Deem and Ramdas Pophale) SiO2 
 PCOD9539322
Probable space group: I M M A
;
_chemical_formula_sum "Si O2"
_cell_formula_units_Z 64
_cell_length_a 14.528280
_cell_length_b 20.534826
_cell_length_c 10.817455
_cell_angle_alpha 90.000000
_cell_angle_beta 90.000000
_cell_angle_gamma 90.000000
_cell_volume 3227.233030
_symmetry_space_group_name_H-M "I M M A"
_symmetry_group_IT_number 74
_symmetry_cell_setting 'orthorhombic'
loop_
_space_group_symop_operation_xyz
x,y,z
-x,1/2-y,z
x,-y,-z
-x,1/2+y,-z
-x,-y,-z
x,1/2+y,-z
-x,y,z
x,1/2-y,z
1/2+x,1/2+y,1/2+z
1/2-x,-y,1/2+z
1/2+x,1/2-y,1/2-z
1/2-x,y,1/2-z
1/2-x,1/2-y,1/2-z
1/2+x,y,1/2-z
1/2-x,1/2+y,1/2+z
1/2+x,-y,1/2+z
loop_
_atom_site_type_symbol
_atom_site_label
_atom_site_fract_x
_atom_site_fract_y
_atom_site_fract_z
Si Si1 0.106718 0.100174 0.940875
Si Si2 0.107786 0.425590 0.454067
Si Si3 0.729721 0.823089 0.104123
Si Si4 0.108796 0.975675 0.801194
O O1 0.169243 0.162914 0.949464
O O2 0.000000 0.113562 0.914331
O O3 0.142942 0.047947 0.837990
O O4 0.113072 0.063956 0.072015
O O5 0.112794 0.500000 0.500000
O O6 0.164136 0.376902 0.541385
O O7 0.146094 0.434785 0.314254
O O8 0.000000 0.405704 0.453172
O O9 0.696068 0.750000 0.079298
O O10 0.750000 0.829165 0.250000
O O11 0.000000 0.985160 0.771685
#
# Coordination Sequence:
#
# PCOD9539322 Si02
#       4
#    16  16  16  16
#     4   9  18  36  60  86 118 151 188 238 292 347
#     4  10  21  38  61  87 114 149 197 246 292 345
#     4  11  25  40  55  83 119 156 200 243 295 359
#     4   8  16  33  59  89 113 142 190 243 292 340
#
# _framework density 19.831230000000001
#
# number of rings (size 3 to 8) (size 9 to 14) (size 15 to 20)
#    0.000    2.500    0.000    3.000    3.500    5.000 
#    0.000    5.000    0.000    4.500    0.000    0.000 
#    0.000    0.000    0.000    0.000    0.000    0.000 
#
# Total GULP energy -178343.612110 kJ/mol
# GULP energy per Si atom -5573.237878 kJ/mol
# Density = 1.978609 g / cm^3
# Si number density = 19.831230 Si / 1000 Ang^3
#
#
#
# Elastic Constant Matrix: (Units=GPa)
#
#
# Indices 1 2 3 4 5 6 
#
# 1 71.2878 41.2224 34.8606 0.0000 0.0000 0.0000
# 2 41.2224 95.4691 47.4179 0.0000 0.0000 0.0000
# 3 34.8606 47.4179 101.0011 0.0000 0.0000 0.0000
# 4 0.0000 0.0000 0.0000 14.6645 0.0000 0.0000
# 5 0.0000 0.0000 0.0000 0.0000 26.5225 0.0000
# 6 0.0000 0.0000 0.0000 0.0000 0.0000 12.4052
#
#
#
# Elastic Compliance Matrix: (Units=1/GPa)
#
#
# Indices 1 2 3 4 5 6 
#
# 1 0.019679 -0.006682 -0.003655 0.000000 0.000000 0.000000
# 2 -0.006682 0.015928 -0.005172 0.000000 0.000000 0.000000
# 3 -0.003655 -0.005172 0.013591 0.000000 0.000000 0.000000
# 4 0.000000 0.000000 0.000000 0.068192 0.000000 0.000000
# 5 0.000000 0.000000 0.000000 0.000000 0.037704 0.000000
# 6 0.000000 0.000000 0.000000 0.000000 0.000000 0.080612
#
#
# Mechanical properties :
#
#
# Convention : Reuss Voigt Hill
#
# Bulk Modulus (GPa) = 55.00464 57.19555 56.10010
# Shear Modulus (GPa) = 18.32961 20.33557 19.33259
#
# Velocity S-wave (km/s) = 3.04350 3.20571 3.12566
# Velocity P-wave (km/s) = 6.33617 6.52732 6.43245
#
# Compressibility (1/GPa) = 0.01818028
#
# Stress axis : x y z
#
# Youngs Moduli (GPa) = 50.81624 62.78091 73.58014
#
# Poissons Ratio (x) = 0.41947 0.26896
# Poissons Ratio (y) = 0.33953 0.38055
# Poissons Ratio (z) = 0.18575 0.32470
#
# Static dielectric constant tensor:
#      x y z
#    x 1.751730 0.000000 0.000000 
#    y 0.000000 1.685680 0.000000 
#    z 0.000000 0.000000 1.842710 
# 
# From -- ./inp_files/19946.got.cif
#   From: 2010.05.17/outbox.cif.g08.bks.cpg/sg74_10_cif.got.tgz:19946.got - 2010.06.03 17:57:02.
