data_PCOD9539426
_publ_section_title
;
Structure prediction by ZEFSAII (Michael W. Deem and Ramdas Pophale) SiO2 
 PCOD9539426
Probable space group: I M M A
;
_chemical_formula_sum "Si O2"
_cell_formula_units_Z 96
_cell_length_a 20.840128
_cell_length_b 16.782554
_cell_length_c 13.393061
_cell_angle_alpha 90.000000
_cell_angle_beta 90.000000
_cell_angle_gamma 90.000000
_cell_volume 4684.230766
_symmetry_space_group_name_H-M "I M M A"
_symmetry_group_IT_number 74
_symmetry_cell_setting 'orthorhombic'
loop_
_space_group_symop_operation_xyz
x,y,z
-x,1/2-y,z
x,-y,-z
-x,1/2+y,-z
-x,-y,-z
x,1/2+y,-z
-x,y,z
x,1/2-y,z
1/2+x,1/2+y,1/2+z
1/2-x,-y,1/2+z
1/2+x,1/2-y,1/2-z
1/2-x,y,1/2-z
1/2-x,1/2-y,1/2-z
1/2+x,y,1/2-z
1/2-x,1/2+y,1/2+z
1/2+x,-y,1/2+z
loop_
_atom_site_type_symbol
_atom_site_label
_atom_site_fract_x
_atom_site_fract_y
_atom_site_fract_z
Si Si1 0.782679 0.340062 0.360324
Si Si2 0.369284 0.997117 0.887961
Si Si3 0.568909 0.539688 0.687966
Si Si4 0.647773 0.836166 0.576847
Si Si5 0.679576 0.160999 0.800174
Si Si6 0.574544 0.363382 0.626927
O O1 0.811044 0.250000 0.369236
O O2 0.750000 0.344307 0.250000
O O3 0.825796 0.417623 0.376865
O O4 0.723568 0.345177 0.438613
O O5 0.421799 0.986416 0.801829
O O6 0.333110 0.081030 0.864535
O O7 0.394570 0.000000 0.000000
O O8 0.500000 0.578937 0.672100
O O9 0.623989 0.596708 0.650927
O O10 0.572591 0.459014 0.625660
O O11 0.638355 0.750000 0.625335
O O12 0.606809 0.838244 0.476352
O O13 0.676982 0.250000 0.848264
O O14 0.750000 0.153816 0.750000
O O15 0.623081 0.159902 0.715984
O O16 0.500000 0.337916 0.639064
#
# Coordination Sequence:
#
# PCOD9539426 Si02
#       6
#    16  16  16  16  16  16
#     4  10  21  39  60  87 123 160 201 247 303 367
#     4  11  24  39  62  86 114 163 206 252 306 354
#     4  10  22  40  59  83 118 158 202 250 298 361
#     4  11  22  35  59  93 123 154 195 245 305 374
#     4  10  23  41  61  91 126 159 205 259 305 361
#     4  10  22  40  63  91 126 165 199 242 312 384
#
# _framework density 20.494292999999999
#
# number of rings (size 3 to 8) (size 9 to 14) (size 15 to 20)
#    0.000    1.667    1.667    2.000    4.667    4.667 
#    0.000    0.000    0.000    0.000    0.000    2.333 
#    0.000    0.000    0.000    0.000    0.000    0.000 
#
# Total GULP energy -267781.145078 kJ/mol
# GULP energy per Si atom -5578.773856 kJ/mol
# Density = 2.044765 g / cm^3
# Si number density = 20.494293 Si / 1000 Ang^3
#
#
#
# Elastic Constant Matrix: (Units=GPa)
#
#
# Indices 1 2 3 4 5 6 
#
# 1 84.8350 25.4716 7.1687 0.0000 0.0000 0.0000
# 2 25.4716 136.5079 16.6980 0.0000 0.0000 0.0000
# 3 7.1687 16.6980 67.3232 0.0000 0.0000 0.0000
# 4 0.0000 0.0000 0.0000 6.0621 0.0000 0.0000
# 5 0.0000 0.0000 0.0000 0.0000 19.1975 0.0000
# 6 0.0000 0.0000 0.0000 0.0000 0.0000 -39.9653
#
#
#
# Elastic Compliance Matrix: (Units=1/GPa)
#
#
# Indices 1 2 3 4 5 6 
#
# 1 0.012527 -0.002242 -0.000778 0.000000 0.000000 0.000000
# 2 -0.002242 0.007956 -0.001735 0.000000 0.000000 0.000000
# 3 -0.000778 -0.001735 0.015367 0.000000 0.000000 0.000000
# 4 0.000000 0.000000 0.000000 0.164959 0.000000 0.000000
# 5 0.000000 0.000000 0.000000 0.000000 0.052090 0.000000
# 6 0.000000 0.000000 0.000000 0.000000 0.000000 -0.025022
#
#
# Mechanical properties :
#
#
# Convention : Reuss Voigt Hill
#
# Bulk Modulus (GPa) = 37.96455 43.03808 40.50132
# Shear Modulus (GPa) = 20.31149 13.01406 16.66278
#
# Velocity S-wave (km/s) = 3.15156 2.52267 2.85449
# Velocity P-wave (km/s) = 5.63984 5.43422 5.53798
#
# Compressibility (1/GPa) = 0.02634036
#
# Stress axis : x y z
#
# Youngs Moduli (GPa) = 79.83049 125.68890 65.07555
#
# Poissons Ratio (x) = 0.28183 0.05061
# Poissons Ratio (y) = 0.17900 0.11288
# Poissons Ratio (z) = 0.06208 0.21802
#
# Static dielectric constant tensor:
#      x y z
#    x 1.726300 0.000000 0.000000 
#    y 0.000000 1.764500 0.000000 
#    z 0.000000 0.000000 1.741280 
# 
# From -- ./inp_files/35259.got.cif
#   From: 2010.05.17/outbox.cif.g08.bks.cpg/sg74_18_cif.got.tgz:35259.got - 2010.06.03 17:57:02.
