data_PCOD9539009
_publ_section_title
;
Structure prediction by ZEFSAII (Michael W. Deem and Ramdas Pophale) SiO2 
 PCOD9539009
Probable space group: I M M A
;
_chemical_formula_sum "Si O2"
_cell_formula_units_Z 96
_cell_length_a 14.340375
_cell_length_b 24.381431
_cell_length_c 14.279444
_cell_angle_alpha 90.000000
_cell_angle_beta 90.000000
_cell_angle_gamma 90.000000
_cell_volume 4992.648573
_symmetry_space_group_name_H-M "I M M A"
_symmetry_group_IT_number 74
_symmetry_cell_setting 'orthorhombic'
loop_
_space_group_symop_operation_xyz
x,y,z
-x,1/2-y,z
x,-y,-z
-x,1/2+y,-z
-x,-y,-z
x,1/2+y,-z
-x,y,z
x,1/2-y,z
1/2+x,1/2+y,1/2+z
1/2-x,-y,1/2+z
1/2+x,1/2-y,1/2-z
1/2-x,y,1/2-z
1/2-x,1/2-y,1/2-z
1/2+x,y,1/2-z
1/2-x,1/2+y,1/2+z
1/2+x,-y,1/2+z
loop_
_atom_site_type_symbol
_atom_site_label
_atom_site_fract_x
_atom_site_fract_y
_atom_site_fract_z
Si Si1 0.392294 0.037270 0.087736
Si Si2 0.792482 0.186047 0.982182
Si Si3 0.390955 0.997822 0.699867
Si Si4 0.727837 0.391652 0.354405
Si Si5 0.112474 0.879355 0.184086
Si Si6 0.391930 0.813772 0.129231
O O1 0.500000 0.053470 0.074714
O O2 0.385724 0.005640 0.186994
O O3 0.323519 0.087630 0.099440
O O4 0.365084 0.000000 0.000000
O O5 0.814867 0.250000 0.990563
O O6 0.847599 0.158630 0.896765
O O7 0.683334 0.181314 0.952785
O O8 0.813798 0.153121 0.076690
O O9 0.500000 0.992857 0.673980
O O10 0.334703 0.946475 0.658759
O O11 0.354937 0.057805 0.671818
O O12 0.750000 0.370904 0.250000
O O13 0.135271 0.853780 0.285523
O O14 0.000000 0.880339 0.179645
O O15 0.500000 0.824761 0.102954
O O16 0.387489 0.750000 0.162232
#
# Coordination Sequence:
#
# PCOD9539009 Si02
#       6
#    16  16  16  16  16  16
#     4   9  19  34  56  86 116 145 181 226 278 342
#     4  11  24  38  57  83 110 150 200 239 275 328
#     4   9  20  38  57  84 117 148 183 226 284 343
#     4  10  23  39  58  81 113 151 189 240 283 328
#     4  10  21  36  58  86 118 150 180 225 283 347
#     4   9  19  36  57  84 118 149 180 226 281 336
#
# _framework density 19.228270999999999
#
# number of rings (size 3 to 8) (size 9 to 14) (size 15 to 20)
#    0.000    2.333    0.000    1.000    4.667    6.667 
#    0.000    1.667    0.000    0.000    0.000    7.000 
#    0.000    0.000    0.000    0.000    0.000    0.000 
#
# Total GULP energy -268008.486201 kJ/mol
# GULP energy per Si atom -5583.510129 kJ/mol
# Density = 1.918451 g / cm^3
# Si number density = 19.228271 Si / 1000 Ang^3
#
#
#
# Elastic Constant Matrix: (Units=GPa)
#
#
# Indices 1 2 3 4 5 6 
#
# 1 25.2860 23.9219 15.8158 0.0000 0.0000 0.0000
# 2 23.9219 122.1844 70.6718 0.0000 0.0001 0.0000
# 3 15.8158 70.6718 71.7566 0.0000 0.0001 0.0000
# 4 0.0000 0.0000 0.0000 33.3285 0.0001 0.0000
# 5 0.0000 0.0001 0.0001 0.0001 0.3707 0.0000
# 6 0.0000 0.0000 0.0000 0.0000 0.0000 17.2993
#
#
#
# Elastic Compliance Matrix: (Units=1/GPa)
#
#
# Indices 1 2 3 4 5 6 
#
# 1 0.048839 -0.007751 -0.003130 0.000000 0.000006 0.000000
# 2 -0.007751 0.020249 -0.018234 0.000000 0.000000 0.000000
# 3 -0.003130 -0.018234 0.032584 0.000000 -0.000003 0.000000
# 4 0.000000 0.000000 0.000000 0.030004 -0.000004 0.000000
# 5 0.000006 0.000000 -0.000003 -0.000004 2.697374 0.000000
# 6 0.000000 0.000000 0.000000 0.000000 0.000000 0.057806
#
#
# Mechanical properties :
#
#
# Convention : Reuss Voigt Hill
#
# Bulk Modulus (GPa) = 23.02013 48.89401 35.95707
# Shear Modulus (GPa) = 1.68944 17.45419 9.57181
#
# Velocity S-wave (km/s) = 0.93836 3.01613 2.23356
# Velocity P-wave (km/s) = 3.62933 6.13293 5.03909
#
# Compressibility (1/GPa) = 0.04344024
#
# Stress axis : x y z
#
# Youngs Moduli (GPa) = 20.47560 49.38626 30.68961
#
# Poissons Ratio (x) = 0.38281 0.09607
# Poissons Ratio (y) = 0.15871 0.55959
# Poissons Ratio (z) = 0.06409 0.90051
#
# Static dielectric constant tensor:
#      x y z
#    x 1.701860 0.000000 0.000000 
#    y 0.000000 1.665530 0.000000 
#    z 0.000000 0.000000 1.642740 
# 
# From -- ./inp_files/32401.got.cif
#   From: 2010.05.17/outbox.cif.g08.bks.cpg/sg74_17_cif.got.tgz:32401.got - 2010.06.03 17:57:02.
