data_PCOD9539926
_publ_section_title
;
Structure prediction by ZEFSAII (Michael W. Deem and Ramdas Pophale) SiO2 
 PCOD9539926
Probable space group: I M M A
;
_chemical_formula_sum "Si O2"
_cell_formula_units_Z 68
_cell_length_a 9.420737
_cell_length_b 17.538467
_cell_length_c 22.128921
_cell_angle_alpha 90.000000
_cell_angle_beta 90.000000
_cell_angle_gamma 90.000000
_cell_volume 3656.257279
_symmetry_space_group_name_H-M "I M M A"
_symmetry_group_IT_number 74
_symmetry_cell_setting 'orthorhombic'
loop_
_space_group_symop_operation_xyz
x,y,z
-x,1/2-y,z
x,-y,-z
-x,1/2+y,-z
-x,-y,-z
x,1/2+y,-z
-x,y,z
x,1/2-y,z
1/2+x,1/2+y,1/2+z
1/2-x,-y,1/2+z
1/2+x,1/2-y,1/2-z
1/2-x,y,1/2-z
1/2-x,1/2-y,1/2-z
1/2+x,y,1/2-z
1/2-x,1/2+y,1/2+z
1/2+x,-y,1/2+z
loop_
_atom_site_type_symbol
_atom_site_label
_atom_site_fract_x
_atom_site_fract_y
_atom_site_fract_z
Si Si1 0.500000 0.750000 0.223610
Si Si2 0.750000 0.870423 0.250000
Si Si3 0.832316 0.838530 0.022816
Si Si4 0.669893 0.389028 0.097183
Si Si5 0.833732 0.458207 0.870180
Si Si6 0.168999 0.750000 0.687018
O O1 0.623767 0.816484 0.227055
O O2 0.803514 0.922299 0.194867
O O3 0.804612 0.750000 0.038175
O O4 0.805446 0.893286 0.079497
O O5 0.000000 0.845207 0.007403
O O6 0.738880 0.863463 0.966049
O O7 0.500000 0.394423 0.091335
O O8 0.737452 0.468865 0.116720
O O9 0.702965 0.324220 0.146796
O O10 0.000000 0.479323 0.875088
O O11 0.250000 0.750000 0.750000
O O12 0.000000 0.750000 0.697964
#
# Coordination Sequence:
#
# PCOD9539926 Si02
#       6
#     4   8  16  16  16   8
#     4  10  24  42  68  86 134 166 220 254 314 370
#     4  11  24  44  66  97 130 174 210 269 314 384
#     4  10  22  41  67  93 123 171 217 257 313 384
#     4  11  24  44  65  94 131 163 211 270 324 378
#     4  11  25  42  64  95 133 170 214 264 317 380
#     4  10  24  44  66  92 125 166 210 263 318 381
#
# _framework density 18.598251999999999
#
# number of rings (size 3 to 8) (size 9 to 14) (size 15 to 20)
#    0.000    1.412    2.353    1.412    6.588    5.647 
#    0.000    0.000    0.000    0.000    0.000    0.000 
#    0.000    0.000    0.000    0.000    0.000    0.000 
#
# Total GULP energy -189509.679473 kJ/mol
# GULP energy per Si atom -5573.814102 kJ/mol
# Density = 1.855592 g / cm^3
# Si number density = 18.598252 Si / 1000 Ang^3
#
#
#
# Elastic Constant Matrix: (Units=GPa)
#
#
# Indices 1 2 3 4 5 6 
#
# 1 70.2711 64.3690 48.6771 0.0000 0.0000 0.0000
# 2 64.3690 164.1100 68.8569 0.0000 0.0000 0.0000
# 3 48.6771 68.8569 136.2326 0.0000 0.0000 0.0000
# 4 0.0000 0.0000 0.0000 2.1486 0.0000 0.0000
# 5 0.0000 0.0000 0.0000 0.0000 28.0117 0.0000
# 6 0.0000 0.0000 0.0000 0.0000 0.0000 35.1401
#
#
#
# Elastic Compliance Matrix: (Units=1/GPa)
#
#
# Indices 1 2 3 4 5 6 
#
# 1 0.024601 -0.007565 -0.004966 0.000000 0.000000 0.000000
# 2 -0.007565 0.010060 -0.002382 0.000000 0.000000 0.000000
# 3 -0.004966 -0.002382 0.010319 0.000000 0.000000 0.000000
# 4 0.000000 0.000000 0.000000 0.465414 0.000000 0.000000
# 5 0.000000 0.000000 0.000000 0.000000 0.035699 0.000000
# 6 0.000000 0.000000 0.000000 0.000000 0.000000 0.028458
#
#
# Mechanical properties :
#
#
# Convention : Reuss Voigt Hill
#
# Bulk Modulus (GPa) = 65.99340 81.60217 73.79778
# Shear Modulus (GPa) = 8.20442 25.64080 16.92261
#
# Velocity S-wave (km/s) = 2.10261 3.71707 3.01973
# Velocity P-wave (km/s) = 6.43858 7.89896 7.20586
#
# Compressibility (1/GPa) = 0.01515303
#
# Stress axis : x y z
#
# Youngs Moduli (GPa) = 40.64913 99.40232 96.91264
#
# Poissons Ratio (x) = 0.75203 0.48129
# Poissons Ratio (y) = 0.30753 0.23080
# Poissons Ratio (z) = 0.20187 0.23673
#
# Static dielectric constant tensor:
#      x y z
#    x 1.623560 0.000000 0.000000 
#    y 0.000000 1.619480 0.000000 
#    z 0.000000 0.000000 1.612240 
# 
# From -- ./inp_files/48151.got.cif
#   From: 2010.05.17/outbox.cif.g08.bks.cpg/sg74_25_cif.got.tgz:48151.got - 2010.06.03 17:57:02.
