data_PCOD9539876
_publ_section_title
;
Structure prediction by ZEFSAII (Michael W. Deem and Ramdas Pophale) SiO2 
 PCOD9539876
Probable space group: I M M A
;
_chemical_formula_sum "Si O2"
_cell_formula_units_Z 100
_cell_length_a 14.767723
_cell_length_b 17.460599
_cell_length_c 19.191204
_cell_angle_alpha 90.000000
_cell_angle_beta 90.000000
_cell_angle_gamma 90.000000
_cell_volume 4948.515080
_symmetry_space_group_name_H-M "I M M A"
_symmetry_group_IT_number 74
_symmetry_cell_setting 'orthorhombic'
loop_
_space_group_symop_operation_xyz
x,y,z
-x,1/2-y,z
x,-y,-z
-x,1/2+y,-z
-x,-y,-z
x,1/2+y,-z
-x,y,z
x,1/2-y,z
1/2+x,1/2+y,1/2+z
1/2-x,-y,1/2+z
1/2+x,1/2-y,1/2-z
1/2-x,y,1/2-z
1/2-x,1/2-y,1/2-z
1/2+x,y,1/2-z
1/2-x,1/2+y,1/2+z
1/2+x,-y,1/2+z
loop_
_atom_site_type_symbol
_atom_site_label
_atom_site_fract_x
_atom_site_fract_y
_atom_site_fract_z
Si Si1 0.897057 0.665361 0.316164
Si Si2 0.256878 0.406584 0.908448
Si Si3 0.599228 0.466662 0.078550
Si Si4 0.664972 0.630594 0.700608
Si Si5 0.269605 0.840393 0.940673
Si Si6 0.606028 0.544129 0.306338
Si Si7 0.500000 0.250000 0.278997
O O1 0.891943 0.750000 0.283988
O O2 0.821343 0.657674 0.374903
O O3 0.881147 0.600264 0.259273
O O4 0.000000 0.656338 0.344442
O O5 0.318495 0.481972 0.894338
O O6 0.164326 0.419997 0.868598
O O7 0.242785 0.385756 0.988943
O O8 0.500000 0.474713 0.111957
O O9 0.634611 0.380004 0.079426
O O10 0.590871 0.500000 0.000000
O O11 0.750000 0.648718 0.750000
O O12 0.698905 0.645364 0.621486
O O13 0.639730 0.541361 0.709091
O O14 0.579938 0.683375 0.718057
O O15 0.277647 0.750000 0.952925
O O16 0.500000 0.541936 0.323022
#
# Coordination Sequence:
#
# PCOD9539876 Si02
#       7
#    16  16  16  16  16  16   4
#     4  10  22  40  67  99 138 176 217 270 335 402
#     4  11  21  40  66  96 133 175 217 272 328 402
#     4   9  19  36  58  86 125 168 210 258 323 396
#     4  12  25  48  71  98 131 175 228 282 338 401
#     4  11  24  41  64  95 133 171 218 274 334 395
#     4  11  24  43  67  99 131 179 231 272 329 398
#     4  12  26  48  76  92 138 174 224 286 350 392
#
# _framework density 20.208081
#
# number of rings (size 3 to 8) (size 9 to 14) (size 15 to 20)
#    0.000    1.280    3.200    2.640    0.000    2.880 
#    2.880    0.800    0.000    0.000    0.000    0.000 
#    0.000    0.000    0.000    0.000    0.000    0.000 
#
# Total GULP energy -278812.945664 kJ/mol
# GULP energy per Si atom -5576.258913 kJ/mol
# Density = 2.016209 g / cm^3
# Si number density = 20.208081 Si / 1000 Ang^3
#
#
#
# Elastic Constant Matrix: (Units=GPa)
#
#
# Indices 1 2 3 4 5 6 
#
# 1 147.8168 43.2668 71.0661 0.0000 0.0000 0.0000
# 2 43.2668 122.0865 31.5655 0.0000 0.0000 0.0000
# 3 71.0661 31.5655 81.2812 0.0000 0.0000 0.0000
# 4 0.0000 0.0000 0.0000 23.3792 0.0000 0.0000
# 5 0.0000 0.0000 0.0000 0.0000 0.0773 0.0000
# 6 0.0000 0.0000 0.0000 0.0000 0.0000 20.3435
#
#
#
# Elastic Compliance Matrix: (Units=1/GPa)
#
#
# Indices 1 2 3 4 5 6 
#
# 1 0.011984 -0.001710 -0.009814 0.000000 0.000000 0.000000
# 2 -0.001710 0.009349 -0.002136 0.000000 0.000000 0.000000
# 3 -0.009814 -0.002136 0.021713 0.000000 0.000000 0.000000
# 4 0.000000 0.000000 0.000000 0.042773 0.000000 0.000000
# 5 0.000000 0.000000 0.000000 0.000000 12.939648 0.000000
# 6 0.000000 0.000000 0.000000 0.000000 0.000000 0.049156
#
#
# Mechanical properties :
#
#
# Convention : Reuss Voigt Hill
#
# Bulk Modulus (GPa) = 63.58473 71.44235 67.51354
# Shear Modulus (GPa) = 0.38147 22.44573 11.41360
#
# Velocity S-wave (km/s) = 0.43495 3.33638 2.37914
# Velocity P-wave (km/s) = 5.63787 7.09027 6.40537
#
# Compressibility (1/GPa) = 0.01572705
#
# Stress axis : x y z
#
# Youngs Moduli (GPa) = 83.44670 106.96288 46.05573
#
# Poissons Ratio (x) = 0.18287 0.45198
# Poissons Ratio (y) = 0.14266 0.09837
# Poissons Ratio (z) = 0.81892 0.22846
#
# Static dielectric constant tensor:
#      x y z
#    x 1.700820 0.000000 0.000000 
#    y 0.000000 1.744330 0.000000 
#    z 0.000000 0.000000 1.735170 
# 
# From -- ./inp_files/52127.got.cif
#   From: 2010.05.17/outbox.cif.g08.bks.cpg/sg74_27_cif.got.tgz:52127.got - 2010.06.03 17:57:02.
