data_PCOD9539766
_publ_section_title
;
Structure prediction by ZEFSAII (Michael W. Deem and Ramdas Pophale) SiO2 
 PCOD9539766
Probable space group: I M M A
;
_chemical_formula_sum "Si O2"
_cell_formula_units_Z 68
_cell_length_a 17.266470
_cell_length_b 9.559412
_cell_length_c 23.315253
_cell_angle_alpha 90.000000
_cell_angle_beta 90.000000
_cell_angle_gamma 90.000000
_cell_volume 3848.352721
_symmetry_space_group_name_H-M "I M M A"
_symmetry_group_IT_number 74
_symmetry_cell_setting 'orthorhombic'
loop_
_space_group_symop_operation_xyz
x,y,z
-x,1/2-y,z
x,-y,-z
-x,1/2+y,-z
-x,-y,-z
x,1/2+y,-z
-x,y,z
x,1/2-y,z
1/2+x,1/2+y,1/2+z
1/2-x,-y,1/2+z
1/2+x,1/2-y,1/2-z
1/2-x,y,1/2-z
1/2-x,1/2-y,1/2-z
1/2+x,y,1/2-z
1/2-x,1/2+y,1/2+z
1/2+x,-y,1/2+z
loop_
_atom_site_type_symbol
_atom_site_label
_atom_site_fract_x
_atom_site_fract_y
_atom_site_fract_z
Si Si1 0.159343 0.532461 0.767362
Si Si2 0.138558 0.750000 0.868310
Si Si3 0.854066 0.750000 0.052041
Si Si4 0.749473 0.000000 0.500000
Si Si5 0.909324 0.250000 0.320159
Si Si6 0.697226 0.250000 0.070341
Si Si7 0.906996 0.750000 0.184935
Si Si8 0.000000 0.750000 0.962695
O O1 0.250000 0.530582 0.750000
O O2 0.143333 0.618821 0.825623
O O3 0.116349 0.616212 0.717202
O O4 0.125024 0.382427 0.780622
O O5 0.216136 0.750000 0.904677
O O6 0.067337 0.750000 0.911753
O O7 0.805343 0.891455 0.035971
O O8 0.875393 0.750000 0.119303
O O9 0.931171 0.750000 0.012689
O O10 0.803494 0.106206 0.464889
O O11 0.863494 0.250000 0.379101
O O12 0.000000 0.250000 0.328801
O O13 0.000000 0.750000 0.182494
#
# Coordination Sequence:
#
# PCOD9539766 Si02
#       8
#    16   8   8   8   8   8   8   4
#     4  11  23  42  62  89 120 165 213 259 312 372
#     4  11  21  38  64  87 124 169 213 252 294 365
#     4  11  24  37  55  88 129 172 205 240 293 378
#     4  10  22  39  61  84 122 162 206 240 299 369
#     4  11  23  42  69  88 113 154 215 265 314 368
#     4  11  20  43  61  90 115 157 201 249 305 373
#     4  12  26  37  55  92 135 163 200 261 320 357
#     4  12  24  36  62  94 134 172 210 240 300 388
#
# _framework density 17.669898
#
# number of rings (size 3 to 8) (size 9 to 14) (size 15 to 20)
#    0.000    0.941    5.294    3.176    4.941    0.471 
#    0.000    0.588    0.000    0.000    0.000    0.000 
#    0.000    0.000    0.000    0.000    0.000    0.000 
#
# Total GULP energy -189309.643908 kJ/mol
# GULP energy per Si atom -5567.930703 kJ/mol
# Density = 1.762968 g / cm^3
# Si number density = 17.669898 Si / 1000 Ang^3
#
#
#
# Elastic Constant Matrix: (Units=GPa)
#
#
# Indices 1 2 3 4 5 6 
#
# 1 120.6491 44.0170 79.3553 0.0000 0.0000 0.0000
# 2 44.0170 167.3137 79.6310 0.0000 0.0000 0.0000
# 3 79.3553 79.6310 144.6559 0.0000 0.0000 0.0000
# 4 0.0000 0.0000 0.0000 -32.6370 0.0000 0.0000
# 5 0.0000 0.0000 0.0000 0.0000 34.3929 0.0000
# 6 0.0000 0.0000 0.0000 0.0000 0.0000 3.1074
#
#
#
# Elastic Compliance Matrix: (Units=1/GPa)
#
#
# Indices 1 2 3 4 5 6 
#
# 1 0.012968 -0.000035 -0.007094 0.000000 0.000000 0.000000
# 2 -0.000035 0.008099 -0.004439 0.000000 0.000000 0.000000
# 3 -0.007094 -0.004439 0.013248 0.000000 0.000000 0.000000
# 4 0.000000 0.000000 0.000000 -0.030640 0.000000 0.000000
# 5 0.000000 0.000000 0.000000 0.000000 0.029076 0.000000
# 6 0.000000 0.000000 0.000000 0.000000 0.000000 0.321813
#
#
# Mechanical properties :
#
#
# Convention : Reuss Voigt Hill
#
# Bulk Modulus (GPa) = 89.46349 93.18060 91.32204
# Shear Modulus (GPa) = 13.10870 16.28036 14.69453
#
# Velocity S-wave (km/s) = 2.72668 3.03869 2.88690
# Velocity P-wave (km/s) = 7.78803 8.07218 7.93138
#
# Compressibility (1/GPa) = 0.01117774
#
# Stress axis : x y z
#
# Youngs Moduli (GPa) = 77.11545 123.47648 75.48034
#
# Poissons Ratio (x) = 0.00432 0.53550
# Poissons Ratio (y) = 0.00270 0.33506
# Poissons Ratio (z) = 0.54710 0.54812
#
# Static dielectric constant tensor:
#      x y z
#    x 1.562830 0.000000 0.000000 
#    y 0.000000 1.432830 0.000000 
#    z 0.000000 0.000000 1.623000 
# 
# From -- ./inp_files/52677.got.cif
#   From: 2010.05.17/outbox.cif.g08.bks.cpg/sg74_27_cif.got.tgz:52677.got - 2010.06.03 17:57:02.
