data_PCOD9539542
_publ_section_title
;
Structure prediction by ZEFSAII (Michael W. Deem and Ramdas Pophale) SiO2 
 PCOD9539542
Probable space group: I M M A
;
_chemical_formula_sum "Si O2"
_cell_formula_units_Z 112
_cell_length_a 14.641711
_cell_length_b 14.257036
_cell_length_c 26.008804
_cell_angle_alpha 90.000000
_cell_angle_beta 90.000000
_cell_angle_gamma 90.000000
_cell_volume 5429.270234
_symmetry_space_group_name_H-M "I M M A"
_symmetry_group_IT_number 74
_symmetry_cell_setting 'orthorhombic'
loop_
_space_group_symop_operation_xyz
x,y,z
-x,1/2-y,z
x,-y,-z
-x,1/2+y,-z
-x,-y,-z
x,1/2+y,-z
-x,y,z
x,1/2-y,z
1/2+x,1/2+y,1/2+z
1/2-x,-y,1/2+z
1/2+x,1/2-y,1/2-z
1/2-x,y,1/2-z
1/2-x,1/2-y,1/2-z
1/2+x,y,1/2-z
1/2-x,1/2+y,1/2+z
1/2+x,-y,1/2+z
loop_
_atom_site_type_symbol
_atom_site_label
_atom_site_fract_x
_atom_site_fract_y
_atom_site_fract_z
Si Si1 0.786840 0.853207 0.101918
Si Si2 0.209176 0.941001 0.901434
Si Si3 0.096685 0.647007 0.818538
Si Si4 0.893548 0.142563 0.005254
Si Si5 0.603273 0.644345 0.157564
Si Si6 0.893106 0.861802 0.622032
Si Si7 0.148985 0.967639 0.726337
O O1 0.816016 0.750000 0.123207
O O2 0.677880 0.856901 0.111952
O O3 0.812548 0.956382 0.122376
O O4 0.828701 0.856707 0.044885
O O5 0.176103 0.868391 0.858752
O O6 0.150085 0.924128 0.952143
O O7 0.316327 0.919285 0.909981
O O8 0.105777 0.750000 0.794205
O O9 0.094664 0.568773 0.775243
O O10 0.000000 0.643937 0.847587
O O11 0.891971 0.250000 0.025308
O O12 0.000000 0.120644 0.993084
O O13 0.500000 0.626805 0.139519
O O14 0.607207 0.750000 0.179298
O O15 0.627179 0.567575 0.200604
O O16 0.881062 0.750000 0.615785
O O17 0.871581 0.895045 0.680234
O O18 0.000000 0.883651 0.611090
O O19 0.250000 0.967027 0.750000
#
# Coordination Sequence:
#
# PCOD9539542 Si02
#       7
#    16  16  16  16  16  16  16
#     4  10  22  40  61  89 119 158 213 261 309 369
#     4  12  22  38  62  90 125 165 209 257 307 372
#     4  11  23  37  57  87 123 162 206 255 307 371
#     4  10  22  41  66  95 128 165 205 256 316 376
#     4  10  21  40  65  89 120 165 213 262 315 370
#     4  11  23  38  58  85 122 164 205 252 303 360
#     4  12  22  37  59  87 120 163 205 254 306 367
#
# _framework density 20.628924000000001
#
# number of rings (size 3 to 8) (size 9 to 14) (size 15 to 20)
#    0.000    1.143    2.857    3.857    0.000    4.857 
#    0.000    1.429    0.000    5.143    0.000    0.000 
#    0.000    0.000    0.000    0.000    0.000    0.000 
#
# Total GULP energy -311966.952904 kJ/mol
# GULP energy per Si atom -5570.838445 kJ/mol
# Density = 2.058197 g / cm^3
# Si number density = 20.628924 Si / 1000 Ang^3
#
#
#
# Elastic Constant Matrix: (Units=GPa)
#
#
# Indices 1 2 3 4 5 6 
#
# 1 137.7487 38.3529 44.6417 0.0000 0.0000 0.0000
# 2 38.3529 131.6718 17.8165 0.0000 0.0000 0.0000
# 3 44.6417 17.8165 50.2557 0.0000 0.0000 0.0000
# 4 0.0000 0.0000 0.0000 31.5806 0.0000 0.0000
# 5 0.0000 0.0000 0.0000 0.0000 21.7018 0.0000
# 6 0.0000 0.0000 0.0000 0.0000 0.0000 33.3189
#
#
#
# Elastic Compliance Matrix: (Units=1/GPa)
#
#
# Indices 1 2 3 4 5 6 
#
# 1 0.010633 -0.001911 -0.008768 0.000000 0.000000 0.000000
# 2 -0.001911 0.008321 -0.001252 0.000000 0.000000 0.000000
# 3 -0.008768 -0.001252 0.028131 0.000000 0.000000 0.000000
# 4 0.000000 0.000000 0.000000 0.031665 0.000000 0.000000
# 5 0.000000 0.000000 0.000000 0.000000 0.046079 0.000000
# 6 0.000000 0.000000 0.000000 0.000000 0.000000 0.030013
#
#
# Mechanical properties :
#
#
# Convention : Reuss Voigt Hill
#
# Bulk Modulus (GPa) = 43.06233 57.92206 50.49220
# Shear Modulus (GPa) = 26.81760 31.91127 29.36444
#
# Velocity S-wave (km/s) = 3.60946 3.93736 3.77697
# Velocity P-wave (km/s) = 6.18797 6.98637 6.59926
#
# Compressibility (1/GPa) = 0.02322215
#
# Stress axis : x y z
#
# Youngs Moduli (GPa) = 94.04588 120.18243 35.54837
#
# Poissons Ratio (x) = 0.22964 0.31168
# Poissons Ratio (y) = 0.17970 0.04452
# Poissons Ratio (z) = 0.82458 0.15053
#
# Static dielectric constant tensor:
#      x y z
#    x 1.809430 0.000000 0.000000 
#    y 0.000000 1.795940 0.000000 
#    z 0.000000 0.000000 1.684740 
# 
# From -- ./inp_files/67201.got.cif
#   From: 2010.05.17/outbox.cif.g08.bks.cpg/sg74_34_cif.got.tgz:67201.got - 2010.06.03 17:57:02.
