data_PCOD9539279
_publ_section_title
;
Structure prediction by ZEFSAII (Michael W. Deem and Ramdas Pophale) SiO2 
 PCOD9539279
Probable space group: I M M A
;
_chemical_formula_sum "Si O2"
_cell_formula_units_Z 88
_cell_length_a 21.085750
_cell_length_b 8.959857
_cell_length_c 24.065262
_cell_angle_alpha 90.000000
_cell_angle_beta 90.000000
_cell_angle_gamma 90.000000
_cell_volume 4546.536957
_symmetry_space_group_name_H-M "I M M A"
_symmetry_group_IT_number 74
_symmetry_cell_setting 'orthorhombic'
loop_
_space_group_symop_operation_xyz
x,y,z
-x,1/2-y,z
x,-y,-z
-x,1/2+y,-z
-x,-y,-z
x,1/2+y,-z
-x,y,z
x,1/2-y,z
1/2+x,1/2+y,1/2+z
1/2-x,-y,1/2+z
1/2+x,1/2-y,1/2-z
1/2-x,y,1/2-z
1/2-x,1/2-y,1/2-z
1/2+x,y,1/2-z
1/2-x,1/2+y,1/2+z
1/2+x,-y,1/2+z
loop_
_atom_site_type_symbol
_atom_site_label
_atom_site_fract_x
_atom_site_fract_y
_atom_site_fract_z
Si Si1 0.116008 0.930041 0.125413
Si Si2 0.425954 0.912844 0.050520
Si Si3 0.140985 0.570590 0.347620
Si Si4 0.747340 0.429060 0.562396
Si Si5 0.000000 0.071461 0.060051
Si Si6 0.576308 0.570294 0.742048
O O1 0.109623 0.750000 0.126490
O O2 0.181529 0.966686 0.093771
O O3 0.105631 0.994027 0.187165
O O4 0.060865 0.008298 0.091104
O O5 0.500000 0.899512 0.039736
O O6 0.396524 0.750000 0.050138
O O7 0.417209 0.971273 0.111681
O O8 0.396393 0.000000 0.000000
O O9 0.143720 0.750000 0.335793
O O10 0.199053 0.533654 0.390195
O O11 0.122452 0.485281 0.291793
O O12 0.751519 0.500000 0.500000
O O13 0.748879 0.250000 0.554875
O O14 0.000000 0.250000 0.058774
O O15 0.000000 0.000000 0.000000
O O16 0.500000 0.530063 0.748238
O O17 0.578418 0.750000 0.737752
#
# Coordination Sequence:
#
# PCOD9539279 Si02
#       6
#    16  16  16  16   8  16
#     4  11  23  41  65  92 124 165 207 253 316 376
#     4   9  17  29  48  75 106 144 192 245 301 356
#     4  10  21  38  59  84 119 163 207 250 303 369
#     4  10  23  41  63  93 126 163 208 256 308 374
#     4  12  24  40  64  96 128 160 205 258 313 374
#     4  11  24  41  62  91 125 161 209 265 315 370
#
# _framework density 19.355391000000001
#
# number of rings (size 3 to 8) (size 9 to 14) (size 15 to 20)
#    0.000    1.636    0.909    3.545    0.000    6.909 
#    0.000    5.455    0.000    0.000    0.000    0.000 
#    0.000    0.000    0.000    0.000    0.000    0.000 
#
# Total GULP energy -244975.118997 kJ/mol
# GULP energy per Si atom -5567.616341 kJ/mol
# Density = 1.931134 g / cm^3
# Si number density = 19.355391 Si / 1000 Ang^3
#
#
#
# Elastic Constant Matrix: (Units=GPa)
#
#
# Indices 1 2 3 4 5 6 
#
# 1 132.3292 56.1363 68.0008 0.0000 0.0000 0.0000
# 2 56.1363 79.8746 77.8043 0.0000 0.0000 0.0000
# 3 68.0008 77.8043 203.0196 0.0000 0.0000 0.0000
# 4 0.0000 0.0000 0.0000 37.7512 0.0000 0.0000
# 5 0.0000 0.0000 0.0000 0.0000 57.5510 0.0000
# 6 0.0000 0.0000 0.0000 0.0000 0.0000 -202.4607
#
#
#
# Elastic Compliance Matrix: (Units=1/GPa)
#
#
# Indices 1 2 3 4 5 6 
#
# 1 0.010931 -0.006568 -0.001144 0.000000 0.000000 0.000000
# 2 -0.006568 0.023923 -0.006968 0.000000 0.000000 0.000000
# 3 -0.001144 -0.006968 0.007979 0.000000 0.000000 0.000000
# 4 0.000000 0.000000 0.000000 0.026489 0.000000 0.000000
# 5 0.000000 0.000000 0.000000 0.000000 0.017376 0.000000
# 6 0.000000 0.000000 0.000000 0.000000 0.000000 -0.004939
#
#
# Mechanical properties :
#
#
# Convention : Reuss Voigt Hill
#
# Bulk Modulus (GPa) = 74.22340 91.01179 82.61759
# Shear Modulus (GPa) = 43.24825 -7.21289 18.01768
#
# Velocity S-wave (km/s) = 4.73210 -1.93252 3.05435
# Velocity P-wave (km/s) = 8.26365 6.49184 7.43075
#
# Compressibility (1/GPa) = 0.01347284
#
# Stress axis : x y z
#
# Youngs Moduli (GPa) = 91.48195 41.80036 125.32184
#
# Poissons Ratio (x) = 0.27453 0.14341
# Poissons Ratio (y) = 0.60083 0.87329
# Poissons Ratio (z) = 0.10469 0.29128
#
# Static dielectric constant tensor:
#      x y z
#    x 1.743850 0.000000 0.000000 
#    y 0.000000 1.690760 0.000000 
#    z 0.000000 0.000000 1.702640 
# 
# From -- ./inp_files/61421.got.cif
#   From: 2010.05.17/outbox.cif.g08.bks.cpg/sg74_31_cif.got.tgz:61421.got - 2010.06.03 17:57:02.
