data_PCOD9539835
_publ_section_title
;
Structure prediction by ZEFSAII (Michael W. Deem and Ramdas Pophale) SiO2 
 PCOD9539835
Probable space group: I M M A
;
_chemical_formula_sum "Si O2"
_cell_formula_units_Z 56
_cell_length_a 27.675950
_cell_length_b 16.557131
_cell_length_c 4.905452
_cell_angle_alpha 90.000000
_cell_angle_beta 90.000000
_cell_angle_gamma 90.000000
_cell_volume 2247.846509
_symmetry_space_group_name_H-M "I M M A"
_symmetry_group_IT_number 74
_symmetry_cell_setting 'orthorhombic'
loop_
_space_group_symop_operation_xyz
x,y,z
-x,1/2-y,z
x,-y,-z
-x,1/2+y,-z
-x,-y,-z
x,1/2+y,-z
-x,y,z
x,1/2-y,z
1/2+x,1/2+y,1/2+z
1/2-x,-y,1/2+z
1/2+x,1/2-y,1/2-z
1/2-x,y,1/2-z
1/2-x,1/2-y,1/2-z
1/2+x,y,1/2-z
1/2-x,1/2+y,1/2+z
1/2+x,-y,1/2+z
loop_
_atom_site_type_symbol
_atom_site_label
_atom_site_fract_x
_atom_site_fract_y
_atom_site_fract_z
Si Si1 0.694268 0.082528 0.348580
Si Si2 0.896883 0.154760 0.223370
Si Si3 0.714269 0.250000 0.510470
Si Si4 0.555828 0.079567 0.815121
O O1 0.750000 0.076946 0.250000
O O2 0.650649 0.108007 0.150856
O O3 0.689830 0.163129 0.529855
O O4 0.684206 0.000000 0.500000
O O5 0.887851 0.250000 0.171112
O O6 0.936248 0.148801 0.460716
O O7 0.914466 0.104978 0.955889
O O8 0.750000 0.250000 0.750000
O O9 0.750000 0.250000 0.250000
O O10 0.500000 0.071669 0.732106
O O11 0.567718 0.000000 0.000000
#
# Coordination Sequence:
#
# PCOD9539835 Si02
#       4
#    16  16   8  16
#     4  11  24  44  69 102 140 189 238 292 354 425
#     4  12  26  45  72 107 146 190 240 301 363 435
#     4  10  22  40  62  90 127 170 223 280 332 400
#     4  11  25  47  74 105 143 188 241 302 364 435
#
# _framework density 24.912731000000001
#
# number of rings (size 3 to 8) (size 9 to 14) (size 15 to 20)
#    0.000    0.857    1.429    5.143    0.000   13.714 
#    0.000    0.000    0.000    0.000    0.000    0.000 
#    0.000    0.000    0.000    0.000    0.000    0.000 
#
# Total GULP energy -156144.314627 kJ/mol
# GULP energy per Si atom -5576.582665 kJ/mol
# Density = 2.485603 g / cm^3
# Si number density = 24.912731 Si / 1000 Ang^3
#
#
#
# Elastic Constant Matrix: (Units=GPa)
#
#
# Indices 1 2 3 4 5 6 
#
# 1 134.3312 44.5955 28.5054 0.0000 0.0000 0.0000
# 2 44.5955 200.8836 29.7105 0.0000 0.0000 0.0000
# 3 28.5054 29.7105 124.7231 0.0000 0.0000 0.0000
# 4 0.0000 0.0000 0.0000 28.9965 0.0000 0.0000
# 5 0.0000 0.0000 0.0000 0.0000 38.9511 0.0000
# 6 0.0000 0.0000 0.0000 0.0000 0.0000 22.1433
#
#
#
# Elastic Compliance Matrix: (Units=1/GPa)
#
#
# Indices 1 2 3 4 5 6 
#
# 1 0.008303 -0.001620 -0.001512 0.000000 0.000000 0.000000
# 2 -0.001620 0.005476 -0.000934 0.000000 0.000000 0.000000
# 3 -0.001512 -0.000934 0.008586 0.000000 0.000000 0.000000
# 4 0.000000 0.000000 0.000000 0.034487 0.000000 0.000000
# 5 0.000000 0.000000 0.000000 0.000000 0.025673 0.000000
# 6 0.000000 0.000000 0.000000 0.000000 0.000000 0.045160
#
#
# Mechanical properties :
#
#
# Convention : Reuss Voigt Hill
#
# Bulk Modulus (GPa) = 70.25877 73.95120 72.10499
# Shear Modulus (GPa) = 35.57187 41.82661 38.69924
#
# Velocity S-wave (km/s) = 3.78280 4.10191 3.94559
# Velocity P-wave (km/s) = 6.88060 7.22377 7.05427
#
# Compressibility (1/GPa) = 0.01423310
#
# Stress axis : x y z
#
# Youngs Moduli (GPa) = 120.44180 182.62430 116.47107
#
# Poissons Ratio (x) = 0.29578 0.17608
# Poissons Ratio (y) = 0.19507 0.10881
# Poissons Ratio (z) = 0.18208 0.17061
#
# Static dielectric constant tensor:
#      x y z
#    x 2.189320 0.000000 0.000000 
#    y 0.000000 1.970480 0.000000 
#    z 0.000000 0.000000 1.915870 
# 
# From -- ./inp_files/4821.got.cif
#   From: 2010.05.17/outbox.cif.g08.bks.cpg/sg74_3_cif.got.tgz:4821.got - 2010.06.03 17:57:02.
