data_PCOD9539306
_publ_section_title
;
Structure prediction by ZEFSAII (Michael W. Deem and Ramdas Pophale) SiO2 
 PCOD9539306
Probable space group: I M M A
;
_chemical_formula_sum "Si O2"
_cell_formula_units_Z 104
_cell_length_a 7.863735
_cell_length_b 25.816375
_cell_length_c 23.108215
_cell_angle_alpha 90.000000
_cell_angle_beta 90.000000
_cell_angle_gamma 90.000000
_cell_volume 4691.271094
_symmetry_space_group_name_H-M "I M M A"
_symmetry_group_IT_number 74
_symmetry_cell_setting 'orthorhombic'
loop_
_space_group_symop_operation_xyz
x,y,z
-x,1/2-y,z
x,-y,-z
-x,1/2+y,-z
-x,-y,-z
x,1/2+y,-z
-x,y,z
x,1/2-y,z
1/2+x,1/2+y,1/2+z
1/2-x,-y,1/2+z
1/2+x,1/2-y,1/2-z
1/2-x,y,1/2-z
1/2-x,1/2-y,1/2-z
1/2+x,y,1/2-z
1/2-x,1/2+y,1/2+z
1/2+x,-y,1/2+z
loop_
_atom_site_type_symbol
_atom_site_label
_atom_site_fract_x
_atom_site_fract_y
_atom_site_fract_z
Si Si1 0.297247 0.750000 0.183509
Si Si2 0.302687 0.624480 0.582216
Si Si3 0.195641 0.489163 0.435846
Si Si4 0.306800 0.964565 0.184003
Si Si5 0.792771 0.191276 0.976477
Si Si6 0.301653 0.139627 0.635313
Si Si7 0.203025 0.307655 0.316875
O O1 0.500000 0.750000 0.174478
O O2 0.250000 0.750000 0.250000
O O3 0.218860 0.802335 0.158502
O O4 0.500000 0.612945 0.569346
O O5 0.200923 0.572289 0.572703
O O6 0.245759 0.670124 0.539075
O O7 0.284791 0.647390 0.645782
O O8 0.271850 0.500000 0.500000
O O9 0.273903 0.512567 0.375936
O O10 0.000000 0.508684 0.438602
O O11 0.500000 0.982888 0.182495
O O12 0.250000 0.975865 0.250000
O O13 0.293731 0.902833 0.173081
O O14 0.730882 0.250000 0.965723
O O15 0.737806 0.147747 0.930248
O O16 0.000000 0.193405 0.972325
O O17 0.500000 0.125031 0.635791
O O18 0.260963 0.250000 0.335899
O O19 0.250000 0.312678 0.250000
O O20 0.000000 0.310147 0.323264
#
# Coordination Sequence:
#
# PCOD9539306 Si02
#       7
#     8  16  16  16  16  16  16
#     4  12  24  38  56  82 116 154 197 240 285 344
#     4  11  22  36  61  92 122 157 200 250 304 370
#     4  10  23  44  66  88 121 162 208 264 319 370
#     4  11  24  42  64  90 121 159 203 254 311 371
#     4   9  18  34  57  87 123 160 198 242 296 354
#     4  11  21  38  62  87 119 158 199 246 296 350
#     4  10  21  38  60  87 122 162 203 247 301 366
#
# _framework density 22.168831999999998
#
# number of rings (size 3 to 8) (size 9 to 14) (size 15 to 20)
#    0.000    1.538    0.769    4.385    0.000    3.692 
#    0.000    3.846    0.000    0.000    0.000    0.000 
#    0.000    0.000    0.000    0.000    0.000    0.000 
#
# Total GULP energy -290297.998497 kJ/mol
# GULP energy per Si atom -5582.653817 kJ/mol
# Density = 2.211838 g / cm^3
# Si number density = 22.168832 Si / 1000 Ang^3
#
#
#
# Elastic Constant Matrix: (Units=GPa)
#
#
# Indices 1 2 3 4 5 6 
#
# 1 42.7598 -1.7441 5.0346 0.0000 0.0000 0.0000
# 2 -1.7441 65.6142 44.3880 0.0000 0.0000 0.0000
# 3 5.0346 44.3880 149.6841 0.0000 0.0000 0.0000
# 4 0.0000 0.0000 0.0000 36.6089 0.0000 0.0000
# 5 0.0000 0.0000 0.0000 0.0000 7.0453 0.0000
# 6 0.0000 0.0000 0.0000 0.0000 0.0000 17.5418
#
#
#
# Elastic Compliance Matrix: (Units=1/GPa)
#
#
# Indices 1 2 3 4 5 6 
#
# 1 0.023590 0.001456 -0.001225 0.000000 0.000000 0.000000
# 2 0.001456 0.019155 -0.005729 0.000000 0.000000 0.000000
# 3 -0.001225 -0.005729 0.008421 0.000000 0.000000 0.000000
# 4 0.000000 0.000000 0.000000 0.027316 0.000000 0.000000
# 5 0.000000 0.000000 0.000000 0.000000 0.141939 0.000000
# 6 0.000000 0.000000 0.000000 0.000000 0.000000 0.057007
#
#
# Mechanical properties :
#
#
# Convention : Reuss Voigt Hill
#
# Bulk Modulus (GPa) = 24.89481 39.26833 32.08157
# Shear Modulus (GPa) = 16.56648 26.26450 21.41549
#
# Velocity S-wave (km/s) = 2.73662 3.44575 3.11145
# Velocity P-wave (km/s) = 4.60863 5.79506 5.23556
#
# Compressibility (1/GPa) = 0.04016901
#
# Stress axis : x y z
#
# Youngs Moduli (GPa) = 42.39064 52.20511 118.75143
#
# Poissons Ratio (x) = -0.07601 0.14549
# Poissons Ratio (y) = -0.06172 0.68037
# Poissons Ratio (z) = 0.05194 0.29910
#
# Static dielectric constant tensor:
#      x y z
#    x 1.855920 0.000000 0.000000 
#    y 0.000000 1.781600 0.000000 
#    z 0.000000 0.000000 1.884930 
# 
# From -- ./inp_files/49245.got.cif
#   From: 2010.05.17/outbox.cif.g08.bks.cpg/sg74_25_cif.got.tgz:49245.got - 2010.06.03 17:57:02.
