data_PCOD9539839
_publ_section_title
;
Structure prediction by ZEFSAII (Michael W. Deem and Ramdas Pophale) SiO2 
 PCOD9539839
Probable space group: I M M A
;
_chemical_formula_sum "Si O2"
_cell_formula_units_Z 64
_cell_length_a 15.930809
_cell_length_b 11.003555
_cell_length_c 17.456703
_cell_angle_alpha 90.000000
_cell_angle_beta 90.000000
_cell_angle_gamma 90.000000
_cell_volume 3060.082057
_symmetry_space_group_name_H-M "I M M A"
_symmetry_group_IT_number 74
_symmetry_cell_setting 'orthorhombic'
loop_
_space_group_symop_operation_xyz
x,y,z
-x,1/2-y,z
x,-y,-z
-x,1/2+y,-z
-x,-y,-z
x,1/2+y,-z
-x,y,z
x,1/2-y,z
1/2+x,1/2+y,1/2+z
1/2-x,-y,1/2+z
1/2+x,1/2-y,1/2-z
1/2-x,y,1/2-z
1/2-x,1/2-y,1/2-z
1/2+x,y,1/2-z
1/2-x,1/2+y,1/2+z
1/2+x,-y,1/2+z
loop_
_atom_site_type_symbol
_atom_site_label
_atom_site_fract_x
_atom_site_fract_y
_atom_site_fract_z
Si Si1 0.094836 0.116469 0.320719
Si Si2 0.094099 0.022067 0.091064
Si Si3 0.348779 0.884564 0.271936
Si Si4 0.238805 0.118798 0.447095
O O1 0.104643 0.250000 0.282497
O O2 0.163188 0.111455 0.387444
O O3 0.000000 0.111243 0.351168
O O4 0.109358 0.000335 0.267932
O O5 0.172491 0.112588 0.097660
O O6 0.000000 0.057416 0.116643
O O7 0.126820 0.905958 0.139186
O O8 0.088070 0.000000 0.000000
O O9 0.377846 0.750000 0.248235
O O10 0.250000 0.891185 0.250000
O O11 0.234012 0.250000 0.487889
O O12 0.234314 0.000000 0.500000
#
# Coordination Sequence:
#
# PCOD9539839 Si02
#       4
#    16  16  16  16
#     4  10  22  41  64  91 126 170 216 262 321 391
#     4  10  22  40  62  91 128 172 214 260 320 383
#     4  11  23  41  68  99 131 168 214 270 330 388
#     4  10  22  40  62  91 128 169 216 269 321 383
#
# _framework density 20.914472
#
# number of rings (size 3 to 8) (size 9 to 14) (size 15 to 20)
#    0.000    1.750    2.500    0.750    0.000    9.500 
#    0.000    5.000    0.000    0.000    0.000    0.000 
#    0.000    0.000    0.000    0.000    0.000    0.000 
#
# Total GULP energy -178323.956633 kJ/mol
# GULP energy per Si atom -5572.623645 kJ/mol
# Density = 2.086687 g / cm^3
# Si number density = 20.914472 Si / 1000 Ang^3
#
#
#
# Elastic Constant Matrix: (Units=GPa)
#
#
# Indices 1 2 3 4 5 6 
#
# 1 163.7218 58.3038 48.7283 0.0000 0.0000 0.0000
# 2 58.3038 198.8636 50.9604 0.0000 0.0000 0.0000
# 3 48.7283 50.9604 57.9564 0.0000 0.0000 0.0000
# 4 0.0000 0.0000 0.0000 33.5761 0.0000 0.0000
# 5 0.0000 0.0000 0.0000 0.0000 20.9420 0.0000
# 6 0.0000 0.0000 0.0000 0.0000 0.0000 16.1578
#
#
#
# Elastic Compliance Matrix: (Units=1/GPa)
#
#
# Indices 1 2 3 4 5 6 
#
# 1 0.008251 -0.000828 -0.006209 0.000000 0.000000 0.000000
# 2 -0.000828 0.006574 -0.005085 0.000000 0.000000 0.000000
# 3 -0.006209 -0.005085 0.026946 0.000000 0.000000 0.000000
# 4 0.000000 0.000000 0.000000 0.029783 0.000000 0.000000
# 5 0.000000 0.000000 0.000000 0.000000 0.047751 0.000000
# 6 0.000000 0.000000 0.000000 0.000000 0.000000 0.061890
#
#
# Mechanical properties :
#
#
# Convention : Reuss Voigt Hill
#
# Bulk Modulus (GPa) = 57.05321 81.83631 69.44476
# Shear Modulus (GPa) = 23.66527 31.63846 27.65187
#
# Velocity S-wave (km/s) = 3.36747 3.89363 3.64007
# Velocity P-wave (km/s) = 6.51600 7.70894 7.13744
#
# Compressibility (1/GPa) = 0.01752750
#
# Stress axis : x y z
#
# Youngs Moduli (GPa) = 121.20131 152.10817 37.11174
#
# Poissons Ratio (x) = 0.12592 0.23043
# Poissons Ratio (y) = 0.10034 0.18870
# Poissons Ratio (z) = 0.75255 0.77342
#
# Static dielectric constant tensor:
#      x y z
#    x 1.759850 0.000000 0.000000 
#    y 0.000000 1.776240 0.000000 
#    z 0.000000 0.000000 1.816730 
# 
# From -- ./inp_files/40679.got.cif
#   From: 2010.05.17/outbox.cif.g08.bks.cpg/sg74_21_cif.got.tgz:40679.got - 2010.06.03 17:57:02.
