data_PCOD9539859
_publ_section_title
;
Structure prediction by ZEFSAII (Michael W. Deem and Ramdas Pophale) SiO2 
 PCOD9539859
Probable space group: I M M A
;
_chemical_formula_sum "Si O2"
_cell_formula_units_Z 48
_cell_length_a 14.771558
_cell_length_b 10.637013
_cell_length_c 12.675533
_cell_angle_alpha 90.000000
_cell_angle_beta 90.000000
_cell_angle_gamma 90.000000
_cell_volume 1991.646348
_symmetry_space_group_name_H-M "I M M A"
_symmetry_group_IT_number 74
_symmetry_cell_setting 'orthorhombic'
loop_
_space_group_symop_operation_xyz
x,y,z
-x,1/2-y,z
x,-y,-z
-x,1/2+y,-z
-x,-y,-z
x,1/2+y,-z
-x,y,z
x,1/2-y,z
1/2+x,1/2+y,1/2+z
1/2-x,-y,1/2+z
1/2+x,1/2-y,1/2-z
1/2-x,y,1/2-z
1/2-x,1/2-y,1/2-z
1/2+x,y,1/2-z
1/2-x,1/2+y,1/2+z
1/2+x,-y,1/2+z
loop_
_atom_site_type_symbol
_atom_site_label
_atom_site_fract_x
_atom_site_fract_y
_atom_site_fract_z
Si Si1 0.643955 0.532015 0.720168
Si Si2 0.892652 0.750000 0.946755
Si Si3 0.896598 0.616817 0.553750
Si Si4 0.843180 0.250000 0.817251
O O1 0.750000 0.531042 0.750000
O O2 0.628152 0.624830 0.622085
O O3 0.599152 0.593876 0.822468
O O4 0.613634 0.386829 0.708350
O O5 0.000000 0.750000 0.970661
O O6 0.838945 0.750000 0.056224
O O7 0.848334 0.500000 0.500000
O O8 0.852960 0.750000 0.531270
O O9 0.000000 0.622147 0.512511
O O10 0.750000 0.250000 0.750000
#
# Coordination Sequence:
#
# PCOD9539859 Si02
#       4
#    16   8  16   8
#     4  11  24  44  67 100 137 183 232 287 349 416
#     4  12  25  45  72 103 142 189 239 292 358 428
#     4  10  22  40  64  96 132 175 226 280 335 402
#     4  10  26  45  66  97 136 175 234 290 354 428
#
# _framework density 24.100663999999998
#
# number of rings (size 3 to 8) (size 9 to 14) (size 15 to 20)
#    0.000    1.333    1.667    2.500    2.333    9.333 
#    0.000    0.000    0.000    0.000    0.000    0.000 
#    0.000    0.000    0.000    0.000    0.000    0.000 
#
# Total GULP energy -134165.019241 kJ/mol
# GULP energy per Si atom -5590.209135 kJ/mol
# Density = 2.404581 g / cm^3
# Si number density = 24.100664 Si / 1000 Ang^3
#
#
#
# Elastic Constant Matrix: (Units=GPa)
#
#
# Indices 1 2 3 4 5 6 
#
# 1 94.0239 24.6434 23.5759 0.0000 0.0000 0.0000
# 2 24.6434 268.5147 62.6157 0.0000 0.0000 0.0000
# 3 23.5759 62.6157 116.1346 0.0000 0.0000 0.0000
# 4 0.0000 0.0000 0.0000 49.1545 0.0000 0.0000
# 5 0.0000 0.0000 0.0000 0.0000 27.4215 0.0000
# 6 0.0000 0.0000 0.0000 0.0000 0.0000 -143.9640
#
#
#
# Elastic Compliance Matrix: (Units=1/GPa)
#
#
# Indices 1 2 3 4 5 6 
#
# 1 0.011283 -0.000573 -0.001981 0.000000 0.000000 0.000000
# 2 -0.000573 0.004289 -0.002196 0.000000 0.000000 0.000000
# 3 -0.001981 -0.002196 0.010197 0.000000 0.000000 0.000000
# 4 0.000000 0.000000 0.000000 0.020344 0.000000 0.000000
# 5 0.000000 0.000000 0.000000 0.000000 0.036468 0.000000
# 6 0.000000 0.000000 0.000000 0.000000 0.000000 -0.006946
#
#
# Mechanical properties :
#
#
# Convention : Reuss Voigt Hill
#
# Bulk Modulus (GPa) = 61.47396 77.81592 69.64494
# Shear Modulus (GPa) = 55.21331 11.04496 33.12913
#
# Velocity S-wave (km/s) = 4.79157 2.14308 3.71160
# Velocity P-wave (km/s) = 7.49498 6.20336 6.87955
#
# Compressibility (1/GPa) = 0.01626705
#
# Stress axis : x y z
#
# Youngs Moduli (GPa) = 88.63138 233.15897 98.06886
#
# Poissons Ratio (x) = 0.13371 0.19430
# Poissons Ratio (y) = 0.05083 0.21536
# Poissons Ratio (z) = 0.17560 0.51202
#
# Static dielectric constant tensor:
#      x y z
#    x 2.020490 0.000000 0.000000 
#    y 0.000000 2.016190 0.000000 
#    z 0.000000 0.000000 1.871140 
# 
# From -- ./inp_files/21374.got.cif
#   From: 2010.05.17/outbox.cif.g08.bks.cpg/sg74_11_cif.got.tgz:21374.got - 2010.06.03 17:57:02.
