data_PCOD9539893
_publ_section_title
;
Structure prediction by ZEFSAII (Michael W. Deem and Ramdas Pophale) SiO2 
 PCOD9539893
Probable space group: I M M A
;
_chemical_formula_sum "Si O2"
_cell_formula_units_Z 40
_cell_length_a 11.300268
_cell_length_b 21.971297
_cell_length_c 7.083589
_cell_angle_alpha 90.000000
_cell_angle_beta 90.000000
_cell_angle_gamma 90.000000
_cell_volume 1758.724417
_symmetry_space_group_name_H-M "I M M A"
_symmetry_group_IT_number 74
_symmetry_cell_setting 'orthorhombic'
loop_
_space_group_symop_operation_xyz
x,y,z
-x,1/2-y,z
x,-y,-z
-x,1/2+y,-z
-x,-y,-z
x,1/2+y,-z
-x,y,z
x,1/2-y,z
1/2+x,1/2+y,1/2+z
1/2-x,-y,1/2+z
1/2+x,1/2-y,1/2-z
1/2-x,y,1/2-z
1/2-x,1/2-y,1/2-z
1/2+x,y,1/2-z
1/2-x,1/2+y,1/2+z
1/2+x,-y,1/2+z
loop_
_atom_site_type_symbol
_atom_site_label
_atom_site_fract_x
_atom_site_fract_y
_atom_site_fract_z
Si Si1 0.125929 0.427629 0.023219
Si Si2 0.627807 0.382750 0.042405
Si Si3 0.633437 0.750000 0.114204
O O1 0.253169 0.407415 0.949763
O O2 0.127211 0.405451 0.241299
O O3 0.000000 0.403169 0.946717
O O4 0.123223 0.500000 0.000000
O O5 0.500000 0.403534 0.965674
O O6 0.635828 0.310315 0.014520
O O7 0.500000 0.750000 0.207454
O O8 0.750000 0.750000 0.250000
#
# Coordination Sequence:
#
# PCOD9539893 Si02
#       3
#    16  16   8
#     4   9  18  34  57  88 122 154 194 242 297 367
#     4   9  19  37  60  86 117 155 199 251 307 361
#     4  10  22  41  62  86 118 158 208 260 308 358
#
# _framework density 22.743759000000001
#
# number of rings (size 3 to 8) (size 9 to 14) (size 15 to 20)
#    0.000    2.800    0.000    0.000    0.000    5.600 
#    7.200    2.000    0.000    0.000    0.000    0.000 
#    0.000    0.000    0.000    0.000    0.000    0.000 
#
# Total GULP energy -111367.349232 kJ/mol
# GULP energy per Si atom -5568.367462 kJ/mol
# Density = 2.269199 g / cm^3
# Si number density = 22.743759 Si / 1000 Ang^3
#
#
#
# Elastic Constant Matrix: (Units=GPa)
#
#
# Indices 1 2 3 4 5 6 
#
# 1 311.2802 64.8050 33.2370 0.0002 0.0003 0.0000
# 2 64.8050 100.7253 38.1387 -0.0008 -0.0004 0.0000
# 3 33.2370 38.1387 156.0624 -0.0007 -0.0023 0.0009
# 4 0.0002 -0.0008 -0.0007 38.2951 -0.0002 0.0000
# 5 0.0003 -0.0004 -0.0023 -0.0002 -32.4607 -0.0002
# 6 0.0000 0.0000 0.0009 0.0000 -0.0002 33.5985
#
#
#
# Elastic Compliance Matrix: (Units=1/GPa)
#
#
# Indices 1 2 3 4 5 6 
#
# 1 0.003717 -0.002305 -0.000228 0.000000 0.000000 0.000000
# 2 -0.002305 0.012370 -0.002532 0.000000 0.000000 0.000000
# 3 -0.000228 -0.002532 0.007075 0.000000 0.000000 0.000000
# 4 0.000000 0.000000 0.000000 0.026113 0.000000 0.000000
# 5 0.000000 0.000000 0.000000 0.000000 -0.030806 0.000000
# 6 0.000000 0.000000 0.000000 0.000000 0.000000 0.029763
#
#
# Mechanical properties :
#
#
# Convention : Reuss Voigt Hill
#
# Bulk Modulus (GPa) = 76.73948 93.38102 85.06025
# Shear Modulus (GPa) = 79.73811 36.67907 58.20859
#
# Velocity S-wave (km/s) = 5.92752 4.02021 5.06446
# Velocity P-wave (km/s) = 8.98117 7.91811 8.46634
#
# Compressibility (1/GPa) = 0.01303110
#
# Stress axis : x y z
#
# Youngs Moduli (GPa) = 269.05139 80.84321 141.34085
#
# Poissons Ratio (x) = 0.18633 0.03227
# Poissons Ratio (y) = 0.62012 0.35788
# Poissons Ratio (z) = 0.06143 0.20470
#
# Static dielectric constant tensor:
#      x y z
#    x 1.974620 0.000000 0.000000 
#    y 0.000000 1.800350 0.000000 
#    z 0.000000 0.000000 1.764010 
# 
# From -- ./inp_files/6563.got.cif
#   From: 2010.05.17/outbox.cif.g08.bks.cpg/sg74_4_cif.got.tgz:6563.got - 2010.06.03 17:57:02.
