data_PCOD9539177
_publ_section_title
;
Structure prediction by ZEFSAII (Michael W. Deem and Ramdas Pophale) SiO2 
 PCOD9539177
Probable space group: I M M A
;
_chemical_formula_sum "Si O2"
_cell_formula_units_Z 96
_cell_length_a 23.026790
_cell_length_b 13.150874
_cell_length_c 15.177155
_cell_angle_alpha 90.000000
_cell_angle_beta 90.000000
_cell_angle_gamma 90.000000
_cell_volume 4595.982713
_symmetry_space_group_name_H-M "I M M A"
_symmetry_group_IT_number 74
_symmetry_cell_setting 'orthorhombic'
loop_
_space_group_symop_operation_xyz
x,y,z
-x,1/2-y,z
x,-y,-z
-x,1/2+y,-z
-x,-y,-z
x,1/2+y,-z
-x,y,z
x,1/2-y,z
1/2+x,1/2+y,1/2+z
1/2-x,-y,1/2+z
1/2+x,1/2-y,1/2-z
1/2-x,y,1/2-z
1/2-x,1/2-y,1/2-z
1/2+x,y,1/2-z
1/2-x,1/2+y,1/2+z
1/2+x,-y,1/2+z
loop_
_atom_site_type_symbol
_atom_site_label
_atom_site_fract_x
_atom_site_fract_y
_atom_site_fract_z
Si Si1 0.000000 0.627803 0.846872
Si Si2 0.312928 0.928660 0.786220
Si Si3 0.679164 0.363103 0.562240
Si Si4 0.000000 0.125781 0.359267
Si Si5 0.125408 0.071730 0.115358
Si Si6 0.381644 0.629632 0.952015
Si Si7 0.188173 0.630894 0.378274
O O1 0.000000 0.594249 0.743610
O O2 0.942388 0.589380 0.894996
O O3 0.000000 0.750000 0.847635
O O4 0.250000 0.900742 0.750000
O O5 0.358038 0.892736 0.712947
O O6 0.330662 0.885731 0.880577
O O7 0.314976 0.050957 0.799332
O O8 0.664497 0.250000 0.593868
O O9 0.643453 0.454090 0.606086
O O10 0.663088 0.372514 0.459160
O O11 0.747520 0.379548 0.579584
O O12 0.058077 0.090355 0.410380
O O13 0.000000 0.250000 0.358508
O O14 0.390237 0.750000 0.961855
O O15 0.358823 0.597636 0.048078
O O16 0.180524 0.750000 0.355108
#
# Coordination Sequence:
#
# PCOD9539177 Si02
#       7
#     8  16  16   8  16  16  16
#     4  11  22  41  63  89 128 161 196 250 302 356
#     4  12  22  35  60  88 120 154 197 252 304 358
#     4  10  22  41  62  88 124 160 198 250 309 365
#     4   9  18  36  59  84 117 158 197 241 298 353
#     4  11  23  38  62  92 117 156 208 246 297 360
#     4  10  21  37  59  87 120 158 200 247 300 360
#     4  10  22  39  59  86 123 163 199 243 303 362
#
# _framework density 20.887806999999999
#
# number of rings (size 3 to 8) (size 9 to 14) (size 15 to 20)
#    0.000    1.500    3.333    2.000    2.333    3.333 
#    0.000    3.750    0.000    0.000    0.000    0.000 
#    0.000    0.000    0.000    0.000    0.000    0.000 
#
# Total GULP energy -268196.987256 kJ/mol
# GULP energy per Si atom -5587.437235 kJ/mol
# Density = 2.084027 g / cm^3
# Si number density = 20.887807 Si / 1000 Ang^3
#
#
#
# Elastic Constant Matrix: (Units=GPa)
#
#
# Indices 1 2 3 4 5 6 
#
# 1 93.1942 17.0931 14.7317 0.0000 0.0000 0.0000
# 2 17.0931 51.6065 -8.6398 0.0000 0.0000 0.0000
# 3 14.7317 -8.6398 62.3251 0.0000 0.0000 0.0000
# 4 0.0000 0.0000 0.0000 16.7889 0.0000 0.0000
# 5 0.0000 0.0000 0.0000 0.0000 6.1757 0.0000
# 6 0.0000 0.0000 0.0000 0.0000 0.0000 25.9894
#
#
#
# Elastic Compliance Matrix: (Units=1/GPa)
#
#
# Indices 1 2 3 4 5 6 
#
# 1 0.012129 -0.004604 -0.003505 0.000000 0.000000 0.000000
# 2 -0.004604 0.021586 0.004081 0.000000 0.000000 0.000000
# 3 -0.003505 0.004081 0.017439 0.000000 0.000000 0.000000
# 4 0.000000 0.000000 0.000000 0.059563 0.000000 0.000000
# 5 0.000000 0.000000 0.000000 0.000000 0.161924 0.000000
# 6 0.000000 0.000000 0.000000 0.000000 0.000000 0.038477
#
#
# Mechanical properties :
#
#
# Convention : Reuss Voigt Hill
#
# Bulk Modulus (GPa) = 23.20398 28.16620 25.68509
# Shear Modulus (GPa) = 14.99068 22.05353 18.52210
#
# Velocity S-wave (km/s) = 2.68185 3.25285 2.98105
# Velocity P-wave (km/s) = 4.55223 5.25564 4.91653
#
# Compressibility (1/GPa) = 0.04309606
#
# Stress axis : x y z
#
# Youngs Moduli (GPa) = 82.44833 46.32729 57.34250
#
# Poissons Ratio (x) = 0.21330 0.20099
# Poissons Ratio (y) = 0.37960 -0.23399
# Poissons Ratio (z) = 0.28899 -0.18904
#
# Static dielectric constant tensor:
#      x y z
#    x 1.738560 0.000000 0.000000 
#    y 0.000000 1.791320 0.000000 
#    z 0.000000 0.000000 1.740300 
# 
# From -- ./inp_files/35308.got.cif
#   From: 2010.05.17/outbox.cif.g08.bks.cpg/sg74_18_cif.got.tgz:35308.got - 2010.06.03 17:57:02.
