data_PCOD9539523
_publ_section_title
;
Structure prediction by ZEFSAII (Michael W. Deem and Ramdas Pophale) SiO2 
 PCOD9539523
Probable space group: I M M A
;
_chemical_formula_sum "Si O2"
_cell_formula_units_Z 88
_cell_length_a 28.556728
_cell_length_b 27.832767
_cell_length_c 5.042026
_cell_angle_alpha 90.000000
_cell_angle_beta 90.000000
_cell_angle_gamma 90.000000
_cell_volume 4007.466584
_symmetry_space_group_name_H-M "I M M A"
_symmetry_group_IT_number 74
_symmetry_cell_setting 'orthorhombic'
loop_
_space_group_symop_operation_xyz
x,y,z
-x,1/2-y,z
x,-y,-z
-x,1/2+y,-z
-x,-y,-z
x,1/2+y,-z
-x,y,z
x,1/2-y,z
1/2+x,1/2+y,1/2+z
1/2-x,-y,1/2+z
1/2+x,1/2-y,1/2-z
1/2-x,y,1/2-z
1/2-x,1/2-y,1/2-z
1/2+x,y,1/2-z
1/2-x,1/2+y,1/2+z
1/2+x,-y,1/2+z
loop_
_atom_site_type_symbol
_atom_site_label
_atom_site_fract_x
_atom_site_fract_y
_atom_site_fract_z
Si Si1 0.699073 0.805861 0.109138
Si Si2 0.250000 0.870866 0.750000
Si Si3 0.194346 0.447035 0.948080
Si Si4 0.055456 0.195179 0.176061
Si Si5 0.398050 0.848513 0.182537
Si Si6 0.869088 0.053075 0.453210
O O1 0.688621 0.750000 0.061379
O O2 0.750000 0.807680 0.250000
O O3 0.655062 0.831415 0.244615
O O4 0.708459 0.836489 0.845790
O O5 0.229801 0.905725 0.973371
O O6 0.150382 0.442314 0.154348
O O7 0.214364 0.500000 0.000000
O O8 0.175605 0.445586 0.650793
O O9 0.065130 0.250000 0.087689
O O10 0.082110 0.184988 0.448977
O O11 0.000000 0.190409 0.219563
O O12 0.072511 0.159374 0.947135
O O13 0.398414 0.901827 0.057451
O O14 0.890295 0.000000 0.500000
#
# Coordination Sequence:
#
# PCOD9539523 Si02
#       6
#    16   8  16  16  16  16
#     4  11  25  40  59  91 134 181 223 262 312 388
#     4  12  23  38  56  84 128 172 221 276 308 374
#     4  10  22  37  58  83 123 169 223 276 320 363
#     4  11  25  45  71 102 130 161 215 279 336 392
#     4  12  23  43  71  96 130 177 216 265 334 393
#     4  10  21  40  61  92 125 165 215 269 320 388
#
# _framework density 21.959009999999999
#
# number of rings (size 3 to 8) (size 9 to 14) (size 15 to 20)
#    0.000    1.091    1.818    4.636    2.545    3.636 
#    0.000    0.000    0.000    3.273    0.000    0.000 
#    0.000    0.000    0.000    0.000    0.000    0.000 
#
# Total GULP energy -246262.871674 kJ/mol
# GULP energy per Si atom -5596.883447 kJ/mol
# Density = 2.190903 g / cm^3
# Si number density = 21.959010 Si / 1000 Ang^3
#
#
#
# Elastic Constant Matrix: (Units=GPa)
#
#
# Indices 1 2 3 4 5 6 
#
# 1 66.0614 24.3631 18.7462 0.0000 0.0000 0.0000
# 2 24.3631 132.8944 1.8484 0.0000 0.0000 0.0000
# 3 18.7462 1.8484 82.6152 0.0000 0.0000 0.0000
# 4 0.0000 0.0000 0.0000 28.6787 0.0000 0.0000
# 5 0.0000 0.0000 0.0000 0.0000 24.8646 0.0000
# 6 0.0000 0.0000 0.0000 0.0000 0.0000 8.6480
#
#
#
# Elastic Compliance Matrix: (Units=1/GPa)
#
#
# Indices 1 2 3 4 5 6 
#
# 1 0.017394 -0.003135 -0.003877 0.000000 0.000000 0.000000
# 2 -0.003135 0.008092 0.000530 0.000000 0.000000 0.000000
# 3 -0.003877 0.000530 0.012972 0.000000 0.000000 0.000000
# 4 0.000000 0.000000 0.000000 0.034869 0.000000 0.000000
# 5 0.000000 0.000000 0.000000 0.000000 0.040218 0.000000
# 6 0.000000 0.000000 0.000000 0.000000 0.000000 0.115633
#
#
# Mechanical properties :
#
#
# Convention : Reuss Voigt Hill
#
# Bulk Modulus (GPa) = 39.22270 41.27628 40.24949
# Shear Modulus (GPa) = 19.94902 28.21247 24.08075
#
# Velocity S-wave (km/s) = 3.01735 3.58827 3.31512
# Velocity P-wave (km/s) = 5.48085 6.00045 5.74652
#
# Compressibility (1/GPa) = 0.02549544
#
# Stress axis : x y z
#
# Youngs Moduli (GPa) = 57.49240 123.57752 77.08855
#
# Poissons Ratio (x) = 0.38739 0.29884
# Poissons Ratio (y) = 0.18023 -0.04088
# Poissons Ratio (z) = 0.22288 -0.06553
#
# Static dielectric constant tensor:
#      x y z
#    x 1.782690 0.000000 0.000000 
#    y 0.000000 1.836870 0.000000 
#    z 0.000000 0.000000 1.821670 
# 
# From -- ./inp_files/3943.got.cif
#   From: 2010.05.17/outbox.cif.g08.bks.cpg/sg74_2_cif.got.tgz:3943.got - 2010.06.03 17:57:02.
