data_PCOD9539361
_publ_section_title
;
Structure prediction by ZEFSAII (Michael W. Deem and Ramdas Pophale) SiO2 
 PCOD9539361
Probable space group: I M M A
;
_chemical_formula_sum "Si O2"
_cell_formula_units_Z 64
_cell_length_a 8.399755
_cell_length_b 15.919411
_cell_length_c 22.062546
_cell_angle_alpha 90.000000
_cell_angle_beta 90.000000
_cell_angle_gamma 90.000000
_cell_volume 2950.184945
_symmetry_space_group_name_H-M "I M M A"
_symmetry_group_IT_number 74
_symmetry_cell_setting 'orthorhombic'
loop_
_space_group_symop_operation_xyz
x,y,z
-x,1/2-y,z
x,-y,-z
-x,1/2+y,-z
-x,-y,-z
x,1/2+y,-z
-x,y,z
x,1/2-y,z
1/2+x,1/2+y,1/2+z
1/2-x,-y,1/2+z
1/2+x,1/2-y,1/2-z
1/2-x,y,1/2-z
1/2-x,1/2-y,1/2-z
1/2+x,y,1/2-z
1/2-x,1/2+y,1/2+z
1/2+x,-y,1/2+z
loop_
_atom_site_type_symbol
_atom_site_label
_atom_site_fract_x
_atom_site_fract_y
_atom_site_fract_z
Si Si1 0.256288 0.500000 0.000000
Si Si2 0.310982 0.421496 0.880196
Si Si3 0.808164 0.250000 0.819972
Si Si4 0.324449 0.158196 0.079495
Si Si5 0.817807 0.925224 0.811551
O O1 0.202896 0.453741 0.937158
O O2 0.326498 0.583065 0.968315
O O3 0.500000 0.421373 0.897588
O O4 0.258443 0.332328 0.854207
O O5 0.283736 0.492468 0.829382
O O6 0.500000 0.250000 0.678990
O O7 0.750000 0.250000 0.750000
O O8 0.500000 0.158490 0.108299
O O9 0.296613 0.250000 0.051853
O O10 0.201356 0.137168 0.131949
O O11 0.750000 0.887774 0.750000
O O12 0.000000 0.949837 0.803954
#
# Coordination Sequence:
#
# PCOD9539361 Si02
#       5
#     8  16   8  16  16
#     4  10  21  40  67  96 127 166 219 264 313 384
#     4  11  22  40  66  95 127 169 217 268 322 386
#     4  12  26  44  64  96 134 174 223 278 339 402
#     4  10  21  38  62  91 124 163 210 261 310 372
#     4  11  22  39  62  88 123 163 207 258 317 380
#
# _framework density 21.693556000000001
#
# number of rings (size 3 to 8) (size 9 to 14) (size 15 to 20)
#    0.000    1.250    0.000    8.625    1.750    1.000 
#    0.000   15.625    0.000    0.000    0.000    0.000 
#    0.000    0.000    0.000    0.000    0.000    0.000 
#
# Total GULP energy -178217.126905 kJ/mol
# GULP energy per Si atom -5569.285216 kJ/mol
# Density = 2.164418 g / cm^3
# Si number density = 21.693556 Si / 1000 Ang^3
#
#
#
# Elastic Constant Matrix: (Units=GPa)
#
#
# Indices 1 2 3 4 5 6 
#
# 1 86.3594 21.5315 25.0633 0.0000 0.0000 0.0000
# 2 21.5315 173.3421 38.9104 0.0000 0.0000 0.0000
# 3 25.0633 38.9104 107.5483 0.0000 0.0000 0.0000
# 4 0.0000 0.0000 0.0000 15.7036 0.0000 0.0000
# 5 0.0000 0.0000 0.0000 0.0000 -17.9988 0.0000
# 6 0.0000 0.0000 0.0000 0.0000 0.0000 20.6384
#
#
#
# Elastic Compliance Matrix: (Units=1/GPa)
#
#
# Indices 1 2 3 4 5 6 
#
# 1 0.012572 -0.000984 -0.002574 0.000000 0.000000 0.000000
# 2 -0.000984 0.006356 -0.002070 0.000000 0.000000 0.000000
# 3 -0.002574 -0.002070 0.010647 0.000000 0.000000 0.000000
# 4 0.000000 0.000000 0.000000 0.063680 0.000000 0.000000
# 5 0.000000 0.000000 0.000000 0.000000 -0.055559 0.000000
# 6 0.000000 0.000000 0.000000 0.000000 0.000000 0.048453
#
#
# Mechanical properties :
#
#
# Convention : Reuss Voigt Hill
#
# Bulk Modulus (GPa) = 54.58866 59.80668 57.19767
# Shear Modulus (GPa) = 48.30420 22.45160 35.37790
#
# Velocity S-wave (km/s) = 4.72387 3.22054 4.04270
# Velocity P-wave (km/s) = 7.41427 6.43878 6.94368
#
# Compressibility (1/GPa) = 0.01831882
#
# Stress axis : x y z
#
# Youngs Moduli (GPa) = 79.54319 157.33521 93.92362
#
# Poissons Ratio (x) = 0.15479 0.24174
# Poissons Ratio (y) = 0.07826 0.19444
# Poissons Ratio (z) = 0.20473 0.32572
#
# Static dielectric constant tensor:
#      x y z
#    x 1.783770 0.000000 0.000000 
#    y 0.000000 1.771950 0.000000 
#    z 0.000000 0.000000 1.783560 
# 
# From -- ./inp_files/48040.got.cif
#   From: 2010.05.17/outbox.cif.g08.bks.cpg/sg74_25_cif.got.tgz:48040.got - 2010.06.03 17:57:02.
