data_PCOD9539769
_publ_section_title
;
Structure prediction by ZEFSAII (Michael W. Deem and Ramdas Pophale) SiO2 
 PCOD9539769
Probable space group: I M M A
;
_chemical_formula_sum "Si O2"
_cell_formula_units_Z 56
_cell_length_a 14.246246
_cell_length_b 9.220579
_cell_length_c 20.496402
_cell_angle_alpha 90.000000
_cell_angle_beta 90.000000
_cell_angle_gamma 90.000000
_cell_volume 2692.379424
_symmetry_space_group_name_H-M "I M M A"
_symmetry_group_IT_number 74
_symmetry_cell_setting 'orthorhombic'
loop_
_space_group_symop_operation_xyz
x,y,z
-x,1/2-y,z
x,-y,-z
-x,1/2+y,-z
-x,-y,-z
x,1/2+y,-z
-x,y,z
x,1/2-y,z
1/2+x,1/2+y,1/2+z
1/2-x,-y,1/2+z
1/2+x,1/2-y,1/2-z
1/2-x,y,1/2-z
1/2-x,1/2-y,1/2-z
1/2+x,y,1/2-z
1/2-x,1/2+y,1/2+z
1/2+x,-y,1/2+z
loop_
_atom_site_type_symbol
_atom_site_label
_atom_site_fract_x
_atom_site_fract_y
_atom_site_fract_z
Si Si1 0.304846 0.073675 0.933661
Si Si2 0.156442 0.582854 0.170526
Si Si3 0.500000 0.093990 0.561657
Si Si4 0.000000 0.080244 0.405391
Si Si5 0.000000 0.583506 0.750836
O O1 0.303427 0.250000 0.939418
O O2 0.252595 0.035773 0.864785
O O3 0.408176 0.006070 0.927944
O O4 0.263264 0.000000 0.000000
O O5 0.165476 0.750000 0.193384
O O6 0.095558 0.492855 0.222586
O O7 0.088240 0.580277 0.108195
O O8 0.500000 0.250000 0.531870
O O9 0.500000 0.000000 0.500000
O O10 0.000000 0.250000 0.427236
O O11 0.000000 0.080431 0.326860
O O12 0.000000 0.750000 0.774007
#
# Coordination Sequence:
#
# PCOD9539769 Si02
#       5
#    16  16   8   8   8
#     4  11  23  40  63  90 118 154 197 243 295 349
#     4   9  20  37  57  83 117 152 189 236 292 351
#     4   9  16  28  47  75 110 145 179 222 276 336
#     4  11  25  43  60  83 118 158 199 247 295 345
#     4  10  22  39  61  88 118 155 198 241 290 345
#
# _framework density 20.799447000000001
#
# number of rings (size 3 to 8) (size 9 to 14) (size 15 to 20)
#    0.000    2.000    0.000    3.857    0.000    8.000 
#    0.000    5.714    0.000    0.000    0.000    0.000 
#    0.000    0.000    0.000    0.000    0.000    0.000 
#
# Total GULP energy -156098.697928 kJ/mol
# GULP energy per Si atom -5574.953497 kJ/mol
# Density = 2.075211 g / cm^3
# Si number density = 20.799447 Si / 1000 Ang^3
#
#
#
# Elastic Constant Matrix: (Units=GPa)
#
#
# Indices 1 2 3 4 5 6 
#
# 1 102.3407 26.2478 15.9948 0.0000 0.0000 0.0000
# 2 26.2478 76.5038 47.5918 0.0000 0.0000 0.0000
# 3 15.9948 47.5918 77.4316 0.0000 0.0000 0.0000
# 4 0.0000 0.0000 0.0000 29.4025 0.0000 0.0000
# 5 0.0000 0.0000 0.0000 0.0000 20.8629 0.0000
# 6 0.0000 0.0000 0.0000 0.0000 0.0000 -963.9013
#
#
#
# Elastic Compliance Matrix: (Units=1/GPa)
#
#
# Indices 1 2 3 4 5 6 
#
# 1 0.010714 -0.003722 0.000075 0.000000 0.000000 0.000000
# 2 -0.003722 0.022456 -0.013033 0.000000 0.000000 0.000000
# 3 0.000075 -0.013033 0.020910 0.000000 0.000000 0.000000
# 4 0.000000 0.000000 0.000000 0.034011 0.000000 0.000000
# 5 0.000000 0.000000 0.000000 0.000000 0.047932 0.000000
# 6 0.000000 0.000000 0.000000 0.000000 0.000000 -0.001037
#
#
# Mechanical properties :
#
#
# Convention : Reuss Voigt Hill
#
# Bulk Modulus (GPa) = 48.26665 48.43833 48.35249
# Shear Modulus (GPa) = 28.53002 -171.63106 -71.55052
#
# Velocity S-wave (km/s) = 3.70763 -9.09375 -5.87153
# Velocity P-wave (km/s) = 6.44863 9.32324 4.76120
#
# Compressibility (1/GPa) = 0.02071824
#
# Stress axis : x y z
#
# Youngs Moduli (GPa) = 93.33301 44.53100 47.82421
#
# Poissons Ratio (x) = 0.16577 -0.00357
# Poissons Ratio (y) = 0.34743 0.62331
# Poissons Ratio (z) = -0.00697 0.58039
#
# Static dielectric constant tensor:
#      x y z
#    x 4.882710 0.000000 0.000000 
#    y 0.000000 -0.119680 0.000000 
#    z 0.000000 0.000000 1.729840 
# 
# From -- ./inp_files/51388.got.cif
#   From: 2010.05.17/outbox.cif.g08.bks.cpg/sg74_26_cif.got.tgz:51388.got - 2010.06.03 17:57:02.
