data_PCOD9539144
_publ_section_title
;
Structure prediction by ZEFSAII (Michael W. Deem and Ramdas Pophale) SiO2 
 PCOD9539144
Probable space group: I M M A
;
_chemical_formula_sum "Si O2"
_cell_formula_units_Z 112
_cell_length_a 15.656284
_cell_length_b 25.056391
_cell_length_c 13.873854
_cell_angle_alpha 90.000000
_cell_angle_beta 90.000000
_cell_angle_gamma 90.000000
_cell_volume 5442.573818
_symmetry_space_group_name_H-M "I M M A"
_symmetry_group_IT_number 74
_symmetry_cell_setting 'orthorhombic'
loop_
_space_group_symop_operation_xyz
x,y,z
-x,1/2-y,z
x,-y,-z
-x,1/2+y,-z
-x,-y,-z
x,1/2+y,-z
-x,y,z
x,1/2-y,z
1/2+x,1/2+y,1/2+z
1/2-x,-y,1/2+z
1/2+x,1/2-y,1/2-z
1/2-x,y,1/2-z
1/2-x,1/2-y,1/2-z
1/2+x,y,1/2-z
1/2-x,1/2+y,1/2+z
1/2+x,-y,1/2+z
loop_
_atom_site_type_symbol
_atom_site_label
_atom_site_fract_x
_atom_site_fract_y
_atom_site_fract_z
Si Si1 0.783120 0.688683 0.056306
Si Si2 0.655680 0.597738 0.744792
Si Si3 0.904901 0.650004 0.410051
Si Si4 0.405427 0.188275 0.378607
Si Si5 0.342276 0.602224 0.288379
Si Si6 0.902417 0.050260 0.445976
Si Si7 0.399850 0.495619 0.389294
O O1 0.804284 0.750000 0.080464
O O2 0.680165 0.682392 0.059960
O O3 0.821378 0.647704 0.133559
O O4 0.829888 0.676701 0.954852
O O5 0.750000 0.620306 0.750000
O O6 0.598666 0.646577 0.708409
O O7 0.635018 0.571247 0.846738
O O8 0.649269 0.550650 0.666607
O O9 0.891081 0.628561 0.301399
O O10 0.903590 0.598507 0.479021
O O11 0.000000 0.674849 0.418473
O O12 0.500000 0.183008 0.425167
O O13 0.396577 0.250000 0.347741
O O14 0.250000 0.582832 0.250000
O O15 0.388220 0.552052 0.336266
O O16 0.000000 0.034032 0.421963
O O17 0.860269 0.000000 0.500000
O O18 0.371959 0.500000 0.500000
O O19 0.500000 0.480872 0.388206
#
# Coordination Sequence:
#
# PCOD9539144 Si02
#       7
#    16  16  16  16  16  16  16
#     4  10  22  41  63  88 120 158 204 260 319 380
#     4  12  24  38  62  92 123 162 204 250 307 371
#     4  10  21  37  59  87 120 160 204 252 308 372
#     4  10  22  42  67  93 123 161 207 260 315 370
#     4  10  21  37  58  85 119 159 201 250 308 372
#     4  10  21  38  59  83 116 158 200 240 290 360
#     4  11  23  38  59  88 121 155 196 252 314 374
#
# _framework density 20.578499000000001
#
# number of rings (size 3 to 8) (size 9 to 14) (size 15 to 20)
#    0.000    1.571    0.000    4.714    0.000    9.429 
#    0.000    0.714    0.000    0.857    0.000    0.000 
#    0.000    0.000    0.000    0.000    0.000    0.000 
#
# Total GULP energy -312796.321326 kJ/mol
# GULP energy per Si atom -5585.648595 kJ/mol
# Density = 2.053166 g / cm^3
# Si number density = 20.578499 Si / 1000 Ang^3
#
#
#
# Elastic Constant Matrix: (Units=GPa)
#
#
# Indices 1 2 3 4 5 6 
#
# 1 94.5317 19.5962 32.6085 0.0000 0.0000 0.0000
# 2 19.5962 78.3488 49.0591 0.0000 0.0000 0.0000
# 3 32.6085 49.0591 104.5288 -0.0001 0.0000 0.0000
# 4 0.0000 0.0000 -0.0001 19.4498 0.0000 0.0000
# 5 0.0000 0.0000 0.0000 0.0000 26.5497 0.0000
# 6 0.0000 0.0000 0.0000 0.0000 0.0000 24.3332
#
#
#
# Elastic Compliance Matrix: (Units=1/GPa)
#
#
# Indices 1 2 3 4 5 6 
#
# 1 0.011901 -0.000923 -0.003279 0.000000 0.000000 0.000000
# 2 -0.000923 0.018147 -0.008229 0.000000 0.000000 0.000000
# 3 -0.003279 -0.008229 0.014452 0.000000 0.000000 0.000000
# 4 0.000000 0.000000 0.000000 0.051414 0.000000 0.000000
# 5 0.000000 0.000000 0.000000 0.000000 0.037665 0.000000
# 6 0.000000 0.000000 0.000000 0.000000 0.000000 0.041096
#
#
# Mechanical properties :
#
#
# Convention : Reuss Voigt Hill
#
# Bulk Modulus (GPa) = 50.92473 53.32634 52.12554
# Shear Modulus (GPa) = 24.26187 25.80957 25.03572
#
# Velocity S-wave (km/s) = 3.43737 3.54531 3.49176
# Velocity P-wave (km/s) = 6.36823 6.53673 6.45303
#
# Compressibility (1/GPa) = 0.01963682
#
# Stress axis : x y z
#
# Youngs Moduli (GPa) = 84.02634 55.10524 69.19487
#
# Poissons Ratio (x) = 0.05088 0.22691
# Poissons Ratio (y) = 0.07758 0.56941
# Poissons Ratio (z) = 0.27555 0.45346
#
# Static dielectric constant tensor:
#      x y z
#    x 1.775500 0.000000 0.000000 
#    y 0.000000 1.702300 0.000000 
#    z 0.000000 0.000000 1.723090 
# 
# From -- ./inp_files/32711.got.cif
#   From: 2010.05.17/outbox.cif.g08.bks.cpg/sg74_17_cif.got.tgz:32711.got - 2010.06.03 17:57:02.
