data_PCOD9539506
_publ_section_title
;
Structure prediction by ZEFSAII (Michael W. Deem and Ramdas Pophale) SiO2 
 PCOD9539506
Probable space group: I M M A
;
_chemical_formula_sum "Si O2"
_cell_formula_units_Z 68
_cell_length_a 7.237838
_cell_length_b 21.874267
_cell_length_c 18.839551
_cell_angle_alpha 90.000000
_cell_angle_beta 90.000000
_cell_angle_gamma 90.000000
_cell_volume 2982.722946
_symmetry_space_group_name_H-M "I M M A"
_symmetry_group_IT_number 74
_symmetry_cell_setting 'orthorhombic'
loop_
_space_group_symop_operation_xyz
x,y,z
-x,1/2-y,z
x,-y,-z
-x,1/2+y,-z
-x,-y,-z
x,1/2+y,-z
-x,y,z
x,1/2-y,z
1/2+x,1/2+y,1/2+z
1/2-x,-y,1/2+z
1/2+x,1/2-y,1/2-z
1/2-x,y,1/2-z
1/2-x,1/2-y,1/2-z
1/2+x,y,1/2-z
1/2-x,1/2+y,1/2+z
1/2+x,-y,1/2+z
loop_
_atom_site_type_symbol
_atom_site_label
_atom_site_fract_x
_atom_site_fract_y
_atom_site_fract_z
Si Si1 0.280549 0.684473 0.165861
Si Si2 0.780553 0.939667 0.666036
Si Si3 0.722472 0.361122 0.040676
Si Si4 0.723585 0.562352 0.090555
Si Si5 0.500000 0.250000 0.492885
O O1 0.500000 0.685781 0.152955
O O2 0.203279 0.750000 0.140356
O O3 0.250000 0.682030 0.250000
O O4 0.209685 0.622909 0.131577
O O5 0.750000 0.937517 0.750000
O O6 0.721418 0.881147 0.620102
O O7 0.000000 0.941139 0.655952
O O8 0.707875 0.001774 0.629505
O O9 0.500000 0.349391 0.036273
O O10 0.838639 0.304158 0.013645
O O11 0.760560 0.420842 0.991093
O O12 0.500000 0.560332 0.096105
#
# Coordination Sequence:
#
# PCOD9539506 Si02
#       5
#    16  16  16  16   4
#     4   9  17  29  46  74 114 160 204 252 304 370
#     4  10  21  39  67  95 130 172 215 274 336 390
#     4  10  23  44  68  95 134 171 222 274 332 395
#     4   9  18  36  62  90 123 170 214 256 326 395
#     4  12  26  44  68 102 128 176 220 280 338 396
#
# _framework density 22.797961999999998
#
# number of rings (size 3 to 8) (size 9 to 14) (size 15 to 20)
#    0.000    2.353    0.000    1.765    3.294    2.824 
#    4.235    1.765    0.000    0.000    0.000    0.000 
#    0.000    0.000    0.000    0.000    0.000    0.000 
#
# Total GULP energy -189406.654119 kJ/mol
# GULP energy per Si atom -5570.783945 kJ/mol
# Density = 2.274607 g / cm^3
# Si number density = 22.797962 Si / 1000 Ang^3
#
#
#
# Elastic Constant Matrix: (Units=GPa)
#
#
# Indices 1 2 3 4 5 6 
#
# 1 128.7926 11.0836 -2.9830 0.0000 0.0000 0.0000
# 2 11.0836 71.8644 38.5200 0.0000 0.0000 0.0000
# 3 -2.9830 38.5200 116.7569 0.0000 0.0000 0.0000
# 4 0.0000 0.0000 0.0000 17.8268 0.0000 0.0000
# 5 0.0000 0.0000 0.0000 0.0000 15.3761 0.0000
# 6 0.0000 0.0000 0.0000 0.0000 0.0000 -14.6095
#
#
#
# Elastic Compliance Matrix: (Units=1/GPa)
#
#
# Indices 1 2 3 4 5 6 
#
# 1 0.007921 -0.001616 0.000735 0.000000 0.000000 0.000000
# 2 -0.001616 0.017234 -0.005727 0.000000 0.000000 0.000000
# 3 0.000735 -0.005727 0.010473 0.000000 0.000000 0.000000
# 4 0.000000 0.000000 0.000000 0.056095 0.000000 0.000000
# 5 0.000000 0.000000 0.000000 0.000000 0.065036 0.000000
# 6 0.000000 0.000000 0.000000 0.000000 0.000000 -0.068449
#
#
# Mechanical properties :
#
#
# Convention : Reuss Voigt Hill
#
# Bulk Modulus (GPa) = 44.61739 45.62832 45.12286
# Shear Modulus (GPa) = 45.87312 21.77156 33.82234
#
# Velocity S-wave (km/s) = 4.49058 3.09363 3.85589
# Velocity P-wave (km/s) = 6.81911 5.72873 6.29756
#
# Compressibility (1/GPa) = 0.02241278
#
# Stress axis : x y z
#
# Youngs Moduli (GPa) = 126.25460 58.02467 95.48316
#
# Poissons Ratio (x) = 0.09375 -0.07022
# Poissons Ratio (y) = 0.20400 0.54684
# Poissons Ratio (z) = -0.09285 0.33231
#
# Static dielectric constant tensor:
#      x y z
#    x 1.893660 0.000000 0.000000 
#    y 0.000000 1.827780 0.000000 
#    z 0.000000 0.000000 1.894880 
# 
# From -- ./inp_files/39195.got.cif
#   From: 2010.05.17/outbox.cif.g08.bks.cpg/sg74_20_cif.got.tgz:39195.got - 2010.06.03 17:57:02.
