data_PCOD9539554
_publ_section_title
;
Structure prediction by ZEFSAII (Michael W. Deem and Ramdas Pophale) SiO2 
 PCOD9539554
Probable space group: I M M A
;
_chemical_formula_sum "Si O2"
_cell_formula_units_Z 60
_cell_length_a 19.199290
_cell_length_b 8.922246
_cell_length_c 18.930313
_cell_angle_alpha 90.000000
_cell_angle_beta 90.000000
_cell_angle_gamma 90.000000
_cell_volume 3242.777542
_symmetry_space_group_name_H-M "I M M A"
_symmetry_group_IT_number 74
_symmetry_cell_setting 'orthorhombic'
loop_
_space_group_symop_operation_xyz
x,y,z
-x,1/2-y,z
x,-y,-z
-x,1/2+y,-z
-x,-y,-z
x,1/2+y,-z
-x,y,z
x,1/2-y,z
1/2+x,1/2+y,1/2+z
1/2-x,-y,1/2+z
1/2+x,1/2-y,1/2-z
1/2-x,y,1/2-z
1/2-x,1/2-y,1/2-z
1/2+x,y,1/2-z
1/2-x,1/2+y,1/2+z
1/2+x,-y,1/2+z
loop_
_atom_site_type_symbol
_atom_site_label
_atom_site_fract_x
_atom_site_fract_y
_atom_site_fract_z
Si Si1 0.363447 0.572169 0.146235
Si Si2 0.500000 0.750000 0.700340
Si Si3 0.855766 0.915881 0.793686
Si Si4 0.500000 0.570299 0.921894
Si Si5 0.282984 0.427842 0.575243
O O1 0.377260 0.750000 0.148915
O O2 0.343090 0.510779 0.223230
O O3 0.431380 0.486115 0.118637
O O4 0.298115 0.545997 0.094672
O O5 0.437851 0.621702 0.701329
O O6 0.822379 0.750000 0.788902
O O7 0.827806 0.999104 0.862417
O O8 0.500000 0.750000 0.924922
O O9 0.500000 0.500000 0.000000
O O10 0.299426 0.500000 0.500000
O O11 0.294440 0.250000 0.573161
#
# Coordination Sequence:
#
# PCOD9539554 Si02
#       5
#    16   4  16   8  16
#     4  11  23  39  63  95 129 169 213 260 315 385
#     4   8  22  40  62  92 122 152 216 256 310 384
#     4  10  21  40  66  90 128 161 212 265 316 380
#     4  12  25  40  60  90 132 171 214 255 320 380
#     4  11  24  41  63  92 128 167 216 266 324 383
#
# _framework density 18.502656000000002
#
# number of rings (size 3 to 8) (size 9 to 14) (size 15 to 20)
#    0.800    0.533    0.000    6.000    1.867    9.600 
#    0.000    2.667    0.000    0.000    0.000    0.000 
#    0.000    0.000    0.000    0.000    0.000    0.000 
#
# Total GULP energy -167059.049025 kJ/mol
# GULP energy per Si atom -5568.634967 kJ/mol
# Density = 1.846054 g / cm^3
# Si number density = 18.502656 Si / 1000 Ang^3
#
#
#
# Elastic Constant Matrix: (Units=GPa)
#
#
# Indices 1 2 3 4 5 6 
#
# 1 44.8749 28.1240 24.2739 0.0000 0.0000 0.0000
# 2 28.1240 98.1599 53.2330 0.0000 0.0000 0.0000
# 3 24.2739 53.2330 149.7561 0.0000 0.0000 0.0000
# 4 0.0000 0.0000 0.0000 37.2443 0.0000 0.0000
# 5 0.0000 0.0000 0.0000 0.0000 13.7385 0.0000
# 6 0.0000 0.0000 0.0000 0.0000 0.0000 28.7659
#
#
#
# Elastic Compliance Matrix: (Units=1/GPa)
#
#
# Indices 1 2 3 4 5 6 
#
# 1 0.027667 -0.006807 -0.002065 0.000000 0.000000 0.000000
# 2 -0.006807 0.014295 -0.003978 0.000000 0.000000 0.000000
# 3 -0.002065 -0.003978 0.008426 0.000000 0.000000 0.000000
# 4 0.000000 0.000000 0.000000 0.026850 0.000000 0.000000
# 5 0.000000 0.000000 0.000000 0.000000 0.072788 0.000000
# 6 0.000000 0.000000 0.000000 0.000000 0.000000 0.034763
#
#
# Mechanical properties :
#
#
# Convention : Reuss Voigt Hill
#
# Bulk Modulus (GPa) = 40.50473 56.00587 48.25530
# Shear Modulus (GPa) = 22.86030 28.42706 25.64368
#
# Velocity S-wave (km/s) = 3.51880 3.92392 3.72687
# Velocity P-wave (km/s) = 6.20065 7.13192 6.68253
#
# Compressibility (1/GPa) = 0.02468848
#
# Stress axis : x y z
#
# Youngs Moduli (GPa) = 36.14374 69.95382 118.67652
#
# Poissons Ratio (x) = 0.47619 0.24505
# Poissons Ratio (y) = 0.24604 0.47210
# Poissons Ratio (z) = 0.07463 0.27828
#
# Static dielectric constant tensor:
#      x y z
#    x 1.623890 0.000000 0.000000 
#    y 0.000000 1.623630 0.000000 
#    z 0.000000 0.000000 1.613490 
# 
# From -- ./inp_files/43552.got.cif
#   From: 2010.05.17/outbox.cif.g08.bks.cpg/sg74_22_cif.got.tgz:43552.got - 2010.06.03 17:57:02.
