data_PCOD9539038
_publ_section_title
;
Structure prediction by ZEFSAII (Michael W. Deem and Ramdas Pophale) SiO2 
 PCOD9539038
Probable space group: I M M A
;
_chemical_formula_sum "Si O2"
_cell_formula_units_Z 112
_cell_length_a 26.051273
_cell_length_b 15.880876
_cell_length_c 12.292711
_cell_angle_alpha 90.000000
_cell_angle_beta 90.000000
_cell_angle_gamma 90.000000
_cell_volume 5085.703961
_symmetry_space_group_name_H-M "I M M A"
_symmetry_group_IT_number 74
_symmetry_cell_setting 'orthorhombic'
loop_
_space_group_symop_operation_xyz
x,y,z
-x,1/2-y,z
x,-y,-z
-x,1/2+y,-z
-x,-y,-z
x,1/2+y,-z
-x,y,z
x,1/2-y,z
1/2+x,1/2+y,1/2+z
1/2-x,-y,1/2+z
1/2+x,1/2-y,1/2-z
1/2-x,y,1/2-z
1/2-x,1/2-y,1/2-z
1/2+x,y,1/2-z
1/2-x,1/2+y,1/2+z
1/2+x,-y,1/2+z
loop_
_atom_site_type_symbol
_atom_site_label
_atom_site_fract_x
_atom_site_fract_y
_atom_site_fract_z
Si Si1 0.095999 0.418644 0.800079
Si Si2 0.560969 0.158738 0.495291
Si Si3 0.438391 0.895269 0.749213
Si Si4 0.726644 0.488010 0.121573
Si Si5 0.807263 0.344075 0.706813
Si Si6 0.444742 0.348658 0.910161
Si Si7 0.859318 0.847580 0.573731
O O1 0.079782 0.412029 0.923752
O O2 0.084087 0.510468 0.754564
O O3 0.153236 0.382897 0.792500
O O4 0.063399 0.360227 0.718339
O O5 0.500000 0.161242 0.507343
O O6 0.582524 0.250000 0.528516
O O7 0.570904 0.142360 0.369846
O O8 0.500000 0.894601 0.770390
O O9 0.403828 0.847230 0.834932
O O10 0.750000 0.479932 0.250000
O O11 0.698967 0.578799 0.124757
O O12 0.686406 0.410828 0.108637
O O13 0.755122 0.500000 0.000000
O O14 0.824799 0.250000 0.674058
O O15 0.750000 0.334146 0.750000
O O16 0.500000 0.386869 0.941691
O O17 0.446660 0.250000 0.935591
O O18 0.394173 0.379871 0.971841
O O19 0.841383 0.750000 0.560065
#
# Coordination Sequence:
#
# PCOD9539038 Si02
#       7
#    16  16  16  16  16  16  16
#     4  12  21  37  62  95 131 170 229 296 352 417
#     4  10  21  37  58  87 130 181 228 279 341 410
#     4  11  23  39  61  94 137 185 230 277 343 423
#     4  11  25  49  76 107 141 181 237 295 360 427
#     4  10  22  43  69  97 130 176 230 291 362 428
#     4  10  21  36  61  96 131 175 229 282 343 419
#     4  11  24  44  69 100 141 186 230 281 346 419
#
# _framework density 22.022516
#
# number of rings (size 3 to 8) (size 9 to 14) (size 15 to 20)
#    0.000    1.286    1.429    4.714    0.000    5.714 
#    5.143    1.429    0.000    0.000    0.000    0.000 
#    0.000    0.000    0.000    0.000    0.000    0.000 
#
# Total GULP energy -311929.427793 kJ/mol
# GULP energy per Si atom -5570.168353 kJ/mol
# Density = 2.197239 g / cm^3
# Si number density = 22.022516 Si / 1000 Ang^3
#
#
#
# Elastic Constant Matrix: (Units=GPa)
#
#
# Indices 1 2 3 4 5 6 
#
# 1 82.4884 21.6440 50.6798 0.0000 0.0000 0.0000
# 2 21.6440 101.9606 9.5674 0.0000 0.0000 0.0000
# 3 50.6798 9.5674 113.6364 0.0000 0.0000 0.0000
# 4 0.0000 0.0000 0.0000 27.4408 0.0000 0.0000
# 5 0.0000 0.0000 0.0000 0.0000 75.1113 0.0000
# 6 0.0000 0.0000 0.0000 0.0000 0.0000 37.0927
#
#
#
# Elastic Compliance Matrix: (Units=1/GPa)
#
#
# Indices 1 2 3 4 5 6 
#
# 1 0.017574 -0.003019 -0.007584 0.000000 0.000000 0.000000
# 2 -0.003019 0.010404 0.000470 0.000000 0.000000 0.000000
# 3 -0.007584 0.000470 0.012143 0.000000 0.000000 0.000000
# 4 0.000000 0.000000 0.000000 0.036442 0.000000 0.000000
# 5 0.000000 0.000000 0.000000 0.000000 0.013314 0.000000
# 6 0.000000 0.000000 0.000000 0.000000 0.000000 0.026959
#
#
# Mechanical properties :
#
#
# Convention : Reuss Voigt Hill
#
# Bulk Modulus (GPa) = 50.36044 51.31867 50.83956
# Shear Modulus (GPa) = 34.78984 42.34189 38.56586
#
# Velocity S-wave (km/s) = 3.97891 4.38958 4.18928
# Velocity P-wave (km/s) = 6.63523 7.00318 6.82169
#
# Compressibility (1/GPa) = 0.01985686
#
# Stress axis : x y z
#
# Youngs Moduli (GPa) = 56.90098 96.11283 82.35485
#
# Poissons Ratio (x) = 0.29017 0.62455
# Poissons Ratio (y) = 0.17179 -0.03874
# Poissons Ratio (z) = 0.43152 -0.04522
#
# Static dielectric constant tensor:
#      x y z
#    x 1.842860 0.000000 0.000000 
#    y 0.000000 1.839310 0.000000 
#    z 0.000000 0.000000 1.968280 
# 
# From -- ./inp_files/27188.got.cif
#   From: 2010.05.17/outbox.cif.g08.bks.cpg/sg74_14_cif.got.tgz:27188.got - 2010.06.03 17:57:02.
