data_PCOD9539635
_publ_section_title
;
Structure prediction by ZEFSAII (Michael W. Deem and Ramdas Pophale) SiO2 
 PCOD9539635
Probable space group: I M M A
;
_chemical_formula_sum "Si O2"
_cell_formula_units_Z 88
_cell_length_a 24.180957
_cell_length_b 15.363791
_cell_length_c 12.012477
_cell_angle_alpha 90.000000
_cell_angle_beta 90.000000
_cell_angle_gamma 90.000000
_cell_volume 4462.769379
_symmetry_space_group_name_H-M "I M M A"
_symmetry_group_IT_number 74
_symmetry_cell_setting 'orthorhombic'
loop_
_space_group_symop_operation_xyz
x,y,z
-x,1/2-y,z
x,-y,-z
-x,1/2+y,-z
-x,-y,-z
x,1/2+y,-z
-x,y,z
x,1/2-y,z
1/2+x,1/2+y,1/2+z
1/2-x,-y,1/2+z
1/2+x,1/2-y,1/2-z
1/2-x,y,1/2-z
1/2-x,1/2-y,1/2-z
1/2+x,y,1/2-z
1/2-x,1/2+y,1/2+z
1/2+x,-y,1/2+z
loop_
_atom_site_type_symbol
_atom_site_label
_atom_site_fract_x
_atom_site_fract_y
_atom_site_fract_z
Si Si1 0.117777 0.250000 0.924497
Si Si2 0.251029 0.250000 0.617660
Si Si3 0.433407 0.750000 0.179267
Si Si4 0.361235 0.349254 0.202009
Si Si5 0.133941 0.912253 0.934358
Si Si6 0.266215 0.596625 0.959309
Si Si7 0.066358 0.397316 0.503508
O O1 0.184042 0.250000 0.910034
O O2 0.091573 0.250000 0.802464
O O3 0.105502 0.165145 0.997468
O O4 0.250000 0.250000 0.750000
O O5 0.224600 0.334060 0.558419
O O6 0.500000 0.750000 0.187244
O O7 0.417344 0.662865 0.109341
O O8 0.355466 0.250000 0.243060
O O9 0.380259 0.408431 0.304616
O O10 0.303675 0.378229 0.145516
O O11 0.405302 0.354913 0.103374
O O12 0.200870 0.900510 0.933678
O O13 0.121993 0.000000 0.000000
O O14 0.279957 0.500000 0.000000
O O15 0.082006 0.500000 0.500000
O O16 0.000000 0.393120 0.496274
#
# Coordination Sequence:
#
# PCOD9539635 Si02
#       7
#     8   8   8  16  16  16  16
#     4  10  22  38  59  81 119 159 194 235 301 347
#     4  10  22  35  56  85 125 157 192 247 294 350
#     4  10  22  41  65  88 117 153 193 247 301 362
#     4  12  22  37  66  87 120 160 204 246 300 355
#     4  10  23  40  57  88 123 162 200 245 290 353
#     4  10  22  38  57  89 122 161 206 242 294 350
#     4  10  23  42  63  90 118 148 193 252 309 351
#
# _framework density 19.718698
#
# number of rings (size 3 to 8) (size 9 to 14) (size 15 to 20)
#    0.000    1.636    2.727    1.091    5.091    5.091 
#    0.000    0.909    0.000    1.091    0.000    0.000 
#    0.000    0.000    0.000    0.000    0.000    0.000 
#
# Total GULP energy -245702.173140 kJ/mol
# GULP energy per Si atom -5584.140299 kJ/mol
# Density = 1.967382 g / cm^3
# Si number density = 19.718698 Si / 1000 Ang^3
#
#
#
# Elastic Constant Matrix: (Units=GPa)
#
#
# Indices 1 2 3 4 5 6 
#
# 1 25.8583 14.0881 15.8519 0.0000 0.0000 0.0000
# 2 14.0881 136.1224 65.2846 0.0000 0.0000 0.0000
# 3 15.8519 65.2846 166.2315 0.0000 0.0000 0.0000
# 4 0.0000 0.0000 0.0000 30.3262 0.0000 0.0000
# 5 0.0000 0.0000 0.0000 0.0000 26.4958 0.0000
# 6 0.0000 0.0000 0.0000 0.0000 0.0000 -3.6284
#
#
#
# Elastic Compliance Matrix: (Units=1/GPa)
#
#
# Indices 1 2 3 4 5 6 
#
# 1 0.042039 -0.002992 -0.002834 0.000000 0.000000 0.000000
# 2 -0.002992 0.009264 -0.003353 0.000000 0.000000 0.000000
# 3 -0.002834 -0.003353 0.007603 0.000000 0.000000 0.000000
# 4 0.000000 0.000000 0.000000 0.032975 0.000000 0.000000
# 5 0.000000 0.000000 0.000000 0.000000 0.037742 0.000000
# 6 0.000000 0.000000 0.000000 0.000000 0.000000 -0.275603
#
#
# Mechanical properties :
#
#
# Convention : Reuss Voigt Hill
#
# Bulk Modulus (GPa) = 24.66156 57.62905 41.14531
# Shear Modulus (GPa) = -43.81865 26.17123 -8.82371
#
# Velocity S-wave (km/s) = -4.71912 3.64707 -2.11767
# Velocity P-wave (km/s) = 4.14242 6.85739 3.86421
#
# Compressibility (1/GPa) = 0.04054894
#
# Stress axis : x y z
#
# Youngs Moduli (GPa) = 23.78716 107.94384 131.53062
#
# Poissons Ratio (x) = 0.32294 0.37275
# Poissons Ratio (y) = 0.07117 0.44102
# Poissons Ratio (z) = 0.06741 0.36194
#
# Static dielectric constant tensor:
#      x y z
#    x 1.683510 0.000000 0.000000 
#    y 0.000000 1.721090 0.000000 
#    z 0.000000 0.000000 1.665210 
# 
# From -- ./inp_files/26184.got.cif
#   From: 2010.05.17/outbox.cif.g08.bks.cpg/sg74_14_cif.got.tgz:26184.got - 2010.06.03 17:57:02.
