data_PCOD9539515
_publ_section_title
;
Structure prediction by ZEFSAII (Michael W. Deem and Ramdas Pophale) SiO2 
 PCOD9539515
Probable space group: I M M A
;
_chemical_formula_sum "Si O2"
_cell_formula_units_Z 88
_cell_length_a 16.415991
_cell_length_b 20.702928
_cell_length_c 14.108693
_cell_angle_alpha 90.000000
_cell_angle_beta 90.000000
_cell_angle_gamma 90.000000
_cell_volume 4794.967419
_symmetry_space_group_name_H-M "I M M A"
_symmetry_group_IT_number 74
_symmetry_cell_setting 'orthorhombic'
loop_
_space_group_symop_operation_xyz
x,y,z
-x,1/2-y,z
x,-y,-z
-x,1/2+y,-z
-x,-y,-z
x,1/2+y,-z
-x,y,z
x,1/2-y,z
1/2+x,1/2+y,1/2+z
1/2-x,-y,1/2+z
1/2+x,1/2-y,1/2-z
1/2-x,y,1/2-z
1/2-x,1/2-y,1/2-z
1/2+x,y,1/2-z
1/2-x,1/2+y,1/2+z
1/2+x,-y,1/2+z
loop_
_atom_site_type_symbol
_atom_site_label
_atom_site_fract_x
_atom_site_fract_y
_atom_site_fract_z
Si Si1 0.500000 0.672377 0.760362
Si Si2 0.219707 0.750000 0.641625
Si Si3 0.096075 0.508875 0.386712
Si Si4 0.904418 0.250000 0.780425
Si Si5 0.646961 0.352269 0.876011
Si Si6 0.000000 0.673188 0.518410
Si Si7 0.221999 0.750000 0.056761
Si Si8 0.839988 0.121331 0.293611
O O1 0.500000 0.750000 0.752930
O O2 0.414299 0.643513 0.724569
O O3 0.500000 0.651350 0.872569
O O4 0.250000 0.750000 0.750000
O O5 0.283984 0.750000 0.556977
O O6 0.168852 0.683919 0.637158
O O7 0.098830 0.500000 0.500000
O O8 0.148678 0.571547 0.357327
O O9 0.133116 0.444807 0.341007
O O10 0.000000 0.517077 0.360520
O O11 0.879887 0.311778 0.716325
O O12 0.857345 0.250000 0.879206
O O13 0.000000 0.250000 0.793879
O O14 0.577072 0.347292 0.956075
O O15 0.725149 0.313300 0.913938
O O16 0.000000 0.750000 0.521169
O O17 0.750000 0.113306 0.250000
#
# Coordination Sequence:
#
# PCOD9539515 Si02
#       8
#     8   8  16   8  16   8   8  16
#     4  11  20  31  57  85 108 146 190 231 300 350
#     4  10  21  40  60  83 109 142 199 249 296 346
#     4  11  21  33  54  86 119 148 187 241 298 350
#     4  11  21  38  55  80 120 162 199 234 278 353
#     4  11  19  33  53  89 123 148 186 235 294 353
#     4  11  16  27  55  87 117 142 171 234 294 343
#     4  11  22  34  61  84 114 156 193 239 293 360
#     4  11  23  37  56  83 118 148 185 241 296 351
#
# _framework density 18.352575000000002
#
# number of rings (size 3 to 8) (size 9 to 14) (size 15 to 20)
#    0.000    1.091    5.455    4.364    0.000    1.455 
#    0.000    0.000    8.000    0.000    0.000    0.636 
#    0.000    0.364    0.000    0.000    0.000    0.000 
#
# Total GULP energy -245482.791807 kJ/mol
# GULP energy per Si atom -5579.154359 kJ/mol
# Density = 1.831080 g / cm^3
# Si number density = 18.352575 Si / 1000 Ang^3
#
#
#
# Elastic Constant Matrix: (Units=GPa)
#
#
# Indices 1 2 3 4 5 6 
#
# 1 73.8786 21.7669 40.0737 0.0000 0.0000 0.0000
# 2 21.7669 169.0850 24.9813 0.0000 0.0000 0.0000
# 3 40.0737 24.9813 75.3090 0.0000 0.0000 0.0000
# 4 0.0000 0.0000 0.0000 8.7434 0.0000 0.0000
# 5 0.0000 0.0000 0.0000 0.0000 27.1058 0.0000
# 6 0.0000 0.0000 0.0000 0.0000 0.0000 12.7542
#
#
#
# Elastic Compliance Matrix: (Units=1/GPa)
#
#
# Indices 1 2 3 4 5 6 
#
# 1 0.019191 -0.001011 -0.009876 0.000000 0.000000 0.000000
# 2 -0.001011 0.006272 -0.001542 0.000000 0.000000 0.000000
# 3 -0.009876 -0.001542 0.019046 0.000000 0.000000 0.000000
# 4 0.000000 0.000000 0.000000 0.114371 0.000000 0.000000
# 5 0.000000 0.000000 0.000000 0.000000 0.036892 0.000000
# 6 0.000000 0.000000 0.000000 0.000000 0.000000 0.078405
#
#
# Mechanical properties :
#
#
# Convention : Reuss Voigt Hill
#
# Bulk Modulus (GPa) = 50.89457 54.65737 52.77597
# Shear Modulus (GPa) = 16.36188 25.15075 20.75632
#
# Velocity S-wave (km/s) = 2.98909 3.70594 3.36665
# Velocity P-wave (km/s) = 6.30116 6.93963 6.62809
#
# Compressibility (1/GPa) = 0.01964846
#
# Stress axis : x y z
#
# Youngs Moduli (GPa) = 52.10794 159.43195 52.50505
#
# Poissons Ratio (x) = 0.16124 0.51856
# Poissons Ratio (y) = 0.05270 0.08099
# Poissons Ratio (z) = 0.51464 0.24592
#
# Static dielectric constant tensor:
#      x y z
#    x 1.717710 0.000000 0.000000 
#    y 0.000000 1.685780 0.000000 
#    z 0.000000 0.000000 1.650600 
# 
# From -- ./inp_files/22294.got.cif
#   From: 2010.05.17/outbox.cif.g08.bks.cpg/sg74_12_cif.got.tgz:22294.got - 2010.06.03 17:57:02.
