data_PCOD9539943
_publ_section_title
;
Structure prediction by ZEFSAII (Michael W. Deem and Ramdas Pophale) SiO2 
 PCOD9539943
Probable space group: I M M A
;
_chemical_formula_sum "Si O2"
_cell_formula_units_Z 60
_cell_length_a 24.293582
_cell_length_b 15.187421
_cell_length_c 8.746804
_cell_angle_alpha 90.000000
_cell_angle_beta 90.000000
_cell_angle_gamma 90.000000
_cell_volume 3227.193316
_symmetry_space_group_name_H-M "I M M A"
_symmetry_group_IT_number 74
_symmetry_cell_setting 'orthorhombic'
loop_
_space_group_symop_operation_xyz
x,y,z
-x,1/2-y,z
x,-y,-z
-x,1/2+y,-z
-x,-y,-z
x,1/2+y,-z
-x,y,z
x,1/2-y,z
1/2+x,1/2+y,1/2+z
1/2-x,-y,1/2+z
1/2+x,1/2-y,1/2-z
1/2-x,y,1/2-z
1/2-x,1/2-y,1/2-z
1/2+x,y,1/2-z
1/2-x,1/2+y,1/2+z
1/2+x,-y,1/2+z
loop_
_atom_site_type_symbol
_atom_site_label
_atom_site_fract_x
_atom_site_fract_y
_atom_site_fract_z
Si Si1 0.000000 0.250000 0.974697
Si Si2 0.730581 0.404287 0.078067
Si Si3 0.404364 0.250000 0.771826
Si Si4 0.500000 0.151798 0.222574
Si Si5 0.895385 0.103745 0.468922
Si Si6 0.712131 0.250000 0.602605
O O1 0.050564 0.250000 0.860131
O O2 0.000000 0.331943 0.094846
O O3 0.750000 0.413662 0.250000
O O4 0.732451 0.500000 0.000000
O O5 0.667189 0.370727 0.075890
O O6 0.770709 0.335740 0.993796
O O7 0.408711 0.335014 0.884076
O O8 0.348070 0.250000 0.675210
O O9 0.500000 0.250000 0.154677
O O10 0.556793 0.113346 0.158049
O O11 0.893722 0.000000 0.500000
O O12 0.750000 0.250000 0.750000
#
# Coordination Sequence:
#
# PCOD9539943 Si02
#       6
#     4  16   8   8  16   8
#     4  10  26  40  68  92 128 168 214 280 320 360
#     4  11  25  41  65  98 134 169 219 267 326 389
#     4  12  23  44  65  96 129 166 218 263 328 386
#     4  10  22  42  65  92 124 166 219 265 316 379
#     4  11  23  42  69  92 127 174 213 261 327 391
#     4  12  23  40  67  96 131 173 210 271 323 397
#
# _framework density 18.592006000000001
#
# number of rings (size 3 to 8) (size 9 to 14) (size 15 to 20)
#    0.400    0.533    4.000    2.400    7.467    0.000 
#    0.000    2.667    0.000    0.000    0.000    0.000 
#    0.000    0.000    0.000    0.000    0.000    0.000 
#
# Total GULP energy -167307.899041 kJ/mol
# GULP energy per Si atom -5576.929968 kJ/mol
# Density = 1.854969 g / cm^3
# Si number density = 18.592006 Si / 1000 Ang^3
#
#
#
# Elastic Constant Matrix: (Units=GPa)
#
#
# Indices 1 2 3 4 5 6 
#
# 1 154.3491 33.9232 94.5672 0.0000 0.0000 0.0000
# 2 33.9232 103.4242 55.0279 0.0000 0.0000 0.0000
# 3 94.5672 55.0279 183.7812 0.0000 0.0000 0.0000
# 4 0.0000 0.0000 0.0000 23.9023 0.0000 0.0000
# 5 0.0000 0.0000 0.0000 0.0000 7.1034 0.0000
# 6 0.0000 0.0000 0.0000 0.0000 0.0000 16.4353
#
#
#
# Elastic Compliance Matrix: (Units=1/GPa)
#
#
# Indices 1 2 3 4 5 6 
#
# 1 0.009494 -0.000612 -0.004702 0.000000 0.000000 0.000000
# 2 -0.000612 0.011541 -0.003140 0.000000 0.000000 0.000000
# 3 -0.004702 -0.003140 0.008801 0.000000 0.000000 0.000000
# 4 0.000000 0.000000 0.000000 0.041837 0.000000 0.000000
# 5 0.000000 0.000000 0.000000 0.000000 0.140778 0.000000
# 6 0.000000 0.000000 0.000000 0.000000 0.000000 0.060845
#
#
# Mechanical properties :
#
#
# Convention : Reuss Voigt Hill
#
# Bulk Modulus (GPa) = 77.36139 89.84346 83.60242
# Shear Modulus (GPa) = 16.97712 26.69063 21.83387
#
# Velocity S-wave (km/s) = 3.02510 3.79304 3.43062
# Velocity P-wave (km/s) = 7.34180 8.22262 7.79466
#
# Compressibility (1/GPa) = 0.01292635
#
# Stress axis : x y z
#
# Youngs Moduli (GPa) = 105.32660 86.65020 113.62251
#
# Poissons Ratio (x) = 0.05306 0.53426
# Poissons Ratio (y) = 0.06450 0.35682
# Poissons Ratio (z) = 0.49525 0.27212
#
# Static dielectric constant tensor:
#      x y z
#    x 1.662390 0.000000 0.000000 
#    y 0.000000 1.626580 0.000000 
#    z 0.000000 0.000000 1.686080 
# 
# From -- ./inp_files/11878.got.cif
#   From: 2010.05.17/outbox.cif.g08.bks.cpg/sg74_6_cif.got.tgz:11878.got - 2010.06.03 17:57:02.
