data_PCOD9539372
_publ_section_title
;
Structure prediction by ZEFSAII (Michael W. Deem and Ramdas Pophale) SiO2 
 PCOD9539372
Probable space group: I M M A
;
_chemical_formula_sum "Si O2"
_cell_formula_units_Z 56
_cell_length_a 8.260158
_cell_length_b 14.895157
_cell_length_c 18.338562
_cell_angle_alpha 90.000000
_cell_angle_beta 90.000000
_cell_angle_gamma 90.000000
_cell_volume 2256.309737
_symmetry_space_group_name_H-M "I M M A"
_symmetry_group_IT_number 74
_symmetry_cell_setting 'orthorhombic'
loop_
_space_group_symop_operation_xyz
x,y,z
-x,1/2-y,z
x,-y,-z
-x,1/2+y,-z
-x,-y,-z
x,1/2+y,-z
-x,y,z
x,1/2-y,z
1/2+x,1/2+y,1/2+z
1/2-x,-y,1/2+z
1/2+x,1/2-y,1/2-z
1/2-x,y,1/2-z
1/2-x,1/2-y,1/2-z
1/2+x,y,1/2-z
1/2-x,1/2+y,1/2+z
1/2+x,-y,1/2+z
loop_
_atom_site_type_symbol
_atom_site_label
_atom_site_fract_x
_atom_site_fract_y
_atom_site_fract_z
Si Si1 0.500000 0.147200 0.101735
Si Si2 0.500000 0.856022 0.722171
Si Si3 0.193377 0.350990 0.852374
Si Si4 0.750000 0.496594 0.250000
Si Si5 0.822357 0.603539 0.981594
O O1 0.500000 0.250000 0.079993
O O2 0.500000 0.143091 0.189078
O O3 0.333636 0.111696 0.068636
O O4 0.500000 0.750000 0.700995
O O5 0.354877 0.923759 0.705260
O O6 0.235286 0.250000 0.828769
O O7 0.294084 0.429716 0.812476
O O8 0.209426 0.352973 0.939501
O O9 0.000000 0.367589 0.836688
O O10 0.000000 0.635817 0.953203
O O11 0.839131 0.500000 0.000000
#
# Coordination Sequence:
#
# PCOD9539372 Si02
#       5
#     8   8  16   8  16
#     4  11  23  41  63  96 131 162 213 275 331 395
#     4  11  26  45  68  94 127 168 226 285 332 393
#     4  10  21  38  62  97 137 177 218 265 322 400
#     4  12  22  44  66  90 128 178 222 270 334 390
#     4  10  21  39  65  95 132 174 217 268 332 393
#
# _framework density 24.819288
#
# number of rings (size 3 to 8) (size 9 to 14) (size 15 to 20)
#    0.000    1.429    1.429    3.857    0.000    2.857 
#    2.571    1.429    0.000    0.000    0.000    0.000 
#    0.000    0.000    0.000    0.000    0.000    0.000 
#
# Total GULP energy -156162.918725 kJ/mol
# GULP energy per Si atom -5577.247097 kJ/mol
# Density = 2.476280 g / cm^3
# Si number density = 24.819288 Si / 1000 Ang^3
#
#
#
# Elastic Constant Matrix: (Units=GPa)
#
#
# Indices 1 2 3 4 5 6 
#
# 1 120.2921 43.7044 51.6249 0.0000 0.0000 0.0000
# 2 43.7044 225.4437 44.9950 0.0000 0.0000 0.0000
# 3 51.6249 44.9950 97.4567 0.0000 0.0000 0.0000
# 4 0.0000 0.0000 0.0000 41.9485 0.0000 0.0000
# 5 0.0000 0.0000 0.0000 0.0000 30.3047 0.0000
# 6 0.0000 0.0000 0.0000 0.0000 0.0000 121.8417
#
#
#
# Elastic Compliance Matrix: (Units=1/GPa)
#
#
# Indices 1 2 3 4 5 6 
#
# 1 0.010987 -0.001067 -0.005328 0.000000 0.000000 0.000000
# 2 -0.001067 0.004989 -0.001739 0.000000 0.000000 0.000000
# 3 -0.005328 -0.001739 0.013886 0.000000 0.000000 0.000000
# 4 0.000000 0.000000 0.000000 0.023839 0.000000 0.000000
# 5 0.000000 0.000000 0.000000 0.000000 0.032998 0.000000
# 6 0.000000 0.000000 0.000000 0.000000 0.000000 0.008207
#
#
# Mechanical properties :
#
#
# Convention : Reuss Voigt Hill
#
# Bulk Modulus (GPa) = 73.54751 80.42681 76.98716
# Shear Modulus (GPa) = 43.21353 59.01019 51.11186
#
# Velocity S-wave (km/s) = 4.17721 4.88135 4.54294
# Velocity P-wave (km/s) = 7.27757 8.01532 7.65534
#
# Compressibility (1/GPa) = 0.01359665
#
# Stress axis : x y z
#
# Youngs Moduli (GPa) = 91.01629 200.42211 72.01598
#
# Poissons Ratio (x) = 0.21378 0.38367
# Poissons Ratio (y) = 0.09708 0.12521
# Poissons Ratio (z) = 0.48490 0.34845
#
# Static dielectric constant tensor:
#      x y z
#    x 1.858980 0.000000 0.000000 
#    y 0.000000 2.157830 0.000000 
#    z 0.000000 0.000000 1.992650 
# 
# From -- ./inp_files/47859.got.cif
#   From: 2010.05.17/outbox.cif.g08.bks.cpg/sg74_24_cif.got.tgz:47859.got - 2010.06.03 17:57:02.
