data_PCOD9539459
_publ_section_title
;
Structure prediction by ZEFSAII (Michael W. Deem and Ramdas Pophale) SiO2 
 PCOD9539459
Probable space group: I M M A
;
_chemical_formula_sum "Si O2"
_cell_formula_units_Z 64
_cell_length_a 7.412487
_cell_length_b 14.279493
_cell_length_c 30.947417
_cell_angle_alpha 90.000000
_cell_angle_beta 90.000000
_cell_angle_gamma 90.000000
_cell_volume 3275.677514
_symmetry_space_group_name_H-M "I M M A"
_symmetry_group_IT_number 74
_symmetry_cell_setting 'orthorhombic'
loop_
_space_group_symop_operation_xyz
x,y,z
-x,1/2-y,z
x,-y,-z
-x,1/2+y,-z
-x,-y,-z
x,1/2+y,-z
-x,y,z
x,1/2-y,z
1/2+x,1/2+y,1/2+z
1/2-x,-y,1/2+z
1/2+x,1/2-y,1/2-z
1/2-x,y,1/2-z
1/2-x,1/2-y,1/2-z
1/2+x,y,1/2-z
1/2-x,1/2+y,1/2+z
1/2+x,-y,1/2+z
loop_
_atom_site_type_symbol
_atom_site_label
_atom_site_fract_x
_atom_site_fract_y
_atom_site_fract_z
Si Si1 0.713316 0.985255 0.703111
Si Si2 0.000000 0.143329 0.690117
Si Si3 0.281127 0.643159 0.622053
Si Si4 0.215217 0.995612 0.050742
Si Si5 0.500000 0.645012 0.086702
O O1 0.500000 0.002992 0.698456
O O2 0.750000 0.940165 0.750000
O O3 0.827351 0.080889 0.702705
O O4 0.773150 0.919056 0.663490
O O5 0.000000 0.147691 0.638301
O O6 0.000000 0.250000 0.706931
O O7 0.500000 0.646441 0.623250
O O8 0.216451 0.750000 0.623427
O O9 0.232493 0.587629 0.578342
O O10 0.325290 0.910808 0.071039
O O11 0.000000 0.982967 0.055492
O O12 0.256760 0.000000 0.000000
O O13 0.500000 0.750000 0.069502
#
# Coordination Sequence:
#
# PCOD9539459 Si02
#       5
#    16   8  16  16   8
#     4  11  22  40  63  87 122 159 198 252 306 363
#     4  11  24  41  61  89 121 160 205 249 302 359
#     4   9  19  37  61  88 120 158 201 247 298 359
#     4  10  21  39  63  89 124 164 201 249 305 359
#     4  11  23  39  61  89 124 158 204 255 297 359
#
# _framework density 19.537944
#
# number of rings (size 3 to 8) (size 9 to 14) (size 15 to 20)
#    0.000    1.750    3.750    0.375    0.000    3.000 
#    0.000    7.500    0.000    0.000    0.000    0.000 
#    0.000    0.000    0.000    0.000    0.000    0.000 
#
# Total GULP energy -178687.664179 kJ/mol
# GULP energy per Si atom -5583.989506 kJ/mol
# Density = 1.949347 g / cm^3
# Si number density = 19.537944 Si / 1000 Ang^3
#
#
#
# Elastic Constant Matrix: (Units=GPa)
#
#
# Indices 1 2 3 4 5 6 
#
# 1 85.2226 42.2694 23.7261 0.0000 0.0000 0.0000
# 2 42.2694 167.5882 67.8489 0.0000 0.0000 0.0000
# 3 23.7261 67.8489 144.7385 0.0000 0.0000 0.0000
# 4 0.0000 0.0000 0.0000 9.2517 0.0000 0.0000
# 5 0.0000 0.0000 0.0000 0.0000 14.9310 0.0000
# 6 0.0000 0.0000 0.0000 0.0000 0.0000 27.7690
#
#
#
# Elastic Compliance Matrix: (Units=1/GPa)
#
#
# Indices 1 2 3 4 5 6 
#
# 1 0.013479 -0.003092 -0.000760 0.000000 0.000000 0.000000
# 2 -0.003092 0.008074 -0.003278 0.000000 0.000000 0.000000
# 3 -0.000760 -0.003278 0.008570 0.000000 0.000000 0.000000
# 4 0.000000 0.000000 0.000000 0.108088 0.000000 0.000000
# 5 0.000000 0.000000 0.000000 0.000000 0.066975 0.000000
# 6 0.000000 0.000000 0.000000 0.000000 0.000000 0.036011
#
#
# Mechanical properties :
#
#
# Convention : Reuss Voigt Hill
#
# Bulk Modulus (GPa) = 63.03906 73.91535 68.47720
# Shear Modulus (GPa) = 19.17575 27.97067 23.57321
#
# Velocity S-wave (km/s) = 3.13623 3.78776 3.47729
# Velocity P-wave (km/s) = 6.74163 7.55271 7.15866
#
# Compressibility (1/GPa) = 0.01586318
#
# Stress axis : x y z
#
# Youngs Moduli (GPa) = 74.18843 123.85464 116.68307
#
# Poissons Ratio (x) = 0.38296 0.08869
# Poissons Ratio (y) = 0.22939 0.38248
# Poissons Ratio (z) = 0.05639 0.40599
#
# Static dielectric constant tensor:
#      x y z
#    x 1.699670 0.000000 0.000000 
#    y 0.000000 1.661630 0.000000 
#    z 0.000000 0.000000 1.692010 
# 
# From -- ./inp_files/69796.got.cif
#   From: 2010.05.17/outbox.cif.g08.bks.cpg/sg74_35_cif.got.tgz:69796.got - 2010.06.03 17:57:02.
