data_PCOD9539577
_publ_section_title
;
Structure prediction by ZEFSAII (Michael W. Deem and Ramdas Pophale) SiO2 
 PCOD9539577
Probable space group: I M M A
;
_chemical_formula_sum "Si O2"
_cell_formula_units_Z 96
_cell_length_a 19.334665
_cell_length_b 30.011327
_cell_length_c 9.235286
_cell_angle_alpha 90.000000
_cell_angle_beta 90.000000
_cell_angle_gamma 90.000000
_cell_volume 5358.857392
_symmetry_space_group_name_H-M "I M M A"
_symmetry_group_IT_number 74
_symmetry_cell_setting 'orthorhombic'
loop_
_space_group_symop_operation_xyz
x,y,z
-x,1/2-y,z
x,-y,-z
-x,1/2+y,-z
-x,-y,-z
x,1/2+y,-z
-x,y,z
x,1/2-y,z
1/2+x,1/2+y,1/2+z
1/2-x,-y,1/2+z
1/2+x,1/2-y,1/2-z
1/2-x,y,1/2-z
1/2-x,1/2-y,1/2-z
1/2+x,y,1/2-z
1/2-x,1/2+y,1/2+z
1/2+x,-y,1/2+z
loop_
_atom_site_type_symbol
_atom_site_label
_atom_site_fract_x
_atom_site_fract_y
_atom_site_fract_z
Si Si1 0.181737 0.022236 0.848172
Si Si2 0.693751 0.301990 0.468016
Si Si3 0.149797 0.198585 0.363381
Si Si4 0.670844 0.622678 0.304243
Si Si5 0.919065 0.879960 0.485707
Si Si6 0.920028 0.031002 0.357934
O O1 0.250000 0.022814 0.750000
O O2 0.159712 0.073549 0.870718
O O3 0.124723 0.993144 0.763921
O O4 0.198033 0.000000 0.000000
O O5 0.685493 0.250000 0.512516
O O6 0.775908 0.309910 0.441201
O O7 0.660924 0.307131 0.308489
O O8 0.663471 0.337047 0.582023
O O9 0.131988 0.250000 0.389979
O O10 0.094640 0.164797 0.425853
O O11 0.750000 0.625233 0.250000
O O12 0.621637 0.624213 0.164597
O O13 0.893238 0.921300 0.584446
O O14 0.000000 0.887951 0.458006
O O15 0.000000 0.035906 0.311013
O O16 0.918736 0.000000 0.500000
#
# Coordination Sequence:
#
# PCOD9539577 Si02
#       6
#    16  16  16  16  16  16
#     4  11  25  38  58  90 121 152 194 246 294 346
#     4   9  19  36  60  89 118 151 192 243 296 347
#     4   9  19  37  60  88 118 150 196 244 291 352
#     4  11  22  37  57  89 120 152 194 244 291 346
#     4  11  23  39  61  87 118 158 199 241 295 352
#     4  10  21  41  62  81 117 161 196 235 289 351
#
# _framework density 17.914266000000001
#
# number of rings (size 3 to 8) (size 9 to 14) (size 15 to 20)
#    0.000    1.833    3.333    1.500    4.667    1.667 
#    0.000    0.833    0.000    1.000    0.000    0.000 
#    0.000    0.000    0.000    0.000    0.000    0.000 
#
# Total GULP energy -267873.873463 kJ/mol
# GULP energy per Si atom -5580.705697 kJ/mol
# Density = 1.787349 g / cm^3
# Si number density = 17.914266 Si / 1000 Ang^3
#
#
#
# Elastic Constant Matrix: (Units=GPa)
#
#
# Indices 1 2 3 4 5 6 
#
# 1 44.2088 28.8519 22.7832 0.0000 0.0000 0.0000
# 2 28.8519 134.4110 71.2688 0.0000 0.0000 0.0000
# 3 22.7832 71.2688 76.8655 0.0001 0.0000 0.0000
# 4 0.0000 0.0000 0.0001 37.8453 0.0000 0.0000
# 5 0.0000 0.0000 0.0000 0.0000 28.7813 0.0000
# 6 0.0000 0.0000 0.0000 0.0000 0.0000 26.8541
#
#
#
# Elastic Compliance Matrix: (Units=1/GPa)
#
#
# Indices 1 2 3 4 5 6 
#
# 1 0.027336 -0.003091 -0.005236 0.000000 0.000000 0.000000
# 2 -0.003091 0.014984 -0.012977 0.000000 0.000000 0.000000
# 3 -0.005236 -0.012977 0.026594 0.000000 0.000000 0.000000
# 4 0.000000 0.000000 0.000000 0.026423 0.000000 0.000000
# 5 0.000000 0.000000 0.000000 0.000000 0.034745 0.000000
# 6 0.000000 0.000000 0.000000 0.000000 0.000000 0.037238
#
#
# Mechanical properties :
#
#
# Convention : Reuss Voigt Hill
#
# Bulk Modulus (GPa) = 38.01553 55.69924 46.85739
# Shear Modulus (GPa) = 22.86264 27.53489 25.19876
#
# Velocity S-wave (km/s) = 3.57630 3.92476 3.75458
# Velocity P-wave (km/s) = 6.19033 7.19013 6.70888
#
# Compressibility (1/GPa) = 0.02630504
#
# Stress axis : x y z
#
# Youngs Moduli (GPa) = 36.58193 66.73696 37.60283
#
# Poissons Ratio (x) = 0.20631 0.19689
# Poissons Ratio (y) = 0.11309 0.48797
# Poissons Ratio (z) = 0.19155 0.86604
#
# Static dielectric constant tensor:
#      x y z
#    x 1.605840 0.000000 0.000000 
#    y 0.000000 1.625370 0.000000 
#    z 0.000000 0.000000 1.585160 
# 
# From -- ./inp_files/12635.got.cif
#   From: 2010.05.17/outbox.cif.g08.bks.cpg/sg74_7_cif.got.tgz:12635.got - 2010.06.03 17:57:02.
