data_PCOD9539482
_publ_section_title
;
Structure prediction by ZEFSAII (Michael W. Deem and Ramdas Pophale) SiO2 
 PCOD9539482
Probable space group: I M M A
;
_chemical_formula_sum "Si O2"
_cell_formula_units_Z 64
_cell_length_a 13.373863
_cell_length_b 22.696628
_cell_length_c 9.392446
_cell_angle_alpha 90.000000
_cell_angle_beta 90.000000
_cell_angle_gamma 90.000000
_cell_volume 2850.998025
_symmetry_space_group_name_H-M "I M M A"
_symmetry_group_IT_number 74
_symmetry_cell_setting 'orthorhombic'
loop_
_space_group_symop_operation_xyz
x,y,z
-x,1/2-y,z
x,-y,-z
-x,1/2+y,-z
-x,-y,-z
x,1/2+y,-z
-x,y,z
x,1/2-y,z
1/2+x,1/2+y,1/2+z
1/2-x,-y,1/2+z
1/2+x,1/2-y,1/2-z
1/2-x,y,1/2-z
1/2-x,1/2-y,1/2-z
1/2+x,y,1/2-z
1/2-x,1/2+y,1/2+z
1/2+x,-y,1/2+z
loop_
_atom_site_type_symbol
_atom_site_label
_atom_site_fract_x
_atom_site_fract_y
_atom_site_fract_z
Si Si1 0.619634 0.627910 0.130789
Si Si2 0.214051 0.129044 0.110072
Si Si3 0.614968 0.550399 0.399775
Si Si4 0.879885 0.250000 0.112719
Si Si5 0.118778 0.250000 0.788730
O O1 0.500000 0.625504 0.100367
O O2 0.643638 0.575693 0.244294
O O3 0.641918 0.690144 0.207108
O O4 0.689979 0.628139 0.993643
O O5 0.250000 0.094071 0.250000
O O6 0.166679 0.189710 0.169421
O O7 0.126731 0.104766 0.008110
O O8 0.665373 0.500000 0.500000
O O9 0.500000 0.532506 0.378949
O O10 0.000000 0.250000 0.125480
O O11 0.842696 0.250000 0.948494
O O12 0.000000 0.250000 0.804690
#
# Coordination Sequence:
#
# PCOD9539482 Si02
#       5
#    16  16  16   8   8
#     4  10  21  39  64  94 125 164 209 257 306 366
#     4  12  25  38  60  94 129 170 207 252 314 373
#     4  10  22  42  66  90 118 158 210 264 316 369
#     4  11  22  39  62  91 127 167 210 255 310 368
#     4   9  17  33  62  91 115 153 205 250 303 357
#
# _framework density 22.44828
#
# number of rings (size 3 to 8) (size 9 to 14) (size 15 to 20)
#    0.000    1.500    2.500    2.625    0.000    5.000 
#    0.000    1.250    0.000    5.250    0.000    0.000 
#    0.000    0.000    0.000    0.000    0.000    0.000 
#
# Total GULP energy -178292.832485 kJ/mol
# GULP energy per Si atom -5571.651015 kJ/mol
# Density = 2.239719 g / cm^3
# Si number density = 22.448280 Si / 1000 Ang^3
#
#
#
# Elastic Constant Matrix: (Units=GPa)
#
#
# Indices 1 2 3 4 5 6 
#
# 1 111.6095 12.0168 28.7787 0.0001 -0.0001 0.0000
# 2 12.0168 60.3304 -0.7478 0.0001 -0.0001 0.0000
# 3 28.7787 -0.7478 92.2533 0.0000 -0.0001 0.0001
# 4 0.0001 0.0001 0.0000 -8.8503 0.0001 0.0002
# 5 -0.0001 -0.0001 -0.0001 0.0001 34.0601 0.0002
# 6 0.0000 0.0000 0.0001 0.0002 0.0002 5.5483
#
#
#
# Elastic Compliance Matrix: (Units=1/GPa)
#
#
# Indices 1 2 3 4 5 6 
#
# 1 0.009986 -0.002028 -0.003131 0.000000 0.000000 0.000000
# 2 -0.002028 0.016989 0.000770 0.000000 0.000000 0.000000
# 3 -0.003131 0.000770 0.011823 0.000000 0.000000 0.000000
# 4 0.000000 0.000000 0.000000 -0.112990 0.000000 0.000004
# 5 0.000000 0.000000 0.000000 0.000000 0.029360 -0.000001
# 6 0.000000 0.000000 0.000000 0.000004 -0.000001 0.180234
#
#
# Mechanical properties :
#
#
# Convention : Reuss Voigt Hill
#
# Bulk Modulus (GPa) = 33.31186 38.25428 35.78307
# Shear Modulus (GPa) = 32.42852 21.09465 26.76158
#
# Velocity S-wave (km/s) = 3.80490 3.06878 3.45649
# Velocity P-wave (km/s) = 5.84590 5.44377 5.64842
#
# Compressibility (1/GPa) = 0.03001934
#
# Stress axis : x y z
#
# Youngs Moduli (GPa) = 100.14424 58.86214 84.58208
#
# Poissons Ratio (x) = 0.11936 0.26487
# Poissons Ratio (y) = 0.20307 -0.06515
# Poissons Ratio (z) = 0.31360 -0.04534
#
# Static dielectric constant tensor:
#      x y z
#    x 1.849220 0.000000 0.000000 
#    y 0.000000 1.952510 0.000000 
#    z 0.000000 0.000000 1.783460 
# 
# From -- ./inp_files/8871.got.cif
#   From: 2010.05.17/outbox.cif.g08.bks.cpg/sg74_5_cif.got.tgz:8871.got - 2010.06.03 17:57:02.
