data_PCOD9539035
_publ_section_title
;
Structure prediction by ZEFSAII (Michael W. Deem and Ramdas Pophale) SiO2 
 PCOD9539035
Probable space group: I M M A
;
_chemical_formula_sum "Si O2"
_cell_formula_units_Z 96
_cell_length_a 14.442926
_cell_length_b 15.014491
_cell_length_c 20.141475
_cell_angle_alpha 90.000000
_cell_angle_beta 90.000000
_cell_angle_gamma 90.000000
_cell_volume 4367.742953
_symmetry_space_group_name_H-M "I M M A"
_symmetry_group_IT_number 74
_symmetry_cell_setting 'orthorhombic'
loop_
_space_group_symop_operation_xyz
x,y,z
-x,1/2-y,z
x,-y,-z
-x,1/2+y,-z
-x,-y,-z
x,1/2+y,-z
-x,y,z
x,1/2-y,z
1/2+x,1/2+y,1/2+z
1/2-x,-y,1/2+z
1/2+x,1/2-y,1/2-z
1/2-x,y,1/2-z
1/2-x,1/2-y,1/2-z
1/2+x,y,1/2-z
1/2-x,1/2+y,1/2+z
1/2+x,-y,1/2+z
loop_
_atom_site_type_symbol
_atom_site_label
_atom_site_fract_x
_atom_site_fract_y
_atom_site_fract_z
Si Si1 0.106402 0.045614 0.215213
Si Si2 0.887284 0.851088 0.659586
Si Si3 0.605137 0.105598 0.010253
Si Si4 0.388440 0.143669 0.417781
Si Si5 0.209420 0.351629 0.949927
Si Si6 0.837874 0.852026 0.200873
O O1 0.148372 0.085215 0.282671
O O2 0.143676 0.087716 0.146670
O O3 0.000000 0.077101 0.214151
O O4 0.105738 0.939133 0.221282
O O5 0.861865 0.750000 0.675394
O O6 0.860210 0.873406 0.584503
O O7 0.000000 0.857084 0.657335
O O8 0.500000 0.139432 0.001934
O O9 0.680857 0.143439 0.960743
O O10 0.602915 0.000000 0.000000
O O11 0.500000 0.135229 0.425657
O O12 0.368666 0.250000 0.407556
O O13 0.340391 0.107967 0.485316
O O14 0.177377 0.250000 0.953376
O O15 0.187281 0.377357 0.875064
O O16 0.876232 0.750000 0.201845
O O17 0.750000 0.850184 0.250000
#
# Coordination Sequence:
#
# PCOD9539035 Si02
#       6
#    16  16  16  16  16  16
#     4  10  21  36  61  91 118 158 201 244 302 363
#     4   9  18  35  59  89 126 160 192 238 300 367
#     4  10  22  37  59  90 122 157 197 247 302 360
#     4   9  19  37  61  94 131 160 194 241 299 372
#     4  10  22  39  61  86 115 158 203 250 308 359
#     4  10  24  43  58  78 112 157 206 258 312 359
#
# _framework density 21.979315
#
# number of rings (size 3 to 8) (size 9 to 14) (size 15 to 20)
#    0.000    2.333    0.000    1.000    4.667    4.000 
#    0.000    3.333    0.000    7.000    0.000    0.000 
#    0.000    0.000    0.000    0.000    0.000    0.000 
#
# Total GULP energy -267749.789108 kJ/mol
# GULP energy per Si atom -5578.120606 kJ/mol
# Density = 2.192929 g / cm^3
# Si number density = 21.979315 Si / 1000 Ang^3
#
#
#
# Elastic Constant Matrix: (Units=GPa)
#
#
# Indices 1 2 3 4 5 6 
#
# 1 38.7548 1.4721 -0.6090 0.0000 0.0000 0.0000
# 2 1.4721 97.5293 33.7767 0.0000 0.0000 0.0000
# 3 -0.6090 33.7767 38.9447 0.0000 0.0000 0.0000
# 4 0.0000 0.0000 0.0000 -9.7442 0.0000 0.0000
# 5 0.0000 0.0000 0.0000 0.0000 19.3666 0.0000
# 6 0.0000 0.0000 0.0000 0.0000 0.0000 24.8902
#
#
#
# Elastic Compliance Matrix: (Units=1/GPa)
#
#
# Indices 1 2 3 4 5 6 
#
# 1 0.025849 -0.000758 0.001061 0.000000 0.000000 0.000000
# 2 -0.000758 0.014677 -0.012742 0.000000 0.000000 0.000000
# 3 0.001061 -0.012742 0.036745 0.000000 0.000000 0.000000
# 4 0.000000 0.000000 0.000000 -0.102625 0.000000 0.000000
# 5 0.000000 0.000000 0.000000 0.000000 0.051635 0.000000
# 6 0.000000 0.000000 0.000000 0.000000 0.000000 0.040176
#
#
# Mechanical properties :
#
#
# Convention : Reuss Voigt Hill
#
# Bulk Modulus (GPa) = 19.08575 27.16760 23.12667
# Shear Modulus (GPa) = 45.95643 16.27513 31.11578
#
# Velocity S-wave (km/s) = 4.57759 2.72412 3.76664
# Velocity P-wave (km/s) = 6.05322 4.72036 5.42786
#
# Compressibility (1/GPa) = 0.05239511
#
# Stress axis : x y z
#
# Youngs Moduli (GPa) = 38.68666 68.13152 27.21474
#
# Poissons Ratio (x) = 0.05163 -0.02889
# Poissons Ratio (y) = 0.02932 0.34676
# Poissons Ratio (z) = -0.04106 0.86811
#
# Static dielectric constant tensor:
#      x y z
#    x 1.846980 0.000000 0.000000 
#    y 0.000000 1.817480 0.000000 
#    z 0.000000 0.000000 2.022720 
# 
# From -- ./inp_files/51844.got.cif
#   From: 2010.05.17/outbox.cif.g08.bks.cpg/sg74_26_cif.got.tgz:51844.got - 2010.06.03 17:57:02.
