data_PCOD9539240
_publ_section_title
;
Structure prediction by ZEFSAII (Michael W. Deem and Ramdas Pophale) SiO2 
 PCOD9539240
Probable space group: I M M A
;
_chemical_formula_sum "Si O2"
_cell_formula_units_Z 112
_cell_length_a 14.029819
_cell_length_b 17.719537
_cell_length_c 24.753891
_cell_angle_alpha 90.000000
_cell_angle_beta 90.000000
_cell_angle_gamma 90.000000
_cell_volume 6153.864258
_symmetry_space_group_name_H-M "I M M A"
_symmetry_group_IT_number 74
_symmetry_cell_setting 'orthorhombic'
loop_
_space_group_symop_operation_xyz
x,y,z
-x,1/2-y,z
x,-y,-z
-x,1/2+y,-z
-x,-y,-z
x,1/2+y,-z
-x,y,z
x,1/2-y,z
1/2+x,1/2+y,1/2+z
1/2-x,-y,1/2+z
1/2+x,1/2-y,1/2-z
1/2-x,y,1/2-z
1/2-x,1/2-y,1/2-z
1/2+x,y,1/2-z
1/2-x,1/2+y,1/2+z
1/2+x,-y,1/2+z
loop_
_atom_site_type_symbol
_atom_site_label
_atom_site_fract_x
_atom_site_fract_y
_atom_site_fract_z
Si Si1 0.114823 0.942528 0.123229
Si Si2 0.724031 0.833220 0.686733
Si Si3 0.385607 0.061389 0.156227
Si Si4 0.607722 0.068759 0.457343
Si Si5 0.111904 0.452355 0.554090
Si Si6 0.778440 0.839376 0.041026
Si Si7 0.386395 0.975638 0.722240
O O1 0.157635 0.874120 0.089474
O O2 0.000000 0.937980 0.119629
O O3 0.143001 0.021291 0.093764
O O4 0.145382 0.954391 0.185064
O O5 0.695329 0.750000 0.666528
O O6 0.750000 0.824651 0.750000
O O7 0.815771 0.866266 0.654864
O O8 0.645664 0.898524 0.692781
O O9 0.500000 0.079468 0.156747
O O10 0.358486 0.025686 0.214831
O O11 0.369427 0.003956 0.106896
O O12 0.500000 0.097927 0.448391
O O13 0.675375 0.129737 0.485058
O O14 0.601137 0.000000 0.500000
O O15 0.133257 0.500000 0.500000
O O16 0.177162 0.379076 0.550616
O O17 0.000000 0.433996 0.554075
O O18 0.775171 0.750000 0.041688
O O19 0.500000 0.977231 0.722055
#
# Coordination Sequence:
#
# PCOD9539240 Si02
#       7
#    16  16  16  16  16  16  16
#     4   9  17  31  52  76 103 134 165 196 230 277
#     4   9  17  28  44  70 103 132 156 191 239 286
#     4   9  18  33  53  73  92 124 170 210 245 289
#     4   8  15  29  48  70  98 131 162 189 223 276
#     4  10  21  38  57  72  90 122 166 213 254 292
#     4  11  21  32  51  76 101 130 160 200 252 294
#     4   9  17  30  50  74  99 131 169 202 233 280
#
# _framework density 18.199946000000001
#
# number of rings (size 3 to 8) (size 9 to 14) (size 15 to 20)
#    0.000    2.714    0.000    3.429    0.000    2.000 
#    0.000    5.714    0.000    6.857    0.000    4.000 
#    0.000    0.000    0.000    0.000    0.000    0.000 
#
# Total GULP energy -311876.892257 kJ/mol
# GULP energy per Si atom -5569.230219 kJ/mol
# Density = 1.815852 g / cm^3
# Si number density = 18.199946 Si / 1000 Ang^3
#
#
#
# Elastic Constant Matrix: (Units=GPa)
#
#
# Indices 1 2 3 4 5 6 
#
# 1 54.1178 43.5429 29.5850 0.0000 0.0000 0.0000
# 2 43.5429 120.7176 48.8188 0.0000 0.0000 0.0000
# 3 29.5850 48.8188 84.4559 0.0000 0.0000 0.0000
# 4 0.0000 0.0000 0.0000 11.8309 0.0000 0.0000
# 5 0.0000 0.0000 0.0000 0.0000 17.2829 0.0000
# 6 0.0000 0.0000 0.0000 0.0000 0.0000 -4.4231
#
#
#
# Elastic Compliance Matrix: (Units=1/GPa)
#
#
# Indices 1 2 3 4 5 6 
#
# 1 0.027628 -0.007898 -0.005113 0.000000 0.000000 0.000000
# 2 -0.007898 0.013069 -0.004788 0.000000 0.000000 0.000000
# 3 -0.005113 -0.004788 0.016399 0.000000 0.000000 0.000000
# 4 0.000000 0.000000 0.000000 0.084524 0.000000 0.000000
# 5 0.000000 0.000000 0.000000 0.000000 0.057861 0.000000
# 6 0.000000 0.000000 0.000000 0.000000 0.000000 -0.226085
#
#
# Mechanical properties :
#
#
# Convention : Reuss Voigt Hill
#
# Bulk Modulus (GPa) = 46.51371 55.90941 51.21156
# Shear Modulus (GPa) = 309.45287 14.09445 161.77366
#
# Velocity S-wave (km/s) = 13.05368 2.78586 9.43821
# Velocity P-wave (km/s) = 15.90002 6.41360 12.12322
#
# Compressibility (1/GPa) = 0.02149904
#
# Stress axis : x y z
#
# Youngs Moduli (GPa) = 36.19553 76.51916 60.97940
#
# Poissons Ratio (x) = 0.60432 0.31178
# Poissons Ratio (y) = 0.28586 0.29195
# Poissons Ratio (z) = 0.18506 0.36635
#
# Static dielectric constant tensor:
#      x y z
#    x 1.677330 0.000000 0.000000 
#    y 0.000000 1.594800 0.000000 
#    z 0.000000 0.000000 1.709960 
# 
# From -- ./inp_files/60181.got.cif
#   From: 2010.05.17/outbox.cif.g08.bks.cpg/sg74_31_cif.got.tgz:60181.got - 2010.06.03 17:57:02.
