data_PCOD9539737
_publ_section_title
;
Structure prediction by ZEFSAII (Michael W. Deem and Ramdas Pophale) SiO2 
 PCOD9539737
Probable space group: I M M A
;
_chemical_formula_sum "Si O2"
_cell_formula_units_Z 112
_cell_length_a 28.209543
_cell_length_b 31.574235
_cell_length_c 5.624949
_cell_angle_alpha 90.000000
_cell_angle_beta 90.000000
_cell_angle_gamma 90.000000
_cell_volume 5010.112487
_symmetry_space_group_name_H-M "I M M A"
_symmetry_group_IT_number 74
_symmetry_cell_setting 'orthorhombic'
loop_
_space_group_symop_operation_xyz
x,y,z
-x,1/2-y,z
x,-y,-z
-x,1/2+y,-z
-x,-y,-z
x,1/2+y,-z
-x,y,z
x,1/2-y,z
1/2+x,1/2+y,1/2+z
1/2-x,-y,1/2+z
1/2+x,1/2-y,1/2-z
1/2-x,y,1/2-z
1/2-x,1/2-y,1/2-z
1/2+x,y,1/2-z
1/2-x,1/2+y,1/2+z
1/2+x,-y,1/2+z
loop_
_atom_site_type_symbol
_atom_site_label
_atom_site_fract_x
_atom_site_fract_y
_atom_site_fract_z
Si Si1 0.124311 0.927935 0.017712
Si Si2 0.845726 0.146599 0.250762
Si Si3 0.198946 0.525286 0.253649
Si Si4 0.551348 0.041087 0.168715
Si Si5 0.606614 0.298540 0.650045
Si Si6 0.076049 0.623212 0.378170
Si Si7 0.791718 0.798502 0.425648
O O1 0.151344 0.948465 0.235437
O O2 0.083182 0.899189 0.125903
O O3 0.161941 0.895738 0.901058
O O4 0.097582 0.957889 0.834899
O O5 0.875948 0.129523 0.471931
O O6 0.801280 0.171810 0.349864
O O7 0.878583 0.178629 0.096971
O O8 0.198038 0.500000 0.500000
O O9 0.250000 0.548298 0.250000
O O10 0.197951 0.500000 0.000000
O O11 0.500000 0.037775 0.294209
O O12 0.550654 0.086691 0.031856
O O13 0.554578 0.000000 0.000000
O O14 0.591529 0.250000 0.618697
O O15 0.568825 0.327726 0.795793
O O16 0.657488 0.297848 0.788500
O O17 0.781115 0.750000 0.495224
O O18 0.750000 0.812908 0.250000
#
# Coordination Sequence:
#
# PCOD9539737 Si02
#       7
#    16  16  16  16  16  16  16
#     4  10  22  38  65  87 124 170 210 268 339 399
#     4   9  18  34  51  79 114 157 210 260 329 396
#     4  10  24  43  67  94 125 172 238 291 341 398
#     4  10  23  41  65 101 134 167 211 263 338 425
#     4   9  17  32  54  80 110 153 211 264 320 395
#     4   9  20  36  57  88 121 161 204 259 326 392
#     4   9  17  29  48  75 113 159 208 264 327 388
#
# _framework density 22.354789
#
# number of rings (size 3 to 8) (size 9 to 14) (size 15 to 20)
#    0.000    2.571    0.000    0.429    6.000    1.714 
#    0.000   11.429    0.000    0.857    0.000    0.000 
#    0.000    0.000    0.000    0.000    0.000    0.000 
#
# Total GULP energy -311744.589568 kJ/mol
# GULP energy per Si atom -5566.867671 kJ/mol
# Density = 2.230391 g / cm^3
# Si number density = 22.354789 Si / 1000 Ang^3
#
#
#
# Elastic Constant Matrix: (Units=GPa)
#
#
# Indices 1 2 3 4 5 6 
#
# 1 69.8102 51.3260 25.0209 0.0000 0.0000 0.0000
# 2 51.3260 113.9828 37.9221 0.0000 0.0000 0.0000
# 3 25.0209 37.9221 82.2145 0.0000 0.0000 0.0000
# 4 0.0000 0.0000 0.0000 37.7582 0.0000 0.0000
# 5 0.0000 0.0000 0.0000 0.0000 -4.9556 0.0000
# 6 0.0000 0.0000 0.0000 0.0000 0.0000 17.2666
#
#
#
# Elastic Compliance Matrix: (Units=1/GPa)
#
#
# Indices 1 2 3 4 5 6 
#
# 1 0.021838 -0.009004 -0.002493 0.000000 0.000000 0.000000
# 2 -0.009004 0.014076 -0.003752 0.000000 0.000000 0.000000
# 3 -0.002493 -0.003752 0.014653 0.000000 0.000000 0.000000
# 4 0.000000 0.000000 0.000000 0.026484 0.000000 0.000000
# 5 0.000000 0.000000 0.000000 0.000000 -0.201791 0.000000
# 6 0.000000 0.000000 0.000000 0.000000 0.000000 0.057915
#
#
# Mechanical properties :
#
#
# Convention : Reuss Voigt Hill
#
# Bulk Modulus (GPa) = 49.83036 54.94950 52.38993
# Shear Modulus (GPa) = -168.71347 20.12974 -74.29186
#
# Velocity S-wave (km/s) = -8.69682 3.00403 -5.77107
# Velocity P-wave (km/s) = 8.86043 6.05527 4.57389
#
# Compressibility (1/GPa) = 0.02006809
#
# Stress axis : x y z
#
# Youngs Moduli (GPa) = 45.79137 71.04139 68.24619
#
# Poissons Ratio (x) = 0.63968 0.17013
# Poissons Ratio (y) = 0.41232 0.25609
# Poissons Ratio (z) = 0.11415 0.26658
#
# Static dielectric constant tensor:
#      x y z
#    x 1.810540 0.000000 0.000000 
#    y 0.000000 1.889040 0.000000 
#    z 0.000000 0.000000 1.890360 
# 
# From -- ./inp_files/5324.got.cif
#   From: 2010.05.17/outbox.cif.g08.bks.cpg/sg74_3_cif.got.tgz:5324.got - 2010.06.03 17:57:02.
