data_PCOD9539794
_publ_section_title
;
Structure prediction by ZEFSAII (Michael W. Deem and Ramdas Pophale) SiO2 
 PCOD9539794
Probable space group: I M M A
;
_chemical_formula_sum "Si O2"
_cell_formula_units_Z 68
_cell_length_a 11.802509
_cell_length_b 27.737001
_cell_length_c 10.771950
_cell_angle_alpha 90.000000
_cell_angle_beta 90.000000
_cell_angle_gamma 90.000000
_cell_volume 3526.372380
_symmetry_space_group_name_H-M "I M M A"
_symmetry_group_IT_number 74
_symmetry_cell_setting 'orthorhombic'
loop_
_space_group_symop_operation_xyz
x,y,z
-x,1/2-y,z
x,-y,-z
-x,1/2+y,-z
-x,-y,-z
x,1/2+y,-z
-x,y,z
x,1/2-y,z
1/2+x,1/2+y,1/2+z
1/2-x,-y,1/2+z
1/2+x,1/2-y,1/2-z
1/2-x,y,1/2-z
1/2-x,1/2-y,1/2-z
1/2+x,y,1/2-z
1/2-x,1/2+y,1/2+z
1/2+x,-y,1/2+z
loop_
_atom_site_type_symbol
_atom_site_label
_atom_site_fract_x
_atom_site_fract_y
_atom_site_fract_z
Si Si1 0.129541 0.033963 0.688698
Si Si2 0.625101 0.572792 0.907615
Si Si3 0.500000 0.750000 0.272988
Si Si4 0.372377 0.750000 0.030055
Si Si5 0.500000 0.805151 0.515565
Si Si6 0.238600 0.831558 0.889673
O O1 0.250000 0.049430 0.750000
O O2 0.128813 0.056348 0.550975
O O3 0.000000 0.044022 0.740911
O O4 0.137162 0.976037 0.671172
O O5 0.500000 0.593221 0.881484
O O6 0.713831 0.614642 0.887785
O O7 0.500000 0.795229 0.367035
O O8 0.394242 0.750000 0.178415
O O9 0.500000 0.750000 0.976929
O O10 0.307642 0.796916 0.982244
O O11 0.500000 0.750000 0.566459
O O12 0.389058 0.830822 0.563397
O O13 0.250000 0.811869 0.750000
#
# Coordination Sequence:
#
# PCOD9539794 Si02
#       6
#    16  16   4   8   8  16
#     4   9  18  39  62  86 120 161 206 259 304 375
#     4   9  20  39  60  85 121 163 205 243 313 369
#     4   8  22  46  62  82 116 164 206 244 314 370
#     4  10  22  39  66  84 110 166 201 239 307 378
#     4  10  24  43  58  88 127 160 198 267 311 346
#     4  12  24  38  62  92 125 158 208 256 311 373
#
# _framework density 19.283270999999999
#
# number of rings (size 3 to 8) (size 9 to 14) (size 15 to 20)
#    0.706    1.412    1.176    3.176    3.294    1.882 
#    8.471    1.176    0.000    0.000    0.000    0.000 
#    0.000    0.000    0.000    0.000    0.000    0.000 
#
# Total GULP energy -189406.269241 kJ/mol
# GULP energy per Si atom -5570.772625 kJ/mol
# Density = 1.923938 g / cm^3
# Si number density = 19.283271 Si / 1000 Ang^3
#
#
#
# Elastic Constant Matrix: (Units=GPa)
#
#
# Indices 1 2 3 4 5 6 
#
# 1 173.7579 26.5299 49.2842 0.0000 0.0000 0.0114
# 2 26.5299 58.9017 5.6534 0.0000 0.0000 0.0151
# 3 49.2842 5.6534 90.9949 0.0000 0.0002 -0.0556
# 4 0.0000 0.0000 0.0000 22.1243 0.0000 -0.0011
# 5 0.0000 0.0000 0.0002 0.0000 17.7296 0.0257
# 6 0.0114 0.0151 -0.0556 -0.0011 0.0257-4184.0333
#
#
#
# Elastic Compliance Matrix: (Units=1/GPa)
#
#
# Indices 1 2 3 4 5 6 
#
# 1 0.007264 -0.002912 -0.003754 0.000000 0.000000 0.000000
# 2 -0.002912 0.018246 0.000443 0.000000 0.000000 0.000000
# 3 -0.003754 0.000443 0.012995 0.000000 0.000000 0.000000
# 4 0.000000 0.000000 0.000000 0.045199 0.000000 0.000000
# 5 0.000000 0.000000 0.000000 0.000000 0.056403 0.000000
# 6 0.000000 0.000000 0.000000 0.000000 0.000000 -0.000239
#
#
# Mechanical properties :
#
#
# Convention : Reuss Voigt Hill
#
# Bulk Modulus (GPa) = 38.37001 54.06550 46.21776
# Shear Modulus (GPa) = 31.05588 -812.69010 -390.81711
#
# Velocity S-wave (km/s) = 4.01747 -20.55148 -14.25172
# Velocity P-wave (km/s) = 6.43905 23.13120 15.70973
#
# Compressibility (1/GPa) = 0.02606202
#
# Stress axis : x y z
#
# Youngs Moduli (GPa) = 137.65849 54.80555 76.95219
#
# Poissons Ratio (x) = 0.15958 0.28885
# Poissons Ratio (y) = 0.40082 -0.03412
# Poissons Ratio (z) = 0.51671 -0.02430
#
# Static dielectric constant tensor:
#      x y z
#    x 1.765050 0.000000 0.000000 
#    y 0.000000 1.646960 0.000000 
#    z 0.000000 0.000000 1.677740 
# 
# From -- ./inp_files/18825.got.cif
#   From: 2010.05.17/outbox.cif.g08.bks.cpg/sg74_10_cif.got.tgz:18825.got - 2010.06.03 17:57:02.
