data_PCOD9539159
_publ_section_title
;
Structure prediction by ZEFSAII (Michael W. Deem and Ramdas Pophale) SiO2 
 PCOD9539159
Probable space group: I M M A
;
_chemical_formula_sum "Si O2"
_cell_formula_units_Z 112
_cell_length_a 26.579156
_cell_length_b 14.616847
_cell_length_c 12.866961
_cell_angle_alpha 90.000000
_cell_angle_beta 90.000000
_cell_angle_gamma 90.000000
_cell_volume 4998.858825
_symmetry_space_group_name_H-M "I M M A"
_symmetry_group_IT_number 74
_symmetry_cell_setting 'orthorhombic'
loop_
_space_group_symop_operation_xyz
x,y,z
-x,1/2-y,z
x,-y,-z
-x,1/2+y,-z
-x,-y,-z
x,1/2+y,-z
-x,y,z
x,1/2-y,z
1/2+x,1/2+y,1/2+z
1/2-x,-y,1/2+z
1/2+x,1/2-y,1/2-z
1/2-x,y,1/2-z
1/2-x,1/2-y,1/2-z
1/2+x,y,1/2-z
1/2-x,1/2+y,1/2+z
1/2+x,-y,1/2+z
loop_
_atom_site_type_symbol
_atom_site_label
_atom_site_fract_x
_atom_site_fract_y
_atom_site_fract_z
Si Si1 0.636074 0.352987 0.347097
Si Si2 0.601028 0.356347 0.942444
Si Si3 0.091566 0.355909 0.782745
Si Si4 0.558410 0.361905 0.163114
Si Si5 0.188625 0.966998 0.170328
Si Si6 0.708999 0.069129 0.905789
Si Si7 0.947093 0.890597 0.006218
O O1 0.654753 0.250000 0.324218
O O2 0.598646 0.385566 0.253434
O O3 0.678272 0.429863 0.367026
O O4 0.599731 0.350076 0.446015
O O5 0.586967 0.250000 0.947649
O O6 0.579100 0.392583 0.832673
O O7 0.661771 0.364713 0.928223
O O8 0.580565 0.394936 0.051420
O O9 0.106097 0.250000 0.768536
O O10 0.137517 0.411210 0.831743
O O11 0.051966 0.362732 0.873936
O O12 0.500000 0.391146 0.177822
O O13 0.557797 0.250000 0.163702
O O14 0.232007 0.909363 0.111965
O O15 0.198912 0.975360 0.293531
O O16 0.706888 0.000000 0.000000
O O17 0.000000 0.862880 0.955261
O O18 0.943246 0.000000 0.000000
#
# Coordination Sequence:
#
# PCOD9539159 Si02
#       7
#    16  16  16  16  16  16  16
#     4  11  22  38  62  87 120 163 204 251 302 363
#     4   9  19  37  61  90 120 155 199 248 305 370
#     4  10  21  38  61  85 116 157 199 246 300 359
#     4   9  18  34  60  93 126 159 198 250 310 374
#     4  10  22  39  58  87 116 154 204 253 305 357
#     4  10  21  37  59  80 116 160 195 250 310 357
#     4  11  23  39  60  86 122 163 202 248 297 353
#
# _framework density 22.405113
#
# number of rings (size 3 to 8) (size 9 to 14) (size 15 to 20)
#    0.000    2.000    1.429    1.714    2.000    2.857 
#    0.000    6.429    0.000    3.857    0.000    0.000 
#    0.000    0.000    0.000    0.000    0.000    0.000 
#
# Total GULP energy -312226.279273 kJ/mol
# GULP energy per Si atom -5575.469273 kJ/mol
# Density = 2.235412 g / cm^3
# Si number density = 22.405113 Si / 1000 Ang^3
#
#
#
# Elastic Constant Matrix: (Units=GPa)
#
#
# Indices 1 2 3 4 5 6 
#
# 1 63.1739 -3.6231 10.2650 0.0000 0.0000 0.0000
# 2 -3.6231 53.2418 -2.9464 0.0000 0.0000 0.0000
# 3 10.2650 -2.9464 110.5944 0.0000 0.0000 0.0000
# 4 0.0000 0.0000 0.0000 25.6146 0.0000 0.0000
# 5 0.0000 0.0000 0.0000 0.0000 22.6214 0.0000
# 6 0.0000 0.0000 0.0000 0.0000 0.0000 21.0258
#
#
#
# Elastic Compliance Matrix: (Units=1/GPa)
#
#
# Indices 1 2 3 4 5 6 
#
# 1 0.016126 0.001016 -0.001470 0.000000 0.000000 0.000000
# 2 0.001016 0.018874 0.000409 0.000000 0.000000 0.000000
# 3 -0.001470 0.000409 0.009189 0.000000 0.000000 0.000000
# 4 0.000000 0.000000 0.000000 0.039040 0.000000 0.000000
# 5 0.000000 0.000000 0.000000 0.000000 0.044206 0.000000
# 6 0.000000 0.000000 0.000000 0.000000 0.000000 0.047561
#
#
# Mechanical properties :
#
#
# Convention : Reuss Voigt Hill
#
# Bulk Modulus (GPa) = 22.67598 26.04454 24.36026
# Shear Modulus (GPa) = 26.34538 28.74000 27.54269
#
# Velocity S-wave (km/s) = 3.43281 3.58543 3.50995
# Velocity P-wave (km/s) = 5.08479 5.36563 5.22710
#
# Compressibility (1/GPa) = 0.04409952
#
# Stress axis : x y z
#
# Youngs Moduli (GPa) = 62.01005 52.98293 108.82166
#
# Poissons Ratio (x) = -0.05383 0.15994
# Poissons Ratio (y) = -0.06301 -0.04446
# Poissons Ratio (z) = 0.09114 -0.02165
#
# Static dielectric constant tensor:
#      x y z
#    x 1.951960 0.000000 0.000000 
#    y 0.000000 1.832170 0.000000 
#    z 0.000000 0.000000 1.870520 
# 
# From -- ./inp_files/27201.got.cif
#   From: 2010.05.17/outbox.cif.g08.bks.cpg/sg74_14_cif.got.tgz:27201.got - 2010.06.03 17:57:02.
