data_PCOD9539167
_publ_section_title
;
Structure prediction by ZEFSAII (Michael W. Deem and Ramdas Pophale) SiO2 
 PCOD9539167
Probable space group: I M M A
;
_chemical_formula_sum "Si O2"
_cell_formula_units_Z 100
_cell_length_a 25.254254
_cell_length_b 9.065546
_cell_length_c 20.316821
_cell_angle_alpha 90.000000
_cell_angle_beta 90.000000
_cell_angle_gamma 90.000000
_cell_volume 4651.406167
_symmetry_space_group_name_H-M "I M M A"
_symmetry_group_IT_number 74
_symmetry_cell_setting 'orthorhombic'
loop_
_space_group_symop_operation_xyz
x,y,z
-x,1/2-y,z
x,-y,-z
-x,1/2+y,-z
-x,-y,-z
x,1/2+y,-z
-x,y,z
x,1/2-y,z
1/2+x,1/2+y,1/2+z
1/2-x,-y,1/2+z
1/2+x,1/2-y,1/2-z
1/2-x,y,1/2-z
1/2-x,1/2-y,1/2-z
1/2+x,y,1/2-z
1/2-x,1/2+y,1/2+z
1/2+x,-y,1/2+z
loop_
_atom_site_type_symbol
_atom_site_label
_atom_site_fract_x
_atom_site_fract_y
_atom_site_fract_z
Si Si1 0.663486 0.422627 0.753149
Si Si2 0.940588 0.573865 0.794821
Si Si3 0.000000 0.750000 0.374331
Si Si4 0.416662 0.924414 0.433181
Si Si5 0.306471 0.076297 0.117312
Si Si6 0.408720 0.913056 0.061561
Si Si7 0.795883 0.417469 0.896292
O O1 0.661305 0.250000 0.771774
O O2 0.604902 0.489827 0.744802
O O3 0.693590 0.514016 0.808250
O O4 0.690004 0.432259 0.681369
O O5 0.930867 0.750000 0.795537
O O6 0.937268 0.509044 0.868869
O O7 0.000000 0.546639 0.769756
O O8 0.953002 0.623346 0.384184
O O9 0.429499 0.750000 0.429719
O O10 0.352618 0.937333 0.430362
O O11 0.435656 0.000000 0.500000
O O12 0.312056 0.250000 0.116568
O O13 0.357484 0.999457 0.085597
O O14 0.250974 0.027033 0.085566
O O15 0.391570 0.750000 0.038001
O O16 0.432710 0.000000 0.000000
O O17 0.777393 0.250000 0.907501
#
# Coordination Sequence:
#
# PCOD9539167 Si02
#       7
#    16  16   4  16  16  16  16
#     4  10  21  39  61  84 114 154 196 237 287 344
#     4  10  21  38  59  84 117 153 192 242 294 343
#     4   8  22  40  70  84 108 152 188 228 290 342
#     4  10  21  37  59  86 116 153 198 239 288 345
#     4  12  24  37  57  90 122 151 191 235 281 339
#     4  10  21  40  63  88 113 144 188 233 285 339
#     4   9  20  38  59  82 115 156 192 236 289 341
#
# _framework density 21.498874000000001
#
# number of rings (size 3 to 8) (size 9 to 14) (size 15 to 20)
#    0.480    1.440    0.000    5.040    0.000    8.000 
#    1.440    1.600    0.000    0.000    0.000    0.000 
#    0.000    0.000    0.000    0.000    0.000    0.000 
#
# Total GULP energy -278834.179551 kJ/mol
# GULP energy per Si atom -5576.683591 kJ/mol
# Density = 2.144994 g / cm^3
# Si number density = 21.498874 Si / 1000 Ang^3
#
#
#
# Elastic Constant Matrix: (Units=GPa)
#
#
# Indices 1 2 3 4 5 6 
#
# 1 118.5950 63.3139 -5.8294 0.0000 0.0000 0.0000
# 2 63.3139 143.1663 11.3274 0.0000 0.0000 0.0000
# 3 -5.8294 11.3274 38.9284 0.0000 0.0000 0.0000
# 4 0.0000 0.0000 0.0000 26.8663 0.0000 0.0000
# 5 0.0000 0.0000 0.0000 0.0000 561.3510 0.0000
# 6 0.0000 0.0000 0.0000 0.0000 0.0000 29.8780
#
#
#
# Elastic Compliance Matrix: (Units=1/GPa)
#
#
# Indices 1 2 3 4 5 6 
#
# 1 0.011428 -0.005312 0.003257 0.000000 0.000000 0.000000
# 2 -0.005312 0.009618 -0.003594 0.000000 0.000000 0.000000
# 3 0.003257 -0.003594 0.027222 0.000000 0.000000 0.000000
# 4 0.000000 0.000000 0.000000 0.037221 0.000000 0.000000
# 5 0.000000 0.000000 0.000000 0.000000 0.001781 0.000000
# 6 0.000000 0.000000 0.000000 0.000000 0.000000 0.033469
#
#
# Mechanical properties :
#
#
# Convention : Reuss Voigt Hill
#
# Bulk Modulus (GPa) = 27.04887 48.70151 37.87519
# Shear Modulus (GPa) = 34.63540 139.07755 86.85647
#
# Velocity S-wave (km/s) = 4.01812 8.05177 6.36303
# Velocity P-wave (km/s) = 5.84259 10.44718 8.46403
#
# Compressibility (1/GPa) = 0.03697012
#
# Stress axis : x y z
#
# Youngs Moduli (GPa) = 87.50602 103.96934 36.73539
#
# Poissons Ratio (x) = 0.55223 -0.11964
# Poissons Ratio (y) = 0.46479 0.13203
# Poissons Ratio (z) = -0.28499 0.37368
#
# Static dielectric constant tensor:
#      x y z
#    x 1.792410 0.000000 0.000000 
#    y 0.000000 1.808310 0.000000 
#    z 0.000000 0.000000 1.827700 
# 
# From -- ./inp_files/55174.got.cif
#   From: 2010.05.17/outbox.cif.g08.bks.cpg/sg74_28_cif.got.tgz:55174.got - 2010.06.03 17:57:02.
