data_PCOD9539168
_publ_section_title
;
Structure prediction by ZEFSAII (Michael W. Deem and Ramdas Pophale) SiO2 
 PCOD9539168
Probable space group: I M M A
;
_chemical_formula_sum "Si O2"
_cell_formula_units_Z 72
_cell_length_a 8.591920
_cell_length_b 15.765916
_cell_length_c 27.290230
_cell_angle_alpha 90.000000
_cell_angle_beta 90.000000
_cell_angle_gamma 90.000000
_cell_volume 3696.720610
_symmetry_space_group_name_H-M "I M M A"
_symmetry_group_IT_number 74
_symmetry_cell_setting 'orthorhombic'
loop_
_space_group_symop_operation_xyz
x,y,z
-x,1/2-y,z
x,-y,-z
-x,1/2+y,-z
-x,-y,-z
x,1/2+y,-z
-x,y,z
x,1/2-y,z
1/2+x,1/2+y,1/2+z
1/2-x,-y,1/2+z
1/2+x,1/2-y,1/2-z
1/2-x,y,1/2-z
1/2-x,1/2-y,1/2-z
1/2+x,y,1/2-z
1/2-x,1/2+y,1/2+z
1/2+x,-y,1/2+z
loop_
_atom_site_type_symbol
_atom_site_label
_atom_site_fract_x
_atom_site_fract_y
_atom_site_fract_z
Si Si1 0.185973 0.250000 0.694840
Si Si2 0.812829 0.408754 0.866382
Si Si3 0.313248 0.409755 0.976449
Si Si4 0.312950 0.750000 0.536406
Si Si5 0.812187 0.927637 0.804151
Si Si6 0.689747 0.250000 0.349969
O O1 0.250000 0.250000 0.750000
O O2 0.246430 0.167604 0.666027
O O3 0.000000 0.250000 0.695855
O O4 0.751196 0.403246 0.921524
O O5 0.766203 0.497835 0.841411
O O6 0.000000 0.403647 0.866754
O O7 0.500000 0.404912 0.975173
O O8 0.267654 0.500000 0.000000
O O9 0.248654 0.333108 0.008968
O O10 0.500000 0.750000 0.534922
O O11 0.263137 0.750000 0.593222
O O12 0.750000 0.944914 0.750000
O O13 0.757901 0.835722 0.823151
O O14 0.000000 0.926485 0.802502
O O15 0.500000 0.250000 0.349183
#
# Coordination Sequence:
#
# PCOD9539168 Si02
#       6
#     8  16  16   8  16   8
#     4  12  25  42  63  88 120 157 199 248 303 361
#     4  11  23  40  62  88 118 156 201 246 295 353
#     4  11  24  41  61  88 123 159 197 246 303 361
#     4  11  22  39  64  88 116 156 201 248 295 350
#     4  10  21  37  59  86 117 151 190 235 283 339
#     4   9  19  37  59  86 117 151 191 234 281 337
#
# _framework density 19.476723
#
# number of rings (size 3 to 8) (size 9 to 14) (size 15 to 20)
#    0.000    1.333    0.000    5.667    0.000    7.111 
#    0.000    2.222    0.000    0.000    0.000    0.000 
#    0.000    0.000    0.000    0.000    0.000    0.000 
#
# Total GULP energy -201406.630018 kJ/mol
# GULP energy per Si atom -5594.628612 kJ/mol
# Density = 1.943239 g / cm^3
# Si number density = 19.476723 Si / 1000 Ang^3
#
#
#
# Elastic Constant Matrix: (Units=GPa)
#
#
# Indices 1 2 3 4 5 6 
#
# 1 46.3856 17.9051 11.2903 0.0000 0.0000 0.0000
# 2 17.9051 70.6497 -20.6977 0.0000 0.0000 0.0000
# 3 11.2903 -20.6977 74.1475 0.0000 0.0000 0.0000
# 4 0.0000 0.0000 0.0000 44.5447 0.0000 0.0000
# 5 0.0000 0.0000 0.0000 0.0000 31.6947 0.0000
# 6 0.0000 0.0000 0.0000 0.0000 0.0000 -208.8277
#
#
#
# Elastic Compliance Matrix: (Units=1/GPa)
#
#
# Indices 1 2 3 4 5 6 
#
# 1 0.026433 -0.008580 -0.006420 0.000000 0.000000 0.000000
# 2 -0.008580 0.018200 0.006387 0.000000 0.000000 0.000000
# 3 -0.006420 0.006387 0.016247 0.000000 0.000000 0.000000
# 4 0.000000 0.000000 0.000000 0.022449 0.000000 0.000000
# 5 0.000000 0.000000 0.000000 0.000000 0.031551 0.000000
# 6 0.000000 0.000000 0.000000 0.000000 0.000000 -0.004789
#
#
# Mechanical properties :
#
#
# Convention : Reuss Voigt Hill
#
# Bulk Modulus (GPa) = 22.90744 23.13091 23.01918
# Shear Modulus (GPa) = 35.24394 -14.33865 10.45264
#
# Velocity S-wave (km/s) = 4.25849 -2.71623 2.31914
# Velocity P-wave (km/s) = 5.99721 1.43692 4.36069
#
# Compressibility (1/GPa) = 0.04365394
#
# Stress axis : x y z
#
# Youngs Moduli (GPa) = 37.83176 54.94557 61.54989
#
# Poissons Ratio (x) = 0.47142 0.39514
# Poissons Ratio (y) = 0.32459 -0.39310
# Poissons Ratio (z) = 0.24287 -0.35092
#
# Static dielectric constant tensor:
#      x y z
#    x 1.659150 0.000000 0.000000 
#    y 0.000000 1.661530 0.000000 
#    z 0.000000 0.000000 1.628460 
# 
# From -- ./inp_files/63658.got.cif
#   From: 2010.05.17/outbox.cif.g08.bks.cpg/sg74_32_cif.got.tgz:63658.got - 2010.06.03 17:57:02.
