data_PCOD9539251
_publ_section_title
;
Structure prediction by ZEFSAII (Michael W. Deem and Ramdas Pophale) SiO2 
 PCOD9539251
Probable space group: I M M A
;
_chemical_formula_sum "Si O2"
_cell_formula_units_Z 80
_cell_length_a 26.242598
_cell_length_b 8.864967
_cell_length_c 20.070459
_cell_angle_alpha 90.000000
_cell_angle_beta 90.000000
_cell_angle_gamma 90.000000
_cell_volume 4669.186871
_symmetry_space_group_name_H-M "I M M A"
_symmetry_group_IT_number 74
_symmetry_cell_setting 'orthorhombic'
loop_
_space_group_symop_operation_xyz
x,y,z
-x,1/2-y,z
x,-y,-z
-x,1/2+y,-z
-x,-y,-z
x,1/2+y,-z
-x,y,z
x,1/2-y,z
1/2+x,1/2+y,1/2+z
1/2-x,-y,1/2+z
1/2+x,1/2-y,1/2-z
1/2-x,y,1/2-z
1/2-x,1/2-y,1/2-z
1/2+x,y,1/2-z
1/2-x,1/2+y,1/2+z
1/2+x,-y,1/2+z
loop_
_atom_site_type_symbol
_atom_site_label
_atom_site_fract_x
_atom_site_fract_y
_atom_site_fract_z
Si Si1 0.558492 0.568406 0.428691
Si Si2 0.753922 0.923577 0.330819
Si Si3 0.640691 0.429270 0.173482
Si Si4 0.141913 0.932921 0.179192
Si Si5 0.559249 0.430525 0.927013
O O1 0.572711 0.500000 0.500000
O O2 0.500000 0.523608 0.414214
O O3 0.560047 0.750000 0.433373
O O4 0.596990 0.523227 0.370588
O O5 0.762461 0.750000 0.351414
O O6 0.750000 0.924610 0.250000
O O7 0.697335 0.974251 0.351146
O O8 0.802585 0.021467 0.349942
O O9 0.636465 0.250000 0.174032
O O10 0.635290 0.493963 0.248408
O O11 0.598053 0.500737 0.126112
O O12 0.142364 0.750000 0.187371
O O13 0.500000 0.463827 0.909744
O O14 0.565075 0.250000 0.929598
O O15 0.568810 0.500000 0.000000
#
# Coordination Sequence:
#
# PCOD9539251 Si02
#       5
#    16  16  16  16  16
#     4   9  18  33  52  73  99 131 166 205 252 303
#     4   8  15  30  50  70  98 135 171 209 253 299
#     4  11  21  32  51  79 107 133 166 209 253 301
#     4   9  18  33  52  74 101 136 175 213 254 299
#     4  10  21  38  58  77 101 134 169 206 251 303
#
# _framework density 17.133603000000001
#
# number of rings (size 3 to 8) (size 9 to 14) (size 15 to 20)
#    0.000    2.600    0.000    3.600    0.000    6.400 
#    0.000    3.000    0.000    2.400    0.000    0.000 
#    0.000    0.000    0.000    0.000    0.000    0.000 
#
# Total GULP energy -223011.770861 kJ/mol
# GULP energy per Si atom -5575.294272 kJ/mol
# Density = 1.709461 g / cm^3
# Si number density = 17.133603 Si / 1000 Ang^3
#
#
#
# Elastic Constant Matrix: (Units=GPa)
#
#
# Indices 1 2 3 4 5 6 
#
# 1 149.8990 67.3781 96.0222 0.0000 0.0000 0.0000
# 2 67.3781 69.4932 49.2059 0.0000 0.0000 0.0000
# 3 96.0222 49.2059 88.2329 0.0000 0.0000 0.0000
# 4 0.0000 0.0000 0.0000 27.3250 0.0000 0.0000
# 5 0.0000 0.0000 0.0000 0.0000 -25.2124 0.0000
# 6 0.0000 0.0000 0.0000 0.0000 0.0000 18.7725
#
#
#
# Elastic Compliance Matrix: (Units=1/GPa)
#
#
# Indices 1 2 3 4 5 6 
#
# 1 0.024478 -0.008049 -0.022150 0.000000 0.000000 0.000000
# 2 -0.008049 0.026427 -0.005978 0.000000 0.000000 0.000000
# 3 -0.022150 -0.005978 0.038773 0.000000 0.000000 0.000000
# 4 0.000000 0.000000 0.000000 0.036596 0.000000 0.000000
# 5 0.000000 0.000000 0.000000 0.000000 -0.039663 0.000000
# 6 0.000000 0.000000 0.000000 0.000000 0.000000 0.053269
#
#
# Mechanical properties :
#
#
# Convention : Reuss Voigt Hill
#
# Bulk Modulus (GPa) = 57.72556 81.42640 69.57598
# Shear Modulus (GPa) = 22.93469 10.51163 16.72316
#
# Velocity S-wave (km/s) = 3.66263 2.47960 3.12756
# Velocity P-wave (km/s) = 7.18687 7.47164 7.33064
#
# Compressibility (1/GPa) = 0.01732335
#
# Stress axis : x y z
#
# Youngs Moduli (GPa) = 40.85266 37.84000 25.79113
#
# Poissons Ratio (x) = 0.30459 0.57128
# Poissons Ratio (y) = 0.32884 0.15418
# Poissons Ratio (z) = 0.90489 0.22621
#
# Static dielectric constant tensor:
#      x y z
#    x 1.606670 0.000000 0.000000 
#    y 0.000000 1.570530 0.000000 
#    z 0.000000 0.000000 1.542010 
# 
# From -- ./inp_files/46483.got.cif
#   From: 2010.05.17/outbox.cif.g08.bks.cpg/sg74_24_cif.got.tgz:46483.got - 2010.06.03 17:57:02.
