data_PCOD9539012
_publ_section_title
;
Structure prediction by ZEFSAII (Michael W. Deem and Ramdas Pophale) SiO2 
 PCOD9539012
Probable space group: I M M A
;
_chemical_formula_sum "Si O2"
_cell_formula_units_Z 88
_cell_length_a 17.220584
_cell_length_b 13.483450
_cell_length_c 20.761813
_cell_angle_alpha 90.000000
_cell_angle_beta 90.000000
_cell_angle_gamma 90.000000
_cell_volume 4820.745224
_symmetry_space_group_name_H-M "I M M A"
_symmetry_group_IT_number 74
_symmetry_cell_setting 'orthorhombic'
loop_
_space_group_symop_operation_xyz
x,y,z
-x,1/2-y,z
x,-y,-z
-x,1/2+y,-z
-x,-y,-z
x,1/2+y,-z
-x,y,z
x,1/2-y,z
1/2+x,1/2+y,1/2+z
1/2-x,-y,1/2+z
1/2+x,1/2-y,1/2-z
1/2-x,y,1/2-z
1/2-x,1/2-y,1/2-z
1/2+x,y,1/2-z
1/2-x,1/2+y,1/2+z
1/2+x,-y,1/2+z
loop_
_atom_site_type_symbol
_atom_site_label
_atom_site_fract_x
_atom_site_fract_y
_atom_site_fract_z
Si Si1 0.090528 0.486749 0.155097
Si Si2 0.657601 0.865772 0.239708
Si Si3 0.295303 0.136301 0.420738
Si Si4 0.180160 0.500000 0.500000
Si Si5 0.590123 0.632441 0.099334
Si Si6 0.087132 0.359073 0.960371
O O1 0.113804 0.556504 0.214703
O O2 0.154282 0.402418 0.139938
O O3 0.097825 0.557706 0.092516
O O4 0.000000 0.454545 0.159915
O O5 0.635812 0.750000 0.253317
O O6 0.750000 0.874445 0.250000
O O7 0.635415 0.886476 0.165869
O O8 0.268191 0.250000 0.411324
O O9 0.230422 0.060530 0.446826
O O10 0.354387 0.136499 0.481192
O O11 0.128768 0.576046 0.459556
O O12 0.500000 0.604623 0.107407
O O13 0.594200 0.750000 0.087623
O O14 0.094661 0.250000 0.929342
O O15 0.000000 0.367984 0.986772
#
# Coordination Sequence:
#
# PCOD9539012 Si02
#       6
#    16  16  16   8  16  16
#     4  11  20  33  53  79 113 155 192 224 278 344
#     4  10  21  36  58  88 120 149 182 230 287 344
#     4  11  22  34  52  80 115 151 192 240 283 329
#     4  12  21  38  61  84 112 152 192 234 285 346
#     4  10  22  40  62  89 118 147 185 234 284 336
#     4   9  17  29  47  74 109 148 189 229 271 326
#
# _framework density 18.254439999999999
#
# number of rings (size 3 to 8) (size 9 to 14) (size 15 to 20)
#    0.000    1.636    1.818    3.545    0.000    4.364 
#    0.000    0.000    0.000    6.000    0.000    0.000 
#    0.000    0.000    0.000    0.000    0.000    0.000 
#
# Total GULP energy -245601.274711 kJ/mol
# GULP energy per Si atom -5581.847153 kJ/mol
# Density = 1.821289 g / cm^3
# Si number density = 18.254440 Si / 1000 Ang^3
#
#
#
# Elastic Constant Matrix: (Units=GPa)
#
#
# Indices 1 2 3 4 5 6 
#
# 1 85.4166 33.1311 37.9736 0.0000 0.0000 0.0000
# 2 33.1311 66.5697 24.4561 0.0000 0.0000 0.0000
# 3 37.9736 24.4561 70.1610 0.0000 0.0000 0.0000
# 4 0.0000 0.0000 0.0000 37.5212 0.0000 0.0000
# 5 0.0000 0.0000 0.0000 0.0000 87.2164 0.0000
# 6 0.0000 0.0000 0.0000 0.0000 0.0000 28.4995
#
#
#
# Elastic Compliance Matrix: (Units=1/GPa)
#
#
# Indices 1 2 3 4 5 6 
#
# 1 0.017228 -0.005905 -0.007266 0.000000 0.000000 0.000000
# 2 -0.005905 0.019252 -0.003515 0.000000 0.000000 0.000000
# 3 -0.007266 -0.003515 0.019411 0.000000 0.000000 0.000000
# 4 0.000000 0.000000 0.000000 0.026652 0.000000 0.000000
# 5 0.000000 0.000000 0.000000 0.000000 0.011466 0.000000
# 6 0.000000 0.000000 0.000000 0.000000 0.000000 0.035088
#
#
# Mechanical properties :
#
#
# Convention : Reuss Voigt Hill
#
# Bulk Modulus (GPa) = 44.40656 45.91878 45.16267
# Shear Modulus (GPa) = 29.41624 39.08650 34.25137
#
# Velocity S-wave (km/s) = 4.01865 4.63234 4.33636
# Velocity P-wave (km/s) = 6.77584 7.33627 7.06162
#
# Compressibility (1/GPa) = 0.02251920
#
# Stress axis : x y z
#
# Youngs Moduli (GPa) = 58.04520 51.94300 51.51778
#
# Poissons Ratio (x) = 0.30671 0.37433
# Poissons Ratio (y) = 0.34275 0.18107
# Poissons Ratio (z) = 0.42176 0.18257
#
# Static dielectric constant tensor:
#      x y z
#    x 1.643720 0.000000 0.000000 
#    y 0.000000 1.673190 0.000000 
#    z 0.000000 0.000000 1.589540 
# 
# From -- ./inp_files/43974.got.cif
#   From: 2010.05.17/outbox.cif.g08.bks.cpg/sg74_22_cif.got.tgz:43974.got - 2010.06.03 17:57:02.
