data_PCOD9539270
_publ_section_title
;
Structure prediction by ZEFSAII (Michael W. Deem and Ramdas Pophale) SiO2 
 PCOD9539270
Probable space group: I M M A
;
_chemical_formula_sum "Si O2"
_cell_formula_units_Z 104
_cell_length_a 8.670885
_cell_length_b 22.621462
_cell_length_c 28.888193
_cell_angle_alpha 90.000000
_cell_angle_beta 90.000000
_cell_angle_gamma 90.000000
_cell_volume 5666.364040
_symmetry_space_group_name_H-M "I M M A"
_symmetry_group_IT_number 74
_symmetry_cell_setting 'orthorhombic'
loop_
_space_group_symop_operation_xyz
x,y,z
-x,1/2-y,z
x,-y,-z
-x,1/2+y,-z
-x,-y,-z
x,1/2+y,-z
-x,y,z
x,1/2-y,z
1/2+x,1/2+y,1/2+z
1/2-x,-y,1/2+z
1/2+x,1/2-y,1/2-z
1/2-x,y,1/2-z
1/2-x,1/2-y,1/2-z
1/2+x,y,1/2-z
1/2-x,1/2+y,1/2+z
1/2+x,-y,1/2+z
loop_
_atom_site_type_symbol
_atom_site_label
_atom_site_fract_x
_atom_site_fract_y
_atom_site_fract_z
Si Si1 0.315092 0.932333 0.046043
Si Si2 0.815837 0.369391 0.150818
Si Si3 0.185378 0.750000 0.696953
Si Si4 0.321319 0.182521 0.800882
Si Si5 0.177782 0.083599 0.860618
Si Si6 0.182717 0.482442 0.299429
Si Si7 0.814775 0.572509 0.557658
O O1 0.500000 0.926787 0.050039
O O2 0.228161 0.901725 0.087550
O O3 0.279927 0.002109 0.054963
O O4 0.272666 0.909619 0.994950
O O5 0.742781 0.308178 0.169081
O O6 0.760683 0.421146 0.185478
O O7 0.762506 0.392128 0.099717
O O8 0.000000 0.364334 0.151503
O O9 0.250000 0.750000 0.750000
O O10 0.000000 0.750000 0.699225
O O11 0.500000 0.162109 0.800444
O O12 0.319517 0.250000 0.817604
O O13 0.250000 0.181821 0.750000
O O14 0.216118 0.140473 0.830804
O O15 0.000000 0.066143 0.858227
O O16 0.276835 0.030487 0.838474
O O17 0.250000 0.502310 0.250000
O O18 0.000000 0.474957 0.296244
O O19 0.000000 0.577824 0.563368
#
# Coordination Sequence:
#
# PCOD9539270 Si02
#       7
#    16  16   8  16  16  16  16
#     4   9  18  34  58  87 120 154 194 235 285 346
#     4  12  24  40  62  91 122 155 197 247 301 358
#     4  12  26  46  68  90 120 162 208 254 305 366
#     4  10  21  38  59  81 109 149 193 235 281 340
#     4  12  23  35  55  86 119 152 190 237 292 344
#     4  12  24  39  57  82 118 155 194 239 291 350
#     4   9  18  35  60  88 117 155 193 236 287 348
#
# _framework density 18.353919999999999
#
# number of rings (size 3 to 8) (size 9 to 14) (size 15 to 20)
#    0.000    1.231    1.538    7.154    0.000    1.538 
#    0.000    1.538    1.692    0.000    0.000    0.000 
#    0.000    0.000    0.000    0.000    0.000    0.000 
#
# Total GULP energy -290391.369748 kJ/mol
# GULP energy per Si atom -5584.449418 kJ/mol
# Density = 1.831215 g / cm^3
# Si number density = 18.353920 Si / 1000 Ang^3
#
#
#
# Elastic Constant Matrix: (Units=GPa)
#
#
# Indices 1 2 3 4 5 6 
#
# 1 98.2365 22.1804 41.1789 0.0000 0.0000 0.0000
# 2 22.1804 42.0408 29.8213 0.0000 0.0000 0.0000
# 3 41.1789 29.8213 104.5322 0.0000 0.0000 0.0000
# 4 0.0000 0.0000 0.0000 -1.2439 0.0000 0.0000
# 5 0.0000 0.0000 0.0000 0.0000 29.0595 0.0000
# 6 0.0000 0.0000 0.0000 0.0000 0.0000 31.4938
#
#
#
# Elastic Compliance Matrix: (Units=1/GPa)
#
#
# Indices 1 2 3 4 5 6 
#
# 1 0.012695 -0.003950 -0.003874 0.000000 0.000000 0.000000
# 2 -0.003950 0.031050 -0.007302 0.000000 0.000000 0.000000
# 3 -0.003874 -0.007302 0.013176 0.000000 0.000000 0.000000
# 4 0.000000 0.000000 0.000000 -0.803917 0.000000 0.000000
# 5 0.000000 0.000000 0.000000 0.000000 0.034412 0.000000
# 6 0.000000 0.000000 0.000000 0.000000 0.000000 0.031752
#
#
# Mechanical properties :
#
#
# Convention : Reuss Voigt Hill
#
# Bulk Modulus (GPa) = 37.49704 47.90787 42.70246
# Shear Modulus (GPa) = -7.79193 21.97047 7.08927
#
# Velocity S-wave (km/s) = -2.06267 3.46359 1.96747
# Velocity P-wave (km/s) = 3.84728 6.49262 5.33647
#
# Compressibility (1/GPa) = 0.02666877
#
# Stress axis : x y z
#
# Youngs Moduli (GPa) = 78.76890 32.20620 75.89654
#
# Poissons Ratio (x) = 0.12721 0.29405
# Poissons Ratio (y) = 0.31112 0.55420
# Poissons Ratio (z) = 0.30518 0.23517
#
# Static dielectric constant tensor:
#      x y z
#    x 1.623870 0.000000 0.000000 
#    y 0.000000 1.891520 0.000000 
#    z 0.000000 0.000000 1.604890 
# 
# From -- ./inp_files/64797.got.cif
#   From: 2010.05.17/outbox.cif.g08.bks.cpg/sg74_33_cif.got.tgz:64797.got - 2010.06.03 17:57:02.
