data_PCOD9539735
_publ_section_title
;
Structure prediction by ZEFSAII (Michael W. Deem and Ramdas Pophale) SiO2 
 PCOD9539735
Probable space group: I M M A
;
_chemical_formula_sum "Si O2"
_cell_formula_units_Z 72
_cell_length_a 14.994480
_cell_length_b 27.874656
_cell_length_c 8.418011
_cell_angle_alpha 90.000000
_cell_angle_beta 90.000000
_cell_angle_gamma 90.000000
_cell_volume 3518.442149
_symmetry_space_group_name_H-M "I M M A"
_symmetry_group_IT_number 74
_symmetry_cell_setting 'orthorhombic'
loop_
_space_group_symop_operation_xyz
x,y,z
-x,1/2-y,z
x,-y,-z
-x,1/2+y,-z
-x,-y,-z
x,1/2+y,-z
-x,y,z
x,1/2-y,z
1/2+x,1/2+y,1/2+z
1/2-x,-y,1/2+z
1/2+x,1/2-y,1/2-z
1/2-x,y,1/2-z
1/2-x,1/2-y,1/2-z
1/2+x,y,1/2-z
1/2-x,1/2+y,1/2+z
1/2+x,-y,1/2+z
loop_
_atom_site_type_symbol
_atom_site_label
_atom_site_fract_x
_atom_site_fract_y
_atom_site_fract_z
Si Si1 0.309144 0.136759 0.387343
Si Si2 0.500000 0.060697 0.619235
Si Si3 0.310002 0.956244 0.399263
Si Si4 0.000000 0.378423 0.208828
Si Si5 0.500000 0.366374 0.919360
Si Si6 0.314925 0.306280 0.900065
O O1 0.250000 0.113472 0.250000
O O2 0.316769 0.094937 0.516126
O O3 0.407665 0.149334 0.326497
O O4 0.248749 0.179456 0.453406
O O5 0.410965 0.030587 0.644263
O O6 0.500000 0.081925 0.436369
O O7 0.500000 0.099917 0.762242
O O8 0.250000 0.948975 0.250000
O O9 0.272009 0.000000 0.500000
O O10 0.000000 0.389519 0.400001
O O11 0.407560 0.335884 0.905939
O O12 0.336094 0.250000 0.897870
O O13 0.250000 0.316885 0.750000
#
# Coordination Sequence:
#
# PCOD9539735 Si02
#       6
#    16   8  16   8   8  16
#     4  11  21  40  64  90 131 169 217 276 333 392
#     4  10  23  41  68  93 135 171 218 275 336 394
#     4  11  23  41  64  95 129 173 217 276 332 398
#     4  10  22  38  64  99 123 172 222 269 329 403
#     4  12  21  43  69  97 125 181 224 270 336 404
#     4  11  24  41  64  96 133 173 222 277 334 404
#
# _framework density 20.463602000000002
#
# number of rings (size 3 to 8) (size 9 to 14) (size 15 to 20)
#    0.000    1.111    2.222    6.000    0.000    0.444 
#    0.000    2.222    0.000    1.333    0.000    0.000 
#    0.000    0.000    0.000    0.000    0.000    0.000 
#
# Total GULP energy -200653.023714 kJ/mol
# GULP energy per Si atom -5573.695103 kJ/mol
# Density = 2.041703 g / cm^3
# Si number density = 20.463602 Si / 1000 Ang^3
#
#
#
# Elastic Constant Matrix: (Units=GPa)
#
#
# Indices 1 2 3 4 5 6 
#
# 1 153.4457 13.8339 49.2383 -0.0002 -0.0003 0.0000
# 2 13.8339 45.3611 30.7589 -0.0021 0.0005 -0.0003
# 3 49.2383 30.7589 113.6489 -0.0070 0.0024 -0.0004
# 4 -0.0002 -0.0021 -0.0070 23.6847 0.0010 -0.0005
# 5 -0.0003 0.0005 0.0024 0.0010 33.3617 0.0001
# 6 0.0000 -0.0003 -0.0004 -0.0005 0.0001 31.9331
#
#
#
# Elastic Compliance Matrix: (Units=1/GPa)
#
#
# Indices 1 2 3 4 5 6 
#
# 1 0.007570 -0.000104 -0.003251 -0.000001 0.000000 0.000000
# 2 -0.000104 0.027002 -0.007263 0.000000 0.000000 0.000000
# 3 -0.003251 -0.007263 0.012173 0.000003 -0.000001 0.000000
# 4 -0.000001 0.000000 0.000003 0.042221 -0.000001 0.000001
# 5 0.000000 0.000000 -0.000001 -0.000001 0.029974 0.000000
# 6 0.000000 0.000000 0.000000 0.000001 0.000000 0.031315
#
#
# Mechanical properties :
#
#
# Convention : Reuss Voigt Hill
#
# Bulk Modulus (GPa) = 39.20264 55.56867 47.38566
# Shear Modulus (GPa) = 27.77841 32.37088 30.07464
#
# Velocity S-wave (km/s) = 3.68836 3.98160 3.83778
# Velocity P-wave (km/s) = 6.11044 6.95351 6.54556
#
# Compressibility (1/GPa) = 0.02550848
#
# Stress axis : x y z
#
# Youngs Moduli (GPa) = 132.10630 37.03430 82.14584
#
# Poissons Ratio (x) = 0.00384 0.26709
# Poissons Ratio (y) = 0.01371 0.59663
# Poissons Ratio (z) = 0.42954 0.26898
#
# Static dielectric constant tensor:
#      x y z
#    x 1.775520 0.000000 0.000000 
#    y 0.000000 1.700790 0.000000 
#    z 0.000000 0.000000 1.797900 
# 
# From -- ./inp_files/9218.got.cif
#   From: 2010.05.17/outbox.cif.g08.bks.cpg/sg74_5_cif.got.tgz:9218.got - 2010.06.03 17:57:02.
