data_PCOD9539100
_publ_section_title
;
Structure prediction by ZEFSAII (Michael W. Deem and Ramdas Pophale) SiO2 
 PCOD9539100
Probable space group: I M M A
;
_chemical_formula_sum "Si O2"
_cell_formula_units_Z 112
_cell_length_a 14.356210
_cell_length_b 14.613595
_cell_length_c 26.393535
_cell_angle_alpha 90.000000
_cell_angle_beta 90.000000
_cell_angle_gamma 90.000000
_cell_volume 5537.253811
_symmetry_space_group_name_H-M "I M M A"
_symmetry_group_IT_number 74
_symmetry_cell_setting 'orthorhombic'
loop_
_space_group_symop_operation_xyz
x,y,z
-x,1/2-y,z
x,-y,-z
-x,1/2+y,-z
-x,-y,-z
x,1/2+y,-z
-x,y,z
x,1/2-y,z
1/2+x,1/2+y,1/2+z
1/2-x,-y,1/2+z
1/2+x,1/2-y,1/2-z
1/2-x,y,1/2-z
1/2-x,1/2-y,1/2-z
1/2+x,y,1/2-z
1/2-x,1/2+y,1/2+z
1/2+x,-y,1/2+z
loop_
_atom_site_type_symbol
_atom_site_label
_atom_site_fract_x
_atom_site_fract_y
_atom_site_fract_z
Si Si1 0.389354 0.496169 0.781292
Si Si2 0.215405 0.901997 0.474271
Si Si3 0.726768 0.640070 0.836140
Si Si4 0.892419 0.353082 0.918559
Si Si5 0.609427 0.995806 0.666504
Si Si6 0.897579 0.855218 0.570086
Si Si7 0.112079 0.857740 0.371036
O O1 0.500000 0.514118 0.787499
O O2 0.332241 0.588436 0.792857
O O3 0.373319 0.467221 0.723348
O O4 0.362958 0.418309 0.821929
O O5 0.317143 0.861701 0.463103
O O6 0.149366 0.854847 0.515417
O O7 0.161772 0.897006 0.420938
O O8 0.228340 0.000000 0.500000
O O9 0.730126 0.750000 0.830784
O O10 0.827321 0.593469 0.839391
O O11 0.672038 0.609913 0.887242
O O12 0.885724 0.250000 0.897540
O O13 0.869753 0.428329 0.875967
O O14 0.000000 0.366892 0.934775
O O15 0.500000 0.973952 0.662680
O O16 0.909602 0.750000 0.584842
O O17 0.000000 0.900177 0.569700
O O18 0.136777 0.750000 0.365740
O O19 0.000000 0.862602 0.377169
#
# Coordination Sequence:
#
# PCOD9539100 Si02
#       7
#    16  16  16  16  16  16  16
#     4  10  21  37  59  88 120 155 197 244 296 354
#     4  12  23  35  56  84 116 154 192 233 284 343
#     4  11  23  39  59  84 118 159 201 247 297 349
#     4  10  22  41  64  88 115 151 197 247 298 352
#     4  10  22  40  61  86 117 154 198 247 298 353
#     4  10  21  37  57  81 110 145 185 229 280 340
#     4  10  21  37  59  90 126 159 193 238 293 353
#
# _framework density 20.226634000000001
#
# number of rings (size 3 to 8) (size 9 to 14) (size 15 to 20)
#    0.000    1.571    0.000    5.143    0.000    6.571 
#    0.000    5.000    0.000    4.286    0.000    0.000 
#    0.000    0.000    0.000    0.000    0.000    0.000 
#
# Total GULP energy -312694.215373 kJ/mol
# GULP energy per Si atom -5583.825275 kJ/mol
# Density = 2.018060 g / cm^3
# Si number density = 20.226634 Si / 1000 Ang^3
#
#
#
# Elastic Constant Matrix: (Units=GPa)
#
#
# Indices 1 2 3 4 5 6 
#
# 1 96.3865 39.2468 53.3760 0.0000 0.0000 0.0000
# 2 39.2468 120.8834 25.6281 0.0000 0.0000 0.0000
# 3 53.3760 25.6281 82.3146 0.0000 0.0000 0.0000
# 4 0.0000 0.0000 0.0000 -0.4277 0.0000 0.0000
# 5 0.0000 0.0000 0.0000 0.0000 27.8431 0.0000
# 6 0.0000 0.0000 0.0000 0.0000 0.0000 15.1370
#
#
#
# Elastic Compliance Matrix: (Units=1/GPa)
#
#
# Indices 1 2 3 4 5 6 
#
# 1 0.017470 -0.003501 -0.010238 0.000000 0.000000 0.000000
# 2 -0.003501 0.009559 -0.000706 0.000000 0.000000 0.000000
# 3 -0.010238 -0.000706 0.019007 0.000000 0.000000 0.000000
# 4 0.000000 0.000000 0.000000 -2.337894 0.000000 0.000000
# 5 0.000000 0.000000 0.000000 0.000000 0.035916 0.000000
# 6 0.000000 0.000000 0.000000 0.000000 0.000000 0.066063
#
#
# Mechanical properties :
#
#
# Convention : Reuss Voigt Hill
#
# Bulk Modulus (GPa) = 58.32407 59.56514 58.94460
# Shear Modulus (GPa) = -2.31989 20.59938 9.13974
#
# Velocity S-wave (km/s) = -1.07212 3.19474 2.12802
# Velocity P-wave (km/s) = 5.23118 6.56668 5.93661
#
# Compressibility (1/GPa) = 0.01714558
#
# Stress axis : x y z
#
# Youngs Moduli (GPa) = 57.24019 104.61540 52.61202
#
# Poissons Ratio (x) = 0.36630 0.53865
# Poissons Ratio (y) = 0.20042 0.03712
# Poissons Ratio (z) = 0.58604 0.07382
#
# Static dielectric constant tensor:
#      x y z
#    x 1.752500 0.000000 0.000000 
#    y 0.000000 1.796230 0.000000 
#    z 0.000000 0.000000 1.711560 
# 
# From -- ./inp_files/60196.got.cif
#   From: 2010.05.17/outbox.cif.g08.bks.cpg/sg74_31_cif.got.tgz:60196.got - 2010.06.03 17:57:02.
