data_PCOD9539872
_publ_section_title
;
Structure prediction by ZEFSAII (Michael W. Deem and Ramdas Pophale) SiO2 
 PCOD9539872
Probable space group: I M M A
;
_chemical_formula_sum "Si O2"
_cell_formula_units_Z 88
_cell_length_a 8.736341
_cell_length_b 20.855319
_cell_length_c 21.656279
_cell_angle_alpha 90.000000
_cell_angle_beta 90.000000
_cell_angle_gamma 90.000000
_cell_volume 3945.756242
_symmetry_space_group_name_H-M "I M M A"
_symmetry_group_IT_number 74
_symmetry_cell_setting 'orthorhombic'
loop_
_space_group_symop_operation_xyz
x,y,z
-x,1/2-y,z
x,-y,-z
-x,1/2+y,-z
-x,-y,-z
x,1/2+y,-z
-x,y,z
x,1/2-y,z
1/2+x,1/2+y,1/2+z
1/2-x,-y,1/2+z
1/2+x,1/2-y,1/2-z
1/2-x,y,1/2-z
1/2-x,1/2-y,1/2-z
1/2+x,y,1/2-z
1/2-x,1/2+y,1/2+z
1/2+x,-y,1/2+z
loop_
_atom_site_type_symbol
_atom_site_label
_atom_site_fract_x
_atom_site_fract_y
_atom_site_fract_z
Si Si1 0.177788 0.985952 0.877710
Si Si2 0.672074 0.250000 0.982527
Si Si3 0.685216 0.111480 0.683804
Si Si4 0.000000 0.680401 0.869654
Si Si5 0.321961 0.866969 0.921642
Si Si6 0.250000 0.918457 0.750000
Si Si7 0.500000 0.822714 0.778366
Si Si8 0.679999 0.250000 0.644382
O O1 0.226982 0.059705 0.868693
O O2 0.000000 0.982372 0.898595
O O3 0.290141 0.943745 0.920634
O O4 0.180619 0.959966 0.805846
O O5 0.500000 0.250000 0.955545
O O6 0.685076 0.315432 0.022477
O O7 0.794046 0.250000 0.928528
O O8 0.500000 0.111239 0.686075
O O9 0.750000 0.091907 0.750000
O O10 0.743307 0.183168 0.670132
O O11 0.161121 0.650585 0.887998
O O12 0.000000 0.685377 0.796036
O O13 0.000000 0.750000 0.899117
O O14 0.500000 0.857100 0.899830
O O15 0.358010 0.869240 0.786679
O O16 0.500000 0.750000 0.804319
O O17 0.500000 0.250000 0.658630
#
# Coordination Sequence:
#
# PCOD9539872 Si02
#       8
#    16   8  16   8  16   8   8   8
#     4  11  22  37  57  87 127 173 216 264 326 402
#     4  10  24  43  65  95 126 166 224 275 330 392
#     4  10  22  40  66  99 134 168 216 262 330 411
#     4  11  20  36  56  78 117 169 216 267 328 371
#     4  11  22  37  60  94 124 166 224 271 320 390
#     4  12  19  34  50  73 116 160 210 252 310 381
#     4  11  24  34  44  74 112 163 218 262 307 372
#     4  10  23  43  69 100 125 165 216 273 338 407
#
# _framework density 22.302441000000002
#
# number of rings (size 3 to 8) (size 9 to 14) (size 15 to 20)
#    0.000    1.273    5.455    0.545    2.545    1.455 
#    1.636    0.909    0.000    5.455    0.000    0.000 
#    0.000    0.000    0.000    0.000    0.000    0.000 
#
# Total GULP energy -244997.046555 kJ/mol
# GULP energy per Si atom -5568.114694 kJ/mol
# Density = 2.225168 g / cm^3
# Si number density = 22.302441 Si / 1000 Ang^3
#
#
#
# Elastic Constant Matrix: (Units=GPa)
#
#
# Indices 1 2 3 4 5 6 
#
# 1 77.3229 23.2037 -2.3504 0.0000 0.0000 0.0000
# 2 23.2037 152.1230 9.2475 0.0000 0.0000 0.0000
# 3 -2.3504 9.2475 20.3237 0.0000 0.0000 0.0000
# 4 0.0000 0.0000 0.0000 18.2450 0.0000 0.0000
# 5 0.0000 0.0000 0.0000 0.0000 23.0730 0.0000
# 6 0.0000 0.0000 0.0000 0.0000 0.0000 18.2951
#
#
#
# Elastic Compliance Matrix: (Units=1/GPa)
#
#
# Indices 1 2 3 4 5 6 
#
# 1 0.013686 -0.002246 0.002605 0.000000 0.000000 0.000000
# 2 -0.002246 0.007129 -0.003504 0.000000 0.000000 0.000000
# 3 0.002605 -0.003504 0.051099 0.000000 0.000000 0.000000
# 4 0.000000 0.000000 0.000000 0.054810 0.000000 0.000000
# 5 0.000000 0.000000 0.000000 0.000000 0.043341 0.000000
# 6 0.000000 0.000000 0.000000 0.000000 0.000000 0.054659
#
#
# Mechanical properties :
#
#
# Convention : Reuss Voigt Hill
#
# Bulk Modulus (GPa) = 15.23819 34.44125 24.83972
# Shear Modulus (GPa) = 19.77158 26.56721 23.16939
#
# Velocity S-wave (km/s) = 2.98068 3.45516 3.22665
# Velocity P-wave (km/s) = 4.32357 5.60302 5.00435
#
# Compressibility (1/GPa) = 0.06562458
#
# Stress axis : x y z
#
# Youngs Moduli (GPa) = 73.06781 140.26857 19.56980
#
# Poissons Ratio (x) = 0.31503 -0.05097
# Poissons Ratio (y) = 0.16410 0.06856
# Poissons Ratio (z) = -0.19032 0.49144
#
# Static dielectric constant tensor:
#      x y z
#    x 1.805870 0.000000 0.000000 
#    y 0.000000 1.969450 0.000000 
#    z 0.000000 0.000000 1.864680 
# 
# From -- ./inp_files/57093.got.cif
#   From: 2010.05.17/outbox.cif.g08.bks.cpg/sg74_29_cif.got.tgz:57093.got - 2010.06.03 17:57:02.
