data_PCOD9539780
_publ_section_title
;
Structure prediction by ZEFSAII (Michael W. Deem and Ramdas Pophale) SiO2 
 PCOD9539780
Probable space group: I M M A
;
_chemical_formula_sum "Si O2"
_cell_formula_units_Z 52
_cell_length_a 7.543261
_cell_length_b 35.755071
_cell_length_c 8.308072
_cell_angle_alpha 90.000000
_cell_angle_beta 90.000000
_cell_angle_gamma 90.000000
_cell_volume 2240.768709
_symmetry_space_group_name_H-M "I M M A"
_symmetry_group_IT_number 74
_symmetry_cell_setting 'orthorhombic'
loop_
_space_group_symop_operation_xyz
x,y,z
-x,1/2-y,z
x,-y,-z
-x,1/2+y,-z
-x,-y,-z
x,1/2+y,-z
-x,y,z
x,1/2-y,z
1/2+x,1/2+y,1/2+z
1/2-x,-y,1/2+z
1/2+x,1/2-y,1/2-z
1/2-x,y,1/2-z
1/2-x,1/2-y,1/2-z
1/2+x,y,1/2-z
1/2-x,1/2+y,1/2+z
1/2+x,-y,1/2+z
loop_
_atom_site_type_symbol
_atom_site_label
_atom_site_fract_x
_atom_site_fract_y
_atom_site_fract_z
Si Si1 0.701329 0.696667 0.564819
Si Si2 0.000000 0.250000 0.562411
Si Si3 0.289275 0.118654 0.935267
Si Si4 0.212168 0.039763 0.437983
O O1 0.500000 0.708203 0.531121
O O2 0.750000 0.705842 0.750000
O O3 0.843843 0.717529 0.454703
O O4 0.712905 0.652192 0.540573
O O5 0.500000 0.118670 0.961902
O O6 0.250000 0.126953 0.750000
O O7 0.219455 0.077263 0.976687
O O8 0.250000 0.042967 0.250000
O O9 0.000000 0.039163 0.464047
O O10 0.283310 0.000000 0.500000
#
# Coordination Sequence:
#
# PCOD9539780 Si02
#       4
#    16   4  16  16
#     4  12  24  41  69  98 132 171 220 274 333 397
#     4  12  24  44  68 100 134 166 220 278 332 408
#     4  11  23  42  64  92 132 175 222 272 329 394
#     4  10  22  39  63  96 133 172 219 269 322 383
#
# _framework density 23.206320999999999
#
# number of rings (size 3 to 8) (size 9 to 14) (size 15 to 20)
#    0.000    0.923    3.077    3.692    0.000    5.538 
#    0.000    0.769    0.000    0.000    0.000    0.000 
#    0.000    0.000    0.000    0.000    0.000    0.000 
#
# Total GULP energy -145063.442787 kJ/mol
# GULP energy per Si atom -5579.363184 kJ/mol
# Density = 2.315350 g / cm^3
# Si number density = 23.206321 Si / 1000 Ang^3
#
#
#
# Elastic Constant Matrix: (Units=GPa)
#
#
# Indices 1 2 3 4 5 6 
#
# 1 171.7611 42.5638 -11.5305 -0.0045 0.0001 -0.0003
# 2 42.5638 184.2467 9.0372 -0.0339 -0.0001 -0.0010
# 3 -11.5305 9.0372 46.0970 -0.0437 -0.0003 -0.0037
# 4 -0.0045 -0.0339 -0.0437 568.1994 -0.0068 -0.0276
# 5 0.0001 -0.0001 -0.0003 -0.0068 23.4344 -0.0005
# 6 -0.0003 -0.0010 -0.0037 -0.0276 -0.0005 35.2722
#
#
#
# Elastic Compliance Matrix: (Units=1/GPa)
#
#
# Indices 1 2 3 4 5 6 
#
# 1 0.006334 -0.001556 0.001890 0.000000 0.000000 0.000000
# 2 -0.001556 0.005862 -0.001539 0.000000 0.000000 0.000000
# 3 0.001890 -0.001539 0.022468 0.000002 0.000000 0.000002
# 4 0.000000 0.000000 0.000002 0.001760 0.000001 0.000001
# 5 0.000000 0.000000 0.000000 0.000001 0.042672 0.000001
# 6 0.000000 0.000000 0.000002 0.000001 0.000001 0.028351
#
#
# Mechanical properties :
#
#
# Convention : Reuss Voigt Hill
#
# Bulk Modulus (GPa) = 31.00342 53.58287 42.29315
# Shear Modulus (GPa) = 41.45611 149.51681 95.48646
#
# Velocity S-wave (km/s) = 4.23119 8.03550 6.42153
# Velocity P-wave (km/s) = 6.10405 10.45142 8.55838
#
# Compressibility (1/GPa) = 0.03225450
#
# Stress axis : x y z
#
# Youngs Moduli (GPa) = 157.86597 170.57744 44.50839
#
# Poissons Ratio (x) = 0.26543 -0.08410
# Poissons Ratio (y) = 0.24565 0.06848
# Poissons Ratio (z) = -0.29829 0.26244
#
# Static dielectric constant tensor:
#      x y z
#    x 1.774120 0.000000 0.000000 
#    y 0.000000 1.893470 0.000000 
#    z 0.000000 0.000000 1.840080 
# 
# From -- ./inp_files/17192.got.cif
#   From: 2010.05.17/outbox.cif.g08.bks.cpg/sg74_9_cif.got.tgz:17192.got - 2010.06.03 17:57:02.
