data_PCOD9539896
_publ_section_title
;
Structure prediction by ZEFSAII (Michael W. Deem and Ramdas Pophale) SiO2 
 PCOD9539896
Probable space group: I M M A
;
_chemical_formula_sum "Si O2"
_cell_formula_units_Z 116
_cell_length_a 22.795883
_cell_length_b 7.639399
_cell_length_c 28.351039
_cell_angle_alpha 90.000000
_cell_angle_beta 90.000000
_cell_angle_gamma 90.000000
_cell_volume 4937.244017
_symmetry_space_group_name_H-M "I M M A"
_symmetry_group_IT_number 74
_symmetry_cell_setting 'orthorhombic'
loop_
_space_group_symop_operation_xyz
x,y,z
-x,1/2-y,z
x,-y,-z
-x,1/2+y,-z
-x,-y,-z
x,1/2+y,-z
-x,y,z
x,1/2-y,z
1/2+x,1/2+y,1/2+z
1/2-x,-y,1/2+z
1/2+x,1/2-y,1/2-z
1/2-x,y,1/2-z
1/2-x,1/2-y,1/2-z
1/2+x,y,1/2-z
1/2-x,1/2+y,1/2+z
1/2+x,-y,1/2+z
loop_
_atom_site_type_symbol
_atom_site_label
_atom_site_fract_x
_atom_site_fract_y
_atom_site_fract_z
Si Si1 0.229318 0.451311 0.149267
Si Si2 0.646463 0.446314 0.270432
Si Si3 0.069742 0.453590 0.850248
Si Si4 0.767381 0.958692 0.552565
Si Si5 0.000000 0.750000 0.453541
Si Si6 0.096002 0.454020 0.429295
Si Si7 0.860706 0.547244 0.333473
Si Si8 0.567514 0.040306 0.549951
O O1 0.208350 0.250000 0.147159
O O2 0.195730 0.529122 0.194655
O O3 0.229675 0.532204 0.096546
O O4 0.298093 0.455475 0.160455
O O5 0.665940 0.250000 0.257725
O O6 0.591870 0.444351 0.305596
O O7 0.627499 0.535343 0.222052
O O8 0.087023 0.250000 0.844457
O O9 0.093297 0.522787 0.900513
O O10 0.000000 0.458245 0.853744
O O11 0.765975 0.750000 0.558596
O O12 0.836671 0.004899 0.557299
O O13 0.747068 0.000000 0.500000
O O14 0.948885 0.594230 0.449707
O O15 0.084868 0.250000 0.442824
O O16 0.095339 0.466568 0.371840
O O17 0.854716 0.750000 0.346444
O O18 0.500000 0.971762 0.547279
O O19 0.564273 0.250000 0.554114
O O20 0.596504 0.000000 0.500000
#
# Coordination Sequence:
#
# PCOD9539896 Si02
#       8
#    16  16  16  16   4  16  16  16
#     4   9  20  38  58  85 116 150 188 242 308 362
#     4  11  22  36  56  81 115 151 191 244 303 358
#     4   9  19  36  52  71 105 144 182 229 281 343
#     4   9  19  36  63  88 119 162 203 250 312 382
#     4  12  22  40  66  94 124 172 218 270 306 370
#     4  10  22  41  62  90 129 167 213 264 314 365
#     4  11  21  37  60  88 113 150 200 244 300 371
#     4   8  14  26  46  68  89 120 165 212 260 310
#
# _framework density 23.494890999999999
#
# number of rings (size 3 to 8) (size 9 to 14) (size 15 to 20)
#    0.000    2.345    0.690    3.931    0.966    4.138 
#    1.241    2.414    0.000    3.310    0.000    0.000 
#    0.000    0.000    0.000    0.000    0.000    0.000 
#
# Total GULP energy -323160.288709 kJ/mol
# GULP energy per Si atom -5571.729116 kJ/mol
# Density = 2.344142 g / cm^3
# Si number density = 23.494891 Si / 1000 Ang^3
#
#
#
# Elastic Constant Matrix: (Units=GPa)
#
#
# Indices 1 2 3 4 5 6 
#
# 1 57.5758 23.4849 6.9787 0.0000 0.0000 0.0000
# 2 23.4849 99.5056 19.0810 0.0000 0.0000 0.0000
# 3 6.9787 19.0810 172.3623 0.0000 0.0000 0.0000
# 4 0.0000 0.0000 0.0000 25.3294 0.0000 0.0000
# 5 0.0000 0.0000 0.0000 0.0000 211.4559 0.0000
# 6 0.0000 0.0000 0.0000 0.0000 0.0000 16.7400
#
#
#
# Elastic Compliance Matrix: (Units=1/GPa)
#
#
# Indices 1 2 3 4 5 6 
#
# 1 0.019232 -0.004485 -0.000282 0.000000 0.000000 0.000000
# 2 -0.004485 0.011314 -0.001071 0.000000 0.000000 0.000000
# 3 -0.000282 -0.001071 0.005932 0.000000 0.000000 0.000000
# 4 0.000000 0.000000 0.000000 0.039480 0.000000 0.000000
# 5 0.000000 0.000000 0.000000 0.000000 0.004729 0.000000
# 6 0.000000 0.000000 0.000000 0.000000 0.000000 0.059737
#
#
# Mechanical properties :
#
#
# Convention : Reuss Voigt Hill
#
# Bulk Modulus (GPa) = 40.32047 47.61477 43.96762
# Shear Modulus (GPa) = 31.17861 69.36502 50.27181
#
# Velocity S-wave (km/s) = 3.64681 5.43944 4.63070
# Velocity P-wave (km/s) = 5.91024 7.73046 6.88080
#
# Compressibility (1/GPa) = 0.02480130
#
# Stress axis : x y z
#
# Youngs Moduli (GPa) = 51.99666 88.38956 168.58564
#
# Poissons Ratio (x) = 0.39642 0.04757
# Poissons Ratio (y) = 0.23320 0.18053
# Poissons Ratio (z) = 0.01467 0.09465
#
# Static dielectric constant tensor:
#      x y z
#    x 1.895550 0.000000 0.000000 
#    y 0.000000 1.890620 0.000000 
#    z 0.000000 0.000000 1.976050 
# 
# From -- ./inp_files/73779.got.cif
#   From: 2010.05.17/outbox.cif.g08.bks.cpg/sg74_37_cif.got.tgz:73779.got - 2010.06.03 17:57:02.
