data_PCOD9539950
_publ_section_title
;
Structure prediction by ZEFSAII (Michael W. Deem and Ramdas Pophale) SiO2 
 PCOD9539950
Probable space group: I M M A
;
_chemical_formula_sum "Si O2"
_cell_formula_units_Z 64
_cell_length_a 23.019100
_cell_length_b 21.689516
_cell_length_c 5.307813
_cell_angle_alpha 90.000000
_cell_angle_beta 90.000000
_cell_angle_gamma 90.000000
_cell_volume 2650.048451
_symmetry_space_group_name_H-M "I M M A"
_symmetry_group_IT_number 74
_symmetry_cell_setting 'orthorhombic'
loop_
_space_group_symop_operation_xyz
x,y,z
-x,1/2-y,z
x,-y,-z
-x,1/2+y,-z
-x,-y,-z
x,1/2+y,-z
-x,y,z
x,1/2-y,z
1/2+x,1/2+y,1/2+z
1/2-x,-y,1/2+z
1/2+x,1/2-y,1/2-z
1/2-x,y,1/2-z
1/2-x,1/2-y,1/2-z
1/2+x,y,1/2-z
1/2-x,1/2+y,1/2+z
1/2+x,-y,1/2+z
loop_
_atom_site_type_symbol
_atom_site_label
_atom_site_fract_x
_atom_site_fract_y
_atom_site_fract_z
Si Si1 0.919277 0.569081 0.948523
Si Si2 0.936607 0.352398 0.563024
Si Si3 0.689027 0.048649 0.188668
Si Si4 0.196158 0.817140 0.449972
O O1 0.933151 0.602724 0.683310
O O2 0.849505 0.563434 0.930854
O O3 0.939746 0.500000 0.000000
O O4 0.938390 0.608842 0.181771
O O5 0.874410 0.318300 0.598055
O O6 0.000000 0.320259 0.540187
O O7 0.750000 0.018420 0.250000
O O8 0.701754 0.115593 0.072910
O O9 0.657831 0.000000 0.000000
O O10 0.202325 0.750000 0.581980
O O11 0.250000 0.816641 0.250000
#
# Coordination Sequence:
#
# PCOD9539950 Si02
#       4
#    16  16  16  16
#     4  11  22  39  63  95 136 178 223 275 333 396
#     4  11  24  41  64  96 133 176 225 276 331 394
#     4  11  21  36  64 100 138 178 222 277 336 398
#     4  10  22  42  67  97 135 178 224 276 334 398
#
# _framework density 24.150501999999999
#
# number of rings (size 3 to 8) (size 9 to 14) (size 15 to 20)
#    0.000    1.250    0.000    7.500    0.000    4.000 
#    0.000    7.500    0.000    6.000    0.000    0.000 
#    0.000    0.000    0.000    0.000    0.000    0.000 
#
# Total GULP energy -178140.857773 kJ/mol
# GULP energy per Si atom -5566.901805 kJ/mol
# Density = 2.409553 g / cm^3
# Si number density = 24.150502 Si / 1000 Ang^3
#
#
#
# Elastic Constant Matrix: (Units=GPa)
#
#
# Indices 1 2 3 4 5 6 
#
# 1 230.2679 22.9459 40.4839 0.0000 0.0000 0.0000
# 2 22.9459 160.5744 58.4838 0.0000 0.0000 0.0000
# 3 40.4839 58.4838 129.8539 0.0000 0.0000 0.0000
# 4 0.0000 0.0000 0.0000 -8.3196 0.0000 0.0000
# 5 0.0000 0.0000 0.0000 0.0000 55.9124 0.0000
# 6 0.0000 0.0000 0.0000 0.0000 0.0000 -34.4145
#
#
#
# Elastic Compliance Matrix: (Units=1/GPa)
#
#
# Indices 1 2 3 4 5 6 
#
# 1 0.004598 -0.000161 -0.001361 0.000000 0.000000 0.000000
# 2 -0.000161 0.007455 -0.003307 0.000000 0.000000 0.000000
# 3 -0.001361 -0.003307 0.009615 0.000000 0.000000 0.000000
# 4 0.000000 0.000000 0.000000 -0.120198 0.000000 0.000000
# 5 0.000000 0.000000 0.000000 0.000000 0.017885 0.000000
# 6 0.000000 0.000000 0.000000 0.000000 0.000000 -0.029058
#
#
# Mechanical properties :
#
#
# Convention : Reuss Voigt Hill
#
# Bulk Modulus (GPa) = 83.27147 84.94705 84.10926
# Shear Modulus (GPa) = -52.06145 29.22117 -11.42014
#
# Velocity S-wave (km/s) = -4.64800 3.48222 -2.17693
# Velocity P-wave (km/s) = 2.39789 7.17065 5.34641
#
# Compressibility (1/GPa) = 0.01200891
#
# Stress axis : x y z
#
# Youngs Moduli (GPa) = 217.48100 134.13237 104.00613
#
# Poissons Ratio (x) = 0.02165 0.14153
# Poissons Ratio (y) = 0.03511 0.34399
# Poissons Ratio (z) = 0.29595 0.44363
#
# Static dielectric constant tensor:
#      x y z
#    x 2.038070 0.000000 0.000000 
#    y 0.000000 1.921060 0.000000 
#    z 0.000000 0.000000 1.964110 
# 
# From -- ./inp_files/3545.got.cif
#   From: 2010.05.17/outbox.cif.g08.bks.cpg/sg74_2_cif.got.tgz:3545.got - 2010.06.03 17:57:02.
