data_PCOD9539730
_publ_section_title
;
Structure prediction by ZEFSAII (Michael W. Deem and Ramdas Pophale) SiO2 
 PCOD9539730
Probable space group: I M M A
;
_chemical_formula_sum "Si O2"
_cell_formula_units_Z 88
_cell_length_a 28.114902
_cell_length_b 14.128503
_cell_length_c 10.477259
_cell_angle_alpha 90.000000
_cell_angle_beta 90.000000
_cell_angle_gamma 90.000000
_cell_volume 4161.792298
_symmetry_space_group_name_H-M "I M M A"
_symmetry_group_IT_number 74
_symmetry_cell_setting 'orthorhombic'
loop_
_space_group_symop_operation_xyz
x,y,z
-x,1/2-y,z
x,-y,-z
-x,1/2+y,-z
-x,-y,-z
x,1/2+y,-z
-x,y,z
x,1/2-y,z
1/2+x,1/2+y,1/2+z
1/2-x,-y,1/2+z
1/2+x,1/2-y,1/2-z
1/2-x,y,1/2-z
1/2-x,1/2-y,1/2-z
1/2+x,y,1/2-z
1/2-x,1/2+y,1/2+z
1/2+x,-y,1/2+z
loop_
_atom_site_type_symbol
_atom_site_label
_atom_site_fract_x
_atom_site_fract_y
_atom_site_fract_z
Si Si1 0.904449 0.142667 0.406609
Si Si2 0.695828 0.888031 0.005545
Si Si3 0.866312 0.250000 0.996174
Si Si4 0.307070 0.750000 0.231190
Si Si5 0.768413 0.750000 0.891948
Si Si6 0.553707 0.606867 0.452358
Si Si7 0.944058 0.552926 0.333616
O O1 0.920657 0.250000 0.376932
O O2 0.847366 0.141104 0.413053
O O3 0.921440 0.110611 0.549055
O O4 0.922761 0.053452 0.324745
O O5 0.683169 0.842007 0.142755
O O6 0.744715 0.839828 0.962174
O O7 0.698979 0.000000 0.000000
O O8 0.837840 0.250000 0.860111
O O9 0.902247 0.337034 0.008668
O O10 0.824577 0.250000 0.098118
O O11 0.250000 0.750000 0.250000
O O12 0.750000 0.750000 0.750000
O O13 0.554709 0.500000 0.500000
O O14 0.500000 0.642554 0.479990
O O15 0.560783 0.606531 0.299623
O O16 0.000000 0.542536 0.359349
#
# Coordination Sequence:
#
# PCOD9539730 Si02
#       7
#    16  16   8   8   8  16  16
#     4  11  20  36  62  93 132 173 215 266 337 394
#     4  11  22  41  65  92 127 176 214 266 335 379
#     4  12  24  45  74  98 131 176 224 272 347 389
#     4  11  22  43  65  98 133 167 232 278 312 408
#     4  11  27  47  61  97 135 162 220 280 318 408
#     4  10  24  46  69  98 134 172 226 278 328 400
#     4  10  22  38  61 100 133 167 221 277 327 399
#
# _framework density 21.144735000000001
#
# number of rings (size 3 to 8) (size 9 to 14) (size 15 to 20)
#    0.000    1.273    5.455    2.455    1.273    4.364 
#    1.636    0.000    0.000    0.000    0.000    0.000 
#    0.000    0.000    0.000    0.000    0.000    0.000 
#
# Total GULP energy -245825.403891 kJ/mol
# GULP energy per Si atom -5586.940998 kJ/mol
# Density = 2.109661 g / cm^3
# Si number density = 21.144735 Si / 1000 Ang^3
#
#
#
# Elastic Constant Matrix: (Units=GPa)
#
#
# Indices 1 2 3 4 5 6 
#
# 1 166.3150 44.4657 16.9049 0.0000 0.0000 0.0000
# 2 44.4657 142.7229 1.4986 0.0000 0.0000 0.0000
# 3 16.9049 1.4986 48.1606 0.0000 0.0000 0.0000
# 4 0.0000 0.0000 0.0000 9.1674 0.0000 0.0000
# 5 0.0000 0.0000 0.0000 0.0000 29.5091 0.0000
# 6 0.0000 0.0000 0.0000 0.0000 0.0000 33.2250
#
#
#
# Elastic Compliance Matrix: (Units=1/GPa)
#
#
# Indices 1 2 3 4 5 6 
#
# 1 0.006810 -0.002097 -0.002325 0.000000 0.000000 0.000000
# 2 -0.002097 0.007655 0.000498 0.000000 0.000000 0.000000
# 3 -0.002325 0.000498 0.021564 0.000000 0.000000 0.000000
# 4 0.000000 0.000000 0.000000 0.109082 0.000000 0.000000
# 5 0.000000 0.000000 0.000000 0.000000 0.033888 0.000000
# 6 0.000000 0.000000 0.000000 0.000000 0.000000 0.030098
#
#
# Mechanical properties :
#
#
# Convention : Reuss Voigt Hill
#
# Bulk Modulus (GPa) = 35.48566 53.65966 44.57266
# Shear Modulus (GPa) = 22.09082 34.00226 28.04654
#
# Velocity S-wave (km/s) = 3.23576 4.01443 3.64594
# Velocity P-wave (km/s) = 5.54787 6.84981 6.23293
#
# Compressibility (1/GPa) = 0.02818039
#
# Stress axis : x y z
#
# Youngs Moduli (GPa) = 146.84913 130.63810 46.37260
#
# Poissons Ratio (x) = 0.27397 0.10782
# Poissons Ratio (y) = 0.30797 -0.02309
# Poissons Ratio (z) = 0.34143 -0.06505
#
# Static dielectric constant tensor:
#      x y z
#    x 1.751650 0.000000 0.000000 
#    y 0.000000 1.515430 0.000000 
#    z 0.000000 0.000000 1.809050 
# 
# From -- ./inp_files/25022.got.cif
#   From: 2010.05.17/outbox.cif.g08.bks.cpg/sg74_13_cif.got.tgz:25022.got - 2010.06.03 17:57:02.
