data_PCOD9539405
_publ_section_title
;
Structure prediction by ZEFSAII (Michael W. Deem and Ramdas Pophale) SiO2 
 PCOD9539405
Probable space group: I M M A
;
_chemical_formula_sum "Si O2"
_cell_formula_units_Z 40
_cell_length_a 13.509129
_cell_length_b 5.524632
_cell_length_c 25.073079
_cell_angle_alpha 90.000000
_cell_angle_beta 90.000000
_cell_angle_gamma 90.000000
_cell_volume 1871.278262
_symmetry_space_group_name_H-M "I M M A"
_symmetry_group_IT_number 74
_symmetry_cell_setting 'orthorhombic'
loop_
_space_group_symop_operation_xyz
x,y,z
-x,1/2-y,z
x,-y,-z
-x,1/2+y,-z
-x,-y,-z
x,1/2+y,-z
-x,y,z
x,1/2-y,z
1/2+x,1/2+y,1/2+z
1/2-x,-y,1/2+z
1/2+x,1/2-y,1/2-z
1/2-x,y,1/2-z
1/2-x,1/2-y,1/2-z
1/2+x,y,1/2-z
1/2-x,1/2+y,1/2+z
1/2+x,-y,1/2+z
loop_
_atom_site_type_symbol
_atom_site_label
_atom_site_fract_x
_atom_site_fract_y
_atom_site_fract_z
Si Si1 0.322191 0.250000 0.200210
Si Si2 0.000000 0.750000 0.036420
Si Si3 0.391434 0.250000 0.833823
Si Si4 0.713639 0.750000 0.920331
Si Si5 0.714943 0.250000 0.578181
Si Si6 0.000000 0.750000 0.534369
O O1 0.250000 0.250000 0.250000
O O2 0.382642 0.501044 0.198992
O O3 0.265001 0.250000 0.143095
O O4 0.096434 0.750000 0.074898
O O5 0.000000 0.500000 0.000000
O O6 0.500000 0.250000 0.861404
O O7 0.294816 0.250000 0.872147
O O8 0.756375 0.508655 0.945106
O O9 0.596580 0.750000 0.928979
O O10 0.000000 0.500000 0.500000
#
# Coordination Sequence:
#
# PCOD9539405 Si02
#       6
#     8   4   8   8   8   4
#     4  10  21  38  66  93 139 176 221 259 326 420
#     4  12  26  44  68  90 122 176 234 284 330 386
#     4  10  21  38  70  98 133 175 210 272 345 404
#     4  10  23  40  67  93 139 172 216 280 339 400
#     4  10  23  40  67  90 129 172 225 267 340 397
#     4  12  26  40  62 102 142 176 218 268 350 426
#
# _framework density 21.375762000000002
#
# number of rings (size 3 to 8) (size 9 to 14) (size 15 to 20)
#    0.000    1.600    0.000    3.600   11.200    4.800 
#    0.000    0.000   52.800    0.000    0.000    0.000 
#    0.000    0.000    0.000    0.000    0.000    0.000 
#
# Total GULP energy -111357.495745 kJ/mol
# GULP energy per Si atom -5567.874787 kJ/mol
# Density = 2.132711 g / cm^3
# Si number density = 21.375762 Si / 1000 Ang^3
#
#
#
# Elastic Constant Matrix: (Units=GPa)
#
#
# Indices 1 2 3 4 5 6 
#
# 1 211.0659 55.5040 53.3438 0.0000 0.0000 0.0000
# 2 55.5040 248.8084 31.2125 0.0000 0.0000 0.0000
# 3 53.3438 31.2125 116.9981 0.0000 0.0000 0.0000
# 4 0.0000 0.0000 0.0000 41.9358 0.0000 0.0000
# 5 0.0000 0.0000 0.0000 0.0000 17.3114 0.0000
# 6 0.0000 0.0000 0.0000 0.0000 0.0000 32.0675
#
#
#
# Elastic Compliance Matrix: (Units=1/GPa)
#
#
# Indices 1 2 3 4 5 6 
#
# 1 0.005566 -0.000955 -0.002283 0.000000 0.000000 0.000000
# 2 -0.000955 0.004322 -0.000718 0.000000 0.000000 0.000000
# 3 -0.002283 -0.000718 0.009779 0.000000 0.000000 0.000000
# 4 0.000000 0.000000 0.000000 0.023846 0.000000 0.000000
# 5 0.000000 0.000000 0.000000 0.000000 0.057765 0.000000
# 6 0.000000 0.000000 0.000000 0.000000 0.000000 0.031184
#
#
# Mechanical properties :
#
#
# Convention : Reuss Voigt Hill
#
# Bulk Modulus (GPa) = 85.06093 95.22143 90.14118
# Shear Modulus (GPa) = 34.65159 47.38374 41.01767
#
# Velocity S-wave (km/s) = 4.03062 4.71330 4.38526
# Velocity P-wave (km/s) = 7.84479 8.61762 8.24027
#
# Compressibility (1/GPa) = 0.01175628
#
# Stress axis : x y z
#
# Youngs Moduli (GPa) = 179.66094 231.35973 102.25536
#
# Poissons Ratio (x) = 0.22101 0.23344
# Poissons Ratio (y) = 0.17163 0.07337
# Poissons Ratio (z) = 0.41015 0.16601
#
# Static dielectric constant tensor:
#      x y z
#    x 1.808530 0.000000 0.000000 
#    y 0.000000 1.871940 0.000000 
#    z 0.000000 0.000000 1.776630 
# 
# From -- ./inp_files/62868.got.cif
#   From: 2010.05.17/outbox.cif.g08.bks.cpg/sg74_32_cif.got.tgz:62868.got - 2010.06.03 17:57:02.
