data_PCOD9539569
_publ_section_title
;
Structure prediction by ZEFSAII (Michael W. Deem and Ramdas Pophale) SiO2 
 PCOD9539569
Probable space group: I M M A
;
_chemical_formula_sum "Si O2"
_cell_formula_units_Z 44
_cell_length_a 7.620324
_cell_length_b 7.815146
_cell_length_c 33.943114
_cell_angle_alpha 90.000000
_cell_angle_beta 90.000000
_cell_angle_gamma 90.000000
_cell_volume 2021.446332
_symmetry_space_group_name_H-M "I M M A"
_symmetry_group_IT_number 74
_symmetry_cell_setting 'orthorhombic'
loop_
_space_group_symop_operation_xyz
x,y,z
-x,1/2-y,z
x,-y,-z
-x,1/2+y,-z
-x,-y,-z
x,1/2+y,-z
-x,y,z
x,1/2-y,z
1/2+x,1/2+y,1/2+z
1/2-x,-y,1/2+z
1/2+x,1/2-y,1/2-z
1/2-x,y,1/2-z
1/2-x,1/2-y,1/2-z
1/2+x,y,1/2-z
1/2-x,1/2+y,1/2+z
1/2+x,-y,1/2+z
loop_
_atom_site_type_symbol
_atom_site_label
_atom_site_fract_x
_atom_site_fract_y
_atom_site_fract_z
Si Si1 0.712920 0.056913 0.850817
Si Si2 0.000000 0.500000 0.500000
Si Si3 0.697582 0.044003 0.439683
Si Si4 0.710391 0.750000 0.795987
O O1 0.500000 0.052771 0.851802
O O2 0.767819 0.250000 0.841397
O O3 0.776278 0.006379 0.894292
O O4 0.774698 0.917972 0.819093
O O5 0.153805 0.534654 0.466955
O O6 0.500000 0.998006 0.451573
O O7 0.720825 0.250000 0.442966
O O8 0.500000 0.750000 0.799812
O O9 0.750000 0.750000 0.750000
#
# Coordination Sequence:
#
# PCOD9539569 Si02
#       4
#    16   4  16   8
#     4  10  21  40  68  96 129 180 231 280 346 419
#     4  12  24  40  68  96 138 188 232 298 344 416
#     4  11  24  42  67  97 133 182 236 288 351 414
#     4  10  22  40  66  98 138 178 226 286 350 418
#
# _framework density 21.766590999999998
#
# number of rings (size 3 to 8) (size 9 to 14) (size 15 to 20)
#    0.000    1.455    3.636    1.091    0.000    5.818 
#    0.000    0.000    0.000    0.000    0.000    0.000 
#    0.000    0.000    0.000    0.000    0.000    0.000 
#
# Total GULP energy -122570.298729 kJ/mol
# GULP energy per Si atom -5571.377215 kJ/mol
# Density = 2.171705 g / cm^3
# Si number density = 21.766591 Si / 1000 Ang^3
#
#
#
# Elastic Constant Matrix: (Units=GPa)
#
#
# Indices 1 2 3 4 5 6 
#
# 1 125.6706 52.9777 47.2471 0.0000 0.0000 0.0000
# 2 52.9777 114.3470 65.5463 0.0000 0.0000 0.0000
# 3 47.2471 65.5463 192.5305 0.0000 0.0000 0.0000
# 4 0.0000 0.0000 0.0000 -155.2280 0.0000 0.0000
# 5 0.0000 0.0000 0.0000 0.0000 23.0599 0.0000
# 6 0.0000 0.0000 0.0000 0.0000 0.0000 6.6912
#
#
#
# Elastic Compliance Matrix: (Units=1/GPa)
#
#
# Indices 1 2 3 4 5 6 
#
# 1 0.010072 -0.004037 -0.001097 0.000000 0.000000 0.000000
# 2 -0.004037 0.012484 -0.003259 0.000000 0.000000 0.000000
# 3 -0.001097 -0.003259 0.006573 0.000000 0.000000 0.000000
# 4 0.000000 0.000000 0.000000 -0.006442 0.000000 0.000000
# 5 0.000000 0.000000 0.000000 0.000000 0.043365 0.000000
# 6 0.000000 0.000000 0.000000 0.000000 0.000000 0.149451
#
#
# Mechanical properties :
#
#
# Convention : Reuss Voigt Hill
#
# Bulk Modulus (GPa) = 81.03075 84.89892 82.96484
# Shear Modulus (GPa) = 21.15021 -7.31024 6.91998
#
# Velocity S-wave (km/s) = 3.12056 -1.83460 1.78496
# Velocity P-wave (km/s) = 7.09167 5.88228 6.51510
#
# Compressibility (1/GPa) = 0.01234099
#
# Stress axis : x y z
#
# Youngs Moduli (GPa) = 99.28709 80.10086 152.14058
#
# Poissons Ratio (x) = 0.32340 0.16691
# Poissons Ratio (y) = 0.40087 0.49589
# Poissons Ratio (z) = 0.10893 0.26108
#
# Static dielectric constant tensor:
#      x y z
#    x 1.792700 0.000000 0.000000 
#    y 0.000000 1.833760 0.000000 
#    z 0.000000 0.000000 1.717630 
# 
# From -- ./inp_files/69480.got.cif
#   From: 2010.05.17/outbox.cif.g08.bks.cpg/sg74_35_cif.got.tgz:69480.got - 2010.06.03 17:57:02.
