data_PCOD9539147
_publ_section_title
;
Structure prediction by ZEFSAII (Michael W. Deem and Ramdas Pophale) SiO2 
 PCOD9539147
Probable space group: I M M A
;
_chemical_formula_sum "Si O2"
_cell_formula_units_Z 64
_cell_length_a 8.354637
_cell_length_b 12.018972
_cell_length_c 29.372535
_cell_angle_alpha 90.000000
_cell_angle_beta 90.000000
_cell_angle_gamma 90.000000
_cell_volume 2949.418082
_symmetry_space_group_name_H-M "I M M A"
_symmetry_group_IT_number 74
_symmetry_cell_setting 'orthorhombic'
loop_
_space_group_symop_operation_xyz
x,y,z
-x,1/2-y,z
x,-y,-z
-x,1/2+y,-z
-x,-y,-z
x,1/2+y,-z
-x,y,z
x,1/2-y,z
1/2+x,1/2+y,1/2+z
1/2-x,-y,1/2+z
1/2+x,1/2-y,1/2-z
1/2-x,y,1/2-z
1/2-x,1/2-y,1/2-z
1/2+x,y,1/2-z
1/2-x,1/2+y,1/2+z
1/2+x,-y,1/2+z
loop_
_atom_site_type_symbol
_atom_site_label
_atom_site_fract_x
_atom_site_fract_y
_atom_site_fract_z
Si Si1 0.173908 0.949668 0.050574
Si Si2 0.500000 0.872787 0.022634
Si Si3 0.813103 0.948457 0.633260
Si Si4 0.186389 0.883061 0.200546
Si Si5 0.192415 0.750000 0.698510
O O1 0.334126 0.875994 0.050438
O O2 0.000000 0.898184 0.060984
O O3 0.211066 0.045012 0.087459
O O4 0.164335 0.000000 0.000000
O O5 0.500000 0.750000 0.997784
O O6 0.500000 0.000000 0.000000
O O7 0.757112 0.856265 0.669101
O O8 0.000000 0.930038 0.622279
O O9 0.787355 0.062846 0.660370
O O10 0.198209 0.750000 0.199131
O O11 0.250000 0.920473 0.250000
O O12 0.000000 0.914133 0.195683
O O13 0.250000 0.750000 0.750000
O O14 0.000000 0.750000 0.699952
#
# Coordination Sequence:
#
# PCOD9539147 Si02
#       5
#    16   8  16  16   8
#     4  10  22  43  67  98 135 178 235 294 355 425
#     4  10  22  44  70 102 138 188 236 298 368 430
#     4  11  22  40  64  94 130 176 226 279 350 422
#     4  10  21  37  58  86 120 160 208 266 327 394
#     4  10  24  42  64  98 138 182 232 296 359 438
#
# _framework density 21.699195
#
# number of rings (size 3 to 8) (size 9 to 14) (size 15 to 20)
#    0.000    1.750    1.250    2.250    0.000    7.000 
#    9.000    0.000    0.000    0.000    0.000    0.000 
#    0.000    0.000    0.000    0.000    0.000    0.000 
#
# Total GULP energy -178472.266418 kJ/mol
# GULP energy per Si atom -5577.258326 kJ/mol
# Density = 2.164981 g / cm^3
# Si number density = 21.699195 Si / 1000 Ang^3
#
#
#
# Elastic Constant Matrix: (Units=GPa)
#
#
# Indices 1 2 3 4 5 6 
#
# 1 134.9144 30.4525 25.3881 0.0000 0.0000 0.0000
# 2 30.4525 74.7261 37.6588 0.0000 0.0000 0.0000
# 3 25.3881 37.6588 153.0176 0.0000 0.0000 0.0000
# 4 0.0000 0.0000 0.0000 18.7097 0.0000 0.0000
# 5 0.0000 0.0000 0.0000 0.0000 24.5768 0.0000
# 6 0.0000 0.0000 0.0000 0.0000 0.0000 6.2926
#
#
#
# Elastic Compliance Matrix: (Units=1/GPa)
#
#
# Indices 1 2 3 4 5 6 
#
# 1 0.008213 -0.003037 -0.000615 0.000000 0.000000 0.000000
# 2 -0.003037 0.016400 -0.003532 0.000000 0.000000 0.000000
# 3 -0.000615 -0.003532 0.007507 0.000000 0.000000 0.000000
# 4 0.000000 0.000000 0.000000 0.053448 0.000000 0.000000
# 5 0.000000 0.000000 0.000000 0.000000 0.040689 0.000000
# 6 0.000000 0.000000 0.000000 0.000000 0.000000 0.158916
#
#
# Mechanical properties :
#
#
# Convention : Reuss Voigt Hill
#
# Bulk Modulus (GPa) = 56.33562 61.07299 58.70430
# Shear Modulus (GPa) = 16.36878 27.85972 22.11425
#
# Velocity S-wave (km/s) = 2.74952 3.58705 3.19584
# Velocity P-wave (km/s) = 6.00818 6.73515 6.38203
#
# Compressibility (1/GPa) = 0.01775076
#
# Stress axis : x y z
#
# Youngs Moduli (GPa) = 121.75209 60.97566 133.21607
#
# Poissons Ratio (x) = 0.18519 0.08197
# Poissons Ratio (y) = 0.36977 0.47055
# Poissons Ratio (z) = 0.07491 0.21538
#
# Static dielectric constant tensor:
#      x y z
#    x 1.824540 0.000000 0.000000 
#    y 0.000000 1.829430 0.000000 
#    z 0.000000 0.000000 1.798110 
# 
# From -- ./inp_files/69788.got.cif
#   From: 2010.05.17/outbox.cif.g08.bks.cpg/sg74_35_cif.got.tgz:69788.got - 2010.06.03 17:57:02.
