data_PCOD9539714
_publ_section_title
;
Structure prediction by ZEFSAII (Michael W. Deem and Ramdas Pophale) SiO2 
 PCOD9539714
Probable space group: I M M A
;
_chemical_formula_sum "Si O2"
_cell_formula_units_Z 48
_cell_length_a 11.221186
_cell_length_b 12.950527
_cell_length_c 13.013077
_cell_angle_alpha 90.000000
_cell_angle_beta 90.000000
_cell_angle_gamma 90.000000
_cell_volume 1891.063893
_symmetry_space_group_name_H-M "I M M A"
_symmetry_group_IT_number 74
_symmetry_cell_setting 'orthorhombic'
loop_
_space_group_symop_operation_xyz
x,y,z
-x,1/2-y,z
x,-y,-z
-x,1/2+y,-z
-x,-y,-z
x,1/2+y,-z
-x,y,z
x,1/2-y,z
1/2+x,1/2+y,1/2+z
1/2-x,-y,1/2+z
1/2+x,1/2-y,1/2-z
1/2-x,y,1/2-z
1/2-x,1/2-y,1/2-z
1/2+x,y,1/2-z
1/2-x,1/2+y,1/2+z
1/2+x,-y,1/2+z
loop_
_atom_site_type_symbol
_atom_site_label
_atom_site_fract_x
_atom_site_fract_y
_atom_site_fract_z
Si Si1 0.870648 0.133391 0.652571
Si Si2 0.629187 0.428939 0.289501
Si Si3 0.633343 0.369596 0.517906
O O1 0.866897 0.250000 0.698119
O O2 0.755711 0.122108 0.581256
O O3 0.000000 0.126103 0.597692
O O4 0.871081 0.041130 0.734439
O O5 0.500000 0.381462 0.264748
O O6 0.750000 0.376760 0.250000
O O7 0.636958 0.434376 0.412594
O O8 0.500000 0.381174 0.566188
O O9 0.634427 0.250000 0.482244
#
# Coordination Sequence:
#
# PCOD9539714 Si02
#       3
#    16  16  16
#     4   9  19  38  63  89 118 156 203 252 302 359
#     4  10  22  38  58  88 124 160 200 248 304 364
#     4   9  19  38  63  89 118 156 203 252 302 359
#
# _framework density 25.382536000000002
#
# number of rings (size 3 to 8) (size 9 to 14) (size 15 to 20)
#    0.000    2.667    0.000    0.000    0.000    5.333 
#    0.000    6.667    0.000    2.000    0.000    0.000 
#    0.000    0.000    0.000    0.000    0.000    0.000 
#
# Total GULP energy -134117.781492 kJ/mol
# GULP energy per Si atom -5588.240895 kJ/mol
# Density = 2.532476 g / cm^3
# Si number density = 25.382536 Si / 1000 Ang^3
#
#
#
# Elastic Constant Matrix: (Units=GPa)
#
#
# Indices 1 2 3 4 5 6 
#
# 1 335.6639 39.5042 90.9733 0.0000 0.0000 0.0000
# 2 39.5042 122.3334 22.4057 0.0000 0.0000 0.0000
# 3 90.9733 22.4057 98.6593 0.0000 0.0000 0.0000
# 4 0.0000 0.0000 0.0000 13.6485 0.0000 0.0000
# 5 0.0000 0.0000 0.0000 0.0000 43.5960 0.0000
# 6 0.0000 0.0000 0.0000 0.0000 0.0000 20.9680
#
#
#
# Elastic Compliance Matrix: (Units=1/GPa)
#
#
# Indices 1 2 3 4 5 6 
#
# 1 0.004020 -0.000646 -0.003560 0.000000 0.000000 0.000000
# 2 -0.000646 0.008633 -0.001365 0.000000 0.000000 0.000000
# 3 -0.003560 -0.001365 0.013729 0.000000 0.000000 0.000000
# 4 0.000000 0.000000 0.000000 0.073268 0.000000 0.000000
# 5 0.000000 0.000000 0.000000 0.000000 0.022938 0.000000
# 6 0.000000 0.000000 0.000000 0.000000 0.000000 0.047692
#
#
# Mechanical properties :
#
#
# Convention : Reuss Voigt Hill
#
# Bulk Modulus (GPa) = 65.61856 95.82476 80.72166
# Shear Modulus (GPa) = 26.80944 42.56073 34.68508
#
# Velocity S-wave (km/s) = 3.25347 4.09928 3.70062
# Velocity P-wave (km/s) = 6.32625 7.76142 7.08029
#
# Compressibility (1/GPa) = 0.01523959
#
# Stress axis : x y z
#
# Youngs Moduli (GPa) = 248.74926 115.83463 72.84026
#
# Poissons Ratio (x) = 0.07484 0.25933
# Poissons Ratio (y) = 0.16072 0.09941
# Poissons Ratio (z) = 0.88559 0.15809
#
# Static dielectric constant tensor:
#      x y z
#    x 2.022750 0.000000 0.000000 
#    y 0.000000 2.090660 0.000000 
#    z 0.000000 0.000000 1.972560 
# 
# From -- ./inp_files/18148.got.cif
#   From: 2010.05.17/outbox.cif.g08.bks.cpg/sg74_10_cif.got.tgz:18148.got - 2010.06.03 17:57:02.
