data_PCOD9539648
_publ_section_title
;
Structure prediction by ZEFSAII (Michael W. Deem and Ramdas Pophale) SiO2 
 PCOD9539648
Probable space group: I M M A
;
_chemical_formula_sum "Si O2"
_cell_formula_units_Z 96
_cell_length_a 27.452122
_cell_length_b 14.921948
_cell_length_c 12.628596
_cell_angle_alpha 90.000000
_cell_angle_beta 90.000000
_cell_angle_gamma 90.000000
_cell_volume 5173.167167
_symmetry_space_group_name_H-M "I M M A"
_symmetry_group_IT_number 74
_symmetry_cell_setting 'orthorhombic'
loop_
_space_group_symop_operation_xyz
x,y,z
-x,1/2-y,z
x,-y,-z
-x,1/2+y,-z
-x,-y,-z
x,1/2+y,-z
-x,y,z
x,1/2-y,z
1/2+x,1/2+y,1/2+z
1/2-x,-y,1/2+z
1/2+x,1/2-y,1/2-z
1/2-x,y,1/2-z
1/2-x,1/2-y,1/2-z
1/2+x,y,1/2-z
1/2-x,1/2+y,1/2+z
1/2+x,-y,1/2+z
loop_
_atom_site_type_symbol
_atom_site_label
_atom_site_fract_x
_atom_site_fract_y
_atom_site_fract_z
Si Si1 0.808009 0.750000 0.864672
Si Si2 0.058824 0.853747 0.552567
Si Si3 0.808490 0.601178 0.031370
Si Si4 0.808321 0.098942 0.540097
Si Si5 0.135408 0.146317 0.755235
Si Si6 0.310619 0.250000 0.124647
Si Si7 0.058144 0.466600 0.662609
O O1 0.748653 0.750000 0.864518
O O2 0.827723 0.750000 0.745501
O O3 0.822306 0.664055 0.933135
O O4 0.075704 0.750000 0.560875
O O5 0.068149 0.901644 0.439270
O O6 0.000000 0.849694 0.560709
O O7 0.073676 0.931325 0.635832
O O8 0.750159 0.607535 0.049016
O O9 0.834270 0.632099 0.138201
O O10 0.819947 0.500000 0.000000
O O11 0.831818 0.122656 0.652397
O O12 0.824374 0.165220 0.446568
O O13 0.820147 0.000000 0.500000
O O14 0.120231 0.250000 0.746512
O O15 0.089825 0.079079 0.753004
O O16 0.000000 0.465492 0.679891
#
# Coordination Sequence:
#
# PCOD9539648 Si02
#       7
#     8  16  16  16  16   8  16
#     4   9  18  35  57  77 105 147 190 226 280 336
#     4   8  14  29  52  75 109 157 192 225 291 361
#     4  10  22  39  58  78 109 154 196 237 280 338
#     4  10  22  36  55  84 117 147 184 235 295 345
#     4  12  23  36  58  85 117 153 196 240 288 347
#     4   9  18  35  55  79 109 143 182 230 280 344
#     4   9  19  33  52  82 117 151 192 241 289 345
#
# _framework density 18.557296000000001
#
# number of rings (size 3 to 8) (size 9 to 14) (size 15 to 20)
#    0.000    2.333    1.667    2.000    4.667    1.667 
#    0.000    0.000    1.833    0.500    0.000    0.000 
#    0.000    1.333    0.000    0.000    0.000    0.000 
#
# Total GULP energy -267939.791585 kJ/mol
# GULP energy per Si atom -5582.078991 kJ/mol
# Density = 1.851506 g / cm^3
# Si number density = 18.557296 Si / 1000 Ang^3
#
#
#
# Elastic Constant Matrix: (Units=GPa)
#
#
# Indices 1 2 3 4 5 6 
#
# 1 47.3357 38.0907 28.7320 0.0000 0.0000 0.0000
# 2 38.0907 180.2027 60.4369 0.0000 0.0000 0.0000
# 3 28.7320 60.4369 129.7376 0.0000 0.0000 0.0000
# 4 0.0000 0.0000 0.0000 22.6434 0.0000 0.0000
# 5 0.0000 0.0000 0.0000 0.0000 16.9398 0.0000
# 6 0.0000 0.0000 0.0000 0.0000 0.0000 -78.1809
#
#
#
# Elastic Compliance Matrix: (Units=1/GPa)
#
#
# Indices 1 2 3 4 5 6 
#
# 1 0.027058 -0.004397 -0.003944 0.000000 0.000000 0.000000
# 2 -0.004397 0.007291 -0.002423 0.000000 0.000000 0.000000
# 3 -0.003944 -0.002423 0.009710 0.000000 0.000000 0.000000
# 4 0.000000 0.000000 0.000000 0.044163 0.000000 0.000000
# 5 0.000000 0.000000 0.000000 0.000000 0.059033 0.000000
# 6 0.000000 0.000000 0.000000 0.000000 0.000000 -0.012791
#
#
# Mechanical properties :
#
#
# Convention : Reuss Voigt Hill
#
# Bulk Modulus (GPa) = 44.38193 67.97724 56.17958
# Shear Modulus (GPa) = 30.58081 7.61488 19.09785
#
# Velocity S-wave (km/s) = 4.06385 2.02789 3.21148
# Velocity P-wave (km/s) = 6.78144 6.49567 6.64009
#
# Compressibility (1/GPa) = 0.02253169
#
# Stress axis : x y z
#
# Youngs Moduli (GPa) = 36.95820 137.15118 102.98641
#
# Poissons Ratio (x) = 0.60299 0.40619
# Poissons Ratio (y) = 0.16249 0.24952
# Poissons Ratio (z) = 0.14577 0.33230
#
# Static dielectric constant tensor:
#      x y z
#    x 1.677570 0.000000 0.000000 
#    y 0.000000 1.645510 0.000000 
#    z 0.000000 0.000000 1.602790 
# 
# From -- ./inp_files/27158.got.cif
#   From: 2010.05.17/outbox.cif.g08.bks.cpg/sg74_14_cif.got.tgz:27158.got - 2010.06.03 17:57:02.
