data_PCOD9539768
_publ_section_title
;
Structure prediction by ZEFSAII (Michael W. Deem and Ramdas Pophale) SiO2 
 PCOD9539768
Probable space group: I M M A
;
_chemical_formula_sum "Si O2"
_cell_formula_units_Z 56
_cell_length_a 28.219985
_cell_length_b 16.744942
_cell_length_c 5.160112
_cell_angle_alpha 90.000000
_cell_angle_beta 90.000000
_cell_angle_gamma 90.000000
_cell_volume 2438.369707
_symmetry_space_group_name_H-M "I M M A"
_symmetry_group_IT_number 74
_symmetry_cell_setting 'orthorhombic'
loop_
_space_group_symop_operation_xyz
x,y,z
-x,1/2-y,z
x,-y,-z
-x,1/2+y,-z
-x,-y,-z
x,1/2+y,-z
-x,y,z
x,1/2-y,z
1/2+x,1/2+y,1/2+z
1/2-x,-y,1/2+z
1/2+x,1/2-y,1/2-z
1/2-x,y,1/2-z
1/2-x,1/2-y,1/2-z
1/2+x,y,1/2-z
1/2-x,1/2+y,1/2+z
1/2+x,-y,1/2+z
loop_
_atom_site_type_symbol
_atom_site_label
_atom_site_fract_x
_atom_site_fract_y
_atom_site_fract_z
Si Si1 0.390707 0.152930 0.574071
Si Si2 0.250000 0.052415 0.250000
Si Si3 0.300935 0.340455 0.892432
Si Si4 0.553561 0.347330 0.080550
O O1 0.387855 0.250000 0.556766
O O2 0.340807 0.127936 0.699005
O O3 0.409147 0.124104 0.296885
O O4 0.429335 0.132082 0.793230
O O5 0.207593 0.107442 0.353888
O O6 0.262426 0.000000 0.500000
O O7 0.313717 0.250000 0.969647
O O8 0.250000 0.337753 0.750000
O O9 0.500000 0.374117 0.133586
O O10 0.553313 0.250000 0.092418
#
# Coordination Sequence:
#
# PCOD9539768 Si02
#       4
#    16   8  16  16
#     4   9  18  29  47  74 105 144 188 226 273 339
#     4  12  25  42  59  82 118 158 196 242 291 344
#     4  10  22  39  61  87 119 158 198 239 288 347
#     4   9  16  27  43  68 106 146 180 223 280 336
#
# _framework density 22.966163000000002
#
# number of rings (size 3 to 8) (size 9 to 14) (size 15 to 20)
#    0.000    2.286    1.429    1.286    4.000    3.429 
#    0.000    0.000    0.000    0.000    0.000    0.000 
#    0.000   22.857    0.000    0.000    0.000    0.000 
#
# Total GULP energy -156469.016396 kJ/mol
# GULP energy per Si atom -5588.179157 kJ/mol
# Density = 2.291389 g / cm^3
# Si number density = 22.966163 Si / 1000 Ang^3
#
#
#
# Elastic Constant Matrix: (Units=GPa)
#
#
# Indices 1 2 3 4 5 6 
#
# 1 92.4747 -4.3964 -6.8936 0.0000 0.0000 0.0000
# 2 -4.3964 37.3838 16.4456 0.0000 0.0000 0.0000
# 3 -6.8936 16.4456 99.2257 0.0000 0.0000 0.0000
# 4 0.0000 0.0000 0.0000 9.8245 0.0000 0.0000
# 5 0.0000 0.0000 0.0000 0.0000 36.0592 0.0000
# 6 0.0000 0.0000 0.0000 0.0000 0.0000 -4.4031
#
#
#
# Elastic Compliance Matrix: (Units=1/GPa)
#
#
# Indices 1 2 3 4 5 6 
#
# 1 0.010906 0.001024 0.000588 0.000000 0.000000 0.000000
# 2 0.001024 0.028949 -0.004727 0.000000 0.000000 0.000000
# 3 0.000588 -0.004727 0.010902 0.000000 0.000000 0.000000
# 4 0.000000 0.000000 0.000000 0.101787 0.000000 0.000000
# 5 0.000000 0.000000 0.000000 0.000000 0.027732 0.000000
# 6 0.000000 0.000000 0.000000 0.000000 0.000000 -0.227113
#
#
# Mechanical properties :
#
#
# Convention : Reuss Voigt Hill
#
# Bulk Modulus (GPa) = 22.45776 26.59948 24.52862
# Shear Modulus (GPa) = -194.06973 23.22469 -85.42252
#
# Velocity S-wave (km/s) = -9.20249 3.18348 -6.10538
# Velocity P-wave (km/s) = 10.15454 5.01197 6.24479
#
# Compressibility (1/GPa) = 0.04452804
#
# Stress axis : x y z
#
# Youngs Moduli (GPa) = 91.69031 34.54302 91.72361
#
# Poissons Ratio (x) = -0.03537 -0.05393
# Poissons Ratio (y) = -0.09388 0.43357
# Poissons Ratio (z) = -0.05391 0.16328
#
# Static dielectric constant tensor:
#      x y z
#    x 1.880130 0.000000 0.000000 
#    y 0.000000 1.905060 0.000000 
#    z 0.000000 0.000000 1.849420 
# 
# From -- ./inp_files/2145.got.cif
#   From: 2010.05.17/outbox.cif.g08.bks.cpg/sg74_2_cif.got.tgz:2145.got - 2010.06.03 17:57:02.
