data_PCOD9539619
_publ_section_title
;
Structure prediction by ZEFSAII (Michael W. Deem and Ramdas Pophale) SiO2 
 PCOD9539619
Probable space group: I M M A
;
_chemical_formula_sum "Si O2"
_cell_formula_units_Z 60
_cell_length_a 24.551656
_cell_length_b 9.730486
_cell_length_c 9.853042
_cell_angle_alpha 90.000000
_cell_angle_beta 90.000000
_cell_angle_gamma 90.000000
_cell_volume 2353.887251
_symmetry_space_group_name_H-M "I M M A"
_symmetry_group_IT_number 74
_symmetry_cell_setting 'orthorhombic'
loop_
_space_group_symop_operation_xyz
x,y,z
-x,1/2-y,z
x,-y,-z
-x,1/2+y,-z
-x,-y,-z
x,1/2+y,-z
-x,y,z
x,1/2-y,z
1/2+x,1/2+y,1/2+z
1/2-x,-y,1/2+z
1/2+x,1/2-y,1/2-z
1/2-x,y,1/2-z
1/2-x,1/2-y,1/2-z
1/2+x,y,1/2-z
1/2-x,1/2+y,1/2+z
1/2+x,-y,1/2+z
loop_
_atom_site_type_symbol
_atom_site_label
_atom_site_fract_x
_atom_site_fract_y
_atom_site_fract_z
Si Si1 0.912912 0.964973 0.192046
Si Si2 0.942030 0.250000 0.304036
Si Si3 0.742131 0.750000 0.091085
Si Si4 0.386336 0.250000 0.918104
Si Si5 0.796546 0.408731 0.138734
Si Si6 0.500000 0.750000 0.415734
O O1 0.908402 0.881110 0.334350
O O2 0.951278 0.869716 0.100242
O O3 0.938148 0.113777 0.216155
O O4 0.850650 0.997971 0.148917
O O5 0.900850 0.250000 0.426017
O O6 0.000000 0.250000 0.376955
O O7 0.750000 0.750000 0.250000
O O8 0.678156 0.750000 0.079285
O O9 0.769417 0.625957 0.008090
O O10 0.814833 0.250000 0.178830
O O11 0.750000 0.444330 0.250000
#
# Coordination Sequence:
#
# PCOD9539619 Si02
#       6
#    16   8   8   8  16   4
#     4  11  22  42  65 107 162 217 268 343 422 496
#     4  12  22  37  68 100 152 222 281 333 420 504
#     4  10  21  44  73 113 155 202 267 337 399 493
#     4  11  26  38  61 107 158 205 260 351 419 493
#     4   9  19  40  75 105 155 213 270 320 418 512
#     4  10  24  40  66 114 166 204 284 374 410 468
#
# _framework density 25.489751999999999
#
# number of rings (size 3 to 8) (size 9 to 14) (size 15 to 20)
#    0.800    0.800    2.667    2.400    3.733    2.133 
#    0.000    6.000    0.000    1.600    3.467   11.200 
#    4.000    0.267    0.000    0.000    0.000    0.000 
#
# Total GULP energy -167384.568713 kJ/mol
# GULP energy per Si atom -5579.485624 kJ/mol
# Density = 2.543174 g / cm^3
# Si number density = 25.489752 Si / 1000 Ang^3
#
#
#
# Elastic Constant Matrix: (Units=GPa)
#
#
# Indices 1 2 3 4 5 6 
#
# 1 182.7207 46.1166 59.7848 0.0000 0.0000 0.0000
# 2 46.1166 219.3486 47.5266 0.0000 0.0000 0.0000
# 3 59.7848 47.5266 188.1565 0.0000 0.0000 0.0000
# 4 0.0000 0.0000 0.0000 64.9110 0.0000 0.0000
# 5 0.0000 0.0000 0.0000 0.0000 -1.2173 0.0000
# 6 0.0000 0.0000 0.0000 0.0000 0.0000 82.0630
#
#
#
# Elastic Compliance Matrix: (Units=1/GPa)
#
#
# Indices 1 2 3 4 5 6 
#
# 1 0.006286 -0.000940 -0.001760 0.000000 0.000000 0.000000
# 2 -0.000940 0.004964 -0.000955 0.000000 0.000000 0.000000
# 3 -0.001760 -0.000955 0.006115 0.000000 0.000000 0.000000
# 4 0.000000 0.000000 0.000000 0.015406 0.000000 0.000000
# 5 0.000000 0.000000 0.000000 0.000000 -0.821504 0.000000
# 6 0.000000 0.000000 0.000000 0.000000 0.000000 0.012186
#
#
# Mechanical properties :
#
#
# Convention : Reuss Voigt Hill
#
# Bulk Modulus (GPa) = 99.45802 99.67574 99.56688
# Shear Modulus (GPa) = -6.52838 58.27120 25.87141
#
# Velocity S-wave (km/s) = -1.60210 4.78647 3.18932
# Velocity P-wave (km/s) = 5.97338 8.35082 7.26007
#
# Compressibility (1/GPa) = 0.01005449
#
# Stress axis : x y z
#
# Youngs Moduli (GPa) = 159.08526 201.46830 163.52963
#
# Poissons Ratio (x) = 0.18944 0.28778
# Poissons Ratio (y) = 0.14959 0.15617
# Poissons Ratio (z) = 0.27996 0.19240
#
# Static dielectric constant tensor:
#      x y z
#    x 1.930070 0.000000 0.000000 
#    y 0.000000 1.599450 0.000000 
#    z 0.000000 0.000000 2.014000 
# 
# From -- ./inp_files/35944.got.cif
#   From: 2010.05.17/outbox.cif.g08.bks.cpg/sg74_18_cif.got.tgz:35944.got - 2010.06.03 17:57:02.
