data_PCOD9539804
_publ_section_title
;
Structure prediction by ZEFSAII (Michael W. Deem and Ramdas Pophale) SiO2 
 PCOD9539804
Probable space group: I M M A
;
_chemical_formula_sum "Si O2"
_cell_formula_units_Z 64
_cell_length_a 25.078136
_cell_length_b 8.642794
_cell_length_c 14.635044
_cell_angle_alpha 90.000000
_cell_angle_beta 90.000000
_cell_angle_gamma 90.000000
_cell_volume 3172.075002
_symmetry_space_group_name_H-M "I M M A"
_symmetry_group_IT_number 74
_symmetry_cell_setting 'orthorhombic'
loop_
_space_group_symop_operation_xyz
x,y,z
-x,1/2-y,z
x,-y,-z
-x,1/2+y,-z
-x,-y,-z
x,1/2+y,-z
-x,y,z
x,1/2-y,z
1/2+x,1/2+y,1/2+z
1/2-x,-y,1/2+z
1/2+x,1/2-y,1/2-z
1/2-x,y,1/2-z
1/2-x,1/2-y,1/2-z
1/2+x,y,1/2-z
1/2-x,1/2+y,1/2+z
1/2+x,-y,1/2+z
loop_
_atom_site_type_symbol
_atom_site_label
_atom_site_fract_x
_atom_site_fract_y
_atom_site_fract_z
Si Si1 0.732297 0.564262 0.896287
Si Si2 0.886270 0.435612 0.398741
Si Si3 0.841886 0.065898 0.896927
Si Si4 0.440250 0.562778 0.716939
O O1 0.736426 0.750000 0.895620
O O2 0.673171 0.519838 0.863207
O O3 0.786330 0.496949 0.854166
O O4 0.732284 0.500000 0.000000
O O5 0.894995 0.500000 0.500000
O O6 0.886482 0.250000 0.406087
O O7 0.928553 0.481439 0.322175
O O8 0.839473 0.250000 0.900511
O O9 0.893654 0.009205 0.843293
O O10 0.845255 0.000000 0.000000
O O11 0.500000 0.516839 0.689671
O O12 0.436502 0.750000 0.710964
#
# Coordination Sequence:
#
# PCOD9539804 Si02
#       4
#    16  16  16  16
#     4   9  16  30  53  81 112 142 176 217 267 326
#     4   9  19  35  57  84 113 146 181 222 271 321
#     4  11  22  37  58  83 111 142 179 224 276 329
#     4  10  22  40  58  78 108 147 190 229 267 318
#
# _framework density 20.176068000000001
#
# number of rings (size 3 to 8) (size 9 to 14) (size 15 to 20)
#    0.000    2.250    0.000    4.500    0.000    4.500 
#    0.000    5.000    0.000    0.000    0.000    0.000 
#    0.000    0.000    0.000    0.000    0.000    0.000 
#
# Total GULP energy -178605.894984 kJ/mol
# GULP energy per Si atom -5581.434218 kJ/mol
# Density = 2.013015 g / cm^3
# Si number density = 20.176068 Si / 1000 Ang^3
#
#
#
# Elastic Constant Matrix: (Units=GPa)
#
#
# Indices 1 2 3 4 5 6 
#
# 1 81.1338 27.3149 -4.6655 0.0000 0.0000 0.0000
# 2 27.3149 55.6335 1.8415 0.0000 0.0000 0.0000
# 3 -4.6655 1.8415 36.6240 0.0000 0.0000 0.0000
# 4 0.0000 0.0000 0.0000 21.8020 0.0000 0.0000
# 5 0.0000 0.0000 0.0000 0.0000 29.5805 0.0000
# 6 0.0000 0.0000 0.0000 0.0000 0.0000 -66.0029
#
#
#
# Elastic Compliance Matrix: (Units=1/GPa)
#
#
# Indices 1 2 3 4 5 6 
#
# 1 0.014953 -0.007417 0.002278 0.000000 0.000000 0.000000
# 2 -0.007417 0.021684 -0.002035 0.000000 0.000000 0.000000
# 3 0.002278 -0.002035 0.027697 0.000000 0.000000 0.000000
# 4 0.000000 0.000000 0.000000 0.045867 0.000000 0.000000
# 5 0.000000 0.000000 0.000000 0.000000 0.033806 0.000000
# 6 0.000000 0.000000 0.000000 0.000000 0.000000 -0.015151
#
#
# Mechanical properties :
#
#
# Convention : Reuss Voigt Hill
#
# Bulk Modulus (GPa) = 20.00593 24.70813 22.35703
# Shear Modulus (GPa) = 31.27589 7.00262 19.13926
#
# Velocity S-wave (km/s) = 3.94146 1.86502 3.08330
# Velocity P-wave (km/s) = 5.53631 4.11225 4.87654
#
# Compressibility (1/GPa) = 0.04998517
#
# Stress axis : x y z
#
# Youngs Moduli (GPa) = 66.87431 46.11727 36.10501
#
# Poissons Ratio (x) = 0.34206 -0.08224
# Poissons Ratio (y) = 0.49602 0.07348
# Poissons Ratio (z) = -0.15233 0.09386
#
# Static dielectric constant tensor:
#      x y z
#    x 1.739180 0.000000 0.000000 
#    y 0.000000 1.632350 0.000000 
#    z 0.000000 0.000000 1.709110 
# 
# From -- ./inp_files/28801.got.cif
#   From: 2010.05.17/outbox.cif.g08.bks.cpg/sg74_15_cif.got.tgz:28801.got - 2010.06.03 17:57:02.
