data_PCOD9539818
_publ_section_title
;
Structure prediction by ZEFSAII (Michael W. Deem and Ramdas Pophale) SiO2 
 PCOD9539818
Probable space group: I M M A
;
_chemical_formula_sum "Si O2"
_cell_formula_units_Z 72
_cell_length_a 27.234731
_cell_length_b 7.627096
_cell_length_c 14.388375
_cell_angle_alpha 90.000000
_cell_angle_beta 90.000000
_cell_angle_gamma 90.000000
_cell_volume 2988.780706
_symmetry_space_group_name_H-M "I M M A"
_symmetry_group_IT_number 74
_symmetry_cell_setting 'orthorhombic'
loop_
_space_group_symop_operation_xyz
x,y,z
-x,1/2-y,z
x,-y,-z
-x,1/2+y,-z
-x,-y,-z
x,1/2+y,-z
-x,y,z
x,1/2-y,z
1/2+x,1/2+y,1/2+z
1/2-x,-y,1/2+z
1/2+x,1/2-y,1/2-z
1/2-x,y,1/2-z
1/2-x,1/2-y,1/2-z
1/2+x,y,1/2-z
1/2-x,1/2+y,1/2+z
1/2+x,-y,1/2+z
loop_
_atom_site_type_symbol
_atom_site_label
_atom_site_fract_x
_atom_site_fract_y
_atom_site_fract_z
Si Si1 0.269243 0.000000 0.000000
Si Si2 0.687477 0.961276 0.362792
Si Si3 0.663320 0.545822 0.848157
Si Si4 0.447165 0.537434 0.195106
Si Si5 0.577387 0.540931 0.399898
O O1 0.229059 0.056749 0.077889
O O2 0.309181 0.932798 0.074693
O O3 0.693886 0.750000 0.376368
O O4 0.633922 0.019197 0.398135
O O5 0.684784 0.998030 0.253105
O O6 0.673806 0.750000 0.868005
O O7 0.604491 0.521877 0.847297
O O8 0.500000 0.481446 0.154831
O O9 0.446066 0.750000 0.193420
O O10 0.445661 0.478192 0.303508
O O11 0.555389 0.500000 0.500000
O O12 0.578043 0.750000 0.392164
#
# Coordination Sequence:
#
# PCOD9539818 Si02
#       5
#     8  16  16  16  16
#     4  12  24  40  63  90 123 166 210 252 300 360
#     4  10  22  40  61  86 124 169 206 246 302 363
#     4  11  25  41  62  95 127 156 203 259 305 361
#     4   9  20  41  64  84 115 160 204 251 309 366
#     4   9  17  31  53  84 117 152 195 241 291 356
#
# _framework density 24.090093
#
# number of rings (size 3 to 8) (size 9 to 14) (size 15 to 20)
#    0.000    2.000    1.111    3.333    0.000   11.556 
#    0.000    0.556    0.000    0.000    0.000    0.000 
#    0.000    0.000    0.000    0.000    0.000    0.000 
#
# Total GULP energy -200609.490747 kJ/mol
# GULP energy per Si atom -5572.485854 kJ/mol
# Density = 2.403526 g / cm^3
# Si number density = 24.090093 Si / 1000 Ang^3
#
#
#
# Elastic Constant Matrix: (Units=GPa)
#
#
# Indices 1 2 3 4 5 6 
#
# 1 217.5698 32.4967 61.6941 0.0000 0.0000 0.0000
# 2 32.4967 105.2401 9.9221 0.0000 0.0000 0.0000
# 3 61.6941 9.9221 118.6955 0.0000 0.0000 0.0000
# 4 0.0000 0.0000 0.0000 -44.3986 0.0000 0.0000
# 5 0.0000 0.0000 0.0000 0.0000 -20.9205 0.0000
# 6 0.0000 0.0000 0.0000 0.0000 0.0000 37.7780
#
#
#
# Elastic Compliance Matrix: (Units=1/GPa)
#
#
# Indices 1 2 3 4 5 6 
#
# 1 0.005607 -0.001468 -0.002792 0.000000 0.000000 0.000000
# 2 -0.001468 0.009962 -0.000070 0.000000 0.000000 0.000000
# 3 -0.002792 -0.000070 0.009882 0.000000 0.000000 0.000000
# 4 0.000000 0.000000 0.000000 -0.022523 0.000000 0.000000
# 5 0.000000 0.000000 0.000000 0.000000 -0.047800 0.000000
# 6 0.000000 0.000000 0.000000 0.000000 0.000000 0.026470
#
#
# Mechanical properties :
#
#
# Convention : Reuss Voigt Hill
#
# Bulk Modulus (GPa) = 59.55256 72.19233 65.87245
# Shear Modulus (GPa) = -1206.06753 16.98463 -594.54145
#
# Velocity S-wave (km/s) = -22.39946 2.65815 -15.72689
# Velocity P-wave (km/s) = 25.38122 6.28122 17.38897
#
# Compressibility (1/GPa) = 0.01679189
#
# Stress axis : x y z
#
# Youngs Moduli (GPa) = 178.34444 100.38141 101.19656
#
# Poissons Ratio (x) = 0.14738 0.28251
# Poissons Ratio (y) = 0.26185 0.00705
# Poissons Ratio (z) = 0.49788 0.00699
#
# Static dielectric constant tensor:
#      x y z
#    x 1.906760 0.000000 0.000000 
#    y 0.000000 2.069840 0.000000 
#    z 0.000000 0.000000 1.895750 
# 
# From -- ./inp_files/37071.got.cif
#   From: 2010.05.17/outbox.cif.g08.bks.cpg/sg74_19_cif.got.tgz:37071.got - 2010.06.03 17:57:02.
