data_PCOD9539114
_publ_section_title
;
Structure prediction by ZEFSAII (Michael W. Deem and Ramdas Pophale) SiO2 
 PCOD9539114
Probable space group: I M M A
;
_chemical_formula_sum "Si O2"
_cell_formula_units_Z 80
_cell_length_a 14.234290
_cell_length_b 9.445927
_cell_length_c 30.254043
_cell_angle_alpha 90.000000
_cell_angle_beta 90.000000
_cell_angle_gamma 90.000000
_cell_volume 4067.839549
_symmetry_space_group_name_H-M "I M M A"
_symmetry_group_IT_number 74
_symmetry_cell_setting 'orthorhombic'
loop_
_space_group_symop_operation_xyz
x,y,z
-x,1/2-y,z
x,-y,-z
-x,1/2+y,-z
-x,-y,-z
x,1/2+y,-z
-x,y,z
x,1/2-y,z
1/2+x,1/2+y,1/2+z
1/2-x,-y,1/2+z
1/2+x,1/2-y,1/2-z
1/2-x,y,1/2-z
1/2-x,1/2-y,1/2-z
1/2+x,y,1/2-z
1/2-x,1/2+y,1/2+z
1/2+x,-y,1/2+z
loop_
_atom_site_type_symbol
_atom_site_label
_atom_site_fract_x
_atom_site_fract_y
_atom_site_fract_z
Si Si1 0.885517 0.587646 0.543446
Si Si2 0.890271 0.413589 0.127862
Si Si3 0.885406 0.409984 0.957690
Si Si4 0.731523 0.416612 0.199208
Si Si5 0.886856 0.586234 0.368958
O O1 0.858011 0.500000 0.500000
O O2 0.851670 0.750000 0.543206
O O3 0.858827 0.504932 0.587970
O O4 0.000000 0.592813 0.543043
O O5 0.881544 0.250000 0.113046
O O6 0.860509 0.514147 0.087928
O O7 0.826366 0.432391 0.170615
O O8 0.000000 0.439097 0.137744
O O9 0.850605 0.250000 0.959818
O O10 0.000000 0.406412 0.958629
O O11 0.855890 0.500000 0.000000
O O12 0.703916 0.250000 0.197413
O O13 0.750000 0.454060 0.250000
O O14 0.656111 0.512672 0.174171
O O15 0.857171 0.750000 0.373136
O O16 0.000000 0.583844 0.366812
#
# Coordination Sequence:
#
# PCOD9539114 Si02
#       5
#    16  16  16  16  16
#     4   9  16  28  50  80 113 148 184 223 269 323
#     4   9  18  34  55  79 109 143 178 219 268 322
#     4   9  16  27  47  76 108 142 178 215 259 313
#     4  10  22  39  59  83 109 140 182 232 283 332
#     4  10  21  37  57  82 113 149 187 227 274 328
#
# _framework density 19.666460000000001
#
# number of rings (size 3 to 8) (size 9 to 14) (size 15 to 20)
#    0.000    2.600    0.000    1.800    0.000    8.000 
#    0.000    3.000    0.000    7.200    0.000    0.000 
#    0.000    0.000    0.000    0.000    0.000    0.000 
#
# Total GULP energy -223514.692239 kJ/mol
# GULP energy per Si atom -5587.867306 kJ/mol
# Density = 1.962170 g / cm^3
# Si number density = 19.666460 Si / 1000 Ang^3
#
#
#
# Elastic Constant Matrix: (Units=GPa)
#
#
# Indices 1 2 3 4 5 6 
#
# 1 57.6630 41.5367 24.3225 0.0000 0.0000 0.0000
# 2 41.5367 166.2548 118.4816 0.0000 0.0000 0.0000
# 3 24.3225 118.4816 178.6458 0.0000 0.0000 0.0000
# 4 0.0000 0.0000 0.0000 33.5541 0.0000 0.0000
# 5 0.0000 0.0000 0.0000 0.0000 32.5992 0.0000
# 6 0.0000 0.0000 0.0000 0.0000 0.0000 14.8544
#
#
#
# Elastic Compliance Matrix: (Units=1/GPa)
#
#
# Indices 1 2 3 4 5 6 
#
# 1 0.021281 -0.006167 0.001192 0.000000 0.000000 0.000000
# 2 -0.006167 0.013193 -0.007910 0.000000 0.000000 0.000000
# 3 0.001192 -0.007910 0.010681 0.000000 0.000000 0.000000
# 4 0.000000 0.000000 0.000000 0.029803 0.000000 0.000000
# 5 0.000000 0.000000 0.000000 0.000000 0.030676 0.000000
# 6 0.000000 0.000000 0.000000 0.000000 0.000000 0.067320
#
#
# Mechanical properties :
#
#
# Convention : Reuss Voigt Hill
#
# Bulk Modulus (GPa) = 51.58159 85.69390 68.63775
# Shear Modulus (GPa) = 24.36834 30.74973 27.55904
#
# Velocity S-wave (km/s) = 3.52388 3.95848 3.74748
# Velocity P-wave (km/s) = 6.54539 8.03498 7.32813
#
# Compressibility (1/GPa) = 0.01938676
#
# Stress axis : x y z
#
# Youngs Moduli (GPa) = 46.98980 75.80000 93.62050
#
# Poissons Ratio (x) = 0.46743 -0.11163
# Poissons Ratio (y) = 0.28977 0.74054
# Poissons Ratio (z) = -0.05603 0.59958
#
# Static dielectric constant tensor:
#      x y z
#    x 1.731850 0.000000 0.000000 
#    y 0.000000 1.675840 0.000000 
#    z 0.000000 0.000000 1.631950 
# 
# From -- ./inp_files/67518.got.cif
#   From: 2010.05.17/outbox.cif.g08.bks.cpg/sg74_34_cif.got.tgz:67518.got - 2010.06.03 17:57:02.
