data_PCOD9539478
_publ_section_title
;
Structure prediction by ZEFSAII (Michael W. Deem and Ramdas Pophale) SiO2 
 PCOD9539478
Probable space group: I M M A
;
_chemical_formula_sum "Si O2"
_cell_formula_units_Z 104
_cell_length_a 27.603487
_cell_length_b 8.926168
_cell_length_c 22.078122
_cell_angle_alpha 90.000000
_cell_angle_beta 90.000000
_cell_angle_gamma 90.000000
_cell_volume 5439.902714
_symmetry_space_group_name_H-M "I M M A"
_symmetry_group_IT_number 74
_symmetry_cell_setting 'orthorhombic'
loop_
_space_group_symop_operation_xyz
x,y,z
-x,1/2-y,z
x,-y,-z
-x,1/2+y,-z
-x,-y,-z
x,1/2+y,-z
-x,y,z
x,1/2-y,z
1/2+x,1/2+y,1/2+z
1/2-x,-y,1/2+z
1/2+x,1/2-y,1/2-z
1/2-x,y,1/2-z
1/2-x,1/2-y,1/2-z
1/2+x,y,1/2-z
1/2-x,1/2+y,1/2+z
1/2+x,-y,1/2+z
loop_
_atom_site_type_symbol
_atom_site_label
_atom_site_fract_x
_atom_site_fract_y
_atom_site_fract_z
Si Si1 0.557144 0.250000 0.708047
Si Si2 0.853082 0.419938 0.354792
Si Si3 0.594342 0.417979 0.271665
Si Si4 0.058246 0.250000 0.931647
Si Si5 0.382342 0.500000 0.500000
Si Si6 0.169621 0.085425 0.120737
Si Si7 0.945567 0.931458 0.566996
Si Si8 0.243633 0.926765 0.319439
O O1 0.500000 0.250000 0.707654
O O2 0.570855 0.415518 0.733824
O O3 0.574173 0.250000 0.638236
O O4 0.844132 0.250000 0.376112
O O5 0.869749 0.413633 0.285100
O O6 0.899709 0.479160 0.392273
O O7 0.803171 0.508639 0.353613
O O8 0.568704 0.250000 0.269757
O O9 0.623701 0.420815 0.334361
O O10 0.000000 0.250000 0.934664
O O11 0.082125 0.111839 0.965596
O O12 0.348698 0.432584 0.447464
O O13 0.192284 0.250000 0.128759
O O14 0.208371 0.965818 0.143126
O O15 0.944509 0.750000 0.564077
O O16 0.000000 0.972379 0.590250
O O17 0.941121 0.000000 0.500000
O O18 0.237175 0.750000 0.314614
O O19 0.250000 0.985969 0.250000
#
# Coordination Sequence:
#
# PCOD9539478 Si02
#       8
#     8  16  16   8   8  16  16  16
#     4  11  24  40  62  92 130 167 210 274 322 371
#     4  10  21  39  64  91 126 164 204 257 307 372
#     4  10  22  39  63  92 126 168 207 258 323 384
#     4  11  24  42  64  89 122 164 217 270 319 377
#     4  12  23  42  64  90 122 166 213 264 322 376
#     4  11  23  39  62  88 120 164 210 259 316 385
#     4   9  19  38  64  91 121 161 203 246 306 372
#     4  11  24  38  62  93 121 159 203 253 311 377
#
# _framework density 19.117989000000001
#
# number of rings (size 3 to 8) (size 9 to 14) (size 15 to 20)
#    0.000    1.538    3.846    0.692    3.231    2.154 
#    1.385    1.538    0.000    0.000    0.000    0.000 
#    0.000    0.000    0.000    0.000    0.000    0.000 
#
# Total GULP energy -289645.454938 kJ/mol
# GULP energy per Si atom -5570.104903 kJ/mol
# Density = 1.907448 g / cm^3
# Si number density = 19.117989 Si / 1000 Ang^3
#
#
#
# Elastic Constant Matrix: (Units=GPa)
#
#
# Indices 1 2 3 4 5 6 
#
# 1 61.8409 25.9346 4.9376 0.0000 0.0000 0.0000
# 2 25.9346 88.5854 -8.3437 0.0000 0.0000 0.0000
# 3 4.9376 -8.3437 36.7533 0.0000 0.0000 0.0000
# 4 0.0000 0.0000 0.0000 12.3670 0.0000 0.0000
# 5 0.0000 0.0000 0.0000 0.0000 23.0957 0.0000
# 6 0.0000 0.0000 0.0000 0.0000 0.0000 25.0344
#
#
#
# Elastic Compliance Matrix: (Units=1/GPa)
#
#
# Indices 1 2 3 4 5 6 
#
# 1 0.018963 -0.005918 -0.003891 0.000000 0.000000 0.000000
# 2 -0.005918 0.013382 0.003833 0.000000 0.000000 0.000000
# 3 -0.003891 0.003833 0.028601 0.000000 0.000000 0.000000
# 4 0.000000 0.000000 0.000000 0.080860 0.000000 0.000000
# 5 0.000000 0.000000 0.000000 0.000000 0.043298 0.000000
# 6 0.000000 0.000000 0.000000 0.000000 0.000000 0.039945
#
#
# Mechanical properties :
#
#
# Convention : Reuss Voigt Hill
#
# Bulk Modulus (GPa) = 20.41057 25.80407 23.10732
# Shear Modulus (GPa) = 19.73677 23.07615 21.40646
#
# Velocity S-wave (km/s) = 3.21653 3.47802 3.34983
# Velocity P-wave (km/s) = 4.94915 5.44567 5.20334
#
# Compressibility (1/GPa) = 0.04899421
#
# Stress axis : x y z
#
# Youngs Moduli (GPa) = 52.73378 74.72597 34.96332
#
# Poissons Ratio (x) = 0.44225 0.13605
# Poissons Ratio (y) = 0.31209 -0.13402
# Poissons Ratio (z) = 0.20520 -0.28643
#
# Static dielectric constant tensor:
#      x y z
#    x 1.649500 0.000000 0.000000 
#    y 0.000000 1.669180 0.000000 
#    z 0.000000 0.000000 1.654430 
# 
# From -- ./inp_files/55328.got.cif
#   From: 2010.05.17/outbox.cif.g08.bks.cpg/sg74_28_cif.got.tgz:55328.got - 2010.06.03 17:57:02.
