data_PCOD9539031
_publ_section_title
;
Structure prediction by ZEFSAII (Michael W. Deem and Ramdas Pophale) SiO2 
 PCOD9539031
Probable space group: I M M A
;
_chemical_formula_sum "Si O2"
_cell_formula_units_Z 96
_cell_length_a 14.937985
_cell_length_b 21.222377
_cell_length_c 15.948383
_cell_angle_alpha 90.000000
_cell_angle_beta 90.000000
_cell_angle_gamma 90.000000
_cell_volume 5055.949191
_symmetry_space_group_name_H-M "I M M A"
_symmetry_group_IT_number 74
_symmetry_cell_setting 'orthorhombic'
loop_
_space_group_symop_operation_xyz
x,y,z
-x,1/2-y,z
x,-y,-z
-x,1/2+y,-z
-x,-y,-z
x,1/2+y,-z
-x,y,z
x,1/2-y,z
1/2+x,1/2+y,1/2+z
1/2-x,-y,1/2+z
1/2+x,1/2-y,1/2-z
1/2-x,y,1/2-z
1/2-x,1/2-y,1/2-z
1/2+x,y,1/2-z
1/2-x,1/2+y,1/2+z
1/2+x,-y,1/2+z
loop_
_atom_site_type_symbol
_atom_site_label
_atom_site_fract_x
_atom_site_fract_y
_atom_site_fract_z
Si Si1 0.607526 0.626501 0.986484
Si Si2 0.607134 0.250000 0.717685
Si Si3 0.391710 0.750000 0.090990
Si Si4 0.900754 0.963298 0.362132
Si Si5 0.601629 0.506106 0.599684
Si Si6 0.228877 0.579221 0.658747
Si Si7 0.151849 0.887691 0.211593
O O1 0.500000 0.629192 0.969413
O O2 0.669072 0.619518 0.905082
O O3 0.633334 0.687992 0.039631
O O4 0.623395 0.567230 0.048655
O O5 0.500000 0.250000 0.719026
O O6 0.642563 0.250000 0.813922
O O7 0.635690 0.316972 0.680257
O O8 0.500000 0.750000 0.096529
O O9 0.904940 0.907404 0.293742
O O10 0.000000 0.991687 0.369211
O O11 0.830547 0.015198 0.331823
O O12 0.600331 0.500000 0.500000
O O13 0.500000 0.520447 0.629013
O O14 0.675758 0.557687 0.622356
O O15 0.631323 0.440382 0.642564
O O16 0.250000 0.606795 0.750000
O O17 0.250000 0.891773 0.250000
#
# Coordination Sequence:
#
# PCOD9539031 Si02
#       7
#    16   8   8  16  16  16  16
#     4  10  21  36  60  90 118 148 184 237 303 364
#     4  11  21  35  59  86 121 157 191 234 290 361
#     4   9  18  35  58  88 118 149 181 229 307 372
#     4  11  19  34  59  85 119 148 182 237 299 356
#     4  11  23  38  56  75 110 160 202 238 277 331
#     4  12  23  36  54  83 115 149 195 237 292 339
#     4  12  22  37  55  89 120 157 195 237 293 348
#
# _framework density 18.987532999999999
#
# number of rings (size 3 to 8) (size 9 to 14) (size 15 to 20)
#    0.000    1.000    5.000    3.750    0.000    2.000 
#    0.000    0.417    0.000    0.000    0.000    0.583 
#    0.000    0.000    0.000    0.000    0.000    0.000 
#
# Total GULP energy -268134.274482 kJ/mol
# GULP energy per Si atom -5586.130718 kJ/mol
# Density = 1.894432 g / cm^3
# Si number density = 18.987533 Si / 1000 Ang^3
#
#
#
# Elastic Constant Matrix: (Units=GPa)
#
#
# Indices 1 2 3 4 5 6 
#
# 1 94.9327 9.9681 20.0935 0.0001 0.0000 0.0000
# 2 9.9681 53.5763 15.7984 0.0002 0.0000 0.0000
# 3 20.0935 15.7984 93.9489 0.0002 -0.0001 0.0000
# 4 0.0001 0.0002 0.0002 26.3277 -0.0001 0.0000
# 5 0.0000 0.0000 -0.0001 -0.0001 54.8711 0.0000
# 6 0.0000 0.0000 0.0000 0.0000 0.0000 16.2077
#
#
#
# Elastic Compliance Matrix: (Units=1/GPa)
#
#
# Indices 1 2 3 4 5 6 
#
# 1 0.011138 -0.001441 -0.002140 0.000000 0.000000 0.000000
# 2 -0.001441 0.019825 -0.003026 0.000000 0.000000 0.000000
# 3 -0.002140 -0.003026 0.011611 0.000000 0.000000 0.000000
# 4 0.000000 0.000000 0.000000 0.037983 0.000000 0.000000
# 5 0.000000 0.000000 0.000000 0.000000 0.018225 0.000000
# 6 0.000000 0.000000 0.000000 0.000000 0.000000 0.061699
#
#
# Mechanical properties :
#
#
# Convention : Reuss Voigt Hill
#
# Bulk Modulus (GPa) = 34.05932 37.13087 35.59509
# Shear Modulus (GPa) = 27.25088 32.58783 29.91935
#
# Velocity S-wave (km/s) = 3.79251 4.14729 3.97386
# Velocity P-wave (km/s) = 6.09542 6.52159 6.31211
#
# Compressibility (1/GPa) = 0.02936054
#
# Stress axis : x y z
#
# Youngs Moduli (GPa) = 89.78244 50.44064 86.12881
#
# Poissons Ratio (x) = 0.07270 0.18430
# Poissons Ratio (y) = 0.12940 0.26059
# Poissons Ratio (z) = 0.19212 0.15261
#
# Static dielectric constant tensor:
#      x y z
#    x 1.767960 0.000000 0.000000 
#    y 0.000000 1.665580 0.000000 
#    z 0.000000 0.000000 1.668920 
# 
# From -- ./inp_files/32420.got.cif
#   From: 2010.05.17/outbox.cif.g08.bks.cpg/sg74_17_cif.got.tgz:32420.got - 2010.06.03 17:57:02.
