data_PCOD9539467
_publ_section_title
;
Structure prediction by ZEFSAII (Michael W. Deem and Ramdas Pophale) SiO2 
 PCOD9539467
Probable space group: I M M A
;
_chemical_formula_sum "Si O2"
_cell_formula_units_Z 64
_cell_length_a 10.199368
_cell_length_b 14.405241
_cell_length_c 21.209102
_cell_angle_alpha 90.000000
_cell_angle_beta 90.000000
_cell_angle_gamma 90.000000
_cell_volume 3116.133612
_symmetry_space_group_name_H-M "I M M A"
_symmetry_group_IT_number 74
_symmetry_cell_setting 'orthorhombic'
loop_
_space_group_symop_operation_xyz
x,y,z
-x,1/2-y,z
x,-y,-z
-x,1/2+y,-z
-x,-y,-z
x,1/2+y,-z
-x,y,z
x,1/2-y,z
1/2+x,1/2+y,1/2+z
1/2-x,-y,1/2+z
1/2+x,1/2-y,1/2-z
1/2-x,y,1/2-z
1/2-x,1/2-y,1/2-z
1/2+x,y,1/2-z
1/2-x,1/2+y,1/2+z
1/2+x,-y,1/2+z
loop_
_atom_site_type_symbol
_atom_site_label
_atom_site_fract_x
_atom_site_fract_y
_atom_site_fract_z
Si Si1 0.000000 0.638151 0.371609
Si Si2 0.214399 0.857846 0.472790
Si Si3 0.285279 0.140111 0.114301
Si Si4 0.500000 0.541199 0.801204
Si Si5 0.000000 0.423282 0.153481
Si Si6 0.000000 0.422503 0.945381
O O1 0.876254 0.611338 0.415476
O O2 0.000000 0.750000 0.358831
O O3 0.000000 0.569710 0.312286
O O4 0.181056 0.750000 0.480042
O O5 0.191781 0.897476 0.542912
O O6 0.366049 0.867783 0.455105
O O7 0.316253 0.250000 0.117271
O O8 0.374615 0.085575 0.163626
O O9 0.132074 0.126504 0.129841
O O10 0.500000 0.567982 0.728380
O O11 0.000000 0.524062 0.120639
O O12 0.000000 0.500000 0.000000
#
# Coordination Sequence:
#
# PCOD9539467 Si02
#       6
#     8  16  16   8   8   8
#     4  10  23  42  65  89 121 158 203 261 308 349
#     4  10  21  39  63  93 119 152 203 255 309 358
#     4  11  23  40  62  91 126 161 198 246 300 361
#     4  12  26  40  60  88 124 165 208 242 290 370
#     4  12  25  39  58  89 123 165 207 239 291 366
#     4  12  21  37  63  88 117 158 196 254 304 346
#
# _framework density 20.538271999999999
#
# number of rings (size 3 to 8) (size 9 to 14) (size 15 to 20)
#    0.000    1.000    2.500    4.125    0.000    8.000 
#    0.000    1.250    0.000    6.000    0.000    0.000 
#    0.000    0.000    0.000    0.000    0.000    0.000 
#
# Total GULP energy -178902.236374 kJ/mol
# GULP energy per Si atom -5590.694887 kJ/mol
# Density = 2.049153 g / cm^3
# Si number density = 20.538272 Si / 1000 Ang^3
#
#
#
# Elastic Constant Matrix: (Units=GPa)
#
#
# Indices 1 2 3 4 5 6 
#
# 1 65.0130 -10.2624 -16.9491 0.0000 0.0000 0.0000
# 2 -10.2624 72.3910 8.0939 0.0000 0.0000 0.0000
# 3 -16.9491 8.0939 53.5488 0.0000 0.0000 0.0000
# 4 0.0000 0.0000 0.0000 22.0555 0.0000 0.0000
# 5 0.0000 0.0000 0.0000 0.0000 48.0203 0.0000
# 6 0.0000 0.0000 0.0000 0.0000 0.0000 42.1955
#
#
#
# Elastic Compliance Matrix: (Units=1/GPa)
#
#
# Indices 1 2 3 4 5 6 
#
# 1 0.017002 0.001840 0.005104 0.000000 0.000000 0.000000
# 2 0.001840 0.014250 -0.001572 0.000000 0.000000 0.000000
# 3 0.005104 -0.001572 0.020527 0.000000 0.000000 0.000000
# 4 0.000000 0.000000 0.000000 0.045340 0.000000 0.000000
# 5 0.000000 0.000000 0.000000 0.000000 0.020825 0.000000
# 6 0.000000 0.000000 0.000000 0.000000 0.000000 0.023699
#
#
# Mechanical properties :
#
#
# Convention : Reuss Voigt Hill
#
# Bulk Modulus (GPa) = 15.99398 16.96859 16.48129
# Shear Modulus (GPa) = 32.95061 36.45895 34.70478
#
# Velocity S-wave (km/s) = 4.00978 4.21785 4.11513
# Velocity P-wave (km/s) = 5.40760 5.65687 5.53364
#
# Compressibility (1/GPa) = 0.06252351
#
# Stress axis : x y z
#
# Youngs Moduli (GPa) = 58.81504 70.17344 48.71527
#
# Poissons Ratio (x) = -0.12910 -0.24862
# Poissons Ratio (y) = -0.10820 0.07656
# Poissons Ratio (z) = -0.30016 0.11029
#
# Static dielectric constant tensor:
#      x y z
#    x 1.731820 0.000000 0.000000 
#    y 0.000000 1.758920 0.000000 
#    z 0.000000 0.000000 1.714730 
# 
# From -- ./inp_files/56491.got.cif
#   From: 2010.05.17/outbox.cif.g08.bks.cpg/sg74_29_cif.got.tgz:56491.got - 2010.06.03 17:57:02.
