data_PCOD9539599
_publ_section_title
;
Structure prediction by ZEFSAII (Michael W. Deem and Ramdas Pophale) SiO2 
 PCOD9539599
Probable space group: I M M A
;
_chemical_formula_sum "Si O2"
_cell_formula_units_Z 64
_cell_length_a 22.920679
_cell_length_b 21.990949
_cell_length_c 5.195260
_cell_angle_alpha 90.000000
_cell_angle_beta 90.000000
_cell_angle_gamma 90.000000
_cell_volume 2618.657726
_symmetry_space_group_name_H-M "I M M A"
_symmetry_group_IT_number 74
_symmetry_cell_setting 'orthorhombic'
loop_
_space_group_symop_operation_xyz
x,y,z
-x,1/2-y,z
x,-y,-z
-x,1/2+y,-z
-x,-y,-z
x,1/2+y,-z
-x,y,z
x,1/2-y,z
1/2+x,1/2+y,1/2+z
1/2-x,-y,1/2+z
1/2+x,1/2-y,1/2-z
1/2-x,y,1/2-z
1/2-x,1/2-y,1/2-z
1/2+x,y,1/2-z
1/2-x,1/2+y,1/2+z
1/2+x,-y,1/2+z
loop_
_atom_site_type_symbol
_atom_site_label
_atom_site_fract_x
_atom_site_fract_y
_atom_site_fract_z
Si Si1 0.500000 0.943961 0.195704
Si Si2 0.500000 0.184005 0.088588
Si Si3 0.130760 0.941073 0.146092
Si Si4 0.873232 0.316117 0.159435
Si Si5 0.789554 0.881018 0.503623
O O1 0.438501 0.948623 0.335128
O O2 0.500000 0.876445 0.077772
O O3 0.500000 0.000000 0.000000
O O4 0.500000 0.250000 0.948761
O O5 0.440458 0.182142 0.251256
O O6 0.137506 0.875794 0.008614
O O7 0.163373 0.931531 0.416630
O O8 0.154711 0.000000 0.000000
O O9 0.862472 0.250000 0.037920
O O10 0.829220 0.324975 0.399572
O O11 0.750000 0.870358 0.250000
O O12 0.750000 0.897911 0.750000
#
# Coordination Sequence:
#
# PCOD9539599 Si02
#       5
#     8   8  16  16  16
#     4  12  24  43  80 115 157 197 256 319 409 474
#     4  10  21  41  73 112 154 200 251 321 400 471
#     4  12  27  49  79 114 158 202 264 328 400 468
#     4  11  25  49  78 112 156 206 261 328 397 472
#     4  12  27  53  77 112 155 216 268 324 383 461
#
# _framework density 24.440003000000001
#
# number of rings (size 3 to 8) (size 9 to 14) (size 15 to 20)
#    0.000    0.500    5.000    2.625    0.000    3.000 
#    4.500    0.000    0.000    0.000    0.000    0.000 
#    0.000    0.000    0.000    0.000    0.000    0.000 
#
# Total GULP energy -178964.011207 kJ/mol
# GULP energy per Si atom -5592.625350 kJ/mol
# Density = 2.438438 g / cm^3
# Si number density = 24.440003 Si / 1000 Ang^3
#
#
#
# Elastic Constant Matrix: (Units=GPa)
#
#
# Indices 1 2 3 4 5 6 
#
# 1 169.4255 29.8685 53.4735 0.0000 0.0000 0.0000
# 2 29.8685 228.3454 71.6234 0.0000 0.0000 0.0000
# 3 53.4735 71.6234 110.0944 0.0000 0.0000 0.0000
# 4 0.0000 0.0000 0.0000 46.3747 0.0000 0.0000
# 5 0.0000 0.0000 0.0000 0.0000 68.4587 0.0000
# 6 0.0000 0.0000 0.0000 0.0000 0.0000 -51.3841
#
#
#
# Elastic Compliance Matrix: (Units=1/GPa)
#
#
# Indices 1 2 3 4 5 6 
#
# 1 0.006977 0.000189 -0.003512 0.000000 0.000000 0.000000
# 2 0.000189 0.005507 -0.003674 0.000000 0.000000 0.000000
# 3 -0.003512 -0.003674 0.013179 0.000000 0.000000 0.000000
# 4 0.000000 0.000000 0.000000 0.021563 0.000000 0.000000
# 5 0.000000 0.000000 0.000000 0.000000 0.014607 0.000000
# 6 0.000000 0.000000 0.000000 0.000000 0.000000 -0.019461
#
#
# Mechanical properties :
#
#
# Convention : Reuss Voigt Hill
#
# Bulk Modulus (GPa) = 85.69742 90.86624 88.28183
# Shear Modulus (GPa) = 82.97650 36.21653 59.59651
#
# Velocity S-wave (km/s) = 5.83308 3.85366 4.94346
# Velocity P-wave (km/s) = 8.97257 7.55387 8.29361
#
# Compressibility (1/GPa) = 0.01166896
#
# Stress axis : x y z
#
# Youngs Moduli (GPa) = 143.31989 181.58122 75.87646
#
# Poissons Ratio (x) = -0.03429 0.26646
# Poissons Ratio (y) = -0.02707 0.27881
# Poissons Ratio (z) = 0.50331 0.66722
#
# Static dielectric constant tensor:
#      x y z
#    x 1.758800 0.000000 0.000000 
#    y 0.000000 1.913910 0.000000 
#    z 0.000000 0.000000 2.028410 
# 
# From -- ./inp_files/3663.got.cif
#   From: 2010.05.17/outbox.cif.g08.bks.cpg/sg74_2_cif.got.tgz:3663.got - 2010.06.03 17:57:02.
