data_PCOD9539763
_publ_section_title
;
Structure prediction by ZEFSAII (Michael W. Deem and Ramdas Pophale) SiO2 
 PCOD9539763
Probable space group: I M M A
;
_chemical_formula_sum "Si O2"
_cell_formula_units_Z 64
_cell_length_a 10.284187
_cell_length_b 14.197815
_cell_length_c 27.373490
_cell_angle_alpha 90.000000
_cell_angle_beta 90.000000
_cell_angle_gamma 90.000000
_cell_volume 3996.884970
_symmetry_space_group_name_H-M "I M M A"
_symmetry_group_IT_number 74
_symmetry_cell_setting 'orthorhombic'
loop_
_space_group_symop_operation_xyz
x,y,z
-x,1/2-y,z
x,-y,-z
-x,1/2+y,-z
-x,-y,-z
x,1/2+y,-z
-x,y,z
x,1/2-y,z
1/2+x,1/2+y,1/2+z
1/2-x,-y,1/2+z
1/2+x,1/2-y,1/2-z
1/2-x,y,1/2-z
1/2-x,1/2-y,1/2-z
1/2+x,y,1/2-z
1/2-x,1/2+y,1/2+z
1/2+x,-y,1/2+z
loop_
_atom_site_type_symbol
_atom_site_label
_atom_site_fract_x
_atom_site_fract_y
_atom_site_fract_z
Si Si1 0.500000 0.250000 0.976213
Si Si2 0.000000 0.250000 0.973245
Si Si3 0.747353 0.750000 0.543728
Si Si4 0.654942 0.862278 0.796277
Si Si5 0.500000 0.541146 0.054884
Si Si6 0.000000 0.537655 0.057136
Si Si7 0.753554 0.056217 0.397269
O O1 0.500000 0.346359 0.946365
O O2 0.375214 0.250000 0.010896
O O3 0.000000 0.348864 0.944670
O O4 0.125118 0.250000 0.008007
O O5 0.746324 0.842730 0.576407
O O6 0.500000 0.883885 0.788438
O O7 0.659978 0.750000 0.808064
O O8 0.750000 0.876673 0.750000
O O9 0.714695 0.921579 0.840986
O O10 0.373704 0.501302 0.081092
O O11 0.500000 0.500000 0.000000
O O12 0.124501 0.498427 0.086163
O O13 0.000000 0.500000 0.000000
#
# Coordination Sequence:
#
# PCOD9539763 Si02
#       7
#     4   4   8  16   8   8  16
#     4  12  24  32  56  82 114 154 196 240 280 324
#     4  12  24  40  52  78 122 160 202 242 270 328
#     4  12  20  34  57  80 119 158 190 235 278 339
#     4  10  22  39  60  88 119 150 190 240 292 351
#     4  12  22  36  55  83 115 153 197 237 282 341
#     4  12  24  38  55  83 117 161 201 233 280 341
#     4  12  22  37  58  85 117 159 194 229 288 352
#
# _framework density 16.012468999999999
#
# number of rings (size 3 to 8) (size 9 to 14) (size 15 to 20)
#    0.000    0.500    7.500    2.250    1.750    0.000 
#    0.000    0.000    0.000    0.000    0.000    5.250 
#    0.000    0.000    0.000    0.000    0.000    0.000 
#
# Total GULP energy -178698.112787 kJ/mol
# GULP energy per Si atom -5584.316025 kJ/mol
# Density = 1.597602 g / cm^3
# Si number density = 16.012469 Si / 1000 Ang^3
#
#
#
# Elastic Constant Matrix: (Units=GPa)
#
#
# Indices 1 2 3 4 5 6 
#
# 1 181.8130 60.6896 82.1699 0.0000 0.0000 0.0000
# 2 60.6896 149.3433 58.9360 0.0000 0.0000 0.0000
# 3 82.1699 58.9360 124.5354 0.0000 0.0000 0.0000
# 4 0.0000 0.0000 0.0000 29.1996 0.0000 0.0000
# 5 0.0000 0.0000 0.0000 0.0000 31.5811 0.0000
# 6 0.0000 0.0000 0.0000 0.0000 0.0000 37.5326
#
#
#
# Elastic Compliance Matrix: (Units=1/GPa)
#
#
# Indices 1 2 3 4 5 6 
#
# 1 0.008085 -0.001451 -0.004648 0.000000 0.000000 0.000000
# 2 -0.001451 0.008494 -0.003062 0.000000 0.000000 0.000000
# 3 -0.004648 -0.003062 0.012546 0.000000 0.000000 0.000000
# 4 0.000000 0.000000 0.000000 0.034247 0.000000 0.000000
# 5 0.000000 0.000000 0.000000 0.000000 0.031665 0.000000
# 6 0.000000 0.000000 0.000000 0.000000 0.000000 0.026643
#
#
# Mechanical properties :
#
#
# Convention : Reuss Voigt Hill
#
# Bulk Modulus (GPa) = 92.57337 95.47584 94.02461
# Shear Modulus (GPa) = 34.81796 36.58906 35.70351
#
# Velocity S-wave (km/s) = 4.66813 4.78539 4.72713
# Velocity P-wave (km/s) = 9.32706 9.50203 9.41496
#
# Compressibility (1/GPa) = 0.01080224
#
# Stress axis : x y z
#
# Youngs Moduli (GPa) = 123.68234 117.72638 79.70849
#
# Poissons Ratio (x) = 0.17087 0.37047
# Poissons Ratio (y) = 0.17952 0.24408
# Poissons Ratio (z) = 0.57485 0.36050
#
# Static dielectric constant tensor:
#      x y z
#    x 1.543230 0.000000 0.000000 
#    y 0.000000 1.524420 0.000000 
#    z 0.000000 0.000000 1.518940 
# 
# From -- ./inp_files/63589.got.cif
#   From: 2010.05.17/outbox.cif.g08.bks.cpg/sg74_32_cif.got.tgz:63589.got - 2010.06.03 17:57:02.
