data_PCOD9539204
_publ_section_title
;
Structure prediction by ZEFSAII (Michael W. Deem and Ramdas Pophale) SiO2 
 PCOD9539204
Probable space group: I M M A
;
_chemical_formula_sum "Si O2"
_cell_formula_units_Z 64
_cell_length_a 26.684594
_cell_length_b 10.019599
_cell_length_c 12.280241
_cell_angle_alpha 90.000000
_cell_angle_beta 90.000000
_cell_angle_gamma 90.000000
_cell_volume 3283.354913
_symmetry_space_group_name_H-M "I M M A"
_symmetry_group_IT_number 74
_symmetry_cell_setting 'orthorhombic'
loop_
_space_group_symop_operation_xyz
x,y,z
-x,1/2-y,z
x,-y,-z
-x,1/2+y,-z
-x,-y,-z
x,1/2+y,-z
-x,y,z
x,1/2-y,z
1/2+x,1/2+y,1/2+z
1/2-x,-y,1/2+z
1/2+x,1/2-y,1/2-z
1/2-x,y,1/2-z
1/2-x,1/2-y,1/2-z
1/2+x,y,1/2-z
1/2-x,1/2+y,1/2+z
1/2+x,-y,1/2+z
loop_
_atom_site_type_symbol
_atom_site_label
_atom_site_fract_x
_atom_site_fract_y
_atom_site_fract_z
Si Si1 0.869833 0.500000 0.000000
Si Si2 0.940518 0.250000 0.936259
Si Si3 0.086392 0.750000 0.313315
Si Si4 0.200223 0.099290 0.195004
Si Si5 0.554839 0.250000 0.054587
Si Si6 0.868335 0.525377 0.617347
O O1 0.907623 0.623508 0.022877
O O2 0.832001 0.471928 0.100897
O O3 0.939001 0.250000 0.804153
O O4 0.000000 0.250000 0.969377
O O5 0.053588 0.750000 0.423286
O O6 0.118361 0.615332 0.327984
O O7 0.212994 0.250000 0.156716
O O8 0.250000 0.035891 0.250000
O O9 0.164150 0.105420 0.298323
O O10 0.500000 0.250000 0.102274
O O11 0.583872 0.382913 0.090169
O O12 0.843188 0.500000 0.500000
#
# Coordination Sequence:
#
# PCOD9539204 Si02
#       6
#     8   8   8  16   8  16
#     4  12  25  48  66 100 136 170 233 284 322 406
#     4  12  25  43  68  95 137 185 225 272 335 395
#     4  10  21  38  60  90 131 160 209 269 316 368
#     4  11  24  44  69  95 131 175 210 268 341 390
#     4  10  21  37  60  89 128 173 211 256 318 379
#     4  10  21  39  61  93 127 162 211 264 312 386
#
# _framework density 19.492258
#
# number of rings (size 3 to 8) (size 9 to 14) (size 15 to 20)
#    0.000    1.250    5.000    0.750    1.750    5.500 
#    0.000    3.750    0.000    0.000    0.000    0.000 
#    0.000    0.000    0.000    0.000    0.000    0.000 
#
# Total GULP energy -178285.915741 kJ/mol
# GULP energy per Si atom -5571.434867 kJ/mol
# Density = 1.944789 g / cm^3
# Si number density = 19.492258 Si / 1000 Ang^3
#
#
#
# Elastic Constant Matrix: (Units=GPa)
#
#
# Indices 1 2 3 4 5 6 
#
# 1 124.4481 45.6363 68.4736 0.0000 0.0000 0.0000
# 2 45.6363 134.2334 32.8937 0.0000 0.0000 0.0000
# 3 68.4736 32.8937 116.7318 0.0000 0.0000 0.0000
# 4 0.0000 0.0000 0.0000 62.4097 0.0000 0.0000
# 5 0.0000 0.0000 0.0000 0.0000 12.4097 0.0000
# 6 0.0000 0.0000 0.0000 0.0000 0.0000 18.7626
#
#
#
# Elastic Compliance Matrix: (Units=1/GPa)
#
#
# Indices 1 2 3 4 5 6 
#
# 1 0.012702 -0.002677 -0.006696 0.000000 0.000000 0.000000
# 2 -0.002677 0.008567 -0.000843 0.000000 0.000000 0.000000
# 3 -0.006696 -0.000843 0.012732 0.000000 0.000000 0.000000
# 4 0.000000 0.000000 0.000000 0.016023 0.000000 0.000000
# 5 0.000000 0.000000 0.000000 0.000000 0.080582 0.000000
# 6 0.000000 0.000000 0.000000 0.000000 0.000000 0.053297
#
#
# Mechanical properties :
#
#
# Convention : Reuss Voigt Hill
#
# Bulk Modulus (GPa) = 73.71117 74.38007 74.04562
# Shear Modulus (GPa) = 23.93956 33.94371 28.94164
#
# Velocity S-wave (km/s) = 3.50831 4.17753 3.85746
# Velocity P-wave (km/s) = 7.36944 7.84287 7.60984
#
# Compressibility (1/GPa) = 0.01356646
#
# Stress axis : x y z
#
# Youngs Moduli (GPa) = 78.72975 116.73172 78.54075
#
# Poissons Ratio (x) = 0.31254 0.52593
# Poissons Ratio (y) = 0.21079 0.06625
# Poissons Ratio (z) = 0.52719 0.09846
#
# Static dielectric constant tensor:
#      x y z
#    x 1.706110 0.000000 0.000000 
#    y 0.000000 1.710580 0.000000 
#    z 0.000000 0.000000 1.675890 
# 
# From -- ./inp_files/26799.got.cif
#   From: 2010.05.17/outbox.cif.g08.bks.cpg/sg74_14_cif.got.tgz:26799.got - 2010.06.03 17:57:02.
