data_PCOD9539059
_publ_section_title
;
Structure prediction by ZEFSAII (Michael W. Deem and Ramdas Pophale) SiO2 
 PCOD9539059
Probable space group: I M M A
;
_chemical_formula_sum "Si O2"
_cell_formula_units_Z 64
_cell_length_a 14.475891
_cell_length_b 8.792771
_cell_length_c 29.021229
_cell_angle_alpha 90.000000
_cell_angle_beta 90.000000
_cell_angle_gamma 90.000000
_cell_volume 3693.914738
_symmetry_space_group_name_H-M "I M M A"
_symmetry_group_IT_number 74
_symmetry_cell_setting 'orthorhombic'
loop_
_space_group_symop_operation_xyz
x,y,z
-x,1/2-y,z
x,-y,-z
-x,1/2+y,-z
-x,-y,-z
x,1/2+y,-z
-x,y,z
x,1/2-y,z
1/2+x,1/2+y,1/2+z
1/2-x,-y,1/2+z
1/2+x,1/2-y,1/2-z
1/2-x,y,1/2-z
1/2-x,1/2-y,1/2-z
1/2+x,y,1/2-z
1/2-x,1/2+y,1/2+z
1/2+x,-y,1/2+z
loop_
_atom_site_type_symbol
_atom_site_label
_atom_site_fract_x
_atom_site_fract_y
_atom_site_fract_z
Si Si1 0.000000 0.567358 0.449372
Si Si2 0.500000 0.932008 0.448906
Si Si3 0.651734 0.433908 0.874830
Si Si4 0.500000 0.932844 0.199307
Si Si5 0.000000 0.431933 0.199407
Si Si6 0.855285 0.567531 0.878421
O O1 0.000000 0.500000 0.500000
O O2 0.910292 0.523972 0.419235
O O3 0.000000 0.750000 0.452151
O O4 0.500000 0.750000 0.450396
O O5 0.500000 0.000000 0.500000
O O6 0.411468 0.991887 0.420324
O O7 0.661439 0.250000 0.874477
O O8 0.590101 0.478270 0.830427
O O9 0.751018 0.510390 0.875939
O O10 0.500000 0.750000 0.200535
O O11 0.500000 0.995045 0.250614
O O12 0.088608 0.473546 0.168158
O O13 0.000000 0.250000 0.204634
O O14 0.859511 0.750000 0.883485
#
# Coordination Sequence:
#
# PCOD9539059 Si02
#       6
#     8   8  16   8   8  16
#     4   9  19  35  54  76 105 136 172 216 261 308
#     4  11  22  38  59  81 107 140 176 218 263 311
#     4   9  19  36  54  76 106 140 176 219 265 312
#     4   9  19  35  55  77 104 139 182 223 263 315
#     4   9  20  36  52  74 107 139 172 217 269 318
#     4  10  21  37  55  79 109 141 176 216 263 318
#
# _framework density 17.325792
#
# number of rings (size 3 to 8) (size 9 to 14) (size 15 to 20)
#    0.000    2.500    0.000    4.125    0.000    7.000 
#    0.000   10.000    0.000    0.000    0.000    0.000 
#    0.000    0.000    0.000    0.000    0.000    0.000 
#
# Total GULP energy -178555.171168 kJ/mol
# GULP energy per Si atom -5579.849099 kJ/mol
# Density = 1.728636 g / cm^3
# Si number density = 17.325792 Si / 1000 Ang^3
#
#
#
# Elastic Constant Matrix: (Units=GPa)
#
#
# Indices 1 2 3 4 5 6 
#
# 1 189.4167 63.4496 105.0554 0.0000 0.0000 0.0000
# 2 63.4496 62.8176 63.7658 0.0000 0.0000 0.0000
# 3 105.0554 63.7658 196.9985 0.0000 0.0000 0.0000
# 4 0.0000 0.0000 0.0000 37.3103 0.0000 0.0000
# 5 0.0000 0.0000 0.0000 0.0000 5.5432 0.0000
# 6 0.0000 0.0000 0.0000 0.0000 0.0000 31.7465
#
#
#
# Elastic Compliance Matrix: (Units=1/GPa)
#
#
# Indices 1 2 3 4 5 6 
#
# 1 0.008862 -0.006187 -0.002723 0.000000 0.000000 0.000000
# 2 -0.006187 0.028029 -0.005773 0.000000 0.000000 0.000000
# 3 -0.002723 -0.005773 0.008397 0.000000 0.000000 0.000000
# 4 0.000000 0.000000 0.000000 0.026802 0.000000 0.000000
# 5 0.000000 0.000000 0.000000 0.000000 0.180401 0.000000
# 6 0.000000 0.000000 0.000000 0.000000 0.000000 0.031500
#
#
# Mechanical properties :
#
#
# Convention : Reuss Voigt Hill
#
# Bulk Modulus (GPa) = 62.80973 101.53046 82.17009
# Shear Modulus (GPa) = 15.69047 29.38414 22.53731
#
# Velocity S-wave (km/s) = 3.01261 4.12269 3.61057
# Velocity P-wave (km/s) = 6.95930 9.02165 8.05674
#
# Compressibility (1/GPa) = 0.01592110
#
# Stress axis : x y z
#
# Youngs Moduli (GPa) = 112.83715 35.67794 119.08673
#
# Poissons Ratio (x) = 0.22074 0.32433
# Poissons Ratio (y) = 0.69811 0.68750
# Poissons Ratio (z) = 0.30731 0.20597
#
# Static dielectric constant tensor:
#      x y z
#    x 1.567970 0.000000 0.000000 
#    y 0.000000 1.582070 0.000000 
#    z 0.000000 0.000000 1.568030 
# 
# From -- ./inp_files/66685.got.cif
#   From: 2010.05.17/outbox.cif.g08.bks.cpg/sg74_34_cif.got.tgz:66685.got - 2010.06.03 17:57:02.
