data_PCOD9539480
_publ_section_title
;
Structure prediction by ZEFSAII (Michael W. Deem and Ramdas Pophale) SiO2 
 PCOD9539480
Probable space group: I M M A
;
_chemical_formula_sum "Si O2"
_cell_formula_units_Z 104
_cell_length_a 21.760522
_cell_length_b 8.713463
_cell_length_c 26.928650
_cell_angle_alpha 90.000000
_cell_angle_beta 90.000000
_cell_angle_gamma 90.000000
_cell_volume 5105.927951
_symmetry_space_group_name_H-M "I M M A"
_symmetry_group_IT_number 74
_symmetry_cell_setting 'orthorhombic'
loop_
_space_group_symop_operation_xyz
x,y,z
-x,1/2-y,z
x,-y,-z
-x,1/2+y,-z
-x,-y,-z
x,1/2+y,-z
-x,y,z
x,1/2-y,z
1/2+x,1/2+y,1/2+z
1/2-x,-y,1/2+z
1/2+x,1/2-y,1/2-z
1/2-x,y,1/2-z
1/2-x,1/2-y,1/2-z
1/2+x,y,1/2-z
1/2-x,1/2+y,1/2+z
1/2+x,-y,1/2+z
loop_
_atom_site_type_symbol
_atom_site_label
_atom_site_fract_x
_atom_site_fract_y
_atom_site_fract_z
Si Si1 0.392065 0.933159 0.378736
Si Si2 0.500000 0.933348 0.554737
Si Si3 0.208383 0.431553 0.053089
Si Si4 0.572539 0.569308 0.945515
Si Si5 0.682092 0.930467 0.104972
Si Si6 0.194155 0.065203 0.287657
Si Si7 0.429047 0.935102 0.728172
O O1 0.393268 0.750000 0.379452
O O2 0.441766 0.003171 0.416035
O O3 0.328625 0.994521 0.401171
O O4 0.409495 0.993137 0.324397
O O5 0.500000 0.750000 0.554196
O O6 0.500000 0.000000 0.500000
O O7 0.199743 0.250000 0.052619
O O8 0.278153 0.478012 0.064317
O O9 0.188558 0.500000 0.000000
O O10 0.500000 0.553246 0.936134
O O11 0.587687 0.750000 0.944611
O O12 0.612320 0.479133 0.905404
O O13 0.584928 0.500000 0.000000
O O14 0.691342 0.750000 0.098439
O O15 0.701292 0.983128 0.159788
O O16 0.196409 0.250000 0.294847
O O17 0.250000 0.025832 0.250000
O O18 0.126697 0.025959 0.265507
O O19 0.500000 0.979922 0.740621
O O20 0.428844 0.750000 0.723256
#
# Coordination Sequence:
#
# PCOD9539480 Si02
#       7
#    16   8  16  16  16  16  16
#     4  12  24  40  62  92 126 163 208 258 313 371
#     4  12  24  40  60  86 122 164 210 256 307 364
#     4  12  25  43  65  91 126 167 211 260 313 377
#     4  10  21  39  64  93 127 167 209 254 308 375
#     4  12  25  41  63  93 128 165 207 259 316 378
#     4  10  22  41  64  90 122 164 212 262 320 383
#     4  10  21  39  64  92 124 166 214 263 318 382
#
# _framework density 20.368483000000001
#
# number of rings (size 3 to 8) (size 9 to 14) (size 15 to 20)
#    0.000    0.923    0.769    7.154    0.000    3.692 
#    0.000    1.538    0.000    0.000    0.000    0.000 
#    0.000    0.000    0.000    0.000    0.000    0.000 
#
# Total GULP energy -290877.370132 kJ/mol
# GULP energy per Si atom -5593.795579 kJ/mol
# Density = 2.032212 g / cm^3
# Si number density = 20.368483 Si / 1000 Ang^3
#
#
#
# Elastic Constant Matrix: (Units=GPa)
#
#
# Indices 1 2 3 4 5 6 
#
# 1 93.1877 28.2594 24.6398 0.0000 0.0000 0.0000
# 2 28.2594 62.2131 23.0757 0.0000 0.0000 0.0000
# 3 24.6398 23.0757 60.1233 0.0000 0.0000 0.0000
# 4 0.0000 0.0000 0.0000 33.1468 0.0000 0.0000
# 5 0.0000 0.0000 0.0000 0.0000 36.7298 0.0000
# 6 0.0000 0.0000 0.0000 0.0000 0.0000 25.3019
#
#
#
# Elastic Compliance Matrix: (Units=1/GPa)
#
#
# Indices 1 2 3 4 5 6 
#
# 1 0.013078 -0.004609 -0.003591 0.000000 0.000000 0.000000
# 2 -0.004609 0.020366 -0.005928 0.000000 0.000000 0.000000
# 3 -0.003591 -0.005928 0.020379 0.000000 0.000000 0.000000
# 4 0.000000 0.000000 0.000000 0.030169 0.000000 0.000000
# 5 0.000000 0.000000 0.000000 0.000000 0.027226 0.000000
# 6 0.000000 0.000000 0.000000 0.000000 0.000000 0.039523
#
#
# Mechanical properties :
#
#
# Convention : Reuss Voigt Hill
#
# Bulk Modulus (GPa) = 39.11052 40.83043 39.97048
# Shear Modulus (GPa) = 26.66409 28.33898 27.50153
#
# Velocity S-wave (km/s) = 3.62205 3.73408 3.67849
# Velocity P-wave (km/s) = 6.06099 6.21937 6.14069
#
# Compressibility (1/GPa) = 0.02556857
#
# Stress axis : x y z
#
# Youngs Moduli (GPa) = 76.46386 49.10167 49.06956
#
# Poissons Ratio (x) = 0.22629 0.17620
# Poissons Ratio (y) = 0.35239 0.29088
# Poissons Ratio (z) = 0.27457 0.29107
#
# Static dielectric constant tensor:
#      x y z
#    x 1.772260 0.000000 0.000000 
#    y 0.000000 1.678160 0.000000 
#    z 0.000000 0.000000 1.709470 
# 
# From -- ./inp_files/68234.got.cif
#   From: 2010.05.17/outbox.cif.g08.bks.cpg/sg74_35_cif.got.tgz:68234.got - 2010.06.03 17:57:02.
