data_PCOD9539591
_publ_section_title
;
Structure prediction by ZEFSAII (Michael W. Deem and Ramdas Pophale) SiO2 
 PCOD9539591
Probable space group: I M M A
;
_chemical_formula_sum "Si O2"
_cell_formula_units_Z 68
_cell_length_a 8.788713
_cell_length_b 14.323517
_cell_length_c 28.376344
_cell_angle_alpha 90.000000
_cell_angle_beta 90.000000
_cell_angle_gamma 90.000000
_cell_volume 3572.164012
_symmetry_space_group_name_H-M "I M M A"
_symmetry_group_IT_number 74
_symmetry_cell_setting 'orthorhombic'
loop_
_space_group_symop_operation_xyz
x,y,z
-x,1/2-y,z
x,-y,-z
-x,1/2+y,-z
-x,-y,-z
x,1/2+y,-z
-x,y,z
x,1/2-y,z
1/2+x,1/2+y,1/2+z
1/2-x,-y,1/2+z
1/2+x,1/2-y,1/2-z
1/2-x,y,1/2-z
1/2-x,1/2-y,1/2-z
1/2+x,y,1/2-z
1/2-x,1/2+y,1/2+z
1/2+x,-y,1/2+z
loop_
_atom_site_type_symbol
_atom_site_label
_atom_site_fract_x
_atom_site_fract_y
_atom_site_fract_z
Si Si1 0.180315 0.558318 0.630406
Si Si2 0.175797 0.561730 0.047357
Si Si3 0.831424 0.077460 0.797923
Si Si4 0.681739 0.750000 0.597374
Si Si5 0.682276 0.750000 0.008476
Si Si6 0.000000 0.750000 0.163867
O O1 0.232946 0.495137 0.586316
O O2 0.235417 0.500743 0.675650
O O3 0.262902 0.657318 0.623917
O O4 0.000000 0.571558 0.630079
O O5 0.252960 0.659258 0.034658
O O6 0.000000 0.576009 0.062448
O O7 0.173958 0.500000 0.000000
O O8 0.750000 0.108301 0.750000
O O9 0.000000 0.039440 0.786004
O O10 0.868963 0.166953 0.830546
O O11 0.500000 0.750000 0.592097
O O12 0.755243 0.750000 0.545080
O O13 0.500000 0.750000 0.007725
#
# Coordination Sequence:
#
# PCOD9539591 Si02
#       6
#    16  16  16   8   8   4
#     4  12  25  42  65  96 131 169 216 271 323 382
#     4  11  23  40  63  89 125 171 217 267 319 381
#     4  10  21  41  67  99 131 169 211 259 317 382
#     4  12  24  42  66  91 124 173 220 259 326 392
#     4  12  24  39  62  91 124 166 215 268 327 384
#     4   8  22  38  72  94 132 174 204 260 310 388
#
# _framework density 19.036080999999999
#
# number of rings (size 3 to 8) (size 9 to 14) (size 15 to 20)
#    0.706    0.235    2.353    6.000    0.000    1.882 
#    0.000    1.765    0.000    0.000    0.000    0.000 
#    0.000    0.000    0.000    0.000    0.000    0.000 
#
# Total GULP energy -189432.806618 kJ/mol
# GULP energy per Si atom -5571.553136 kJ/mol
# Density = 1.899275 g / cm^3
# Si number density = 19.036081 Si / 1000 Ang^3
#
#
#
# Elastic Constant Matrix: (Units=GPa)
#
#
# Indices 1 2 3 4 5 6 
#
# 1 138.1679 43.7728 4.2048 0.0000 0.0000 0.0000
# 2 43.7728 154.4188 9.9644 0.0000 0.0000 0.0000
# 3 4.2048 9.9644 16.0224 0.0000 0.0000 0.0000
# 4 0.0000 0.0000 0.0000 7.4167 0.0000 0.0000
# 5 0.0000 0.0000 0.0000 0.0000 21.9575 0.0000
# 6 0.0000 0.0000 0.0000 0.0000 0.0000 37.6311
#
#
#
# Elastic Compliance Matrix: (Units=1/GPa)
#
#
# Indices 1 2 3 4 5 6 
#
# 1 0.007960 -0.002210 -0.000714 0.000000 0.000000 0.000000
# 2 -0.002210 0.007360 -0.003997 0.000000 0.000000 0.000000
# 3 -0.000714 -0.003997 0.065086 0.000000 0.000000 0.000000
# 4 0.000000 0.000000 0.000000 0.134831 0.000000 0.000000
# 5 0.000000 0.000000 0.000000 0.000000 0.045543 0.000000
# 6 0.000000 0.000000 0.000000 0.000000 0.000000 0.026574
#
#
# Mechanical properties :
#
#
# Convention : Reuss Voigt Hill
#
# Bulk Modulus (GPa) = 15.02353 47.16589 31.09471
# Shear Modulus (GPa) = 15.46145 30.11218 22.78681
#
# Velocity S-wave (km/s) = 2.85304 3.98156 3.46357
# Velocity P-wave (km/s) = 4.33155 6.77997 5.68904
#
# Compressibility (1/GPa) = 0.06656227
#
# Stress axis : x y z
#
# Youngs Moduli (GPa) = 125.63580 135.86299 15.36423
#
# Poissons Ratio (x) = 0.30028 0.01098
# Poissons Ratio (y) = 0.27768 0.06142
# Poissons Ratio (z) = 0.08975 0.54310
#
# Static dielectric constant tensor:
#      x y z
#    x 1.645470 0.000000 0.000000 
#    y 0.000000 1.628710 0.000000 
#    z 0.000000 0.000000 1.676690 
# 
# From -- ./inp_files/63557.got.cif
#   From: 2010.05.17/outbox.cif.g08.bks.cpg/sg74_32_cif.got.tgz:63557.got - 2010.06.03 17:57:02.
