data_PCOD9539869
_publ_section_title
;
Structure prediction by ZEFSAII (Michael W. Deem and Ramdas Pophale) SiO2 
 PCOD9539869
Probable space group: I M M A
;
_chemical_formula_sum "Si O2"
_cell_formula_units_Z 68
_cell_length_a 20.557394
_cell_length_b 7.719787
_cell_length_c 19.835368
_cell_angle_alpha 90.000000
_cell_angle_beta 90.000000
_cell_angle_gamma 90.000000
_cell_volume 3147.847174
_symmetry_space_group_name_H-M "I M M A"
_symmetry_group_IT_number 74
_symmetry_cell_setting 'orthorhombic'
loop_
_space_group_symop_operation_xyz
x,y,z
-x,1/2-y,z
x,-y,-z
-x,1/2+y,-z
-x,-y,-z
x,1/2+y,-z
-x,y,z
x,1/2-y,z
1/2+x,1/2+y,1/2+z
1/2-x,-y,1/2+z
1/2+x,1/2-y,1/2-z
1/2-x,y,1/2-z
1/2-x,1/2-y,1/2-z
1/2+x,y,1/2-z
1/2-x,1/2+y,1/2+z
1/2+x,-y,1/2+z
loop_
_atom_site_type_symbol
_atom_site_label
_atom_site_fract_x
_atom_site_fract_y
_atom_site_fract_z
Si Si1 0.367122 0.547442 0.426875
Si Si2 0.000000 0.061765 0.129548
Si Si3 0.500000 0.462405 0.140249
Si Si4 0.137899 0.543716 0.576958
Si Si5 0.500000 0.750000 0.260559
Si Si6 0.751943 0.040606 0.173006
O O1 0.338686 0.500000 0.500000
O O2 0.380334 0.750000 0.426014
O O3 0.434916 0.451334 0.414792
O O4 0.317238 0.505562 0.367004
O O5 0.000000 0.250000 0.164376
O O6 0.000000 0.902317 0.180597
O O7 0.500000 0.250000 0.154652
O O8 0.435013 0.503798 0.098010
O O9 0.500000 0.593371 0.203021
O O10 0.152622 0.500000 0.500000
O O11 0.141467 0.750000 0.582599
O O12 0.191074 0.473080 0.629415
O O13 0.748669 0.250000 0.175528
O O14 0.750000 0.977341 0.250000
#
# Coordination Sequence:
#
# PCOD9539869 Si02
#       6
#    16   8   8  16   4  16
#     4  12  25  45  69 101 135 179 231 280 338 407
#     4  12  26  46  72 103 141 177 223 282 335 406
#     4  10  24  44  69 102 139 181 227 281 338 404
#     4  10  22  40  66  96 133 181 231 284 344 404
#     4  12  26  44  68 108 142 176 224 272 352 404
#     4  10  23  42  65  96 135 180 227 281 346 408
#
# _framework density 21.602067000000002
#
# number of rings (size 3 to 8) (size 9 to 14) (size 15 to 20)
#    0.000    1.176    1.176    3.882    4.941    3.294 
#    0.000    0.000    0.000    0.000    0.000    0.000 
#    0.000    0.000    0.000    0.000    0.000    0.000 
#
# Total GULP energy -189565.835351 kJ/mol
# GULP energy per Si atom -5575.465746 kJ/mol
# Density = 2.155290 g / cm^3
# Si number density = 21.602067 Si / 1000 Ang^3
#
#
#
# Elastic Constant Matrix: (Units=GPa)
#
#
# Indices 1 2 3 4 5 6 
#
# 1 137.7160 17.8059 64.1072 0.0000 0.0000 0.0000
# 2 17.8059 105.2551 34.8247 0.0000 0.0000 0.0000
# 3 64.1072 34.8247 183.7061 0.0000 0.0000 0.0000
# 4 0.0000 0.0000 0.0000 38.5892 0.0000 0.0000
# 5 0.0000 0.0000 0.0000 0.0000 -139.2252 0.0000
# 6 0.0000 0.0000 0.0000 0.0000 0.0000 34.4329
#
#
#
# Elastic Compliance Matrix: (Units=1/GPa)
#
#
# Indices 1 2 3 4 5 6 
#
# 1 0.008694 -0.000498 -0.002939 0.000000 0.000000 0.000000
# 2 -0.000498 0.010165 -0.001753 0.000000 0.000000 0.000000
# 3 -0.002939 -0.001753 0.006802 0.000000 0.000000 0.000000
# 4 0.000000 0.000000 0.000000 0.025914 0.000000 0.000000
# 5 0.000000 0.000000 0.000000 0.000000 -0.007183 0.000000
# 6 0.000000 0.000000 0.000000 0.000000 0.000000 0.029042
#
#
# Mechanical properties :
#
#
# Convention : Reuss Voigt Hill
#
# Bulk Modulus (GPa) = 65.44887 73.35032 69.39960
# Shear Modulus (GPa) = 56.23746 7.42200 31.82973
#
# Velocity S-wave (km/s) = 5.10783 1.85560 3.84273
# Velocity P-wave (km/s) = 8.07154 6.21449 7.20312
#
# Compressibility (1/GPa) = 0.01527910
#
# Stress axis : x y z
#
# Youngs Moduli (GPa) = 115.02080 98.37636 147.02440
#
# Poissons Ratio (x) = 0.04901 0.43218
# Poissons Ratio (y) = 0.05730 0.25775
# Poissons Ratio (z) = 0.33810 0.17246
#
# Static dielectric constant tensor:
#      x y z
#    x 1.780560 0.000000 0.000000 
#    y 0.000000 1.788270 0.000000 
#    z 0.000000 0.000000 1.763860 
# 
# From -- ./inp_files/44898.got.cif
#   From: 2010.05.17/outbox.cif.g08.bks.cpg/sg74_23_cif.got.tgz:44898.got - 2010.06.03 17:57:02.
