data_PCOD9539757
_publ_section_title
;
Structure prediction by ZEFSAII (Michael W. Deem and Ramdas Pophale) SiO2 
 PCOD9539757
Probable space group: I M M A
;
_chemical_formula_sum "Si O2"
_cell_formula_units_Z 112
_cell_length_a 17.893179
_cell_length_b 28.612185
_cell_length_c 11.217758
_cell_angle_alpha 90.000000
_cell_angle_beta 90.000000
_cell_angle_gamma 90.000000
_cell_volume 5743.076453
_symmetry_space_group_name_H-M "I M M A"
_symmetry_group_IT_number 74
_symmetry_cell_setting 'orthorhombic'
loop_
_space_group_symop_operation_xyz
x,y,z
-x,1/2-y,z
x,-y,-z
-x,1/2+y,-z
-x,-y,-z
x,1/2+y,-z
-x,y,z
x,1/2-y,z
1/2+x,1/2+y,1/2+z
1/2-x,-y,1/2+z
1/2+x,1/2-y,1/2-z
1/2-x,y,1/2-z
1/2-x,1/2-y,1/2-z
1/2+x,y,1/2-z
1/2-x,1/2+y,1/2+z
1/2+x,-y,1/2+z
loop_
_atom_site_type_symbol
_atom_site_label
_atom_site_fract_x
_atom_site_fract_y
_atom_site_fract_z
Si Si1 0.696050 0.552867 0.637402
Si Si2 0.696252 0.558239 0.363625
Si Si3 0.850603 0.804401 0.036943
Si Si4 0.584401 0.865097 0.277912
Si Si5 0.916867 0.801359 0.618618
Si Si6 0.086206 0.867083 0.838888
Si Si7 0.182374 0.196597 0.609360
O O1 0.750000 0.564305 0.750000
O O2 0.723647 0.565629 0.501626
O O3 0.682007 0.497338 0.641577
O O4 0.620448 0.581687 0.656893
O O5 0.750000 0.568574 0.250000
O O6 0.624189 0.590560 0.339726
O O7 0.856663 0.750000 0.011546
O O8 0.913019 0.823533 0.125698
O O9 0.770398 0.812828 0.099724
O O10 0.861032 0.834867 0.919872
O O11 0.500000 0.875035 0.239769
O O12 0.636947 0.843564 0.175903
O O13 0.913376 0.750000 0.679754
O O14 0.911344 0.843421 0.709804
O O15 0.852373 0.802511 0.522146
O O16 0.000000 0.803481 0.561130
O O17 0.000000 0.865928 0.879449
O O18 0.171895 0.250000 0.658809
#
# Coordination Sequence:
#
# PCOD9539757 Si02
#       7
#    16  16  16  16  16  16  16
#     4  10  23  41  67  94 121 162 207 257 315 374
#     4  10  22  43  66  93 124 159 207 260 314 374
#     4  11  23  37  56  84 119 160 205 251 300 356
#     4  12  24  37  60  90 120 161 203 251 312 369
#     4   9  19  36  57  83 120 164 206 252 309 371
#     4  11  23  37  57  88 122 159 202 254 313 368
#     4  10  22  39  59  86 121 164 212 257 303 366
#
# _framework density 19.501742
#
# number of rings (size 3 to 8) (size 9 to 14) (size 15 to 20)
#    0.000    1.571    1.429    3.000    2.000    4.857 
#    0.000    3.571    0.000    0.000    0.000    7.000 
#    0.000    0.000    0.000    0.000    0.000    0.000 
#
# Total GULP energy -312352.412196 kJ/mol
# GULP energy per Si atom -5577.721646 kJ/mol
# Density = 1.945735 g / cm^3
# Si number density = 19.501742 Si / 1000 Ang^3
#
#
#
# Elastic Constant Matrix: (Units=GPa)
#
#
# Indices 1 2 3 4 5 6 
#
# 1 95.9672 50.8076 40.7977 -0.0001 0.0000 0.0000
# 2 50.8076 70.6660 36.9997 -0.0001 0.0000 0.0001
# 3 40.7977 36.9997 85.2592 -0.0007 -0.0001 0.0004
# 4 -0.0001 -0.0001 -0.0007 27.3557 0.0000 0.0000
# 5 0.0000 0.0000 -0.0001 0.0000 20.8110 0.0000
# 6 0.0000 0.0001 0.0004 0.0000 0.0000 12.1707
#
#
#
# Elastic Compliance Matrix: (Units=1/GPa)
#
#
# Indices 1 2 3 4 5 6 
#
# 1 0.017737 -0.010752 -0.003822 0.000000 0.000000 0.000000
# 2 -0.010752 0.024829 -0.005630 0.000000 0.000000 0.000000
# 3 -0.003822 -0.005630 0.016001 0.000000 0.000000 0.000000
# 4 0.000000 0.000000 0.000000 0.036555 0.000000 0.000000
# 5 0.000000 0.000000 0.000000 0.000000 0.048052 0.000000
# 6 0.000000 0.000000 0.000000 0.000000 0.000000 0.082164
#
#
# Mechanical properties :
#
#
# Convention : Reuss Voigt Hill
#
# Bulk Modulus (GPa) = 55.06523 56.56693 55.81608
# Shear Modulus (GPa) = 18.39592 20.28664 19.34128
#
# Velocity S-wave (km/s) = 3.07464 3.22879 3.15266
# Velocity P-wave (km/s) = 6.39546 6.55508 6.47577
#
# Compressibility (1/GPa) = 0.01816028
#
# Stress axis : x y z
#
# Youngs Moduli (GPa) = 56.37891 40.27491 62.49628
#
# Poissons Ratio (x) = 0.43303 0.23883
# Poissons Ratio (y) = 0.60617 0.35187
# Poissons Ratio (z) = 0.21545 0.22676
#
# Static dielectric constant tensor:
#      x y z
#    x 1.670210 0.000000 0.000000 
#    y 0.000000 1.670530 0.000000 
#    z 0.000000 0.000000 1.730380 
# 
# From -- ./inp_files/21154.got.cif
#   From: 2010.05.17/outbox.cif.g08.bks.cpg/sg74_11_cif.got.tgz:21154.got - 2010.06.03 17:57:02.
