data_PCOD9539287
_publ_section_title
;
Structure prediction by ZEFSAII (Michael W. Deem and Ramdas Pophale) SiO2 
 PCOD9539287
Probable space group: I M M A
;
_chemical_formula_sum "Si O2"
_cell_formula_units_Z 104
_cell_length_a 16.798616
_cell_length_b 12.157878
_cell_length_c 26.764148
_cell_angle_alpha 90.000000
_cell_angle_beta 90.000000
_cell_angle_gamma 90.000000
_cell_volume 5466.189788
_symmetry_space_group_name_H-M "I M M A"
_symmetry_group_IT_number 74
_symmetry_cell_setting 'orthorhombic'
loop_
_space_group_symop_operation_xyz
x,y,z
-x,1/2-y,z
x,-y,-z
-x,1/2+y,-z
-x,-y,-z
x,1/2+y,-z
-x,y,z
x,1/2-y,z
1/2+x,1/2+y,1/2+z
1/2-x,-y,1/2+z
1/2+x,1/2-y,1/2-z
1/2-x,y,1/2-z
1/2-x,1/2-y,1/2-z
1/2+x,y,1/2-z
1/2-x,1/2+y,1/2+z
1/2+x,-y,1/2+z
loop_
_atom_site_type_symbol
_atom_site_label
_atom_site_fract_x
_atom_site_fract_y
_atom_site_fract_z
Si Si1 0.096347 0.750000 0.785502
Si Si2 0.908909 0.118322 0.864825
Si Si3 0.903568 0.750000 0.901646
Si Si4 0.178637 0.469380 0.057837
Si Si5 0.093410 0.576865 0.702351
Si Si6 0.339082 0.875083 0.905237
Si Si7 0.343579 0.620156 0.255653
Si Si8 0.000000 0.118358 0.469553
O O1 0.123235 0.750000 0.842926
O O2 0.119748 0.646272 0.751122
O O3 0.000000 0.750000 0.788193
O O4 0.908477 0.250000 0.869163
O O5 0.872122 0.090056 0.811152
O O6 0.000000 0.078786 0.866135
O O7 0.859741 0.064150 0.908687
O O8 0.869130 0.858282 0.928230
O O9 0.000000 0.750000 0.903158
O O10 0.269961 0.452378 0.074228
O O11 0.173133 0.500000 0.000000
O O12 0.141534 0.606981 0.652946
O O13 0.107625 0.450839 0.716288
O O14 0.000000 0.600571 0.693760
O O15 0.310885 0.750000 0.912079
O O16 0.420816 0.887401 0.935823
O O17 0.356449 0.750000 0.248790
O O18 0.250000 0.597335 0.250000
O O19 0.000000 0.250000 0.490250
O O20 0.000000 0.000000 0.500000
#
# Coordination Sequence:
#
# PCOD9539287 Si02
#       8
#     8  16   8  16  16  16  16   8
#     4   9  20  35  61  95 132 165 203 258 326 381
#     4  10  22  41  65  91 125 172 223 266 321 394
#     4  11  24  43  63  94 134 169 216 275 329 398
#     4  12  26  43  65  92 125 166 219 282 340 381
#     4  11  20  35  63  96 130 169 211 257 324 398
#     4  11  22  42  66  95 131 169 221 273 339 412
#     4  10  21  38  59  89 131 174 214 260 317 381
#     4  10  22  42  70  96 130 178 234 290 346 406
#
# _framework density 19.026050000000001
#
# number of rings (size 3 to 8) (size 9 to 14) (size 15 to 20)
#    0.000    1.385    2.308    3.231    1.077    3.385 
#    0.000    2.692    0.000    0.000    0.000    0.000 
#    0.000    0.000    0.000    0.000    0.000    0.000 
#
# Total GULP energy -290424.292906 kJ/mol
# GULP energy per Si atom -5585.082556 kJ/mol
# Density = 1.898275 g / cm^3
# Si number density = 19.026050 Si / 1000 Ang^3
#
#
#
# Elastic Constant Matrix: (Units=GPa)
#
#
# Indices 1 2 3 4 5 6 
#
# 1 102.2376 33.2840 53.1017 0.0000 0.0000 0.0000
# 2 33.2840 60.1634 58.9031 0.0000 0.0000 0.0000
# 3 53.1017 58.9031 124.7306 0.0000 0.0000 0.0000
# 4 0.0000 0.0000 0.0000 33.9582 0.0000 0.0000
# 5 0.0000 0.0000 0.0000 0.0000 27.4801 0.0000
# 6 0.0000 0.0000 0.0000 0.0000 0.0000 23.3248
#
#
#
# Elastic Compliance Matrix: (Units=1/GPa)
#
#
# Indices 1 2 3 4 5 6 
#
# 1 0.012895 -0.003272 -0.003945 0.000000 0.000000 0.000000
# 2 -0.003272 0.031745 -0.013598 0.000000 0.000000 0.000000
# 3 -0.003945 -0.013598 0.016118 0.000000 0.000000 0.000000
# 4 0.000000 0.000000 0.000000 0.029448 0.000000 0.000000
# 5 0.000000 0.000000 0.000000 0.000000 0.036390 0.000000
# 6 0.000000 0.000000 0.000000 0.000000 0.000000 0.042873
#
#
# Mechanical properties :
#
#
# Convention : Reuss Voigt Hill
#
# Bulk Modulus (GPa) = 52.27778 64.18991 58.23385
# Shear Modulus (GPa) = 22.99108 26.40882 24.69995
#
# Velocity S-wave (km/s) = 3.47998 3.72968 3.60699
# Velocity P-wave (km/s) = 6.60936 7.23591 6.92972
#
# Compressibility (1/GPa) = 0.01912859
#
# Stress axis : x y z
#
# Youngs Moduli (GPa) = 77.54819 31.50100 62.04065
#
# Poissons Ratio (x) = 0.10307 0.24474
# Poissons Ratio (y) = 0.25372 0.84366
# Poissons Ratio (z) = 0.30591 0.42836
#
# Static dielectric constant tensor:
#      x y z
#    x 1.658310 0.000000 0.000000 
#    y 0.000000 1.688090 0.000000 
#    z 0.000000 0.000000 1.626680 
# 
# From -- ./inp_files/67793.got.cif
#   From: 2010.05.17/outbox.cif.g08.bks.cpg/sg74_34_cif.got.tgz:67793.got - 2010.06.03 17:57:02.
