data_PCOD9539587
_publ_section_title
;
Structure prediction by ZEFSAII (Michael W. Deem and Ramdas Pophale) SiO2 
 PCOD9539587
Probable space group: I M M A
;
_chemical_formula_sum "Si O2"
_cell_formula_units_Z 104
_cell_length_a 20.105509
_cell_length_b 27.631744
_cell_length_c 9.359401
_cell_angle_alpha 90.000000
_cell_angle_beta 90.000000
_cell_angle_gamma 90.000000
_cell_volume 5199.617824
_symmetry_space_group_name_H-M "I M M A"
_symmetry_group_IT_number 74
_symmetry_cell_setting 'orthorhombic'
loop_
_space_group_symop_operation_xyz
x,y,z
-x,1/2-y,z
x,-y,-z
-x,1/2+y,-z
-x,-y,-z
x,1/2+y,-z
-x,y,z
x,1/2-y,z
1/2+x,1/2+y,1/2+z
1/2-x,-y,1/2+z
1/2+x,1/2-y,1/2-z
1/2-x,y,1/2-z
1/2-x,1/2-y,1/2-z
1/2+x,y,1/2-z
1/2-x,1/2+y,1/2+z
1/2+x,-y,1/2+z
loop_
_atom_site_type_symbol
_atom_site_label
_atom_site_fract_x
_atom_site_fract_y
_atom_site_fract_z
Si Si1 0.077928 0.305510 0.024252
Si Si2 0.150337 0.122368 0.833374
Si Si3 0.818360 0.485367 0.838216
Si Si4 0.620104 0.306957 0.160092
Si Si5 0.000000 0.879025 0.591855
Si Si6 0.375384 0.046975 0.100053
Si Si7 0.707362 0.131532 0.975699
O O1 0.091607 0.250000 0.978595
O O2 0.094744 0.344512 0.904230
O O3 0.000000 0.308533 0.062707
O O4 0.117891 0.315845 0.169487
O O5 0.140284 0.064654 0.834026
O O6 0.216808 0.130806 0.926914
O O7 0.165607 0.137198 0.671044
O O8 0.750000 0.476547 0.750000
O O9 0.857714 0.527499 0.756903
O O10 0.804330 0.500000 0.000000
O O11 0.612195 0.250000 0.137662
O O12 0.558731 0.337168 0.096915
O O13 0.686229 0.327138 0.085649
O O14 0.941250 0.920993 0.594651
O O15 0.315368 0.080892 0.044781
O O16 0.380667 0.000000 0.000000
#
# Coordination Sequence:
#
# PCOD9539587 Si02
#       7
#    16  16  16  16   8  16  16
#     4  10  23  44  66  89 125 169 209 263 324 385
#     4  11  22  42  62  93 130 164 211 262 325 379
#     4  12  24  39  64  92 127 169 209 259 310 376
#     4  10  21  41  67  92 121 163 214 265 326 385
#     4  10  22  36  65  92 125 166 205 265 310 367
#     4  11  21  43  61  92 131 170 211 251 316 374
#     4  10  22  40  65  94 128 166 210 272 318 380
#
# _framework density 20.001470000000001
#
# number of rings (size 3 to 8) (size 9 to 14) (size 15 to 20)
#    0.000    1.385    3.846    1.846    4.308    1.846 
#    6.923    3.462    0.000    0.000    0.000    0.000 
#    0.000    0.000    0.000    0.000    0.000    0.000 
#
# Total GULP energy -289585.815642 kJ/mol
# GULP energy per Si atom -5568.957993 kJ/mol
# Density = 1.995595 g / cm^3
# Si number density = 20.001470 Si / 1000 Ang^3
#
#
#
# Elastic Constant Matrix: (Units=GPa)
#
#
# Indices 1 2 3 4 5 6 
#
# 1 24.0914 18.4983 22.7915 0.0000 0.0000 0.0000
# 2 18.4983 109.8242 47.6133 0.0000 0.0000 0.0000
# 3 22.7915 47.6133 91.5252 0.0000 0.0000 0.0000
# 4 0.0000 0.0000 0.0000 31.8014 0.0000 0.0000
# 5 0.0000 0.0000 0.0000 0.0000 14.6531 0.0000
# 6 0.0000 0.0000 0.0000 0.0000 0.0000 33.2292
#
#
#
# Elastic Compliance Matrix: (Units=1/GPa)
#
#
# Indices 1 2 3 4 5 6 
#
# 1 0.055874 -0.004363 -0.011644 0.000000 0.000000 0.000000
# 2 -0.004363 0.012098 -0.005207 0.000000 0.000000 0.000000
# 3 -0.011644 -0.005207 0.016534 0.000000 0.000000 0.000000
# 4 0.000000 0.000000 0.000000 0.031445 0.000000 0.000000
# 5 0.000000 0.000000 0.000000 0.000000 0.068245 0.000000
# 6 0.000000 0.000000 0.000000 0.000000 0.000000 0.030094
#
#
# Mechanical properties :
#
#
# Convention : Reuss Voigt Hill
#
# Bulk Modulus (GPa) = 23.76523 44.80521 34.28522
# Shear Modulus (GPa) = 18.46757 25.03926 21.75341
#
# Velocity S-wave (km/s) = 3.04190 3.54202 3.30144
# Velocity P-wave (km/s) = 4.92393 6.25919 5.63127
#
# Compressibility (1/GPa) = 0.04207828
#
# Stress axis : x y z
#
# Youngs Moduli (GPa) = 17.89731 82.65938 60.48010
#
# Poissons Ratio (x) = 0.36065 0.70423
# Poissons Ratio (y) = 0.07809 0.31492
# Poissons Ratio (z) = 0.20840 0.43041
#
# Static dielectric constant tensor:
#      x y z
#    x 1.693750 0.000000 0.000000 
#    y 0.000000 1.697360 0.000000 
#    z 0.000000 0.000000 1.736800 
# 
# From -- ./inp_files/12794.got.cif
#   From: 2010.05.17/outbox.cif.g08.bks.cpg/sg74_7_cif.got.tgz:12794.got - 2010.06.03 17:57:02.
