data_PCOD9539612
_publ_section_title
;
Structure prediction by ZEFSAII (Michael W. Deem and Ramdas Pophale) SiO2 
 PCOD9539612
Probable space group: I M M A
;
_chemical_formula_sum "Si O2"
_cell_formula_units_Z 104
_cell_length_a 18.108734
_cell_length_b 21.870248
_cell_length_c 13.900408
_cell_angle_alpha 90.000000
_cell_angle_beta 90.000000
_cell_angle_gamma 90.000000
_cell_volume 5505.152385
_symmetry_space_group_name_H-M "I M M A"
_symmetry_group_IT_number 74
_symmetry_cell_setting 'orthorhombic'
loop_
_space_group_symop_operation_xyz
x,y,z
-x,1/2-y,z
x,-y,-z
-x,1/2+y,-z
-x,-y,-z
x,1/2+y,-z
-x,y,z
x,1/2-y,z
1/2+x,1/2+y,1/2+z
1/2-x,-y,1/2+z
1/2+x,1/2-y,1/2-z
1/2-x,y,1/2-z
1/2-x,1/2-y,1/2-z
1/2+x,y,1/2-z
1/2-x,1/2+y,1/2+z
1/2+x,-y,1/2+z
loop_
_atom_site_type_symbol
_atom_site_label
_atom_site_fract_x
_atom_site_fract_y
_atom_site_fract_z
Si Si1 0.085850 0.319732 0.116962
Si Si2 0.307384 0.250000 0.881393
Si Si3 0.157407 0.931836 0.537803
Si Si4 0.706847 0.140864 0.534075
Si Si5 0.587528 0.933537 0.751273
Si Si6 0.413327 0.632862 0.140136
Si Si7 0.830488 0.950431 0.203714
O O1 0.097866 0.250000 0.149231
O O2 0.098574 0.368058 0.201809
O O3 0.000000 0.325703 0.087320
O O4 0.140245 0.334798 0.030019
O O5 0.246247 0.304039 0.908541
O O6 0.368743 0.303953 0.859570
O O7 0.230936 0.890819 0.532726
O O8 0.122856 0.934942 0.643087
O O9 0.101749 0.900031 0.462309
O O10 0.173576 0.000000 0.500000
O O11 0.680558 0.089728 0.609084
O O12 0.500000 0.945835 0.757161
O O13 0.627947 0.985766 0.689511
O O14 0.500000 0.641049 0.155544
O O15 0.377907 0.588801 0.220286
O O16 0.750000 0.961602 0.250000
#
# Coordination Sequence:
#
# PCOD9539612 Si02
#       7
#    16   8  16  16  16  16  16
#     4  10  24  46  67  93 131 174 221 270 318 389
#     4  10  21  43  61  89 129 170 212 270 325 382
#     4  11  22  40  68  96 131 170 211 271 332 397
#     4  11  24  41  67  95 129 173 222 270 334 383
#     4  11  25  43  67  96 132 172 215 273 334 386
#     4  11  23  39  65  97 133 173 220 271 328 392
#     4  12  23  40  64  97 132 170 216 272 325 393
#
# _framework density 18.891393999999998
#
# number of rings (size 3 to 8) (size 9 to 14) (size 15 to 20)
#    0.000    1.077    5.385    1.154    4.308    3.077 
#    5.538    2.308    0.000    0.000    0.000    0.000 
#    0.000    0.000    0.000    0.000    0.000    0.000 
#
# Total GULP energy -289608.124855 kJ/mol
# GULP energy per Si atom -5569.387016 kJ/mol
# Density = 1.884840 g / cm^3
# Si number density = 18.891394 Si / 1000 Ang^3
#
#
#
# Elastic Constant Matrix: (Units=GPa)
#
#
# Indices 1 2 3 4 5 6 
#
# 1 117.6651 71.6240 48.0966 0.0000 0.0000 0.0000
# 2 71.6240 154.0313 30.0311 0.0000 0.0000 0.0000
# 3 48.0966 30.0311 34.5882 0.0000 0.0000 0.0000
# 4 0.0000 0.0000 0.0000 2.8063 0.0000 0.0000
# 5 0.0000 0.0000 0.0000 0.0000 29.3928 0.0000
# 6 0.0000 0.0000 0.0000 0.0000 0.0000 28.3141
#
#
#
# Elastic Compliance Matrix: (Units=1/GPa)
#
#
# Indices 1 2 3 4 5 6 
#
# 1 0.022824 -0.005327 -0.027112 0.000000 0.000000 0.000000
# 2 -0.005327 0.009058 -0.000458 0.000000 0.000000 0.000000
# 3 -0.027112 -0.000458 0.067010 0.000000 0.000000 0.000000
# 4 0.000000 0.000000 0.000000 0.356336 0.000000 0.000000
# 5 0.000000 0.000000 0.000000 0.000000 0.034022 0.000000
# 6 0.000000 0.000000 0.000000 0.000000 0.000000 0.035318
#
#
# Mechanical properties :
#
#
# Convention : Reuss Voigt Hill
#
# Bulk Modulus (GPa) = 30.21304 67.30977 48.76140
# Shear Modulus (GPa) = 8.31401 22.53817 15.42609
#
# Velocity S-wave (km/s) = 2.10012 3.45779 2.86066
# Velocity P-wave (km/s) = 4.68064 7.18672 6.06454
#
# Compressibility (1/GPa) = 0.03309829
#
# Stress axis : x y z
#
# Youngs Moduli (GPa) = 43.81421 110.39492 14.92316
#
# Poissons Ratio (x) = 0.58806 0.40460
# Poissons Ratio (y) = 0.23339 0.00683
# Poissons Ratio (z) = 1.18791 0.05052
#
# Static dielectric constant tensor:
#      x y z
#    x 1.643770 0.000000 0.000000 
#    y 0.000000 1.644030 0.000000 
#    z 0.000000 0.000000 1.643020 
# 
# From -- ./inp_files/34346.got.cif
#   From: 2010.05.17/outbox.cif.g08.bks.cpg/sg74_18_cif.got.tgz:34346.got - 2010.06.03 17:57:02.
