data_PCOD9539082
_publ_section_title
;
Structure prediction by ZEFSAII (Michael W. Deem and Ramdas Pophale) SiO2 
 PCOD9539082
Probable space group: I M M A
;
_chemical_formula_sum "Si O2"
_cell_formula_units_Z 80
_cell_length_a 16.578640
_cell_length_b 7.766637
_cell_length_c 29.890210
_cell_angle_alpha 90.000000
_cell_angle_beta 90.000000
_cell_angle_gamma 90.000000
_cell_volume 3848.671774
_symmetry_space_group_name_H-M "I M M A"
_symmetry_group_IT_number 74
_symmetry_cell_setting 'orthorhombic'
loop_
_space_group_symop_operation_xyz
x,y,z
-x,1/2-y,z
x,-y,-z
-x,1/2+y,-z
-x,-y,-z
x,1/2+y,-z
-x,y,z
x,1/2-y,z
1/2+x,1/2+y,1/2+z
1/2-x,-y,1/2+z
1/2+x,1/2-y,1/2-z
1/2-x,y,1/2-z
1/2-x,1/2-y,1/2-z
1/2+x,y,1/2-z
1/2-x,1/2+y,1/2+z
1/2+x,-y,1/2+z
loop_
_atom_site_type_symbol
_atom_site_label
_atom_site_fract_x
_atom_site_fract_y
_atom_site_fract_z
Si Si1 0.591708 0.546809 0.700980
Si Si2 0.666448 0.552278 0.790741
Si Si3 0.000000 0.448770 0.564096
Si Si4 0.679379 0.457840 0.950840
Si Si5 0.283396 0.053505 0.632441
Si Si6 0.000000 0.550394 0.329106
O O1 0.500000 0.476981 0.702577
O O2 0.586149 0.750000 0.710386
O O3 0.650590 0.480791 0.740783
O O4 0.635695 0.525460 0.653505
O O5 0.696156 0.750000 0.789600
O O6 0.720607 0.453721 0.826365
O O7 0.577712 0.544796 0.811303
O O8 0.913186 0.526257 0.551121
O O9 0.000000 0.250000 0.547506
O O10 0.000000 0.446077 0.617626
O O11 0.673774 0.250000 0.944931
O O12 0.736326 0.522637 0.910474
O O13 0.711744 0.500000 0.000000
O O14 0.302786 0.250000 0.621385
O O15 0.000000 0.750000 0.313682
#
# Coordination Sequence:
#
# PCOD9539082 Si02
#       6
#    16  16   8  16  16   8
#     4  10  22  40  58  80 113 149 185 231 280 328
#     4  11  21  36  56  82 115 153 192 227 269 328
#     4   9  17  34  54  76 113 149 179 222 270 312
#     4  10  21  37  56  80 111 145 182 228 277 328
#     4  11  23  38  57  84 114 146 186 233 279 328
#     4  11  19  32  54  80 117 156 187 231 275 314
#
# _framework density 20.786390999999998
#
# number of rings (size 3 to 8) (size 9 to 14) (size 15 to 20)
#    0.000    1.600    3.000    2.400    0.000    6.000 
#    0.000    0.000    0.000    0.600    0.000    0.000 
#    0.000    0.000    0.000    0.000    0.000    0.000 
#
# Total GULP energy -223241.023712 kJ/mol
# GULP energy per Si atom -5581.025593 kJ/mol
# Density = 2.073908 g / cm^3
# Si number density = 20.786391 Si / 1000 Ang^3
#
#
#
# Elastic Constant Matrix: (Units=GPa)
#
#
# Indices 1 2 3 4 5 6 
#
# 1 54.4488 -7.2504 54.5252 0.0000 0.0000 0.0000
# 2 -7.2504 39.5898 1.3348 0.0000 0.0000 0.0000
# 3 54.5252 1.3348 147.2836 0.0000 0.0000 0.0000
# 4 0.0000 0.0000 0.0000 19.4597 0.0000 0.0000
# 5 0.0000 0.0000 0.0000 0.0000 37.9080 0.0000
# 6 0.0000 0.0000 0.0000 0.0000 0.0000 21.1343
#
#
#
# Elastic Compliance Matrix: (Units=1/GPa)
#
#
# Indices 1 2 3 4 5 6 
#
# 1 0.030536 0.005975 -0.011359 0.000000 0.000000 0.000000
# 2 0.005975 0.026436 -0.002452 0.000000 0.000000 0.000000
# 3 -0.011359 -0.002452 0.011017 0.000000 0.000000 0.000000
# 4 0.000000 0.000000 0.000000 0.051388 0.000000 0.000000
# 5 0.000000 0.000000 0.000000 0.000000 0.026380 0.000000
# 6 0.000000 0.000000 0.000000 0.000000 0.000000 0.047316
#
#
# Mechanical properties :
#
#
# Convention : Reuss Voigt Hill
#
# Bulk Modulus (GPa) = 19.11354 37.61569 28.36461
# Shear Modulus (GPa) = 22.10592 28.54790 25.32691
#
# Velocity S-wave (km/s) = 3.26464 3.70995 3.49440
# Velocity P-wave (km/s) = 4.84001 6.04047 5.47325
#
# Compressibility (1/GPa) = 0.05231893
#
# Stress axis : x y z
#
# Youngs Moduli (GPa) = 32.74786 37.82717 90.76914
#
# Poissons Ratio (x) = -0.22603 1.03104
# Poissons Ratio (y) = -0.19568 0.22254
# Poissons Ratio (z) = 0.37198 0.09274
#
# Static dielectric constant tensor:
#      x y z
#    x 1.764810 0.000000 0.000000 
#    y 0.000000 1.771060 0.000000 
#    z 0.000000 0.000000 1.757760 
# 
# From -- ./inp_files/67566.got.cif
#   From: 2010.05.17/outbox.cif.g08.bks.cpg/sg74_34_cif.got.tgz:67566.got - 2010.06.03 17:57:02.
