data_PCOD9539803
_publ_section_title
;
Structure prediction by ZEFSAII (Michael W. Deem and Ramdas Pophale) SiO2 
 PCOD9539803
Probable space group: I M M A
;
_chemical_formula_sum "Si O2"
_cell_formula_units_Z 112
_cell_length_a 13.602188
_cell_length_b 21.334871
_cell_length_c 16.497440
_cell_angle_alpha 90.000000
_cell_angle_beta 90.000000
_cell_angle_gamma 90.000000
_cell_volume 4787.572370
_symmetry_space_group_name_H-M "I M M A"
_symmetry_group_IT_number 74
_symmetry_cell_setting 'orthorhombic'
loop_
_space_group_symop_operation_xyz
x,y,z
-x,1/2-y,z
x,-y,-z
-x,1/2+y,-z
-x,-y,-z
x,1/2+y,-z
-x,y,z
x,1/2-y,z
1/2+x,1/2+y,1/2+z
1/2-x,-y,1/2+z
1/2+x,1/2-y,1/2-z
1/2-x,y,1/2-z
1/2-x,1/2-y,1/2-z
1/2+x,y,1/2-z
1/2-x,1/2+y,1/2+z
1/2+x,-y,1/2+z
loop_
_atom_site_type_symbol
_atom_site_label
_atom_site_fract_x
_atom_site_fract_y
_atom_site_fract_z
Si Si1 0.116513 0.042475 0.746148
Si Si2 0.893868 0.173370 0.296862
Si Si3 0.190801 0.366251 0.946663
Si Si4 0.190790 0.674417 0.873544
Si Si5 0.382081 0.816872 0.291776
Si Si6 0.612934 0.445845 0.933510
Si Si7 0.610099 0.508455 0.411362
O O1 0.143630 0.116716 0.749275
O O2 0.133397 0.023192 0.654265
O O3 0.155472 0.000268 0.821473
O O4 0.000000 0.039039 0.759545
O O5 0.893578 0.250000 0.298747
O O6 0.875895 0.155889 0.202962
O O7 0.801155 0.153558 0.349884
O O8 0.000000 0.150689 0.325106
O O9 0.176461 0.315955 0.876671
O O10 0.300765 0.395167 0.946388
O O11 0.111885 0.416646 0.914292
O O12 0.163709 0.349561 0.038322
O O13 0.189901 0.750000 0.876362
O O14 0.500000 0.818426 0.304878
O O15 0.363049 0.750000 0.248493
O O16 0.500000 0.420345 0.931294
O O17 0.615989 0.500000 0.000000
O O18 0.659983 0.500000 0.500000
O O19 0.500000 0.481161 0.416088
#
# Coordination Sequence:
#
# PCOD9539803 Si02
#       7
#    16  16  16  16  16  16  16
#     4   8  16  34  57  78 106 146 189 236 286 338
#     4   8  15  30  50  67  90 134 181 214 254 305
#     4  11  20  32  51  79 110 142 179 226 278 334
#     4   9  18  31  47  72 104 133 171 222 266 319
#     4   9  18  33  55  85 119 152 185 225 280 347
#     4  10  22  40  58  75 100 142 196 243 283 335
#     4   9  18  33  53  79 109 137 171 223 289 352
#
# _framework density 23.393901
#
# number of rings (size 3 to 8) (size 9 to 14) (size 15 to 20)
#    0.000    2.857    0.000    3.000    0.000    4.000 
#    0.000    6.429    0.000    4.714    0.000    0.000 
#    0.000    0.000    0.000    0.000    0.000    0.571 
#
# Total GULP energy -311916.368667 kJ/mol
# GULP energy per Si atom -5569.935155 kJ/mol
# Density = 2.334066 g / cm^3
# Si number density = 23.393901 Si / 1000 Ang^3
#
#
#
# Elastic Constant Matrix: (Units=GPa)
#
#
# Indices 1 2 3 4 5 6 
#
# 1 122.7176 6.0541 -19.3008 0.0000 0.0000 0.0000
# 2 6.0541 38.0468 12.8304 0.0000 0.0000 0.0000
# 3 -19.3008 12.8304 152.4164 0.0001 0.0000 0.0000
# 4 0.0000 0.0000 0.0001 14.1208 0.0000 0.0000
# 5 0.0000 0.0000 0.0000 0.0000 11.2164 0.0000
# 6 0.0000 0.0000 0.0000 0.0000 0.0000 10.7430
#
#
#
# Elastic Compliance Matrix: (Units=1/GPa)
#
#
# Indices 1 2 3 4 5 6 
#
# 1 0.008426 -0.001750 0.001214 0.000000 0.000000 0.000000
# 2 -0.001750 0.027415 -0.002529 0.000000 0.000000 0.000000
# 3 0.001214 -0.002529 0.006928 0.000000 0.000000 0.000000
# 4 0.000000 0.000000 0.000000 0.070817 0.000000 0.000000
# 5 0.000000 0.000000 0.000000 0.000000 0.089155 0.000000
# 6 0.000000 0.000000 0.000000 0.000000 0.000000 0.093084
#
#
# Mechanical properties :
#
#
# Convention : Reuss Voigt Hill
#
# Bulk Modulus (GPa) = 27.29406 34.70534 30.99970
# Shear Modulus (GPa) = 15.91504 28.12253 22.01878
#
# Velocity S-wave (km/s) = 2.61110 3.47094 3.07126
# Velocity P-wave (km/s) = 4.55883 5.56153 5.08496
#
# Compressibility (1/GPa) = 0.03663801
#
# Stress axis : x y z
#
# Youngs Moduli (GPa) = 118.67849 36.47649 144.34857
#
# Poissons Ratio (x) = 0.06384 -0.17529
# Poissons Ratio (y) = 0.20772 0.36512
# Poissons Ratio (z) = -0.14412 0.09226
#
# Static dielectric constant tensor:
#      x y z
#    x 1.896440 0.000000 0.000000 
#    y 0.000000 1.970150 0.000000 
#    z 0.000000 0.000000 1.990050 
# 
# From -- ./inp_files/32702.got.cif
#   From: 2010.05.17/outbox.cif.g08.bks.cpg/sg74_17_cif.got.tgz:32702.got - 2010.06.03 17:57:02.
