data_PCOD9539999
_publ_section_title
;
Structure prediction by ZEFSAII (Michael W. Deem and Ramdas Pophale) SiO2 
 PCOD9539999
Probable space group: I M M A
;
_chemical_formula_sum "Si O2"
_cell_formula_units_Z 72
_cell_length_a 16.911010
_cell_length_b 23.040209
_cell_length_c 7.749873
_cell_angle_alpha 90.000000
_cell_angle_beta 90.000000
_cell_angle_gamma 90.000000
_cell_volume 3019.607854
_symmetry_space_group_name_H-M "I M M A"
_symmetry_group_IT_number 74
_symmetry_cell_setting 'orthorhombic'
loop_
_space_group_symop_operation_xyz
x,y,z
-x,1/2-y,z
x,-y,-z
-x,1/2+y,-z
-x,-y,-z
x,1/2+y,-z
-x,y,z
x,1/2-y,z
1/2+x,1/2+y,1/2+z
1/2-x,-y,1/2+z
1/2+x,1/2-y,1/2-z
1/2-x,y,1/2-z
1/2-x,1/2-y,1/2-z
1/2+x,y,1/2-z
1/2-x,1/2+y,1/2+z
1/2+x,-y,1/2+z
loop_
_atom_site_type_symbol
_atom_site_label
_atom_site_fract_x
_atom_site_fract_y
_atom_site_fract_z
Si Si1 0.585264 0.427394 0.505286
Si Si2 0.724920 0.500000 0.500000
Si Si3 0.161098 0.186596 0.051209
Si Si4 0.880753 0.057257 0.600017
Si Si5 0.656177 0.816928 0.967952
O O1 0.500000 0.441332 0.429019
O O2 0.661816 0.455951 0.412212
O O3 0.600110 0.360010 0.510603
O O4 0.589771 0.444524 0.705226
O O5 0.786929 0.542167 0.407471
O O6 0.138024 0.250000 0.993599
O O7 0.250637 0.176411 0.986703
O O8 0.157792 0.183777 0.259308
O O9 0.888136 0.123663 0.528058
O O10 0.913246 0.000000 0.500000
O O11 0.631654 0.750000 0.019836
#
# Coordination Sequence:
#
# PCOD9539999 Si02
#       5
#    16   8  16  16  16
#     4  12  25  40  60  92 126 161 202 256 320 370
#     4  10  23  40  61  86 120 164 206 254 299 372
#     4   9  19  36  61  92 122 159 208 260 308 361
#     4  10  23  38  66  92 124 160 211 257 310 364
#     4   9  18  36  64  93 120 158 213 262 301 356
#
# _framework density 23.844155000000001
#
# number of rings (size 3 to 8) (size 9 to 14) (size 15 to 20)
#    0.667    1.333    2.222    2.333    3.111    1.778 
#    0.000    3.333    0.000    1.333    0.000    0.000 
#    0.000    0.000    0.000    0.000    0.000    0.000 
#
# Total GULP energy -200487.806465 kJ/mol
# GULP energy per Si atom -5569.105735 kJ/mol
# Density = 2.378988 g / cm^3
# Si number density = 23.844155 Si / 1000 Ang^3
#
#
#
# Elastic Constant Matrix: (Units=GPa)
#
#
# Indices 1 2 3 4 5 6 
#
# 1 113.7758 33.6712 1.1508 0.0000 0.0000 0.0000
# 2 33.6712 213.6517 26.8825 0.0000 0.0000 0.0000
# 3 1.1508 26.8825 37.7862 0.0000 0.0000 0.0000
# 4 0.0000 0.0000 0.0000 37.1882 0.0000 0.0000
# 5 0.0000 0.0000 0.0000 0.0000 19.7486 0.0000
# 6 0.0000 0.0000 0.0000 0.0000 0.0000 -208.4084
#
#
#
# Elastic Compliance Matrix: (Units=1/GPa)
#
#
# Indices 1 2 3 4 5 6 
#
# 1 0.009243 -0.001561 0.000829 0.000000 0.000000 0.000000
# 2 -0.001561 0.005404 -0.003797 0.000000 0.000000 0.000000
# 3 0.000829 -0.003797 0.029141 0.000000 0.000000 0.000000
# 4 0.000000 0.000000 0.000000 0.026890 0.000000 0.000000
# 5 0.000000 0.000000 0.000000 0.000000 0.050636 0.000000
# 6 0.000000 0.000000 0.000000 0.000000 0.000000 -0.004798
#
#
# Mechanical properties :
#
#
# Convention : Reuss Voigt Hill
#
# Bulk Modulus (GPa) = 28.79387 54.29140 41.54263
# Shear Modulus (GPa) = 36.45606 -10.06037 13.19784
#
# Velocity S-wave (km/s) = 3.91440 -2.05630 2.35522
# Velocity P-wave (km/s) = 5.70369 4.14498 4.98563
#
# Compressibility (1/GPa) = 0.03472962
#
# Stress axis : x y z
#
# Youngs Moduli (GPa) = 108.19248 185.03759 34.31599
#
# Poissons Ratio (x) = 0.28884 -0.02845
# Poissons Ratio (y) = 0.16888 0.13031
# Poissons Ratio (z) = -0.08970 0.70264
#
# Static dielectric constant tensor:
#      x y z
#    x 1.896880 0.000000 0.000000 
#    y 0.000000 1.989060 0.000000 
#    z 0.000000 0.000000 1.954500 
# 
# From -- ./inp_files/10655.got.cif
#   From: 2010.05.17/outbox.cif.g08.bks.cpg/sg74_6_cif.got.tgz:10655.got - 2010.06.03 17:57:02.
