data_PCOD9539877
_publ_section_title
;
Structure prediction by ZEFSAII (Michael W. Deem and Ramdas Pophale) SiO2 
 PCOD9539877
Probable space group: I M M A
;
_chemical_formula_sum "Si O2"
_cell_formula_units_Z 88
_cell_length_a 10.341241
_cell_length_b 18.165014
_cell_length_c 22.168205
_cell_angle_alpha 90.000000
_cell_angle_beta 90.000000
_cell_angle_gamma 90.000000
_cell_volume 4164.270431
_symmetry_space_group_name_H-M "I M M A"
_symmetry_group_IT_number 74
_symmetry_cell_setting 'orthorhombic'
loop_
_space_group_symop_operation_xyz
x,y,z
-x,1/2-y,z
x,-y,-z
-x,1/2+y,-z
-x,-y,-z
x,1/2+y,-z
-x,y,z
x,1/2-y,z
1/2+x,1/2+y,1/2+z
1/2-x,-y,1/2+z
1/2+x,1/2-y,1/2-z
1/2-x,y,1/2-z
1/2-x,1/2-y,1/2-z
1/2+x,y,1/2-z
1/2-x,1/2+y,1/2+z
1/2+x,-y,1/2+z
loop_
_atom_site_type_symbol
_atom_site_label
_atom_site_fract_x
_atom_site_fract_y
_atom_site_fract_z
Si Si1 0.243400 0.914570 0.323127
Si Si2 0.000000 0.387060 0.023116
Si Si3 0.851201 0.159755 0.199397
Si Si4 0.753646 0.667249 0.573362
Si Si5 0.339840 0.750000 0.189729
Si Si6 0.000000 0.097549 0.485609
Si Si7 0.500000 0.538436 0.107116
Si Si8 0.000000 0.035066 0.894862
O O1 0.250000 0.920960 0.250000
O O2 0.204988 0.828720 0.338026
O O3 0.374377 0.943514 0.354912
O O4 0.125256 0.960442 0.351327
O O5 0.874434 0.339038 0.034357
O O6 0.000000 0.453909 0.073041
O O7 0.000000 0.416673 0.955714
O O8 0.856885 0.250000 0.198732
O O9 0.750000 0.137228 0.250000
O O10 0.788587 0.133487 0.137121
O O11 0.000000 0.134876 0.206947
O O12 0.791804 0.750000 0.587329
O O13 0.869045 0.632799 0.537482
O O14 0.500000 0.750000 0.197887
O O15 0.250000 0.750000 0.250000
O O16 0.000000 0.104017 0.558044
O O17 0.000000 0.024301 0.443700
#
# Coordination Sequence:
#
# PCOD9539877 Si02
#       8
#    16   8  16  16   8   8   8   8
#     4  11  23  43  70 101 137 169 218 276 341 400
#     4  11  23  46  65  89 132 176 230 262 334 394
#     4   9  18  33  56  83 117 161 202 247 317 382
#     4  11  22  41  64  94 129 166 214 287 333 378
#     4  10  22  40  68 100 142 180 208 266 345 412
#     4  11  25  42  67  91 130 178 224 262 336 400
#     4  11  23  47  67  91 129 182 218 266 327 405
#     4  11  25  43  69  95 125 184 220 266 325 409
#
# _framework density 21.132152999999999
#
# number of rings (size 3 to 8) (size 9 to 14) (size 15 to 20)
#    0.000    1.455    1.818    3.273    5.091    2.909 
#    9.818    5.455    0.000    0.000    0.000    0.000 
#    0.000    0.000    0.000    0.000    0.000    0.000 
#
# Total GULP energy -245277.136358 kJ/mol
# GULP energy per Si atom -5574.480372 kJ/mol
# Density = 2.108406 g / cm^3
# Si number density = 21.132153 Si / 1000 Ang^3
#
#
#
# Elastic Constant Matrix: (Units=GPa)
#
#
# Indices 1 2 3 4 5 6 
#
# 1 166.0588 -2.0372 67.7643 0.0000 0.0000 0.0000
# 2 -2.0372 24.3747 12.0116 0.0000 0.0000 0.0000
# 3 67.7643 12.0116 148.9225 0.0000 0.0000 0.0000
# 4 0.0000 0.0000 0.0000 14.8122 0.0000 0.0000
# 5 0.0000 0.0000 0.0000 0.0000 -53.6857 0.0000
# 6 0.0000 0.0000 0.0000 0.0000 0.0000 27.7406
#
#
#
# Elastic Compliance Matrix: (Units=1/GPa)
#
#
# Indices 1 2 3 4 5 6 
#
# 1 0.007529 0.002413 -0.003621 0.000000 0.000000 0.000000
# 2 0.002413 0.043498 -0.004607 0.000000 0.000000 0.000000
# 3 -0.003621 -0.004607 0.008734 0.000000 0.000000 0.000000
# 4 0.000000 0.000000 0.000000 0.067512 0.000000 0.000000
# 5 0.000000 0.000000 0.000000 0.000000 -0.018627 0.000000
# 6 0.000000 0.000000 0.000000 0.000000 0.000000 0.036048
#
#
# Mechanical properties :
#
#
# Convention : Reuss Voigt Hill
#
# Bulk Modulus (GPa) = 20.77561 54.98151 37.87856
# Shear Modulus (GPa) = 29.00806 15.21458 22.11132
#
# Velocity S-wave (km/s) = 3.70901 2.68614 3.23822
# Velocity P-wave (km/s) = 5.30990 5.97452 5.65199
#
# Compressibility (1/GPa) = 0.04813336
#
# Stress axis : x y z
#
# Youngs Moduli (GPa) = 132.81885 22.98963 114.49577
#
# Poissons Ratio (x) = -0.05548 0.41454
# Poissons Ratio (y) = -0.32055 0.52744
# Poissons Ratio (z) = 0.48089 0.10590
#
# Static dielectric constant tensor:
#      x y z
#    x 1.702540 0.000000 0.000000 
#    y 0.000000 2.562080 0.000000 
#    z 0.000000 0.000000 1.634840 
# 
# From -- ./inp_files/57105.got.cif
#   From: 2010.05.17/outbox.cif.g08.bks.cpg/sg74_29_cif.got.tgz:57105.got - 2010.06.03 17:57:02.
