data_PCOD9539655
_publ_section_title
;
Structure prediction by ZEFSAII (Michael W. Deem and Ramdas Pophale) SiO2 
 PCOD9539655
Probable space group: I M M A
;
_chemical_formula_sum "Si O2"
_cell_formula_units_Z 88
_cell_length_a 16.396933
_cell_length_b 15.941143
_cell_length_c 14.984897
_cell_angle_alpha 90.000000
_cell_angle_beta 90.000000
_cell_angle_gamma 90.000000
_cell_volume 3916.840095
_symmetry_space_group_name_H-M "I M M A"
_symmetry_group_IT_number 74
_symmetry_cell_setting 'orthorhombic'
loop_
_space_group_symop_operation_xyz
x,y,z
-x,1/2-y,z
x,-y,-z
-x,1/2+y,-z
-x,-y,-z
x,1/2+y,-z
-x,y,z
x,1/2-y,z
1/2+x,1/2+y,1/2+z
1/2-x,-y,1/2+z
1/2+x,1/2-y,1/2-z
1/2-x,y,1/2-z
1/2-x,1/2-y,1/2-z
1/2+x,y,1/2-z
1/2-x,1/2+y,1/2+z
1/2+x,-y,1/2+z
loop_
_atom_site_type_symbol
_atom_site_label
_atom_site_fract_x
_atom_site_fract_y
_atom_site_fract_z
Si Si1 0.169835 0.391670 0.302583
Si Si2 0.000000 0.848746 0.246707
Si Si3 0.706661 0.549334 0.092953
Si Si4 0.636304 0.657371 0.402179
Si Si5 0.591039 0.653661 0.986492
Si Si6 0.000000 0.350577 0.050556
Si Si7 0.500000 0.551878 0.725957
O O1 0.250000 0.357727 0.250000
O O2 0.190504 0.486634 0.328030
O O3 0.148719 0.352322 0.399298
O O4 0.082565 0.398329 0.254350
O O5 0.920869 0.843943 0.183851
O O6 0.000000 0.750000 0.291210
O O7 0.000000 0.954548 0.263640
O O8 0.789423 0.596543 0.108611
O O9 0.716673 0.500000 0.000000
O O10 0.629453 0.607179 0.070826
O O11 0.671317 0.750000 0.414839
O O12 0.578785 0.640467 0.487087
O O13 0.500000 0.619785 0.965600
O O14 0.584571 0.750000 0.008345
O O15 0.000000 0.427738 0.119998
O O16 0.000000 0.250000 0.081932
#
# Coordination Sequence:
#
# PCOD9539655 Si02
#       7
#    16   8  16  16  16   8   8
#     4  11  25  41  60  93 126 164 208 249 309 384
#     4   9  20  36  56  83 120 162 207 254 308 370
#     4  10  22  36  62  85 117 155 212 251 298 356
#     4   9  18  36  58  88 120 149 198 262 308 361
#     4  10  22  42  66  90 118 159 209 261 314 364
#     4   9  22  36  58  95 126 156 201 248 316 392
#     4  12  24  39  63  82 132 174 198 250 322 370
#
# _framework density 22.467089999999999
#
# number of rings (size 3 to 8) (size 9 to 14) (size 15 to 20)
#    0.000    2.000    0.909    2.727    8.909    2.909 
#    0.000    1.818    0.000    4.909    0.000    0.000 
#    0.000    0.000    0.000    0.000    0.000    0.000 
#
# Total GULP energy -245150.476215 kJ/mol
# GULP energy per Si atom -5571.601732 kJ/mol
# Density = 2.241595 g / cm^3
# Si number density = 22.467090 Si / 1000 Ang^3
#
#
#
# Elastic Constant Matrix: (Units=GPa)
#
#
# Indices 1 2 3 4 5 6 
#
# 1 122.1959 30.2560 7.5432 0.0000 0.0000 0.0000
# 2 30.2560 62.9210 2.2431 0.0000 0.0000 0.0000
# 3 7.5432 2.2431 36.8352 0.0000 0.0000 0.0000
# 4 0.0000 0.0000 0.0000 63.3843 0.0000 0.0000
# 5 0.0000 0.0000 0.0000 0.0000 -22.1006 0.0000
# 6 0.0000 0.0000 0.0000 0.0000 0.0000 40.5579
#
#
#
# Elastic Compliance Matrix: (Units=1/GPa)
#
#
# Indices 1 2 3 4 5 6 
#
# 1 0.009389 -0.004456 -0.001651 0.000000 0.000000 0.000000
# 2 -0.004456 0.018042 -0.000186 0.000000 0.000000 0.000000
# 3 -0.001651 -0.000186 0.027497 0.000000 0.000000 0.000000
# 4 0.000000 0.000000 0.000000 0.015777 0.000000 0.000000
# 5 0.000000 0.000000 0.000000 0.000000 -0.045248 0.000000
# 6 0.000000 0.000000 0.000000 0.000000 0.000000 0.024656
#
#
# Mechanical properties :
#
#
# Convention : Reuss Voigt Hill
#
# Bulk Modulus (GPa) = 23.61735 33.55963 28.58849
# Shear Modulus (GPa) = 65.09207 28.49563 46.79385
#
# Velocity S-wave (km/s) = 5.38842 3.56522 4.56869
# Velocity P-wave (km/s) = 7.01771 5.64955 6.37047
#
# Compressibility (1/GPa) = 0.04234175
#
# Stress axis : x y z
#
# Youngs Moduli (GPa) = 106.51008 55.42570 36.36704
#
# Poissons Ratio (x) = 0.24697 0.06005
# Poissons Ratio (y) = 0.47459 0.00677
# Poissons Ratio (z) = 0.17588 0.01032
#
# Static dielectric constant tensor:
#      x y z
#    x 1.980130 0.000000 0.000000 
#    y 0.000000 1.900790 0.000000 
#    z 0.000000 0.000000 1.830470 
# 
# From -- ./inp_files/42841.got.cif
#   From: 2010.05.17/outbox.cif.g08.bks.cpg/sg74_22_cif.got.tgz:42841.got - 2010.06.03 17:57:02.
