data_PCOD9539343
_publ_section_title
;
Structure prediction by ZEFSAII (Michael W. Deem and Ramdas Pophale) SiO2 
 PCOD9539343
Probable space group: I M M A
;
_chemical_formula_sum "Si O2"
_cell_formula_units_Z 80
_cell_length_a 25.072723
_cell_length_b 13.754489
_cell_length_c 9.831996
_cell_angle_alpha 90.000000
_cell_angle_beta 90.000000
_cell_angle_gamma 90.000000
_cell_volume 3390.686649
_symmetry_space_group_name_H-M "I M M A"
_symmetry_group_IT_number 74
_symmetry_cell_setting 'orthorhombic'
loop_
_space_group_symop_operation_xyz
x,y,z
-x,1/2-y,z
x,-y,-z
-x,1/2+y,-z
-x,-y,-z
x,1/2+y,-z
-x,y,z
x,1/2-y,z
1/2+x,1/2+y,1/2+z
1/2-x,-y,1/2+z
1/2+x,1/2-y,1/2-z
1/2-x,y,1/2-z
1/2-x,1/2-y,1/2-z
1/2+x,y,1/2-z
1/2-x,1/2+y,1/2+z
1/2+x,-y,1/2+z
loop_
_atom_site_type_symbol
_atom_site_label
_atom_site_fract_x
_atom_site_fract_y
_atom_site_fract_z
Si Si1 0.827078 0.641331 0.263499
Si Si2 0.671982 0.078691 0.306638
Si Si3 0.940221 0.632754 0.924941
Si Si4 0.556967 0.133421 0.743744
Si Si5 0.271779 0.112009 0.033619
O O1 0.830414 0.750000 0.195738
O O2 0.814133 0.537830 0.191795
O O3 0.887136 0.615694 0.316503
O O4 0.711492 0.655139 0.109230
O O5 0.610734 0.093459 0.345066
O O6 0.688471 0.124716 0.161543
O O7 0.712226 0.129381 0.412804
O O8 0.937750 0.750000 0.918874
O O9 0.000000 0.604470 0.878244
O O10 0.936346 0.605144 0.084733
O O11 0.500000 0.094861 0.795194
O O12 0.552502 0.250000 0.743553
O O13 0.277213 0.000000 0.000000
#
# Coordination Sequence:
#
# PCOD9539343 Si02
#       5
#    16  16  16  16  16
#     4  10  21  38  61  90 122 159 204 250 302 369
#     4  10  21  38  62  85 123 164 201 252 309 361
#     4   9  19  36  59  89 124 162 206 253 305 365
#     4   8  16  33  56  87 125 158 195 246 301 360
#     4   9  21  40  56  81 119 160 201 249 298 359
#
# _framework density 23.594041000000001
#
# number of rings (size 3 to 8) (size 9 to 14) (size 15 to 20)
#    0.000    2.800    0.000    1.200    2.800    2.400 
#    0.000   13.000    0.000    7.200    0.000    0.000 
#    0.000    0.000    0.000    0.000    0.000    0.000 
#
# Total GULP energy -223134.664671 kJ/mol
# GULP energy per Si atom -5578.366617 kJ/mol
# Density = 2.354034 g / cm^3
# Si number density = 23.594041 Si / 1000 Ang^3
#
#
#
# Elastic Constant Matrix: (Units=GPa)
#
#
# Indices 1 2 3 4 5 6 
#
# 1 198.3421 31.8923 49.0411 0.0000 0.0000 0.0000
# 2 31.8923 116.3968 9.6256 0.0000 0.0000 0.0000
# 3 49.0411 9.6256 52.7217 0.0000 0.0000 0.0000
# 4 0.0000 0.0000 0.0000 12.2342 0.0000 0.0000
# 5 0.0000 0.0000 0.0000 0.0000 29.6171 0.0000
# 6 0.0000 0.0000 0.0000 0.0000 0.0000 32.1903
#
#
#
# Elastic Compliance Matrix: (Units=1/GPa)
#
#
# Indices 1 2 3 4 5 6 
#
# 1 0.006751 -0.001351 -0.006033 0.000000 0.000000 0.000000
# 2 -0.001351 0.008993 -0.000385 0.000000 0.000000 0.000000
# 3 -0.006033 -0.000385 0.024649 0.000000 0.000000 0.000000
# 4 0.000000 0.000000 0.000000 0.081738 0.000000 0.000000
# 5 0.000000 0.000000 0.000000 0.000000 0.033764 0.000000
# 6 0.000000 0.000000 0.000000 0.000000 0.000000 0.031065
#
#
# Mechanical properties :
#
#
# Convention : Reuss Voigt Hill
#
# Bulk Modulus (GPa) = 40.23265 60.95317 50.59291
# Shear Modulus (GPa) = 23.72098 33.26844 28.49471
#
# Velocity S-wave (km/s) = 3.17421 3.75912 3.47898
# Velocity P-wave (km/s) = 5.52478 6.68816 6.13411
#
# Compressibility (1/GPa) = 0.02485544
#
# Stress axis : x y z
#
# Youngs Moduli (GPa) = 148.13483 111.19413 40.56883
#
# Poissons Ratio (x) = 0.15020 0.24474
# Poissons Ratio (y) = 0.20009 0.01564
# Poissons Ratio (z) = 0.89366 0.04286
#
# Static dielectric constant tensor:
#      x y z
#    x 1.950780 0.000000 0.000000 
#    y 0.000000 1.962310 0.000000 
#    z 0.000000 0.000000 1.889430 
# 
# From -- ./inp_files/20487.got.cif
#   From: 2010.05.17/outbox.cif.g08.bks.cpg/sg74_11_cif.got.tgz:20487.got - 2010.06.03 17:57:02.
