data_PCOD9539530
_publ_section_title
;
Structure prediction by ZEFSAII (Michael W. Deem and Ramdas Pophale) SiO2 
 PCOD9539530
Probable space group: I M M A
;
_chemical_formula_sum "Si O2"
_cell_formula_units_Z 68
_cell_length_a 23.572111
_cell_length_b 7.735660
_cell_length_c 17.004442
_cell_angle_alpha 90.000000
_cell_angle_beta 90.000000
_cell_angle_gamma 90.000000
_cell_volume 3100.689195
_symmetry_space_group_name_H-M "I M M A"
_symmetry_group_IT_number 74
_symmetry_cell_setting 'orthorhombic'
loop_
_space_group_symop_operation_xyz
x,y,z
-x,1/2-y,z
x,-y,-z
-x,1/2+y,-z
-x,-y,-z
x,1/2+y,-z
-x,y,z
x,1/2-y,z
1/2+x,1/2+y,1/2+z
1/2-x,-y,1/2+z
1/2+x,1/2-y,1/2-z
1/2-x,y,1/2-z
1/2-x,1/2-y,1/2-z
1/2+x,y,1/2-z
1/2-x,1/2+y,1/2+z
1/2+x,-y,1/2+z
loop_
_atom_site_type_symbol
_atom_site_label
_atom_site_fract_x
_atom_site_fract_y
_atom_site_fract_z
Si Si1 0.827847 0.047010 0.591183
Si Si2 0.000000 0.750000 0.071242
Si Si3 0.560717 0.456234 0.187159
Si Si4 0.705185 0.543032 0.407458
Si Si5 0.419567 0.049822 0.369619
O O1 0.819496 0.250000 0.592613
O O2 0.766944 0.975829 0.620803
O O3 0.836961 0.000000 0.500000
O O4 0.883090 0.009356 0.641818
O O5 0.049420 0.595597 0.078920
O O6 0.500000 0.526159 0.157008
O O7 0.558920 0.250000 0.180764
O O8 0.564378 0.494985 0.279689
O O9 0.705032 0.500000 0.500000
O O10 0.700617 0.750000 0.395574
O O11 0.648293 0.461397 0.373986
O O12 0.436317 0.250000 0.387482
#
# Coordination Sequence:
#
# PCOD9539530 Si02
#       5
#    16   4  16  16  16
#     4  10  22  38  61  89 120 158 203 251 306 364
#     4  12  22  40  66  88 132 160 204 248 306 362
#     4  10  22  39  60  86 122 160 201 249 305 364
#     4  10  21  40  63  89 122 159 202 256 306 359
#     4  11  23  40  65  92 123 164 205 249 306 362
#
# _framework density 21.930610000000001
#
# number of rings (size 3 to 8) (size 9 to 14) (size 15 to 20)
#    0.000    1.647    2.353    1.765    1.647    4.706 
#    0.000    5.294    0.000    0.000    0.000    0.000 
#    0.000    0.000    0.000    0.000    0.000    0.000 
#
# Total GULP energy -189377.676722 kJ/mol
# GULP energy per Si atom -5569.931668 kJ/mol
# Density = 2.188069 g / cm^3
# Si number density = 21.930610 Si / 1000 Ang^3
#
#
#
# Elastic Constant Matrix: (Units=GPa)
#
#
# Indices 1 2 3 4 5 6 
#
# 1 233.6388 39.2603 49.6950 0.0000 0.0000 0.0000
# 2 39.2603 91.9708 24.9741 0.0000 0.0000 0.0000
# 3 49.6950 24.9741 32.0436 0.0000 0.0000 0.0000
# 4 0.0000 0.0000 0.0000 18.0143 0.0000 0.0000
# 5 0.0000 0.0000 0.0000 0.0000 22.5967 0.0000
# 6 0.0000 0.0000 0.0000 0.0000 0.0000 16.2476
#
#
#
# Elastic Compliance Matrix: (Units=1/GPa)
#
#
# Indices 1 2 3 4 5 6 
#
# 1 0.006387 -0.000047 -0.009869 0.000000 0.000000 0.000000
# 2 -0.000047 0.013792 -0.010677 0.000000 0.000000 0.000000
# 3 -0.009869 -0.010677 0.054835 0.000000 0.000000 0.000000
# 4 0.000000 0.000000 0.000000 0.055511 0.000000 0.000000
# 5 0.000000 0.000000 0.000000 0.000000 0.044254 0.000000
# 6 0.000000 0.000000 0.000000 0.000000 0.000000 0.061547
#
#
# Mechanical properties :
#
#
# Convention : Reuss Voigt Hill
#
# Bulk Modulus (GPa) = 29.56112 65.05690 47.30901
# Shear Modulus (GPa) = 17.31370 27.61999 22.46685
#
# Velocity S-wave (km/s) = 2.81281 3.55269 3.20418
# Velocity P-wave (km/s) = 4.90488 6.82335 5.94205
#
# Compressibility (1/GPa) = 0.03382822
#
# Stress axis : x y z
#
# Youngs Moduli (GPa) = 156.56513 72.50476 18.23667
#
# Poissons Ratio (x) = 0.00338 0.17998
# Poissons Ratio (y) = 0.00730 0.19471
# Poissons Ratio (z) = 1.54517 0.77414
#
# Static dielectric constant tensor:
#      x y z
#    x 1.818720 0.000000 0.000000 
#    y 0.000000 1.812720 0.000000 
#    z 0.000000 0.000000 1.779570 
# 
# From -- ./inp_files/39182.got.cif
#   From: 2010.05.17/outbox.cif.g08.bks.cpg/sg74_20_cif.got.tgz:39182.got - 2010.06.03 17:57:02.
