data_PCOD9539603
_publ_section_title
;
Structure prediction by ZEFSAII (Michael W. Deem and Ramdas Pophale) SiO2 
 PCOD9539603
Probable space group: I M M A
;
_chemical_formula_sum "Si O2"
_cell_formula_units_Z 84
_cell_length_a 15.001215
_cell_length_b 27.462966
_cell_length_c 11.804537
_cell_angle_alpha 90.000000
_cell_angle_beta 90.000000
_cell_angle_gamma 90.000000
_cell_volume 4863.207862
_symmetry_space_group_name_H-M "I M M A"
_symmetry_group_IT_number 74
_symmetry_cell_setting 'orthorhombic'
loop_
_space_group_symop_operation_xyz
x,y,z
-x,1/2-y,z
x,-y,-z
-x,1/2+y,-z
-x,-y,-z
x,1/2+y,-z
-x,y,z
x,1/2-y,z
1/2+x,1/2+y,1/2+z
1/2-x,-y,1/2+z
1/2+x,1/2-y,1/2-z
1/2-x,y,1/2-z
1/2-x,1/2-y,1/2-z
1/2+x,y,1/2-z
1/2-x,1/2+y,1/2+z
1/2+x,-y,1/2+z
loop_
_atom_site_type_symbol
_atom_site_label
_atom_site_fract_x
_atom_site_fract_y
_atom_site_fract_z
Si Si1 0.143794 0.918369 0.753217
Si Si2 0.095441 0.649481 0.547007
Si Si3 0.000000 0.250000 0.432412
Si Si4 0.898528 0.981977 0.370694
Si Si5 0.897948 0.941944 0.006196
Si Si6 0.733053 0.392924 0.870694
O O1 0.250000 0.914037 0.750000
O O2 0.107915 0.878049 0.666320
O O3 0.108962 0.918563 0.881005
O O4 0.118658 0.971106 0.705183
O O5 0.176989 0.637165 0.463967
O O6 0.000000 0.630249 0.498136
O O7 0.076406 0.706338 0.564618
O O8 0.829161 0.939713 0.346744
O O9 0.000000 0.966134 0.353737
O O10 0.887318 0.000000 0.500000
O O11 0.000000 0.938323 0.047554
O O12 0.825225 0.913623 0.079698
O O13 0.875877 0.000000 0.000000
O O14 0.750000 0.367482 0.750000
#
# Coordination Sequence:
#
# PCOD9539603 Si02
#       6
#    16  16   4  16  16  16
#     4  12  20  35  62  88 126 165 200 243 301 369
#     4  10  21  42  66  90 114 155 203 262 326 374
#     4   8  24  44  72  90 118 140 204 282 340 374
#     4  11  20  31  52  89 126 165 206 246 283 349
#     4  11  23  37  52  84 135 177 201 233 288 353
#     4  12  23  36  58  89 124 165 209 252 294 366
#
# _framework density 17.272549000000001
#
# number of rings (size 3 to 8) (size 9 to 14) (size 15 to 20)
#    0.571    0.381    3.810    5.714    0.000    3.048 
#    0.000    0.952    0.000    0.000    0.000    0.000 
#    0.000    0.000    0.000    0.000    0.000    0.000 
#
# Total GULP energy -233909.918338 kJ/mol
# GULP energy per Si atom -5569.283770 kJ/mol
# Density = 1.723324 g / cm^3
# Si number density = 17.272549 Si / 1000 Ang^3
#
#
#
# Elastic Constant Matrix: (Units=GPa)
#
#
# Indices 1 2 3 4 5 6 
#
# 1 83.6504 21.2396 15.2320 0.0001 0.0000 0.0002
# 2 21.2396 101.0147 29.8154 0.0001 0.0000 0.0002
# 3 15.2320 29.8154 86.8106 0.0002 -0.0001 0.0006
# 4 0.0001 0.0001 0.0002 1.7515 0.0000 0.0002
# 5 0.0000 0.0000 -0.0001 0.0000 60.3483 0.0000
# 6 0.0002 0.0002 0.0006 0.0002 0.0000 -80.4090
#
#
#
# Elastic Compliance Matrix: (Units=1/GPa)
#
#
# Indices 1 2 3 4 5 6 
#
# 1 0.012795 -0.002256 -0.001470 0.000000 0.000000 0.000000
# 2 -0.002256 0.011414 -0.003524 0.000000 0.000000 0.000000
# 3 -0.001470 -0.003524 0.012988 -0.000001 0.000000 0.000000
# 4 0.000000 0.000000 -0.000001 0.570948 0.000000 0.000001
# 5 0.000000 0.000000 0.000000 0.000000 0.016570 0.000000
# 6 0.000000 0.000000 0.000000 0.000001 0.000000 -0.012436
#
#
# Mechanical properties :
#
#
# Convention : Reuss Voigt Hill
#
# Bulk Modulus (GPa) = 44.06184 44.89442 44.47813
# Shear Modulus (GPa) = 7.88213 10.01741 8.94977
#
# Velocity S-wave (km/s) = 2.13853 2.41085 2.27876
# Velocity P-wave (km/s) = 5.62698 5.81359 5.72104
#
# Compressibility (1/GPa) = 0.02269537
#
# Stress axis : x y z
#
# Youngs Moduli (GPa) = 78.15471 87.60990 76.99576
#
# Poissons Ratio (x) = 0.19769 0.11319
# Poissons Ratio (y) = 0.17635 0.27136
# Poissons Ratio (z) = 0.11489 0.30877
#
# Static dielectric constant tensor:
#      x y z
#    x 1.616160 0.000000 0.000000 
#    y 0.000000 1.539840 0.000000 
#    z 0.000000 0.000000 1.653780 
# 
# From -- ./inp_files/20997.got.cif
#   From: 2010.05.17/outbox.cif.g08.bks.cpg/sg74_11_cif.got.tgz:20997.got - 2010.06.03 17:57:02.
