data_PCOD9539898
_publ_section_title
;
Structure prediction by ZEFSAII (Michael W. Deem and Ramdas Pophale) SiO2 
 PCOD9539898
Probable space group: I M M A
;
_chemical_formula_sum "Si O2"
_cell_formula_units_Z 92
_cell_length_a 12.421804
_cell_length_b 20.115808
_cell_length_c 20.064169
_cell_angle_alpha 90.000000
_cell_angle_beta 90.000000
_cell_angle_gamma 90.000000
_cell_volume 5013.526690
_symmetry_space_group_name_H-M "I M M A"
_symmetry_group_IT_number 74
_symmetry_cell_setting 'orthorhombic'
loop_
_space_group_symop_operation_xyz
x,y,z
-x,1/2-y,z
x,-y,-z
-x,1/2+y,-z
-x,-y,-z
x,1/2+y,-z
-x,y,z
x,1/2-y,z
1/2+x,1/2+y,1/2+z
1/2-x,-y,1/2+z
1/2+x,1/2-y,1/2-z
1/2-x,y,1/2-z
1/2-x,1/2-y,1/2-z
1/2+x,y,1/2-z
1/2-x,1/2+y,1/2+z
1/2+x,-y,1/2+z
loop_
_atom_site_type_symbol
_atom_site_label
_atom_site_fract_x
_atom_site_fract_y
_atom_site_fract_z
Si Si1 0.250000 0.250000 0.250000
Si Si2 0.286005 0.493552 0.174458
Si Si3 0.123408 0.371599 0.612570
Si Si4 0.741474 0.672785 0.979250
Si Si5 0.377931 0.850733 0.845120
Si Si6 0.372882 0.951545 0.560539
Si Si7 0.372089 0.750000 0.215421
O O1 0.298186 0.192282 0.199803
O O2 0.250000 0.505453 0.250000
O O3 0.340392 0.558535 0.143360
O O4 0.360986 0.428557 0.170097
O O5 0.185241 0.474768 0.127553
O O6 0.196227 0.349827 0.550430
O O7 0.129379 0.315228 0.669184
O O8 0.000000 0.376014 0.589484
O O9 0.772826 0.750000 0.980916
O O10 0.651488 0.662664 0.922097
O O11 0.835765 0.622753 0.957571
O O12 0.500000 0.831512 0.830509
O O13 0.500000 0.955555 0.567585
O O14 0.338576 0.000000 0.500000
O O15 0.500000 0.750000 0.245828
O O16 0.250000 0.750000 0.250000
#
# Coordination Sequence:
#
# PCOD9539898 Si02
#       7
#     4  16  16  16  16  16   8
#     4  12  22  42  56  90 124 162 200 244 306 382
#     4  11  23  42  61  94 128 163 214 263 317 387
#     4  11  22  38  65  93 125 166 211 267 325 384
#     4  11  22  40  64  93 125 157 210 265 315 379
#     4  11  24  41  63  90 124 161 203 256 315 373
#     4  10  22  42  64  87 122 170 212 260 321 383
#     4  10  22  41  62  92 130 173 220 272 329 392
#
# _framework density 18.350356000000001
#
# number of rings (size 3 to 8) (size 9 to 14) (size 15 to 20)
#    0.000    1.217    4.348    1.826    0.000    2.435 
#    0.000    5.217    0.000    0.000    0.000    0.000 
#    0.000    0.000    0.000    0.000    0.000    0.000 
#
# Total GULP energy -256173.777403 kJ/mol
# GULP energy per Si atom -5568.995161 kJ/mol
# Density = 1.830859 g / cm^3
# Si number density = 18.350356 Si / 1000 Ang^3
#
#
#
# Elastic Constant Matrix: (Units=GPa)
#
#
# Indices 1 2 3 4 5 6 
#
# 1 57.2445 13.3748 29.3495 0.0000 0.0000 0.0000
# 2 13.3748 150.9638 22.3783 0.0000 0.0000 0.0000
# 3 29.3495 22.3783 87.8908 0.0000 0.0000 0.0000
# 4 0.0000 0.0000 0.0000 25.3638 0.0000 0.0000
# 5 0.0000 0.0000 0.0000 0.0000 2.4914 0.0000
# 6 0.0000 0.0000 0.0000 0.0000 0.0000 -13.2745
#
#
#
# Elastic Compliance Matrix: (Units=1/GPa)
#
#
# Indices 1 2 3 4 5 6 
#
# 1 0.021185 -0.000861 -0.006855 0.000000 0.000000 0.000000
# 2 -0.000861 0.006919 -0.001474 0.000000 0.000000 0.000000
# 3 -0.006855 -0.001474 0.014042 0.000000 0.000000 0.000000
# 4 0.000000 0.000000 0.000000 0.039426 0.000000 0.000000
# 5 0.000000 0.000000 0.000000 0.000000 0.401379 0.000000
# 6 0.000000 0.000000 0.000000 0.000000 0.000000 -0.075332
#
#
# Mechanical properties :
#
#
# Convention : Reuss Voigt Hill
#
# Bulk Modulus (GPa) = 42.07735 47.36715 44.72225
# Shear Modulus (GPa) = 11.52284 18.31591 14.91937
#
# Velocity S-wave (km/s) = 2.50858 3.16274 2.85446
# Velocity P-wave (km/s) = 5.60093 6.26146 5.94038
#
# Compressibility (1/GPa) = 0.02376576
#
# Stress axis : x y z
#
# Youngs Moduli (GPa) = 47.20397 144.53181 71.21369
#
# Poissons Ratio (x) = 0.12440 0.48818
# Poissons Ratio (y) = 0.04063 0.10499
# Poissons Ratio (z) = 0.32359 0.21307
#
# Static dielectric constant tensor:
#      x y z
#    x 1.639070 0.000000 0.000000 
#    y 0.000000 1.598330 0.000000 
#    z 0.000000 0.000000 1.607060 
# 
# From -- ./inp_files/50571.got.cif
#   From: 2010.05.17/outbox.cif.g08.bks.cpg/sg74_26_cif.got.tgz:50571.got - 2010.06.03 17:57:02.
