data_PCOD9539174
_publ_section_title
;
Structure prediction by ZEFSAII (Michael W. Deem and Ramdas Pophale) SiO2 
 PCOD9539174
Probable space group: I M M A
;
_chemical_formula_sum "Si O2"
_cell_formula_units_Z 64
_cell_length_a 26.615781
_cell_length_b 16.881121
_cell_length_c 7.476479
_cell_angle_alpha 90.000000
_cell_angle_beta 90.000000
_cell_angle_gamma 90.000000
_cell_volume 3359.213562
_symmetry_space_group_name_H-M "I M M A"
_symmetry_group_IT_number 74
_symmetry_cell_setting 'orthorhombic'
loop_
_space_group_symop_operation_xyz
x,y,z
-x,1/2-y,z
x,-y,-z
-x,1/2+y,-z
-x,-y,-z
x,1/2+y,-z
-x,y,z
x,1/2-y,z
1/2+x,1/2+y,1/2+z
1/2-x,-y,1/2+z
1/2+x,1/2-y,1/2-z
1/2-x,y,1/2-z
1/2-x,1/2-y,1/2-z
1/2+x,y,1/2-z
1/2-x,1/2+y,1/2+z
1/2+x,-y,1/2+z
loop_
_atom_site_type_symbol
_atom_site_label
_atom_site_fract_x
_atom_site_fract_y
_atom_site_fract_z
Si Si1 0.098276 0.575704 0.109318
Si Si2 0.864847 0.841068 0.774946
Si Si3 0.056906 0.344254 0.541949
Si Si4 0.192738 0.993283 0.710301
O O1 0.067797 0.606322 0.279201
O O2 0.152249 0.546527 0.185705
O O3 0.077074 0.500000 0.000000
O O4 0.107287 0.643337 0.962461
O O5 0.849972 0.750000 0.756760
O O6 0.903159 0.862205 0.613889
O O7 0.819443 0.903112 0.766077
O O8 0.061436 0.250000 0.580970
O O9 0.000000 0.359249 0.479903
O O10 0.250000 0.015010 0.750000
O O11 0.183792 0.000000 0.500000
#
# Coordination Sequence:
#
# PCOD9539174 Si02
#       4
#    16  16  16  16
#     4  10  21  37  59  87 118 157 195 245 293 347
#     4  10  21  38  60  86 119 155 198 245 292 348
#     4  10  21  38  60  86 121 161 197 242 298 348
#     4  11  21  39  61  85 117 155 195 242 299 350
#
# _framework density 19.052078000000002
#
# number of rings (size 3 to 8) (size 9 to 14) (size 15 to 20)
#    0.000    1.750    2.500    3.000    0.000    2.000 
#    0.000   11.250    0.000    3.750    0.000    0.000 
#    0.000    0.000    0.000    0.000    0.000    0.000 
#
# Total GULP energy -178637.536714 kJ/mol
# GULP energy per Si atom -5582.423022 kJ/mol
# Density = 1.900871 g / cm^3
# Si number density = 19.052078 Si / 1000 Ang^3
#
#
#
# Elastic Constant Matrix: (Units=GPa)
#
#
# Indices 1 2 3 4 5 6 
#
# 1 50.4246 15.0101 0.2941 0.0000 0.0000 0.0000
# 2 15.0101 40.7375 11.6287 0.0000 0.0000 0.0000
# 3 0.2941 11.6287 105.7958 0.0000 0.0000 0.0000
# 4 0.0000 0.0000 0.0000 34.1818 0.0000 0.0000
# 5 0.0000 0.0000 0.0000 0.0000 14.8495 0.0000
# 6 0.0000 0.0000 0.0000 0.0000 0.0000 22.0822
#
#
#
# Elastic Compliance Matrix: (Units=1/GPa)
#
#
# Indices 1 2 3 4 5 6 
#
# 1 0.022352 -0.008484 0.000870 0.000000 0.000000 0.000000
# 2 -0.008484 0.028563 -0.003116 0.000000 0.000000 0.000000
# 3 0.000870 -0.003116 0.009792 0.000000 0.000000 0.000000
# 4 0.000000 0.000000 0.000000 0.029255 0.000000 0.000000
# 5 0.000000 0.000000 0.000000 0.000000 0.067342 0.000000
# 6 0.000000 0.000000 0.000000 0.000000 0.000000 0.045285
#
#
# Mechanical properties :
#
#
# Convention : Reuss Voigt Hill
#
# Bulk Modulus (GPa) = 25.47922 27.86930 26.67426
# Shear Modulus (GPa) = 21.08527 25.55771 23.32149
#
# Velocity S-wave (km/s) = 3.33035 3.66658 3.50250
# Velocity P-wave (km/s) = 5.30950 5.70831 5.51251
#
# Compressibility (1/GPa) = 0.03924767
#
# Stress axis : x y z
#
# Youngs Moduli (GPa) = 44.73857 35.01034 102.12166
#
# Poissons Ratio (x) = 0.29704 -0.08889
# Poissons Ratio (y) = 0.37958 0.31821
# Poissons Ratio (z) = -0.03894 0.10909
#
# Static dielectric constant tensor:
#      x y z
#    x 1.637220 0.000000 0.000000 
#    y 0.000000 1.661810 0.000000 
#    z 0.000000 0.000000 1.657940 
# 
# From -- ./inp_files/13277.got.cif
#   From: 2010.05.17/outbox.cif.g08.bks.cpg/sg74_7_cif.got.tgz:13277.got - 2010.06.03 17:57:02.
