data_PCOD9539342
_publ_section_title
;
Structure prediction by ZEFSAII (Michael W. Deem and Ramdas Pophale) SiO2 
 PCOD9539342
Probable space group: I M M A
;
_chemical_formula_sum "Si O2"
_cell_formula_units_Z 112
_cell_length_a 14.284108
_cell_length_b 26.062952
_cell_length_c 14.865783
_cell_angle_alpha 90.000000
_cell_angle_beta 90.000000
_cell_angle_gamma 90.000000
_cell_volume 5534.323205
_symmetry_space_group_name_H-M "I M M A"
_symmetry_group_IT_number 74
_symmetry_cell_setting 'orthorhombic'
loop_
_space_group_symop_operation_xyz
x,y,z
-x,1/2-y,z
x,-y,-z
-x,1/2+y,-z
-x,-y,-z
x,1/2+y,-z
-x,y,z
x,1/2-y,z
1/2+x,1/2+y,1/2+z
1/2-x,-y,1/2+z
1/2+x,1/2-y,1/2-z
1/2-x,y,1/2-z
1/2-x,1/2-y,1/2-z
1/2+x,y,1/2-z
1/2-x,1/2+y,1/2+z
1/2+x,-y,1/2+z
loop_
_atom_site_type_symbol
_atom_site_label
_atom_site_fract_x
_atom_site_fract_y
_atom_site_fract_z
Si Si1 0.763129 0.310282 0.357145
Si Si2 0.610861 0.999836 0.216195
Si Si3 0.104913 0.310746 0.004332
Si Si4 0.302471 0.084753 0.911850
Si Si5 0.388542 0.404937 0.100421
Si Si6 0.393895 0.036911 0.585645
Si Si7 0.739858 0.692615 0.142772
O O1 0.780656 0.250000 0.379494
O O2 0.750000 0.313195 0.250000
O O3 0.672669 0.328667 0.414843
O O4 0.844435 0.349241 0.384197
O O5 0.500000 0.994770 0.197151
O O6 0.641460 0.054484 0.176830
O O7 0.623029 0.994470 0.322554
O O8 0.661889 0.953636 0.164730
O O9 0.095224 0.250000 0.021510
O O10 0.000000 0.332852 0.003338
O O11 0.161974 0.313388 0.910759
O O12 0.320640 0.144064 0.887754
O O13 0.191008 0.076479 0.921629
O O14 0.351933 0.073109 0.005796
O O15 0.500000 0.401606 0.099688
O O16 0.500000 0.058058 0.591422
O O17 0.389442 0.000000 0.500000
O O18 0.704406 0.750000 0.120050
O O19 0.750000 0.689712 0.250000
#
# Coordination Sequence:
#
# PCOD9539342 Si02
#       7
#    16  16  16  16  16  16  16
#     4  10  22  41  65  95 130 168 215 266 317 376
#     4  10  22  41  63  88 121 160 210 261 311 380
#     4   9  18  37  63  89 122 164 209 258 314 376
#     4  12  22  38  64  89 120 164 205 255 313 379
#     4  11  24  41  63  92 126 167 211 258 314 376
#     4  10  22  39  60  90 124 158 200 257 319 376
#     4  10  21  38  61  89 124 163 208 261 314 375
#
# _framework density 20.237344
#
# number of rings (size 3 to 8) (size 9 to 14) (size 15 to 20)
#    0.000    1.714    1.429    3.000    0.000    4.857 
#    0.000    2.857    0.000    3.000    0.000    0.000 
#    0.000    0.000    0.000    0.000    0.000    0.000 
#
# Total GULP energy -312663.047598 kJ/mol
# GULP energy per Si atom -5583.268707 kJ/mol
# Density = 2.019128 g / cm^3
# Si number density = 20.237344 Si / 1000 Ang^3
#
#
#
# Elastic Constant Matrix: (Units=GPa)
#
#
# Indices 1 2 3 4 5 6 
#
# 1 89.5922 41.6434 54.4798 0.0000 0.0000 0.0000
# 2 41.6434 103.7527 47.3039 0.0000 0.0000 0.0000
# 3 54.4798 47.3039 145.6116 0.0000 0.0000 0.0000
# 4 0.0000 0.0000 0.0000 2.7554 0.0000 0.0000
# 5 0.0000 0.0000 0.0000 0.0000 21.9387 0.0000
# 6 0.0000 0.0000 0.0000 0.0000 0.0000 26.2742
#
#
#
# Elastic Compliance Matrix: (Units=1/GPa)
#
#
# Indices 1 2 3 4 5 6 
#
# 1 0.015943 -0.004319 -0.004562 0.000000 0.000000 0.000000
# 2 -0.004319 0.012484 -0.002440 0.000000 0.000000 0.000000
# 3 -0.004562 -0.002440 0.009367 0.000000 0.000000 0.000000
# 4 0.000000 0.000000 0.000000 0.362925 0.000000 0.000000
# 5 0.000000 0.000000 0.000000 0.000000 0.045582 0.000000
# 6 0.000000 0.000000 0.000000 0.000000 0.000000 0.038060
#
#
# Mechanical properties :
#
#
# Convention : Reuss Voigt Hill
#
# Bulk Modulus (GPa) = 65.99423 69.53452 67.76437
# Shear Modulus (GPa) = 9.76459 23.22895 16.49677
#
# Velocity S-wave (km/s) = 2.19898 3.39163 2.85821
# Velocity P-wave (km/s) = 6.25526 7.05490 6.66708
#
# Compressibility (1/GPa) = 0.01515284
#
# Stress axis : x y z
#
# Youngs Moduli (GPa) = 62.72187 80.10091 106.75817
#
# Poissons Ratio (x) = 0.34598 0.48703
# Poissons Ratio (y) = 0.27091 0.26045
# Poissons Ratio (z) = 0.28613 0.19542
#
# Static dielectric constant tensor:
#      x y z
#    x 1.729640 0.000000 0.000000 
#    y 0.000000 1.729640 0.000000 
#    z 0.000000 0.000000 1.708840 
# 
# From -- ./inp_files/32708.got.cif
#   From: 2010.05.17/outbox.cif.g08.bks.cpg/sg74_17_cif.got.tgz:32708.got - 2010.06.03 17:57:02.
