data_PCOD9539616
_publ_section_title
;
Structure prediction by ZEFSAII (Michael W. Deem and Ramdas Pophale) SiO2 
 PCOD9539616
Probable space group: I M M A
;
_chemical_formula_sum "Si O2"
_cell_formula_units_Z 104
_cell_length_a 15.895927
_cell_length_b 26.634252
_cell_length_c 11.735089
_cell_angle_alpha 90.000000
_cell_angle_beta 90.000000
_cell_angle_gamma 90.000000
_cell_volume 4968.356513
_symmetry_space_group_name_H-M "I M M A"
_symmetry_group_IT_number 74
_symmetry_cell_setting 'orthorhombic'
loop_
_space_group_symop_operation_xyz
x,y,z
-x,1/2-y,z
x,-y,-z
-x,1/2+y,-z
-x,-y,-z
x,1/2+y,-z
-x,y,z
x,1/2-y,z
1/2+x,1/2+y,1/2+z
1/2-x,-y,1/2+z
1/2+x,1/2-y,1/2-z
1/2-x,y,1/2-z
1/2-x,1/2-y,1/2-z
1/2+x,y,1/2-z
1/2-x,1/2+y,1/2+z
1/2+x,-y,1/2+z
loop_
_atom_site_type_symbol
_atom_site_label
_atom_site_fract_x
_atom_site_fract_y
_atom_site_fract_z
Si Si1 0.826508 0.690161 0.908763
Si Si2 0.351861 0.750000 0.197328
Si Si3 0.848222 0.418742 0.722278
Si Si4 0.404384 0.626298 0.790785
Si Si5 0.650252 0.839828 0.022199
Si Si6 0.906797 0.671450 0.138016
Si Si7 0.400604 0.519519 0.877856
O O1 0.818504 0.750000 0.886555
O O2 0.850189 0.658487 0.797700
O O3 0.742895 0.669295 0.969961
O O4 0.897106 0.680651 0.004951
O O5 0.340343 0.793242 0.297779
O O6 0.369248 0.706246 0.103693
O O7 0.750000 0.422698 0.750000
O O8 0.857149 0.388440 0.603213
O O9 0.891144 0.384682 0.819400
O O10 0.887504 0.473255 0.707079
O O11 0.500000 0.620730 0.746607
O O12 0.406384 0.654567 0.911534
O O13 0.367545 0.571411 0.824207
O O14 0.000000 0.688500 0.176755
O O15 0.500000 0.529057 0.896073
O O16 0.365543 0.500000 0.000000
#
# Coordination Sequence:
#
# PCOD9539616 Si02
#       7
#    16   8  16  16  16  16  16
#     4  12  25  43  66  91 137 184 217 258 329 407
#     4  10  23  37  63  92 129 166 218 273 320 373
#     4  11  22  39  67 100 127 160 214 276 328 393
#     4  11  26  44  65  94 129 170 223 274 328 399
#     4  11  23  41  66  94 130 170 220 276 327 385
#     4  11  23  39  63  95 130 172 217 266 327 391
#     4  10  21  43  68  92 127 168 212 274 339 387
#
# _framework density 20.932475
#
# number of rings (size 3 to 8) (size 9 to 14) (size 15 to 20)
#    0.000    1.077    4.615    1.615    1.077    6.462 
#    0.000    0.769    0.000    2.769    0.000    0.000 
#    0.000    0.000    0.000    0.000    0.000    0.000 
#
# Total GULP energy -289542.735823 kJ/mol
# GULP energy per Si atom -5568.129535 kJ/mol
# Density = 2.088483 g / cm^3
# Si number density = 20.932475 Si / 1000 Ang^3
#
#
#
# Elastic Constant Matrix: (Units=GPa)
#
#
# Indices 1 2 3 4 5 6 
#
# 1 49.5708 2.9935 -0.7557 0.0000 0.0000 0.0000
# 2 2.9935 127.7472 59.0882 0.0000 0.0000 0.0000
# 3 -0.7557 59.0882 114.8438 -0.0001 0.0000 0.0000
# 4 0.0000 0.0000 -0.0001 12.9527 0.0000 0.0000
# 5 0.0000 0.0000 0.0000 0.0000 24.1679 0.0000
# 6 0.0000 0.0000 0.0000 0.0000 0.0000 45.6398
#
#
#
# Elastic Compliance Matrix: (Units=1/GPa)
#
#
# Indices 1 2 3 4 5 6 
#
# 1 0.020223 -0.000703 0.000495 0.000000 0.000000 0.000000
# 2 -0.000703 0.010297 -0.005303 0.000000 0.000000 0.000000
# 3 0.000495 -0.005303 0.011439 0.000000 0.000000 0.000000
# 4 0.000000 0.000000 0.000000 0.077204 0.000000 0.000000
# 5 0.000000 0.000000 0.000000 0.000000 0.041377 0.000000
# 6 0.000000 0.000000 0.000000 0.000000 0.000000 0.021911
#
#
# Mechanical properties :
#
#
# Convention : Reuss Voigt Hill
#
# Bulk Modulus (GPa) = 32.32279 46.09043 39.20661
# Shear Modulus (GPa) = 24.53569 31.94113 28.23841
#
# Velocity S-wave (km/s) = 3.42736 3.91053 3.67689
# Velocity P-wave (km/s) = 5.58009 6.51583 6.06603
#
# Compressibility (1/GPa) = 0.03093792
#
# Stress axis : x y z
#
# Youngs Moduli (GPa) = 49.44826 97.11491 87.42053
#
# Poissons Ratio (x) = 0.06824 -0.04324
# Poissons Ratio (y) = 0.03475 0.46355
# Poissons Ratio (z) = -0.02446 0.51496
#
# Static dielectric constant tensor:
#      x y z
#    x 1.876280 0.000000 0.000000 
#    y 0.000000 1.721830 0.000000 
#    z 0.000000 0.000000 1.753630 
# 
# From -- ./inp_files/22755.got.cif
#   From: 2010.05.17/outbox.cif.g08.bks.cpg/sg74_12_cif.got.tgz:22755.got - 2010.06.03 17:57:02.
