data_PCOD9539940
_publ_section_title
;
Structure prediction by ZEFSAII (Michael W. Deem and Ramdas Pophale) SiO2 
 PCOD9539940
Probable space group: I M M A
;
_chemical_formula_sum "Si O2"
_cell_formula_units_Z 96
_cell_length_a 13.658180
_cell_length_b 21.128759
_cell_length_c 16.604242
_cell_angle_alpha 90.000000
_cell_angle_beta 90.000000
_cell_angle_gamma 90.000000
_cell_volume 4791.658692
_symmetry_space_group_name_H-M "I M M A"
_symmetry_group_IT_number 74
_symmetry_cell_setting 'orthorhombic'
loop_
_space_group_symop_operation_xyz
x,y,z
-x,1/2-y,z
x,-y,-z
-x,1/2+y,-z
-x,-y,-z
x,1/2+y,-z
-x,y,z
x,1/2-y,z
1/2+x,1/2+y,1/2+z
1/2-x,-y,1/2+z
1/2+x,1/2-y,1/2-z
1/2-x,y,1/2-z
1/2-x,1/2-y,1/2-z
1/2+x,y,1/2-z
1/2-x,1/2+y,1/2+z
1/2+x,-y,1/2+z
loop_
_atom_site_type_symbol
_atom_site_label
_atom_site_fract_x
_atom_site_fract_y
_atom_site_fract_z
Si Si1 0.384824 0.673885 0.037857
Si Si2 0.880804 0.250000 0.096218
Si Si3 0.880847 0.676748 0.643979
Si Si4 0.381955 0.003286 0.595087
Si Si5 0.775648 0.627917 0.156527
Si Si6 0.116729 0.250000 0.909209
Si Si7 0.880452 0.876839 0.810490
O O1 0.500000 0.659656 0.045364
O O2 0.374211 0.750000 0.048779
O O3 0.321051 0.637427 0.102635
O O4 0.351774 0.658961 0.946520
O O5 0.849473 0.186325 0.141609
O O6 0.000000 0.250000 0.097732
O O7 0.851075 0.250000 0.003010
O O8 0.853387 0.750000 0.660238
O O9 0.850810 0.631945 0.717335
O O10 0.000000 0.676877 0.642767
O O11 0.500000 0.009264 0.601953
O O12 0.330529 0.064024 0.632620
O O13 0.359155 0.000000 0.500000
O O14 0.351107 0.939954 0.642673
O O15 0.750000 0.628797 0.250000
O O16 0.842719 0.687776 0.133485
O O17 0.000000 0.250000 0.908037
O O18 0.000000 0.876685 0.811320
#
# Coordination Sequence:
#
# PCOD9539940 Si02
#       7
#    16   8  16  16  16   8  16
#     4   9  19  37  63  93 126 161 199 253 324 384
#     4   9  16  29  58  98 126 151 198 250 302 367
#     4   8  13  26  53  91 126 153 187 240 307 375
#     4  10  22  42  65  89 126 175 212 251 315 381
#     4  12  25  43  62  92 124 159 214 270 315 372
#     4  11  23  39  63  92 125 163 207 263 321 375
#     4   9  15  28  57  93 125 158 199 247 302 371
#
# _framework density 20.034815999999999
#
# number of rings (size 3 to 8) (size 9 to 14) (size 15 to 20)
#    0.000    2.333    1.667    2.750    0.000    4.000 
#    3.000    0.000    0.000    1.500    0.000    0.000 
#    0.000    0.000    0.000    0.000    0.000    0.000 
#
# Total GULP energy -268438.513114 kJ/mol
# GULP energy per Si atom -5592.469023 kJ/mol
# Density = 1.998922 g / cm^3
# Si number density = 20.034816 Si / 1000 Ang^3
#
#
#
# Elastic Constant Matrix: (Units=GPa)
#
#
# Indices 1 2 3 4 5 6 
#
# 1 81.1671 41.9423 54.3216 0.0000 0.0000 0.0000
# 2 41.9423 164.5207 111.4603 0.0001 0.0000 0.0000
# 3 54.3216 111.4603 219.7795 0.0002 0.0000 0.0000
# 4 0.0000 0.0001 0.0002 23.7086 0.0000 0.0000
# 5 0.0000 0.0000 0.0000 0.0000 28.0483 0.0000
# 6 0.0000 0.0000 0.0000 0.0000 0.0000 25.1245
#
#
#
# Elastic Compliance Matrix: (Units=1/GPa)
#
#
# Indices 1 2 3 4 5 6 
#
# 1 0.015192 -0.002025 -0.002728 0.000000 0.000000 0.000000
# 2 -0.002025 0.009530 -0.004332 0.000000 0.000000 0.000000
# 3 -0.002728 -0.004332 0.007421 0.000000 0.000000 0.000000
# 4 0.000000 0.000000 0.000000 0.042179 0.000000 0.000000
# 5 0.000000 0.000000 0.000000 0.000000 0.035653 0.000000
# 6 0.000000 0.000000 0.000000 0.000000 0.000000 0.039802
#
#
# Mechanical properties :
#
#
# Convention : Reuss Voigt Hill
#
# Bulk Modulus (GPa) = 71.56811 97.87952 84.72381
# Shear Modulus (GPa) = 28.96784 32.55916 30.76350
#
# Velocity S-wave (km/s) = 3.80659 4.03566 3.92280
# Velocity P-wave (km/s) = 7.42426 8.40691 7.93082
#
# Compressibility (1/GPa) = 0.01397270
#
# Stress axis : x y z
#
# Youngs Moduli (GPa) = 65.82245 104.93574 134.74374
#
# Poissons Ratio (x) = 0.21248 0.36760
# Poissons Ratio (y) = 0.13328 0.58377
# Poissons Ratio (z) = 0.17957 0.45463
#
# Static dielectric constant tensor:
#      x y z
#    x 1.774630 0.000000 0.000000 
#    y 0.000000 1.650840 0.000000 
#    z 0.000000 0.000000 1.682050 
# 
# From -- ./inp_files/32456.got.cif
#   From: 2010.05.17/outbox.cif.g08.bks.cpg/sg74_17_cif.got.tgz:32456.got - 2010.06.03 17:57:02.
