data_PCOD9539108
_publ_section_title
;
Structure prediction by ZEFSAII (Michael W. Deem and Ramdas Pophale) SiO2 
 PCOD9539108
Probable space group: I M M A
;
_chemical_formula_sum "Si O2"
_cell_formula_units_Z 72
_cell_length_a 30.322651
_cell_length_b 8.010185
_cell_length_c 14.361065
_cell_angle_alpha 90.000000
_cell_angle_beta 90.000000
_cell_angle_gamma 90.000000
_cell_volume 3488.159713
_symmetry_space_group_name_H-M "I M M A"
_symmetry_group_IT_number 74
_symmetry_cell_setting 'orthorhombic'
loop_
_space_group_symop_operation_xyz
x,y,z
-x,1/2-y,z
x,-y,-z
-x,1/2+y,-z
-x,-y,-z
x,1/2+y,-z
-x,y,z
x,1/2-y,z
1/2+x,1/2+y,1/2+z
1/2-x,-y,1/2+z
1/2+x,1/2-y,1/2-z
1/2-x,y,1/2-z
1/2-x,1/2-y,1/2-z
1/2+x,y,1/2-z
1/2-x,1/2+y,1/2+z
1/2+x,-y,1/2+z
loop_
_atom_site_type_symbol
_atom_site_label
_atom_site_fract_x
_atom_site_fract_y
_atom_site_fract_z
Si Si1 0.869304 0.048794 0.606728
Si Si2 0.500000 0.446363 0.392488
Si Si3 0.323546 0.951920 0.391562
Si Si4 0.771892 0.048684 0.609315
Si Si5 0.911344 0.951106 0.211799
O O1 0.868088 0.250000 0.608442
O O2 0.820378 0.990018 0.639743
O O3 0.905359 0.991717 0.681429
O O4 0.876622 0.000000 0.500000
O O5 0.500000 0.250000 0.391819
O O6 0.500000 0.500000 0.500000
O O7 0.456090 0.503610 0.339417
O O8 0.323371 0.750000 0.384532
O O9 0.275656 0.009893 0.352913
O O10 0.367701 0.013403 0.342027
O O11 0.325723 0.000000 0.500000
O O12 0.772012 0.250000 0.619078
O O13 0.770861 0.000000 0.500000
O O14 0.909335 0.750000 0.211657
#
# Coordination Sequence:
#
# PCOD9539108 Si02
#       5
#    16   8  16  16  16
#     4   9  18  33  54  79 111 148 184 223 266 312
#     4  12  26  44  65  86 109 138 171 216 272 328
#     4   9  17  29  48  75 108 143 180 220 264 316
#     4   8  14  26  45  72 106 144 181 216 258 310
#     4  10  21  37  57  82 109 141 182 227 273 322
#
# _framework density 20.641255999999998
#
# number of rings (size 3 to 8) (size 9 to 14) (size 15 to 20)
#    0.000    2.667    0.000    1.667    0.000    4.444 
#    0.000    5.000    0.000    0.000    0.000   17.111 
#    0.000    0.000    0.000    0.000    0.000    0.000 
#
# Total GULP energy -200731.645009 kJ/mol
# GULP energy per Si atom -5575.879028 kJ/mol
# Density = 2.059428 g / cm^3
# Si number density = 20.641256 Si / 1000 Ang^3
#
#
#
# Elastic Constant Matrix: (Units=GPa)
#
#
# Indices 1 2 3 4 5 6 
#
# 1 175.4259 19.0703 110.6510 0.0000 0.0000 0.0000
# 2 19.0703 22.9634 14.9373 0.0000 0.0000 0.0000
# 3 110.6510 14.9373 137.6684 0.0000 0.0000 0.0000
# 4 0.0000 0.0000 0.0000 14.3667 0.0000 0.0000
# 5 0.0000 0.0000 0.0000 0.0000 42.6562 0.0000
# 6 0.0000 0.0000 0.0000 0.0000 0.0000 17.9867
#
#
#
# Elastic Compliance Matrix: (Units=1/GPa)
#
#
# Indices 1 2 3 4 5 6 
#
# 1 0.011883 -0.003933 -0.009124 0.000000 0.000000 0.000000
# 2 -0.003933 0.048156 -0.002064 0.000000 0.000000 0.000000
# 3 -0.009124 -0.002064 0.014821 0.000000 0.000000 0.000000
# 4 0.000000 0.000000 0.000000 0.069605 0.000000 0.000000
# 5 0.000000 0.000000 0.000000 0.000000 0.023443 0.000000
# 6 0.000000 0.000000 0.000000 0.000000 0.000000 0.055597
#
#
# Mechanical properties :
#
#
# Convention : Reuss Voigt Hill
#
# Bulk Modulus (GPa) = 22.41227 69.48610 45.94918
# Shear Modulus (GPa) = 18.61349 27.76185 23.18767
#
# Velocity S-wave (km/s) = 3.00619 3.67136 3.35530
# Velocity P-wave (km/s) = 4.78865 7.19087 6.10900
#
# Compressibility (1/GPa) = 0.04461841
#
# Stress axis : x y z
#
# Youngs Moduli (GPa) = 84.15191 20.76563 67.46961
#
# Poissons Ratio (x) = 0.08168 0.61562
# Poissons Ratio (y) = 0.33100 0.13923
# Poissons Ratio (z) = 0.76784 0.04285
#
# Static dielectric constant tensor:
#      x y z
#    x 1.849700 0.000000 0.000000 
#    y 0.000000 1.762360 0.000000 
#    z 0.000000 0.000000 1.727250 
# 
# From -- ./inp_files/18790.got.cif
#   From: 2010.05.17/outbox.cif.g08.bks.cpg/sg74_10_cif.got.tgz:18790.got - 2010.06.03 17:57:02.
