data_PCOD9539699
_publ_section_title
;
Structure prediction by ZEFSAII (Michael W. Deem and Ramdas Pophale) SiO2 
 PCOD9539699
Probable space group: I M M A
;
_chemical_formula_sum "Si O2"
_cell_formula_units_Z 88
_cell_length_a 27.967200
_cell_length_b 11.649278
_cell_length_c 15.751110
_cell_angle_alpha 90.000000
_cell_angle_beta 90.000000
_cell_angle_gamma 90.000000
_cell_volume 5131.675216
_symmetry_space_group_name_H-M "I M M A"
_symmetry_group_IT_number 74
_symmetry_cell_setting 'orthorhombic'
loop_
_space_group_symop_operation_xyz
x,y,z
-x,1/2-y,z
x,-y,-z
-x,1/2+y,-z
-x,-y,-z
x,1/2+y,-z
-x,y,z
x,1/2-y,z
1/2+x,1/2+y,1/2+z
1/2-x,-y,1/2+z
1/2+x,1/2-y,1/2-z
1/2-x,y,1/2-z
1/2-x,1/2-y,1/2-z
1/2+x,y,1/2-z
1/2-x,1/2+y,1/2+z
1/2+x,-y,1/2+z
loop_
_atom_site_type_symbol
_atom_site_label
_atom_site_fract_x
_atom_site_fract_y
_atom_site_fract_z
Si Si1 0.554983 0.958935 0.096707
Si Si2 0.885023 0.250000 0.658645
Si Si3 0.728441 0.250000 0.842987
Si Si4 0.599371 0.040499 0.597121
Si Si5 0.299011 0.119078 0.552082
Si Si6 0.447134 0.750000 0.326237
Si Si7 0.943837 0.614847 0.761169
O O1 0.500000 0.917485 0.108232
O O2 0.592990 0.860550 0.113498
O O3 0.562733 0.054809 0.169533
O O4 0.558911 0.000000 0.000000
O O5 0.828192 0.250000 0.658260
O O6 0.907891 0.250000 0.752449
O O7 0.750000 0.250000 0.750000
O O8 0.752196 0.358164 0.891665
O O9 0.652401 0.095106 0.604542
O O10 0.561379 0.138792 0.617378
O O11 0.595207 0.000000 0.500000
O O12 0.588804 0.943125 0.666677
O O13 0.305961 0.250000 0.511411
O O14 0.293179 0.000000 0.500000
O O15 0.500000 0.750000 0.288512
O O16 0.934932 0.750000 0.755282
O O17 0.000000 0.597782 0.784232
#
# Coordination Sequence:
#
# PCOD9539699 Si02
#       7
#    16   8   8  16  16   8  16
#     4  10  22  38  60  88 119 159 201 248 305 373
#     4  12  22  38  64  89 116 153 210 258 313 359
#     4  10  22  38  64  90 115 158 197 267 316 374
#     4  11  22  36  58  86 118 160 206 241 302 360
#     4   9  20  39  65  91 118 159 204 252 315 374
#     4  12  22  36  56  85 122 156 201 247 287 356
#     4  10  22  38  55  82 125 168 202 249 307 367
#
# _framework density 17.148395000000001
#
# number of rings (size 3 to 8) (size 9 to 14) (size 15 to 20)
#    0.545    1.091    2.727    2.455    2.545    2.909 
#    0.000    0.000    0.000    0.545    0.000    0.000 
#    0.000    0.000    0.000    0.000    0.000    0.000 
#
# Total GULP energy -245055.938510 kJ/mol
# GULP energy per Si atom -5569.453148 kJ/mol
# Density = 1.710936 g / cm^3
# Si number density = 17.148395 Si / 1000 Ang^3
#
#
#
# Elastic Constant Matrix: (Units=GPa)
#
#
# Indices 1 2 3 4 5 6 
#
# 1 136.2035 72.3321 65.0652 0.0000 0.0000 0.0000
# 2 72.3321 127.6321 51.2511 0.0000 0.0000 0.0000
# 3 65.0652 51.2511 105.0711 0.0000 0.0000 0.0000
# 4 0.0000 0.0000 0.0000 4.1952 0.0000 0.0000
# 5 0.0000 0.0000 0.0000 0.0000 0.9888 0.0000
# 6 0.0000 0.0000 0.0000 0.0000 0.0000 42.6322
#
#
#
# Elastic Compliance Matrix: (Units=1/GPa)
#
#
# Indices 1 2 3 4 5 6 
#
# 1 0.012523 -0.004953 -0.005339 0.000000 0.000000 0.000000
# 2 -0.004953 0.011703 -0.002641 0.000000 0.000000 0.000000
# 3 -0.005339 -0.002641 0.014112 0.000000 0.000000 0.000000
# 4 0.000000 0.000000 0.000000 0.238367 0.000000 0.000000
# 5 0.000000 0.000000 0.000000 0.000000 1.011341 0.000000
# 6 0.000000 0.000000 0.000000 0.000000 0.000000 0.023456
#
#
# Mechanical properties :
#
#
# Convention : Reuss Voigt Hill
#
# Bulk Modulus (GPa) = 80.18461 82.91151 81.54806
# Shear Modulus (GPa) = 3.72711 21.58046 12.65378
#
# Velocity S-wave (km/s) = 1.47586 3.55132 2.71938
# Velocity P-wave (km/s) = 7.05443 8.07900 7.58404
#
# Compressibility (1/GPa) = 0.01247122
#
# Stress axis : x y z
#
# Youngs Moduli (GPa) = 79.85520 85.45115 70.86411
#
# Poissons Ratio (x) = 0.42325 0.37832
# Poissons Ratio (y) = 0.39553 0.18715
# Poissons Ratio (z) = 0.42632 0.22568
#
# Static dielectric constant tensor:
#      x y z
#    x 1.580020 0.000000 0.000000 
#    y 0.000000 1.613100 0.000000 
#    z 0.000000 0.000000 1.710740 
# 
# From -- ./inp_files/36295.got.cif
#   From: 2010.05.17/outbox.cif.g08.bks.cpg/sg74_19_cif.got.tgz:36295.got - 2010.06.03 17:57:02.
