data_PCOD9539094
_publ_section_title
;
Structure prediction by ZEFSAII (Michael W. Deem and Ramdas Pophale) SiO2 
 PCOD9539094
Probable space group: I M M A
;
_chemical_formula_sum "Si O2"
_cell_formula_units_Z 80
_cell_length_a 14.951430
_cell_length_b 9.451940
_cell_length_c 29.193222
_cell_angle_alpha 90.000000
_cell_angle_beta 90.000000
_cell_angle_gamma 90.000000
_cell_volume 4125.586696
_symmetry_space_group_name_H-M "I M M A"
_symmetry_group_IT_number 74
_symmetry_cell_setting 'orthorhombic'
loop_
_space_group_symop_operation_xyz
x,y,z
-x,1/2-y,z
x,-y,-z
-x,1/2+y,-z
-x,-y,-z
x,1/2+y,-z
-x,y,z
x,1/2-y,z
1/2+x,1/2+y,1/2+z
1/2-x,-y,1/2+z
1/2+x,1/2-y,1/2-z
1/2-x,y,1/2-z
1/2-x,1/2-y,1/2-z
1/2+x,y,1/2-z
1/2-x,1/2+y,1/2+z
1/2+x,-y,1/2+z
loop_
_atom_site_type_symbol
_atom_site_label
_atom_site_fract_x
_atom_site_fract_y
_atom_site_fract_z
Si Si1 0.607203 0.417506 0.361982
Si Si2 0.714953 0.419693 0.454959
Si Si3 0.102698 0.922412 0.589415
Si Si4 0.348491 0.409931 0.728052
Si Si5 0.896409 0.594215 0.688098
O O1 0.500000 0.439690 0.365020
O O2 0.622147 0.250000 0.352709
O O3 0.656020 0.451129 0.409833
O O4 0.644933 0.508763 0.319846
O O5 0.682676 0.500000 0.500000
O O6 0.712120 0.250000 0.461609
O O7 0.818380 0.462363 0.444976
O O8 0.101317 0.750000 0.591091
O O9 0.137371 0.968537 0.640122
O O10 0.000000 0.969364 0.579733
O O11 0.382494 0.250000 0.723201
O O12 0.250000 0.403228 0.750000
O O13 0.395800 0.500697 0.767138
O O14 0.855707 0.750000 0.696831
O O15 0.000000 0.613305 0.676420
#
# Coordination Sequence:
#
# PCOD9539094 Si02
#       5
#    16  16  16  16  16
#     4  10  22  40  60  81 106 142 190 234 271 321
#     4  10  21  37  57  80 106 137 177 229 282 329
#     4   8  15  30  53  80 109 142 180 219 262 320
#     4  11  23  35  50  78 114 146 176 216 269 325
#     4   9  17  31  53  78 103 137 180 217 252 306
#
# _framework density 19.391179999999999
#
# number of rings (size 3 to 8) (size 9 to 14) (size 15 to 20)
#    0.000    2.400    0.000    3.600    0.000    8.000 
#    0.000    1.000    0.000    1.200    0.000    0.000 
#    0.000    0.000    0.000    0.000    0.000    0.000 
#
# Total GULP energy -222864.667507 kJ/mol
# GULP energy per Si atom -5571.616688 kJ/mol
# Density = 1.934704 g / cm^3
# Si number density = 19.391180 Si / 1000 Ang^3
#
#
#
# Elastic Constant Matrix: (Units=GPa)
#
#
# Indices 1 2 3 4 5 6 
#
# 1 72.4663 27.8125 40.1904 0.0000 0.0000 0.0000
# 2 27.8125 57.9334 63.7748 0.0000 0.0000 0.0000
# 3 40.1904 63.7748 151.1392 0.0000 0.0000 0.0000
# 4 0.0000 0.0000 0.0000 29.3953 0.0000 0.0000
# 5 0.0000 0.0000 0.0000 0.0000 26.6060 0.0000
# 6 0.0000 0.0000 0.0000 0.0000 0.0000 -41.8582
#
#
#
# Elastic Compliance Matrix: (Units=1/GPa)
#
#
# Indices 1 2 3 4 5 6 
#
# 1 0.017247 -0.006034 -0.002040 0.000000 0.000000 0.000000
# 2 -0.006034 0.034345 -0.012888 0.000000 0.000000 0.000000
# 3 -0.002040 -0.012888 0.012597 0.000000 0.000000 0.000000
# 4 0.000000 0.000000 0.000000 0.034019 0.000000 0.000000
# 5 0.000000 0.000000 0.000000 0.000000 0.037586 0.000000
# 6 0.000000 0.000000 0.000000 0.000000 0.000000 -0.023890
#
#
# Mechanical properties :
#
#
# Convention : Reuss Voigt Hill
#
# Bulk Modulus (GPa) = 44.91288 60.56604 52.73946
# Shear Modulus (GPa) = 31.00791 12.81270 21.91030
#
# Velocity S-wave (km/s) = 4.00318 2.57329 3.36506
# Velocity P-wave (km/s) = 6.67675 6.33488 6.50806
#
# Compressibility (1/GPa) = 0.02226533
#
# Stress axis : x y z
#
# Youngs Moduli (GPa) = 57.98173 29.11609 79.38351
#
# Poissons Ratio (x) = 0.17569 0.16195
# Poissons Ratio (y) = 0.34986 1.02308
# Poissons Ratio (z) = 0.11829 0.37524
#
# Static dielectric constant tensor:
#      x y z
#    x 1.560260 0.000000 0.000000 
#    y 0.000000 1.672970 0.000000 
#    z 0.000000 0.000000 1.673490 
# 
# From -- ./inp_files/63949.got.cif
#   From: 2010.05.17/outbox.cif.g08.bks.cpg/sg74_32_cif.got.tgz:63949.got - 2010.06.03 17:57:02.
