data_PCOD9539607
_publ_section_title
;
Structure prediction by ZEFSAII (Michael W. Deem and Ramdas Pophale) SiO2 
 PCOD9539607
Probable space group: I M M A
;
_chemical_formula_sum "Si O2"
_cell_formula_units_Z 88
_cell_length_a 20.116005
_cell_length_b 14.655576
_cell_length_c 14.369576
_cell_angle_alpha 90.000000
_cell_angle_beta 90.000000
_cell_angle_gamma 90.000000
_cell_volume 4236.318268
_symmetry_space_group_name_H-M "I M M A"
_symmetry_group_IT_number 74
_symmetry_cell_setting 'orthorhombic'
loop_
_space_group_symop_operation_xyz
x,y,z
-x,1/2-y,z
x,-y,-z
-x,1/2+y,-z
-x,-y,-z
x,1/2+y,-z
-x,y,z
x,1/2-y,z
1/2+x,1/2+y,1/2+z
1/2-x,-y,1/2+z
1/2+x,1/2-y,1/2-z
1/2-x,y,1/2-z
1/2-x,1/2-y,1/2-z
1/2+x,y,1/2-z
1/2-x,1/2+y,1/2+z
1/2+x,-y,1/2+z
loop_
_atom_site_type_symbol
_atom_site_label
_atom_site_fract_x
_atom_site_fract_y
_atom_site_fract_z
Si Si1 0.419333 0.553682 0.591715
Si Si2 0.690690 0.250000 0.634558
Si Si3 0.250000 0.592899 0.250000
Si Si4 0.572459 0.750000 0.871493
Si Si5 0.920655 0.250000 0.016298
Si Si6 0.424282 0.052864 0.201638
Si Si7 0.712809 0.250000 0.045828
Si Si8 0.296047 0.454542 0.095966
O O1 0.395176 0.500000 0.500000
O O2 0.500000 0.544862 0.593513
O O3 0.403741 0.659148 0.573068
O O4 0.398207 0.525347 0.695739
O O5 0.698436 0.162879 0.701616
O O6 0.622655 0.250000 0.577116
O O7 0.749838 0.250000 0.554482
O O8 0.267337 0.522357 0.170481
O O9 0.500000 0.750000 0.918182
O O10 0.575208 0.662754 0.804481
O O11 0.631869 0.750000 0.946723
O O12 0.000000 0.250000 0.997511
O O13 0.500000 0.020221 0.189451
O O14 0.374651 0.033546 0.117583
O O15 0.726901 0.151769 0.095395
O O16 0.278280 0.500000 0.000000
#
# Coordination Sequence:
#
# PCOD9539607 Si02
#       8
#    16   8   8   8   8  16   8  16
#     4   9  18  33  54  87 128 163 203 256 314 379
#     4  11  24  45  68  89 128 178 211 257 326 403
#     4  11  26  45  66  92 126 175 212 257 332 382
#     4   8  15  31  59  90 124 163 207 264 320 366
#     4  10  22  39  64  94 124 162 213 265 320 383
#     4   9  18  33  58  91 127 165 204 259 327 373
#     4  10  21  42  67  94 130 166 219 264 310 385
#     4  11  23  42  67  94 128 168 216 271 306 384
#
# _framework density 20.772755
#
# number of rings (size 3 to 8) (size 9 to 14) (size 15 to 20)
#    0.000    2.182    1.818    0.545    2.545    4.364 
#    0.000    0.000    0.000    2.182    0.000    0.000 
#    0.000    0.000    0.000    0.000    0.000    0.000 
#
# Total GULP energy -245054.184820 kJ/mol
# GULP energy per Si atom -5569.413291 kJ/mol
# Density = 2.072548 g / cm^3
# Si number density = 20.772755 Si / 1000 Ang^3
#
#
#
# Elastic Constant Matrix: (Units=GPa)
#
#
# Indices 1 2 3 4 5 6 
#
# 1 49.0656 28.2635 30.6629 0.0000 0.0000 0.0000
# 2 28.2635 127.5908 38.2421 0.0000 0.0000 0.0000
# 3 30.6629 38.2421 98.4916 0.0000 0.0000 0.0000
# 4 0.0000 0.0000 0.0000 12.1541 0.0000 0.0000
# 5 0.0000 0.0000 0.0000 0.0000 -6.8223 0.0000
# 6 0.0000 0.0000 0.0000 0.0000 0.0000 3.6322
#
#
#
# Elastic Compliance Matrix: (Units=1/GPa)
#
#
# Indices 1 2 3 4 5 6 
#
# 1 0.026921 -0.003906 -0.006865 0.000000 0.000000 0.000000
# 2 -0.003906 0.009437 -0.002448 0.000000 0.000000 0.000000
# 3 -0.006865 -0.002448 0.013241 0.000000 0.000000 0.000000
# 4 0.000000 0.000000 0.000000 0.082277 0.000000 0.000000
# 5 0.000000 0.000000 0.000000 0.000000 -0.146578 0.000000
# 6 0.000000 0.000000 0.000000 0.000000 0.000000 0.275315
#
#
# Mechanical properties :
#
#
# Convention : Reuss Voigt Hill
#
# Bulk Modulus (GPa) = 43.17576 52.16501 47.67039
# Shear Modulus (GPa) = 16.96244 13.65809 15.31026
#
# Velocity S-wave (km/s) = 2.86067 2.56696 2.71779
# Velocity P-wave (km/s) = 5.63393 5.82687 5.73121
#
# Compressibility (1/GPa) = 0.02316114
#
# Stress axis : x y z
#
# Youngs Moduli (GPa) = 37.14607 105.97140 75.52451
#
# Poissons Ratio (x) = 0.41392 0.51844
# Poissons Ratio (y) = 0.14509 0.18488
# Poissons Ratio (z) = 0.25499 0.25942
#
# Static dielectric constant tensor:
#      x y z
#    x 1.842340 0.000000 0.000000 
#    y 0.000000 1.811300 0.000000 
#    z 0.000000 0.000000 1.699590 
# 
# From -- ./inp_files/25053.got.cif
#   From: 2010.05.17/outbox.cif.g08.bks.cpg/sg74_13_cif.got.tgz:25053.got - 2010.06.03 17:57:02.
