data_PCOD9539047
_publ_section_title
;
Structure prediction by ZEFSAII (Michael W. Deem and Ramdas Pophale) SiO2 
 PCOD9539047
Probable space group: I M M A
;
_chemical_formula_sum "Si O2"
_cell_formula_units_Z 112
_cell_length_a 13.698590
_cell_length_b 29.793663
_cell_length_c 12.294847
_cell_angle_alpha 90.000000
_cell_angle_beta 90.000000
_cell_angle_gamma 90.000000
_cell_volume 5017.910341
_symmetry_space_group_name_H-M "I M M A"
_symmetry_group_IT_number 74
_symmetry_cell_setting 'orthorhombic'
loop_
_space_group_symop_operation_xyz
x,y,z
-x,1/2-y,z
x,-y,-z
-x,1/2+y,-z
-x,-y,-z
x,1/2+y,-z
-x,y,z
x,1/2-y,z
1/2+x,1/2+y,1/2+z
1/2-x,-y,1/2+z
1/2+x,1/2-y,1/2-z
1/2-x,y,1/2-z
1/2-x,1/2-y,1/2-z
1/2+x,y,1/2-z
1/2-x,1/2+y,1/2+z
1/2+x,-y,1/2+z
loop_
_atom_site_type_symbol
_atom_site_label
_atom_site_fract_x
_atom_site_fract_y
_atom_site_fract_z
Si Si1 0.895187 0.054747 0.077514
Si Si2 0.617642 0.698554 0.899033
Si Si3 0.635165 0.985071 0.232741
Si Si4 0.176524 0.448074 0.441131
Si Si5 0.892986 0.383553 0.807251
Si Si6 0.686372 0.367503 0.916373
Si Si7 0.112259 0.118042 0.259944
O O1 0.902137 0.020105 0.177986
O O2 0.790252 0.044572 0.026933
O O3 0.885622 0.103114 0.135433
O O4 0.000000 0.052182 0.017722
O O5 0.500000 0.697856 0.917820
O O6 0.648516 0.750000 0.890883
O O7 0.668817 0.671148 0.996087
O O8 0.635795 0.668742 0.791116
O O9 0.750000 0.984032 0.250000
O O10 0.625676 0.007576 0.111753
O O11 0.603810 0.935443 0.266474
O O12 0.140678 0.413759 0.533549
O O13 0.174845 0.415150 0.335259
O O14 0.800241 0.376260 0.886017
O O15 0.867420 0.357300 0.696440
O O16 0.000000 0.371287 0.849871
O O17 0.000000 0.109863 0.295756
#
# Coordination Sequence:
#
# PCOD9539047 Si02
#       7
#    16  16  16  16  16  16  16
#     4   9  16  27  47  74 104 142 178 212 248 296
#     4   9  17  32  57  85 109 133 166 212 263 316
#     4   9  16  32  49  70 102 137 173 209 252 296
#     4   9  18  30  51  72 102 136 175 219 254 301
#     4  11  22  37  53  70 101 141 176 217 269 317
#     4  10  21  37  53  77 102 134 172 218 270 317
#     4   8  14  26  46  74 104 132 165 203 252 303
#
# _framework density 22.320049999999998
#
# number of rings (size 3 to 8) (size 9 to 14) (size 15 to 20)
#    0.000    2.714    1.429    2.143    0.000    2.286 
#    0.000    2.143    0.000   10.714    0.000    0.000 
#    0.000    0.000    0.000    0.000    0.000    0.000 
#
# Total GULP energy -312301.030691 kJ/mol
# GULP energy per Si atom -5576.804119 kJ/mol
# Density = 2.226925 g / cm^3
# Si number density = 22.320050 Si / 1000 Ang^3
#
#
#
# Elastic Constant Matrix: (Units=GPa)
#
#
# Indices 1 2 3 4 5 6 
#
# 1 110.5676 12.2162 -2.8705 0.0001 0.0000 0.0000
# 2 12.2162 148.6709 25.6286 0.0001 0.0000 0.0000
# 3 -2.8705 25.6286 66.1511 0.0011 0.0000 0.0000
# 4 0.0001 0.0001 0.0011 24.5514 0.0000 0.0000
# 5 0.0000 0.0000 0.0000 0.0000 -7.1110 0.0000
# 6 0.0000 0.0000 0.0000 0.0000 0.0000 14.2415
#
#
#
# Elastic Compliance Matrix: (Units=1/GPa)
#
#
# Indices 1 2 3 4 5 6 
#
# 1 0.009161 -0.000880 0.000738 0.000000 0.000000 0.000000
# 2 -0.000880 0.007292 -0.002863 0.000000 0.000000 0.000000
# 3 0.000738 -0.002863 0.016258 -0.000001 0.000000 0.000000
# 4 0.000000 0.000000 -0.000001 0.040731 0.000000 0.000000
# 5 0.000000 0.000000 0.000000 0.000000 -0.140626 0.000000
# 6 0.000000 0.000000 0.000000 0.000000 0.000000 0.070218
#
#
# Mechanical properties :
#
#
# Convention : Reuss Voigt Hill
#
# Bulk Modulus (GPa) = 37.45144 43.92647 40.68895
# Shear Modulus (GPa) = 278.65282 25.69739 152.17510
#
# Velocity S-wave (km/s) = 11.18549 3.39678 8.26599
# Velocity P-wave (km/s) = 13.55123 5.92513 10.45809
#
# Compressibility (1/GPa) = 0.02670125
#
# Stress axis : x y z
#
# Youngs Moduli (GPa) = 109.16269 137.13329 61.50707
#
# Poissons Ratio (x) = 0.12068 -0.04542
# Poissons Ratio (y) = 0.09607 0.17612
# Poissons Ratio (z) = -0.08061 0.39266
#
# Static dielectric constant tensor:
#      x y z
#    x 1.881890 0.000000 0.000000 
#    y 0.000000 1.821910 0.000000 
#    z 0.000000 0.000000 1.891180 
# 
# From -- ./inp_files/33158.got.cif
#   From: 2010.05.17/outbox.cif.g08.bks.cpg/sg74_17_cif.got.tgz:33158.got - 2010.06.03 17:57:02.
