data_PCOD9539987
_publ_section_title
;
Structure prediction by ZEFSAII (Michael W. Deem and Ramdas Pophale) SiO2 
 PCOD9539987
Probable space group: I M M A
;
_chemical_formula_sum "Si O2"
_cell_formula_units_Z 72
_cell_length_a 27.264881
_cell_length_b 14.522202
_cell_length_c 8.663465
_cell_angle_alpha 90.000000
_cell_angle_beta 90.000000
_cell_angle_gamma 90.000000
_cell_volume 3430.265261
_symmetry_space_group_name_H-M "I M M A"
_symmetry_group_IT_number 74
_symmetry_cell_setting 'orthorhombic'
loop_
_space_group_symop_operation_xyz
x,y,z
-x,1/2-y,z
x,-y,-z
-x,1/2+y,-z
-x,-y,-z
x,1/2+y,-z
-x,y,z
x,1/2-y,z
1/2+x,1/2+y,1/2+z
1/2-x,-y,1/2+z
1/2+x,1/2-y,1/2-z
1/2-x,y,1/2-z
1/2-x,1/2-y,1/2-z
1/2+x,y,1/2-z
1/2-x,1/2+y,1/2+z
1/2+x,-y,1/2+z
loop_
_atom_site_type_symbol
_atom_site_label
_atom_site_fract_x
_atom_site_fract_y
_atom_site_fract_z
Si Si1 0.876433 0.894779 0.458714
Si Si2 0.943474 0.356206 0.829153
Si Si3 0.829892 0.750000 0.665321
Si Si4 0.622151 0.000000 0.500000
Si Si5 0.721001 0.250000 0.489429
Si Si6 0.699053 0.072271 0.705935
O O1 0.919030 0.863436 0.340963
O O2 0.863291 0.835072 0.607331
O O3 0.827487 0.887921 0.355044
O O4 0.885723 0.000000 0.500000
O O5 0.941281 0.250000 0.875568
O O6 0.912218 0.416316 0.949330
O O7 0.000000 0.386385 0.824449
O O8 0.776570 0.750000 0.577899
O O9 0.816021 0.750000 0.844555
O O10 0.661097 0.001752 0.360809
O O11 0.710408 0.158246 0.592130
O O12 0.750000 0.026287 0.750000
#
# Coordination Sequence:
#
# PCOD9539987 Si02
#       6
#    16  16   8   8   8  16
#     4  11  24  42  67  97 134 182 232 289 348 424
#     4  10  22  45  76 104 136 182 235 294 365 425
#     4  11  23  42  60  97 139 176 233 296 348 407
#     4  10  25  38  68 104 142 178 235 292 336 418
#     4  11  24  39  64  92 136 187 237 287 335 411
#     4  11  23  40  64  92 139 189 234 276 339 413
#
# _framework density 20.989630999999999
#
# number of rings (size 3 to 8) (size 9 to 14) (size 15 to 20)
#    0.000    1.333    3.333    1.333   12.444    0.444 
#    0.000    0.000    0.000    0.667    0.000    0.000 
#    0.000    0.000    0.000    0.000    0.000    0.000 
#
# Total GULP energy -201012.625721 kJ/mol
# GULP energy per Si atom -5583.684048 kJ/mol
# Density = 2.094186 g / cm^3
# Si number density = 20.989631 Si / 1000 Ang^3
#
#
#
# Elastic Constant Matrix: (Units=GPa)
#
#
# Indices 1 2 3 4 5 6 
#
# 1 159.8388 41.6482 29.0304 0.0000 0.0000 0.0000
# 2 41.6482 97.1921 33.6145 0.0000 0.0000 0.0000
# 3 29.0304 33.6145 64.3696 0.0000 0.0000 0.0000
# 4 0.0000 0.0000 0.0000 40.3701 0.0000 0.0000
# 5 0.0000 0.0000 0.0000 0.0000 25.5312 0.0000
# 6 0.0000 0.0000 0.0000 0.0000 0.0000 39.8973
#
#
#
# Elastic Compliance Matrix: (Units=1/GPa)
#
#
# Indices 1 2 3 4 5 6 
#
# 1 0.007250 -0.002411 -0.002010 0.000000 0.000000 0.000000
# 2 -0.002411 0.013359 -0.005889 0.000000 0.000000 0.000000
# 3 -0.002010 -0.005889 0.019517 0.000000 0.000000 0.000000
# 4 0.000000 0.000000 0.000000 0.024771 0.000000 0.000000
# 5 0.000000 0.000000 0.000000 0.000000 0.039168 0.000000
# 6 0.000000 0.000000 0.000000 0.000000 0.000000 0.025064
#
#
# Mechanical properties :
#
#
# Convention : Reuss Voigt Hill
#
# Bulk Modulus (GPa) = 51.26902 58.88743 55.07822
# Shear Modulus (GPa) = 31.99982 35.63354 33.81668
#
# Velocity S-wave (km/s) = 3.90879 4.12475 4.01822
# Velocity P-wave (km/s) = 6.69705 7.12749 6.91562
#
# Compressibility (1/GPa) = 0.01950496
#
# Stress axis : x y z
#
# Youngs Moduli (GPa) = 137.93601 74.85700 51.23718
#
# Poissons Ratio (x) = 0.18050 0.10301
# Poissons Ratio (y) = 0.33261 0.30172
# Poissons Ratio (z) = 0.27730 0.44081
#
# Static dielectric constant tensor:
#      x y z
#    x 1.744580 0.000000 0.000000 
#    y 0.000000 1.783210 0.000000 
#    z 0.000000 0.000000 1.834340 
# 
# From -- ./inp_files/14781.got.cif
#   From: 2010.05.17/outbox.cif.g08.bks.cpg/sg74_8_cif.got.tgz:14781.got - 2010.06.03 17:57:02.
