data_PCOD9539041
_publ_section_title
;
Structure prediction by ZEFSAII (Michael W. Deem and Ramdas Pophale) SiO2 
 PCOD9539041
Probable space group: I M M A
;
_chemical_formula_sum "Si O2"
_cell_formula_units_Z 116
_cell_length_a 30.351930
_cell_length_b 24.815763
_cell_length_c 7.893347
_cell_angle_alpha 90.000000
_cell_angle_beta 90.000000
_cell_angle_gamma 90.000000
_cell_volume 5945.318700
_symmetry_space_group_name_H-M "I M M A"
_symmetry_group_IT_number 74
_symmetry_cell_setting 'orthorhombic'
loop_
_space_group_symop_operation_xyz
x,y,z
-x,1/2-y,z
x,-y,-z
-x,1/2+y,-z
-x,-y,-z
x,1/2+y,-z
-x,y,z
x,1/2-y,z
1/2+x,1/2+y,1/2+z
1/2-x,-y,1/2+z
1/2+x,1/2-y,1/2-z
1/2-x,y,1/2-z
1/2-x,1/2-y,1/2-z
1/2+x,y,1/2-z
1/2-x,1/2+y,1/2+z
1/2+x,-y,1/2+z
loop_
_atom_site_type_symbol
_atom_site_label
_atom_site_fract_x
_atom_site_fract_y
_atom_site_fract_z
Si Si1 0.852496 0.314662 0.211459
Si Si2 0.075501 0.340286 0.924662
Si Si3 0.299098 0.416471 0.198215
Si Si4 0.548261 0.543054 0.350343
Si Si5 0.000000 0.750000 0.037528
Si Si6 0.642009 0.984428 0.304586
Si Si7 0.299426 0.886261 0.190709
Si Si8 0.625323 0.813160 0.098813
O O1 0.840625 0.250000 0.207994
O O2 0.813939 0.360125 0.211794
O O3 0.875282 0.325100 0.397038
O O4 0.884601 0.327491 0.054368
O O5 0.058203 0.400545 0.942972
O O6 0.089778 0.337666 0.726559
O O7 0.038336 0.296746 0.958825
O O8 0.250000 0.433257 0.250000
O O9 0.334028 0.464162 0.224737
O O10 0.297367 0.406615 0.000115
O O11 0.545259 0.500000 0.500000
O O12 0.500000 0.545639 0.264242
O O13 0.592327 0.528688 0.243404
O O14 0.672898 0.931775 0.289616
O O15 0.638195 0.000000 0.500000
O O16 0.250000 0.878290 0.250000
O O17 0.328386 0.832581 0.177042
O O18 0.620488 0.750000 0.114645
#
# Coordination Sequence:
#
# PCOD9539041 Si02
#       8
#    16  16  16  16   4  16  16  16
#     4  10  22  40  62  89 126 170 206 254 321 375
#     4  12  21  42  65  94 131 164 214 264 318 375
#     4  11  24  39  60  91 123 158 212 261 311 381
#     4  10  21  36  63  93 120 161 211 257 312 381
#     4  12  24  36  72 108 116 174 224 266 318 380
#     4  11  21  38  61  86 119 164 202 255 320 367
#     4  11  23  38  60  88 121 160 208 258 311 379
#     4  10  22  40  61  88 125 168 205 254 316 375
#
# _framework density 19.511150000000001
#
# number of rings (size 3 to 8) (size 9 to 14) (size 15 to 20)
#    0.000    1.241    3.448    3.310    1.931    0.552 
#    0.000    1.379    0.000    1.655    0.000    0.000 
#    0.000    0.000    0.000    0.000    0.000    0.000 
#
# Total GULP energy -322902.943341 kJ/mol
# GULP energy per Si atom -5567.292127 kJ/mol
# Density = 1.946674 g / cm^3
# Si number density = 19.511150 Si / 1000 Ang^3
#
#
#
# Elastic Constant Matrix: (Units=GPa)
#
#
# Indices 1 2 3 4 5 6 
#
# 1 96.0951 9.3432 10.3527 0.0000 0.0000 0.0000
# 2 9.3432 94.7404 2.5593 0.0000 0.0000 0.0000
# 3 10.3527 2.5593 32.0485 0.0000 0.0000 0.0000
# 4 0.0000 0.0000 0.0000 14.3188 0.0000 0.0000
# 5 0.0000 0.0000 0.0000 0.0000 10.3620 0.0000
# 6 0.0000 0.0000 0.0000 0.0000 0.0000 35.5119
#
#
#
# Elastic Compliance Matrix: (Units=1/GPa)
#
#
# Indices 1 2 3 4 5 6 
#
# 1 0.010872 -0.000979 -0.003434 0.000000 0.000000 0.000000
# 2 -0.000979 0.010666 -0.000535 0.000000 0.000000 0.000000
# 3 -0.003434 -0.000535 0.032355 0.000000 0.000000 0.000000
# 4 0.000000 0.000000 0.000000 0.069838 0.000000 0.000000
# 5 0.000000 0.000000 0.000000 0.000000 0.096507 0.000000
# 6 0.000000 0.000000 0.000000 0.000000 0.000000 0.028160
#
#
# Mechanical properties :
#
#
# Convention : Reuss Voigt Hill
#
# Bulk Modulus (GPa) = 22.72959 29.71050 26.22004
# Shear Modulus (GPa) = 18.31779 25.41379 21.86579
#
# Velocity S-wave (km/s) = 3.06737 3.61297 3.35129
# Velocity P-wave (km/s) = 4.92136 5.71535 5.33315
#
# Compressibility (1/GPa) = 0.04399552
#
# Stress axis : x y z
#
# Youngs Moduli (GPa) = 91.98358 93.75406 30.90745
#
# Poissons Ratio (x) = 0.09182 0.10613
# Poissons Ratio (y) = 0.09009 0.01655
# Poissons Ratio (z) = 0.31584 0.05020
#
# Static dielectric constant tensor:
#      x y z
#    x 1.147490 0.000000 0.000000 
#    y 0.000000 1.730210 0.000000 
#    z 0.000000 0.000000 1.699130 
# 
# From -- ./inp_files/14205.got.cif
#   From: 2010.05.17/outbox.cif.g08.bks.cpg/sg74_8_cif.got.tgz:14205.got - 2010.06.03 17:57:02.
