data_PCOD9539836
_publ_section_title
;
Structure prediction by ZEFSAII (Michael W. Deem and Ramdas Pophale) SiO2 
 PCOD9539836
Probable space group: I M M A
;
_chemical_formula_sum "Si O2"
_cell_formula_units_Z 100
_cell_length_a 14.512740
_cell_length_b 20.921032
_cell_length_c 17.513122
_cell_angle_alpha 90.000000
_cell_angle_beta 90.000000
_cell_angle_gamma 90.000000
_cell_volume 5317.360335
_symmetry_space_group_name_H-M "I M M A"
_symmetry_group_IT_number 74
_symmetry_cell_setting 'orthorhombic'
loop_
_space_group_symop_operation_xyz
x,y,z
-x,1/2-y,z
x,-y,-z
-x,1/2+y,-z
-x,-y,-z
x,1/2+y,-z
-x,y,z
x,1/2-y,z
1/2+x,1/2+y,1/2+z
1/2-x,-y,1/2+z
1/2+x,1/2-y,1/2-z
1/2-x,y,1/2-z
1/2-x,1/2-y,1/2-z
1/2+x,y,1/2-z
1/2-x,1/2+y,1/2+z
1/2+x,-y,1/2+z
loop_
_atom_site_type_symbol
_atom_site_label
_atom_site_fract_x
_atom_site_fract_y
_atom_site_fract_z
Si Si1 0.199708 0.176673 0.013453
Si Si2 0.329127 0.847648 0.685691
Si Si3 0.352120 0.416339 0.780619
Si Si4 0.500000 0.250000 0.289662
Si Si5 0.776470 0.948311 0.439269
Si Si6 0.500000 0.825604 0.274111
Si Si7 0.500000 0.826994 0.450541
Si Si8 0.395917 0.490197 0.353506
O O1 0.213836 0.250000 0.985477
O O2 0.209910 0.176320 0.104358
O O3 0.260628 0.121689 0.975183
O O4 0.093857 0.156741 0.993991
O O5 0.250000 0.845281 0.750000
O O6 0.417927 0.805398 0.706828
O O7 0.360582 0.920002 0.668185
O O8 0.250000 0.403085 0.750000
O O9 0.341763 0.440967 0.866209
O O10 0.412430 0.353788 0.768989
O O11 0.393772 0.469359 0.724614
O O12 0.678249 0.976171 0.408901
O O13 0.810996 0.000000 0.500000
O O14 0.500000 0.750000 0.275948
O O15 0.500000 0.849496 0.362723
O O16 0.500000 0.750000 0.448236
O O17 0.500000 0.488465 0.384453
#
# Coordination Sequence:
#
# PCOD9539836 Si02
#       8
#    16  16  16   4  16   8   8  16
#     4  11  23  36  58  89 128 167 200 259 320 375
#     4  12  24  41  63  92 128 168 213 260 312 380
#     4  10  22  40  62  90 130 164 209 259 312 381
#     4  12  24  40  60  96 122 166 210 256 320 374
#     4  11  23  38  60  93 127 168 209 255 321 384
#     4  11  22  40  67  95 123 164 210 258 315 384
#     4   9  19  34  55  88 127 150 192 251 323 378
#     4  11  22  40  65  93 123 160 211 269 319 368
#
# _framework density 18.806325000000001
#
# number of rings (size 3 to 8) (size 9 to 14) (size 15 to 20)
#    0.000    1.120    4.000    4.080    2.240    1.280 
#    0.000    0.400    0.000    0.960    2.080    0.000 
#    0.000    0.000    0.000    0.000    0.000    0.000 
#
# Total GULP energy -278728.938058 kJ/mol
# GULP energy per Si atom -5574.578761 kJ/mol
# Density = 1.876352 g / cm^3
# Si number density = 18.806325 Si / 1000 Ang^3
#
#
#
# Elastic Constant Matrix: (Units=GPa)
#
#
# Indices 1 2 3 4 5 6 
#
# 1 51.7864 20.8662 20.4313 0.0000 0.0000 0.0000
# 2 20.8662 134.6717 26.2711 0.0000 0.0000 0.0000
# 3 20.4313 26.2711 107.1191 0.0000 0.0000 0.0000
# 4 0.0000 0.0000 0.0000 18.2262 0.0000 0.0000
# 5 0.0000 0.0000 0.0000 0.0000 -0.3506 0.0000
# 6 0.0000 0.0000 0.0000 0.0000 0.0000 24.9577
#
#
#
# Elastic Compliance Matrix: (Units=1/GPa)
#
#
# Indices 1 2 3 4 5 6 
#
# 1 0.021773 -0.002692 -0.003493 0.000000 0.000000 0.000000
# 2 -0.002692 0.008131 -0.001481 0.000000 0.000000 0.000000
# 3 -0.003493 -0.001481 0.010365 0.000000 0.000000 0.000000
# 4 0.000000 0.000000 0.000000 0.054866 -0.000001 0.000000
# 5 0.000000 0.000000 0.000000 -0.000001 -2.852551 0.000000
# 6 0.000000 0.000000 0.000000 0.000000 0.000000 0.040068
#
#
# Mechanical properties :
#
#
# Convention : Reuss Voigt Hill
#
# Bulk Modulus (GPa) = 40.09957 47.63495 43.86726
# Shear Modulus (GPa) = -1.85618 23.63392 10.88887
#
# Velocity S-wave (km/s) = -0.99456 3.54884 2.40885
# Velocity P-wave (km/s) = 4.47770 6.49435 5.57792
#
# Compressibility (1/GPa) = 0.02493792
#
# Stress axis : x y z
#
# Youngs Moduli (GPa) = 45.92897 122.97920 96.48125
#
# Poissons Ratio (x) = 0.33108 0.33697
# Poissons Ratio (y) = 0.12365 0.14287
# Poissons Ratio (z) = 0.16041 0.18210
#
# Static dielectric constant tensor:
#      x y z
#    x 1.647380 0.000000 0.000000 
#    y 0.000000 1.680070 0.000000 
#    z 0.000000 0.000000 1.667540 
# 
# From -- ./inp_files/32662.got.cif
#   From: 2010.05.17/outbox.cif.g08.bks.cpg/sg74_17_cif.got.tgz:32662.got - 2010.06.03 17:57:02.
