data_PCOD9539303
_publ_section_title
;
Structure prediction by ZEFSAII (Michael W. Deem and Ramdas Pophale) SiO2 
 PCOD9539303
Probable space group: I M M A
;
_chemical_formula_sum "Si O2"
_cell_formula_units_Z 116
_cell_length_a 26.221769
_cell_length_b 24.799652
_cell_length_c 7.344329
_cell_angle_alpha 90.000000
_cell_angle_beta 90.000000
_cell_angle_gamma 90.000000
_cell_volume 4775.949184
_symmetry_space_group_name_H-M "I M M A"
_symmetry_group_IT_number 74
_symmetry_cell_setting 'orthorhombic'
loop_
_space_group_symop_operation_xyz
x,y,z
-x,1/2-y,z
x,-y,-z
-x,1/2+y,-z
-x,-y,-z
x,1/2+y,-z
-x,y,z
x,1/2-y,z
1/2+x,1/2+y,1/2+z
1/2-x,-y,1/2+z
1/2+x,1/2-y,1/2-z
1/2-x,y,1/2-z
1/2-x,1/2-y,1/2-z
1/2+x,y,1/2-z
1/2-x,1/2+y,1/2+z
1/2+x,-y,1/2+z
loop_
_atom_site_type_symbol
_atom_site_label
_atom_site_fract_x
_atom_site_fract_y
_atom_site_fract_z
Si Si1 0.500000 0.750000 0.794740
Si Si2 0.442907 0.584614 0.494893
Si Si3 0.696903 0.627813 0.350288
Si Si4 0.560390 0.050713 0.897671
Si Si5 0.809789 0.511272 0.215406
Si Si6 0.415009 0.833728 0.927731
Si Si7 0.342481 0.600038 0.726316
Si Si8 0.095001 0.807848 0.165260
O O1 0.454924 0.798717 0.811080
O O2 0.500000 0.572312 0.562179
O O3 0.429321 0.549286 0.318344
O O4 0.396509 0.584045 0.632347
O O5 0.440289 0.645665 0.416891
O O6 0.750000 0.640685 0.250000
O O7 0.673980 0.573596 0.253210
O O8 0.698472 0.613618 0.566546
O O9 0.653532 0.673091 0.347338
O O10 0.500000 0.046227 0.900733
O O11 0.570548 0.105927 0.003850
O O12 0.583284 0.000000 0.000000
O O13 0.750000 0.515635 0.250000
O O14 0.825196 0.455961 0.316640
O O15 0.819592 0.500000 0.000000
O O16 0.359806 0.846807 0.837291
O O17 0.414527 0.804753 0.121126
O O18 0.085467 0.750000 0.078960
#
# Coordination Sequence:
#
# PCOD9539303 Si02
#       8
#     4  16  16  16  16  16  16  16
#     4  12  24  44  58  78 120 176 216 252 312 352
#     4   9  20  37  58  86 121 162 201 243 294 359
#     4   9  20  41  64  88 121 158 195 245 310 377
#     4   9  18  34  56  84 112 151 201 241 293 356
#     4   9  19  37  64  91 124 155 191 240 305 377
#     4  11  23  37  61  82 119 163 206 260 301 357
#     4  10  22  37  57  96 123 152 197 247 308 363
#     4  10  21  38  60  87 112 156 215 259 303 348
#
# _framework density 24.288364999999999
#
# number of rings (size 3 to 8) (size 9 to 14) (size 15 to 20)
#    0.000    2.345    1.379    0.000    1.931    9.379 
#    4.966    0.000    0.000   13.655    0.000    0.000 
#    0.000    0.000    0.000    0.000    0.000    0.000 
#
# Total GULP energy -323119.223813 kJ/mol
# GULP energy per Si atom -5571.021100 kJ/mol
# Density = 2.423308 g / cm^3
# Si number density = 24.288365 Si / 1000 Ang^3
#
#
#
# Elastic Constant Matrix: (Units=GPa)
#
#
# Indices 1 2 3 4 5 6 
#
# 1 67.3428 -29.4333 -13.5845 0.0000 0.0000 0.0000
# 2 -29.4333 88.3360 -3.2108 0.0000 0.0000 0.0000
# 3 -13.5845 -3.2108 55.0719 0.0000 0.0000 0.0000
# 4 0.0000 0.0000 0.0000 16.9107 0.0000 0.0000
# 5 0.0000 0.0000 0.0000 0.0000 23.2169 0.0000
# 6 0.0000 0.0000 0.0000 0.0000 0.0000 33.9239
#
#
#
# Elastic Compliance Matrix: (Units=1/GPa)
#
#
# Indices 1 2 3 4 5 6 
#
# 1 0.018647 0.006394 0.004972 0.000000 0.000000 0.000000
# 2 0.006394 0.013537 0.002366 0.000000 0.000000 0.000000
# 3 0.004972 0.002366 0.019523 0.000000 0.000000 0.000000
# 4 0.000000 0.000000 0.000000 0.059134 0.000000 0.000000
# 5 0.000000 0.000000 0.000000 0.000000 0.043072 0.000000
# 6 0.000000 0.000000 0.000000 0.000000 0.000000 0.029478
#
#
# Mechanical properties :
#
#
# Convention : Reuss Voigt Hill
#
# Bulk Modulus (GPa) = 12.63077 13.14371 12.88724
# Shear Modulus (GPa) = 27.42497 31.94226 29.68361
#
# Velocity S-wave (km/s) = 3.36391 3.63040 3.49969
# Velocity P-wave (km/s) = 4.50550 4.79545 4.65273
#
# Compressibility (1/GPa) = 0.07917173
#
# Stress axis : x y z
#
# Youngs Moduli (GPa) = 53.62796 73.87245 51.22271
#
# Poissons Ratio (x) = -0.47233 -0.25470
# Poissons Ratio (y) = -0.34289 -0.12121
# Poissons Ratio (z) = -0.26666 -0.17481
#
# Static dielectric constant tensor:
#      x y z
#    x 1.934580 0.000000 0.000000 
#    y 0.000000 2.029200 0.000000 
#    z 0.000000 0.000000 2.080120 
# 
# From -- ./inp_files/16324.got.cif
#   From: 2010.05.17/outbox.cif.g08.bks.cpg/sg74_9_cif.got.tgz:16324.got - 2010.06.03 17:57:02.
