data_PCOD9539370
_publ_section_title
;
Structure prediction by ZEFSAII (Michael W. Deem and Ramdas Pophale) SiO2 
 PCOD9539370
Probable space group: I M M A
;
_chemical_formula_sum "Si O2"
_cell_formula_units_Z 96
_cell_length_a 15.116972
_cell_length_b 18.846772
_cell_length_c 14.656082
_cell_angle_alpha 90.000000
_cell_angle_beta 90.000000
_cell_angle_gamma 90.000000
_cell_volume 4175.607525
_symmetry_space_group_name_H-M "I M M A"
_symmetry_group_IT_number 74
_symmetry_cell_setting 'orthorhombic'
loop_
_space_group_symop_operation_xyz
x,y,z
-x,1/2-y,z
x,-y,-z
-x,1/2+y,-z
-x,-y,-z
x,1/2+y,-z
-x,y,z
x,1/2-y,z
1/2+x,1/2+y,1/2+z
1/2-x,-y,1/2+z
1/2+x,1/2-y,1/2-z
1/2-x,y,1/2-z
1/2-x,1/2-y,1/2-z
1/2+x,y,1/2-z
1/2-x,1/2+y,1/2+z
1/2+x,-y,1/2+z
loop_
_atom_site_type_symbol
_atom_site_label
_atom_site_fract_x
_atom_site_fract_y
_atom_site_fract_z
Si Si1 0.099875 0.962057 0.862535
Si Si2 0.396916 0.832935 0.777709
Si Si3 0.342922 0.605951 0.292854
Si Si4 0.601150 0.145260 0.510434
Si Si5 0.402591 0.666783 0.114875
Si Si6 0.291917 0.170908 0.049056
O O1 0.108533 0.890416 0.802472
O O2 0.000000 0.990452 0.849832
O O3 0.161710 0.024496 0.826571
O O4 0.106114 0.932665 0.965161
O O5 0.500000 0.833698 0.808913
O O6 0.377094 0.750000 0.751769
O O7 0.329262 0.858002 0.856447
O O8 0.250000 0.630442 0.250000
O O9 0.378541 0.646397 0.382116
O O10 0.403648 0.620804 0.206115
O O11 0.500000 0.169930 0.492869
O O12 0.687502 0.177396 0.462805
O O13 0.500000 0.665268 0.071906
O O14 0.383082 0.750000 0.138437
O O15 0.332059 0.637107 0.042232
O O16 0.331607 0.250000 0.048361
#
# Coordination Sequence:
#
# PCOD9539370 Si02
#       6
#    16  16  16  16  16  16
#     4  10  23  42  65  93 128 169 213 257 310 377
#     4   9  19  39  67  97 129 164 206 261 319 373
#     4  12  24  41  65  93 123 164 212 262 316 373
#     4  11  24  42  62  88 127 172 211 254 310 372
#     4  10  21  40  66  93 123 161 206 259 320 378
#     4  10  21  38  62  94 130 167 208 257 313 374
#
# _framework density 22.990665
#
# number of rings (size 3 to 8) (size 9 to 14) (size 15 to 20)
#    0.000    1.667    1.667    2.500    2.333    5.333 
#    0.000    4.167    0.000    3.000    0.000    0.000 
#    0.000    0.000    0.000    0.000    0.000    0.000 
#
# Total GULP energy -267692.092456 kJ/mol
# GULP energy per Si atom -5576.918593 kJ/mol
# Density = 2.293834 g / cm^3
# Si number density = 22.990665 Si / 1000 Ang^3
#
#
#
# Elastic Constant Matrix: (Units=GPa)
#
#
# Indices 1 2 3 4 5 6 
#
# 1 129.4448 0.8058 31.5383 0.0000 0.0000 0.0000
# 2 0.8058 42.7775 -5.9840 -0.0001 0.0000 0.0000
# 3 31.5383 -5.9840 84.8751 0.0000 0.0000 0.0000
# 4 0.0000 -0.0001 0.0000 -22.9976 0.0000 0.0000
# 5 0.0000 0.0000 0.0000 0.0000 36.9303 0.0000
# 6 0.0000 0.0000 0.0000 0.0000 0.0000 22.3083
#
#
#
# Elastic Compliance Matrix: (Units=1/GPa)
#
#
# Indices 1 2 3 4 5 6 
#
# 1 0.008510 -0.000609 -0.003205 0.000000 0.000000 0.000000
# 2 -0.000609 0.023653 0.001894 0.000000 0.000000 0.000000
# 3 -0.003205 0.001894 0.013107 0.000000 0.000000 0.000000
# 4 0.000000 0.000000 0.000000 -0.043483 0.000000 0.000000
# 5 0.000000 0.000000 0.000000 0.000000 0.027078 0.000000
# 6 0.000000 0.000000 0.000000 0.000000 0.000000 0.044826
#
#
# Mechanical properties :
#
#
# Convention : Reuss Voigt Hill
#
# Bulk Modulus (GPa) = 24.13721 34.42416 29.28069
# Shear Modulus (GPa) = 54.73989 22.63069 38.68529
#
# Velocity S-wave (km/s) = 4.88480 3.14083 4.10646
# Velocity P-wave (km/s) = 6.50666 5.30647 5.93697
#
# Compressibility (1/GPa) = 0.04142981
#
# Stress axis : x y z
#
# Youngs Moduli (GPa) = 117.50904 42.27760 76.29797
#
# Poissons Ratio (x) = 0.02573 0.24454
# Poissons Ratio (y) = 0.07152 -0.14449
# Poissons Ratio (z) = 0.37663 -0.08007
#
# Static dielectric constant tensor:
#      x y z
#    x 1.892840 0.000000 0.000000 
#    y 0.000000 1.894390 0.000000 
#    z 0.000000 0.000000 1.896950 
# 
# From -- ./inp_files/32339.got.cif
#   From: 2010.05.17/outbox.cif.g08.bks.cpg/sg74_17_cif.got.tgz:32339.got - 2010.06.03 17:57:02.
