data_PCOD9539709
_publ_section_title
;
Structure prediction by ZEFSAII (Michael W. Deem and Ramdas Pophale) SiO2 
 PCOD9539709
Probable space group: I M M A
;
_chemical_formula_sum "Si O2"
_cell_formula_units_Z 112
_cell_length_a 32.095605
_cell_length_b 14.205933
_cell_length_c 12.133353
_cell_angle_alpha 90.000000
_cell_angle_beta 90.000000
_cell_angle_gamma 90.000000
_cell_volume 5532.178206
_symmetry_space_group_name_H-M "I M M A"
_symmetry_group_IT_number 74
_symmetry_cell_setting 'orthorhombic'
loop_
_space_group_symop_operation_xyz
x,y,z
-x,1/2-y,z
x,-y,-z
-x,1/2+y,-z
-x,-y,-z
x,1/2+y,-z
-x,y,z
x,1/2-y,z
1/2+x,1/2+y,1/2+z
1/2-x,-y,1/2+z
1/2+x,1/2-y,1/2-z
1/2-x,y,1/2-z
1/2-x,1/2-y,1/2-z
1/2+x,y,1/2-z
1/2-x,1/2+y,1/2+z
1/2+x,-y,1/2+z
loop_
_atom_site_type_symbol
_atom_site_label
_atom_site_fract_x
_atom_site_fract_y
_atom_site_fract_z
Si Si1 0.213926 0.354928 0.175136
Si Si2 0.880258 0.362315 0.218810
Si Si3 0.546303 0.980524 0.628502
Si Si4 0.756362 0.598257 0.059711
Si Si5 0.549013 0.860570 0.190586
Si Si6 0.619341 0.519497 0.116138
Si Si7 0.313586 0.359841 0.761814
O O1 0.209804 0.250000 0.224193
O O2 0.250000 0.403737 0.250000
O O3 0.166590 0.390728 0.180569
O O4 0.228878 0.347888 0.049540
O O5 0.883098 0.250000 0.224061
O O6 0.916987 0.406298 0.146452
O O7 0.887578 0.416941 0.332823
O O8 0.500000 0.946788 0.664184
O O9 0.544702 0.000000 0.500000
O O10 0.554452 0.076402 0.698178
O O11 0.718628 0.635258 0.134757
O O12 0.793071 0.597566 0.151039
O O13 0.746353 0.500000 0.000000
O O14 0.500000 0.863385 0.162884
O O15 0.560699 0.750000 0.201835
O O16 0.577596 0.918193 0.104947
O O17 0.647327 0.580538 0.198603
O O18 0.640481 0.500000 0.000000
O O19 0.322665 0.250000 0.740892
#
# Coordination Sequence:
#
# PCOD9539709 Si02
#       7
#    16  16  16  16  16  16  16
#     4  10  22  38  58  82 115 161 208 256 308 369
#     4  10  23  40  59  88 125 162 207 255 316 386
#     4   9  19  37  63  95 131 165 204 257 316 381
#     4  11  23  38  61  84 120 158 204 254 311 369
#     4   9  19  38  62  88 120 160 206 253 308 377
#     4  11  24  40  61  89 119 156 205 259 319 375
#     4  11  24  41  61  89 122 161 209 262 315 374
#
# _framework density 20.245189
#
# number of rings (size 3 to 8) (size 9 to 14) (size 15 to 20)
#    0.000    1.857    0.000    3.429    6.000    5.143 
#    0.000    2.857    0.000    0.000    0.000    0.000 
#    0.000    0.000    0.000    0.000    0.000    0.000 
#
# Total GULP energy -312056.922543 kJ/mol
# GULP energy per Si atom -5572.445045 kJ/mol
# Density = 2.019911 g / cm^3
# Si number density = 20.245189 Si / 1000 Ang^3
#
#
#
# Elastic Constant Matrix: (Units=GPa)
#
#
# Indices 1 2 3 4 5 6 
#
# 1 125.9648 52.7197 38.3210 0.0000 0.0000 0.0000
# 2 52.7197 123.8373 23.2833 0.0000 0.0000 0.0000
# 3 38.3210 23.2833 92.6484 0.0000 0.0000 0.0000
# 4 0.0000 0.0000 0.0000 25.3629 0.0000 0.0000
# 5 0.0000 0.0000 0.0000 0.0000 28.9554 0.0000
# 6 0.0000 0.0000 0.0000 0.0000 0.0000 7.3651
#
#
#
# Elastic Compliance Matrix: (Units=1/GPa)
#
#
# Indices 1 2 3 4 5 6 
#
# 1 0.010596 -0.003870 -0.003410 0.000000 0.000000 0.000000
# 2 -0.003870 0.009889 -0.000885 0.000000 0.000000 0.000000
# 3 -0.003410 -0.000885 0.012426 0.000000 0.000000 0.000000
# 4 0.000000 0.000000 0.000000 0.039428 0.000000 0.000000
# 5 0.000000 0.000000 0.000000 0.000000 0.034536 0.000000
# 6 0.000000 0.000000 0.000000 0.000000 0.000000 0.135776
#
#
# Mechanical properties :
#
#
# Convention : Reuss Voigt Hill
#
# Bulk Modulus (GPa) = 60.30586 63.45541 61.88063
# Shear Modulus (GPa) = 18.90311 27.54509 23.22410
#
# Velocity S-wave (km/s) = 3.05898 3.69260 3.39062
# Velocity P-wave (km/s) = 6.50607 7.04215 6.77941
#
# Compressibility (1/GPa) = 0.01658214
#
# Stress axis : x y z
#
# Youngs Moduli (GPa) = 94.37798 101.12455 80.47463
#
# Poissons Ratio (x) = 0.39131 0.27443
# Poissons Ratio (y) = 0.36521 0.07119
# Poissons Ratio (z) = 0.32184 0.08945
#
# Static dielectric constant tensor:
#      x y z
#    x 1.766460 0.000000 0.000000 
#    y 0.000000 1.797520 0.000000 
#    z 0.000000 0.000000 1.682020 
# 
# From -- ./inp_files/27226.got.cif
#   From: 2010.05.17/outbox.cif.g08.bks.cpg/sg74_14_cif.got.tgz:27226.got - 2010.06.03 17:57:02.
