data_PCOD9539777
_publ_section_title
;
Structure prediction by ZEFSAII (Michael W. Deem and Ramdas Pophale) SiO2 
 PCOD9539777
Probable space group: I M M A
;
_chemical_formula_sum "Si O2"
_cell_formula_units_Z 72
_cell_length_a 17.285626
_cell_length_b 18.683840
_cell_length_c 11.149911
_cell_angle_alpha 90.000000
_cell_angle_beta 90.000000
_cell_angle_gamma 90.000000
_cell_volume 3600.996112
_symmetry_space_group_name_H-M "I M M A"
_symmetry_group_IT_number 74
_symmetry_cell_setting 'orthorhombic'
loop_
_space_group_symop_operation_xyz
x,y,z
-x,1/2-y,z
x,-y,-z
-x,1/2+y,-z
-x,-y,-z
x,1/2+y,-z
-x,y,z
x,1/2-y,z
1/2+x,1/2+y,1/2+z
1/2-x,-y,1/2+z
1/2+x,1/2-y,1/2-z
1/2-x,y,1/2-z
1/2-x,1/2-y,1/2-z
1/2+x,y,1/2-z
1/2-x,1/2+y,1/2+z
1/2+x,-y,1/2+z
loop_
_atom_site_type_symbol
_atom_site_label
_atom_site_fract_x
_atom_site_fract_y
_atom_site_fract_z
Si Si1 0.156632 0.250000 0.236572
Si Si2 0.197877 0.622711 0.361552
Si Si3 0.902969 0.750000 0.488782
Si Si4 0.296805 0.500000 0.500000
Si Si5 0.161642 0.097980 0.202111
Si Si6 0.915062 0.003193 0.643151
O O1 0.250000 0.250000 0.250000
O O2 0.117635 0.250000 0.368596
O O3 0.139170 0.177503 0.166576
O O4 0.250000 0.650923 0.250000
O O5 0.144315 0.681828 0.429453
O O6 0.247496 0.568499 0.448494
O O7 0.140506 0.563775 0.307437
O O8 0.000000 0.750000 0.472950
O O9 0.345665 0.461747 0.398011
O O10 0.250000 0.095703 0.250000
O O11 0.109756 0.074086 0.312357
O O12 0.000000 0.020477 0.683119
O O13 0.912099 0.000000 0.500000
#
# Coordination Sequence:
#
# PCOD9539777 Si02
#       6
#     8  16   8   8  16  16
#     4  10  22  39  62  93 132 175 216 273 330 397
#     4  12  22  40  64  93 128 174 222 271 329 400
#     4  12  27  43  64 101 136 167 217 285 346 392
#     4  12  20  38  68  94 128 166 224 266 314 392
#     4  11  20  37  60  91 125 165 217 266 317 389
#     4  11  20  34  59  90 124 162 209 273 336 385
#
# _framework density 19.994468000000001
#
# number of rings (size 3 to 8) (size 9 to 14) (size 15 to 20)
#    0.000    0.667    5.556    5.000    0.000    2.667 
#    0.000    0.556    0.000    0.000    0.000    0.000 
#    0.000    0.000    0.000    0.000    0.000    0.000 
#
# Total GULP energy -200470.330803 kJ/mol
# GULP energy per Si atom -5568.620300 kJ/mol
# Density = 1.994896 g / cm^3
# Si number density = 19.994468 Si / 1000 Ang^3
#
#
#
# Elastic Constant Matrix: (Units=GPa)
#
#
# Indices 1 2 3 4 5 6 
#
# 1 62.6720 3.6097 29.5204 0.0000 0.0000 0.0000
# 2 3.6097 132.8414 44.4927 0.0000 0.0000 0.0000
# 3 29.5204 44.4927 65.9319 0.0000 0.0000 0.0000
# 4 0.0000 0.0000 0.0000 27.6533 0.0000 0.0000
# 5 0.0000 0.0000 0.0000 0.0000 18.1092 0.0000
# 6 0.0000 0.0000 0.0000 0.0000 0.0000 120.9267
#
#
#
# Elastic Compliance Matrix: (Units=1/GPa)
#
#
# Indices 1 2 3 4 5 6 
#
# 1 0.021337 0.003385 -0.011838 0.000000 0.000000 0.000000
# 2 0.003385 0.010263 -0.008441 0.000000 0.000000 0.000000
# 3 -0.011838 -0.008441 0.026164 0.000000 0.000000 0.000000
# 4 0.000000 0.000000 0.000000 0.036162 0.000000 0.000000
# 5 0.000000 0.000000 0.000000 0.000000 0.055221 0.000000
# 6 0.000000 0.000000 0.000000 0.000000 0.000000 0.008269
#
#
# Mechanical properties :
#
#
# Convention : Reuss Voigt Hill
#
# Bulk Modulus (GPa) = 41.70884 46.29898 44.00391
# Shear Modulus (GPa) = 25.10083 45.59267 35.34675
#
# Velocity S-wave (km/s) = 3.54699 4.78039 4.20911
# Velocity P-wave (km/s) = 6.13843 7.32637 6.75855
#
# Compressibility (1/GPa) = 0.02397573
#
# Stress axis : x y z
#
# Youngs Moduli (GPa) = 46.86682 97.43647 38.22051
#
# Poissons Ratio (x) = -0.32983 0.45245
# Poissons Ratio (y) = -0.15865 0.32264
# Poissons Ratio (z) = 0.55480 0.82251
#
# Static dielectric constant tensor:
#      x y z
#    x 1.750880 0.000000 0.000000 
#    y 0.000000 1.785950 0.000000 
#    z 0.000000 0.000000 1.761110 
# 
# From -- ./inp_files/21907.got.cif
#   From: 2010.05.17/outbox.cif.g08.bks.cpg/sg74_11_cif.got.tgz:21907.got - 2010.06.03 17:57:02.
