data_PCOD9539802
_publ_section_title
;
Structure prediction by ZEFSAII (Michael W. Deem and Ramdas Pophale) SiO2 
 PCOD9539802
Probable space group: I M M A
;
_chemical_formula_sum "Si O2"
_cell_formula_units_Z 72
_cell_length_a 14.070105
_cell_length_b 25.795087
_cell_length_c 9.085654
_cell_angle_alpha 90.000000
_cell_angle_beta 90.000000
_cell_angle_gamma 90.000000
_cell_volume 3297.543470
_symmetry_space_group_name_H-M "I M M A"
_symmetry_group_IT_number 74
_symmetry_cell_setting 'orthorhombic'
loop_
_space_group_symop_operation_xyz
x,y,z
-x,1/2-y,z
x,-y,-z
-x,1/2+y,-z
-x,-y,-z
x,1/2+y,-z
-x,y,z
x,1/2-y,z
1/2+x,1/2+y,1/2+z
1/2-x,-y,1/2+z
1/2+x,1/2-y,1/2-z
1/2-x,y,1/2-z
1/2-x,1/2-y,1/2-z
1/2+x,y,1/2-z
1/2-x,1/2+y,1/2+z
1/2+x,-y,1/2+z
loop_
_atom_site_type_symbol
_atom_site_label
_atom_site_fract_x
_atom_site_fract_y
_atom_site_fract_z
Si Si1 0.859584 0.192712 0.796412
Si Si2 0.392440 0.343901 0.015161
Si Si3 0.277186 0.448925 0.923248
Si Si4 0.750000 0.835983 0.750000
Si Si5 0.107853 0.106553 0.043870
O O1 0.877184 0.250000 0.858381
O O2 0.750000 0.187181 0.750000
O O3 0.904948 0.185441 0.638050
O O4 0.888099 0.148853 0.911923
O O5 0.500000 0.349625 0.078538
O O6 0.342877 0.399192 0.967830
O O7 0.312507 0.313849 0.114347
O O8 0.250000 0.451949 0.750000
O O9 0.319508 0.500000 0.000000
O O10 0.174560 0.440071 0.996714
O O11 0.834924 0.868655 0.821890
O O12 0.000000 0.093235 0.075685
#
# Coordination Sequence:
#
# PCOD9539802 Si02
#       5
#    16  16  16   8  16
#     4  11  21  41  72  99 128 168 216 269 325 383
#     4  11  22  42  67  93 128 169 216 265 323 383
#     4  11  24  41  61  93 132 169 211 269 320 375
#     4  10  22  40  57  92 126 168 202 252 319 370
#     4  11  22  42  67  93 128 169 216 265 323 383
#
# _framework density 21.834437000000001
#
# number of rings (size 3 to 8) (size 9 to 14) (size 15 to 20)
#    0.000    1.111    6.667    1.333    6.222    2.667 
#    0.000    2.222    0.000    2.667    0.000    0.000 
#    0.000    0.000    0.000    0.000    0.000    0.000 
#
# Total GULP energy -200599.299147 kJ/mol
# GULP energy per Si atom -5572.202754 kJ/mol
# Density = 2.178474 g / cm^3
# Si number density = 21.834437 Si / 1000 Ang^3
#
#
#
# Elastic Constant Matrix: (Units=GPa)
#
#
# Indices 1 2 3 4 5 6 
#
# 1 174.8112 -5.0224 4.6768 0.0011 0.0000 0.0000
# 2 -5.0224 78.1206 -9.0475 0.0010 0.0000 0.0001
# 3 4.6768 -9.0475 67.2869 -0.0037 0.0007 -0.0004
# 4 0.0011 0.0010 -0.0037 -10.5797 0.0007 0.0005
# 5 0.0000 0.0000 0.0007 0.0007 15.6586 0.0003
# 6 0.0000 0.0001 -0.0004 0.0005 0.0003 0.2542
#
#
#
# Elastic Compliance Matrix: (Units=1/GPa)
#
#
# Indices 1 2 3 4 5 6 
#
# 1 0.005739 0.000328 -0.000355 0.000001 0.000000 -0.000001
# 2 0.000328 0.013022 0.001728 0.000001 0.000000 0.000000
# 3 -0.000355 0.001728 0.015119 -0.000005 -0.000001 0.000025
# 4 0.000001 0.000001 -0.000005 -0.094521 0.000004 0.000201
# 5 0.000000 0.000000 -0.000001 0.000004 0.063862 -0.000075
# 6 -0.000001 0.000000 0.000025 0.000201 -0.000075 3.933924
#
#
# Mechanical properties :
#
#
# Convention : Reuss Voigt Hill
#
# Bulk Modulus (GPa) = 26.82223 33.49252 30.15737
# Shear Modulus (GPa) = 1.26705 23.04075 12.15390
#
# Velocity S-wave (km/s) = 0.76260 3.25198 2.36188
# Velocity P-wave (km/s) = 3.61752 5.42892 4.61300
#
# Compressibility (1/GPa) = 0.03728251
#
# Stress axis : x y z
#
# Youngs Moduli (GPa) = 174.23516 76.79343 66.14295
#
# Poissons Ratio (x) = -0.02518 0.02347
# Poissons Ratio (y) = -0.05713 -0.11431
# Poissons Ratio (z) = 0.06182 -0.13271
#
# Static dielectric constant tensor:
#      x y z
#    x 1.795750 0.000000 0.000000 
#    y 0.000000 1.776690 0.000000 
#    z 0.000000 0.000000 1.905550 
# 
# From -- ./inp_files/9161.got.cif
#   From: 2010.05.17/outbox.cif.g08.bks.cpg/sg74_5_cif.got.tgz:9161.got - 2010.06.03 17:57:02.
