data_PCOD9539528
_publ_section_title
;
Structure prediction by ZEFSAII (Michael W. Deem and Ramdas Pophale) SiO2 
 PCOD9539528
Probable space group: I M M A
;
_chemical_formula_sum "Si O2"
_cell_formula_units_Z 100
_cell_length_a 20.164090
_cell_length_b 30.401860
_cell_length_c 9.244332
_cell_angle_alpha 90.000000
_cell_angle_beta 90.000000
_cell_angle_gamma 90.000000
_cell_volume 5667.014401
_symmetry_space_group_name_H-M "I M M A"
_symmetry_group_IT_number 74
_symmetry_cell_setting 'orthorhombic'
loop_
_space_group_symop_operation_xyz
x,y,z
-x,1/2-y,z
x,-y,-z
-x,1/2+y,-z
-x,-y,-z
x,1/2+y,-z
-x,y,z
x,1/2-y,z
1/2+x,1/2+y,1/2+z
1/2-x,-y,1/2+z
1/2+x,1/2-y,1/2-z
1/2-x,y,1/2-z
1/2-x,1/2-y,1/2-z
1/2+x,y,1/2-z
1/2-x,1/2+y,1/2+z
1/2+x,-y,1/2+z
loop_
_atom_site_type_symbol
_atom_site_label
_atom_site_fract_x
_atom_site_fract_y
_atom_site_fract_z
Si Si1 0.113493 0.558957 0.842432
Si Si2 0.845565 0.890761 0.371424
Si Si3 0.692681 0.123416 0.548935
Si Si4 0.312851 0.484895 0.841696
Si Si5 0.576841 0.641588 0.859376
Si Si6 0.177317 0.198993 0.177840
Si Si7 0.500000 0.000000 0.500000
O O1 0.154158 0.524683 0.744182
O O2 0.086137 0.597136 0.736303
O O3 0.057753 0.531875 0.926798
O O4 0.160809 0.583812 0.956775
O O5 0.771497 0.884561 0.436845
O O6 0.840071 0.874364 0.207179
O O7 0.860024 0.942921 0.361603
O O8 0.896406 0.868090 0.479653
O O9 0.679280 0.168178 0.462655
O O10 0.250000 0.469043 0.750000
O O11 0.291346 0.500000 0.000000
O O12 0.500000 0.653874 0.859472
O O13 0.623119 0.678186 0.785221
O O14 0.163892 0.250000 0.147062
O O15 0.250000 0.195569 0.250000
#
# Coordination Sequence:
#
# PCOD9539528 Si02
#       7
#    16  16  16  16  16  16   4
#     4  11  24  39  55  81 119 170 210 269 299 365
#     4  11  21  38  57  91 122 162 203 257 308 373
#     4  10  21  40  63  87 125 157 207 260 320 363
#     4  12  23  35  57  87 120 160 220 267 311 350
#     4  11  23  43  61  88 126 168 204 252 328 380
#     4  10  21  40  71 100 120 154 202 259 317 388
#     4  12  24  40  54  84 118 164 228 256 312 364
#
# _framework density 17.645976999999998
#
# number of rings (size 3 to 8) (size 9 to 14) (size 15 to 20)
#    0.000    1.120    5.600    1.920    1.120    0.320 
#    5.760    3.600    0.000    0.000    0.000    0.000 
#    0.000    0.000    0.000    0.000    0.000    0.000 
#
# Total GULP energy -278801.103322 kJ/mol
# GULP energy per Si atom -5576.022066 kJ/mol
# Density = 1.760581 g / cm^3
# Si number density = 17.645977 Si / 1000 Ang^3
#
#
#
# Elastic Constant Matrix: (Units=GPa)
#
#
# Indices 1 2 3 4 5 6 
#
# 1 100.1337 43.8083 49.1412 0.0000 0.0000 0.0000
# 2 43.8083 122.2608 58.5122 0.0000 0.0000 0.0000
# 3 49.1412 58.5122 116.5957 0.0000 0.0000 0.0000
# 4 0.0000 0.0000 0.0000 14.6200 0.0000 0.0000
# 5 0.0000 0.0000 0.0000 0.0000 19.1444 0.0000
# 6 0.0000 0.0000 0.0000 0.0000 0.0000 10.9539
#
#
#
# Elastic Compliance Matrix: (Units=1/GPa)
#
#
# Indices 1 2 3 4 5 6 
#
# 1 0.013249 -0.002731 -0.004214 0.000000 0.000000 0.000000
# 2 -0.002731 0.011327 -0.004534 0.000000 0.000000 0.000000
# 3 -0.004214 -0.004534 0.012628 0.000000 0.000000 0.000000
# 4 0.000000 0.000000 0.000000 0.068400 0.000000 0.000000
# 5 0.000000 0.000000 0.000000 0.000000 0.052235 0.000000
# 6 0.000000 0.000000 0.000000 0.000000 0.000000 0.091292
#
#
# Mechanical properties :
#
#
# Convention : Reuss Voigt Hill
#
# Bulk Modulus (GPa) = 70.18435 71.32373 70.75404
# Shear Modulus (GPa) = 18.06123 21.44555 19.75339
#
# Velocity S-wave (km/s) = 3.20274 3.48993 3.34941
# Velocity P-wave (km/s) = 7.31687 7.53303 7.42574
#
# Compressibility (1/GPa) = 0.01424819
#
# Stress axis : x y z
#
# Youngs Moduli (GPa) = 75.47579 88.28102 79.19095
#
# Poissons Ratio (x) = 0.24108 0.33368
# Poissons Ratio (y) = 0.20611 0.35902
# Poissons Ratio (z) = 0.31803 0.40023
#
# Static dielectric constant tensor:
#      x y z
#    x 1.586450 0.000000 0.000000 
#    y 0.000000 1.590380 0.000000 
#    z 0.000000 0.000000 1.599420 
# 
# From -- ./inp_files/12898.got.cif
#   From: 2010.05.17/outbox.cif.g08.bks.cpg/sg74_7_cif.got.tgz:12898.got - 2010.06.03 17:57:02.
