data_PCOD9539441
_publ_section_title
;
Structure prediction by ZEFSAII (Michael W. Deem and Ramdas Pophale) SiO2 
 PCOD9539441
Probable space group: I M M A
;
_chemical_formula_sum "Si O2"
_cell_formula_units_Z 52
_cell_length_a 15.757496
_cell_length_b 7.576991
_cell_length_c 17.920915
_cell_angle_alpha 90.000000
_cell_angle_beta 90.000000
_cell_angle_gamma 90.000000
_cell_volume 2139.656990
_symmetry_space_group_name_H-M "I M M A"
_symmetry_group_IT_number 74
_symmetry_cell_setting 'orthorhombic'
loop_
_space_group_symop_operation_xyz
x,y,z
-x,1/2-y,z
x,-y,-z
-x,1/2+y,-z
-x,-y,-z
x,1/2+y,-z
-x,y,z
x,1/2-y,z
1/2+x,1/2+y,1/2+z
1/2-x,-y,1/2+z
1/2+x,1/2-y,1/2-z
1/2-x,y,1/2-z
1/2-x,1/2-y,1/2-z
1/2+x,y,1/2-z
1/2-x,1/2+y,1/2+z
1/2+x,-y,1/2+z
loop_
_atom_site_type_symbol
_atom_site_label
_atom_site_fract_x
_atom_site_fract_y
_atom_site_fract_z
Si Si1 0.750000 0.250000 0.750000
Si Si2 0.682139 0.954726 0.643954
Si Si3 0.000000 0.452112 0.871882
Si Si4 0.500000 0.033503 0.197047
Si Si5 0.860089 0.041215 0.417468
O O1 0.691239 0.406279 0.710678
O O2 0.693180 0.750000 0.667902
O O3 0.762344 0.010976 0.593033
O O4 0.590377 0.967105 0.605677
O O5 0.000000 0.250000 0.894259
O O6 0.000000 0.471574 0.781481
O O7 0.500000 0.250000 0.200262
O O8 0.580553 0.970989 0.148222
O O9 0.863018 0.250000 0.410078
O O10 0.891424 0.000000 0.500000
#
# Coordination Sequence:
#
# PCOD9539441 Si02
#       5
#     4  16   8   8  16
#     4  12  22  38  68  98 132 170 226 264 344 394
#     4  11  24  42  64  98 136 177 223 284 335 396
#     4  12  24  41  66  98 132 177 225 279 342 407
#     4  10  21  39  61  95 133 174 212 273 341 398
#     4  10  23  40  65  92 131 179 223 270 331 399
#
# _framework density 24.302959000000001
#
# number of rings (size 3 to 8) (size 9 to 14) (size 15 to 20)
#    0.000    1.231    1.538    4.154    2.154    3.692 
#    0.000    0.769    0.000    0.000    0.000    0.000 
#    0.000    0.000    0.000    0.000    0.000    0.000 
#
# Total GULP energy -144890.157213 kJ/mol
# GULP energy per Si atom -5572.698354 kJ/mol
# Density = 2.424764 g / cm^3
# Si number density = 24.302959 Si / 1000 Ang^3
#
#
#
# Elastic Constant Matrix: (Units=GPa)
#
#
# Indices 1 2 3 4 5 6 
#
# 1 113.1278 8.4312 3.8698 0.0000 0.0000 0.0000
# 2 8.4312 135.2627 -15.0002 0.0000 0.0000 0.0000
# 3 3.8698 -15.0002 45.1669 0.0000 0.0000 0.0000
# 4 0.0000 0.0000 0.0000 -45.8223 0.0000 0.0000
# 5 0.0000 0.0000 0.0000 0.0000 52.3858 0.0000
# 6 0.0000 0.0000 0.0000 0.0000 0.0000 23.7753
#
#
#
# Elastic Compliance Matrix: (Units=1/GPa)
#
#
# Indices 1 2 3 4 5 6 
#
# 1 0.008923 -0.000665 -0.000985 0.000000 0.000000 0.000000
# 2 -0.000665 0.007725 0.002623 0.000000 0.000000 0.000000
# 3 -0.000985 0.002623 0.023096 0.000000 0.000000 0.000000
# 4 0.000000 0.000000 0.000000 -0.021823 0.000000 0.000000
# 5 0.000000 0.000000 0.000000 0.000000 0.019089 0.000000
# 6 0.000000 0.000000 0.000000 0.000000 0.000000 0.042060
#
#
# Mechanical properties :
#
#
# Convention : Reuss Voigt Hill
#
# Bulk Modulus (GPa) = 23.98823 32.01767 28.00295
# Shear Modulus (GPa) = 54.93159 25.81818 40.37489
#
# Velocity S-wave (km/s) = 4.75940 3.26290 4.08035
# Velocity P-wave (km/s) = 6.33202 5.23435 5.80917
#
# Compressibility (1/GPa) = 0.04168711
#
# Stress axis : x y z
#
# Youngs Moduli (GPa) = 112.07160 129.44408 43.29841
#
# Poissons Ratio (x) = 0.08614 0.04267
# Poissons Ratio (y) = 0.07458 -0.11356
# Poissons Ratio (z) = 0.11045 -0.33949
#
# Static dielectric constant tensor:
#      x y z
#    x 2.035370 0.000000 0.000000 
#    y 0.000000 1.893130 0.000000 
#    z 0.000000 0.000000 1.931070 
# 
# From -- ./inp_files/51340.got.cif
#   From: 2010.05.17/outbox.cif.g08.bks.cpg/sg74_26_cif.got.tgz:51340.got - 2010.06.03 17:57:02.
