data_PCOD9539408
_publ_section_title
;
Structure prediction by ZEFSAII (Michael W. Deem and Ramdas Pophale) SiO2 
 PCOD9539408
Probable space group: I M M A
;
_chemical_formula_sum "Si O2"
_cell_formula_units_Z 84
_cell_length_a 20.212334
_cell_length_b 15.416331
_cell_length_c 12.129575
_cell_angle_alpha 90.000000
_cell_angle_beta 90.000000
_cell_angle_gamma 90.000000
_cell_volume 3779.575949
_symmetry_space_group_name_H-M "I M M A"
_symmetry_group_IT_number 74
_symmetry_cell_setting 'orthorhombic'
loop_
_space_group_symop_operation_xyz
x,y,z
-x,1/2-y,z
x,-y,-z
-x,1/2+y,-z
-x,-y,-z
x,1/2+y,-z
-x,y,z
x,1/2-y,z
1/2+x,1/2+y,1/2+z
1/2-x,-y,1/2+z
1/2+x,1/2-y,1/2-z
1/2-x,y,1/2-z
1/2-x,1/2-y,1/2-z
1/2+x,y,1/2-z
1/2-x,1/2+y,1/2+z
1/2+x,-y,1/2+z
loop_
_atom_site_type_symbol
_atom_site_label
_atom_site_fract_x
_atom_site_fract_y
_atom_site_fract_z
Si Si1 0.164351 0.103650 0.006850
Si Si2 0.892357 0.608171 0.218750
Si Si3 0.073634 0.102133 0.463439
Si Si4 0.500000 0.250000 0.785435
Si Si5 0.198598 0.847612 0.402119
Si Si6 0.574132 0.407119 0.295585
O O1 0.130732 0.128369 0.122682
O O2 0.124211 0.141214 0.903404
O O3 0.240358 0.121673 0.976816
O O4 0.156892 0.000000 0.000000
O O5 0.942313 0.674059 0.274800
O O6 0.825400 0.601744 0.292515
O O7 0.921378 0.512006 0.206754
O O8 0.133943 0.147675 0.521916
O O9 0.081009 0.115461 0.332799
O O10 0.000000 0.134246 0.494087
O O11 0.076362 0.000000 0.500000
O O12 0.212848 0.750000 0.367188
O O13 0.500000 0.382137 0.333459
#
# Coordination Sequence:
#
# PCOD9539408 Si02
#       6
#    16  16  16   4  16  16
#     4  10  25  42  62  92 129 176 219 263 318 396
#     4  11  23  38  66  97 134 165 208 270 335 401
#     4  10  21  38  67  95 125 166 221 277 325 386
#     4  12  24  36  64 110 138 172 202 276 366 402
#     4  12  25  41  63  94 136 171 215 270 339 400
#     4  10  21  42  67  94 124 167 226 274 320 384
#
# _framework density 22.224715
#
# number of rings (size 3 to 8) (size 9 to 14) (size 15 to 20)
#    0.000    1.333    3.810    1.143    4.000    3.048 
#    0.000    1.905    0.000    1.143    0.000    0.000 
#    0.000    0.000    0.000    0.000    0.000    0.000 
#
# Total GULP energy -234112.108718 kJ/mol
# GULP energy per Si atom -5574.097827 kJ/mol
# Density = 2.217413 g / cm^3
# Si number density = 22.224715 Si / 1000 Ang^3
#
#
#
# Elastic Constant Matrix: (Units=GPa)
#
#
# Indices 1 2 3 4 5 6 
#
# 1 129.8559 14.9590 82.2604 0.0000 0.0000 0.0000
# 2 14.9590 24.0802 -0.8486 0.0000 0.0000 0.0000
# 3 82.2604 -0.8486 149.4878 0.0000 0.0000 0.0000
# 4 0.0000 0.0000 0.0000 -14.3306 0.0000 0.0000
# 5 0.0000 0.0000 0.0000 0.0000 33.9390 0.0000
# 6 0.0000 0.0000 0.0000 0.0000 0.0000 8.5027
#
#
#
# Elastic Compliance Matrix: (Units=1/GPa)
#
#
# Indices 1 2 3 4 5 6 
#
# 1 0.013386 -0.008577 -0.007415 0.000000 0.000000 0.000000
# 2 -0.008577 0.047032 0.004987 0.000000 0.000000 0.000000
# 3 -0.007415 0.004987 0.010798 0.000000 0.000000 0.000000
# 4 0.000000 0.000000 0.000000 -0.069781 0.000000 0.000000
# 5 0.000000 0.000000 0.000000 0.000000 0.029465 0.000000
# 6 0.000000 0.000000 0.000000 0.000000 0.000000 0.117610
#
#
# Mechanical properties :
#
#
# Convention : Reuss Voigt Hill
#
# Bulk Modulus (GPa) = 20.32278 55.12950 37.72614
# Shear Modulus (GPa) = 26.74917 19.42574 23.08745
#
# Velocity S-wave (km/s) = 3.47303 2.95966 3.22657
# Velocity P-wave (km/s) = 5.02460 6.04473 5.55812
#
# Compressibility (1/GPa) = 0.04920588
#
# Stress axis : x y z
#
# Youngs Moduli (GPa) = 74.70555 21.26223 92.60984
#
# Poissons Ratio (x) = 0.18236 0.68667
# Poissons Ratio (y) = 0.64074 -0.46181
# Poissons Ratio (z) = 0.55392 -0.10603
#
# Static dielectric constant tensor:
#      x y z
#    x 1.831100 0.000000 0.000000 
#    y 0.000000 1.844650 0.000000 
#    z 0.000000 0.000000 1.864750 
# 
# From -- ./inp_files/23865.got.cif
#   From: 2010.05.17/outbox.cif.g08.bks.cpg/sg74_12_cif.got.tgz:23865.got - 2010.06.03 17:57:02.
