data_PCOD9539040
_publ_section_title
;
Structure prediction by ZEFSAII (Michael W. Deem and Ramdas Pophale) SiO2 
 PCOD9539040
Probable space group: I M M A
;
_chemical_formula_sum "Si O2"
_cell_formula_units_Z 56
_cell_length_a 30.457199
_cell_length_b 14.450501
_cell_length_c 5.631681
_cell_angle_alpha 90.000000
_cell_angle_beta 90.000000
_cell_angle_gamma 90.000000
_cell_volume 2478.625492
_symmetry_space_group_name_H-M "I M M A"
_symmetry_group_IT_number 74
_symmetry_cell_setting 'orthorhombic'
loop_
_space_group_symop_operation_xyz
x,y,z
-x,1/2-y,z
x,-y,-z
-x,1/2+y,-z
-x,-y,-z
x,1/2+y,-z
-x,y,z
x,1/2-y,z
1/2+x,1/2+y,1/2+z
1/2-x,-y,1/2+z
1/2+x,1/2-y,1/2-z
1/2-x,y,1/2-z
1/2-x,1/2-y,1/2-z
1/2+x,y,1/2-z
1/2-x,1/2+y,1/2+z
1/2+x,-y,1/2+z
loop_
_atom_site_type_symbol
_atom_site_label
_atom_site_fract_x
_atom_site_fract_y
_atom_site_fract_z
Si Si1 0.406338 0.500000 0.500000
Si Si2 0.227573 0.887073 0.500367
Si Si3 0.549655 0.851390 0.172737
Si Si4 0.368519 0.397602 0.112278
O O1 0.437580 0.560651 0.331906
O O2 0.374099 0.422616 0.387266
O O3 0.250000 0.859237 0.750000
O O4 0.176955 0.856312 0.525289
O O5 0.228048 0.000000 0.500000
O O6 0.250000 0.858997 0.250000
O O7 0.500000 0.861958 0.081882
O O8 0.551816 0.750000 0.295285
O O9 0.586960 0.850746 0.972278
O O10 0.369323 0.500000 0.000000
#
# Coordination Sequence:
#
# PCOD9539040 Si02
#       4
#     8  16  16  16
#     4  10  21  36  62  92 118 162 208 260 313 380
#     4   9  18  29  53  85 120 158 207 258 313 373
#     4  10  22  39  59  86 122 162 207 260 320 382
#     4   9  20  34  56  83 120 155 204 255 316 369
#
# _framework density 22.593167999999999
#
# number of rings (size 3 to 8) (size 9 to 14) (size 15 to 20)
#    0.000    2.571    0.000    0.429   14.000    7.429 
#    0.000    2.857    0.000    1.714    0.000    0.000 
#    0.000    0.000    0.000    0.000    0.000    0.000 
#
# Total GULP energy -155959.079513 kJ/mol
# GULP energy per Si atom -5569.967125 kJ/mol
# Density = 2.254175 g / cm^3
# Si number density = 22.593168 Si / 1000 Ang^3
#
#
#
# Elastic Constant Matrix: (Units=GPa)
#
#
# Indices 1 2 3 4 5 6 
#
# 1 220.8660 30.3848 90.3347 0.0000 0.0000 0.0000
# 2 30.3848 99.3204 19.2979 0.0000 0.0000 0.0000
# 3 90.3347 19.2979 106.0735 0.0000 0.0000 0.0003
# 4 0.0000 0.0000 0.0000 -5.8214 0.0000 0.0000
# 5 0.0000 0.0000 0.0000 0.0000 23.4303 0.0000
# 6 0.0000 0.0000 0.0003 0.0000 0.0000 463.5330
#
#
#
# Elastic Compliance Matrix: (Units=1/GPa)
#
#
# Indices 1 2 3 4 5 6 
#
# 1 0.007047 -0.001026 -0.005815 0.000000 0.000000 0.000000
# 2 -0.001026 0.010587 -0.001052 0.000000 0.000000 0.000000
# 3 -0.005815 -0.001052 0.014571 0.000000 0.000000 0.000000
# 4 0.000000 0.000000 0.000000 -0.171779 0.000000 0.000000
# 5 0.000000 0.000000 0.000000 0.000000 0.042680 0.000000
# 6 0.000000 0.000000 0.000000 0.000000 0.000000 0.002157
#
#
# Mechanical properties :
#
#
# Convention : Reuss Voigt Hill
#
# Bulk Modulus (GPa) = 60.90669 78.47719 69.69194
# Shear Modulus (GPa) = -68.04742 115.31121 23.63189
#
# Velocity S-wave (km/s) = -5.49399 7.15184 3.23766
# Velocity P-wave (km/s) = 3.63714 10.14933 6.70000
#
# Compressibility (1/GPa) = 0.01641856
#
# Stress axis : x y z
#
# Youngs Moduli (GPa) = 141.90360 94.45753 68.63026
#
# Poissons Ratio (x) = 0.09692 0.39907
# Poissons Ratio (y) = 0.14560 0.07221
# Poissons Ratio (z) = 0.82513 0.09939
#
# Static dielectric constant tensor:
#      x y z
#    x 1.827250 0.000000 0.000000 
#    y 0.000000 1.886070 0.000000 
#    z 0.000000 0.000000 2.113430 
# 
# From -- ./inp_files/1495.got.cif
#   From: 2010.05.17/outbox.cif.g08.bks.cpg/sg74_1_cif.got.tgz:1495.got - 2010.06.03 17:57:02.
