data_PCOD9539719
_publ_section_title
;
Structure prediction by ZEFSAII (Michael W. Deem and Ramdas Pophale) SiO2 
 PCOD9539719
Probable space group: I M M A
;
_chemical_formula_sum "Si O2"
_cell_formula_units_Z 64
_cell_length_a 27.979568
_cell_length_b 16.551910
_cell_length_c 6.731997
_cell_angle_alpha 90.000000
_cell_angle_beta 90.000000
_cell_angle_gamma 90.000000
_cell_volume 3117.690752
_symmetry_space_group_name_H-M "I M M A"
_symmetry_group_IT_number 74
_symmetry_cell_setting 'orthorhombic'
loop_
_space_group_symop_operation_xyz
x,y,z
-x,1/2-y,z
x,-y,-z
-x,1/2+y,-z
-x,-y,-z
x,1/2+y,-z
-x,y,z
x,1/2-y,z
1/2+x,1/2+y,1/2+z
1/2-x,-y,1/2+z
1/2+x,1/2-y,1/2-z
1/2-x,y,1/2-z
1/2-x,1/2-y,1/2-z
1/2+x,y,1/2-z
1/2-x,1/2+y,1/2+z
1/2+x,-y,1/2+z
loop_
_atom_site_type_symbol
_atom_site_label
_atom_site_fract_x
_atom_site_fract_y
_atom_site_fract_z
Si Si1 0.552799 0.750000 0.016750
Si Si2 0.397863 0.750000 0.620423
Si Si3 0.805568 0.750000 0.692471
Si Si4 0.128742 0.000000 0.000000
Si Si5 0.944831 0.383332 0.851495
Si Si6 0.195913 0.069225 0.333017
O O1 0.500000 0.750000 0.921555
O O2 0.556346 0.672020 0.156459
O O3 0.592539 0.750000 0.853018
O O4 0.340540 0.750000 0.613339
O O5 0.424278 0.826035 0.524687
O O6 0.750000 0.750000 0.750000
O O7 0.812832 0.661563 0.592225
O O8 0.092499 0.955220 0.149757
O O9 0.162002 0.053401 0.142781
O O10 0.000000 0.406232 0.887045
O O11 0.250000 0.063388 0.250000
O O12 0.188813 0.000000 0.500000
#
# Coordination Sequence:
#
# PCOD9539719 Si02
#       6
#     8   8   8   8  16  16
#     4   9  20  37  59  86 116 160 214 259 308 383
#     4  11  19  39  63  86 122 166 208 264 325 378
#     4  10  23  42  65  94 129 165 216 263 316 391
#     4  12  23  38  62  90 128 168 209 268 324 376
#     4  10  22  38  59  88 123 165 213 262 321 383
#     4  11  24  45  67  94 130 170 213 265 322 383
#
# _framework density 20.528013000000001
#
# number of rings (size 3 to 8) (size 9 to 14) (size 15 to 20)
#    0.000    1.500    3.750    2.250    3.500    0.000 
#    0.000    1.875    0.000    6.000    0.000    0.000 
#    0.000    0.000    0.000    0.000    0.000    0.000 
#
# Total GULP energy -178437.861175 kJ/mol
# GULP energy per Si atom -5576.183162 kJ/mol
# Density = 2.048129 g / cm^3
# Si number density = 20.528013 Si / 1000 Ang^3
#
#
#
# Elastic Constant Matrix: (Units=GPa)
#
#
# Indices 1 2 3 4 5 6 
#
# 1 147.8910 24.6361 20.3774 0.0000 0.0000 0.0000
# 2 24.6361 115.2991 13.0191 0.0000 0.0000 0.0000
# 3 20.3774 13.0191 42.6331 0.0000 0.0000 0.0000
# 4 0.0000 0.0000 0.0000 8.6527 0.0000 0.0000
# 5 0.0000 0.0000 0.0000 0.0000 19.4545 0.0000
# 6 0.0000 0.0000 0.0000 0.0000 0.0000 26.2797
#
#
#
# Elastic Compliance Matrix: (Units=1/GPa)
#
#
# Indices 1 2 3 4 5 6 
#
# 1 0.007402 -0.001224 -0.003164 0.000000 0.000000 0.000000
# 2 -0.001224 0.009185 -0.002220 0.000000 0.000000 0.000000
# 3 -0.003164 -0.002220 0.025646 0.000000 0.000000 0.000000
# 4 0.000000 0.000000 0.000000 0.115571 0.000000 0.000000
# 5 0.000000 0.000000 0.000000 0.000000 0.051402 0.000000
# 6 0.000000 0.000000 0.000000 0.000000 0.000000 0.038052
#
#
# Mechanical properties :
#
#
# Convention : Reuss Voigt Hill
#
# Bulk Modulus (GPa) = 34.46243 46.87648 40.66945
# Shear Modulus (GPa) = 18.50847 27.39677 22.95262
#
# Velocity S-wave (km/s) = 3.00596 3.65719 3.34745
# Velocity P-wave (km/s) = 5.37328 6.38109 5.89875
#
# Compressibility (1/GPa) = 0.02901710
#
# Stress axis : x y z
#
# Youngs Moduli (GPa) = 135.10556 108.86925 38.99229
#
# Poissons Ratio (x) = 0.13328 0.12337
# Poissons Ratio (y) = 0.16540 0.08656
# Poissons Ratio (z) = 0.42746 0.24167
#
# Static dielectric constant tensor:
#      x y z
#    x 1.742080 0.000000 0.000000 
#    y 0.000000 1.797560 0.000000 
#    z 0.000000 0.000000 1.695870 
# 
# From -- ./inp_files/4967.got.cif
#   From: 2010.05.17/outbox.cif.g08.bks.cpg/sg74_3_cif.got.tgz:4967.got - 2010.06.03 17:57:02.
