data_PCOD9539345
_publ_section_title
;
Structure prediction by ZEFSAII (Michael W. Deem and Ramdas Pophale) SiO2 
 PCOD9539345
Probable space group: I M M A
;
_chemical_formula_sum "Si O2"
_cell_formula_units_Z 80
_cell_length_a 25.830765
_cell_length_b 15.987031
_cell_length_c 9.254752
_cell_angle_alpha 90.000000
_cell_angle_beta 90.000000
_cell_angle_gamma 90.000000
_cell_volume 3821.816850
_symmetry_space_group_name_H-M "I M M A"
_symmetry_group_IT_number 74
_symmetry_cell_setting 'orthorhombic'
loop_
_space_group_symop_operation_xyz
x,y,z
-x,1/2-y,z
x,-y,-z
-x,1/2+y,-z
-x,-y,-z
x,1/2+y,-z
-x,y,z
x,1/2-y,z
1/2+x,1/2+y,1/2+z
1/2-x,-y,1/2+z
1/2+x,1/2-y,1/2-z
1/2-x,y,1/2-z
1/2-x,1/2-y,1/2-z
1/2+x,y,1/2-z
1/2-x,1/2+y,1/2+z
1/2+x,-y,1/2+z
loop_
_atom_site_type_symbol
_atom_site_label
_atom_site_fract_x
_atom_site_fract_y
_atom_site_fract_z
Si Si1 0.755877 0.347454 0.909563
Si Si2 0.845668 0.906617 0.557100
Si Si3 0.559462 0.595990 0.449258
Si Si4 0.940548 0.150517 0.627870
Si Si5 0.655831 0.652305 0.622481
O O1 0.770537 0.250000 0.888575
O O2 0.750000 0.385837 0.750000
O O3 0.701397 0.353887 0.990115
O O4 0.800743 0.382164 0.012474
O O5 0.900039 0.874797 0.493773
O O6 0.844676 0.897872 0.728744
O O7 0.837961 0.000000 0.500000
O O8 0.562108 0.500000 0.500000
O O9 0.500000 0.625286 0.467567
O O10 0.571963 0.605609 0.279519
O O11 0.600934 0.645773 0.542736
O O12 0.937190 0.250000 0.653177
O O13 0.000000 0.130296 0.588581
O O14 0.667253 0.750000 0.655984
#
# Coordination Sequence:
#
# PCOD9539345 Si02
#       5
#    16  16  16  16  16
#     4  10  22  41  64  88 117 156 201 248 301 364
#     4  12  25  39  59  88 122 159 198 250 309 359
#     4  10  21  38  61  90 123 157 196 247 305 363
#     4  10  21  39  62  85 115 159 205 246 295 361
#     4  11  23  39  62  90 122 160 203 252 301 359
#
# _framework density 20.932452999999999
#
# number of rings (size 3 to 8) (size 9 to 14) (size 15 to 20)
#    0.000    1.400    0.000    5.400    0.000    8.000 
#    0.000    0.000    0.000    0.000    0.000    0.000 
#    0.000    0.000    0.000    0.000    0.000    0.000 
#
# Total GULP energy -223698.865806 kJ/mol
# GULP energy per Si atom -5592.471645 kJ/mol
# Density = 2.088481 g / cm^3
# Si number density = 20.932453 Si / 1000 Ang^3
#
#
#
# Elastic Constant Matrix: (Units=GPa)
#
#
# Indices 1 2 3 4 5 6 
#
# 1 93.2151 4.6839 96.7810 0.0000 0.0000 0.0000
# 2 4.6839 49.4689 27.3564 0.0000 0.0000 0.0000
# 3 96.7810 27.3564 190.1436 0.0000 0.0000 0.0000
# 4 0.0000 0.0000 0.0000 4.6385 0.0000 0.0000
# 5 0.0000 0.0000 0.0000 0.0000 27.6408 0.0000
# 6 0.0000 0.0000 0.0000 0.0000 0.0000 49.9190
#
#
#
# Elastic Compliance Matrix: (Units=1/GPa)
#
#
# Indices 1 2 3 4 5 6 
#
# 1 0.023765 0.004823 -0.012790 0.000000 0.000000 0.000000
# 2 0.004823 0.022941 -0.005755 0.000000 0.000000 0.000000
# 3 -0.012790 -0.005755 0.012597 0.000000 0.000000 0.000000
# 4 0.000000 0.000000 0.000000 0.215586 0.000000 0.000000
# 5 0.000000 0.000000 0.000000 0.000000 0.036178 0.000000
# 6 0.000000 0.000000 0.000000 0.000000 0.000000 0.020032
#
#
# Mechanical properties :
#
#
# Convention : Reuss Voigt Hill
#
# Bulk Modulus (GPa) = 31.38955 65.60779 48.49867
# Shear Modulus (GPa) = 13.54416 30.04010 21.79213
#
# Velocity S-wave (km/s) = 2.54646 3.79238 3.23006
# Velocity P-wave (km/s) = 4.86561 7.11244 6.09348
#
# Compressibility (1/GPa) = 0.03185774
#
# Stress axis : x y z
#
# Youngs Moduli (GPa) = 42.07949 43.59052 79.38379
#
# Poissons Ratio (x) = -0.21022 1.01530
# Poissons Ratio (y) = -0.20293 0.45687
# Poissons Ratio (z) = 0.53819 0.25087
#
# Static dielectric constant tensor:
#      x y z
#    x 1.735430 0.000000 0.000000 
#    y 0.000000 1.772440 0.000000 
#    z 0.000000 0.000000 1.720780 
# 
# From -- ./inp_files/14946.got.cif
#   From: 2010.05.17/outbox.cif.g08.bks.cpg/sg74_8_cif.got.tgz:14946.got - 2010.06.03 17:57:02.
