data_PCOD9539086
_publ_section_title
;
Structure prediction by ZEFSAII (Michael W. Deem and Ramdas Pophale) SiO2 
 PCOD9539086
Probable space group: I M M A
;
_chemical_formula_sum "Si O2"
_cell_formula_units_Z 112
_cell_length_a 24.854415
_cell_length_b 15.419807
_cell_length_c 15.124991
_cell_angle_alpha 90.000000
_cell_angle_beta 90.000000
_cell_angle_gamma 90.000000
_cell_volume 5796.657072
_symmetry_space_group_name_H-M "I M M A"
_symmetry_group_IT_number 74
_symmetry_cell_setting 'orthorhombic'
loop_
_space_group_symop_operation_xyz
x,y,z
-x,1/2-y,z
x,-y,-z
-x,1/2+y,-z
-x,-y,-z
x,1/2+y,-z
-x,y,z
x,1/2-y,z
1/2+x,1/2+y,1/2+z
1/2-x,-y,1/2+z
1/2+x,1/2-y,1/2-z
1/2-x,y,1/2-z
1/2-x,1/2-y,1/2-z
1/2+x,y,1/2-z
1/2-x,1/2+y,1/2+z
1/2+x,-y,1/2+z
loop_
_atom_site_type_symbol
_atom_site_label
_atom_site_fract_x
_atom_site_fract_y
_atom_site_fract_z
Si Si1 0.440233 0.852120 0.996289
Si Si2 0.330474 0.552500 0.410001
Si Si3 0.440168 0.941767 0.184739
Si Si4 0.327046 0.648902 0.915426
Si Si5 0.561267 0.850928 0.364394
Si Si6 0.673620 0.993906 0.780529
Si Si7 0.276036 0.350337 0.891453
O O1 0.500000 0.871050 0.960519
O O2 0.438352 0.750000 0.019381
O O3 0.433557 0.905615 0.086196
O O4 0.390567 0.867409 0.932145
O O5 0.322864 0.500000 0.500000
O O6 0.390737 0.590942 0.403208
O O7 0.317799 0.493472 0.324042
O O8 0.286992 0.629278 0.400791
O O9 0.500000 0.979661 0.193105
O O10 0.436886 0.865811 0.258273
O O11 0.390649 0.002068 0.207748
O O12 0.319037 0.750000 0.893824
O O13 0.306198 0.585304 0.839798
O O14 0.301031 0.632474 0.011534
O O15 0.500000 0.874967 0.392063
O O16 0.569653 0.750000 0.384829
O O17 0.697471 0.082746 0.822391
O O18 0.286133 0.250000 0.867767
#
# Coordination Sequence:
#
# PCOD9539086 Si02
#       7
#    16  16  16  16  16  16  16
#     4   9  16  27  47  78 116 154 188 222 266 327
#     4  11  24  40  59  83 113 149 191 240 287 334
#     4   9  17  28  49  83 117 149 184 229 285 340
#     4  10  21  37  56  82 118 159 192 224 272 335
#     4   9  18  34  57  84 113 143 182 238 299 349
#     4  11  22  37  59  83 115 154 193 234 281 338
#     4  11  23  39  62  90 117 143 179 232 294 353
#
# _framework density 19.321480000000001
#
# number of rings (size 3 to 8) (size 9 to 14) (size 15 to 20)
#    0.000    2.000    1.429    2.571    0.000    6.000 
#    0.000    2.857    0.000    3.429    0.000    2.000 
#    0.000    0.000    0.000    0.000    0.000    0.000 
#
# Total GULP energy -312586.015653 kJ/mol
# GULP energy per Si atom -5581.893137 kJ/mol
# Density = 1.927750 g / cm^3
# Si number density = 19.321480 Si / 1000 Ang^3
#
#
#
# Elastic Constant Matrix: (Units=GPa)
#
#
# Indices 1 2 3 4 5 6 
#
# 1 93.8937 22.9706 21.2498 0.0000 0.0000 0.0000
# 2 22.9706 50.9942 64.3890 0.0000 0.0000 0.0000
# 3 21.2498 64.3890 113.9050 0.0000 0.0000 0.0000
# 4 0.0000 0.0000 0.0000 11.9138 0.0000 0.0000
# 5 0.0000 0.0000 0.0000 0.0000 4.6469 0.0000
# 6 0.0000 0.0000 0.0000 0.0000 0.0000 16.6545
#
#
#
# Elastic Compliance Matrix: (Units=1/GPa)
#
#
# Indices 1 2 3 4 5 6 
#
# 1 0.012240 -0.009189 0.002911 0.000000 0.000000 0.000000
# 2 -0.009189 0.075411 -0.040915 0.000000 0.000000 0.000000
# 3 0.002911 -0.040915 0.031365 0.000000 0.000000 0.000000
# 4 0.000000 0.000000 0.000000 0.083937 0.000000 0.000000
# 5 0.000000 0.000000 0.000000 0.000000 0.215197 0.000000
# 6 0.000000 0.000000 0.000000 0.000000 0.000000 0.060044
#
#
# Mechanical properties :
#
#
# Convention : Reuss Voigt Hill
#
# Bulk Modulus (GPa) = 40.60087 52.89019 46.74553
# Shear Modulus (GPa) = 8.60898 16.65526 12.63212
#
# Velocity S-wave (km/s) = 2.11313 2.93918 2.55970
# Velocity P-wave (km/s) = 5.19738 6.24112 5.74301
#
# Compressibility (1/GPa) = 0.02463002
#
# Stress axis : x y z
#
# Youngs Moduli (GPa) = 81.70198 13.26061 31.88298
#
# Poissons Ratio (x) = 0.12186 -0.09282
# Poissons Ratio (y) = 0.75078 1.30448
# Poissons Ratio (z) = -0.23785 0.54255
#
# Static dielectric constant tensor:
#      x y z
#    x 1.724070 0.000000 0.000000 
#    y 0.000000 1.668420 0.000000 
#    z 0.000000 0.000000 1.654540 
# 
# From -- ./inp_files/32718.got.cif
#   From: 2010.05.17/outbox.cif.g08.bks.cpg/sg74_17_cif.got.tgz:32718.got - 2010.06.03 17:57:02.
