data_PCOD9539807
_publ_section_title
;
Structure prediction by ZEFSAII (Michael W. Deem and Ramdas Pophale) SiO2 
 PCOD9539807
Probable space group: I M M A
;
_chemical_formula_sum "Si O2"
_cell_formula_units_Z 96
_cell_length_a 20.031908
_cell_length_b 23.981779
_cell_length_c 11.896387
_cell_angle_alpha 90.000000
_cell_angle_beta 90.000000
_cell_angle_gamma 90.000000
_cell_volume 5715.033720
_symmetry_space_group_name_H-M "I M M A"
_symmetry_group_IT_number 74
_symmetry_cell_setting 'orthorhombic'
loop_
_space_group_symop_operation_xyz
x,y,z
-x,1/2-y,z
x,-y,-z
-x,1/2+y,-z
-x,-y,-z
x,1/2+y,-z
-x,y,z
x,1/2-y,z
1/2+x,1/2+y,1/2+z
1/2-x,-y,1/2+z
1/2+x,1/2-y,1/2-z
1/2-x,y,1/2-z
1/2-x,1/2-y,1/2-z
1/2+x,y,1/2-z
1/2-x,1/2+y,1/2+z
1/2+x,-y,1/2+z
loop_
_atom_site_type_symbol
_atom_site_label
_atom_site_fract_x
_atom_site_fract_y
_atom_site_fract_z
Si Si1 0.422774 0.631521 0.483528
Si Si2 0.174053 0.750000 0.706884
Si Si3 0.194147 0.630384 0.604895
Si Si4 0.814888 0.947740 0.413743
Si Si5 0.838014 0.544624 0.160723
Si Si6 0.659303 0.414789 0.338160
Si Si7 0.080996 0.250000 0.068233
O O1 0.500000 0.627399 0.456339
O O2 0.382275 0.589566 0.404456
O O3 0.406093 0.612147 0.610208
O O4 0.402884 0.696115 0.492220
O O5 0.250000 0.750000 0.750000
O O6 0.171718 0.692879 0.635054
O O7 0.123503 0.750000 0.814489
O O8 0.169800 0.606937 0.486677
O O9 0.274541 0.617712 0.614421
O O10 0.165613 0.592237 0.705453
O O11 0.851644 0.952452 0.294582
O O12 0.738130 0.943357 0.373946
O O13 0.821762 0.000000 0.500000
O O14 0.843467 0.479389 0.129730
O O15 0.000000 0.250000 0.091057
#
# Coordination Sequence:
#
# PCOD9539807 Si02
#       7
#    16   8  16  16  16  16   8
#     4  11  22  37  56  81 113 147 192 240 284 339
#     4  12  20  32  57  85 114 143 185 245 291 340
#     4  11  19  31  53  83 112 141 180 227 289 337
#     4  11  18  33  53  79 112 148 181 224 280 343
#     4  11  21  32  54  82 114 151 187 225 280 349
#     4  11  18  31  53  81 113 144 179 225 286 343
#     4  10  22  40  59  81 113 155 197 242 293 349
#
# _framework density 16.797801
#
# number of rings (size 3 to 8) (size 9 to 14) (size 15 to 20)
#    0.000    1.000    8.333    1.500    0.000    1.333 
#    0.000    0.833    0.000    4.500    0.000    0.000 
#    0.000    0.000    0.000    0.000    0.000    0.000 
#
# Total GULP energy -267295.223331 kJ/mol
# GULP energy per Si atom -5568.650486 kJ/mol
# Density = 1.675957 g / cm^3
# Si number density = 16.797801 Si / 1000 Ang^3
#
#
#
# Elastic Constant Matrix: (Units=GPa)
#
#
# Indices 1 2 3 4 5 6 
#
# 1 30.2032 40.1375 11.8722 0.0000 0.0000 0.0000
# 2 40.1375 144.7240 37.5044 0.0000 0.0000 0.0000
# 3 11.8722 37.5044 73.3376 0.0000 0.0000 0.0000
# 4 0.0000 0.0000 0.0000 32.9214 0.0000 0.0000
# 5 0.0000 0.0000 0.0000 0.0000 18.8033 0.0000
# 6 0.0000 0.0000 0.0000 0.0000 0.0000 18.7082
#
#
#
# Elastic Compliance Matrix: (Units=1/GPa)
#
#
# Indices 1 2 3 4 5 6 
#
# 1 0.052528 -0.014253 -0.001214 0.000000 0.000000 0.000000
# 2 -0.014253 0.011833 -0.003744 0.000000 0.000000 0.000000
# 3 -0.001214 -0.003744 0.015747 0.000000 0.000000 0.000000
# 4 0.000000 0.000000 0.000000 0.030375 0.000000 0.000000
# 5 0.000000 0.000000 0.000000 0.000000 0.053182 0.000000
# 6 0.000000 0.000000 0.000000 0.000000 0.000000 0.053453
#
#
# Mechanical properties :
#
#
# Convention : Reuss Voigt Hill
#
# Bulk Modulus (GPa) = 23.98982 47.47700 35.73341
# Shear Modulus (GPa) = 18.55733 24.66995 21.61364
#
# Velocity S-wave (km/s) = 3.32738 3.83644 3.59094
# Velocity P-wave (km/s) = 5.39208 6.92456 6.20581
#
# Compressibility (1/GPa) = 0.04168434
#
# Stress axis : x y z
#
# Youngs Moduli (GPa) = 19.03754 84.51019 63.50510
#
# Poissons Ratio (x) = 1.20455 0.07712
# Poissons Ratio (y) = 0.27135 0.23776
# Poissons Ratio (z) = 0.02312 0.31640
#
# Static dielectric constant tensor:
#      x y z
#    x 1.581590 0.000000 0.000000 
#    y 0.000000 1.643620 0.000000 
#    z 0.000000 0.000000 1.585530 
# 
# From -- ./inp_files/22502.got.cif
#   From: 2010.05.17/outbox.cif.g08.bks.cpg/sg74_12_cif.got.tgz:22502.got - 2010.06.03 17:57:02.
