data_PCOD9539417
_publ_section_title
;
Structure prediction by ZEFSAII (Michael W. Deem and Ramdas Pophale) SiO2 
 PCOD9539417
Probable space group: I M M A
;
_chemical_formula_sum "Si O2"
_cell_formula_units_Z 84
_cell_length_a 9.522733
_cell_length_b 26.034197
_cell_length_c 17.724936
_cell_angle_alpha 90.000000
_cell_angle_beta 90.000000
_cell_angle_gamma 90.000000
_cell_volume 4394.307763
_symmetry_space_group_name_H-M "I M M A"
_symmetry_group_IT_number 74
_symmetry_cell_setting 'orthorhombic'
loop_
_space_group_symop_operation_xyz
x,y,z
-x,1/2-y,z
x,-y,-z
-x,1/2+y,-z
-x,-y,-z
x,1/2+y,-z
-x,y,z
x,1/2-y,z
1/2+x,1/2+y,1/2+z
1/2-x,-y,1/2+z
1/2+x,1/2-y,1/2-z
1/2-x,y,1/2-z
1/2-x,1/2-y,1/2-z
1/2+x,y,1/2-z
1/2-x,1/2+y,1/2+z
1/2+x,-y,1/2+z
loop_
_atom_site_type_symbol
_atom_site_label
_atom_site_fract_x
_atom_site_fract_y
_atom_site_fract_z
Si Si1 0.168784 0.036306 0.170899
Si Si2 0.163403 0.393616 0.436453
Si Si3 0.500000 0.750000 0.142438
Si Si4 0.219326 0.157152 0.661680
Si Si5 0.655406 0.048446 0.907301
Si Si6 0.154179 0.811137 0.015796
O O1 0.250000 0.030965 0.250000
O O2 0.235615 0.085386 0.128537
O O3 0.000000 0.038181 0.178174
O O4 0.221164 0.987885 0.121175
O O5 0.169369 0.434187 0.505987
O O6 0.225082 0.341101 0.470971
O O7 0.000000 0.388587 0.414269
O O8 0.618594 0.704598 0.144676
O O9 0.250000 0.157924 0.750000
O O10 0.160127 0.101502 0.639527
O O11 0.342350 0.167955 0.601647
O O12 0.500000 0.024327 0.896409
O O13 0.174198 0.750000 0.014699
O O14 0.000000 0.822807 0.983474
#
# Coordination Sequence:
#
# PCOD9539417 Si02
#       6
#    16  16   4  16  16  16
#     4  12  25  41  64  89 119 152 192 240 296 356
#     4  10  22  40  64  90 119 155 195 240 291 350
#     4  12  22  36  50  76 114 166 206 254 298 342
#     4  11  23  34  55  77 116 160 208 251 294 347
#     4  10  21  39  59  86 118 156 197 245 293 347
#     4  10  22  36  56  85 119 156 199 245 291 344
#
# _framework density 19.115638000000001
#
# number of rings (size 3 to 8) (size 9 to 14) (size 15 to 20)
#    0.000    1.333    1.905    3.714    2.667    6.476 
#    0.000    0.000    0.000    0.571    0.000    0.000 
#    0.000    0.000    0.000    0.000    0.000    0.000 
#
# Total GULP energy -233926.064399 kJ/mol
# GULP energy per Si atom -5569.668200 kJ/mol
# Density = 1.907213 g / cm^3
# Si number density = 19.115638 Si / 1000 Ang^3
#
#
#
# Elastic Constant Matrix: (Units=GPa)
#
#
# Indices 1 2 3 4 5 6 
#
# 1 168.6888 38.5712 37.9120 0.0000 0.0000 0.0000
# 2 38.5712 71.1726 15.7051 0.0000 0.0000 0.0000
# 3 37.9120 15.7051 32.0748 0.0000 0.0000 0.0000
# 4 0.0000 0.0000 0.0000 7.5870 0.0000 0.0000
# 5 0.0000 0.0000 0.0000 0.0000 -0.7971 0.0000
# 6 0.0000 0.0000 0.0000 0.0000 0.0000 40.6551
#
#
#
# Elastic Compliance Matrix: (Units=1/GPa)
#
#
# Indices 1 2 3 4 5 6 
#
# 1 0.008505 -0.002681 -0.008741 0.000000 0.000000 0.000000
# 2 -0.002681 0.016597 -0.004958 0.000000 0.000000 0.000000
# 3 -0.008741 -0.004958 0.043936 0.000000 0.000002 0.000000
# 4 0.000000 0.000000 0.000000 0.131805 0.000000 0.000000
# 5 0.000000 0.000000 0.000002 0.000000 -1.254473 0.000001
# 6 0.000000 0.000000 0.000000 0.000000 0.000001 0.024597
#
#
# Mechanical properties :
#
#
# Convention : Reuss Voigt Hill
#
# Bulk Modulus (GPa) = 27.56351 50.70141 39.13246
# Shear Modulus (GPa) = -5.08037 21.47219 8.19591
#
# Velocity S-wave (km/s) = -1.63202 3.35517 2.07288
# Velocity P-wave (km/s) = 3.30142 6.44908 5.12299
#
# Compressibility (1/GPa) = 0.03627985
#
# Stress axis : x y z
#
# Youngs Moduli (GPa) = 117.57132 60.25121 22.76019
#
# Poissons Ratio (x) = 0.16151 0.19894
# Poissons Ratio (y) = 0.31517 0.11285
# Poissons Ratio (z) = 1.02767 0.29873
#
# Static dielectric constant tensor:
#      x y z
#    x 1.678030 0.000000 0.000000 
#    y 0.000000 1.656240 0.000000 
#    z 0.000000 0.000000 1.702090 
# 
# From -- ./inp_files/48611.got.cif
#   From: 2010.05.17/outbox.cif.g08.bks.cpg/sg74_25_cif.got.tgz:48611.got - 2010.06.03 17:57:02.
