data_PCOD9539686
_publ_section_title
;
Structure prediction by ZEFSAII (Michael W. Deem and Ramdas Pophale) SiO2 
 PCOD9539686
Probable space group: I M M A
;
_chemical_formula_sum "Si O2"
_cell_formula_units_Z 68
_cell_length_a 26.938843
_cell_length_b 14.870260
_cell_length_c 8.841200
_cell_angle_alpha 90.000000
_cell_angle_beta 90.000000
_cell_angle_gamma 90.000000
_cell_volume 3541.675085
_symmetry_space_group_name_H-M "I M M A"
_symmetry_group_IT_number 74
_symmetry_cell_setting 'orthorhombic'
loop_
_space_group_symop_operation_xyz
x,y,z
-x,1/2-y,z
x,-y,-z
-x,1/2+y,-z
-x,-y,-z
x,1/2+y,-z
-x,y,z
x,1/2-y,z
1/2+x,1/2+y,1/2+z
1/2-x,-y,1/2+z
1/2+x,1/2-y,1/2-z
1/2-x,y,1/2-z
1/2-x,1/2-y,1/2-z
1/2+x,y,1/2-z
1/2-x,1/2+y,1/2+z
1/2+x,-y,1/2+z
loop_
_atom_site_type_symbol
_atom_site_label
_atom_site_fract_x
_atom_site_fract_y
_atom_site_fract_z
Si Si1 0.500000 0.895776 0.455278
Si Si2 0.609476 0.408089 0.595650
Si Si3 0.152771 0.598170 0.427821
Si Si4 0.103168 0.750000 0.607739
Si Si5 0.500000 0.750000 0.716264
Si Si6 0.265414 0.250000 0.926130
Si Si7 0.161503 0.750000 0.912487
O O1 0.447660 0.879364 0.373589
O O2 0.500000 0.835775 0.605770
O O3 0.500000 0.000000 0.500000
O O4 0.609167 0.500000 0.500000
O O5 0.638555 0.413787 0.752639
O O6 0.635841 0.335282 0.490621
O O7 0.157623 0.500000 0.500000
O O8 0.111324 0.660317 0.509063
O O9 0.201406 0.660510 0.445683
O O10 0.049953 0.750000 0.686722
O O11 0.145866 0.750000 0.737663
O O12 0.250000 0.250000 0.750000
O O13 0.218977 0.250000 0.039686
#
# Coordination Sequence:
#
# PCOD9539686 Si02
#       7
#     8  16  16   8   4   8   8
#     4  10  22  37  66 100 127 169 235 268 311 396
#     4  11  22  40  67  96 129 173 222 269 325 396
#     4  11  25  44  64  99 138 169 219 279 341 395
#     4  11  25  43  67 101 140 172 214 275 337 398
#     4  12  22  42  68 104 134 174 218 270 330 396
#     4  11  23  46  66  94 129 169 229 283 323 395
#     4  12  21  42  69  89 127 178 217 270 335 394
#
# _framework density 19.199956
#
# number of rings (size 3 to 8) (size 9 to 14) (size 15 to 20)
#    0.000    0.941    4.706    2.118    3.294    3.765 
#    4.235    1.176    0.000    0.000    0.000    0.000 
#    0.000    0.000    0.000    0.000    0.000    0.000 
#
# Total GULP energy -189949.599951 kJ/mol
# GULP energy per Si atom -5586.752940 kJ/mol
# Density = 1.915626 g / cm^3
# Si number density = 19.199956 Si / 1000 Ang^3
#
#
#
# Elastic Constant Matrix: (Units=GPa)
#
#
# Indices 1 2 3 4 5 6 
#
# 1 117.7552 42.6670 17.8715 0.0000 0.0000 0.0000
# 2 42.6670 163.3749 48.6052 0.0000 0.0000 0.0000
# 3 17.8715 48.6052 102.7291 0.0000 0.0000 0.0000
# 4 0.0000 0.0000 0.0000 36.1971 0.0000 0.0000
# 5 0.0000 0.0000 0.0000 0.0000 32.7742 0.0000
# 6 0.0000 0.0000 0.0000 0.0000 0.0000 19.2414
#
#
#
# Elastic Compliance Matrix: (Units=1/GPa)
#
#
# Indices 1 2 3 4 5 6 
#
# 1 0.009407 -0.002292 -0.000552 0.000000 0.000000 0.000000
# 2 -0.002292 0.007682 -0.003236 0.000000 0.000000 0.000000
# 3 -0.000552 -0.003236 0.011361 0.000000 0.000000 0.000000
# 4 0.000000 0.000000 0.000000 0.027626 0.000000 0.000000
# 5 0.000000 0.000000 0.000000 0.000000 0.030512 0.000000
# 6 0.000000 0.000000 0.000000 0.000000 0.000000 0.051971
#
#
# Mechanical properties :
#
#
# Convention : Reuss Voigt Hill
#
# Bulk Modulus (GPa) = 61.38799 66.90517 64.14658
# Shear Modulus (GPa) = 32.02044 35.95692 33.98868
#
# Velocity S-wave (km/s) = 4.08822 4.33224 4.21200
# Velocity P-wave (km/s) = 7.37069 7.74251 7.55889
#
# Compressibility (1/GPa) = 0.01628983
#
# Stress axis : x y z
#
# Youngs Moduli (GPa) = 106.30852 130.16891 88.01727
#
# Poissons Ratio (x) = 0.29841 0.04857
# Poissons Ratio (y) = 0.24371 0.28482
# Poissons Ratio (z) = 0.05866 0.42123
#
# Static dielectric constant tensor:
#      x y z
#    x 1.691900 0.000000 0.000000 
#    y 0.000000 1.633280 0.000000 
#    z 0.000000 0.000000 1.643420 
# 
# From -- ./inp_files/9103.got.cif
#   From: 2010.05.17/outbox.cif.g08.bks.cpg/sg74_5_cif.got.tgz:9103.got - 2010.06.03 17:57:02.
