data_PCOD9539908
_publ_section_title
;
Structure prediction by ZEFSAII (Michael W. Deem and Ramdas Pophale) SiO2 
 PCOD9539908
Probable space group: I M M A
;
_chemical_formula_sum "Si O2"
_cell_formula_units_Z 64
_cell_length_a 13.657914
_cell_length_b 8.598695
_cell_length_c 27.267970
_cell_angle_alpha 90.000000
_cell_angle_beta 90.000000
_cell_angle_gamma 90.000000
_cell_volume 3202.356854
_symmetry_space_group_name_H-M "I M M A"
_symmetry_group_IT_number 74
_symmetry_cell_setting 'orthorhombic'
loop_
_space_group_symop_operation_xyz
x,y,z
-x,1/2-y,z
x,-y,-z
-x,1/2+y,-z
-x,-y,-z
x,1/2+y,-z
-x,y,z
x,1/2-y,z
1/2+x,1/2+y,1/2+z
1/2-x,-y,1/2+z
1/2+x,1/2-y,1/2-z
1/2-x,y,1/2-z
1/2-x,1/2-y,1/2-z
1/2+x,y,1/2-z
1/2-x,1/2+y,1/2+z
1/2+x,-y,1/2+z
loop_
_atom_site_type_symbol
_atom_site_label
_atom_site_fract_x
_atom_site_fract_y
_atom_site_fract_z
Si Si1 0.889132 0.437686 0.374140
Si Si2 0.211275 0.936720 0.946184
Si Si3 0.138708 0.072033 0.734507
Si Si4 0.500000 0.931192 0.413910
Si Si5 0.000000 0.574017 0.810105
O O1 0.884672 0.250000 0.369779
O O2 0.797723 0.486222 0.408476
O O3 0.877279 0.511134 0.320351
O O4 0.000000 0.476472 0.392248
O O5 0.209319 0.750000 0.946423
O O6 0.101963 0.995235 0.932691
O O7 0.235265 0.000000 0.000000
O O8 0.103292 0.250000 0.738239
O O9 0.250000 0.073993 0.750000
O O10 0.088921 0.960595 0.774002
O O11 0.500000 0.750000 0.426882
O O12 0.500000 0.958409 0.355592
O O13 0.000000 0.750000 0.828927
#
# Coordination Sequence:
#
# PCOD9539908 Si02
#       5
#    16  16  16   8   8
#     4  10  22  41  64  92 127 169 214 262 316 380
#     4  11  24  43  67  95 128 167 215 266 326 385
#     4  11  23  38  59  90 126 164 209 258 309 368
#     4  12  25  43  66  94 129 165 213 270 327 384
#     4  12  24  39  61  90 125 165 207 248 307 376
#
# _framework density 19.985281000000001
#
# number of rings (size 3 to 8) (size 9 to 14) (size 15 to 20)
#    0.000    1.000    1.250    5.625    0.000    8.500 
#    0.000    0.000    0.000    0.000    0.000    0.000 
#    0.000    0.000    0.000    0.000    0.000    0.000 
#
# Total GULP energy -178784.687279 kJ/mol
# GULP energy per Si atom -5587.021477 kJ/mol
# Density = 1.993979 g / cm^3
# Si number density = 19.985281 Si / 1000 Ang^3
#
#
#
# Elastic Constant Matrix: (Units=GPa)
#
#
# Indices 1 2 3 4 5 6 
#
# 1 156.4839 25.3305 26.8981 0.0000 0.0000 0.0000
# 2 25.3305 55.4520 1.2108 0.0000 0.0000 0.0000
# 3 26.8981 1.2108 79.5286 0.0000 0.0000 0.0000
# 4 0.0000 0.0000 0.0000 33.9340 0.0000 0.0000
# 5 0.0000 0.0000 0.0000 0.0000 25.7880 0.0000
# 6 0.0000 0.0000 0.0000 0.0000 0.0000 3.7921
#
#
#
# Elastic Compliance Matrix: (Units=1/GPa)
#
#
# Indices 1 2 3 4 5 6 
#
# 1 0.007343 -0.003301 -0.002433 0.000000 0.000000 0.000000
# 2 -0.003301 0.019524 0.000819 0.000000 0.000000 0.000000
# 3 -0.002433 0.000819 0.013385 0.000000 0.000000 0.000000
# 4 0.000000 0.000000 0.000000 0.029469 0.000000 0.000000
# 5 0.000000 0.000000 0.000000 0.000000 0.038778 0.000000
# 6 0.000000 0.000000 0.000000 0.000000 0.000000 0.263709
#
#
# Mechanical properties :
#
#
# Convention : Reuss Voigt Hill
#
# Bulk Modulus (GPa) = 32.87205 44.26036 38.56621
# Shear Modulus (GPa) = 12.74932 28.57115 20.66024
#
# Velocity S-wave (km/s) = 2.52848 3.78512 3.21872
# Velocity P-wave (km/s) = 5.00081 6.42631 5.75784
#
# Compressibility (1/GPa) = 0.03042098
#
# Stress axis : x y z
#
# Youngs Moduli (GPa) = 136.18280 51.21975 74.71263
#
# Poissons Ratio (x) = 0.16909 0.18180
# Poissons Ratio (y) = 0.44957 -0.06121
# Poissons Ratio (z) = 0.33137 -0.04196
#
# Static dielectric constant tensor:
#      x y z
#    x 1.716830 0.000000 0.000000 
#    y 0.000000 1.683740 0.000000 
#    z 0.000000 0.000000 1.660480 
# 
# From -- ./inp_files/59526.got.cif
#   From: 2010.05.17/outbox.cif.g08.bks.cpg/sg74_30_cif.got.tgz:59526.got - 2010.06.03 17:57:02.
