data_PCOD9539110
_publ_section_title
;
Structure prediction by ZEFSAII (Michael W. Deem and Ramdas Pophale) SiO2 
 PCOD9539110
Probable space group: I M M A
;
_chemical_formula_sum "Si O2"
_cell_formula_units_Z 56
_cell_length_a 13.944760
_cell_length_b 10.037689
_cell_length_c 20.210782
_cell_angle_alpha 90.000000
_cell_angle_beta 90.000000
_cell_angle_gamma 90.000000
_cell_volume 2828.967105
_symmetry_space_group_name_H-M "I M M A"
_symmetry_group_IT_number 74
_symmetry_cell_setting 'orthorhombic'
loop_
_space_group_symop_operation_xyz
x,y,z
-x,1/2-y,z
x,-y,-z
-x,1/2+y,-z
-x,-y,-z
x,1/2+y,-z
-x,y,z
x,1/2-y,z
1/2+x,1/2+y,1/2+z
1/2-x,-y,1/2+z
1/2+x,1/2-y,1/2-z
1/2-x,y,1/2-z
1/2-x,1/2-y,1/2-z
1/2+x,y,1/2-z
1/2-x,1/2+y,1/2+z
1/2+x,-y,1/2+z
loop_
_atom_site_type_symbol
_atom_site_label
_atom_site_fract_x
_atom_site_fract_y
_atom_site_fract_z
Si Si1 0.604040 0.750000 0.158898
Si Si2 0.891573 0.043365 0.292146
Si Si3 0.885978 0.250000 0.044305
Si Si4 0.301696 0.250000 0.601952
Si Si5 0.687233 0.454060 0.350051
O O1 0.500000 0.750000 0.126696
O O2 0.611607 0.617844 0.202841
O O3 0.686331 0.750000 0.104645
O O4 0.799653 0.080726 0.336900
O O5 0.867992 0.084116 0.217218
O O6 0.000000 0.084571 0.310980
O O7 0.851336 0.376233 0.086952
O O8 0.000000 0.250000 0.039498
O O9 0.842294 0.250000 0.971410
O O10 0.327546 0.387921 0.638378
#
# Coordination Sequence:
#
# PCOD9539110 Si02
#       5
#     8  16   8   8  16
#     4   8  15  31  57  87 111 134 174 228 275 311
#     4   9  17  32  57  85 111 139 175 223 275 320
#     4  12  26  40  53  75 111 149 181 218 267 323
#     4  10  21  38  58  80 108 145 187 222 256 311
#     4  10  21  37  57  82 111 142 179 223 268 317
#
# _framework density 19.795209
#
# number of rings (size 3 to 8) (size 9 to 14) (size 15 to 20)
#    0.000    2.286    0.000    2.571    0.000    9.143 
#    0.000    3.571    0.000    6.857    0.000    0.000 
#    0.000    0.000    0.000    0.000    0.000    0.000 
#
# Total GULP energy -156215.691821 kJ/mol
# GULP energy per Si atom -5579.131851 kJ/mol
# Density = 1.975015 g / cm^3
# Si number density = 19.795209 Si / 1000 Ang^3
#
#
#
# Elastic Constant Matrix: (Units=GPa)
#
#
# Indices 1 2 3 4 5 6 
#
# 1 144.2956 25.8333 73.3563 0.0000 0.0000 0.0000
# 2 25.8333 86.1533 17.2487 0.0000 0.0000 0.0000
# 3 73.3563 17.2487 109.3735 0.0000 0.0000 0.0000
# 4 0.0000 0.0000 0.0000 24.9407 0.0000 0.0000
# 5 0.0000 0.0000 0.0000 0.0000 20.4871 0.0000
# 6 0.0000 0.0000 0.0000 0.0000 0.0000 21.1479
#
#
#
# Elastic Compliance Matrix: (Units=1/GPa)
#
#
# Indices 1 2 3 4 5 6 
#
# 1 0.010792 -0.001845 -0.006947 0.000000 0.000000 0.000000
# 2 -0.001845 0.012301 -0.000702 0.000000 0.000000 0.000000
# 3 -0.006947 -0.000702 0.013913 0.000000 0.000000 0.000000
# 4 0.000000 0.000000 0.000000 0.040095 0.000000 0.000000
# 5 0.000000 0.000000 0.000000 0.000000 0.048811 0.000000
# 6 0.000000 0.000000 0.000000 0.000000 0.000000 0.047286
#
#
# Mechanical properties :
#
#
# Convention : Reuss Voigt Hill
#
# Bulk Modulus (GPa) = 55.50346 63.63323 59.56834
# Shear Modulus (GPa) = 25.22765 28.20740 26.71753
#
# Velocity S-wave (km/s) = 3.57379 3.77896 3.67781
# Velocity P-wave (km/s) = 6.71781 7.15935 6.94209
#
# Compressibility (1/GPa) = 0.01801690
#
# Stress axis : x y z
#
# Youngs Moduli (GPa) = 92.65694 81.29339 71.87318
#
# Poissons Ratio (x) = 0.15000 0.49934
# Poissons Ratio (y) = 0.17097 0.05048
# Poissons Ratio (z) = 0.64373 0.05710
#
# Static dielectric constant tensor:
#      x y z
#    x 1.718310 0.000000 0.000000 
#    y 0.000000 1.761270 0.000000 
#    z 0.000000 0.000000 1.622300 
# 
# From -- ./inp_files/40602.got.cif
#   From: 2010.05.17/outbox.cif.g08.bks.cpg/sg74_21_cif.got.tgz:40602.got - 2010.06.03 17:57:02.
