data_PCOD9539713
_publ_section_title
;
Structure prediction by ZEFSAII (Michael W. Deem and Ramdas Pophale) SiO2 
 PCOD9539713
Probable space group: I M M A
;
_chemical_formula_sum "Si O2"
_cell_formula_units_Z 72
_cell_length_a 22.650311
_cell_length_b 8.713853
_cell_length_c 18.074997
_cell_angle_alpha 90.000000
_cell_angle_beta 90.000000
_cell_angle_gamma 90.000000
_cell_volume 3567.488917
_symmetry_space_group_name_H-M "I M M A"
_symmetry_group_IT_number 74
_symmetry_cell_setting 'orthorhombic'
loop_
_space_group_symop_operation_xyz
x,y,z
-x,1/2-y,z
x,-y,-z
-x,1/2+y,-z
-x,-y,-z
x,1/2+y,-z
-x,y,z
x,1/2-y,z
1/2+x,1/2+y,1/2+z
1/2-x,-y,1/2+z
1/2+x,1/2-y,1/2-z
1/2-x,y,1/2-z
1/2-x,1/2-y,1/2-z
1/2+x,y,1/2-z
1/2-x,1/2+y,1/2+z
1/2+x,-y,1/2+z
loop_
_atom_site_type_symbol
_atom_site_label
_atom_site_fract_x
_atom_site_fract_y
_atom_site_fract_z
Si Si1 0.336533 0.565126 0.698354
Si Si2 0.741192 0.066556 0.077270
Si Si3 0.627785 0.433580 0.856247
Si Si4 0.067067 0.566167 0.922440
Si Si5 0.500000 0.435460 0.916711
O O1 0.333263 0.750000 0.710219
O O2 0.279323 0.520176 0.649729
O O3 0.349754 0.485985 0.775744
O O4 0.391077 0.527015 0.644869
O O5 0.743349 0.250000 0.073616
O O6 0.674742 0.008280 0.088175
O O7 0.764883 0.000000 0.000000
O O8 0.630751 0.250000 0.862156
O O9 0.560532 0.482106 0.874896
O O10 0.066555 0.750000 0.928301
O O11 0.000000 0.511534 0.910865
O O12 0.088541 0.500000 0.000000
O O13 0.500000 0.250000 0.920387
O O14 0.500000 0.500000 0.000000
#
# Coordination Sequence:
#
# PCOD9539713 Si02
#       5
#    16  16  16  16   8
#     4  10  22  38  58  87 122 157 196 243 296 354
#     4  11  23  40  62  89 122 158 200 246 296 355
#     4  11  24  41  62  89 121 155 199 249 301 356
#     4   9  18  33  53  79 112 152 198 242 288 345
#     4  10  24  44  64  90 119 152 197 248 297 352
#
# _framework density 20.182262000000001
#
# number of rings (size 3 to 8) (size 9 to 14) (size 15 to 20)
#    0.000    1.778    0.000    3.333    1.556    8.889 
#    0.000    0.000    0.000    0.000    0.000    0.000 
#    0.000    0.000    0.000    0.000    0.000    0.000 
#
# Total GULP energy -201132.294312 kJ/mol
# GULP energy per Si atom -5587.008175 kJ/mol
# Density = 2.013633 g / cm^3
# Si number density = 20.182262 Si / 1000 Ang^3
#
#
#
# Elastic Constant Matrix: (Units=GPa)
#
#
# Indices 1 2 3 4 5 6 
#
# 1 137.2626 34.5709 62.9835 0.0000 0.0000 0.0000
# 2 34.5709 29.0907 35.0968 0.0000 0.0000 0.0000
# 3 62.9835 35.0968 127.1430 0.0000 0.0000 0.0000
# 4 0.0000 0.0000 0.0000 39.5402 0.0000 0.0000
# 5 0.0000 0.0000 0.0000 0.0000 1658.5006 0.0000
# 6 0.0000 0.0000 0.0000 0.0000 0.0000 21.0380
#
#
#
# Elastic Compliance Matrix: (Units=1/GPa)
#
#
# Indices 1 2 3 4 5 6 
#
# 1 0.011008 -0.009750 -0.002762 0.000000 0.000000 0.000000
# 2 -0.009750 0.060175 -0.011781 0.000000 0.000000 0.000000
# 3 -0.002762 -0.011781 0.012485 0.000000 0.000000 0.000000
# 4 0.000000 0.000000 0.000000 0.025291 0.000000 0.000000
# 5 0.000000 0.000000 0.000000 0.000000 0.000603 0.000000
# 6 0.000000 0.000000 0.000000 0.000000 0.000000 0.047533
#
#
# Mechanical properties :
#
#
# Convention : Reuss Voigt Hill
#
# Bulk Modulus (GPa) = 28.50358 62.08877 45.29617
# Shear Modulus (GPa) = 23.00166 354.53875 188.77021
#
# Velocity S-wave (km/s) = 3.37960 13.26838 9.68172
# Velocity P-wave (km/s) = 5.42058 16.29613 12.14386
#
# Compressibility (1/GPa) = 0.03508331
#
# Stress axis : x y z
#
# Youngs Moduli (GPa) = 90.84146 16.61809 80.09394
#
# Poissons Ratio (x) = 0.16203 0.22120
# Poissons Ratio (y) = 0.88570 0.94359
# Poissons Ratio (z) = 0.25088 0.19578
#
# Static dielectric constant tensor:
#      x y z
#    x 1.746020 0.000000 0.000000 
#    y 0.000000 1.692020 0.000000 
#    z 0.000000 0.000000 1.709330 
# 
# From -- ./inp_files/45810.got.cif
#   From: 2010.05.17/outbox.cif.g08.bks.cpg/sg74_23_cif.got.tgz:45810.got - 2010.06.03 17:57:02.
