data_PCOD9539225
_publ_section_title
;
Structure prediction by ZEFSAII (Michael W. Deem and Ramdas Pophale) SiO2 
 PCOD9539225
Probable space group: I M M A
;
_chemical_formula_sum "Si O2"
_cell_formula_units_Z 32
_cell_length_a 9.286307
_cell_length_b 11.069666
_cell_length_c 12.681087
_cell_angle_alpha 90.000000
_cell_angle_beta 90.000000
_cell_angle_gamma 90.000000
_cell_volume 1303.569037
_symmetry_space_group_name_H-M "I M M A"
_symmetry_group_IT_number 74
_symmetry_cell_setting 'orthorhombic'
loop_
_space_group_symop_operation_xyz
x,y,z
-x,1/2-y,z
x,-y,-z
-x,1/2+y,-z
-x,-y,-z
x,1/2+y,-z
-x,y,z
x,1/2-y,z
1/2+x,1/2+y,1/2+z
1/2-x,-y,1/2+z
1/2+x,1/2-y,1/2-z
1/2-x,y,1/2-z
1/2-x,1/2-y,1/2-z
1/2+x,y,1/2-z
1/2-x,1/2+y,1/2+z
1/2+x,-y,1/2+z
loop_
_atom_site_type_symbol
_atom_site_label
_atom_site_fract_x
_atom_site_fract_y
_atom_site_fract_z
Si Si1 0.000000 0.750000 0.186553
Si Si2 0.000000 0.520630 0.335656
Si Si3 0.701504 0.750000 0.505199
Si Si4 0.000000 0.750000 0.628125
Si Si5 0.253191 0.000000 0.500000
O O1 0.000000 0.874422 0.250717
O O2 0.858063 0.750000 0.113427
O O3 0.142975 0.538026 0.407082
O O4 0.000000 0.376601 0.308691
O O5 0.864137 0.750000 0.549664
O O6 0.658343 0.615057 0.539484
#
# Coordination Sequence:
#
# PCOD9539225 Si02
#       5
#     4   8   8   4   8
#     4  12  24  35  60 103 126 134 192 285 312 302
#     4   9  18  34  60  86 114 155 204 242 284 357
#     4  10  21  37  62  89 121 156 200 248 298 353
#     4   8  18  43  68  79 112 178 212 213 280 404
#     4   9  18  37  58  80 116 168 202 220 286 390
#
# _framework density 24.547988
#
# number of rings (size 3 to 8) (size 9 to 14) (size 15 to 20)
#    0.000    2.500    0.000    3.000    0.000    7.000 
#    0.000    2.500    0.000   21.000    0.000    0.000 
#    0.000    0.000    0.000    0.000    0.000    0.000 
#
# Total GULP energy -89092.060866 kJ/mol
# GULP energy per Si atom -5568.253804 kJ/mol
# Density = 2.449212 g / cm^3
# Si number density = 24.547988 Si / 1000 Ang^3
#
#
#
# Elastic Constant Matrix: (Units=GPa)
#
#
# Indices 1 2 3 4 5 6 
#
# 1 131.8392 49.3820 36.4860 0.0000 0.0000 0.0000
# 2 49.3820 252.4836 43.2780 0.0000 0.0000 0.0000
# 3 36.4860 43.2780 86.4501 0.0000 0.0000 0.0000
# 4 0.0000 0.0000 0.0000 41.5957 0.0000 0.0000
# 5 0.0000 0.0000 0.0000 0.0000 -34.4396 0.0000
# 6 0.0000 0.0000 0.0000 0.0000 0.0000 -50.4538
#
#
#
# Elastic Compliance Matrix: (Units=1/GPa)
#
#
# Indices 1 2 3 4 5 6 
#
# 1 0.008909 -0.001201 -0.003159 0.000000 0.000000 0.000000
# 2 -0.001201 0.004494 -0.001743 0.000000 0.000000 0.000000
# 3 -0.003159 -0.001743 0.013773 0.000000 0.000000 0.000000
# 4 0.000000 0.000000 0.000000 0.024041 0.000000 0.000000
# 5 0.000000 0.000000 0.000000 0.000000 -0.029036 0.000000
# 6 0.000000 0.000000 0.000000 0.000000 0.000000 -0.019820
#
#
# Mechanical properties :
#
#
# Convention : Reuss Voigt Hill
#
# Bulk Modulus (GPa) = 66.79672 81.00720 73.90196
# Shear Modulus (GPa) = 255.66519 14.11560 134.89040
#
# Velocity S-wave (km/s) = 10.21642 2.40056 7.42085
# Velocity P-wave (km/s) = 12.90104 6.38395 10.17820
#
# Compressibility (1/GPa) = 0.01497079
#
# Stress axis : x y z
#
# Youngs Moduli (GPa) = 112.24555 222.50271 72.60534
#
# Poissons Ratio (x) = 0.26723 0.22934
# Poissons Ratio (y) = 0.13481 0.12655
# Poissons Ratio (z) = 0.35456 0.38783
#
# Static dielectric constant tensor:
#      x y z
#    x 2.065280 0.000000 0.000000 
#    y 0.000000 2.038780 0.000000 
#    z 0.000000 0.000000 1.925700 
# 
# From -- ./inp_files/17819.got.cif
#   From: 2010.05.17/outbox.cif.g08.bks.cpg/sg74_9_cif.got.tgz:17819.got - 2010.06.03 17:57:02.
