data_PCOD9539976
_publ_section_title
;
Structure prediction by ZEFSAII (Michael W. Deem and Ramdas Pophale) SiO2 
 PCOD9539976
Probable space group: I M M A
;
_chemical_formula_sum "Si O2"
_cell_formula_units_Z 68
_cell_length_a 20.940090
_cell_length_b 25.108757
_cell_length_c 4.993473
_cell_angle_alpha 90.000000
_cell_angle_beta 90.000000
_cell_angle_gamma 90.000000
_cell_volume 2625.466393
_symmetry_space_group_name_H-M "I M M A"
_symmetry_group_IT_number 74
_symmetry_cell_setting 'orthorhombic'
loop_
_space_group_symop_operation_xyz
x,y,z
-x,1/2-y,z
x,-y,-z
-x,1/2+y,-z
-x,-y,-z
x,1/2+y,-z
-x,y,z
x,1/2-y,z
1/2+x,1/2+y,1/2+z
1/2-x,-y,1/2+z
1/2+x,1/2-y,1/2-z
1/2-x,y,1/2-z
1/2-x,1/2-y,1/2-z
1/2+x,y,1/2-z
1/2-x,1/2+y,1/2+z
1/2+x,-y,1/2+z
loop_
_atom_site_type_symbol
_atom_site_label
_atom_site_fract_x
_atom_site_fract_y
_atom_site_fract_z
Si Si1 0.750000 0.250000 0.250000
Si Si2 0.161036 0.670934 0.409012
Si Si3 0.800597 0.939096 0.541399
Si Si4 0.073558 0.330538 0.066464
Si Si5 0.933291 0.447388 0.173843
O O1 0.782739 0.204247 0.451022
O O2 0.185643 0.610635 0.346790
O O3 0.125384 0.691811 0.142669
O O4 0.105050 0.672128 0.638476
O O5 0.750000 0.916569 0.750000
O O6 0.870250 0.948317 0.657729
O O7 0.777149 0.000000 0.500000
O O8 0.000000 0.310496 0.057981
O O9 0.068850 0.393494 0.003069
O O10 0.000000 0.444607 0.332557
O O11 0.933345 0.500000 0.000000
#
# Coordination Sequence:
#
# PCOD9539976 Si02
#       5
#     4  16  16  16  16
#     4  12  28  54  70 106 140 202 244 298 352 454
#     4  11  25  45  72 101 142 190 237 292 358 432
#     4  11  22  38  61 100 138 185 232 296 356 423
#     4  10  22  43  71 104 139 180 236 300 359 422
#     4   9  18  34  58  93 135 180 225 276 344 421
#
# _framework density 25.900158999999999
#
# number of rings (size 3 to 8) (size 9 to 14) (size 15 to 20)
#    0.000    1.647    1.176    2.824    0.000    6.118 
#    0.000    3.529    0.000    0.000    0.000    0.000 
#    0.000    0.000    0.000    0.000    0.000    0.000 
#
# Total GULP energy -189310.147061 kJ/mol
# GULP energy per Si atom -5567.945502 kJ/mol
# Density = 2.584121 g / cm^3
# Si number density = 25.900159 Si / 1000 Ang^3
#
#
#
# Elastic Constant Matrix: (Units=GPa)
#
#
# Indices 1 2 3 4 5 6 
#
# 1 140.0180 -18.0594 48.2626 0.0000 0.0000 0.0000
# 2 -18.0594 175.4930 -1.5960 0.0000 0.0000 0.0000
# 3 48.2626 -1.5960 83.3963 0.0000 0.0000 0.0000
# 4 0.0000 0.0000 0.0000 9.0009 0.0000 0.0000
# 5 0.0000 0.0000 0.0000 0.0000 50.5725 0.0000
# 6 0.0000 0.0000 0.0000 0.0000 0.0000 -111.9350
#
#
#
# Elastic Compliance Matrix: (Units=1/GPa)
#
#
# Indices 1 2 3 4 5 6 
#
# 1 0.009057 0.000884 -0.005224 0.000000 0.000000 0.000000
# 2 0.000884 0.005786 -0.000401 0.000000 0.000000 0.000000
# 3 -0.005224 -0.000401 0.015007 0.000000 0.000000 0.000000
# 4 0.000000 0.000000 0.000000 0.111100 0.000000 0.000000
# 5 0.000000 0.000000 0.000000 0.000000 0.019774 0.000000
# 6 0.000000 0.000000 0.000000 0.000000 0.000000 -0.008934
#
#
# Mechanical properties :
#
#
# Convention : Reuss Voigt Hill
#
# Bulk Modulus (GPa) = 49.09896 50.68020 49.88958
# Shear Modulus (GPa) = 29.75136 14.21437 21.98286
#
# Velocity S-wave (km/s) = 3.39292 2.34522 2.91650
# Velocity P-wave (km/s) = 5.86066 5.19070 5.53583
#
# Compressibility (1/GPa) = 0.02036703
#
# Stress axis : x y z
#
# Youngs Moduli (GPa) = 110.41424 172.84280 66.63701
#
# Poissons Ratio (x) = -0.15288 0.34814
# Poissons Ratio (y) = -0.09766 0.02673
# Poissons Ratio (z) = 0.57684 0.06934
#
# Static dielectric constant tensor:
#      x y z
#    x 2.059090 0.000000 0.000000 
#    y 0.000000 1.945100 0.000000 
#    z 0.000000 0.000000 2.127230 
# 
# From -- ./inp_files/3107.got.cif
#   From: 2010.05.17/outbox.cif.g08.bks.cpg/sg74_2_cif.got.tgz:3107.got - 2010.06.03 17:57:02.
