data_PCOD9539201
_publ_section_title
;
Structure prediction by ZEFSAII (Michael W. Deem and Ramdas Pophale) SiO2 
 PCOD9539201
Probable space group: I M M A
;
_chemical_formula_sum "Si O2"
_cell_formula_units_Z 64
_cell_length_a 26.736659
_cell_length_b 22.374439
_cell_length_c 4.842224
_cell_angle_alpha 90.000000
_cell_angle_beta 90.000000
_cell_angle_gamma 90.000000
_cell_volume 2896.704326
_symmetry_space_group_name_H-M "I M M A"
_symmetry_group_IT_number 74
_symmetry_cell_setting 'orthorhombic'
loop_
_space_group_symop_operation_xyz
x,y,z
-x,1/2-y,z
x,-y,-z
-x,1/2+y,-z
-x,-y,-z
x,1/2+y,-z
-x,y,z
x,1/2-y,z
1/2+x,1/2+y,1/2+z
1/2-x,-y,1/2+z
1/2+x,1/2-y,1/2-z
1/2-x,y,1/2-z
1/2-x,1/2-y,1/2-z
1/2+x,y,1/2-z
1/2-x,1/2+y,1/2+z
1/2+x,-y,1/2+z
loop_
_atom_site_type_symbol
_atom_site_label
_atom_site_fract_x
_atom_site_fract_y
_atom_site_fract_z
Si Si1 0.882441 0.362763 0.934747
Si Si2 0.057267 0.678223 0.546830
Si Si3 0.801039 0.812283 0.422146
Si Si4 0.193207 0.560828 0.356768
O O1 0.930046 0.357085 0.732370
O O2 0.844935 0.313998 0.803645
O O3 0.848266 0.421014 0.872972
O O4 0.903073 0.345934 0.231209
O O5 0.062998 0.750000 0.511615
O O6 0.000000 0.668206 0.633279
O O7 0.803671 0.750000 0.584890
O O8 0.750000 0.812521 0.250000
O O9 0.804130 0.878867 0.549110
O O10 0.178215 0.500000 0.500000
O O11 0.250000 0.552760 0.250000
#
# Coordination Sequence:
#
# PCOD9539201 Si02
#       4
#    16  16  16  16
#     4  10  21  37  60  89 122 157 203 249 303 356
#     4  11  22  37  60  90 124 161 204 256 311 363
#     4   8  15  32  55  86 119 153 194 246 303 360
#     4   9  20  37  60  88 125 165 204 244 295 369
#
# _framework density 22.094075
#
# number of rings (size 3 to 8) (size 9 to 14) (size 15 to 20)
#    1.500    1.000    0.000    3.000    0.000    4.000 
#    0.000    1.250    0.000   11.250    0.000    0.000 
#    0.000    0.000    0.000    0.000    0.000    0.000 
#
# Total GULP energy -178206.395335 kJ/mol
# GULP energy per Si atom -5568.949854 kJ/mol
# Density = 2.204379 g / cm^3
# Si number density = 22.094075 Si / 1000 Ang^3
#
#
#
# Elastic Constant Matrix: (Units=GPa)
#
#
# Indices 1 2 3 4 5 6 
#
# 1 129.9666 5.7665 10.1797 0.0000 0.0000 0.0000
# 2 5.7665 155.0543 20.0006 0.0000 0.0000 0.0000
# 3 10.1797 20.0006 60.6361 0.0000 0.0000 0.0000
# 4 0.0000 0.0000 0.0000 29.0795 0.0000 0.0000
# 5 0.0000 0.0000 0.0000 0.0000 29.5328 0.0000
# 6 0.0000 0.0000 0.0000 0.0000 0.0000 -5.0659
#
#
#
# Elastic Compliance Matrix: (Units=1/GPa)
#
#
# Indices 1 2 3 4 5 6 
#
# 1 0.007799 -0.000127 -0.001268 0.000000 0.000000 0.000000
# 2 -0.000127 0.006738 -0.002201 0.000000 0.000000 0.000000
# 3 -0.001268 -0.002201 0.017431 0.000000 0.000000 0.000000
# 4 0.000000 0.000000 0.000000 0.034388 0.000000 0.000000
# 5 0.000000 0.000000 0.000000 0.000000 0.033861 0.000000
# 6 0.000000 0.000000 0.000000 0.000000 0.000000 -0.197396
#
#
# Mechanical properties :
#
#
# Convention : Reuss Voigt Hill
#
# Bulk Modulus (GPa) = 40.35987 46.39451 43.37719
# Shear Modulus (GPa) = -61.17736 31.35662 -14.91037
#
# Velocity S-wave (km/s) = -5.26779 3.77136 -2.60062
# Velocity P-wave (km/s) = 4.32349 6.32522 3.26465
#
# Compressibility (1/GPa) = 0.02477709
#
# Stress axis : x y z
#
# Youngs Moduli (GPa) = 128.21854 148.41192 57.36995
#
# Poissons Ratio (x) = 0.01878 0.07272
# Poissons Ratio (y) = 0.01623 0.12629
# Poissons Ratio (z) = 0.16253 0.32669
#
# Static dielectric constant tensor:
#      x y z
#    x 1.846330 0.000000 0.000000 
#    y 0.000000 1.847500 0.000000 
#    z 0.000000 0.000000 1.927430 
# 
# From -- ./inp_files/3696.got.cif
#   From: 2010.05.17/outbox.cif.g08.bks.cpg/sg74_2_cif.got.tgz:3696.got - 2010.06.03 17:57:02.
