data_PCOD9539083
_publ_section_title
;
Structure prediction by ZEFSAII (Michael W. Deem and Ramdas Pophale) SiO2 
 PCOD9539083
Probable space group: I M M A
;
_chemical_formula_sum "Si O2"
_cell_formula_units_Z 80
_cell_length_a 18.475080
_cell_length_b 26.012267
_cell_length_c 8.772683
_cell_angle_alpha 90.000000
_cell_angle_beta 90.000000
_cell_angle_gamma 90.000000
_cell_volume 4215.964713
_symmetry_space_group_name_H-M "I M M A"
_symmetry_group_IT_number 74
_symmetry_cell_setting 'orthorhombic'
loop_
_space_group_symop_operation_xyz
x,y,z
-x,1/2-y,z
x,-y,-z
-x,1/2+y,-z
-x,-y,-z
x,1/2+y,-z
-x,y,z
x,1/2-y,z
1/2+x,1/2+y,1/2+z
1/2-x,-y,1/2+z
1/2+x,1/2-y,1/2-z
1/2-x,y,1/2-z
1/2-x,1/2-y,1/2-z
1/2+x,y,1/2-z
1/2-x,1/2+y,1/2+z
1/2+x,-y,1/2+z
loop_
_atom_site_type_symbol
_atom_site_label
_atom_site_fract_x
_atom_site_fract_y
_atom_site_fract_z
Si Si1 0.085943 0.029100 0.778692
Si Si2 0.174166 0.070796 0.303753
Si Si3 0.584574 0.394179 0.457866
Si Si4 0.416480 0.190059 0.721264
Si Si5 0.181700 0.115279 0.633682
O O1 0.120428 0.074281 0.679762
O O2 0.000000 0.026557 0.768025
O O3 0.119167 0.977067 0.710248
O O4 0.101100 0.052897 0.948493
O O5 0.250000 0.047720 0.250000
O O6 0.138459 0.109635 0.182802
O O7 0.194079 0.099654 0.459676
O O8 0.500000 0.396642 0.412022
O O9 0.592783 0.346708 0.573976
O O10 0.500000 0.182225 0.773839
O O11 0.407622 0.250000 0.686035
O O12 0.356777 0.169959 0.839888
O O13 0.250000 0.110346 0.750000
#
# Coordination Sequence:
#
# PCOD9539083 Si02
#       5
#    16  16  16  16  16
#     4  10  21  37  56  80 113 151 186 223 274 333
#     4  12  23  34  53  81 114 150 187 229 275 325
#     4   9  19  36  58  83 111 143 181 226 277 333
#     4   9  19  39  64  84 106 141 182 226 281 340
#     4  11  23  38  56  80 113 150 189 231 274 326
#
# _framework density 18.975491999999999
#
# number of rings (size 3 to 8) (size 9 to 14) (size 15 to 20)
#    0.000    1.800    0.000    6.600    0.000    7.600 
#    0.000    1.000    0.000    4.800    0.000    0.000 
#    0.000    0.000    0.000    0.000    0.000    0.000 
#
# Total GULP energy -222853.275634 kJ/mol
# GULP energy per Si atom -5571.331891 kJ/mol
# Density = 1.893230 g / cm^3
# Si number density = 18.975492 Si / 1000 Ang^3
#
#
#
# Elastic Constant Matrix: (Units=GPa)
#
#
# Indices 1 2 3 4 5 6 
#
# 1 82.1798 39.2261 54.9783 0.0000 0.0000 0.0000
# 2 39.2261 110.5614 27.4461 0.0000 0.0000 0.0000
# 3 54.9783 27.4461 63.0695 0.0000 0.0000 0.0000
# 4 0.0000 0.0000 0.0000 -58.4457 0.0000 0.0000
# 5 0.0000 0.0000 0.0000 0.0000 28.6478 0.0000
# 6 0.0000 0.0000 0.0000 0.0000 0.0000 -27.9183
#
#
#
# Elastic Compliance Matrix: (Units=1/GPa)
#
#
# Indices 1 2 3 4 5 6 
#
# 1 0.031367 -0.004867 -0.025225 0.000000 0.000000 0.000000
# 2 -0.004867 0.010895 -0.000499 0.000000 0.000000 0.000000
# 3 -0.025225 -0.000499 0.038062 0.000000 0.000000 0.000000
# 4 0.000000 0.000000 0.000000 -0.017110 0.000000 0.000000
# 5 0.000000 0.000000 0.000000 0.000000 0.034907 0.000000
# 6 0.000000 0.000000 0.000000 0.000000 0.000000 -0.035819
#
#
# Mechanical properties :
#
#
# Convention : Reuss Voigt Hill
#
# Bulk Modulus (GPa) = 52.24009 55.45688 53.84848
# Shear Modulus (GPa) = 38.50178 -2.59923 17.95128
#
# Velocity S-wave (km/s) = 4.50936 -1.17165 3.07909
# Velocity P-wave (km/s) = 7.39611 5.24010 6.40941
#
# Compressibility (1/GPa) = 0.01914239
#
# Stress axis : x y z
#
# Youngs Moduli (GPa) = 31.88063 91.78284 26.27322
#
# Poissons Ratio (x) = 0.44669 0.66274
# Poissons Ratio (y) = 0.15516 0.01311
# Poissons Ratio (z) = 0.80419 0.04579
#
# Static dielectric constant tensor:
#      x y z
#    x 1.685380 0.000000 0.000000 
#    y 0.000000 1.694770 0.000000 
#    z 0.000000 0.000000 1.758290 
# 
# From -- ./inp_files/10867.got.cif
#   From: 2010.05.17/outbox.cif.g08.bks.cpg/sg74_6_cif.got.tgz:10867.got - 2010.06.03 17:57:02.
