data_PCOD9539197
_publ_section_title
;
Structure prediction by ZEFSAII (Michael W. Deem and Ramdas Pophale) SiO2 
 PCOD9539197
Probable space group: I M M A
;
_chemical_formula_sum "Si O2"
_cell_formula_units_Z 96
_cell_length_a 18.532644
_cell_length_b 15.618493
_cell_length_c 16.280809
_cell_angle_alpha 90.000000
_cell_angle_beta 90.000000
_cell_angle_gamma 90.000000
_cell_volume 4712.512248
_symmetry_space_group_name_H-M "I M M A"
_symmetry_group_IT_number 74
_symmetry_cell_setting 'orthorhombic'
loop_
_space_group_symop_operation_xyz
x,y,z
-x,1/2-y,z
x,-y,-z
-x,1/2+y,-z
-x,-y,-z
x,1/2+y,-z
-x,y,z
x,1/2-y,z
1/2+x,1/2+y,1/2+z
1/2-x,-y,1/2+z
1/2+x,1/2-y,1/2-z
1/2-x,y,1/2-z
1/2-x,1/2-y,1/2-z
1/2+x,y,1/2-z
1/2-x,1/2+y,1/2+z
1/2+x,-y,1/2+z
loop_
_atom_site_type_symbol
_atom_site_label
_atom_site_fract_x
_atom_site_fract_y
_atom_site_fract_z
Si Si1 0.183730 0.019982 0.903520
Si Si2 0.310827 0.152266 0.859939
Si Si3 0.416832 0.410248 0.727943
Si Si4 0.918042 0.906947 0.683063
Si Si5 0.815519 0.659405 0.813209
Si Si6 0.582819 0.648443 0.987918
O O1 0.249259 0.081235 0.873790
O O2 0.113012 0.063658 0.861841
O O3 0.190894 0.925978 0.864700
O O4 0.180639 0.000000 0.000000
O O5 0.282860 0.250000 0.867106
O O6 0.356482 0.144922 0.775470
O O7 0.368656 0.137267 0.932518
O O8 0.500000 0.378336 0.727028
O O9 0.416120 0.497506 0.781951
O O10 0.883270 0.849515 0.752891
O O11 0.885242 0.898333 0.592246
O O12 0.000000 0.879736 0.670556
O O13 0.816594 0.750000 0.859479
O O14 0.750000 0.659847 0.750000
O O15 0.500000 0.620732 0.005168
O O16 0.581908 0.750000 0.969003
#
# Coordination Sequence:
#
# PCOD9539197 Si02
#       6
#    16  16  16  16  16  16
#     4  11  25  42  63  89 126 168 211 267 320 382
#     4  11  24  40  62  92 129 170 214 261 316 380
#     4  10  22  41  64  89 119 164 217 264 317 374
#     4   9  18  34  58  89 124 158 193 240 306 378
#     4  10  21  37  60  87 119 156 201 251 307 371
#     4   9  18  32  54  89 127 159 193 237 299 373
#
# _framework density 20.371300000000002
#
# number of rings (size 3 to 8) (size 9 to 14) (size 15 to 20)
#    0.000    2.000    0.000    3.500    4.667    4.333 
#    0.000    2.500    0.000    0.000    0.000    2.333 
#    0.000    0.000    0.000    0.000    0.000    0.000 
#
# Total GULP energy -267888.005019 kJ/mol
# GULP energy per Si atom -5581.000105 kJ/mol
# Density = 2.032493 g / cm^3
# Si number density = 20.371300 Si / 1000 Ang^3
#
#
#
# Elastic Constant Matrix: (Units=GPa)
#
#
# Indices 1 2 3 4 5 6 
#
# 1 54.6476 22.6204 33.4533 0.0000 0.0000 0.0000
# 2 22.6204 91.2965 37.1593 0.0000 0.0000 0.0000
# 3 33.4533 37.1593 103.8760 0.0000 0.0000 0.0000
# 4 0.0000 0.0000 0.0000 15.3679 0.0000 0.0000
# 5 0.0000 0.0000 0.0000 0.0000 572.1970 0.0000
# 6 0.0000 0.0000 0.0000 0.0000 0.0000 14.8578
#
#
#
# Elastic Compliance Matrix: (Units=1/GPa)
#
#
# Indices 1 2 3 4 5 6 
#
# 1 0.023574 -0.003220 -0.006440 0.000000 0.000000 0.000000
# 2 -0.003220 0.013260 -0.003706 0.000000 0.000000 0.000000
# 3 -0.006440 -0.003706 0.013027 0.000000 0.000000 0.000000
# 4 0.000000 0.000000 0.000000 0.065071 0.000000 0.000000
# 5 0.000000 0.000000 0.000000 0.000000 0.001748 0.000000
# 6 0.000000 0.000000 0.000000 0.000000 0.000000 0.067305
#
#
# Mechanical properties :
#
#
# Convention : Reuss Voigt Hill
#
# Bulk Modulus (GPa) = 43.23771 48.47623 45.85697
# Shear Modulus (GPa) = 22.89104 130.92369 76.90737
#
# Velocity S-wave (km/s) = 3.35579 8.02547 6.15100
# Velocity P-wave (km/s) = 6.02378 10.47500 8.54434
#
# Compressibility (1/GPa) = 0.02312796
#
# Stress axis : x y z
#
# Youngs Moduli (GPa) = 42.41902 75.41683 76.76435
#
# Poissons Ratio (x) = 0.24281 0.49439
# Poissons Ratio (y) = 0.13657 0.28452
# Poissons Ratio (z) = 0.27319 0.27953
#
# Static dielectric constant tensor:
#      x y z
#    x 1.703650 0.000000 0.000000 
#    y 0.000000 1.764770 0.000000 
#    z 0.000000 0.000000 1.660470 
# 
# From -- ./inp_files/35288.got.cif
#   From: 2010.05.17/outbox.cif.g08.bks.cpg/sg74_18_cif.got.tgz:35288.got - 2010.06.03 17:57:02.
