data_PCOD9539584
_publ_section_title
;
Structure prediction by ZEFSAII (Michael W. Deem and Ramdas Pophale) SiO2 
 PCOD9539584
Probable space group: I M M A
;
_chemical_formula_sum "Si O2"
_cell_formula_units_Z 68
_cell_length_a 17.082924
_cell_length_b 8.886633
_cell_length_c 23.370773
_cell_angle_alpha 90.000000
_cell_angle_beta 90.000000
_cell_angle_gamma 90.000000
_cell_volume 3547.909481
_symmetry_space_group_name_H-M "I M M A"
_symmetry_group_IT_number 74
_symmetry_cell_setting 'orthorhombic'
loop_
_space_group_symop_operation_xyz
x,y,z
-x,1/2-y,z
x,-y,-z
-x,1/2+y,-z
-x,-y,-z
x,1/2+y,-z
-x,y,z
x,1/2-y,z
1/2+x,1/2+y,1/2+z
1/2-x,-y,1/2+z
1/2+x,1/2-y,1/2-z
1/2-x,y,1/2-z
1/2-x,1/2-y,1/2-z
1/2+x,y,1/2-z
1/2-x,1/2+y,1/2+z
1/2+x,-y,1/2+z
loop_
_atom_site_type_symbol
_atom_site_label
_atom_site_fract_x
_atom_site_fract_y
_atom_site_fract_z
Si Si1 0.000000 0.250000 0.923521
Si Si2 0.800317 0.571091 0.559660
Si Si3 0.846453 0.583239 0.109180
Si Si4 0.840978 0.571878 0.768270
Si Si5 0.090641 0.571147 0.343700
O O1 0.930086 0.379248 0.918432
O O2 0.827140 0.500000 0.500000
O O3 0.803426 0.750000 0.557312
O O4 0.712009 0.516143 0.572003
O O5 0.852989 0.510236 0.611419
O O6 0.809008 0.750000 0.117346
O O7 0.855137 0.506411 0.170951
O O8 0.856970 0.750000 0.771763
O O9 0.750000 0.553653 0.750000
O O10 0.891648 0.494674 0.718918
O O11 0.104820 0.750000 0.343774
O O12 0.000000 0.544818 0.358542
#
# Coordination Sequence:
#
# PCOD9539584 Si02
#       5
#     4  16  16  16  16
#     4   8  24  40  66  96 132 160 216 262 342 366
#     4  12  25  44  70  95 123 170 218 264 322 383
#     4  10  21  41  65  92 128 166 213 263 319 387
#     4  11  22  36  60  96 133 173 216 262 319 382
#     4  11  25  42  64  98 134 172 216 265 320 376
#
# _framework density 19.166215000000001
#
# number of rings (size 3 to 8) (size 9 to 14) (size 15 to 20)
#    0.706    0.471    2.353    4.235    1.647    3.294 
#    0.000    2.353    0.000    0.000    0.000    0.000 
#    0.000    0.000    0.000    0.000    0.000    0.000 
#
# Total GULP energy -189403.811426 kJ/mol
# GULP energy per Si atom -5570.700336 kJ/mol
# Density = 1.912259 g / cm^3
# Si number density = 19.166215 Si / 1000 Ang^3
#
#
#
# Elastic Constant Matrix: (Units=GPa)
#
#
# Indices 1 2 3 4 5 6 
#
# 1 71.9648 31.2600 -14.7427 0.0000 0.0000 0.0000
# 2 31.2600 127.0162 11.0653 0.0000 0.0000 0.0000
# 3 -14.7427 11.0653 50.1182 0.0000 0.0000 0.0000
# 4 0.0000 0.0000 0.0000 31.1974 0.0000 0.0000
# 5 0.0000 0.0000 0.0000 0.0000 -8.8284 0.0000
# 6 0.0000 0.0000 0.0000 0.0000 0.0000 68.9387
#
#
#
# Elastic Compliance Matrix: (Units=1/GPa)
#
#
# Indices 1 2 3 4 5 6 
#
# 1 0.017222 -0.004772 0.006119 0.000000 0.000000 0.000000
# 2 -0.004772 0.009349 -0.003468 0.000000 0.000000 0.000000
# 3 0.006119 -0.003468 0.022519 0.000000 0.000000 0.000000
# 4 0.000000 0.000000 0.000000 0.032054 0.000000 0.000000
# 5 0.000000 0.000000 0.000000 0.000000 -0.113271 0.000000
# 6 0.000000 0.000000 0.000000 0.000000 0.000000 0.014506
#
#
# Mechanical properties :
#
#
# Convention : Reuss Voigt Hill
#
# Bulk Modulus (GPa) = 22.29648 33.80716 28.05182
# Shear Modulus (GPa) = 3186.77314 33.02930 1609.90122
#
# Velocity S-wave (km/s) = 40.82050 4.15578 29.01365
# Velocity P-wave (km/s) = 47.25896 6.38001 33.72027
#
# Compressibility (1/GPa) = 0.04485012
#
# Stress axis : x y z
#
# Youngs Moduli (GPa) = 58.06520 106.95802 44.40781
#
# Poissons Ratio (x) = 0.51036 -0.27175
# Poissons Ratio (y) = 0.27707 0.15400
# Poissons Ratio (z) = -0.35533 0.37091
#
# Static dielectric constant tensor:
#      x y z
#    x 1.661810 0.000000 0.000000 
#    y 0.000000 1.651250 0.000000 
#    z 0.000000 0.000000 1.691680 
# 
# From -- ./inp_files/52608.got.cif
#   From: 2010.05.17/outbox.cif.g08.bks.cpg/sg74_27_cif.got.tgz:52608.got - 2010.06.03 17:57:02.
