data_PCOD9539308
_publ_section_title
;
Structure prediction by ZEFSAII (Michael W. Deem and Ramdas Pophale) SiO2 
 PCOD9539308
Probable space group: I M M A
;
_chemical_formula_sum "Si O2"
_cell_formula_units_Z 64
_cell_length_a 14.862840
_cell_length_b 21.237150
_cell_length_c 8.997387
_cell_angle_alpha 90.000000
_cell_angle_beta 90.000000
_cell_angle_gamma 90.000000
_cell_volume 2839.974484
_symmetry_space_group_name_H-M "I M M A"
_symmetry_group_IT_number 74
_symmetry_cell_setting 'orthorhombic'
loop_
_space_group_symop_operation_xyz
x,y,z
-x,1/2-y,z
x,-y,-z
-x,1/2+y,-z
-x,-y,-z
x,1/2+y,-z
-x,y,z
x,1/2-y,z
1/2+x,1/2+y,1/2+z
1/2-x,-y,1/2+z
1/2+x,1/2-y,1/2-z
1/2-x,y,1/2-z
1/2-x,1/2-y,1/2-z
1/2+x,y,1/2-z
1/2-x,1/2+y,1/2+z
1/2+x,-y,1/2+z
loop_
_atom_site_type_symbol
_atom_site_label
_atom_site_fract_x
_atom_site_fract_y
_atom_site_fract_z
Si Si1 0.349491 0.750000 0.677102
Si Si2 0.896327 0.008614 0.837189
Si Si3 0.108843 0.250000 0.837624
Si Si4 0.390737 0.126412 0.850787
Si Si5 0.351849 0.378624 0.193637
O O1 0.250000 0.750000 0.750000
O O2 0.347145 0.750000 0.499611
O O3 0.392129 0.684870 0.734186
O O4 0.895880 0.943000 0.749879
O O5 0.000000 0.028153 0.864444
O O6 0.858636 0.064516 0.736777
O O7 0.853151 0.000000 0.000000
O O8 0.132458 0.188149 0.743667
O O9 0.000000 0.250000 0.859699
O O10 0.500000 0.124552 0.865024
O O11 0.354232 0.127753 0.017085
O O12 0.250000 0.383405 0.250000
#
# Coordination Sequence:
#
# PCOD9539308 Si02
#       5
#     8  16   8  16  16
#     4  10  23  42  58  85 125 161 196 242 307 362
#     4  10  21  38  60  88 121 155 195 248 306 355
#     4  10  21  40  68  95 117 153 206 254 296 354
#     4  10  21  39  64  92 121 154 198 255 308 352
#     4  11  23  39  58  86 121 161 204 241 294 363
#
# _framework density 22.535413999999999
#
# number of rings (size 3 to 8) (size 9 to 14) (size 15 to 20)
#    0.000    1.750    0.000    3.750    0.000    8.000 
#    0.000   15.000    0.000    0.000    0.000    0.000 
#    0.000    0.000    0.000    0.000    0.000    0.000 
#
# Total GULP energy -179026.998810 kJ/mol
# GULP energy per Si atom -5594.593713 kJ/mol
# Density = 2.248412 g / cm^3
# Si number density = 22.535414 Si / 1000 Ang^3
#
#
#
# Elastic Constant Matrix: (Units=GPa)
#
#
# Indices 1 2 3 4 5 6 
#
# 1 70.8211 6.8800 31.2068 0.0000 0.0000 0.0000
# 2 6.8800 203.6082 115.4268 0.0000 0.0000 0.0000
# 3 31.2068 115.4268 274.9275 0.0000 0.0000 0.0000
# 4 0.0000 0.0000 0.0000 40.5004 0.0000 0.0000
# 5 0.0000 0.0000 0.0000 0.0000 35.4069 0.0000
# 6 0.0000 0.0000 0.0000 0.0000 0.0000 12.2237
#
#
#
# Elastic Compliance Matrix: (Units=1/GPa)
#
#
# Indices 1 2 3 4 5 6 
#
# 1 0.014919 0.000598 -0.001945 0.000000 0.000000 0.000000
# 2 0.000598 0.006469 -0.002784 0.000000 0.000000 0.000000
# 3 -0.001945 -0.002784 0.005027 0.000000 0.000000 0.000000
# 4 0.000000 0.000000 0.000000 0.024691 0.000000 0.000000
# 5 0.000000 0.000000 0.000000 0.000000 0.028243 0.000000
# 6 0.000000 0.000000 0.000000 0.000000 0.000000 0.081808
#
#
# Mechanical properties :
#
#
# Convention : Reuss Voigt Hill
#
# Bulk Modulus (GPa) = 55.08292 95.15379 75.11836
# Shear Modulus (GPa) = 28.49492 44.01575 36.25534
#
# Velocity S-wave (km/s) = 3.55977 4.42428 4.01536
# Velocity P-wave (km/s) = 6.43365 8.27132 7.40967
#
# Compressibility (1/GPa) = 0.01815445
#
# Stress axis : x y z
#
# Youngs Moduli (GPa) = 67.02936 154.57150 198.92810
#
# Poissons Ratio (x) = -0.09248 0.38684
# Poissons Ratio (y) = -0.04010 0.55383
# Poissons Ratio (z) = 0.13035 0.43034
#
# Static dielectric constant tensor:
#      x y z
#    x 1.940850 0.000000 0.000000 
#    y 0.000000 1.834500 0.000000 
#    z 0.000000 0.000000 1.775580 
# 
# From -- ./inp_files/11826.got.cif
#   From: 2010.05.17/outbox.cif.g08.bks.cpg/sg74_6_cif.got.tgz:11826.got - 2010.06.03 17:57:02.
