data_PCOD9539087
_publ_section_title
;
Structure prediction by ZEFSAII (Michael W. Deem and Ramdas Pophale) SiO2 
 PCOD9539087
Probable space group: I M M A
;
_chemical_formula_sum "Si O2"
_cell_formula_units_Z 120
_cell_length_a 9.516386
_cell_length_b 28.304569
_cell_length_c 24.862706
_cell_angle_alpha 90.000000
_cell_angle_beta 90.000000
_cell_angle_gamma 90.000000
_cell_volume 6696.948976
_symmetry_space_group_name_H-M "I M M A"
_symmetry_group_IT_number 74
_symmetry_cell_setting 'orthorhombic'
loop_
_space_group_symop_operation_xyz
x,y,z
-x,1/2-y,z
x,-y,-z
-x,1/2+y,-z
-x,-y,-z
x,1/2+y,-z
-x,y,z
x,1/2-y,z
1/2+x,1/2+y,1/2+z
1/2-x,-y,1/2+z
1/2+x,1/2-y,1/2-z
1/2-x,y,1/2-z
1/2-x,1/2-y,1/2-z
1/2+x,y,1/2-z
1/2-x,1/2+y,1/2+z
1/2+x,-y,1/2+z
loop_
_atom_site_type_symbol
_atom_site_label
_atom_site_fract_x
_atom_site_fract_y
_atom_site_fract_z
Si Si1 0.162400 0.194219 0.097612
Si Si2 0.837602 0.693332 0.491596
Si Si3 0.000000 0.556238 0.242901
Si Si4 0.664661 0.047998 0.128443
Si Si5 0.235197 0.944736 0.332752
Si Si6 0.335782 0.624009 0.424451
Si Si7 0.832556 0.877702 0.804109
Si Si8 0.841239 0.947625 0.975694
O O1 0.180752 0.250000 0.109815
O O2 0.264047 0.181375 0.048529
O O3 0.184268 0.162274 0.149969
O O4 0.000000 0.187405 0.079848
O O5 0.832620 0.750000 0.486917
O O6 0.750196 0.669262 0.444082
O O7 0.000000 0.678096 0.491143
O O8 0.120527 0.567442 0.288468
O O9 0.121850 0.544358 0.198361
O O10 0.500000 0.059848 0.133503
O O11 0.756515 0.075755 0.172590
O O12 0.728495 0.060879 0.070559
O O13 0.684659 0.992126 0.137064
O O14 0.266464 0.902880 0.374529
O O15 0.500000 0.634162 0.413244
O O16 0.330466 0.588476 0.475279
O O17 0.750000 0.864272 0.750000
O O18 0.000000 0.884727 0.794944
O O19 0.000000 0.943824 0.952361
O O20 0.825750 0.000000 0.000000
#
# Coordination Sequence:
#
# PCOD9539087 Si02
#       8
#    16  16   8  16  16  16  16  16
#     4   9  19  40  64  85 113 151 194 239 296 360
#     4  10  22  38  61  93 125 153 186 238 297 348
#     4  10  24  40  60  80 119 146 203 242 286 332
#     4  12  25  38  56  82 118 158 200 246 297 343
#     4  11  23  40  59  87 110 159 195 244 287 340
#     4  11  22  38  62  89 119 157 198 235 289 355
#     4  11  25  39  57  82 112 154 201 251 299 347
#     4  10  21  37  56  82 119 158 194 237 290 354
#
# _framework density 17.918607000000002
#
# number of rings (size 3 to 8) (size 9 to 14) (size 15 to 20)
#    0.000    1.467    2.667    2.000    4.667    6.133 
#    0.000    0.000    0.000    0.000    0.000    2.800 
#    0.000    0.000    0.000    0.000    0.000    0.000 
#
# Total GULP energy -334081.254431 kJ/mol
# GULP energy per Si atom -5568.020907 kJ/mol
# Density = 1.787782 g / cm^3
# Si number density = 17.918607 Si / 1000 Ang^3
#
#
#
# Elastic Constant Matrix: (Units=GPa)
#
#
# Indices 1 2 3 4 5 6 
#
# 1 118.8324 12.9634 18.5831 0.0000 0.0000 0.0000
# 2 12.9634 32.6273 -1.4295 0.0000 0.0000 0.0000
# 3 18.5831 -1.4295 38.2767 0.0000 0.0000 0.0000
# 4 0.0000 0.0000 0.0000 7.6804 0.0000 0.0000
# 5 0.0000 0.0000 0.0000 0.0000 33.2773 0.0000
# 6 0.0000 0.0000 0.0000 0.0000 0.0000 -7.2340
#
#
#
# Elastic Compliance Matrix: (Units=1/GPa)
#
#
# Indices 1 2 3 4 5 6 
#
# 1 0.009608 -0.004028 -0.004815 0.000000 0.000000 0.000000
# 2 -0.004028 0.032388 0.003165 0.000000 0.000000 0.000000
# 3 -0.004815 0.003165 0.028581 0.000000 0.000000 0.000000
# 4 0.000000 0.000000 0.000000 0.130201 0.000000 0.000000
# 5 0.000000 0.000000 0.000000 0.000000 0.030050 0.000000
# 6 0.000000 0.000000 0.000000 0.000000 0.000000 -0.138236
#
#
# Mechanical properties :
#
#
# Convention : Reuss Voigt Hill
#
# Bulk Modulus (GPa) = 16.88571 27.77450 22.33010
# Shear Modulus (GPa) = 40.42386 17.38604 28.90495
#
# Velocity S-wave (km/s) = 4.75486 3.11831 4.02073
# Velocity P-wave (km/s) = 6.29197 5.33846 5.83473
#
# Compressibility (1/GPa) = 0.05922168
#
# Stress axis : x y z
#
# Youngs Moduli (GPa) = 104.08412 30.87529 34.98785
#
# Poissons Ratio (x) = 0.12437 0.16846
# Poissons Ratio (y) = 0.41928 -0.11075
# Poissons Ratio (z) = 0.50115 -0.09773
#
# Static dielectric constant tensor:
#      x y z
#    x 1.608980 0.000000 0.000000 
#    y 0.000000 1.621450 0.000000 
#    z 0.000000 0.000000 1.592800 
# 
# From -- ./inp_files/65138.got.cif
#   From: 2010.05.17/outbox.cif.g08.bks.cpg/sg74_33_cif.got.tgz:65138.got - 2010.06.03 17:57:02.
