data_PCOD9539585
_publ_section_title
;
Structure prediction by ZEFSAII (Michael W. Deem and Ramdas Pophale) SiO2 
 PCOD9539585
Probable space group: I M M A
;
_chemical_formula_sum "Si O2"
_cell_formula_units_Z 44
_cell_length_a 14.338937
_cell_length_b 20.737821
_cell_length_c 5.791312
_cell_angle_alpha 90.000000
_cell_angle_beta 90.000000
_cell_angle_gamma 90.000000
_cell_volume 1722.094742
_symmetry_space_group_name_H-M "I M M A"
_symmetry_group_IT_number 74
_symmetry_cell_setting 'orthorhombic'
loop_
_space_group_symop_operation_xyz
x,y,z
-x,1/2-y,z
x,-y,-z
-x,1/2+y,-z
-x,-y,-z
x,1/2+y,-z
-x,y,z
x,1/2-y,z
1/2+x,1/2+y,1/2+z
1/2-x,-y,1/2+z
1/2+x,1/2-y,1/2-z
1/2-x,y,1/2-z
1/2-x,1/2-y,1/2-z
1/2+x,y,1/2-z
1/2-x,1/2+y,1/2+z
1/2+x,-y,1/2+z
loop_
_atom_site_type_symbol
_atom_site_label
_atom_site_fract_x
_atom_site_fract_y
_atom_site_fract_z
Si Si1 0.359644 0.750000 0.218448
Si Si2 0.000000 0.928221 0.891161
Si Si3 0.208304 0.078134 0.999468
Si Si4 0.000000 0.847153 0.508935
Si Si5 0.000000 0.250000 0.102151
O O1 0.250000 0.750000 0.250000
O O2 0.404996 0.750000 0.466480
O O3 0.409471 0.687309 0.101603
O O4 0.900750 0.904881 0.989191
O O5 0.000000 0.920165 0.606576
O O6 0.000000 0.000000 0.000000
O O7 0.250000 0.100515 0.250000
O O8 0.250000 0.098962 0.750000
O O9 0.218612 0.000000 0.000000
O O10 0.000000 0.814217 0.756180
#
# Coordination Sequence:
#
# PCOD9539585 Si02
#       5
#     8   8  16   8   4
#     4   9  19  41  70  98 138 185 235 313 380 446
#     4  10  21  41  65  94 143 191 240 314 387 453
#     4   9  19  38  60  87 127 182 245 300 361 446
#     4   9  20  39  64  98 140 183 243 299 371 475
#     4   8  18  40  60  90 140 170 236 300 356 456
#
# _framework density 25.550280000000001
#
# number of rings (size 3 to 8) (size 9 to 14) (size 15 to 20)
#    0.000    3.273    0.000    0.000    0.000    4.364 
#   19.636    7.273    0.000    0.000    0.000    0.000 
#    0.000    0.000    0.000    0.000    0.000    0.000 
#
# Total GULP energy -122577.503443 kJ/mol
# GULP energy per Si atom -5571.704702 kJ/mol
# Density = 2.549213 g / cm^3
# Si number density = 25.550280 Si / 1000 Ang^3
#
#
#
# Elastic Constant Matrix: (Units=GPa)
#
#
# Indices 1 2 3 4 5 6 
#
# 1 296.2798 30.3013 125.3315 0.0000 0.0000 0.0000
# 2 30.3013 95.4967 45.0510 0.0000 0.0000 0.0000
# 3 125.3315 45.0510 178.5714 0.0000 0.0000 0.0000
# 4 0.0000 0.0000 0.0000 55.5611 0.0000 0.0000
# 5 0.0000 0.0000 0.0000 0.0000 -49.6516 0.0000
# 6 0.0000 0.0000 0.0000 0.0000 0.0000 -67.9122
#
#
#
# Elastic Compliance Matrix: (Units=1/GPa)
#
#
# Indices 1 2 3 4 5 6 
#
# 1 0.004801 0.000075 -0.003389 0.000000 0.000000 0.000000
# 2 0.000075 0.011887 -0.003052 0.000000 0.000000 0.000000
# 3 -0.003389 -0.003052 0.008748 0.000000 0.000000 0.000000
# 4 0.000000 0.000000 0.000000 0.017998 0.000000 0.000000
# 5 0.000000 0.000000 0.000000 0.000000 -0.020140 0.000000
# 6 0.000000 0.000000 0.000000 0.000000 0.000000 -0.014725
#
#
# Mechanical properties :
#
#
# Convention : Reuss Voigt Hill
#
# Bulk Modulus (GPa) = 78.70140 107.96839 93.33489
# Shear Modulus (GPa) = 195.80909 12.24374 104.02642
#
# Velocity S-wave (km/s) = 8.76374 2.19144 6.38771
# Velocity P-wave (km/s) = 11.54442 6.98228 9.54007
#
# Compressibility (1/GPa) = 0.01270625
#
# Stress axis : x y z
#
# Youngs Moduli (GPa) = 208.29441 84.12269 114.30954
#
# Poissons Ratio (x) = -0.00633 0.38734
# Poissons Ratio (y) = -0.01567 0.34885
# Poissons Ratio (z) = 0.70581 0.25673
#
# Static dielectric constant tensor:
#      x y z
#    x 2.019600 0.000000 0.000000 
#    y 0.000000 -5.483670 0.000000 
#    z 0.000000 0.000000 2.158710 
# 
# From -- ./inp_files/1301.got.cif
#   From: 2010.05.17/outbox.cif.g08.bks.cpg/sg74_1_cif.got.tgz:1301.got - 2010.06.03 17:57:02.
