data_PCOD9539509
_publ_section_title
;
Structure prediction by ZEFSAII (Michael W. Deem and Ramdas Pophale) SiO2 
 PCOD9539509
Probable space group: I M M A
;
_chemical_formula_sum "Si O2"
_cell_formula_units_Z 116
_cell_length_a 14.278278
_cell_length_b 18.741221
_cell_length_c 25.718074
_cell_angle_alpha 90.000000
_cell_angle_beta 90.000000
_cell_angle_gamma 90.000000
_cell_volume 6881.960206
_symmetry_space_group_name_H-M "I M M A"
_symmetry_group_IT_number 74
_symmetry_cell_setting 'orthorhombic'
loop_
_space_group_symop_operation_xyz
x,y,z
-x,1/2-y,z
x,-y,-z
-x,1/2+y,-z
-x,-y,-z
x,1/2+y,-z
-x,y,z
x,1/2-y,z
1/2+x,1/2+y,1/2+z
1/2-x,-y,1/2+z
1/2+x,1/2-y,1/2-z
1/2-x,y,1/2-z
1/2-x,1/2-y,1/2-z
1/2+x,y,1/2-z
1/2-x,1/2+y,1/2+z
1/2+x,-y,1/2+z
loop_
_atom_site_type_symbol
_atom_site_label
_atom_site_fract_x
_atom_site_fract_y
_atom_site_fract_z
Si Si1 0.500000 0.750000 0.250118
Si Si2 0.223275 0.085537 0.376153
Si Si3 0.387468 0.666685 0.786644
Si Si4 0.224595 0.573148 0.334856
Si Si5 0.102999 0.397243 0.763779
Si Si6 0.609638 0.335500 0.332035
Si Si7 0.607892 0.835012 0.086267
Si Si8 0.109091 0.080711 0.480071
O O1 0.580061 0.814230 0.251746
O O2 0.160629 0.120806 0.330837
O O3 0.323604 0.123022 0.370888
O O4 0.174707 0.096849 0.431514
O O5 0.230745 0.002028 0.363805
O O6 0.500000 0.662782 0.790875
O O7 0.360500 0.750000 0.792760
O O8 0.363486 0.644843 0.727525
O O9 0.153316 0.568589 0.286072
O O10 0.324868 0.594805 0.311116
O O11 0.180041 0.630179 0.374005
O O12 0.000000 0.430060 0.773891
O O13 0.500000 0.351217 0.339097
O O14 0.621203 0.250000 0.336503
O O15 0.500000 0.853445 0.101944
O O16 0.615205 0.750000 0.086073
O O17 0.622554 0.867117 0.028947
O O18 0.000000 0.085602 0.463653
O O19 0.124795 0.000000 0.500000
#
# Coordination Sequence:
#
# PCOD9539509 Si02
#       8
#     4  16  16  16  16  16  16  16
#     4   8  20  42  56  72 110 164 174 238 276 312
#     4  12  22  33  57  84 111 150 183 227 284 332
#     4   9  19  34  53  82 116 150 185 221 266 326
#     4  11  23  34  54  87 114 146 183 225 278 333
#     4   9  22  37  53  80 113 145 186 222 274 325
#     4   9  20  38  57  80 114 154 189 225 270 325
#     4  10  22  37  59  83 108 145 190 230 270 328
#     4  10  21  40  56  77 114 146 178 228 284 334
#
# _framework density 16.855663
#
# number of rings (size 3 to 8) (size 9 to 14) (size 15 to 20)
#    0.414    1.655    1.379    2.483    5.793    4.966 
#    0.000    1.379    0.000    1.241    0.000    0.000 
#    0.000    0.000    0.000    0.000    0.000    0.000 
#
# Total GULP energy -323148.142803 kJ/mol
# GULP energy per Si atom -5571.519704 kJ/mol
# Density = 1.681730 g / cm^3
# Si number density = 16.855663 Si / 1000 Ang^3
#
#
#
# Elastic Constant Matrix: (Units=GPa)
#
#
# Indices 1 2 3 4 5 6 
#
# 1 118.6276 32.4792 67.9160 0.0000 0.0000 0.0000
# 2 32.4792 39.9577 29.3003 0.0000 0.0000 0.0000
# 3 67.9160 29.3003 83.6874 0.0000 0.0000 0.0000
# 4 0.0000 0.0000 0.0000 23.0013 0.0000 0.0000
# 5 0.0000 0.0000 0.0000 0.0000 32.9640 0.0000
# 6 0.0000 0.0000 0.0000 0.0000 0.0000 11.4614
#
#
#
# Elastic Compliance Matrix: (Units=1/GPa)
#
#
# Indices 1 2 3 4 5 6 
#
# 1 0.016404 -0.004806 -0.011630 0.000000 0.000000 0.000000
# 2 -0.004806 0.035079 -0.008382 0.000000 0.000000 0.000000
# 3 -0.011630 -0.008382 0.024322 0.000000 0.000000 0.000000
# 4 0.000000 0.000000 0.000000 0.043476 0.000000 0.000000
# 5 0.000000 0.000000 0.000000 0.000000 0.030336 0.000000
# 6 0.000000 0.000000 0.000000 0.000000 0.000000 0.087250
#
#
# Mechanical properties :
#
#
# Convention : Reuss Voigt Hill
#
# Bulk Modulus (GPa) = 38.21145 55.74041 46.97593
# Shear Modulus (GPa) = 16.93632 20.99048 18.96340
#
# Velocity S-wave (km/s) = 3.17327 3.53272 3.35781
# Velocity P-wave (km/s) = 6.01209 7.05558 6.55463
#
# Compressibility (1/GPa) = 0.02617017
#
# Stress axis : x y z
#
# Youngs Moduli (GPa) = 60.96193 28.50725 41.11526
#
# Poissons Ratio (x) = 0.13699 0.47816
# Poissons Ratio (y) = 0.29296 0.34462
# Poissons Ratio (z) = 0.70897 0.23894
#
# Static dielectric constant tensor:
#      x y z
#    x 1.580250 0.000000 0.000000 
#    y 0.000000 1.562990 0.000000 
#    z 0.000000 0.000000 1.547790 
# 
# From -- ./inp_files/60380.got.cif
#   From: 2010.05.17/outbox.cif.g08.bks.cpg/sg74_31_cif.got.tgz:60380.got - 2010.06.03 17:57:02.
