data_PCOD9539829
_publ_section_title
;
Structure prediction by ZEFSAII (Michael W. Deem and Ramdas Pophale) SiO2 
 PCOD9539829
Probable space group: I M M A
;
_chemical_formula_sum "Si O2"
_cell_formula_units_Z 80
_cell_length_a 19.095547
_cell_length_b 30.403267
_cell_length_c 6.662090
_cell_angle_alpha 90.000000
_cell_angle_beta 90.000000
_cell_angle_gamma 90.000000
_cell_volume 3867.789698
_symmetry_space_group_name_H-M "I M M A"
_symmetry_group_IT_number 74
_symmetry_cell_setting 'orthorhombic'
loop_
_space_group_symop_operation_xyz
x,y,z
-x,1/2-y,z
x,-y,-z
-x,1/2+y,-z
-x,-y,-z
x,1/2+y,-z
-x,y,z
x,1/2-y,z
1/2+x,1/2+y,1/2+z
1/2-x,-y,1/2+z
1/2+x,1/2-y,1/2-z
1/2-x,y,1/2-z
1/2-x,1/2-y,1/2-z
1/2+x,y,1/2-z
1/2-x,1/2+y,1/2+z
1/2+x,-y,1/2+z
loop_
_atom_site_type_symbol
_atom_site_label
_atom_site_fract_x
_atom_site_fract_y
_atom_site_fract_z
Si Si1 0.080504 0.383033 0.267649
Si Si2 0.750000 0.396308 0.750000
Si Si3 0.130092 0.832091 0.096403
Si Si4 0.581086 0.298364 0.002598
Si Si5 0.779702 0.250000 0.011913
Si Si6 0.187300 0.044078 0.399350
O O1 0.111366 0.342121 0.397118
O O2 0.128896 0.425510 0.294318
O O3 0.000000 0.392054 0.327212
O O4 0.083472 0.361917 0.047883
O O5 0.813513 0.365277 0.812702
O O6 0.776372 0.426287 0.568826
O O7 0.086433 0.807683 0.267554
O O8 0.174683 0.793991 0.990717
O O9 0.500000 0.296813 0.067222
O O10 0.612408 0.250000 0.043966
O O11 0.750000 0.250000 0.250000
O O12 0.750000 0.250000 0.750000
O O13 0.250000 0.031174 0.250000
O O14 0.157401 0.000000 0.500000
#
# Coordination Sequence:
#
# PCOD9539829 Si02
#       6
#    16   8  16  16   8  16
#     4  11  26  44  67 100 141 187 235 294 359 435
#     4  12  24  41  68  98 130 180 229 288 364 420
#     4  12  24  40  67  93 141 186 238 292 359 415
#     4  10  22  40  61  91 133 185 237 279 336 414
#     4  12  30  42  65 108 151 192 253 310 370 432
#     4  12  25  45  74 101 131 170 227 293 365 447
#
# _framework density 20.683648999999999
#
# number of rings (size 3 to 8) (size 9 to 14) (size 15 to 20)
#    0.000    0.600    7.000    0.600    7.000    0.400 
#    0.000    0.000    0.000    1.800    0.000    0.000 
#    0.000    0.000    0.000    0.000    0.000    0.000 
#
# Total GULP energy -222891.333927 kJ/mol
# GULP energy per Si atom -5572.283348 kJ/mol
# Density = 2.063657 g / cm^3
# Si number density = 20.683649 Si / 1000 Ang^3
#
#
#
# Elastic Constant Matrix: (Units=GPa)
#
#
# Indices 1 2 3 4 5 6 
#
# 1 54.5172 35.0990 21.8887 0.0001 0.0002 0.0001
# 2 35.0990 135.7974 21.5871 0.0000 -0.0002 -0.0001
# 3 21.8887 21.5871 51.2746 0.0000 0.0025 0.0003
# 4 0.0001 0.0000 0.0000 32.5303 0.0001 0.0000
# 5 0.0002 -0.0002 0.0025 0.0001 30.2413 0.0002
# 6 0.0001 -0.0001 0.0003 0.0000 0.0002 14.2976
#
#
#
# Elastic Compliance Matrix: (Units=1/GPa)
#
#
# Indices 1 2 3 4 5 6 
#
# 1 0.025072 -0.005122 -0.008547 0.000000 0.000001 0.000000
# 2 -0.005122 0.008938 -0.001577 0.000000 0.000000 0.000000
# 3 -0.008547 -0.001577 0.023815 0.000000 -0.000002 0.000000
# 4 0.000000 0.000000 0.000000 0.030741 0.000000 0.000000
# 5 0.000001 0.000000 -0.000002 0.000000 0.033067 0.000000
# 6 0.000000 0.000000 0.000000 0.000000 0.000000 0.069942
#
#
# Mechanical properties :
#
#
# Convention : Reuss Voigt Hill
#
# Bulk Modulus (GPa) = 36.58289 44.30431 40.44360
# Shear Modulus (GPa) = 21.62849 26.28147 23.95498
#
# Velocity S-wave (km/s) = 3.23721 3.56847 3.40687
# Velocity P-wave (km/s) = 5.63009 6.20041 5.92212
#
# Compressibility (1/GPa) = 0.02733518
#
# Stress axis : x y z
#
# Youngs Moduli (GPa) = 39.88575 111.87804 41.99010
#
# Poissons Ratio (x) = 0.57299 0.35887
# Poissons Ratio (y) = 0.20428 0.06621
# Poissons Ratio (z) = 0.34089 0.17641
#
# Static dielectric constant tensor:
#      x y z
#    x 1.767370 0.000000 0.000000 
#    y 0.000000 1.710090 0.000000 
#    z 0.000000 0.000000 2.055550 
# 
# From -- ./inp_files/3892.got.cif
#   From: 2010.05.17/outbox.cif.g08.bks.cpg/sg74_2_cif.got.tgz:3892.got - 2010.06.03 17:57:02.
