data_PCOD9539494
_publ_section_title
;
Structure prediction by ZEFSAII (Michael W. Deem and Ramdas Pophale) SiO2 
 PCOD9539494
Probable space group: I M M A
;
_chemical_formula_sum "Si O2"
_cell_formula_units_Z 96
_cell_length_a 23.336807
_cell_length_b 17.384058
_cell_length_c 12.116624
_cell_angle_alpha 90.000000
_cell_angle_beta 90.000000
_cell_angle_gamma 90.000000
_cell_volume 4915.573882
_symmetry_space_group_name_H-M "I M M A"
_symmetry_group_IT_number 74
_symmetry_cell_setting 'orthorhombic'
loop_
_space_group_symop_operation_xyz
x,y,z
-x,1/2-y,z
x,-y,-z
-x,1/2+y,-z
-x,-y,-z
x,1/2+y,-z
-x,y,z
x,1/2-y,z
1/2+x,1/2+y,1/2+z
1/2-x,-y,1/2+z
1/2+x,1/2-y,1/2-z
1/2-x,y,1/2-z
1/2-x,1/2-y,1/2-z
1/2+x,y,1/2-z
1/2-x,1/2+y,1/2+z
1/2+x,-y,1/2+z
loop_
_atom_site_type_symbol
_atom_site_label
_atom_site_fract_x
_atom_site_fract_y
_atom_site_fract_z
Si Si1 0.124386 0.839754 0.631753
Si Si2 0.694215 0.064008 0.311275
Si Si3 0.500000 0.159328 0.233103
Si Si4 0.794296 0.339992 0.971383
Si Si5 0.379787 0.919330 0.326262
Si Si6 0.000000 0.502698 0.132830
Si Si7 0.671076 0.342311 0.888885
O O1 0.139741 0.750000 0.645578
O O2 0.158152 0.888671 0.721729
O O3 0.057159 0.847880 0.659183
O O4 0.142819 0.860716 0.507654
O O5 0.750000 0.033837 0.250000
O O6 0.710990 0.116546 0.413672
O O7 0.656474 0.994875 0.354264
O O8 0.500000 0.250000 0.276801
O O9 0.500000 0.085235 0.316941
O O10 0.789650 0.250000 0.992184
O O11 0.854883 0.358495 0.913996
O O12 0.738955 0.360765 0.896651
O O13 0.360810 0.887846 0.207205
O O14 0.444596 0.948023 0.330982
O O15 0.000000 0.500000 0.000000
O O16 0.665832 0.250000 0.869826
#
# Coordination Sequence:
#
# PCOD9539494 Si02
#       7
#    16  16   8  16  16   8  16
#     4  10  21  39  65  97 129 167 215 264 314 381
#     4  12  22  37  63  98 131 161 209 272 331 383
#     4  10  22  45  71  95 127 171 217 263 321 382
#     4  11  23  41  66  93 129 175 217 265 325 390
#     4  12  26  42  63  93 129 172 216 265 329 390
#     4  12  26  49  65  91 133 171 216 277 323 380
#     4  10  22  43  67  94 133 172 214 266 323 398
#
# _framework density 19.529765000000001
#
# number of rings (size 3 to 8) (size 9 to 14) (size 15 to 20)
#    0.000    1.000    3.333    4.000    0.000    3.333 
#    0.000    4.167    0.000    0.000    0.000    0.000 
#    0.000    0.000    0.000    0.000    0.000    0.000 
#
# Total GULP energy -268177.179088 kJ/mol
# GULP energy per Si atom -5587.024564 kJ/mol
# Density = 1.948531 g / cm^3
# Si number density = 19.529765 Si / 1000 Ang^3
#
#
#
# Elastic Constant Matrix: (Units=GPa)
#
#
# Indices 1 2 3 4 5 6 
#
# 1 133.1206 42.6192 21.5904 0.0000 0.0000 0.0000
# 2 42.6192 74.4301 44.1211 0.0000 0.0000 0.0000
# 3 21.5904 44.1211 73.7645 0.0000 0.0000 0.0000
# 4 0.0000 0.0000 0.0000 38.3936 0.0000 0.0000
# 5 0.0000 0.0000 0.0000 0.0000 20.5865 0.0000
# 6 0.0000 0.0000 0.0000 0.0000 0.0000 31.1532
#
#
#
# Elastic Compliance Matrix: (Units=1/GPa)
#
#
# Indices 1 2 3 4 5 6 
#
# 1 0.009222 -0.005703 0.000712 0.000000 0.000000 0.000000
# 2 -0.005703 0.024342 -0.012891 0.000000 0.000000 0.000000
# 3 0.000712 -0.012891 0.021059 0.000000 0.000000 0.000000
# 4 0.000000 0.000000 0.000000 0.026046 0.000000 0.000000
# 5 0.000000 0.000000 0.000000 0.000000 0.048575 0.000000
# 6 0.000000 0.000000 0.000000 0.000000 0.000000 0.032099
#
#
# Mechanical properties :
#
#
# Convention : Reuss Voigt Hill
#
# Bulk Modulus (GPa) = 53.02295 55.33072 54.17684
# Shear Modulus (GPa) = 24.58276 29.55896 27.07086
#
# Velocity S-wave (km/s) = 3.55171 3.89464 3.72712
# Velocity P-wave (km/s) = 6.63538 6.97261 6.80608
#
# Compressibility (1/GPa) = 0.01885976
#
# Stress axis : x y z
#
# Youngs Moduli (GPa) = 108.43305 41.08076 47.48594
#
# Poissons Ratio (x) = 0.23427 -0.03379
# Poissons Ratio (y) = 0.61835 0.61214
# Poissons Ratio (z) = -0.07716 0.52957
#
# Static dielectric constant tensor:
#      x y z
#    x 1.676380 0.000000 0.000000 
#    y 0.000000 1.696890 0.000000 
#    z 0.000000 0.000000 1.665880 
# 
# From -- ./inp_files/25228.got.cif
#   From: 2010.05.17/outbox.cif.g08.bks.cpg/sg74_13_cif.got.tgz:25228.got - 2010.06.03 17:57:02.
