data_PCOD9539158
_publ_section_title
;
Structure prediction by ZEFSAII (Michael W. Deem and Ramdas Pophale) SiO2 
 PCOD9539158
Probable space group: I M M A
;
_chemical_formula_sum "Si O2"
_cell_formula_units_Z 84
_cell_length_a 22.661893
_cell_length_b 14.636686
_cell_length_c 12.858021
_cell_angle_alpha 90.000000
_cell_angle_beta 90.000000
_cell_angle_gamma 90.000000
_cell_volume 4264.941430
_symmetry_space_group_name_H-M "I M M A"
_symmetry_group_IT_number 74
_symmetry_cell_setting 'orthorhombic'
loop_
_space_group_symop_operation_xyz
x,y,z
-x,1/2-y,z
x,-y,-z
-x,1/2+y,-z
-x,-y,-z
x,1/2+y,-z
-x,y,z
x,1/2-y,z
1/2+x,1/2+y,1/2+z
1/2-x,-y,1/2+z
1/2+x,1/2-y,1/2-z
1/2-x,y,1/2-z
1/2-x,1/2-y,1/2-z
1/2+x,y,1/2-z
1/2-x,1/2+y,1/2+z
1/2+x,-y,1/2+z
loop_
_atom_site_type_symbol
_atom_site_label
_atom_site_fract_x
_atom_site_fract_y
_atom_site_fract_z
Si Si1 0.934032 0.750000 0.455030
Si Si2 0.565426 0.750000 0.297408
Si Si3 0.711007 0.143979 0.537823
Si Si4 0.500000 0.750000 0.577477
Si Si5 0.342923 0.903210 0.045874
Si Si6 0.096356 0.917315 0.919032
Si Si7 0.360890 0.929635 0.289036
O O1 0.938216 0.750000 0.328350
O O2 0.894897 0.664318 0.485283
O O3 0.000000 0.750000 0.496636
O O4 0.500000 0.750000 0.346455
O O5 0.598192 0.656390 0.324748
O O6 0.705691 0.250000 0.568138
O O7 0.778522 0.127645 0.507739
O O8 0.660896 0.119240 0.454457
O O9 0.695348 0.080087 0.636058
O O10 0.551630 0.667272 0.580959
O O11 0.343721 0.910892 0.171012
O O12 0.356364 0.000000 0.000000
O O13 0.106084 0.975313 0.812517
O O14 0.079977 0.000000 0.000000
#
# Coordination Sequence:
#
# PCOD9539158 Si02
#       7
#     8   8  16   4  16  16  16
#     4   9  20  38  58  85 113 142 190 254 304 354
#     4   9  18  32  54  85 115 143 190 247 296 338
#     4  11  20  38  60  91 124 157 198 259 309 362
#     4  12  22  40  60  86 132 186 202 244 304 374
#     4  11  22  38  66  88 117 157 203 253 315 366
#     4  10  23  39  58  90 129 164 211 250 301 371
#     4  10  21  37  58  90 121 155 201 256 299 361
#
# _framework density 19.695464999999999
#
# number of rings (size 3 to 8) (size 9 to 14) (size 15 to 20)
#    0.000    1.714    2.857    2.571    1.333    1.143 
#    8.571    0.952    2.095    1.143    0.000    0.000 
#    0.000    0.000    0.000    0.000    0.000    0.000 
#
# Total GULP energy -233835.695206 kJ/mol
# GULP energy per Si atom -5567.516553 kJ/mol
# Density = 1.965064 g / cm^3
# Si number density = 19.695465 Si / 1000 Ang^3
#
#
#
# Elastic Constant Matrix: (Units=GPa)
#
#
# Indices 1 2 3 4 5 6 
#
# 1 190.2182 89.8814 20.4270 0.0000 0.0000 0.0000
# 2 89.8814 165.9796 11.2394 0.0000 0.0000 0.0000
# 3 20.4270 11.2394 5.3027 0.0000 0.0000 0.0000
# 4 0.0000 0.0000 0.0000 37.2648 0.0000 0.0000
# 5 0.0000 0.0000 0.0000 0.0000 10.4095 0.0000
# 6 0.0000 0.0000 0.0000 0.0000 0.0000 12.6550
#
#
#
# Elastic Compliance Matrix: (Units=1/GPa)
#
#
# Indices 1 2 3 4 5 6 
#
# 1 0.010388 -0.003404 -0.032801 0.000000 0.000000 0.000000
# 2 -0.003404 0.008150 -0.004161 0.000000 0.000000 0.000000
# 3 -0.032801 -0.004161 0.323759 0.000000 0.000000 0.000000
# 4 0.000000 0.000000 0.000000 0.026835 0.000000 0.000000
# 5 0.000000 0.000000 0.000000 0.000000 0.096066 0.000000
# 6 0.000000 0.000000 0.000000 0.000000 0.000000 0.079020
#
#
# Mechanical properties :
#
#
# Convention : Reuss Voigt Hill
#
# Bulk Modulus (GPa) = 3.82316 67.17736 35.50026
# Shear Modulus (GPa) = 7.02110 28.06269 17.54189
#
# Velocity S-wave (km/s) = 1.89012 3.77879 2.98762
# Velocity P-wave (km/s) = 2.59013 7.29528 5.47402
#
# Compressibility (1/GPa) = 0.26156370
#
# Stress axis : x y z
#
# Youngs Moduli (GPa) = 96.26362 122.69862 3.08872
#
# Poissons Ratio (x) = 0.41769 0.10131
# Poissons Ratio (y) = 0.32770 0.01285
# Poissons Ratio (z) = 3.15759 0.51054
#
# Static dielectric constant tensor:
#      x y z
#    x 1.716280 0.000000 0.000000 
#    y 0.000000 1.714760 0.000000 
#    z 0.000000 0.000000 1.732710 
# 
# From -- ./inp_files/35198.got.cif
#   From: 2010.05.17/outbox.cif.g08.bks.cpg/sg74_18_cif.got.tgz:35198.got - 2010.06.03 17:57:02.
