data_PCOD9539076
_publ_section_title
;
Structure prediction by ZEFSAII (Michael W. Deem and Ramdas Pophale) SiO2 
 PCOD9539076
Probable space group: I M M A
;
_chemical_formula_sum "Si O2"
_cell_formula_units_Z 80
_cell_length_a 18.750399
_cell_length_b 8.209434
_cell_length_c 26.629683
_cell_angle_alpha 90.000000
_cell_angle_beta 90.000000
_cell_angle_gamma 90.000000
_cell_volume 4099.111447
_symmetry_space_group_name_H-M "I M M A"
_symmetry_group_IT_number 74
_symmetry_cell_setting 'orthorhombic'
loop_
_space_group_symop_operation_xyz
x,y,z
-x,1/2-y,z
x,-y,-z
-x,1/2+y,-z
-x,-y,-z
x,1/2+y,-z
-x,y,z
x,1/2-y,z
1/2+x,1/2+y,1/2+z
1/2-x,-y,1/2+z
1/2+x,1/2-y,1/2-z
1/2-x,y,1/2-z
1/2-x,1/2-y,1/2-z
1/2+x,y,1/2-z
1/2-x,1/2+y,1/2+z
1/2+x,-y,1/2+z
loop_
_atom_site_type_symbol
_atom_site_label
_atom_site_fract_x
_atom_site_fract_y
_atom_site_fract_z
Si Si1 0.167985 0.446806 0.847592
Si Si2 0.081822 0.946943 0.250591
Si Si3 0.830982 0.554914 0.651957
Si Si4 0.582255 0.446513 0.555160
Si Si5 0.582141 0.946473 0.944733
O O1 0.164876 0.250000 0.847700
O O2 0.123535 0.503884 0.799115
O O3 0.249928 0.496798 0.844332
O O4 0.131028 0.504928 0.899073
O O5 0.080604 0.750000 0.249100
O O6 0.000000 0.004484 0.251202
O O7 0.123653 0.998755 0.300231
O O8 0.831373 0.750000 0.650897
O O9 0.868578 0.494770 0.600707
O O10 0.606895 0.500000 0.500000
O O11 0.500000 0.501995 0.561571
O O12 0.581674 0.250000 0.556323
O O13 0.500000 0.002717 0.937977
O O14 0.581480 0.750000 0.943618
O O15 0.606314 0.000000 0.000000
#
# Coordination Sequence:
#
# PCOD9539076 Si02
#       5
#    16  16  16  16  16
#     4  10  21  37  56  79 109 143 180 222 266 315
#     4  10  21  38  60  82 104 137 182 225 265 315
#     4  11  23  37  54  80 114 145 174 216 271 323
#     4   9  18  34  56  80 107 141 181 225 271 318
#     4   9  19  36  56  77 103 137 177 219 261 308
#
# _framework density 19.516425000000002
#
# number of rings (size 3 to 8) (size 9 to 14) (size 15 to 20)
#    0.000    2.200    0.000    2.400    0.000   10.000 
#    0.000    6.000    0.000    3.600    0.000    0.000 
#    0.000    0.000    0.000    0.000    0.000    0.000 
#
# Total GULP energy -223404.880133 kJ/mol
# GULP energy per Si atom -5585.122003 kJ/mol
# Density = 1.947201 g / cm^3
# Si number density = 19.516425 Si / 1000 Ang^3
#
#
#
# Elastic Constant Matrix: (Units=GPa)
#
#
# Indices 1 2 3 4 5 6 
#
# 1 171.3182 13.7542 140.1190 0.0000 0.0000 0.0000
# 2 13.7542 8.8925 17.8046 0.0000 0.0000 0.0000
# 3 140.1190 17.8046 225.1777 0.0000 0.0000 0.0000
# 4 0.0000 0.0000 0.0000 30.3814 0.0000 0.0000
# 5 0.0000 0.0000 0.0000 0.0000 -26.0255 0.0000
# 6 0.0000 0.0000 0.0000 0.0000 0.0000 17.5818
#
#
#
# Elastic Compliance Matrix: (Units=1/GPa)
#
#
# Indices 1 2 3 4 5 6 
#
# 1 0.012023 -0.004297 -0.007142 0.000000 0.000000 0.000000
# 2 -0.004297 0.135141 -0.008012 0.000000 0.000000 0.000000
# 3 -0.007142 -0.008012 0.009518 0.000000 0.000000 0.000000
# 4 0.000000 0.000000 0.000000 0.032915 0.000000 0.000000
# 5 0.000000 0.000000 0.000000 0.000000 -0.038424 0.000000
# 6 0.000000 0.000000 0.000000 0.000000 0.000000 0.056877
#
#
# Mechanical properties :
#
#
# Convention : Reuss Voigt Hill
#
# Bulk Modulus (GPa) = 8.49028 83.19381 45.84204
# Shear Modulus (GPa) = 17.46954 19.96826 18.71890
#
# Velocity S-wave (km/s) = 2.99510 3.20214 3.10035
# Velocity P-wave (km/s) = 4.03988 7.50944 6.02961
#
# Compressibility (1/GPa) = 0.11778169
#
# Stress axis : x y z
#
# Youngs Moduli (GPa) = 83.17171 7.39967 105.05873
#
# Poissons Ratio (x) = 0.03180 0.75031
# Poissons Ratio (y) = 0.35741 0.84168
# Poissons Ratio (z) = 0.59400 0.05928
#
# Static dielectric constant tensor:
#      x y z
#    x 1.655710 0.000000 0.000000 
#    y 0.000000 1.690670 0.000000 
#    z 0.000000 0.000000 1.665250 
# 
# From -- ./inp_files/67539.got.cif
#   From: 2010.05.17/outbox.cif.g08.bks.cpg/sg74_34_cif.got.tgz:67539.got - 2010.06.03 17:57:02.
