data_PCOD9539878
_publ_section_title
;
Structure prediction by ZEFSAII (Michael W. Deem and Ramdas Pophale) SiO2 
 PCOD9539878
Probable space group: I M M A
;
_chemical_formula_sum "Si O2"
_cell_formula_units_Z 76
_cell_length_a 23.586149
_cell_length_b 15.776425
_cell_length_c 10.741792
_cell_angle_alpha 90.000000
_cell_angle_beta 90.000000
_cell_angle_gamma 90.000000
_cell_volume 3997.075702
_symmetry_space_group_name_H-M "I M M A"
_symmetry_group_IT_number 74
_symmetry_cell_setting 'orthorhombic'
loop_
_space_group_symop_operation_xyz
x,y,z
-x,1/2-y,z
x,-y,-z
-x,1/2+y,-z
-x,-y,-z
x,1/2+y,-z
-x,y,z
x,1/2-y,z
1/2+x,1/2+y,1/2+z
1/2-x,-y,1/2+z
1/2+x,1/2-y,1/2-z
1/2-x,y,1/2-z
1/2-x,1/2-y,1/2-z
1/2+x,y,1/2-z
1/2-x,1/2+y,1/2+z
1/2+x,-y,1/2+z
loop_
_atom_site_type_symbol
_atom_site_label
_atom_site_fract_x
_atom_site_fract_y
_atom_site_fract_z
Si Si1 0.000000 0.250000 0.320876
Si Si2 0.719699 0.406496 0.954191
Si Si3 0.657288 0.846182 0.438445
Si Si4 0.612937 0.250000 0.334540
Si Si5 0.000000 0.599529 0.469181
Si Si6 0.293920 0.250000 0.138304
Si Si7 0.390136 0.649130 0.190040
O O1 0.051159 0.250000 0.221856
O O2 0.000000 0.167170 0.414372
O O3 0.786825 0.402593 0.924410
O O4 0.671545 0.382886 0.854784
O O5 0.706209 0.500000 0.000000
O O6 0.713589 0.333766 0.057829
O O7 0.677246 0.750000 0.403692
O O8 0.631431 0.829384 0.576100
O O9 0.609719 0.869715 0.337819
O O10 0.647398 0.250000 0.207624
O O11 0.000000 0.500000 0.500000
O O12 0.943056 0.615036 0.387940
O O13 0.250000 0.250000 0.250000
O O14 0.391738 0.750000 0.171938
#
# Coordination Sequence:
#
# PCOD9539878 Si02
#       7
#     4  16  16   8   8   8  16
#     4  12  24  44  70  92 130 166 208 262 316 390
#     4  12  23  38  64  99 131 172 217 266 325 381
#     4   9  20  41  61  93 126 165 210 260 310 386
#     4  10  22  40  68  92 128 177 211 252 330 380
#     4  12  26  47  67  97 123 162 221 266 316 384
#     4  12  20  39  61  83 137 169 206 262 324 385
#     4  11  21  41  70  89 124 167 214 271 318 364
#
# _framework density 19.013901000000001
#
# number of rings (size 3 to 8) (size 9 to 14) (size 15 to 20)
#    0.632    0.421    5.263    2.526    0.000    4.211 
#    3.789    0.000    0.000    1.263    0.000    0.000 
#    0.000    0.000    0.000    0.000    0.000    0.000 
#
# Total GULP energy -211616.267004 kJ/mol
# GULP energy per Si atom -5568.849132 kJ/mol
# Density = 1.897062 g / cm^3
# Si number density = 19.013901 Si / 1000 Ang^3
#
#
#
# Elastic Constant Matrix: (Units=GPa)
#
#
# Indices 1 2 3 4 5 6 
#
# 1 126.5878 19.9665 43.5409 0.0000 0.0000 0.0000
# 2 19.9665 105.8379 40.7815 0.0000 0.0000 0.0000
# 3 43.5409 40.7815 91.4018 0.0000 0.0000 0.0000
# 4 0.0000 0.0000 0.0000 0.8044 0.0000 0.0000
# 5 0.0000 0.0000 0.0000 0.0000 17.1601 0.0000
# 6 0.0000 0.0000 0.0000 0.0000 0.0000 24.0580
#
#
#
# Elastic Compliance Matrix: (Units=1/GPa)
#
#
# Indices 1 2 3 4 5 6 
#
# 1 0.009448 -0.000058 -0.004475 0.000000 0.000000 0.000000
# 2 -0.000058 0.011410 -0.005063 0.000000 0.000000 0.000000
# 3 -0.004475 -0.005063 0.015332 0.000000 0.000000 0.000000
# 4 0.000000 0.000000 0.000000 1.243158 0.000000 0.000000
# 5 0.000000 0.000000 0.000000 0.000000 0.058275 0.000000
# 6 0.000000 0.000000 0.000000 0.000000 0.000000 0.041566
#
#
# Mechanical properties :
#
#
# Convention : Reuss Voigt Hill
#
# Bulk Modulus (GPa) = 58.83291 59.15616 58.99454
# Shear Modulus (GPa) = 3.56113 23.04040 13.30077
#
# Velocity S-wave (km/s) = 1.37003 3.48482 2.64773
# Velocity P-wave (km/s) = 5.78894 6.88270 6.35938
#
# Compressibility (1/GPa) = 0.01699729
#
# Stress axis : x y z
#
# Youngs Moduli (GPa) = 105.84291 87.63932 65.22512
#
# Poissons Ratio (x) = 0.00510 0.29187
# Poissons Ratio (y) = 0.00616 0.33026
# Poissons Ratio (z) = 0.47362 0.44375
#
# Static dielectric constant tensor:
#      x y z
#    x 1.607290 0.000000 0.000000 
#    y 0.000000 1.623260 0.000000 
#    z 0.000000 0.000000 1.997300 
# 
# From -- ./inp_files/24943.got.cif
#   From: 2010.05.17/outbox.cif.g08.bks.cpg/sg74_13_cif.got.tgz:24943.got - 2010.06.03 17:57:02.
