data_PCOD9539099
_publ_section_title
;
Structure prediction by ZEFSAII (Michael W. Deem and Ramdas Pophale) SiO2 
 PCOD9539099
Probable space group: I M M A
;
_chemical_formula_sum "Si O2"
_cell_formula_units_Z 112
_cell_length_a 25.002430
_cell_length_b 13.985518
_cell_length_c 16.522543
_cell_angle_alpha 90.000000
_cell_angle_beta 90.000000
_cell_angle_gamma 90.000000
_cell_volume 5777.469579
_symmetry_space_group_name_H-M "I M M A"
_symmetry_group_IT_number 74
_symmetry_cell_setting 'orthorhombic'
loop_
_space_group_symop_operation_xyz
x,y,z
-x,1/2-y,z
x,-y,-z
-x,1/2+y,-z
-x,-y,-z
x,1/2+y,-z
-x,y,z
x,1/2-y,z
1/2+x,1/2+y,1/2+z
1/2-x,-y,1/2+z
1/2+x,1/2-y,1/2-z
1/2-x,y,1/2-z
1/2-x,1/2-y,1/2-z
1/2+x,y,1/2-z
1/2-x,1/2+y,1/2+z
1/2+x,-y,1/2+z
loop_
_atom_site_type_symbol
_atom_site_label
_atom_site_fract_x
_atom_site_fract_y
_atom_site_fract_z
Si Si1 0.616760 0.488953 0.298599
Si Si2 0.287933 0.993753 0.811710
Si Si3 0.061431 0.135827 0.339331
Si Si4 0.937611 0.362824 0.916345
Si Si5 0.153552 0.363355 0.050873
Si Si6 0.254024 0.362809 0.934607
Si Si7 0.841255 0.636808 0.557105
O O1 0.661417 0.531583 0.238430
O O2 0.582661 0.420219 0.239367
O O3 0.582224 0.569166 0.344076
O O4 0.644793 0.426133 0.369295
O O5 0.250000 0.939376 0.750000
O O6 0.253257 0.075759 0.854023
O O7 0.307457 0.919871 0.877560
O O8 0.065957 0.250000 0.324341
O O9 0.098053 0.114060 0.418083
O O10 0.000000 0.112280 0.353974
O O11 0.932818 0.250000 0.895263
O O12 0.000000 0.381681 0.936027
O O13 0.897640 0.378774 0.991999
O O14 0.156203 0.250000 0.070529
O O15 0.206866 0.386627 0.998422
O O16 0.249505 0.250000 0.919092
O O17 0.312736 0.385050 0.972434
O O18 0.834108 0.750000 0.567486
#
# Coordination Sequence:
#
# PCOD9539099 Si02
#       7
#    16  16  16  16  16  16  16
#     4  11  21  33  54  81 110 143 177 220 274 323
#     4  11  22  33  52  80 108 138 174 218 269 323
#     4   9  18  33  54  82 112 139 174 222 275 328
#     4  10  22  38  54  75 107 148 189 223 258 312
#     4  10  21  37  57  81 108 141 182 225 271 323
#     4  10  21  38  58  78 106 143 182 223 264 315
#     4   9  19  35  55  78 105 140 177 217 266 316
#
# _framework density 19.385649000000001
#
# number of rings (size 3 to 8) (size 9 to 14) (size 15 to 20)
#    0.000    2.000    0.000    3.429    0.000    4.571 
#    0.000    1.429    0.000    7.714    0.000    2.000 
#    0.000    0.000    0.000    0.000    0.000    0.000 
#
# Total GULP energy -312505.819813 kJ/mol
# GULP energy per Si atom -5580.461068 kJ/mol
# Density = 1.934153 g / cm^3
# Si number density = 19.385649 Si / 1000 Ang^3
#
#
#
# Elastic Constant Matrix: (Units=GPa)
#
#
# Indices 1 2 3 4 5 6 
#
# 1 99.2614 22.2414 31.1616 0.0000 0.0000 0.0000
# 2 22.2414 36.5965 22.4419 0.0000 0.0000 0.0000
# 3 31.1616 22.4419 50.3836 0.0000 0.0000 0.0000
# 4 0.0000 0.0000 0.0000 15.3979 0.0000 0.0000
# 5 0.0000 0.0000 0.0000 0.0000 33.0207 0.0000
# 6 0.0000 0.0000 0.0000 0.0000 0.0000 23.5606
#
#
#
# Elastic Compliance Matrix: (Units=1/GPa)
#
#
# Indices 1 2 3 4 5 6 
#
# 1 0.012927 -0.004063 -0.006185 0.000000 0.000000 0.000000
# 2 -0.004063 0.038871 -0.014801 0.000000 0.000000 0.000000
# 3 -0.006185 -0.014801 0.030266 0.000000 0.000000 0.000000
# 4 0.000000 0.000000 0.000000 0.064944 0.000000 0.000000
# 5 0.000000 0.000000 0.000000 0.000000 0.030284 0.000000
# 6 0.000000 0.000000 0.000000 0.000000 0.000000 0.042444
#
#
# Mechanical properties :
#
#
# Convention : Reuss Voigt Hill
#
# Bulk Modulus (GPa) = 31.28441 37.54790 34.41615
# Shear Modulus (GPa) = 17.82613 21.75563 19.79088
#
# Velocity S-wave (km/s) = 3.03570 3.35364 3.19862
# Velocity P-wave (km/s) = 5.33482 5.86573 5.60656
#
# Compressibility (1/GPa) = 0.03196481
#
# Stress axis : x y z
#
# Youngs Moduli (GPa) = 77.36012 25.72641 33.04078
#
# Poissons Ratio (x) = 0.10453 0.20436
# Poissons Ratio (y) = 0.31433 0.48903
# Poissons Ratio (z) = 0.47848 0.38077
#
# Static dielectric constant tensor:
#      x y z
#    x 1.719750 0.000000 0.000000 
#    y 0.000000 1.670150 0.000000 
#    z 0.000000 0.000000 1.661750 
# 
# From -- ./inp_files/32744.got.cif
#   From: 2010.05.17/outbox.cif.g08.bks.cpg/sg74_17_cif.got.tgz:32744.got - 2010.06.03 17:57:02.
