data_PCOD9539063
_publ_section_title
;
Structure prediction by ZEFSAII (Michael W. Deem and Ramdas Pophale) SiO2 
 PCOD9539063
Probable space group: I M M A
;
_chemical_formula_sum "Si O2"
_cell_formula_units_Z 84
_cell_length_a 14.519534
_cell_length_b 11.230481
_cell_length_c 22.250775
_cell_angle_alpha 90.000000
_cell_angle_beta 90.000000
_cell_angle_gamma 90.000000
_cell_volume 3628.241426
_symmetry_space_group_name_H-M "I M M A"
_symmetry_group_IT_number 74
_symmetry_cell_setting 'orthorhombic'
loop_
_space_group_symop_operation_xyz
x,y,z
-x,1/2-y,z
x,-y,-z
-x,1/2+y,-z
-x,-y,-z
x,1/2+y,-z
-x,y,z
x,1/2-y,z
1/2+x,1/2+y,1/2+z
1/2-x,-y,1/2+z
1/2+x,1/2-y,1/2-z
1/2-x,y,1/2-z
1/2-x,1/2-y,1/2-z
1/2+x,y,1/2-z
1/2-x,1/2+y,1/2+z
1/2+x,-y,1/2+z
loop_
_atom_site_type_symbol
_atom_site_label
_atom_site_fract_x
_atom_site_fract_y
_atom_site_fract_z
Si Si1 0.358877 0.250000 0.762080
Si Si2 0.286113 0.980063 0.108870
Si Si3 0.839305 0.879207 0.965140
Si Si4 0.000000 0.750000 0.907659
Si Si5 0.892693 0.250000 0.595341
Si Si6 0.609923 0.385810 0.214010
Si Si7 0.897193 0.037169 0.823985
O O1 0.250000 0.250000 0.750000
O O2 0.383215 0.250000 0.831792
O O3 0.396278 0.364526 0.728541
O O4 0.341376 0.872658 0.078220
O O5 0.186465 0.934480 0.131903
O O6 0.257594 0.088156 0.065401
O O7 0.339027 0.029593 0.166951
O O8 0.836656 0.750000 0.998394
O O9 0.917865 0.851035 0.915902
O O10 0.864704 0.000000 0.000000
O O11 0.000000 0.250000 0.578577
O O12 0.500000 0.395098 0.204160
O O13 0.638799 0.250000 0.204147
O O14 0.623973 0.419652 0.284015
O O15 0.000000 0.041255 0.848769
#
# Coordination Sequence:
#
# PCOD9539063 Si02
#       7
#     8  16  16   4   8  16  16
#     4  12  18  37  53  83 122 169 209 260 309 366
#     4  12  23  38  62  93 123 167 214 270 321 384
#     4  10  24  44  71 100 131 169 208 263 323 397
#     4   8  22  46  72 100 132 174 198 258 326 402
#     4  12  24  38  63  90 128 175 226 271 322 382
#     4  10  21  37  55  81 118 168 216 261 317 382
#     4  11  22  34  54  83 125 163 209 258 315 376
#
# _framework density 23.151710000000001
#
# number of rings (size 3 to 8) (size 9 to 14) (size 15 to 20)
#    0.571    0.571    3.810    2.857    2.667    2.286 
#    0.000    0.000    0.000    2.286    0.000    0.000 
#    0.000    0.000    0.000    0.000    0.000    0.000 
#
# Total GULP energy -234064.285635 kJ/mol
# GULP energy per Si atom -5572.959182 kJ/mol
# Density = 2.309902 g / cm^3
# Si number density = 23.151710 Si / 1000 Ang^3
#
#
#
# Elastic Constant Matrix: (Units=GPa)
#
#
# Indices 1 2 3 4 5 6 
#
# 1 135.8228 53.3220 12.5192 0.0000 0.0000 0.0000
# 2 53.3220 138.8541 13.7662 0.0000 0.0000 0.0000
# 3 12.5192 13.7662 33.8612 0.0000 0.0000 0.0000
# 4 0.0000 0.0000 0.0000 23.5497 0.0000 0.0000
# 5 0.0000 0.0000 0.0000 0.0000 10.8625 0.0000
# 6 0.0000 0.0000 0.0000 0.0000 0.0000 12.6018
#
#
#
# Elastic Compliance Matrix: (Units=1/GPa)
#
#
# Indices 1 2 3 4 5 6 
#
# 1 0.008792 -0.003182 -0.001957 0.000000 0.000000 0.000000
# 2 -0.003182 0.008656 -0.002343 0.000000 0.000000 0.000000
# 3 -0.001957 -0.002343 0.031208 0.000000 0.000000 0.000000
# 4 0.000000 0.000000 0.000000 0.042463 0.000000 0.000000
# 5 0.000000 0.000000 0.000000 0.000000 0.092060 0.000000
# 6 0.000000 0.000000 0.000000 0.000000 0.000000 0.079354
#
#
# Mechanical properties :
#
#
# Convention : Reuss Voigt Hill
#
# Bulk Modulus (GPa) = 29.67975 51.97254 40.82614
# Shear Modulus (GPa) = 17.31729 24.66481 20.99105
#
# Velocity S-wave (km/s) = 2.73791 3.26752 3.01437
# Velocity P-wave (km/s) = 4.77937 6.06078 5.45781
#
# Compressibility (1/GPa) = 0.03369301
#
# Stress axis : x y z
#
# Youngs Moduli (GPa) = 113.73650 115.52523 32.04282
#
# Poissons Ratio (x) = 0.36764 0.06270
# Poissons Ratio (y) = 0.36195 0.07506
# Poissons Ratio (z) = 0.22257 0.27062
#
# Static dielectric constant tensor:
#      x y z
#    x 1.836680 0.000000 0.000000 
#    y 0.000000 1.977510 0.000000 
#    z 0.000000 0.000000 1.920470 
# 
# From -- ./inp_files/59852.got.cif
#   From: 2010.05.17/outbox.cif.g08.bks.cpg/sg74_30_cif.got.tgz:59852.got - 2010.06.03 17:57:02.
