data_PCOD9539245
_publ_section_title
;
Structure prediction by ZEFSAII (Michael W. Deem and Ramdas Pophale) SiO2 
 PCOD9539245
Probable space group: I M M A
;
_chemical_formula_sum "Si O2"
_cell_formula_units_Z 72
_cell_length_a 29.915206
_cell_length_b 8.490897
_cell_length_c 14.368050
_cell_angle_alpha 90.000000
_cell_angle_beta 90.000000
_cell_angle_gamma 90.000000
_cell_volume 3649.584312
_symmetry_space_group_name_H-M "I M M A"
_symmetry_group_IT_number 74
_symmetry_cell_setting 'orthorhombic'
loop_
_space_group_symop_operation_xyz
x,y,z
-x,1/2-y,z
x,-y,-z
-x,1/2+y,-z
-x,-y,-z
x,1/2+y,-z
-x,y,z
x,1/2-y,z
1/2+x,1/2+y,1/2+z
1/2-x,-y,1/2+z
1/2+x,1/2-y,1/2-z
1/2-x,y,1/2-z
1/2-x,1/2-y,1/2-z
1/2+x,y,1/2-z
1/2-x,1/2+y,1/2+z
1/2+x,-y,1/2+z
loop_
_atom_site_type_symbol
_atom_site_label
_atom_site_fract_x
_atom_site_fract_y
_atom_site_fract_z
Si Si1 0.676788 0.437464 0.606072
Si Si2 0.089420 0.940452 0.789110
Si Si3 0.500000 0.559071 0.605536
Si Si4 0.369367 0.439640 0.104246
Si Si5 0.769928 0.938978 0.606635
O O1 0.674740 0.500000 0.500000
O O2 0.676589 0.250000 0.604879
O O3 0.633451 0.501883 0.657900
O O4 0.724074 0.495416 0.648689
O O5 0.089463 0.750000 0.790812
O O6 0.044538 0.994251 0.840315
O O7 0.095112 0.990743 0.681664
O O8 0.500000 0.750000 0.604362
O O9 0.500000 0.500000 0.500000
O O10 0.369219 0.250000 0.099957
O O11 0.319460 0.487747 0.139015
O O12 0.376658 0.500000 0.000000
O O13 0.767240 0.750000 0.609161
O O14 0.769514 0.000000 0.500000
#
# Coordination Sequence:
#
# PCOD9539245 Si02
#       5
#    16  16   8  16  16
#     4  11  21  33  51  78 110 145 181 224 270 321
#     4  10  21  38  57  80 107 141 181 223 271 325
#     4  10  22  40  63  84 108 138 173 218 271 324
#     4   9  19  35  56  79 109 145 182 221 265 313
#     4   9  16  29  49  74 105 144 181 218 262 313
#
# _framework density 19.728275
#
# number of rings (size 3 to 8) (size 9 to 14) (size 15 to 20)
#    0.000    2.222    0.000    4.667    0.000    5.333 
#    0.000    5.000    0.000    0.000    0.000    0.000 
#    0.000    0.000    0.000    0.000    0.000    0.000 
#
# Total GULP energy -200937.895178 kJ/mol
# GULP energy per Si atom -5581.608199 kJ/mol
# Density = 1.968337 g / cm^3
# Si number density = 19.728275 Si / 1000 Ang^3
#
#
#
# Elastic Constant Matrix: (Units=GPa)
#
#
# Indices 1 2 3 4 5 6 
#
# 1 160.1073 30.5796 97.5829 0.0000 0.0000 0.0000
# 2 30.5796 22.6990 17.2118 0.0000 0.0000 0.0000
# 3 97.5829 17.2118 135.3247 0.0000 0.0000 0.0000
# 4 0.0000 0.0000 0.0000 19.6649 0.0000 0.0000
# 5 0.0000 0.0000 0.0000 0.0000 62.3030 0.0000
# 6 0.0000 0.0000 0.0000 0.0000 0.0000 19.6371
#
#
#
# Elastic Compliance Matrix: (Units=1/GPa)
#
#
# Indices 1 2 3 4 5 6 
#
# 1 0.013578 -0.012028 -0.008262 0.000000 0.000000 0.000000
# 2 -0.012028 0.059412 0.001117 0.000000 0.000000 0.000000
# 3 -0.008262 0.001117 0.013205 0.000000 0.000000 0.000000
# 4 0.000000 0.000000 0.000000 0.050852 0.000000 0.000000
# 5 0.000000 0.000000 0.000000 0.000000 0.016051 0.000000
# 6 0.000000 0.000000 0.000000 0.000000 0.000000 0.050924
#
#
# Mechanical properties :
#
#
# Convention : Reuss Voigt Hill
#
# Bulk Modulus (GPa) = 20.89870 67.65330 44.27600
# Shear Modulus (GPa) = 19.35604 31.83812 25.59708
#
# Velocity S-wave (km/s) = 3.13570 4.02161 3.60597
# Velocity P-wave (km/s) = 4.87098 7.47873 6.31102
#
# Compressibility (1/GPa) = 0.04784986
#
# Stress axis : x y z
#
# Youngs Moduli (GPa) = 73.64629 16.83164 75.72887
#
# Poissons Ratio (x) = 0.20245 0.62564
# Poissons Ratio (y) = 0.88583 -0.08459
# Poissons Ratio (z) = 0.60843 -0.01880
#
# Static dielectric constant tensor:
#      x y z
#    x 1.704520 0.000000 0.000000 
#    y 0.000000 1.683420 0.000000 
#    z 0.000000 0.000000 1.757780 
# 
# From -- ./inp_files/29418.got.cif
#   From: 2010.05.17/outbox.cif.g08.bks.cpg/sg74_15_cif.got.tgz:29418.got - 2010.06.03 17:57:02.
