data_PCOD9539870
_publ_section_title
;
Structure prediction by ZEFSAII (Michael W. Deem and Ramdas Pophale) SiO2 
 PCOD9539870
Probable space group: I M M A
;
_chemical_formula_sum "Si O2"
_cell_formula_units_Z 112
_cell_length_a 14.067711
_cell_length_b 25.318724
_cell_length_c 13.982858
_cell_angle_alpha 90.000000
_cell_angle_beta 90.000000
_cell_angle_gamma 90.000000
_cell_volume 4980.365312
_symmetry_space_group_name_H-M "I M M A"
_symmetry_group_IT_number 74
_symmetry_cell_setting 'orthorhombic'
loop_
_space_group_symop_operation_xyz
x,y,z
-x,1/2-y,z
x,-y,-z
-x,1/2+y,-z
-x,-y,-z
x,1/2+y,-z
-x,y,z
x,1/2-y,z
1/2+x,1/2+y,1/2+z
1/2-x,-y,1/2+z
1/2+x,1/2-y,1/2-z
1/2-x,y,1/2-z
1/2-x,1/2-y,1/2-z
1/2+x,y,1/2-z
1/2-x,1/2+y,1/2+z
1/2+x,-y,1/2+z
loop_
_atom_site_type_symbol
_atom_site_label
_atom_site_fract_x
_atom_site_fract_y
_atom_site_fract_z
Si Si1 0.105809 0.440948 0.962537
Si Si2 0.390704 0.504042 0.894540
Si Si3 0.393198 0.310535 0.847112
Si Si4 0.887929 0.192097 0.151864
Si Si5 0.744967 0.850108 0.988395
Si Si6 0.885374 0.612392 0.682008
Si Si7 0.362224 0.413959 0.749926
O O1 0.102918 0.439689 0.847575
O O2 0.000000 0.423876 0.997835
O O3 0.120805 0.500000 0.000000
O O4 0.190880 0.401722 0.990170
O O5 0.500000 0.519832 0.911211
O O6 0.354639 0.550816 0.825527
O O7 0.391144 0.448479 0.841308
O O8 0.345909 0.500000 0.000000
O O9 0.500000 0.313877 0.890855
O O10 0.378762 0.250000 0.817025
O O11 0.391783 0.353395 0.762561
O O12 0.310797 0.328145 0.920070
O O13 0.875137 0.250000 0.198485
O O14 0.821345 0.188611 0.059753
O O15 0.859406 0.144506 0.222641
O O16 0.000000 0.187110 0.129285
O O17 0.664603 0.862183 0.909717
O O18 0.000000 0.617243 0.677107
O O19 0.250000 0.415805 0.750000
#
# Coordination Sequence:
#
# PCOD9539870 Si02
#       7
#    16  16  16  16  16  16  16
#     4  11  27  47  68  98 139 186 235 288 351 426
#     4  10  22  40  66  97 133 174 220 279 346 414
#     4  11  25  46  72 102 138 180 232 296 361 425
#     4  10  23  43  65  93 134 183 233 284 343 413
#     4  12  23  41  67 100 134 179 231 291 346 416
#     4  10  23  39  63  98 137 179 224 280 347 416
#     4  12  25  44  71 101 137 183 231 289 354 422
#
# _framework density 22.488310999999999
#
# number of rings (size 3 to 8) (size 9 to 14) (size 15 to 20)
#    0.000    1.143    1.429    3.857    4.000    3.143 
#    0.000    1.429    0.000    3.000    0.000    0.000 
#    0.000    0.000    0.000    0.000    0.000    0.000 
#
# Total GULP energy -312984.360929 kJ/mol
# GULP energy per Si atom -5589.006445 kJ/mol
# Density = 2.243713 g / cm^3
# Si number density = 22.488311 Si / 1000 Ang^3
#
#
#
# Elastic Constant Matrix: (Units=GPa)
#
#
# Indices 1 2 3 4 5 6 
#
# 1 111.3088 28.2105 24.2675 0.0000 -0.0002 0.0000
# 2 28.2105 159.8158 60.1597 -0.0001 0.0000 0.0000
# 3 24.2675 60.1597 96.1818 -0.0001 -0.0002 0.0000
# 4 0.0000 -0.0001 -0.0001 31.2118 -0.0001 0.0000
# 5 -0.0002 0.0000 -0.0002 -0.0001 187.0974 0.0000
# 6 0.0000 0.0000 0.0000 0.0000 0.0000 21.8923
#
#
#
# Elastic Compliance Matrix: (Units=1/GPa)
#
#
# Indices 1 2 3 4 5 6 
#
# 1 0.009634 -0.001028 -0.001788 0.000000 0.000000 0.000000
# 2 -0.001028 0.008294 -0.004928 0.000000 0.000000 0.000000
# 3 -0.001788 -0.004928 0.013931 0.000000 0.000000 0.000000
# 4 0.000000 0.000000 0.000000 0.032039 0.000000 0.000000
# 5 0.000000 0.000000 0.000000 0.000000 0.005345 0.000000
# 6 0.000000 0.000000 0.000000 0.000000 0.000000 0.045678
#
#
# Mechanical properties :
#
#
# Convention : Reuss Voigt Hill
#
# Bulk Modulus (GPa) = 61.08433 65.84241 63.46337
# Shear Modulus (GPa) = 36.80102 65.01821 50.90961
#
# Velocity S-wave (km/s) = 4.04970 5.38282 4.76313
# Velocity P-wave (km/s) = 7.00631 8.24470 7.65060
#
# Compressibility (1/GPa) = 0.01637081
#
# Stress axis : x y z
#
# Youngs Moduli (GPa) = 103.79602 120.57262 71.78391
#
# Poissons Ratio (x) = 0.12389 0.12836
# Poissons Ratio (y) = 0.10665 0.35377
# Poissons Ratio (z) = 0.18560 0.59422
#
# Static dielectric constant tensor:
#      x y z
#    x 1.853160 0.000000 0.000000 
#    y 0.000000 1.850090 0.000000 
#    z 0.000000 0.000000 1.825680 
# 
# From -- ./inp_files/32697.got.cif
#   From: 2010.05.17/outbox.cif.g08.bks.cpg/sg74_17_cif.got.tgz:32697.got - 2010.06.03 17:57:02.
