data_PCOD9539727
_publ_section_title
;
Structure prediction by ZEFSAII (Michael W. Deem and Ramdas Pophale) SiO2 
 PCOD9539727
Probable space group: I M M A
;
_chemical_formula_sum "Si O2"
_cell_formula_units_Z 56
_cell_length_a 28.824650
_cell_length_b 16.974216
_cell_length_c 4.916575
_cell_angle_alpha 90.000000
_cell_angle_beta 90.000000
_cell_angle_gamma 90.000000
_cell_volume 2405.561340
_symmetry_space_group_name_H-M "I M M A"
_symmetry_group_IT_number 74
_symmetry_cell_setting 'orthorhombic'
loop_
_space_group_symop_operation_xyz
x,y,z
-x,1/2-y,z
x,-y,-z
-x,1/2+y,-z
-x,-y,-z
x,1/2+y,-z
-x,y,z
x,1/2-y,z
1/2+x,1/2+y,1/2+z
1/2-x,-y,1/2+z
1/2+x,1/2-y,1/2-z
1/2-x,y,1/2-z
1/2-x,1/2-y,1/2-z
1/2+x,y,1/2-z
1/2-x,1/2+y,1/2+z
1/2+x,-y,1/2+z
loop_
_atom_site_type_symbol
_atom_site_label
_atom_site_fract_x
_atom_site_fract_y
_atom_site_fract_z
Si Si1 0.904050 0.420869 0.183325
Si Si2 0.696983 0.916082 0.644479
Si Si3 0.054055 0.339686 0.685163
Si Si4 0.715626 0.750000 0.493184
O O1 0.851522 0.418588 0.305982
O O2 0.935414 0.400980 0.442639
O O3 0.910425 0.500000 0.000000
O O4 0.915680 0.356480 0.952505
O O5 0.750000 0.912052 0.750000
O O6 0.690452 0.833782 0.485451
O O7 0.696425 0.000000 0.500000
O O8 0.062634 0.250000 0.587793
O O9 0.000000 0.346440 0.762405
O O10 0.750000 0.750000 0.750000
O O11 0.750000 0.750000 0.250000
#
# Coordination Sequence:
#
# PCOD9539727 Si02
#       4
#    16  16  16   8
#     4  11  25  43  69 103 135 179 231 281 347 406
#     4  10  23  42  66  97 139 181 224 279 333 403
#     4  11  25  45  70  99 136 180 225 284 354 415
#     4  10  22  38  60  90 119 168 223 262 320 384
#
# _framework density 23.279388000000001
#
# number of rings (size 3 to 8) (size 9 to 14) (size 15 to 20)
#    0.000    1.429    0.000    3.429    4.000   14.857 
#    0.000    0.000    0.000    0.000    0.000    0.000 
#    0.000    0.000    0.000    0.000    0.000    0.000 
#
# Total GULP energy -155961.973249 kJ/mol
# GULP energy per Si atom -5570.070473 kJ/mol
# Density = 2.322640 g / cm^3
# Si number density = 23.279388 Si / 1000 Ang^3
#
#
#
# Elastic Constant Matrix: (Units=GPa)
#
#
# Indices 1 2 3 4 5 6 
#
# 1 141.0120 29.3397 26.3148 0.0000 0.0000 0.0000
# 2 29.3397 153.8369 4.5677 0.0000 0.0000 0.0000
# 3 26.3148 4.5677 91.2878 0.0000 0.0000 0.0000
# 4 0.0000 0.0000 0.0000 31.5189 0.0000 0.0000
# 5 0.0000 0.0000 0.0000 0.0000 30.2126 0.0000
# 6 0.0000 0.0000 0.0000 0.0000 0.0000 86.5002
#
#
#
# Elastic Compliance Matrix: (Units=1/GPa)
#
#
# Indices 1 2 3 4 5 6 
#
# 1 0.007793 -0.001422 -0.002175 0.000000 0.000000 0.000000
# 2 -0.001422 0.006769 0.000071 0.000000 0.000000 0.000000
# 3 -0.002175 0.000071 0.011578 0.000000 0.000000 0.000000
# 4 0.000000 0.000000 0.000000 0.031727 0.000000 0.000000
# 5 0.000000 0.000000 0.000000 0.000000 0.033099 0.000000
# 6 0.000000 0.000000 0.000000 0.000000 0.000000 0.011561
#
#
# Mechanical properties :
#
#
# Convention : Reuss Voigt Hill
#
# Bulk Modulus (GPa) = 52.38717 56.28677 54.33697
# Shear Modulus (GPa) = 43.12499 51.37399 47.24949
#
# Velocity S-wave (km/s) = 4.30873 4.70280 4.51007
# Velocity P-wave (km/s) = 6.87794 7.32938 7.10725
#
# Compressibility (1/GPa) = 0.01908864
#
# Stress axis : x y z
#
# Youngs Moduli (GPa) = 128.31420 147.72283 86.37157
#
# Poissons Ratio (x) = 0.21003 0.18789
# Poissons Ratio (y) = 0.18243 -0.00614
# Poissons Ratio (z) = 0.27913 -0.01051
#
# Static dielectric constant tensor:
#      x y z
#    x 1.892920 0.000000 0.000000 
#    y 0.000000 1.914380 0.000000 
#    z 0.000000 0.000000 1.854150 
# 
# From -- ./inp_files/2155.got.cif
#   From: 2010.05.17/outbox.cif.g08.bks.cpg/sg74_2_cif.got.tgz:2155.got - 2010.06.03 17:57:02.
