data_PCOD9539294
_publ_section_title
;
Structure prediction by ZEFSAII (Michael W. Deem and Ramdas Pophale) SiO2 
 PCOD9539294
Probable space group: I M M A
;
_chemical_formula_sum "Si O2"
_cell_formula_units_Z 80
_cell_length_a 9.160916
_cell_length_b 14.010887
_cell_length_c 29.926935
_cell_angle_alpha 90.000000
_cell_angle_beta 90.000000
_cell_angle_gamma 90.000000
_cell_volume 3841.198687
_symmetry_space_group_name_H-M "I M M A"
_symmetry_group_IT_number 74
_symmetry_cell_setting 'orthorhombic'
loop_
_space_group_symop_operation_xyz
x,y,z
-x,1/2-y,z
x,-y,-z
-x,1/2+y,-z
-x,-y,-z
x,1/2+y,-z
-x,y,z
x,1/2-y,z
1/2+x,1/2+y,1/2+z
1/2-x,-y,1/2+z
1/2+x,1/2-y,1/2-z
1/2-x,y,1/2-z
1/2-x,1/2-y,1/2-z
1/2+x,y,1/2-z
1/2-x,1/2+y,1/2+z
1/2+x,-y,1/2+z
loop_
_atom_site_type_symbol
_atom_site_label
_atom_site_fract_x
_atom_site_fract_y
_atom_site_fract_z
Si Si1 0.831650 0.633290 0.524936
Si Si2 0.828959 0.136149 0.656980
Si Si3 0.333152 0.633881 0.435222
Si Si4 0.174410 0.024769 0.205256
Si Si5 0.672728 0.863090 0.614976
O O1 0.827652 0.750000 0.524997
O O2 0.744492 0.602876 0.480800
O O3 0.758165 0.602392 0.571243
O O4 0.000000 0.604681 0.522704
O O5 0.816427 0.250000 0.662636
O O6 0.758140 0.110938 0.609043
O O7 0.740324 0.078874 0.694133
O O8 0.000000 0.110830 0.657895
O O9 0.500000 0.599564 0.431887
O O10 0.338324 0.750000 0.436815
O O11 0.250000 0.062252 0.250000
O O12 0.000000 0.021868 0.210205
O O13 0.211316 0.086534 0.161332
O O14 0.500000 0.876492 0.607302
O O15 0.699286 0.750000 0.619560
#
# Coordination Sequence:
#
# PCOD9539294 Si02
#       5
#    16  16  16  16  16
#     4   9  16  27  48  80 115 150 187 226 270 322
#     4  10  21  38  60  85 114 148 186 230 279 331
#     4   9  16  28  50  80 114 151 187 224 270 326
#     4  11  24  41  61  84 111 144 184 233 285 336
#     4   9  19  37  59  83 113 149 187 227 275 331
#
# _framework density 20.826830000000001
#
# number of rings (size 3 to 8) (size 9 to 14) (size 15 to 20)
#    0.000    2.400    0.000    2.400    0.000    8.400 
#    0.000    1.000    0.000    6.000    0.000    0.000 
#    0.000    0.000    0.000    0.000    0.000    0.000 
#
# Total GULP energy -223687.250201 kJ/mol
# GULP energy per Si atom -5592.181255 kJ/mol
# Density = 2.077943 g / cm^3
# Si number density = 20.826830 Si / 1000 Ang^3
#
#
#
# Elastic Constant Matrix: (Units=GPa)
#
#
# Indices 1 2 3 4 5 6 
#
# 1 85.2361 16.8660 51.9722 0.0000 0.0000 0.0000
# 2 16.8660 58.7837 29.0215 0.0000 0.0000 0.0000
# 3 51.9722 29.0215 121.7148 0.0000 0.0000 0.0000
# 4 0.0000 0.0000 0.0000 29.4920 0.0000 0.0000
# 5 0.0000 0.0000 0.0000 0.0000 42.9774 0.0000
# 6 0.0000 0.0000 0.0000 0.0000 0.0000 9.7801
#
#
#
# Elastic Compliance Matrix: (Units=1/GPa)
#
#
# Indices 1 2 3 4 5 6 
#
# 1 0.015960 -0.001377 -0.006486 0.000000 0.000000 0.000000
# 2 -0.001377 0.019400 -0.004038 0.000000 0.000000 0.000000
# 3 -0.006486 -0.004038 0.011948 0.000000 0.000000 0.000000
# 4 0.000000 0.000000 0.000000 0.033907 0.000000 0.000000
# 5 0.000000 0.000000 0.000000 0.000000 0.023268 0.000000
# 6 0.000000 0.000000 0.000000 0.000000 0.000000 0.102249
#
#
# Mechanical properties :
#
#
# Convention : Reuss Voigt Hill
#
# Bulk Modulus (GPa) = 42.54238 51.27266 46.90752
# Shear Modulus (GPa) = 20.97581 27.64155 24.30868
#
# Velocity S-wave (km/s) = 3.17701 3.64704 3.42011
# Velocity P-wave (km/s) = 5.82485 6.51203 6.17800
#
# Compressibility (1/GPa) = 0.02350597
#
# Stress axis : x y z
#
# Youngs Moduli (GPa) = 62.65812 51.54635 83.69295
#
# Poissons Ratio (x) = 0.07096 0.54287
# Poissons Ratio (y) = 0.08626 0.33794
# Poissons Ratio (z) = 0.40643 0.20814
#
# Static dielectric constant tensor:
#      x y z
#    x 1.695990 0.000000 0.000000 
#    y 0.000000 1.809230 0.000000 
#    z 0.000000 0.000000 1.702060 
# 
# From -- ./inp_files/63966.got.cif
#   From: 2010.05.17/outbox.cif.g08.bks.cpg/sg74_32_cif.got.tgz:63966.got - 2010.06.03 17:57:02.
