data_PCOD9539237
_publ_section_title
;
Structure prediction by ZEFSAII (Michael W. Deem and Ramdas Pophale) SiO2 
 PCOD9539237
Probable space group: I M M A
;
_chemical_formula_sum "Si O2"
_cell_formula_units_Z 104
_cell_length_a 8.163364
_cell_length_b 24.062362
_cell_length_c 27.517711
_cell_angle_alpha 90.000000
_cell_angle_beta 90.000000
_cell_angle_gamma 90.000000
_cell_volume 5405.299010
_symmetry_space_group_name_H-M "I M M A"
_symmetry_group_IT_number 74
_symmetry_cell_setting 'orthorhombic'
loop_
_space_group_symop_operation_xyz
x,y,z
-x,1/2-y,z
x,-y,-z
-x,1/2+y,-z
-x,-y,-z
x,1/2+y,-z
-x,y,z
x,1/2-y,z
1/2+x,1/2+y,1/2+z
1/2-x,-y,1/2+z
1/2+x,1/2-y,1/2-z
1/2-x,y,1/2-z
1/2-x,1/2-y,1/2-z
1/2+x,y,1/2-z
1/2-x,1/2+y,1/2+z
1/2+x,-y,1/2+z
loop_
_atom_site_type_symbol
_atom_site_label
_atom_site_fract_x
_atom_site_fract_y
_atom_site_fract_z
Si Si1 0.688548 0.962971 0.458189
Si Si2 0.696685 0.250000 0.305327
Si Si3 0.195259 0.250000 0.571964
Si Si4 0.689313 0.034367 0.126769
Si Si5 0.802944 0.250000 0.459896
Si Si6 0.696335 0.553753 0.304350
Si Si7 0.303333 0.340429 0.382527
Si Si8 0.802237 0.131722 0.893395
O O1 0.500000 0.951919 0.473204
O O2 0.760548 0.904991 0.439319
O O3 0.769230 0.000000 0.500000
O O4 0.695562 0.001748 0.410907
O O5 0.500000 0.250000 0.306807
O O6 0.750000 0.250000 0.250000
O O7 0.750954 0.196575 0.336332
O O8 0.255830 0.250000 0.515778
O O9 0.251163 0.305316 0.599573
O O10 0.000000 0.250000 0.569829
O O11 0.500000 0.023351 0.114645
O O12 0.724904 0.099204 0.121686
O O13 0.728791 0.005039 0.177982
O O14 0.743003 0.195873 0.429919
O O15 0.000000 0.250000 0.459366
O O16 0.500000 0.549935 0.306253
O O17 0.750000 0.567429 0.250000
O O18 0.750324 0.600322 0.343980
O O19 0.500000 0.346286 0.381825
O O20 0.000000 0.128637 0.894292
#
# Coordination Sequence:
#
# PCOD9539237 Si02
#       8
#    16   8   8  16   8  16  16  16
#     4   9  19  36  57  83 113 150 192 235 283 340
#     4   9  20  36  55  76 100 137 184 233 287 332
#     4  11  24  38  57  85 120 152 191 243 290 343
#     4  11  22  35  55  85 117 150 187 235 286 339
#     4  10  22  38  54  81 114 151 195 246 300 347
#     4  10  21  40  64  89 116 150 190 238 292 353
#     4  10  21  38  56  78 110 151 197 240 283 347
#     4   9  20  38  59  85 116 151 193 236 285 348
#
# _framework density 19.240379999999998
#
# number of rings (size 3 to 8) (size 9 to 14) (size 15 to 20)
#    0.000    2.154    0.000    4.154    2.154    7.077 
#    0.000    1.923    0.000    0.000    0.000    0.000 
#    0.000    0.000    0.000    0.000    0.000    0.000 
#
# Total GULP energy -290089.485544 kJ/mol
# GULP energy per Si atom -5578.643953 kJ/mol
# Density = 1.919659 g / cm^3
# Si number density = 19.240380 Si / 1000 Ang^3
#
#
#
# Elastic Constant Matrix: (Units=GPa)
#
#
# Indices 1 2 3 4 5 6 
#
# 1 41.4152 7.4362 4.4941 0.0000 0.0000 0.0000
# 2 7.4362 150.4825 42.4075 0.0000 0.0000 0.0000
# 3 4.4941 42.4075 94.8407 0.0000 0.0000 0.0000
# 4 0.0000 0.0000 0.0000 12.7151 0.0000 0.0000
# 5 0.0000 0.0000 0.0000 0.0000 25.9035 0.0000
# 6 0.0000 0.0000 0.0000 0.0000 0.0000 -29.8097
#
#
#
# Elastic Compliance Matrix: (Units=1/GPa)
#
#
# Indices 1 2 3 4 5 6 
#
# 1 0.024403 -0.001007 -0.000706 0.000000 0.000000 0.000000
# 2 -0.001007 0.007645 -0.003371 0.000000 0.000000 0.000000
# 3 -0.000706 -0.003371 0.012085 0.000000 0.000000 0.000000
# 4 0.000000 0.000000 0.000000 0.078647 0.000000 0.000000
# 5 0.000000 0.000000 0.000000 0.000000 0.038605 0.000000
# 6 0.000000 0.000000 0.000000 0.000000 0.000000 -0.033546
#
#
# Mechanical properties :
#
#
# Convention : Reuss Voigt Hill
#
# Bulk Modulus (GPa) = 29.44183 43.93490 36.68836
# Shear Modulus (GPa) = 33.48343 17.25514 25.36928
#
# Velocity S-wave (km/s) = 4.17618 2.99794 3.63512
# Velocity P-wave (km/s) = 6.21203 5.90490 6.06041
#
# Compressibility (1/GPa) = 0.03396528
#
# Stress axis : x y z
#
# Youngs Moduli (GPa) = 40.97834 130.80548 82.74964
#
# Poissons Ratio (x) = 0.13171 0.05843
# Poissons Ratio (y) = 0.04126 0.27892
# Poissons Ratio (z) = 0.02894 0.44090
#
# Static dielectric constant tensor:
#      x y z
#    x 1.686040 0.000000 0.000000 
#    y 0.000000 1.655800 0.000000 
#    z 0.000000 0.000000 1.688890 
# 
# From -- ./inp_files/64551.got.cif
#   From: 2010.05.17/outbox.cif.g08.bks.cpg/sg74_33_cif.got.tgz:64551.got - 2010.06.03 17:57:02.
