data_PCOD9539069
_publ_section_title
;
Structure prediction by ZEFSAII (Michael W. Deem and Ramdas Pophale) SiO2 
 PCOD9539069
Probable space group: I M M A
;
_chemical_formula_sum "Si O2"
_cell_formula_units_Z 80
_cell_length_a 8.200775
_cell_length_b 17.232907
_cell_length_c 29.710824
_cell_angle_alpha 90.000000
_cell_angle_beta 90.000000
_cell_angle_gamma 90.000000
_cell_volume 4198.828511
_symmetry_space_group_name_H-M "I M M A"
_symmetry_group_IT_number 74
_symmetry_cell_setting 'orthorhombic'
loop_
_space_group_symop_operation_xyz
x,y,z
-x,1/2-y,z
x,-y,-z
-x,1/2+y,-z
-x,-y,-z
x,1/2+y,-z
-x,y,z
x,1/2-y,z
1/2+x,1/2+y,1/2+z
1/2-x,-y,1/2+z
1/2+x,1/2-y,1/2-z
1/2-x,y,1/2-z
1/2-x,1/2-y,1/2-z
1/2+x,y,1/2-z
1/2-x,1/2+y,1/2+z
1/2+x,-y,1/2+z
loop_
_atom_site_type_symbol
_atom_site_label
_atom_site_fract_x
_atom_site_fract_y
_atom_site_fract_z
Si Si1 0.805515 0.075883 0.298063
Si Si2 0.695469 0.750000 0.685332
Si Si3 0.303659 0.339578 0.936522
Si Si4 0.696412 0.986286 0.111818
Si Si5 0.802050 0.750000 0.916134
Si Si6 0.804263 0.402172 0.032383
O O1 0.750000 0.041641 0.250000
O O2 0.753316 0.166382 0.297660
O O3 0.742741 0.031476 0.343262
O O4 0.000000 0.073635 0.299664
O O5 0.500000 0.750000 0.688432
O O6 0.755559 0.750000 0.634204
O O7 0.500000 0.335265 0.935117
O O8 0.241889 0.250000 0.936542
O O9 0.249889 0.396875 0.895970
O O10 0.256848 0.385248 0.982210
O O11 0.500000 0.986655 0.114431
O O12 0.744328 0.030939 0.065863
O O13 0.748846 0.674525 0.941666
O O14 0.000000 0.750000 0.915403
O O15 0.000000 0.407922 0.030228
#
# Coordination Sequence:
#
# PCOD9539069 Si02
#       6
#    16   8  16  16   8  16
#     4  11  23  38  56  79 106 139 177 221 267 317
#     4  11  20  36  57  79 110 146 180 215 255 309
#     4  10  21  37  56  78 106 142 180 220 265 314
#     4  10  22  38  55  78 107 139 180 222 263 317
#     4   9  18  30  48  75 111 146 175 209 250 297
#     4  11  20  34  54  80 112 146 180 216 259 308
#
# _framework density 19.052934
#
# number of rings (size 3 to 8) (size 9 to 14) (size 15 to 20)
#    0.000    1.600    3.000    2.400    0.000    4.000 
#    0.000    0.000    0.000    0.600    0.000    0.000 
#    0.000    0.000    0.000    0.000    0.000    0.200 
#
# Total GULP energy -222931.644593 kJ/mol
# GULP energy per Si atom -5573.291115 kJ/mol
# Density = 1.900957 g / cm^3
# Si number density = 19.052934 Si / 1000 Ang^3
#
#
#
# Elastic Constant Matrix: (Units=GPa)
#
#
# Indices 1 2 3 4 5 6 
#
# 1 26.6550 13.2805 15.3136 0.0000 0.0000 0.0000
# 2 13.2805 133.6183 101.2836 0.0000 0.0000 0.0000
# 3 15.3136 101.2836 125.9786 0.0000 0.0000 0.0000
# 4 0.0000 0.0000 0.0000 -385.3882 0.0000 0.0000
# 5 0.0000 0.0000 0.0000 0.0000 20.8503 0.0000
# 6 0.0000 0.0000 0.0000 0.0000 0.0000 -4.6981
#
#
#
# Elastic Compliance Matrix: (Units=1/GPa)
#
#
# Indices 1 2 3 4 5 6 
#
# 1 0.040362 -0.000749 -0.004304 0.000000 0.000000 0.000000
# 2 -0.000749 0.019175 -0.015325 0.000000 0.000000 0.000000
# 3 -0.004304 -0.015325 0.020782 0.000000 0.000000 0.000000
# 4 0.000000 0.000000 0.000000 -0.002595 0.000000 0.000000
# 5 0.000000 0.000000 0.000000 0.000000 0.047961 0.000000
# 6 0.000000 0.000000 0.000000 0.000000 0.000000 -0.212854
#
#
# Mechanical properties :
#
#
# Convention : Reuss Voigt Hill
#
# Bulk Modulus (GPa) = 25.27627 60.66747 42.97187
# Shear Modulus (GPa) = -150.49476 -63.42224 -106.95850
#
# Velocity S-wave (km/s) = -8.89714 -5.77578 -7.50063
# Velocity P-wave (km/s) = 9.60471 3.54526 7.23945
#
# Compressibility (1/GPa) = 0.03956281
#
# Stress axis : x y z
#
# Youngs Moduli (GPa) = 24.77552 52.15105 48.11834
#
# Poissons Ratio (x) = 0.03907 0.20710
# Poissons Ratio (y) = 0.01856 0.73742
# Poissons Ratio (z) = 0.10663 0.79922
#
# Static dielectric constant tensor:
#      x y z
#    x 1.660990 0.000000 0.000000 
#    y 0.000000 1.698300 0.000000 
#    z 0.000000 0.000000 1.682820 
# 
# From -- ./inp_files/64009.got.cif
#   From: 2010.05.17/outbox.cif.g08.bks.cpg/sg74_33_cif.got.tgz:64009.got - 2010.06.03 17:57:02.
