data_PCOD9539947
_publ_section_title
;
Structure prediction by ZEFSAII (Michael W. Deem and Ramdas Pophale) SiO2 
 PCOD9539947
Probable space group: I M M A
;
_chemical_formula_sum "Si O2"
_cell_formula_units_Z 112
_cell_length_a 15.773798
_cell_length_b 22.030765
_cell_length_c 15.184960
_cell_angle_alpha 90.000000
_cell_angle_beta 90.000000
_cell_angle_gamma 90.000000
_cell_volume 5276.907788
_symmetry_space_group_name_H-M "I M M A"
_symmetry_group_IT_number 74
_symmetry_cell_setting 'orthorhombic'
loop_
_space_group_symop_operation_xyz
x,y,z
-x,1/2-y,z
x,-y,-z
-x,1/2+y,-z
-x,-y,-z
x,1/2+y,-z
-x,y,z
x,1/2-y,z
1/2+x,1/2+y,1/2+z
1/2-x,-y,1/2+z
1/2+x,1/2-y,1/2-z
1/2-x,y,1/2-z
1/2-x,1/2-y,1/2-z
1/2+x,y,1/2-z
1/2-x,1/2+y,1/2+z
1/2+x,-y,1/2+z
loop_
_atom_site_type_symbol
_atom_site_label
_atom_site_fract_x
_atom_site_fract_y
_atom_site_fract_z
Si Si1 0.406494 0.091661 0.604861
Si Si2 0.401501 0.821267 0.752827
Si Si3 0.192037 0.120976 0.412478
Si Si4 0.748170 0.007638 0.855996
Si Si5 0.851923 0.679364 0.260673
Si Si6 0.402386 0.904426 0.084566
Si Si7 0.140884 0.820114 0.949386
O O1 0.500000 0.063587 0.608354
O O2 0.330652 0.043643 0.611154
O O3 0.394054 0.137108 0.687173
O O4 0.397502 0.133647 0.519040
O O5 0.500000 0.830823 0.773836
O O6 0.381415 0.750000 0.764799
O O7 0.344179 0.858895 0.818865
O O8 0.387081 0.834598 0.650190
O O9 0.118907 0.110478 0.483684
O O10 0.257915 0.169976 0.450064
O O11 0.242228 0.058437 0.398344
O O12 0.750000 0.004232 0.750000
O O13 0.664048 0.044437 0.884279
O O14 0.872981 0.750000 0.249672
O O15 0.750000 0.672639 0.250000
O O16 0.881209 0.653433 0.354354
O O17 0.500000 0.922324 0.096039
O O18 0.118967 0.750000 0.968548
#
# Coordination Sequence:
#
# PCOD9539947 Si02
#       7
#    16  16  16  16  16  16  16
#     4  12  24  43  69 100 136 180 229 282 346 407
#     4  10  22  42  67 101 138 172 226 290 346 412
#     4  12  25  44  68  95 136 182 231 274 344 409
#     4  12  25  47  68  97 137 181 230 285 335 403
#     4  11  22  42  71 103 142 184 226 279 347 418
#     4  12  25  43  68  99 138 180 227 282 337 403
#     4  11  23  42  69 100 133 175 225 285 350 412
#
# _framework density 21.224551000000002
#
# number of rings (size 3 to 8) (size 9 to 14) (size 15 to 20)
#    0.000    0.571    4.286    3.857    0.000    7.714 
#    0.000    3.571    0.000    0.000    0.000    0.000 
#    0.000    0.000    0.000    0.000    0.000    0.000 
#
# Total GULP energy -313611.307698 kJ/mol
# GULP energy per Si atom -5600.201923 kJ/mol
# Density = 2.117624 g / cm^3
# Si number density = 21.224551 Si / 1000 Ang^3
#
#
#
# Elastic Constant Matrix: (Units=GPa)
#
#
# Indices 1 2 3 4 5 6 
#
# 1 134.9201 51.5975 42.8447 0.0000 0.0000 0.0000
# 2 51.5975 79.5706 36.4083 0.0000 0.0000 0.0000
# 3 42.8447 36.4083 99.6021 -0.0001 0.0000 0.0000
# 4 0.0000 0.0000 -0.0001 22.3899 0.0000 0.0000
# 5 0.0000 0.0000 0.0000 0.0000 23.0969 0.0000
# 6 0.0000 0.0000 0.0000 0.0000 0.0000 -1.0619
#
#
#
# Elastic Compliance Matrix: (Units=1/GPa)
#
#
# Indices 1 2 3 4 5 6 
#
# 1 0.010309 -0.005591 -0.002391 0.000000 0.000000 0.000000
# 2 -0.005591 0.018124 -0.004220 0.000000 0.000000 0.000000
# 3 -0.002391 -0.004220 0.012611 0.000000 0.000000 0.000000
# 4 0.000000 0.000000 0.000000 0.044663 0.000000 0.000000
# 5 0.000000 0.000000 0.000000 0.000000 0.043296 0.000000
# 6 0.000000 0.000000 0.000000 0.000000 0.000000 -0.941687
#
#
# Mechanical properties :
#
#
# Convention : Reuss Voigt Hill
#
# Bulk Modulus (GPa) = 60.09485 63.97708 62.03597
# Shear Modulus (GPa) = -6.38787 21.10113 7.35663
#
# Velocity S-wave (km/s) = -1.73672 3.15649 1.86376
# Velocity P-wave (km/s) = 4.93495 6.59492 5.82438
#
# Compressibility (1/GPa) = 0.01664036
#
# Stress axis : x y z
#
# Youngs Moduli (GPa) = 97.00075 55.17601 79.29633
#
# Poissons Ratio (x) = 0.30849 0.18959
# Poissons Ratio (y) = 0.54233 0.33462
# Poissons Ratio (z) = 0.23191 0.23284
#
# Static dielectric constant tensor:
#      x y z
#    x 1.767370 0.000000 0.000000 
#    y 0.000000 1.742490 0.000000 
#    z 0.000000 0.000000 1.752490 
# 
# From -- ./inp_files/32771.got.cif
#   From: 2010.05.17/outbox.cif.g08.bks.cpg/sg74_17_cif.got.tgz:32771.got - 2010.06.03 17:57:02.
