data_PCOD9539395
_publ_section_title
;
Structure prediction by ZEFSAII (Michael W. Deem and Ramdas Pophale) SiO2 
 PCOD9539395
Probable space group: I M M A
;
_chemical_formula_sum "Si O2"
_cell_formula_units_Z 112
_cell_length_a 22.598872
_cell_length_b 14.972749
_cell_length_c 14.573643
_cell_angle_alpha 90.000000
_cell_angle_beta 90.000000
_cell_angle_gamma 90.000000
_cell_volume 4931.243332
_symmetry_space_group_name_H-M "I M M A"
_symmetry_group_IT_number 74
_symmetry_cell_setting 'orthorhombic'
loop_
_space_group_symop_operation_xyz
x,y,z
-x,1/2-y,z
x,-y,-z
-x,1/2+y,-z
-x,-y,-z
x,1/2+y,-z
-x,y,z
x,1/2-y,z
1/2+x,1/2+y,1/2+z
1/2-x,-y,1/2+z
1/2+x,1/2-y,1/2-z
1/2-x,y,1/2-z
1/2-x,1/2-y,1/2-z
1/2+x,y,1/2-z
1/2-x,1/2+y,1/2+z
1/2+x,-y,1/2+z
loop_
_atom_site_type_symbol
_atom_site_label
_atom_site_fract_x
_atom_site_fract_y
_atom_site_fract_z
Si Si1 0.933534 0.643452 0.012904
Si Si2 0.671386 0.850201 0.155851
Si Si3 0.636628 0.353469 0.050325
Si Si4 0.064194 0.892459 0.709568
Si Si5 0.242817 0.982470 0.605039
Si Si6 0.933100 0.593981 0.217937
Si Si7 0.340728 0.650486 0.647874
O O1 0.932719 0.750000 0.033296
O O2 0.923807 0.593138 0.108484
O O3 0.000000 0.621346 0.978680
O O4 0.883788 0.628200 0.937433
O O5 0.696792 0.750000 0.155678
O O6 0.622400 0.858465 0.234755
O O7 0.721290 0.926471 0.152227
O O8 0.637089 0.864397 0.058994
O O9 0.650902 0.250000 0.068162
O O10 0.576907 0.378658 0.102585
O O11 0.686128 0.418765 0.091256
O O12 0.116959 0.847432 0.764715
O O13 0.000000 0.856727 0.735290
O O14 0.066415 0.995489 0.739103
O O15 0.292404 0.926208 0.656554
O O16 0.263724 0.000000 0.500000
O O17 0.000000 0.632138 0.232236
O O18 0.314848 0.750000 0.633082
#
# Coordination Sequence:
#
# PCOD9539395 Si02
#       7
#    16  16  16  16  16  16  16
#     4   9  19  37  62  93 128 165 210 265 320 378
#     4  10  21  41  68  96 129 168 211 265 326 380
#     4  10  21  40  65  92 128 170 212 259 315 377
#     4  11  24  40  63  96 134 171 210 261 319 382
#     4  10  22  41  65  92 126 165 213 266 314 371
#     4  10  21  38  64  97 132 171 215 262 319 386
#     4  11  24  41  65  94 128 172 216 260 317 379
#
# _framework density 22.712323999999999
#
# number of rings (size 3 to 8) (size 9 to 14) (size 15 to 20)
#    0.000    1.857    1.429    1.714    2.000    4.286 
#    0.000    6.429    0.000    0.857    0.000    0.000 
#    0.000    1.714    0.000    0.000    0.000    0.000 
#
# Total GULP energy -313286.856815 kJ/mol
# GULP energy per Si atom -5594.408157 kJ/mol
# Density = 2.266063 g / cm^3
# Si number density = 22.712324 Si / 1000 Ang^3
#
#
#
# Elastic Constant Matrix: (Units=GPa)
#
#
# Indices 1 2 3 4 5 6 
#
# 1 71.4168 35.0776 28.8986 0.0000 0.0000 0.0000
# 2 35.0776 116.1044 18.4889 0.0000 0.0000 0.0000
# 3 28.8986 18.4889 79.7257 0.0000 0.0000 0.0000
# 4 0.0000 0.0000 0.0000 25.7996 0.0000 0.0000
# 5 0.0000 0.0000 0.0000 0.0000 33.6087 0.0000
# 6 0.0000 0.0000 0.0000 0.0000 0.0000 -11.5829
#
#
#
# Elastic Compliance Matrix: (Units=1/GPa)
#
#
# Indices 1 2 3 4 5 6 
#
# 1 0.018608 -0.004722 -0.005650 0.000000 0.000000 0.000000
# 2 -0.004722 0.010142 -0.000640 0.000000 0.000000 0.000000
# 3 -0.005650 -0.000640 0.014739 0.000000 0.000000 0.000000
# 4 0.000000 0.000000 0.000000 0.038760 0.000000 0.000000
# 5 0.000000 0.000000 0.000000 0.000000 0.029754 0.000000
# 6 0.000000 0.000000 0.000000 0.000000 0.000000 -0.086335
#
#
# Mechanical properties :
#
#
# Convention : Reuss Voigt Hill
#
# Bulk Modulus (GPa) = 46.58863 48.01968 47.30416
# Shear Modulus (GPa) = 91.16120 21.88387 56.52254
#
# Velocity S-wave (km/s) = 6.34228 3.10744 4.99403
# Velocity P-wave (km/s) = 8.61334 5.83638 7.35707
#
# Compressibility (1/GPa) = 0.02146447
#
# Stress axis : x y z
#
# Youngs Moduli (GPa) = 53.74076 98.60425 67.84537
#
# Poissons Ratio (x) = 0.46562 0.38331
# Poissons Ratio (y) = 0.25377 0.04344
# Poissons Ratio (z) = 0.30362 0.06313
#
# Static dielectric constant tensor:
#      x y z
#    x 1.816260 0.000000 0.000000 
#    y 0.000000 1.871540 0.000000 
#    z 0.000000 0.000000 1.841960 
# 
# From -- ./inp_files/36548.got.cif
#   From: 2010.05.17/outbox.cif.g08.bks.cpg/sg74_19_cif.got.tgz:36548.got - 2010.06.03 17:57:02.
