data_PCOD9539620
_publ_section_title
;
Structure prediction by ZEFSAII (Michael W. Deem and Ramdas Pophale) SiO2 
 PCOD9539620
Probable space group: I M M A
;
_chemical_formula_sum "Si O2"
_cell_formula_units_Z 60
_cell_length_a 11.934195
_cell_length_b 9.895218
_cell_length_c 28.248592
_cell_angle_alpha 90.000000
_cell_angle_beta 90.000000
_cell_angle_gamma 90.000000
_cell_volume 3335.917506
_symmetry_space_group_name_H-M "I M M A"
_symmetry_group_IT_number 74
_symmetry_cell_setting 'orthorhombic'
loop_
_space_group_symop_operation_xyz
x,y,z
-x,1/2-y,z
x,-y,-z
-x,1/2+y,-z
-x,-y,-z
x,1/2+y,-z
-x,y,z
x,1/2-y,z
1/2+x,1/2+y,1/2+z
1/2-x,-y,1/2+z
1/2+x,1/2-y,1/2-z
1/2-x,y,1/2-z
1/2-x,1/2-y,1/2-z
1/2+x,y,1/2-z
1/2-x,1/2+y,1/2+z
1/2+x,-y,1/2+z
loop_
_atom_site_type_symbol
_atom_site_label
_atom_site_fract_x
_atom_site_fract_y
_atom_site_fract_z
Si Si1 0.288077 0.093381 0.695622
Si Si2 0.000000 0.250000 0.084378
Si Si3 0.500000 0.405202 0.323456
Si Si4 0.627387 0.250000 0.960773
Si Si5 0.748922 0.250000 0.059690
Si Si6 0.867635 0.499217 0.610982
O O1 0.318661 0.250000 0.684809
O O2 0.250000 0.088235 0.750000
O O3 0.189876 0.048019 0.659757
O O4 0.391284 0.991114 0.689594
O O5 0.000000 0.377431 0.120244
O O6 0.116940 0.250000 0.057921
O O7 0.500000 0.250000 0.303605
O O8 0.500000 0.250000 0.979255
O O9 0.641367 0.378933 0.927158
O O10 0.704430 0.250000 0.006390
O O11 0.700403 0.377073 0.088608
O O12 0.000000 0.530046 0.617330
#
# Coordination Sequence:
#
# PCOD9539620 Si02
#       6
#    16   4   8   8   8  16
#     4  11  24  41  65  94 127 169 213 255 312 380
#     4  10  22  40  62  84 130 162 202 258 312 362
#     4  10  21  45  63  90 130 169 206 267 313 364
#     4  10  22  40  65  89 124 161 204 262 327 379
#     4  12  22  42  62  91 123 163 210 261 319 377
#     4  11  22  40  63  93 125 159 207 264 316 376
#
# _framework density 17.986056999999999
#
# number of rings (size 3 to 8) (size 9 to 14) (size 15 to 20)
#    0.400    0.800    4.000    2.400    1.867    2.667 
#    0.000    4.000    0.000    0.000    0.000    0.000 
#    0.000    0.000    0.000    0.000    0.000    0.000 
#
# Total GULP energy -167454.507776 kJ/mol
# GULP energy per Si atom -5581.816926 kJ/mol
# Density = 1.794512 g / cm^3
# Si number density = 17.986057 Si / 1000 Ang^3
#
#
#
# Elastic Constant Matrix: (Units=GPa)
#
#
# Indices 1 2 3 4 5 6 
#
# 1 170.1196 83.2746 75.3859 0.0000 0.0000 0.0000
# 2 83.2746 112.4945 29.5908 0.0000 0.0000 0.0000
# 3 75.3859 29.5908 110.6152 0.0000 0.0000 0.0000
# 4 0.0000 0.0000 0.0000 135.0466 0.0000 0.0000
# 5 0.0000 0.0000 0.0000 0.0000 -0.5507 0.0000
# 6 0.0000 0.0000 0.0000 0.0000 0.0000 46.3047
#
#
#
# Elastic Compliance Matrix: (Units=1/GPa)
#
#
# Indices 1 2 3 4 5 6 
#
# 1 0.012398 -0.007481 -0.006448 0.000000 0.000000 0.000000
# 2 -0.007481 0.014077 0.001333 0.000000 0.000000 0.000000
# 3 -0.006448 0.001333 0.013078 0.000000 0.000000 0.000000
# 4 0.000000 0.000000 0.000000 0.007405 0.000000 0.000000
# 5 0.000000 0.000000 0.000000 0.000000 -1.815966 0.000000
# 6 0.000000 0.000000 0.000000 0.000000 0.000000 0.021596
#
#
# Mechanical properties :
#
#
# Convention : Reuss Voigt Hill
#
# Bulk Modulus (GPa) = 69.63767 85.52578 77.58173
# Shear Modulus (GPa) = -2.91132 49.82532 23.45700
#
# Velocity S-wave (km/s) = -1.27364 5.26900 3.61526
# Velocity P-wave (km/s) = 6.05300 9.20168 7.78812
#
# Compressibility (1/GPa) = 0.01436004
#
# Stress axis : x y z
#
# Youngs Moduli (GPa) = 80.66037 71.03873 76.46389
#
# Poissons Ratio (x) = 0.53147 0.49303
# Poissons Ratio (y) = 0.60345 -0.10192
# Poissons Ratio (z) = 0.52009 -0.09469
#
# Static dielectric constant tensor:
#      x y z
#    x 1.601290 0.000000 0.000000 
#    y 0.000000 1.714970 0.000000 
#    z 0.000000 0.000000 1.579910 
# 
# From -- ./inp_files/71251.got.cif
#   From: 2010.05.17/outbox.cif.g08.bks.cpg/sg74_36_cif.got.tgz:71251.got - 2010.06.03 17:57:02.
