data_PCOD9539786
_publ_section_title
;
Structure prediction by ZEFSAII (Michael W. Deem and Ramdas Pophale) SiO2 
 PCOD9539786
Probable space group: I M M A
;
_chemical_formula_sum "Si O2"
_cell_formula_units_Z 68
_cell_length_a 15.565472
_cell_length_b 22.422993
_cell_length_c 10.857005
_cell_angle_alpha 90.000000
_cell_angle_beta 90.000000
_cell_angle_gamma 90.000000
_cell_volume 3789.360413
_symmetry_space_group_name_H-M "I M M A"
_symmetry_group_IT_number 74
_symmetry_cell_setting 'orthorhombic'
loop_
_space_group_symop_operation_xyz
x,y,z
-x,1/2-y,z
x,-y,-z
-x,1/2+y,-z
-x,-y,-z
x,1/2+y,-z
-x,y,z
x,1/2-y,z
1/2+x,1/2+y,1/2+z
1/2-x,-y,1/2+z
1/2+x,1/2-y,1/2-z
1/2-x,y,1/2-z
1/2-x,1/2-y,1/2-z
1/2+x,y,1/2-z
1/2-x,1/2+y,1/2+z
1/2+x,-y,1/2+z
loop_
_atom_site_type_symbol
_atom_site_label
_atom_site_fract_x
_atom_site_fract_y
_atom_site_fract_z
Si Si1 0.399141 0.862609 0.066764
Si Si2 0.352377 0.250000 0.767536
Si Si3 0.816977 0.514235 0.361172
Si Si4 0.154021 0.383675 0.302761
Si Si5 0.000000 0.182115 0.172317
Si Si6 0.500000 0.750000 0.432946
O O1 0.500000 0.862673 0.039169
O O2 0.377090 0.808957 0.156826
O O3 0.372294 0.926295 0.123093
O O4 0.350168 0.854882 0.937773
O O5 0.250000 0.250000 0.750000
O O6 0.413944 0.250000 0.648153
O O7 0.780318 0.500000 0.500000
O O8 0.750000 0.523832 0.250000
O O9 0.866754 0.453778 0.324071
O O10 0.250000 0.380168 0.250000
O O11 0.084090 0.352335 0.217469
O O12 0.000000 0.250000 0.225236
O O13 0.000000 0.193782 0.026052
#
# Coordination Sequence:
#
# PCOD9539786 Si02
#       6
#    16   8  16  16   8   4
#     4  11  22  38  65  91 123 159 210 260 302 369
#     4  12  26  43  62  84 122 167 209 249 307 370
#     4   9  20  39  61  91 125 164 209 255 309 370
#     4  10  22  39  64  95 122 159 206 253 315 369
#     4  10  24  39  62  86 129 157 193 258 310 368
#     4  10  26  46  54  88 126 164 202 252 308 376
#
# _framework density 17.944980999999999
#
# number of rings (size 3 to 8) (size 9 to 14) (size 15 to 20)
#    0.353    1.412    2.353    0.706    6.588    1.882 
#    4.235    0.000    0.000    2.118    0.000    0.000 
#    0.000    0.000    0.000    0.000    0.000    0.000 
#
# Total GULP energy -189568.598310 kJ/mol
# GULP energy per Si atom -5575.547009 kJ/mol
# Density = 1.790414 g / cm^3
# Si number density = 17.944981 Si / 1000 Ang^3
#
#
#
# Elastic Constant Matrix: (Units=GPa)
#
#
# Indices 1 2 3 4 5 6 
#
# 1 104.7907 58.7188 60.7296 0.0000 0.0000 0.0000
# 2 58.7188 111.1105 73.6999 0.0000 0.0000 0.0000
# 3 60.7296 73.6999 131.4656 0.0000 0.0000 -0.0002
# 4 0.0000 0.0000 0.0000 6.4317 0.0000 0.0000
# 5 0.0000 0.0000 0.0000 0.0000 36.5213 0.0000
# 6 0.0000 0.0000 -0.0002 0.0000 0.0000 104.2363
#
#
#
# Elastic Compliance Matrix: (Units=1/GPa)
#
#
# Indices 1 2 3 4 5 6 
#
# 1 0.014703 -0.005198 -0.003878 0.000000 0.000000 0.000000
# 2 -0.005198 0.016165 -0.006661 0.000000 0.000000 0.000000
# 3 -0.003878 -0.006661 0.013132 0.000000 0.000000 0.000000
# 4 0.000000 0.000000 0.000000 0.155481 0.000000 0.000000
# 5 0.000000 0.000000 0.000000 0.000000 0.027381 0.000000
# 6 0.000000 0.000000 0.000000 0.000000 0.000000 0.009594
#
#
# Mechanical properties :
#
#
# Convention : Reuss Voigt Hill
#
# Bulk Modulus (GPa) = 79.83121 81.51815 80.67468
# Shear Modulus (GPa) = 18.37522 39.71908 29.04715
#
# Velocity S-wave (km/s) = 3.20343 4.70976 4.02764
# Velocity P-wave (km/s) = 7.63321 8.66609 8.16600
#
# Compressibility (1/GPa) = 0.01252643
#
# Stress axis : x y z
#
# Youngs Moduli (GPa) = 68.01447 61.86066 76.14816
#
# Poissons Ratio (x) = 0.32153 0.29530
# Poissons Ratio (y) = 0.35352 0.50725
# Poissons Ratio (z) = 0.26376 0.41207
#
# Static dielectric constant tensor:
#      x y z
#    x 1.587790 0.000000 0.000000 
#    y 0.000000 1.616390 0.000000 
#    z 0.000000 0.000000 1.626760 
# 
# From -- ./inp_files/20248.got.cif
#   From: 2010.05.17/outbox.cif.g08.bks.cpg/sg74_11_cif.got.tgz:20248.got - 2010.06.03 17:57:02.
