data_PCOD9539888
_publ_section_title
;
Structure prediction by ZEFSAII (Michael W. Deem and Ramdas Pophale) SiO2 
 PCOD9539888
Probable space group: I M M A
;
_chemical_formula_sum "Si O2"
_cell_formula_units_Z 104
_cell_length_a 8.740003
_cell_length_b 21.478156
_cell_length_c 28.637999
_cell_angle_alpha 90.000000
_cell_angle_beta 90.000000
_cell_angle_gamma 90.000000
_cell_volume 5375.900769
_symmetry_space_group_name_H-M "I M M A"
_symmetry_group_IT_number 74
_symmetry_cell_setting 'orthorhombic'
loop_
_space_group_symop_operation_xyz
x,y,z
-x,1/2-y,z
x,-y,-z
-x,1/2+y,-z
-x,-y,-z
x,1/2+y,-z
-x,y,z
x,1/2-y,z
1/2+x,1/2+y,1/2+z
1/2-x,-y,1/2+z
1/2+x,1/2-y,1/2-z
1/2-x,y,1/2-z
1/2-x,1/2-y,1/2-z
1/2+x,y,1/2-z
1/2-x,1/2+y,1/2+z
1/2+x,-y,1/2+z
loop_
_atom_site_type_symbol
_atom_site_label
_atom_site_fract_x
_atom_site_fract_y
_atom_site_fract_z
Si Si1 0.181842 0.074217 0.699979
Si Si2 0.816319 0.151219 0.120136
Si Si3 0.818904 0.090621 0.948254
Si Si4 0.682846 0.181431 0.021441
Si Si5 0.816103 0.177412 0.631749
Si Si6 0.683853 0.013681 0.112886
Si Si7 0.816055 0.250000 0.197956
O O1 0.250000 0.060482 0.750000
O O2 0.221747 0.142488 0.680029
O O3 0.000000 0.071033 0.704100
O O4 0.225531 0.026855 0.658728
O O5 0.739527 0.180620 0.074463
O O6 0.760699 0.080273 0.119311
O O7 0.772039 0.189858 0.166530
O O8 0.000000 0.154749 0.115832
O O9 0.771796 0.140725 0.908559
O O10 0.000000 0.082362 0.950735
O O11 0.742169 0.026124 0.931519
O O12 0.756871 0.123200 0.994892
O O13 0.500000 0.175521 0.019160
O O14 0.723300 0.250000 0.000871
O O15 0.781954 0.250000 0.632398
O O16 0.000000 0.169439 0.623496
O O17 0.500000 0.019478 0.110205
O O18 0.750000 0.250000 0.250000
O O19 0.000000 0.250000 0.201616
#
# Coordination Sequence:
#
# PCOD9539888 Si02
#       7
#    16  16  16  16  16  16   8
#     4   9  19  34  53  77 108 146 190 241 294 348
#     4  11  23  42  65  93 124 154 193 246 301 348
#     4  11  22  36  57  87 120 157 200 248 298 349
#     4  11  23  39  62  90 122 163 203 241 291 357
#     4   9  18  34  53  75 110 154 198 243 292 350
#     4  10  22  41  61  84 117 157 200 246 297 362
#     4  10  24  44  68  96 130 164 200 250 305 366
#
# _framework density 19.345593999999998
#
# number of rings (size 3 to 8) (size 9 to 14) (size 15 to 20)
#    0.000    1.846    0.769    4.154    0.000    8.923 
#    0.000    6.154    0.000    0.000    0.000    0.000 
#    0.000    0.000    0.000    0.000    0.000    0.000 
#
# Total GULP energy -290393.968647 kJ/mol
# GULP energy per Si atom -5584.499397 kJ/mol
# Density = 1.930156 g / cm^3
# Si number density = 19.345594 Si / 1000 Ang^3
#
#
#
# Elastic Constant Matrix: (Units=GPa)
#
#
# Indices 1 2 3 4 5 6 
#
# 1 34.2357 24.4922 15.6241 0.0000 0.0000 0.0000
# 2 24.4922 119.6432 34.9476 0.0000 0.0000 0.0000
# 3 15.6241 34.9476 104.1449 0.0000 0.0000 0.0000
# 4 0.0000 0.0000 0.0000 17.0938 0.0000 0.0000
# 5 0.0000 0.0000 0.0000 0.0000 37.3097 0.0000
# 6 0.0000 0.0000 0.0000 0.0000 0.0000 24.1675
#
#
#
# Elastic Compliance Matrix: (Units=1/GPa)
#
#
# Indices 1 2 3 4 5 6 
#
# 1 0.035139 -0.006268 -0.003168 0.000000 0.000000 0.000000
# 2 -0.006268 0.010385 -0.002544 0.000000 0.000000 0.000000
# 3 -0.003168 -0.002544 0.010931 0.000000 0.000000 0.000000
# 4 0.000000 0.000000 0.000000 0.058501 0.000000 0.000000
# 5 0.000000 0.000000 0.000000 0.000000 0.026803 0.000000
# 6 0.000000 0.000000 0.000000 0.000000 0.000000 0.041378
#
#
# Mechanical properties :
#
#
# Convention : Reuss Voigt Hill
#
# Bulk Modulus (GPa) = 30.77527 45.35019 38.06273
# Shear Modulus (GPa) = 22.94329 27.91154 25.42741
#
# Velocity S-wave (km/s) = 3.44753 3.80252 3.62937
# Velocity P-wave (km/s) = 5.63826 6.54002 6.10581
#
# Compressibility (1/GPa) = 0.03249362
#
# Stress axis : x y z
#
# Youngs Moduli (GPa) = 28.45816 96.29732 91.48177
#
# Poissons Ratio (x) = 0.60358 0.28985
# Poissons Ratio (y) = 0.17837 0.23276
# Poissons Ratio (z) = 0.09017 0.24502
#
# Static dielectric constant tensor:
#      x y z
#    x 1.649640 0.000000 0.000000 
#    y 0.000000 1.702610 0.000000 
#    z 0.000000 0.000000 1.695250 
# 
# From -- ./inp_files/64450.got.cif
#   From: 2010.05.17/outbox.cif.g08.bks.cpg/sg74_33_cif.got.tgz:64450.got - 2010.06.03 17:57:02.
