data_PCOD9539589
_publ_section_title
;
Structure prediction by ZEFSAII (Michael W. Deem and Ramdas Pophale) SiO2 
 PCOD9539589
Probable space group: I M M A
;
_chemical_formula_sum "Si O2"
_cell_formula_units_Z 60
_cell_length_a 13.976024
_cell_length_b 10.270891
_cell_length_c 20.652170
_cell_angle_alpha 90.000000
_cell_angle_beta 90.000000
_cell_angle_gamma 90.000000
_cell_volume 2964.540920
_symmetry_space_group_name_H-M "I M M A"
_symmetry_group_IT_number 74
_symmetry_cell_setting 'orthorhombic'
loop_
_space_group_symop_operation_xyz
x,y,z
-x,1/2-y,z
x,-y,-z
-x,1/2+y,-z
-x,-y,-z
x,1/2+y,-z
-x,y,z
x,1/2-y,z
1/2+x,1/2+y,1/2+z
1/2-x,-y,1/2+z
1/2+x,1/2-y,1/2-z
1/2-x,y,1/2-z
1/2-x,1/2-y,1/2-z
1/2+x,y,1/2-z
1/2-x,1/2+y,1/2+z
1/2+x,-y,1/2+z
loop_
_atom_site_type_symbol
_atom_site_label
_atom_site_fract_x
_atom_site_fract_y
_atom_site_fract_z
Si Si1 0.792303 0.402818 0.055789
Si Si2 0.837878 0.972922 0.341695
Si Si3 0.000000 0.895055 0.442939
Si Si4 0.500000 0.905389 0.753279
Si Si5 0.250000 0.750000 0.250000
Si Si6 0.000000 0.906960 0.893553
O O1 0.787188 0.250000 0.037899
O O2 0.732138 0.429685 0.120517
O O3 0.902020 0.441600 0.071038
O O4 0.756898 0.500000 0.000000
O O5 0.780971 0.863396 0.302943
O O6 0.908690 0.913590 0.396158
O O7 0.907163 0.044951 0.291135
O O8 0.000000 0.750000 0.471127
O O9 0.000000 0.000000 0.500000
O O10 0.500000 0.750000 0.752023
O O11 0.500000 0.957802 0.679902
O O12 0.000000 0.750000 0.889744
#
# Coordination Sequence:
#
# PCOD9539589 Si02
#       6
#    16  16   8   8   4   8
#     4  11  24  42  67  97 135 180 234 287 350 420
#     4  11  24  40  68  99 137 182 231 290 356 428
#     4  11  24  44  67  98 140 181 231 290 351 428
#     4  10  21  41  67  97 133 173 227 287 356 425
#     4  12  24  42  66  96 148 182 238 286 356 426
#     4   9  20  40  62  90 129 171 220 280 337 406
#
# _framework density 20.239221000000001
#
# number of rings (size 3 to 8) (size 9 to 14) (size 15 to 20)
#    0.000    1.333    1.333    3.600    1.867    5.333 
#    0.000    6.667    0.000    0.000    0.000    0.000 
#    0.000    0.000    0.000    0.000    0.000    0.000 
#
# Total GULP energy -167137.035626 kJ/mol
# GULP energy per Si atom -5571.234521 kJ/mol
# Density = 2.019316 g / cm^3
# Si number density = 20.239221 Si / 1000 Ang^3
#
#
#
# Elastic Constant Matrix: (Units=GPa)
#
#
# Indices 1 2 3 4 5 6 
#
# 1 67.1310 17.3413 27.5783 0.0000 0.0000 0.0000
# 2 17.3413 122.6339 59.4054 0.0000 0.0000 0.0000
# 3 27.5783 59.4054 133.7431 0.0000 0.0000 0.0000
# 4 0.0000 0.0000 0.0000 43.2352 0.0000 0.0000
# 5 0.0000 0.0000 0.0000 0.0000 23.3687 0.0000
# 6 0.0000 0.0000 0.0000 0.0000 0.0000 -3.4368
#
#
#
# Elastic Compliance Matrix: (Units=1/GPa)
#
#
# Indices 1 2 3 4 5 6 
#
# 1 0.016347 -0.000865 -0.002987 0.000000 0.000000 0.000000
# 2 -0.000865 0.010436 -0.004457 0.000000 0.000000 0.000000
# 3 -0.002987 -0.004457 0.010073 0.000000 0.000000 0.000000
# 4 0.000000 0.000000 0.000000 0.023129 0.000000 0.000000
# 5 0.000000 0.000000 0.000000 0.000000 0.042792 0.000000
# 6 0.000000 0.000000 0.000000 0.000000 0.000000 -0.290971
#
#
# Mechanical properties :
#
#
# Convention : Reuss Voigt Hill
#
# Bulk Modulus (GPa) = 49.41173 59.12867 54.27020
# Shear Modulus (GPa) = -30.33387 27.24564 -1.54412
#
# Velocity S-wave (km/s) = -3.87559 3.67301 -0.87441
# Velocity P-wave (km/s) = 2.10711 6.87505 5.08460
#
# Compressibility (1/GPa) = 0.02023811
#
# Stress axis : x y z
#
# Youngs Moduli (GPa) = 61.17489 95.82554 99.27997
#
# Poissons Ratio (x) = 0.08287 0.29651
# Poissons Ratio (y) = 0.05290 0.44248
# Poissons Ratio (z) = 0.18271 0.42709
#
# Static dielectric constant tensor:
#      x y z
#    x 1.797920 0.000000 0.000000 
#    y 0.000000 1.677350 0.000000 
#    z 0.000000 0.000000 1.694910 
# 
# From -- ./inp_files/50028.got.cif
#   From: 2010.05.17/outbox.cif.g08.bks.cpg/sg74_26_cif.got.tgz:50028.got - 2010.06.03 17:57:02.
