data_PCOD9539183
_publ_section_title
;
Structure prediction by ZEFSAII (Michael W. Deem and Ramdas Pophale) SiO2 
 PCOD9539183
Probable space group: I M M A
;
_chemical_formula_sum "Si O2"
_cell_formula_units_Z 72
_cell_length_a 31.745919
_cell_length_b 13.406566
_cell_length_c 7.910849
_cell_angle_alpha 90.000000
_cell_angle_beta 90.000000
_cell_angle_gamma 90.000000
_cell_volume 3366.887066
_symmetry_space_group_name_H-M "I M M A"
_symmetry_group_IT_number 74
_symmetry_cell_setting 'orthorhombic'
loop_
_space_group_symop_operation_xyz
x,y,z
-x,1/2-y,z
x,-y,-z
-x,1/2+y,-z
-x,-y,-z
x,1/2+y,-z
-x,y,z
x,1/2-y,z
1/2+x,1/2+y,1/2+z
1/2-x,-y,1/2+z
1/2+x,1/2-y,1/2-z
1/2-x,y,1/2-z
1/2-x,1/2-y,1/2-z
1/2+x,y,1/2-z
1/2-x,1/2+y,1/2+z
1/2+x,-y,1/2+z
loop_
_atom_site_type_symbol
_atom_site_label
_atom_site_fract_x
_atom_site_fract_y
_atom_site_fract_z
Si Si1 0.046560 0.129484 0.884177
Si Si2 0.657538 0.000000 0.500000
Si Si3 0.201548 0.630448 0.258523
Si Si4 0.594831 0.370431 0.284682
Si Si5 0.113380 0.370333 0.595753
O O1 0.045720 0.250000 0.873261
O O2 0.083422 0.098681 0.753410
O O3 0.000000 0.093056 0.837961
O O4 0.057512 0.107725 0.080595
O O5 0.683777 0.914167 0.412309
O O6 0.631746 0.935620 0.635364
O O7 0.202921 0.750000 0.264379
O O8 0.250000 0.594860 0.250000
O O9 0.163067 0.600924 0.387083
O O10 0.602220 0.250000 0.295593
O O11 0.593132 0.395417 0.085923
O O12 0.113779 0.250000 0.604319
#
# Coordination Sequence:
#
# PCOD9539183 Si02
#       5
#    16   8  16  16  16
#     4   9  17  33  59  88 120 160 204 251 306 368
#     4  12  22  36  63  88 120 160 201 252 306 366
#     4  10  22  41  63  89 124 162 203 255 308 362
#     4  10  21  37  59  88 121 160 205 252 306 364
#     4   9  18  36  60  83 118 161 199 248 306 360
#
# _framework density 21.384739
#
# number of rings (size 3 to 8) (size 9 to 14) (size 15 to 20)
#    0.000    2.222    2.222    0.667    0.000    3.556 
#    0.000    5.000    0.000    8.000    0.000    0.000 
#    0.000    0.000    0.000    0.000    0.000    0.000 
#
# Total GULP energy -200480.609762 kJ/mol
# GULP energy per Si atom -5568.905827 kJ/mol
# Density = 2.133607 g / cm^3
# Si number density = 21.384739 Si / 1000 Ang^3
#
#
#
# Elastic Constant Matrix: (Units=GPa)
#
#
# Indices 1 2 3 4 5 6 
#
# 1 157.3880 26.4129 71.9277 0.0000 0.0000 0.0000
# 2 26.4129 45.9173 27.0122 0.0000 0.0000 0.0000
# 3 71.9277 27.0122 142.7080 0.0000 0.0000 0.0000
# 4 0.0000 0.0000 0.0000 39.9068 0.0000 0.0000
# 5 0.0000 0.0000 0.0000 0.0000 34.6616 0.0000
# 6 0.0000 0.0000 0.0000 0.0000 0.0000 16.3132
#
#
#
# Elastic Compliance Matrix: (Units=1/GPa)
#
#
# Indices 1 2 3 4 5 6 
#
# 1 0.008538 -0.002678 -0.003797 0.000000 0.000000 0.000000
# 2 -0.002678 0.025347 -0.003448 0.000000 0.000000 0.000000
# 3 -0.003797 -0.003448 0.009573 0.000000 0.000000 0.000000
# 4 0.000000 0.000000 0.000000 0.025058 0.000000 0.000000
# 5 0.000000 0.000000 0.000000 0.000000 0.028850 0.000000
# 6 0.000000 0.000000 0.000000 0.000000 0.000000 0.061300
#
#
# Mechanical properties :
#
#
# Convention : Reuss Voigt Hill
#
# Bulk Modulus (GPa) = 42.34820 66.30210 54.32515
# Shear Modulus (GPa) = 26.82637 32.88705 29.85671
#
# Velocity S-wave (km/s) = 3.54568 3.92583 3.74059
# Velocity P-wave (km/s) = 6.05049 7.18479 6.64190
#
# Compressibility (1/GPa) = 0.02361375
#
# Stress axis : x y z
#
# Youngs Moduli (GPa) = 117.12089 39.45220 104.45520
#
# Poissons Ratio (x) = 0.10565 0.39657
# Poissons Ratio (y) = 0.31365 0.36016
# Poissons Ratio (z) = 0.44465 0.13603
#
# Static dielectric constant tensor:
#      x y z
#    x 1.784800 0.000000 0.000000 
#    y 0.000000 1.825260 0.000000 
#    z 0.000000 0.000000 1.764230 
# 
# From -- ./inp_files/14703.got.cif
#   From: 2010.05.17/outbox.cif.g08.bks.cpg/sg74_8_cif.got.tgz:14703.got - 2010.06.03 17:57:02.
