data_PCOD9539866
_publ_section_title
;
Structure prediction by ZEFSAII (Michael W. Deem and Ramdas Pophale) SiO2 
 PCOD9539866
Probable space group: I M M A
;
_chemical_formula_sum "Si O2"
_cell_formula_units_Z 56
_cell_length_a 17.328891
_cell_length_b 10.063806
_cell_length_c 14.260166
_cell_angle_alpha 90.000000
_cell_angle_beta 90.000000
_cell_angle_gamma 90.000000
_cell_volume 2486.895906
_symmetry_space_group_name_H-M "I M M A"
_symmetry_group_IT_number 74
_symmetry_cell_setting 'orthorhombic'
loop_
_space_group_symop_operation_xyz
x,y,z
-x,1/2-y,z
x,-y,-z
-x,1/2+y,-z
-x,-y,-z
x,1/2+y,-z
-x,y,z
x,1/2-y,z
1/2+x,1/2+y,1/2+z
1/2-x,-y,1/2+z
1/2+x,1/2-y,1/2-z
1/2-x,y,1/2-z
1/2-x,1/2-y,1/2-z
1/2+x,y,1/2-z
1/2-x,1/2+y,1/2+z
1/2+x,-y,1/2+z
loop_
_atom_site_type_symbol
_atom_site_label
_atom_site_fract_x
_atom_site_fract_y
_atom_site_fract_z
Si Si1 0.645074 0.601521 0.712405
Si Si2 0.500000 0.608293 0.577158
Si Si3 0.259005 0.598662 0.409634
Si Si4 0.586801 0.464429 0.890378
O O1 0.678871 0.750000 0.704353
O O2 0.573467 0.597507 0.642538
O O3 0.699297 0.484185 0.672898
O O4 0.609533 0.579067 0.815961
O O5 0.500000 0.750000 0.528300
O O6 0.500000 0.500000 0.500000
O O7 0.266797 0.500000 0.500000
O O8 0.289513 0.750000 0.423778
O O9 0.167795 0.613296 0.387940
O O10 0.500000 0.414058 0.864256
O O11 0.580711 0.500000 0.000000
#
# Coordination Sequence:
#
# PCOD9539866 Si02
#       4
#    16   8  16  16
#     4  11  23  43  71 102 138 181 231 285 348 416
#     4  10  22  40  65  98 134 174 223 278 337 408
#     4  11  25  45  70 103 141 182 233 289 350 416
#     4  10  23  43  68  99 137 180 229 284 342 407
#
# _framework density 22.518032000000002
#
# number of rings (size 3 to 8) (size 9 to 14) (size 15 to 20)
#    0.000    1.429    1.429    2.571    0.000   13.143 
#    0.000    5.714    0.000    0.000    0.000    0.000 
#    0.000    0.000    0.000    0.000    0.000    0.000 
#
# Total GULP energy -155999.473625 kJ/mol
# GULP energy per Si atom -5571.409772 kJ/mol
# Density = 2.246678 g / cm^3
# Si number density = 22.518032 Si / 1000 Ang^3
#
#
#
# Elastic Constant Matrix: (Units=GPa)
#
#
# Indices 1 2 3 4 5 6 
#
# 1 155.3500 59.8738 39.0053 0.0000 0.0000 0.0000
# 2 59.8738 200.2344 82.6655 0.0000 0.0000 0.0000
# 3 39.0053 82.6655 130.7280 0.0000 0.0000 0.0000
# 4 0.0000 0.0000 0.0000 0.8053 0.0000 0.0000
# 5 0.0000 0.0000 0.0000 0.0000 52.6503 0.0000
# 6 0.0000 0.0000 0.0000 0.0000 0.0000 21.9436
#
#
#
# Elastic Compliance Matrix: (Units=1/GPa)
#
#
# Indices 1 2 3 4 5 6 
#
# 1 0.007389 -0.001758 -0.001093 0.000000 0.000000 0.000000
# 2 -0.001758 0.007177 -0.004014 0.000000 0.000000 0.000000
# 3 -0.001093 -0.004014 0.010514 0.000000 0.000000 0.000000
# 4 0.000000 0.000000 0.000000 1.241831 0.000000 0.000000
# 5 0.000000 0.000000 0.000000 0.000000 0.018993 0.000000
# 6 0.000000 0.000000 0.000000 0.000000 0.000000 0.045571
#
#
# Mechanical properties :
#
#
# Convention : Reuss Voigt Hill
#
# Bulk Modulus (GPa) = 88.10583 94.37797 91.24190
# Shear Modulus (GPa) = 3.70648 35.39768 19.55208
#
# Velocity S-wave (km/s) = 1.28436 3.96911 2.94987
# Velocity P-wave (km/s) = 6.43515 7.93777 7.22563
#
# Compressibility (1/GPa) = 0.01134999
#
# Stress axis : x y z
#
# Youngs Moduli (GPa) = 135.33370 139.33497 95.11499
#
# Poissons Ratio (x) = 0.24500 0.10394
# Poissons Ratio (y) = 0.23796 0.38176
# Poissons Ratio (z) = 0.14790 0.55925
#
# Static dielectric constant tensor:
#      x y z
#    x 1.889450 0.000000 0.000000 
#    y 0.000000 1.917280 0.000000 
#    z 0.000000 0.000000 1.823190 
# 
# From -- ./inp_files/43522.got.cif
#   From: 2010.05.17/outbox.cif.g08.bks.cpg/sg74_22_cif.got.tgz:43522.got - 2010.06.03 17:57:02.
