data_PCOD9539293
_publ_section_title
;
Structure prediction by ZEFSAII (Michael W. Deem and Ramdas Pophale) SiO2 
 PCOD9539293
Probable space group: I M M A
;
_chemical_formula_sum "Si O2"
_cell_formula_units_Z 116
_cell_length_a 24.460015
_cell_length_b 7.937822
_cell_length_c 29.603725
_cell_angle_alpha 90.000000
_cell_angle_beta 90.000000
_cell_angle_gamma 90.000000
_cell_volume 5747.836901
_symmetry_space_group_name_H-M "I M M A"
_symmetry_group_IT_number 74
_symmetry_cell_setting 'orthorhombic'
loop_
_space_group_symop_operation_xyz
x,y,z
-x,1/2-y,z
x,-y,-z
-x,1/2+y,-z
-x,-y,-z
x,1/2+y,-z
-x,y,z
x,1/2-y,z
1/2+x,1/2+y,1/2+z
1/2-x,-y,1/2+z
1/2+x,1/2-y,1/2-z
1/2-x,y,1/2-z
1/2-x,1/2-y,1/2-z
1/2+x,y,1/2-z
1/2-x,1/2+y,1/2+z
1/2+x,-y,1/2+z
loop_
_atom_site_type_symbol
_atom_site_label
_atom_site_fract_x
_atom_site_fract_y
_atom_site_fract_z
Si Si1 0.151910 0.550627 0.450392
Si Si2 0.287949 0.448695 0.792619
Si Si3 0.306907 0.553642 0.645765
Si Si4 0.440913 0.547290 0.881011
Si Si5 0.776507 0.452141 0.949753
Si Si6 0.500000 0.750000 0.661178
Si Si7 0.090094 0.054977 0.282893
Si Si8 0.579662 0.560704 0.316507
O O1 0.131251 0.500000 0.500000
O O2 0.156991 0.750000 0.449338
O O3 0.109963 0.500231 0.411795
O O4 0.213694 0.482049 0.445635
O O5 0.300599 0.250000 0.790298
O O6 0.250000 0.493566 0.750000
O O7 0.251097 0.484297 0.836344
O O8 0.344609 0.546104 0.789916
O O9 0.309620 0.750000 0.657056
O O10 0.309637 0.526376 0.592093
O O11 0.356613 0.461183 0.670526
O O12 0.500000 0.490906 0.899208
O O13 0.441020 0.750000 0.878681
O O14 0.434394 0.487386 0.829524
O O15 0.777037 0.250000 0.945663
O O16 0.795634 0.500000 0.000000
O O17 0.547123 0.597978 0.663110
O O18 0.073068 0.250000 0.276327
O O19 0.074519 0.958125 0.237652
O O20 0.562827 0.750000 0.330070
#
# Coordination Sequence:
#
# PCOD9539293 Si02
#       8
#    16  16  16  16  16   4  16  16
#     4  10  21  38  60  84 115 152 200 253 311 380
#     4  11  22  35  55  85 123 166 208 255 313 382
#     4  12  23  39  62  93 131 168 211 257 312 380
#     4  10  23  39  57  79 111 154 205 264 318 364
#     4  10  21  38  62  94 129 162 198 246 312 380
#     4  12  26  48  64  92 126 164 222 256 322 370
#     4  11  22  38  60  86 122 163 212 260 320 382
#     4  12  25  43  67  93 125 168 213 266 314 371
#
# _framework density 20.181505999999999
#
# number of rings (size 3 to 8) (size 9 to 14) (size 15 to 20)
#    0.000    1.103    2.759    3.931    0.966    6.069 
#    0.000    0.000    0.000    0.000    0.000    0.483 
#    0.000    0.000    0.000    0.000    0.000    0.000 
#
# Total GULP energy -323748.214662 kJ/mol
# GULP energy per Si atom -5581.865770 kJ/mol
# Density = 2.013557 g / cm^3
# Si number density = 20.181506 Si / 1000 Ang^3
#
#
#
# Elastic Constant Matrix: (Units=GPa)
#
#
# Indices 1 2 3 4 5 6 
#
# 1 44.7706 11.9531 -5.1946 0.0000 0.0000 0.0000
# 2 11.9531 90.5955 0.8566 0.0000 0.0000 0.0000
# 3 -5.1946 0.8566 80.7252 0.0000 0.0000 0.0000
# 4 0.0000 0.0000 0.0000 27.8510 0.0000 0.0000
# 5 0.0000 0.0000 0.0000 0.0000 -6.6149 0.0000
# 6 0.0000 0.0000 0.0000 0.0000 0.0000 0.0400
#
#
#
# Elastic Compliance Matrix: (Units=1/GPa)
#
#
# Indices 1 2 3 4 5 6 
#
# 1 0.023340 -0.003094 0.001535 0.000000 0.000000 0.000000
# 2 -0.003094 0.011449 -0.000321 0.000000 0.000000 0.000000
# 3 0.001535 -0.000321 0.012490 0.000000 0.000000 0.000000
# 4 0.000000 0.000000 0.000000 0.035905 0.000000 0.000000
# 5 0.000000 0.000000 0.000000 0.000000 -0.151173 0.000000
# 6 0.000000 0.000000 0.000000 0.000000 0.000000 24.995051
#
#
# Mechanical properties :
#
#
# Convention : Reuss Voigt Hill
#
# Bulk Modulus (GPa) = 22.97806 25.70237 24.34022
# Shear Modulus (GPa) = 0.20044 18.15363 9.17703
#
# Velocity S-wave (km/s) = 0.31549 3.00245 2.13474
# Velocity P-wave (km/s) = 3.39752 4.97824 4.26181
#
# Compressibility (1/GPa) = 0.04351978
#
# Stress axis : x y z
#
# Youngs Moduli (GPa) = 42.84447 87.34136 80.06487
#
# Poissons Ratio (x) = 0.27023 -0.12288
# Poissons Ratio (y) = 0.13256 0.02567
# Poissons Ratio (z) = -0.06576 0.02800
#
# Static dielectric constant tensor:
#      x y z
#    x 1.728230 0.000000 0.000000 
#    y 0.000000 1.719870 0.000000 
#    z 0.000000 0.000000 1.707610 
# 
# From -- ./inp_files/73735.got.cif
#   From: 2010.05.17/outbox.cif.g08.bks.cpg/sg74_37_cif.got.tgz:73735.got - 2010.06.03 17:57:02.
