data_PCOD9539425
_publ_section_title
;
Structure prediction by ZEFSAII (Michael W. Deem and Ramdas Pophale) SiO2 
 PCOD9539425
Probable space group: I M M A
;
_chemical_formula_sum "Si O2"
_cell_formula_units_Z 84
_cell_length_a 21.323628
_cell_length_b 7.232258
_cell_length_c 21.564665
_cell_angle_alpha 90.000000
_cell_angle_beta 90.000000
_cell_angle_gamma 90.000000
_cell_volume 3325.659058
_symmetry_space_group_name_H-M "I M M A"
_symmetry_group_IT_number 74
_symmetry_cell_setting 'orthorhombic'
loop_
_space_group_symop_operation_xyz
x,y,z
-x,1/2-y,z
x,-y,-z
-x,1/2+y,-z
-x,-y,-z
x,1/2+y,-z
-x,y,z
x,1/2-y,z
1/2+x,1/2+y,1/2+z
1/2-x,-y,1/2+z
1/2+x,1/2-y,1/2-z
1/2-x,y,1/2-z
1/2-x,1/2-y,1/2-z
1/2+x,y,1/2-z
1/2-x,1/2+y,1/2+z
1/2+x,-y,1/2+z
loop_
_atom_site_type_symbol
_atom_site_label
_atom_site_fract_x
_atom_site_fract_y
_atom_site_fract_z
Si Si1 0.930242 0.526782 0.105555
Si Si2 0.500000 0.250000 0.201043
Si Si3 0.690150 0.026155 0.847527
Si Si4 0.601366 0.528903 0.251714
Si Si5 0.798839 0.030331 0.932303
Si Si6 0.930488 0.469606 0.573589
O O1 0.933086 0.750000 0.100164
O O2 0.913296 0.484913 0.177130
O O3 0.869855 0.457382 0.068676
O O4 0.000000 0.458297 0.089989
O O5 0.553818 0.411055 0.211654
O O6 0.692852 0.250000 0.851141
O O7 0.669606 0.985661 0.777137
O O8 0.754332 0.958654 0.877812
O O9 0.631961 0.966180 0.891562
O O10 0.591261 0.750000 0.244697
O O11 0.804010 0.250000 0.923041
O O12 0.769940 0.000000 0.000000
O O13 0.923587 0.500000 0.500000
O O14 0.933911 0.250000 0.584700
O O15 0.000000 0.550171 0.590213
#
# Coordination Sequence:
#
# PCOD9539425 Si02
#       6
#    16   4  16  16  16  16
#     4   9  18  36  63  88 119 157 201 252 313 379
#     4  12  22  36  60 100 128 160 216 240 304 396
#     4   9  19  35  57  78 112 159 202 244 302 368
#     4  10  21  39  61  90 128 166 198 258 313 361
#     4  10  21  39  60  87 117 160 211 254 310 377
#     4   9  17  29  44  67  96 136 185 238 291 344
#
# _framework density 25.258151999999999
#
# number of rings (size 3 to 8) (size 9 to 14) (size 15 to 20)
#    0.000    2.476    0.952    0.857    1.333    1.143 
#    5.143    3.810    0.000    1.143    0.000    0.000 
#    0.000    0.000    0.000    0.000    0.000    0.000 
#
# Total GULP energy -234201.344917 kJ/mol
# GULP energy per Si atom -5576.222498 kJ/mol
# Density = 2.520066 g / cm^3
# Si number density = 25.258152 Si / 1000 Ang^3
#
#
#
# Elastic Constant Matrix: (Units=GPa)
#
#
# Indices 1 2 3 4 5 6 
#
# 1 131.4058 19.6509 13.6198 0.0000 0.0000 0.0000
# 2 19.6509 115.7676 -5.5954 0.0000 0.0000 0.0000
# 3 13.6198 -5.5954 35.6917 0.0000 0.0000 0.0000
# 4 0.0000 0.0000 0.0000 -3.1922 0.0000 0.0000
# 5 0.0000 0.0000 0.0000 0.0000 25.9107 0.0000
# 6 0.0000 0.0000 0.0000 0.0000 0.0000 45.2242
#
#
#
# Elastic Compliance Matrix: (Units=1/GPa)
#
#
# Indices 1 2 3 4 5 6 
#
# 1 0.008192 -0.001553 -0.003369 0.000000 0.000000 0.000000
# 2 -0.001553 0.008998 0.002003 0.000000 0.000000 0.000000
# 3 -0.003369 0.002003 0.029618 0.000000 0.000000 0.000000
# 4 0.000000 0.000000 0.000000 -0.313267 0.000000 0.000000
# 5 0.000000 0.000000 0.000000 0.000000 0.038594 0.000000
# 6 0.000000 0.000000 0.000000 0.000000 0.000000 0.022112
#
#
# Mechanical properties :
#
#
# Convention : Reuss Voigt Hill
#
# Bulk Modulus (GPa) = 24.40864 37.57950 30.99407
# Shear Modulus (GPa) = -26.84447 30.60121 1.87837
#
# Velocity S-wave (km/s) = -3.26360 3.48449 0.86330
# Velocity P-wave (km/s) = 2.12529 5.57668 3.64572
#
# Compressibility (1/GPa) = 0.04096910
#
# Stress axis : x y z
#
# Youngs Moduli (GPa) = 122.07738 111.12973 33.76375
#
# Poissons Ratio (x) = 0.17262 0.11376
# Poissons Ratio (y) = 0.18962 -0.06764
# Poissons Ratio (z) = 0.41132 -0.22264
#
# Static dielectric constant tensor:
#      x y z
#    x 1.996130 0.000000 0.000000 
#    y 0.000000 1.982980 0.000000 
#    z 0.000000 0.000000 2.024590 
# 
# From -- ./inp_files/61346.got.cif
#   From: 2010.05.17/outbox.cif.g08.bks.cpg/sg74_31_cif.got.tgz:61346.got - 2010.06.03 17:57:02.
