data_PCOD9539545
_publ_section_title
;
Structure prediction by ZEFSAII (Michael W. Deem and Ramdas Pophale) SiO2 
 PCOD9539545
Probable space group: I M M A
;
_chemical_formula_sum "Si O2"
_cell_formula_units_Z 64
_cell_length_a 17.768611
_cell_length_b 21.035924
_cell_length_c 8.807004
_cell_angle_alpha 90.000000
_cell_angle_beta 90.000000
_cell_angle_gamma 90.000000
_cell_volume 3291.874474
_symmetry_space_group_name_H-M "I M M A"
_symmetry_group_IT_number 74
_symmetry_cell_setting 'orthorhombic'
loop_
_space_group_symop_operation_xyz
x,y,z
-x,1/2-y,z
x,-y,-z
-x,1/2+y,-z
-x,-y,-z
x,1/2+y,-z
-x,y,z
x,1/2-y,z
1/2+x,1/2+y,1/2+z
1/2-x,-y,1/2+z
1/2+x,1/2-y,1/2-z
1/2-x,y,1/2-z
1/2-x,1/2-y,1/2-z
1/2+x,y,1/2-z
1/2-x,1/2+y,1/2+z
1/2+x,-y,1/2+z
loop_
_atom_site_type_symbol
_atom_site_label
_atom_site_fract_x
_atom_site_fract_y
_atom_site_fract_z
Si Si1 0.089883 0.375489 0.174837
Si Si2 0.910279 0.250000 0.634804
Si Si3 0.835311 0.250000 0.312065
Si Si4 0.910538 0.120237 0.819975
Si Si5 0.167368 0.997437 0.681061
O O1 0.125874 0.313292 0.247982
O O2 0.118138 0.438483 0.259273
O O3 0.000000 0.371377 0.185100
O O4 0.110979 0.377429 0.996969
O O5 0.854117 0.250000 0.491749
O O6 0.897817 0.187195 0.736089
O O7 0.000000 0.250000 0.587853
O O8 0.750000 0.250000 0.250000
O O9 0.000000 0.107260 0.812605
O O10 0.867090 0.063194 0.740686
O O11 0.250000 0.989136 0.750000
O O12 0.170183 0.000000 0.500000
#
# Coordination Sequence:
#
# PCOD9539545 Si02
#       5
#    16   8   8  16  16
#     4  11  23  42  66  91 123 163 207 254 306 365
#     4  10  21  40  65  92 123 162 208 253 302 365
#     4  12  25  40  60  92 128 162 205 255 309 363
#     4  10  22  41  65  92 122 161 208 256 306 364
#     4  12  25  41  62  91 127 164 204 253 309 366
#
# _framework density 19.44181
#
# number of rings (size 3 to 8) (size 9 to 14) (size 15 to 20)
#    0.000    1.000    0.000    7.125    0.000   10.000 
#    0.000    1.875    0.000    0.000    0.000    0.000 
#    0.000    0.000    0.000    0.000    0.000    0.000 
#
# Total GULP energy -179055.472374 kJ/mol
# GULP energy per Si atom -5595.483512 kJ/mol
# Density = 1.939756 g / cm^3
# Si number density = 19.441810 Si / 1000 Ang^3
#
#
#
# Elastic Constant Matrix: (Units=GPa)
#
#
# Indices 1 2 3 4 5 6 
#
# 1 67.1744 60.5803 70.8283 0.0000 0.0000 0.0000
# 2 60.5803 151.8688 62.2718 0.0000 0.0000 0.0000
# 3 70.8283 62.2718 179.8701 0.0000 0.0000 0.0000
# 4 0.0000 0.0000 0.0000 33.8778 0.0000 0.0000
# 5 0.0000 0.0000 0.0000 0.0000 28.7931 0.0000
# 6 0.0000 0.0000 0.0000 0.0000 0.0000 24.3069
#
#
#
# Elastic Compliance Matrix: (Units=1/GPa)
#
#
# Indices 1 2 3 4 5 6 
#
# 1 0.034123 -0.009442 -0.010168 0.000000 0.000000 0.000000
# 2 -0.009442 0.010287 0.000157 0.000000 0.000000 0.000000
# 3 -0.010168 0.000157 0.009509 0.000000 0.000000 0.000000
# 4 0.000000 0.000000 0.000000 0.029518 0.000000 0.000000
# 5 0.000000 0.000000 0.000000 0.000000 0.034731 0.000000
# 6 0.000000 0.000000 0.000000 0.000000 0.000000 0.041141
#
#
# Mechanical properties :
#
#
# Convention : Reuss Voigt Hill
#
# Bulk Modulus (GPa) = 66.61248 87.36380 76.98814
# Shear Modulus (GPa) = 24.60402 31.07775 27.84088
#
# Velocity S-wave (km/s) = 3.56128 4.00246 3.78830
# Velocity P-wave (km/s) = 7.15871 8.14820 7.66943
#
# Compressibility (1/GPa) = 0.01501220
#
# Stress axis : x y z
#
# Youngs Moduli (GPa) = 29.30575 97.21084 105.16266
#
# Poissons Ratio (x) = 0.91791 1.06927
# Poissons Ratio (y) = 0.27672 -0.01649
# Poissons Ratio (z) = 0.29797 -0.01525
#
# Static dielectric constant tensor:
#      x y z
#    x 1.668000 0.000000 0.000000 
#    y 0.000000 1.626050 0.000000 
#    z 0.000000 0.000000 1.670380 
# 
# From -- ./inp_files/10336.got.cif
#   From: 2010.05.17/outbox.cif.g08.bks.cpg/sg74_6_cif.got.tgz:10336.got - 2010.06.03 17:57:02.
