data_PCOD9539001
_publ_section_title
;
Structure prediction by ZEFSAII (Michael W. Deem and Ramdas Pophale) SiO2 
 PCOD9539001
Probable space group: I M M A
;
_chemical_formula_sum "Si O2"
_cell_formula_units_Z 112
_cell_length_a 13.715245
_cell_length_b 26.686108
_cell_length_c 15.202496
_cell_angle_alpha 90.000000
_cell_angle_beta 90.000000
_cell_angle_gamma 90.000000
_cell_volume 5564.212494
_symmetry_space_group_name_H-M "I M M A"
_symmetry_group_IT_number 74
_symmetry_cell_setting 'orthorhombic'
loop_
_space_group_symop_operation_xyz
x,y,z
-x,1/2-y,z
x,-y,-z
-x,1/2+y,-z
-x,-y,-z
x,1/2+y,-z
-x,y,z
x,1/2-y,z
1/2+x,1/2+y,1/2+z
1/2-x,-y,1/2+z
1/2+x,1/2-y,1/2-z
1/2-x,y,1/2-z
1/2-x,1/2-y,1/2-z
1/2+x,y,1/2-z
1/2-x,1/2+y,1/2+z
1/2+x,-y,1/2+z
loop_
_atom_site_type_symbol
_atom_site_label
_atom_site_fract_x
_atom_site_fract_y
_atom_site_fract_z
Si Si1 0.722329 0.985938 0.604515
Si Si2 0.285285 0.692211 0.131875
Si Si3 0.612094 0.526751 0.232831
Si Si4 0.110443 0.307922 0.285344
Si Si5 0.256349 0.307722 0.444510
Si Si6 0.108958 0.358536 0.774321
Si Si7 0.611840 0.616856 0.621656
O O1 0.687860 0.928551 0.615597
O O2 0.725150 0.000000 0.500000
O O3 0.643230 0.013663 0.666981
O O4 0.820617 0.999896 0.659274
O O5 0.254930 0.750000 0.143195
O O6 0.195485 0.656511 0.159956
O O7 0.374462 0.680125 0.194978
O O8 0.307744 0.683642 0.030605
O O9 0.500000 0.512973 0.218772
O O10 0.623566 0.586705 0.231444
O O11 0.123990 0.250000 0.252131
O O12 0.190797 0.316981 0.359108
O O13 0.116505 0.350674 0.211529
O O14 0.000000 0.309625 0.321176
O O15 0.286529 0.250000 0.443613
O O16 0.350317 0.342663 0.448027
O O17 0.000000 0.356468 0.811403
O O18 0.500000 0.600377 0.608902
#
# Coordination Sequence:
#
# PCOD9539001 Si02
#       7
#    16  16  16  16  16  16  16
#     4  11  25  43  67  93 128 167 203 265 325 376
#     4  10  21  36  57  90 125 155 198 250 300 361
#     4  10  24  45  67  94 125 164 213 261 317 382
#     4   9  19  38  61  86 121 163 204 247 299 365
#     4  10  22  37  58  88 124 162 199 248 307 359
#     4  10  21  39  64  85 114 161 202 245 305 362
#     4  11  24  38  59  89 119 159 207 245 300 368
#
# _framework density 20.128634999999999
#
# number of rings (size 3 to 8) (size 9 to 14) (size 15 to 20)
#    0.000    1.857    0.000    3.857    8.000    5.714 
#    0.000    2.857    0.000    0.000    0.000    0.000 
#    0.000    0.000    0.000    0.000    0.000    0.000 
#
# Total GULP energy -312166.303011 kJ/mol
# GULP energy per Si atom -5574.398268 kJ/mol
# Density = 2.008282 g / cm^3
# Si number density = 20.128635 Si / 1000 Ang^3
#
#
#
# Elastic Constant Matrix: (Units=GPa)
#
#
# Indices 1 2 3 4 5 6 
#
# 1 113.6090 51.0066 22.7332 0.0001 0.0000 0.0000
# 2 51.0066 74.7767 32.3747 0.0010 0.0000 0.0000
# 3 22.7332 32.3747 100.1577 0.0020 0.0000 0.0000
# 4 0.0001 0.0010 0.0020 291.3148 0.0001 0.0000
# 5 0.0000 0.0000 0.0000 0.0001 10.9014 0.0000
# 6 0.0000 0.0000 0.0000 0.0000 0.0000 29.0147
#
#
#
# Elastic Compliance Matrix: (Units=1/GPa)
#
#
# Indices 1 2 3 4 5 6 
#
# 1 0.012688 -0.008614 -0.000096 0.000000 0.000000 0.000000
# 2 -0.008614 0.021397 -0.004961 0.000000 0.000000 0.000000
# 3 -0.000096 -0.004961 0.011610 0.000000 0.000000 0.000000
# 4 0.000000 0.000000 0.000000 0.003433 0.000000 0.000000
# 5 0.000000 0.000000 0.000000 0.000000 0.091732 0.000000
# 6 0.000000 0.000000 0.000000 0.000000 0.000000 0.034465
#
#
# Mechanical properties :
#
#
# Convention : Reuss Voigt Hill
#
# Bulk Modulus (GPa) = 54.48466 55.64137 55.06302
# Shear Modulus (GPa) = 23.94831 78.40811 51.17821
#
# Velocity S-wave (km/s) = 3.45304 6.24805 5.04785
# Velocity P-wave (km/s) = 6.55934 8.93049 7.83513
#
# Compressibility (1/GPa) = 0.01835379
#
# Stress axis : x y z
#
# Youngs Moduli (GPa) = 78.81156 46.73652 86.13567
#
# Poissons Ratio (x) = 0.40257 0.00825
# Poissons Ratio (y) = 0.67885 0.42733
# Poissons Ratio (z) = 0.00754 0.23186
#
# Static dielectric constant tensor:
#      x y z
#    x 1.729040 0.000000 0.000000 
#    y 0.000000 1.757170 0.000000 
#    z 0.000000 0.000000 1.734180 
# 
# From -- ./inp_files/32685.got.cif
#   From: 2010.05.17/outbox.cif.g08.bks.cpg/sg74_17_cif.got.tgz:32685.got - 2010.06.03 17:57:02.
