data_PCOD9539669
_publ_section_title
;
Structure prediction by ZEFSAII (Michael W. Deem and Ramdas Pophale) SiO2 
 PCOD9539669
Probable space group: I M M A
;
_chemical_formula_sum "Si O2"
_cell_formula_units_Z 68
_cell_length_a 10.793857
_cell_length_b 14.662152
_cell_length_c 19.446394
_cell_angle_alpha 90.000000
_cell_angle_beta 90.000000
_cell_angle_gamma 90.000000
_cell_volume 3077.609106
_symmetry_space_group_name_H-M "I M M A"
_symmetry_group_IT_number 74
_symmetry_cell_setting 'orthorhombic'
loop_
_space_group_symop_operation_xyz
x,y,z
-x,1/2-y,z
x,-y,-z
-x,1/2+y,-z
-x,-y,-z
x,1/2+y,-z
-x,y,z
x,1/2-y,z
1/2+x,1/2+y,1/2+z
1/2-x,-y,1/2+z
1/2+x,1/2-y,1/2-z
1/2-x,y,1/2-z
1/2-x,1/2-y,1/2-z
1/2+x,y,1/2-z
1/2-x,1/2+y,1/2+z
1/2+x,-y,1/2+z
loop_
_atom_site_type_symbol
_atom_site_label
_atom_site_fract_x
_atom_site_fract_y
_atom_site_fract_z
Si Si1 0.707522 0.106437 0.676372
Si Si2 0.000000 0.750000 0.133956
Si Si3 0.138206 0.138798 0.550753
Si Si4 0.364114 0.643786 0.540813
Si Si5 0.639661 0.397560 0.300307
O O1 0.750000 0.144305 0.750000
O O2 0.607993 0.170716 0.640150
O O3 0.824135 0.101739 0.625425
O O4 0.652646 0.006779 0.691116
O O5 0.139250 0.250000 0.553839
O O6 0.245429 0.107191 0.498795
O O7 0.000000 0.111330 0.530506
O O8 0.500000 0.603113 0.524974
O O9 0.372912 0.750000 0.520155
O O10 0.346229 0.639737 0.622523
O O11 0.500000 0.375125 0.276095
O O12 0.750000 0.367354 0.250000
#
# Coordination Sequence:
#
# PCOD9539669 Si02
#       5
#    16   4  16  16  16
#     4  11  24  36  57  84 115 153 196 234 279 334
#     4  12  22  36  58  82 114 156 200 222 284 336
#     4  10  22  37  57  85 118 150 190 239 283 332
#     4   9  20  39  63  85 111 149 192 231 282 344
#     4  10  22  40  59  86 118 147 186 239 284 334
#
# _framework density 22.095071999999998
#
# number of rings (size 3 to 8) (size 9 to 14) (size 15 to 20)
#    0.000    1.882    2.353    0.353    3.294    3.294 
#    0.000    3.529    0.000    0.000    0.000    0.000 
#    0.000    0.000    0.000    0.000    0.000    0.000 
#
# Total GULP energy -189515.795312 kJ/mol
# GULP energy per Si atom -5573.993980 kJ/mol
# Density = 2.204478 g / cm^3
# Si number density = 22.095072 Si / 1000 Ang^3
#
#
#
# Elastic Constant Matrix: (Units=GPa)
#
#
# Indices 1 2 3 4 5 6 
#
# 1 227.9639 7.2664 99.7706 0.0000 0.0000 0.0000
# 2 7.2664 52.2627 -1.3625 0.0000 0.0000 0.0000
# 3 99.7706 -1.3625 99.4639 0.0000 0.0000 0.0000
# 4 0.0000 0.0000 0.0000 18.9492 0.0000 0.0000
# 5 0.0000 0.0000 0.0000 0.0000 3.6629 0.0000
# 6 0.0000 0.0000 0.0000 0.0000 0.0000 -63.7233
#
#
#
# Elastic Compliance Matrix: (Units=1/GPa)
#
#
# Indices 1 2 3 4 5 6 
#
# 1 0.007908 -0.001307 -0.007950 0.000000 0.000000 0.000000
# 2 -0.001307 0.019357 0.001576 0.000000 0.000000 0.000000
# 3 -0.007950 0.001576 0.018050 0.000000 0.000000 0.000000
# 4 0.000000 0.000000 0.000000 0.052773 0.000000 0.000000
# 5 0.000000 0.000000 0.000000 0.000000 0.273008 0.000000
# 6 0.000000 0.000000 0.000000 0.000000 0.000000 -0.015693
#
#
# Mechanical properties :
#
#
# Convention : Reuss Voigt Hill
#
# Bulk Modulus (GPa) = 33.38570 65.67106 49.52838
# Shear Modulus (GPa) = 13.13205 10.04551 11.58878
#
# Velocity S-wave (km/s) = 2.44056 2.13456 2.29267
# Velocity P-wave (km/s) = 4.80464 5.98847 5.42892
#
# Compressibility (1/GPa) = 0.02995294
#
# Stress axis : x y z
#
# Youngs Moduli (GPa) = 126.45905 51.66128 55.40173
#
# Poissons Ratio (x) = 0.06751 0.44044
# Poissons Ratio (y) = 0.16525 -0.08731
# Poissons Ratio (z) = 1.00535 -0.08141
#
# Static dielectric constant tensor:
#      x y z
#    x 1.821650 0.000000 0.000000 
#    y 0.000000 1.829540 0.000000 
#    z 0.000000 0.000000 1.815870 
# 
# From -- ./inp_files/40975.got.cif
#   From: 2010.05.17/outbox.cif.g08.bks.cpg/sg74_21_cif.got.tgz:40975.got - 2010.06.03 17:57:02.
