data_PCOD9539392
_publ_section_title
;
Structure prediction by ZEFSAII (Michael W. Deem and Ramdas Pophale) SiO2 
 PCOD9539392
Probable space group: I M M A
;
_chemical_formula_sum "Si O2"
_cell_formula_units_Z 88
_cell_length_a 24.838219
_cell_length_b 31.349243
_cell_length_c 5.121315
_cell_angle_alpha 90.000000
_cell_angle_beta 90.000000
_cell_angle_gamma 90.000000
_cell_volume 3987.759876
_symmetry_space_group_name_H-M "I M M A"
_symmetry_group_IT_number 74
_symmetry_cell_setting 'orthorhombic'
loop_
_space_group_symop_operation_xyz
x,y,z
-x,1/2-y,z
x,-y,-z
-x,1/2+y,-z
-x,-y,-z
x,1/2+y,-z
-x,y,z
x,1/2-y,z
1/2+x,1/2+y,1/2+z
1/2-x,-y,1/2+z
1/2+x,1/2-y,1/2-z
1/2-x,y,1/2-z
1/2-x,1/2-y,1/2-z
1/2+x,y,1/2-z
1/2-x,1/2+y,1/2+z
1/2+x,-y,1/2+z
loop_
_atom_site_type_symbol
_atom_site_label
_atom_site_fract_x
_atom_site_fract_y
_atom_site_fract_z
Si Si1 0.348154 0.419718 0.108644
Si Si2 0.625032 0.298691 0.770944
Si Si3 0.438946 0.618788 0.268176
Si Si4 0.814085 0.830460 0.787697
Si Si5 0.555978 0.541843 0.672584
Si Si6 0.250000 0.526460 0.750000
O O1 0.334409 0.379627 0.296061
O O2 0.387566 0.457640 0.190790
O O3 0.291552 0.443354 0.091122
O O4 0.387107 0.398994 0.890392
O O5 0.606698 0.250000 0.772290
O O6 0.577841 0.332069 0.696432
O O7 0.669783 0.306467 0.549686
O O8 0.653292 0.309912 0.046250
O O9 0.500000 0.618444 0.152458
O O10 0.442895 0.586199 0.510711
O O11 0.750000 0.829794 0.750000
O O12 0.554237 0.500000 0.500000
O O13 0.500000 0.541756 0.831209
O O14 0.274129 0.500000 0.500000
#
# Coordination Sequence:
#
# PCOD9539392 Si02
#       6
#    16  16  16  16  16   8
#     4  11  23  42  64  94 136 177 228 275 340 410
#     4  11  24  42  67  98 132 172 225 282 344 409
#     4  10  23  42  67  96 134 179 227 285 348 410
#     4  11  23  42  66  95 132 180 223 277 336 405
#     4  10  21  38  64  95 128 170 222 277 334 398
#     4  12  30  44  68 102 139 186 233 282 344 408
#
# _framework density 22.067525
#
# number of rings (size 3 to 8) (size 9 to 14) (size 15 to 20)
#    0.000    1.273    2.727    2.182    5.091    2.545 
#    0.000    2.727    0.000    2.182    0.000    0.000 
#    0.000    0.000    0.000    0.000    0.000    0.000 
#
# Total GULP energy -245056.334772 kJ/mol
# GULP energy per Si atom -5569.462154 kJ/mol
# Density = 2.201730 g / cm^3
# Si number density = 22.067525 Si / 1000 Ang^3
#
#
#
# Elastic Constant Matrix: (Units=GPa)
#
#
# Indices 1 2 3 4 5 6 
#
# 1 123.7575 40.3856 6.4968 0.0000 0.0000 0.0000
# 2 40.3856 140.4732 19.6293 0.0000 0.0000 0.0000
# 3 6.4968 19.6293 38.8232 0.0000 0.0000 0.0000
# 4 0.0000 0.0000 0.0000 11.5492 0.0000 0.0000
# 5 0.0000 0.0000 0.0000 0.0000 34.4951 0.0000
# 6 0.0000 0.0000 0.0000 0.0000 0.0000 38.9146
#
#
#
# Elastic Compliance Matrix: (Units=1/GPa)
#
#
# Indices 1 2 3 4 5 6 
#
# 1 0.008918 -0.002535 -0.000211 0.000000 0.000000 0.000000
# 2 -0.002535 0.008380 -0.003813 0.000000 0.000000 0.000000
# 3 -0.000211 -0.003813 0.027721 0.000000 0.000000 0.000000
# 4 0.000000 0.000000 0.000000 0.086586 0.000000 0.000000
# 5 0.000000 0.000000 0.000000 0.000000 0.028990 0.000000
# 6 0.000000 0.000000 0.000000 0.000000 0.000000 0.025697
#
#
# Mechanical properties :
#
#
# Convention : Reuss Voigt Hill
#
# Bulk Modulus (GPa) = 31.34527 48.45305 39.89916
# Shear Modulus (GPa) = 23.80454 32.76126 28.28290
#
# Velocity S-wave (km/s) = 3.28794 3.85722 3.58390
# Velocity P-wave (km/s) = 5.35249 6.46853 5.93680
#
# Compressibility (1/GPa) = 0.03190274
#
# Stress axis : x y z
#
# Youngs Moduli (GPa) = 112.12658 119.32756 36.07372
#
# Poissons Ratio (x) = 0.30244 0.00761
# Poissons Ratio (y) = 0.28419 0.13755
# Poissons Ratio (z) = 0.02366 0.45500
#
# Static dielectric constant tensor:
#      x y z
#    x 1.825350 0.000000 0.000000 
#    y 0.000000 1.847130 0.000000 
#    z 0.000000 0.000000 1.901920 
# 
# From -- ./inp_files/3932.got.cif
#   From: 2010.05.17/outbox.cif.g08.bks.cpg/sg74_2_cif.got.tgz:3932.got - 2010.06.03 17:57:02.
