data_PCOD9539166
_publ_section_title
;
Structure prediction by ZEFSAII (Michael W. Deem and Ramdas Pophale) SiO2 
 PCOD9539166
Probable space group: I M M A
;
_chemical_formula_sum "Si O2"
_cell_formula_units_Z 88
_cell_length_a 15.719712
_cell_length_b 20.400115
_cell_length_c 13.045450
_cell_angle_alpha 90.000000
_cell_angle_beta 90.000000
_cell_angle_gamma 90.000000
_cell_volume 4183.466208
_symmetry_space_group_name_H-M "I M M A"
_symmetry_group_IT_number 74
_symmetry_cell_setting 'orthorhombic'
loop_
_space_group_symop_operation_xyz
x,y,z
-x,1/2-y,z
x,-y,-z
-x,1/2+y,-z
-x,-y,-z
x,1/2+y,-z
-x,y,z
x,1/2-y,z
1/2+x,1/2+y,1/2+z
1/2-x,-y,1/2+z
1/2+x,1/2-y,1/2-z
1/2-x,y,1/2-z
1/2-x,1/2-y,1/2-z
1/2+x,y,1/2-z
1/2-x,1/2+y,1/2+z
1/2+x,-y,1/2+z
loop_
_atom_site_type_symbol
_atom_site_label
_atom_site_fract_x
_atom_site_fract_y
_atom_site_fract_z
Si Si1 0.097691 0.430122 0.371733
Si Si2 0.398532 0.928756 0.199573
Si Si3 0.856233 0.325315 0.545872
Si Si4 0.250000 0.133557 0.250000
Si Si5 0.899347 0.556658 0.069846
Si Si6 0.169198 0.679736 0.957860
O O1 0.114350 0.508706 0.376278
O O2 0.103874 0.378562 0.466133
O O3 0.172903 0.407051 0.298006
O O4 0.000000 0.424883 0.332393
O O5 0.500000 0.921630 0.207265
O O6 0.366463 0.860680 0.154140
O O7 0.364299 0.941462 0.314409
O O8 0.889159 0.250000 0.538450
O O9 0.756832 0.322113 0.521011
O O10 0.203577 0.171833 0.158088
O O11 0.000000 0.543404 0.080854
O O12 0.859035 0.500000 0.000000
O O13 0.886410 0.622024 0.004182
O O14 0.126465 0.750000 0.968689
#
# Coordination Sequence:
#
# PCOD9539166 Si02
#       6
#    16  16  16   8  16  16
#     4  10  21  38  60  87 118 155 200 246 296 356
#     4  10  21  37  59  86 116 151 195 245 292 349
#     4  10  22  38  57  86 122 156 193 240 295 354
#     4  10  21  38  62  88 119 156 196 250 303 348
#     4  10  22  40  60  84 116 153 195 245 298 352
#     4  10  22  39  58  83 117 154 195 244 294 352
#
# _framework density 21.035188000000002
#
# number of rings (size 3 to 8) (size 9 to 14) (size 15 to 20)
#    0.000    2.000    0.000    2.455    0.000   12.000 
#    0.000    3.636    0.000    0.000    0.000    0.000 
#    0.000    0.000    0.000    0.000    0.000    0.000 
#
# Total GULP energy -245212.376282 kJ/mol
# GULP energy per Si atom -5573.008552 kJ/mol
# Density = 2.098731 g / cm^3
# Si number density = 21.035188 Si / 1000 Ang^3
#
#
#
# Elastic Constant Matrix: (Units=GPa)
#
#
# Indices 1 2 3 4 5 6 
#
# 1 28.3744 -2.7990 4.4185 0.0000 0.0000 0.0000
# 2 -2.7990 149.3969 66.5072 0.0000 0.0000 0.0000
# 3 4.4185 66.5072 124.5267 0.0000 0.0000 0.0000
# 4 0.0000 0.0000 0.0000 -40.0518 0.0000 0.0000
# 5 0.0000 0.0000 0.0000 0.0000 -50.0920 0.0000
# 6 0.0000 0.0000 0.0000 0.0000 0.0000 -19.6068
#
#
#
# Elastic Compliance Matrix: (Units=1/GPa)
#
#
# Indices 1 2 3 4 5 6 
#
# 1 0.035735 0.001619 -0.002133 0.000000 0.000000 0.000000
# 2 0.001619 0.008855 -0.004787 0.000000 0.000000 0.000000
# 3 -0.002133 -0.004787 0.010662 0.000000 0.000000 0.000000
# 4 0.000000 0.000000 0.000000 -0.024968 0.000000 0.000000
# 5 0.000000 0.000000 0.000000 0.000000 -0.019963 0.000000
# 6 0.000000 0.000000 0.000000 0.000000 0.000000 -0.051003
#
#
# Mechanical properties :
#
#
# Convention : Reuss Voigt Hill
#
# Bulk Modulus (GPa) = 22.39568 48.72794 35.56181
# Shear Modulus (GPa) = -329.00882 -6.33871 -167.67376
#
# Velocity S-wave (km/s) = -12.51992 -1.73779 -8.93779
# Velocity P-wave (km/s) = 14.08289 4.38049 9.46412
#
# Compressibility (1/GPa) = 0.04465146
#
# Stress axis : x y z
#
# Youngs Moduli (GPa) = 27.98393 112.93361 93.78664
#
# Poissons Ratio (x) = -0.18282 0.20001
# Poissons Ratio (y) = -0.04530 0.44892
# Poissons Ratio (z) = 0.05968 0.54057
#
# Static dielectric constant tensor:
#      x y z
#    x 1.745120 0.000000 0.000000 
#    y 0.000000 1.767810 0.000000 
#    z 0.000000 0.000000 1.809420 
# 
# From -- ./inp_files/22180.got.cif
#   From: 2010.05.17/outbox.cif.g08.bks.cpg/sg74_12_cif.got.tgz:22180.got - 2010.06.03 17:57:02.
