data_PCOD9539659
_publ_section_title
;
Structure prediction by ZEFSAII (Michael W. Deem and Ramdas Pophale) SiO2 
 PCOD9539659
Probable space group: I M M A
;
_chemical_formula_sum "Si O2"
_cell_formula_units_Z 88
_cell_length_a 17.023927
_cell_length_b 10.273552
_cell_length_c 30.072318
_cell_angle_alpha 90.000000
_cell_angle_beta 90.000000
_cell_angle_gamma 90.000000
_cell_volume 5259.534122
_symmetry_space_group_name_H-M "I M M A"
_symmetry_group_IT_number 74
_symmetry_cell_setting 'orthorhombic'
loop_
_space_group_symop_operation_xyz
x,y,z
-x,1/2-y,z
x,-y,-z
-x,1/2+y,-z
-x,-y,-z
x,1/2+y,-z
-x,y,z
x,1/2-y,z
1/2+x,1/2+y,1/2+z
1/2-x,-y,1/2+z
1/2+x,1/2-y,1/2-z
1/2-x,y,1/2-z
1/2-x,1/2-y,1/2-z
1/2+x,y,1/2-z
1/2-x,1/2+y,1/2+z
1/2+x,-y,1/2+z
loop_
_atom_site_type_symbol
_atom_site_label
_atom_site_fract_x
_atom_site_fract_y
_atom_site_fract_z
Si Si1 0.824334 0.598737 0.541645
Si Si2 0.092501 0.250000 0.647084
Si Si3 0.909149 0.750000 0.779488
Si Si4 0.407641 0.750000 0.828060
Si Si5 0.310819 0.005212 0.133140
Si Si6 0.592872 0.750000 0.254528
Si Si7 0.311141 0.496313 0.710132
Si Si8 0.500000 0.392400 0.036874
O O1 0.817370 0.500000 0.500000
O O2 0.807867 0.750000 0.529994
O O3 0.779206 0.550844 0.585176
O O4 0.915571 0.596219 0.559290
O O5 0.134335 0.121313 0.628910
O O6 0.101673 0.250000 0.700885
O O7 0.000000 0.250000 0.636801
O O8 0.906109 0.750000 0.725516
O O9 0.864673 0.622398 0.795962
O O10 0.000000 0.750000 0.792479
O O11 0.500000 0.750000 0.842082
O O12 0.361275 0.623122 0.845236
O O13 0.240637 0.970694 0.166673
O O14 0.500000 0.750000 0.264022
O O15 0.635632 0.875829 0.274509
O O16 0.250000 0.522979 0.750000
O O17 0.500000 0.250000 0.015112
O O18 0.500000 0.500000 0.000000
#
# Coordination Sequence:
#
# PCOD9539659 Si02
#       8
#    16   8   8   8  16   8  16   8
#     4  10  22  37  53  75 104 142 187 230 277 326
#     4  11  23  35  50  80 111 147 194 233 272 321
#     4  11  22  36  54  82 113 149 186 225 268 328
#     4  11  21  33  52  76 109 149 190 223 268 323
#     4  12  23  35  54  78 108 149 184 236 280 323
#     4  11  22  40  58  76 113 155 192 231 270 322
#     4  12  21  36  56  81 114 146 185 229 278 328
#     4   8  16  32  50  66  92 132 176 220 260 300
#
# _framework density 16.73152
#
# number of rings (size 3 to 8) (size 9 to 14) (size 15 to 20)
#    0.000    1.091    4.545    2.727    3.818    2.909 
#    0.000    0.000    0.000    0.000    0.000    0.000 
#    0.000    4.364    0.000    0.000    0.000    0.000 
#
# Total GULP energy -245643.616533 kJ/mol
# GULP energy per Si atom -5582.809467 kJ/mol
# Density = 1.669344 g / cm^3
# Si number density = 16.731520 Si / 1000 Ang^3
#
#
#
# Elastic Constant Matrix: (Units=GPa)
#
#
# Indices 1 2 3 4 5 6 
#
# 1 67.6537 34.6581 10.8396 0.0000 0.0000 0.0000
# 2 34.6581 127.8966 9.0711 0.0000 0.0000 0.0000
# 3 10.8396 9.0711 61.4923 0.0000 0.0000 0.0000
# 4 0.0000 0.0000 0.0000 8.5846 0.0000 0.0000
# 5 0.0000 0.0000 0.0000 0.0000 18.4547 0.0000
# 6 0.0000 0.0000 0.0000 0.0000 0.0000 29.1247
#
#
#
# Elastic Compliance Matrix: (Units=1/GPa)
#
#
# Indices 1 2 3 4 5 6 
#
# 1 0.017511 -0.004574 -0.002412 0.000000 0.000000 0.000000
# 2 -0.004574 0.009096 -0.000536 0.000000 0.000000 0.000000
# 3 -0.002412 -0.000536 0.016766 0.000000 0.000000 0.000000
# 4 0.000000 0.000000 0.000000 0.116487 0.000000 0.000000
# 5 0.000000 0.000000 0.000000 0.000000 0.054187 0.000000
# 6 0.000000 0.000000 0.000000 0.000000 0.000000 0.034335
#
#
# Mechanical properties :
#
#
# Convention : Reuss Voigt Hill
#
# Bulk Modulus (GPa) = 35.29793 40.68668 37.99231
# Shear Modulus (GPa) = 18.32380 24.73107 21.52744
#
# Velocity S-wave (km/s) = 3.31292 3.84879 3.59087
# Velocity P-wave (km/s) = 5.98134 6.64237 6.32050
#
# Compressibility (1/GPa) = 0.02833028
#
# Stress axis : x y z
#
# Youngs Moduli (GPa) = 57.10738 109.93455 59.64316
#
# Poissons Ratio (x) = 0.50285 0.14386
# Poissons Ratio (y) = 0.26122 0.03194
# Poissons Ratio (z) = 0.13774 0.05887
#
# Static dielectric constant tensor:
#      x y z
#    x 1.565930 0.000000 0.000000 
#    y 0.000000 1.491310 0.000000 
#    z 0.000000 0.000000 1.564690 
# 
# From -- ./inp_files/73048.got.cif
#   From: 2010.05.17/outbox.cif.g08.bks.cpg/sg74_37_cif.got.tgz:73048.got - 2010.06.03 17:57:02.
