data_PCOD9539819
_publ_section_title
;
Structure prediction by ZEFSAII (Michael W. Deem and Ramdas Pophale) SiO2 
 PCOD9539819
Probable space group: I M M A
;
_chemical_formula_sum "Si O2"
_cell_formula_units_Z 104
_cell_length_a 25.715778
_cell_length_b 17.750905
_cell_length_c 12.847217
_cell_angle_alpha 90.000000
_cell_angle_beta 90.000000
_cell_angle_gamma 90.000000
_cell_volume 5864.476191
_symmetry_space_group_name_H-M "I M M A"
_symmetry_group_IT_number 74
_symmetry_cell_setting 'orthorhombic'
loop_
_space_group_symop_operation_xyz
x,y,z
-x,1/2-y,z
x,-y,-z
-x,1/2+y,-z
-x,-y,-z
x,1/2+y,-z
-x,y,z
x,1/2-y,z
1/2+x,1/2+y,1/2+z
1/2-x,-y,1/2+z
1/2+x,1/2-y,1/2-z
1/2-x,y,1/2-z
1/2-x,1/2-y,1/2-z
1/2+x,y,1/2-z
1/2-x,1/2+y,1/2+z
1/2+x,-y,1/2+z
loop_
_atom_site_type_symbol
_atom_site_label
_atom_site_fract_x
_atom_site_fract_y
_atom_site_fract_z
Si Si1 0.000000 0.164055 0.005386
Si Si2 0.250000 0.074917 0.250000
Si Si3 0.594728 0.435183 0.415911
Si Si4 0.199008 0.159894 0.063356
Si Si5 0.229876 0.164681 0.632019
Si Si6 0.441469 0.481259 0.794850
Si Si7 0.500000 0.837385 0.255600
Si Si8 0.331272 0.020263 0.883187
O O1 0.950626 0.119189 0.045597
O O2 0.000000 0.250000 0.041936
O O3 0.000000 0.164000 0.880437
O O4 0.235839 0.128331 0.153697
O O5 0.296827 0.022913 0.204521
O O6 0.603565 0.500000 0.500000
O O7 0.646067 0.384576 0.414113
O O8 0.575656 0.476710 0.311124
O O9 0.191784 0.250000 0.068869
O O10 0.225172 0.142344 0.950977
O O11 0.214918 0.250000 0.605224
O O12 0.250000 0.163080 0.750000
O O13 0.182380 0.107788 0.627019
O O14 0.500000 0.508330 0.825657
O O15 0.451613 0.391363 0.777288
O O16 0.392470 0.494169 0.868914
O O17 0.500000 0.750000 0.219448
O O18 0.314403 0.000000 0.000000
#
# Coordination Sequence:
#
# PCOD9539819 Si02
#       8
#     8   8  16  16  16  16   8  16
#     4  11  20  34  56  86 123 159 200 247 308 369
#     4  12  23  40  67  90 122 160 208 258 305 372
#     4  12  21  35  58  89 122 159 200 253 304 365
#     4  11  25  41  60  90 125 166 208 253 312 372
#     4  10  23  40  59  91 132 165 201 253 313 374
#     4  10  22  40  61  87 116 161 202 253 310 364
#     4   9  19  37  58  87 120 157 199 247 308 368
#     4  12  24  40  66  94 119 162 210 260 318 376
#
# _framework density 17.733893999999999
#
# number of rings (size 3 to 8) (size 9 to 14) (size 15 to 20)
#    0.462    0.615    6.154    0.923    4.308    0.923 
#    0.000    0.000    0.000    0.000    0.000    0.000 
#    0.000    0.000    0.000    0.000    0.000    0.000 
#
# Total GULP energy -289786.068432 kJ/mol
# GULP energy per Si atom -5572.809008 kJ/mol
# Density = 1.769353 g / cm^3
# Si number density = 17.733894 Si / 1000 Ang^3
#
#
#
# Elastic Constant Matrix: (Units=GPa)
#
#
# Indices 1 2 3 4 5 6 
#
# 1 96.9123 31.6598 19.2849 0.0000 0.0000 0.0000
# 2 31.6598 86.3839 17.4032 0.0000 0.0000 0.0000
# 3 19.2849 17.4032 69.6788 0.0000 0.0000 0.0000
# 4 0.0000 0.0000 0.0000 25.7510 0.0000 0.0000
# 5 0.0000 0.0000 0.0000 0.0000 27.2825 0.0000
# 6 0.0000 0.0000 0.0000 0.0000 0.0000 37.2978
#
#
#
# Elastic Compliance Matrix: (Units=1/GPa)
#
#
# Indices 1 2 3 4 5 6 
#
# 1 0.012079 -0.003952 -0.002356 0.000000 0.000000 0.000000
# 2 -0.003952 0.013483 -0.002274 0.000000 0.000000 0.000000
# 3 -0.002356 -0.002274 0.015571 0.000000 0.000000 0.000000
# 4 0.000000 0.000000 0.000000 0.038833 0.000000 0.000000
# 5 0.000000 0.000000 0.000000 0.000000 0.036653 0.000000
# 6 0.000000 0.000000 0.000000 0.000000 0.000000 0.026811
#
#
# Mechanical properties :
#
#
# Convention : Reuss Voigt Hill
#
# Bulk Modulus (GPa) = 41.71988 43.29677 42.50832
# Shear Modulus (GPa) = 29.65880 30.37475 30.01678
#
# Velocity S-wave (km/s) = 4.09398 4.14310 4.11861
# Velocity P-wave (km/s) = 6.77673 6.88148 6.82931
#
# Compressibility (1/GPa) = 0.02396939
#
# Stress axis : x y z
#
# Youngs Moduli (GPa) = 82.79159 74.16879 64.22004
#
# Poissons Ratio (x) = 0.29313 0.15129
# Poissons Ratio (y) = 0.32721 0.14601
# Poissons Ratio (z) = 0.19504 0.16863
#
# Static dielectric constant tensor:
#      x y z
#    x 1.654900 0.000000 0.000000 
#    y 0.000000 1.616730 0.000000 
#    z 0.000000 0.000000 1.602800 
# 
# From -- ./inp_files/26382.got.cif
#   From: 2010.05.17/outbox.cif.g08.bks.cpg/sg74_14_cif.got.tgz:26382.got - 2010.06.03 17:57:02.
