data_PCOD9539764
_publ_section_title
;
Structure prediction by ZEFSAII (Michael W. Deem and Ramdas Pophale) SiO2 
 PCOD9539764
Probable space group: I M M A
;
_chemical_formula_sum "Si O2"
_cell_formula_units_Z 80
_cell_length_a 25.641582
_cell_length_b 18.878671
_cell_length_c 8.290210
_cell_angle_alpha 90.000000
_cell_angle_beta 90.000000
_cell_angle_gamma 90.000000
_cell_volume 4013.116488
_symmetry_space_group_name_H-M "I M M A"
_symmetry_group_IT_number 74
_symmetry_cell_setting 'orthorhombic'
loop_
_space_group_symop_operation_xyz
x,y,z
-x,1/2-y,z
x,-y,-z
-x,1/2+y,-z
-x,-y,-z
x,1/2+y,-z
-x,y,z
x,1/2-y,z
1/2+x,1/2+y,1/2+z
1/2-x,-y,1/2+z
1/2+x,1/2-y,1/2-z
1/2-x,y,1/2-z
1/2-x,1/2-y,1/2-z
1/2+x,y,1/2-z
1/2-x,1/2+y,1/2+z
1/2+x,-y,1/2+z
loop_
_atom_site_type_symbol
_atom_site_label
_atom_site_fract_x
_atom_site_fract_y
_atom_site_fract_z
Si Si1 0.188259 0.666648 0.453990
Si Si2 0.348197 0.045867 0.152564
Si Si3 0.058853 0.534048 0.176973
Si Si4 0.713754 0.623037 0.608253
Si Si5 0.626225 0.170570 0.622938
O O1 0.195544 0.750000 0.489016
O O2 0.150514 0.625567 0.580025
O O3 0.243161 0.625330 0.468483
O O4 0.163709 0.662615 0.277860
O O5 0.308336 0.052733 0.303194
O O6 0.401473 0.011516 0.214147
O O7 0.329848 0.000000 0.000000
O O8 0.082677 0.611597 0.148528
O O9 0.000000 0.535685 0.241704
O O10 0.058040 0.500000 0.000000
O O11 0.750000 0.657445 0.750000
O O12 0.662421 0.658239 0.533935
O O13 0.605156 0.250000 0.619878
#
# Coordination Sequence:
#
# PCOD9539764 Si02
#       5
#    16  16  16  16  16
#     4  10  22  41  63  95 135 175 211 252 314 382
#     4  11  22  42  63  95 126 171 214 260 316 372
#     4  11  24  46  69  90 122 165 215 269 333 377
#     4  10  22  39  60  92 128 173 206 246 301 376
#     4  11  22  41  68  95 129 168 214 262 314 384
#
# _framework density 19.934632000000001
#
# number of rings (size 3 to 8) (size 9 to 14) (size 15 to 20)
#    0.000    1.400    4.000    1.200    0.000    9.600 
#   21.600    0.000    0.000    0.600    0.000    0.000 
#    0.000    0.000    0.000    0.000    0.000    0.000 
#
# Total GULP energy -222867.180983 kJ/mol
# GULP energy per Si atom -5571.679525 kJ/mol
# Density = 1.988926 g / cm^3
# Si number density = 19.934632 Si / 1000 Ang^3
#
#
#
# Elastic Constant Matrix: (Units=GPa)
#
#
# Indices 1 2 3 4 5 6 
#
# 1 125.8533 97.5404 35.4707 0.0000 0.0000 0.0000
# 2 97.5404 111.3803 52.9564 0.0000 0.0000 0.0000
# 3 35.4707 52.9564 60.2086 0.0000 0.0000 0.0000
# 4 0.0000 0.0000 0.0000 35.8148 0.0000 0.0000
# 5 0.0000 0.0000 0.0000 0.0000 23.8285 0.0000
# 6 0.0000 0.0000 0.0000 0.0000 0.0000 1.6644
#
#
#
# Elastic Compliance Matrix: (Units=1/GPa)
#
#
# Indices 1 2 3 4 5 6 
#
# 1 0.026999 -0.027641 0.008405 0.000000 0.000000 0.000000
# 2 -0.027641 0.043729 -0.022178 0.000000 0.000000 0.000000
# 3 0.008405 -0.022178 0.031164 0.000000 0.000000 0.000000
# 4 0.000000 0.000000 0.000000 0.027921 0.000000 0.000000
# 5 0.000000 0.000000 0.000000 0.000000 0.041967 0.000000
# 6 0.000000 0.000000 0.000000 0.000000 0.000000 0.600817
#
#
# Mechanical properties :
#
#
# Convention : Reuss Voigt Hill
#
# Bulk Modulus (GPa) = 52.45112 74.37525 63.41319
# Shear Modulus (GPa) = 5.80195 19.69318 12.74757
#
# Velocity S-wave (km/s) = 1.70787 3.14648 2.53151
# Velocity P-wave (km/s) = 5.50070 7.11273 6.35802
#
# Compressibility (1/GPa) = 0.01906537
#
# Stress axis : x y z
#
# Youngs Moduli (GPa) = 37.03794 22.86809 32.08876
#
# Poissons Ratio (x) = 0.63209 -0.26972
# Poissons Ratio (y) = 1.02376 0.71166
# Poissons Ratio (z) = -0.31132 0.50716
#
# Static dielectric constant tensor:
#      x y z
#    x 1.702430 0.000000 0.000000 
#    y 0.000000 1.746540 0.000000 
#    z 0.000000 0.000000 1.791230 
# 
# From -- ./inp_files/14937.got.cif
#   From: 2010.05.17/outbox.cif.g08.bks.cpg/sg74_8_cif.got.tgz:14937.got - 2010.06.03 17:57:02.
