data_PCOD9539362
_publ_section_title
;
Structure prediction by ZEFSAII (Michael W. Deem and Ramdas Pophale) SiO2 
 PCOD9539362
Probable space group: I M M A
;
_chemical_formula_sum "Si O2"
_cell_formula_units_Z 100
_cell_length_a 29.660614
_cell_length_b 7.797995
_cell_length_c 20.591211
_cell_angle_alpha 90.000000
_cell_angle_beta 90.000000
_cell_angle_gamma 90.000000
_cell_volume 4762.609548
_symmetry_space_group_name_H-M "I M M A"
_symmetry_group_IT_number 74
_symmetry_cell_setting 'orthorhombic'
loop_
_space_group_symop_operation_xyz
x,y,z
-x,1/2-y,z
x,-y,-z
-x,1/2+y,-z
-x,-y,-z
x,1/2+y,-z
-x,y,z
x,1/2-y,z
1/2+x,1/2+y,1/2+z
1/2-x,-y,1/2+z
1/2+x,1/2-y,1/2-z
1/2-x,y,1/2-z
1/2-x,1/2-y,1/2-z
1/2+x,y,1/2-z
1/2-x,1/2+y,1/2+z
1/2+x,-y,1/2+z
loop_
_atom_site_type_symbol
_atom_site_label
_atom_site_fract_x
_atom_site_fract_y
_atom_site_fract_z
Si Si1 0.374689 0.545472 0.075110
Si Si2 0.052083 0.454021 0.930242
Si Si3 0.250000 0.250000 0.250000
Si Si4 0.796024 0.949115 0.188137
Si Si5 0.272849 0.955590 0.075139
Si Si6 0.948518 0.454597 0.318779
Si Si7 0.895055 0.051912 0.193607
O O1 0.372888 0.750000 0.081289
O O2 0.323692 0.479346 0.090587
O O3 0.414839 0.484080 0.121099
O O4 0.383202 0.500000 0.000000
O O5 0.054171 0.250000 0.921389
O O6 0.075025 0.543066 0.870205
O O7 0.000000 0.508490 0.931750
O O8 0.072679 0.500000 0.000000
O O9 0.212689 0.406330 0.242102
O O10 0.784705 0.750000 0.202438
O O11 0.764991 0.010987 0.127057
O O12 0.849076 0.955716 0.176856
O O13 0.273877 0.750000 0.079011
O O14 0.262765 0.000000 0.000000
O O15 0.952511 0.250000 0.310445
O O16 0.922989 0.522010 0.254558
O O17 0.000000 0.520984 0.326690
O O18 0.884579 0.250000 0.208096
#
# Coordination Sequence:
#
# PCOD9539362 Si02
#       7
#    16  16   4  16  16  16  16
#     4  10  21  39  62  90 119 157 203 252 309 372
#     4  10  21  38  62  91 124 167 216 266 321 381
#     4  12  26  44  64  94 126 176 214 258 320 386
#     4  11  25  43  64  96 130 167 215 266 316 379
#     4   9  21  39  63  91 124 162 205 259 315 372
#     4  10  23  41  62  88 121 162 207 258 314 375
#     4  11  23  41  63  93 128 168 211 260 323 385
#
# _framework density 20.996893
#
# number of rings (size 3 to 8) (size 9 to 14) (size 15 to 20)
#    0.000    1.760    0.800    2.160    3.360    4.800 
#    0.000    1.600    0.000    0.000    0.000    0.000 
#    0.000    0.000    0.000    0.000    0.000    0.000 
#
# Total GULP energy -278559.531683 kJ/mol
# GULP energy per Si atom -5571.190634 kJ/mol
# Density = 2.094910 g / cm^3
# Si number density = 20.996893 Si / 1000 Ang^3
#
#
#
# Elastic Constant Matrix: (Units=GPa)
#
#
# Indices 1 2 3 4 5 6 
#
# 1 159.2236 17.0112 86.4333 0.0000 0.0000 0.0000
# 2 17.0112 66.7307 6.4795 0.0000 0.0000 0.0000
# 3 86.4333 6.4795 112.4622 0.0000 0.0000 0.0000
# 4 0.0000 0.0000 0.0000 8.6021 0.0000 0.0000
# 5 0.0000 0.0000 0.0000 0.0000 31.4887 0.0000
# 6 0.0000 0.0000 0.0000 0.0000 0.0000 89.2384
#
#
#
# Elastic Compliance Matrix: (Units=1/GPa)
#
#
# Indices 1 2 3 4 5 6 
#
# 1 0.011036 -0.002001 -0.008366 0.000000 0.000000 0.000000
# 2 -0.002001 0.015433 0.000649 0.000000 0.000000 0.000000
# 3 -0.008366 0.000649 0.015285 0.000000 0.000000 0.000000
# 4 0.000000 0.000000 0.000000 0.116250 0.000000 0.000000
# 5 0.000000 0.000000 0.000000 0.000000 0.031757 0.000000
# 6 0.000000 0.000000 0.000000 0.000000 0.000000 0.011206
#
#
# Mechanical properties :
#
#
# Convention : Reuss Voigt Hill
#
# Bulk Modulus (GPa) = 44.81126 62.02939 53.42032
# Shear Modulus (GPa) = 21.94495 41.09867 31.52181
#
# Velocity S-wave (km/s) = 3.23639 4.42902 3.87881
# Velocity P-wave (km/s) = 5.94591 7.46734 6.74963
#
# Compressibility (1/GPa) = 0.02231582
#
# Stress axis : x y z
#
# Youngs Moduli (GPa) = 90.61340 64.79747 65.42556
#
# Poissons Ratio (x) = 0.12966 0.54738
# Poissons Ratio (y) = 0.18131 -0.04244
# Poissons Ratio (z) = 0.75811 -0.04203
#
# Static dielectric constant tensor:
#      x y z
#    x 1.179750 0.000000 0.000000 
#    y 0.000000 1.785290 0.000000 
#    z 0.000000 0.000000 1.764220 
# 
# From -- ./inp_files/55194.got.cif
#   From: 2010.05.17/outbox.cif.g08.bks.cpg/sg74_28_cif.got.tgz:55194.got - 2010.06.03 17:57:02.
