data_PCOD9539154
_publ_section_title
;
Structure prediction by ZEFSAII (Michael W. Deem and Ramdas Pophale) SiO2 
 PCOD9539154
Probable space group: I M M A
;
_chemical_formula_sum "Si O2"
_cell_formula_units_Z 112
_cell_length_a 24.369060
_cell_length_b 15.727488
_cell_length_c 14.915711
_cell_angle_alpha 90.000000
_cell_angle_beta 90.000000
_cell_angle_gamma 90.000000
_cell_volume 5716.656533
_symmetry_space_group_name_H-M "I M M A"
_symmetry_group_IT_number 74
_symmetry_cell_setting 'orthorhombic'
loop_
_space_group_symop_operation_xyz
x,y,z
-x,1/2-y,z
x,-y,-z
-x,1/2+y,-z
-x,-y,-z
x,1/2+y,-z
-x,y,z
x,1/2-y,z
1/2+x,1/2+y,1/2+z
1/2-x,-y,1/2+z
1/2+x,1/2-y,1/2-z
1/2-x,y,1/2-z
1/2-x,1/2-y,1/2-z
1/2+x,y,1/2-z
1/2-x,1/2+y,1/2+z
1/2+x,-y,1/2+z
loop_
_atom_site_type_symbol
_atom_site_label
_atom_site_fract_x
_atom_site_fract_y
_atom_site_fract_z
Si Si1 0.121401 0.842625 0.163600
Si Si2 0.651298 0.502509 0.899624
Si Si3 0.266102 0.848558 0.853823
Si Si4 0.562952 0.996875 0.257768
Si Si5 0.437930 0.849505 0.609230
Si Si6 0.703487 0.343824 0.823228
Si Si7 0.828761 0.100653 0.008397
O O1 0.096044 0.750000 0.143539
O O2 0.082191 0.924018 0.171738
O O3 0.149588 0.837745 0.260698
O O4 0.169227 0.859497 0.090710
O O5 0.686349 0.586846 0.881332
O O6 0.603527 0.496551 0.826371
O O7 0.692668 0.422053 0.888360
O O8 0.629283 0.500000 0.000000
O O9 0.282758 0.750000 0.859021
O O10 0.250000 0.866499 0.750000
O O11 0.214856 0.863355 0.920925
O O12 0.500000 0.981128 0.232453
O O13 0.566826 0.088075 0.306110
O O14 0.500000 0.860145 0.572765
O O15 0.430702 0.750000 0.631590
O O16 0.389761 0.877828 0.543499
O O17 0.713222 0.250000 0.863644
O O18 0.750000 0.362697 0.750000
O O19 0.820662 0.000000 0.000000
#
# Coordination Sequence:
#
# PCOD9539154 Si02
#       7
#    16  16  16  16  16  16  16
#     4  10  21  37  58  88 120 157 201 249 309 374
#     4  11  24  39  60  90 120 157 205 261 316 373
#     4  11  25  41  61  89 125 168 207 251 309 372
#     4  10  22  42  64  87 119 162 211 262 317 378
#     4  10  21  38  60  86 120 162 206 252 304 364
#     4   9  20  37  58  81 114 157 200 247 307 371
#     4  12  23  37  60  92 128 166 203 254 307 369
#
# _framework density 19.591871000000001
#
# number of rings (size 3 to 8) (size 9 to 14) (size 15 to 20)
#    0.000    1.571    1.429    3.000    6.000    3.714 
#    0.000    0.000    0.000    0.000    0.000    4.000 
#    0.000    0.000    0.000    0.000    0.000    0.000 
#
# Total GULP energy -312711.172217 kJ/mol
# GULP energy per Si atom -5584.128075 kJ/mol
# Density = 1.954728 g / cm^3
# Si number density = 19.591871 Si / 1000 Ang^3
#
#
#
# Elastic Constant Matrix: (Units=GPa)
#
#
# Indices 1 2 3 4 5 6 
#
# 1 77.2561 28.9854 31.3129 0.0000 0.0000 0.0000
# 2 28.9854 115.2113 44.9549 0.0000 0.0000 0.0000
# 3 31.3129 44.9549 86.1930 0.0000 0.0000 0.0000
# 4 0.0000 0.0000 0.0000 11.7323 0.0000 0.0000
# 5 0.0000 0.0000 0.0000 0.0000 14.5963 0.0000
# 6 0.0000 0.0000 0.0000 0.0000 0.0000 23.8176
#
#
#
# Elastic Compliance Matrix: (Units=1/GPa)
#
#
# Indices 1 2 3 4 5 6 
#
# 1 0.015592 -0.002150 -0.004543 0.000000 0.000000 0.000000
# 2 -0.002150 0.011194 -0.005057 0.000000 0.000000 0.000000
# 3 -0.004543 -0.005057 0.015890 0.000000 0.000000 0.000000
# 4 0.000000 0.000000 0.000000 0.085235 0.000000 0.000000
# 5 0.000000 0.000000 0.000000 0.000000 0.068511 0.000000
# 6 0.000000 0.000000 0.000000 0.000000 0.000000 0.041986
#
#
# Mechanical properties :
#
#
# Convention : Reuss Voigt Hill
#
# Bulk Modulus (GPa) = 52.15045 54.35188 53.25116
# Shear Modulus (GPa) = 18.63587 21.58970 20.11279
#
# Velocity S-wave (km/s) = 3.08751 3.32320 3.20752
# Velocity P-wave (km/s) = 6.27586 6.52128 6.39975
#
# Compressibility (1/GPa) = 0.01917529
#
# Stress axis : x y z
#
# Youngs Moduli (GPa) = 64.13562 89.33411 62.93286
#
# Poissons Ratio (x) = 0.19207 0.28590
# Poissons Ratio (y) = 0.13789 0.31827
# Poissons Ratio (z) = 0.29137 0.45178
#
# Static dielectric constant tensor:
#      x y z
#    x 1.695670 0.000000 0.000000 
#    y 0.000000 1.710110 0.000000 
#    z 0.000000 0.000000 1.703720 
# 
# From -- ./inp_files/36513.got.cif
#   From: 2010.05.17/outbox.cif.g08.bks.cpg/sg74_19_cif.got.tgz:36513.got - 2010.06.03 17:57:02.
