data_PCOD9539708
_publ_section_title
;
Structure prediction by ZEFSAII (Michael W. Deem and Ramdas Pophale) SiO2 
 PCOD9539708
Probable space group: I M M A
;
_chemical_formula_sum "Si O2"
_cell_formula_units_Z 64
_cell_length_a 8.163791
_cell_length_b 14.170649
_cell_length_c 28.652691
_cell_angle_alpha 90.000000
_cell_angle_beta 90.000000
_cell_angle_gamma 90.000000
_cell_volume 3314.721422
_symmetry_space_group_name_H-M "I M M A"
_symmetry_group_IT_number 74
_symmetry_cell_setting 'orthorhombic'
loop_
_space_group_symop_operation_xyz
x,y,z
-x,1/2-y,z
x,-y,-z
-x,1/2+y,-z
-x,-y,-z
x,1/2+y,-z
-x,y,z
x,1/2-y,z
1/2+x,1/2+y,1/2+z
1/2-x,-y,1/2+z
1/2+x,1/2-y,1/2-z
1/2-x,y,1/2-z
1/2-x,1/2-y,1/2-z
1/2+x,y,1/2-z
1/2-x,1/2+y,1/2+z
1/2+x,-y,1/2+z
loop_
_atom_site_type_symbol
_atom_site_label
_atom_site_fract_x
_atom_site_fract_y
_atom_site_fract_z
Si Si1 0.000000 0.361752 0.339505
Si Si2 0.316947 0.476297 0.801808
Si Si3 0.000000 0.364961 0.448547
Si Si4 0.305443 0.855990 0.386560
Si Si5 0.809292 0.864828 0.010018
O O1 0.845644 0.414105 0.315599
O O2 0.000000 0.389485 0.393990
O O3 0.000000 0.250000 0.334634
O O4 0.500000 0.435140 0.801919
O O5 0.250000 0.466943 0.750000
O O6 0.226044 0.423107 0.843084
O O7 0.831558 0.395267 0.473982
O O8 0.000000 0.250000 0.450654
O O9 0.500000 0.847642 0.391736
O O10 0.238338 0.750000 0.378492
O O11 0.252285 0.891603 0.437586
O O12 0.812264 0.750000 0.009892
O O13 0.000000 0.893503 0.000769
#
# Coordination Sequence:
#
# PCOD9539708 Si02
#       5
#     8  16   8  16  16
#     4   9  22  41  60  84 108 147 199 250 306 351
#     4  10  22  38  58  81 108 147 188 250 295 342
#     4   9  16  31  57  82 116 151 191 246 293 347
#     4   9  18  34  57  86 122 158 190 222 273 350
#     4   8  15  28  50  83 120 159 193 225 274 345
#
# _framework density 19.307805999999999
#
# number of rings (size 3 to 8) (size 9 to 14) (size 15 to 20)
#    0.750    2.250    0.000    2.250    1.750    1.500 
#    0.000    5.000    0.000    6.000    0.000    0.000 
#    0.000    0.000    0.000    0.000    0.000    0.000 
#
# Total GULP energy -178149.802491 kJ/mol
# GULP energy per Si atom -5567.181328 kJ/mol
# Density = 1.926386 g / cm^3
# Si number density = 19.307806 Si / 1000 Ang^3
#
#
#
# Elastic Constant Matrix: (Units=GPa)
#
#
# Indices 1 2 3 4 5 6 
#
# 1 48.9729 -0.5533 26.4903 0.0000 0.0000 0.0000
# 2 -0.5533 62.6482 0.4768 0.0000 0.0000 0.0000
# 3 26.4903 0.4768 54.6666 0.0000 0.0000 0.0000
# 4 0.0000 0.0000 0.0000 -79.8710 0.0000 0.0000
# 5 0.0000 0.0000 0.0000 0.0000 10.6385 0.0000
# 6 0.0000 0.0000 0.0000 0.0000 0.0000 -0.7748
#
#
#
# Elastic Compliance Matrix: (Units=1/GPa)
#
#
# Indices 1 2 3 4 5 6 
#
# 1 0.027681 0.000347 -0.013416 0.000000 0.000000 0.000000
# 2 0.000347 0.015968 -0.000307 0.000000 0.000000 0.000000
# 3 -0.013416 -0.000307 0.024797 0.000000 0.000000 0.000000
# 4 0.000000 0.000000 0.000000 -0.012520 0.000000 0.000000
# 5 0.000000 0.000000 0.000000 0.000000 0.093998 0.000000
# 6 0.000000 0.000000 0.000000 0.000000 0.000000 -1.290640
#
#
# Mechanical properties :
#
#
# Convention : Reuss Voigt Hill
#
# Bulk Modulus (GPa) = 23.98618 24.34614 24.16616
# Shear Modulus (GPa) = -4.54518 -4.67654 -4.61086
#
# Velocity S-wave (km/s) = -1.53596 -1.55800 -1.54702
# Velocity P-wave (km/s) = 3.05032 3.06600 3.05817
#
# Compressibility (1/GPa) = 0.04169067
#
# Stress axis : x y z
#
# Youngs Moduli (GPa) = 36.12642 62.62705 40.32791
#
# Poissons Ratio (x) = -0.02170 0.54106
# Poissons Ratio (y) = -0.01252 0.01239
# Poissons Ratio (z) = 0.48469 0.01924
#
# Static dielectric constant tensor:
#      x y z
#    x 1.683520 0.000000 0.000000 
#    y 0.000000 1.696810 0.000000 
#    z 0.000000 0.000000 1.732260 
# 
# From -- ./inp_files/48027.got.cif
#   From: 2010.05.17/outbox.cif.g08.bks.cpg/sg74_25_cif.got.tgz:48027.got - 2010.06.03 17:57:02.
