data_PCOD9539404
_publ_section_title
;
Structure prediction by ZEFSAII (Michael W. Deem and Ramdas Pophale) SiO2 
 PCOD9539404
Probable space group: I M M A
;
_chemical_formula_sum "Si O2"
_cell_formula_units_Z 116
_cell_length_a 18.542766
_cell_length_b 17.401304
_cell_length_c 18.425767
_cell_angle_alpha 90.000000
_cell_angle_beta 90.000000
_cell_angle_gamma 90.000000
_cell_volume 5945.411065
_symmetry_space_group_name_H-M "I M M A"
_symmetry_group_IT_number 74
_symmetry_cell_setting 'orthorhombic'
loop_
_space_group_symop_operation_xyz
x,y,z
-x,1/2-y,z
x,-y,-z
-x,1/2+y,-z
-x,-y,-z
x,1/2+y,-z
-x,y,z
x,1/2-y,z
1/2+x,1/2+y,1/2+z
1/2-x,-y,1/2+z
1/2+x,1/2-y,1/2-z
1/2-x,y,1/2-z
1/2-x,1/2-y,1/2-z
1/2+x,y,1/2-z
1/2-x,1/2+y,1/2+z
1/2+x,-y,1/2+z
loop_
_atom_site_type_symbol
_atom_site_label
_atom_site_fract_x
_atom_site_fract_y
_atom_site_fract_z
Si Si1 0.339216 0.939964 0.553707
Si Si2 0.818433 0.022378 0.416061
Si Si3 0.415102 0.425614 0.300921
Si Si4 0.831594 0.415622 0.777957
Si Si5 0.630698 0.364538 0.867822
Si Si6 0.818542 0.659701 0.695944
Si Si7 0.000000 0.250000 0.600100
Si Si8 0.709851 0.663116 0.424613
O O1 0.268945 0.984277 0.586376
O O2 0.387235 0.908736 0.617924
O O3 0.306807 0.875704 0.501257
O O4 0.377931 0.000000 0.500000
O O5 0.826289 0.104211 0.374754
O O6 0.835082 0.000000 0.500000
O O7 0.865057 0.957352 0.376072
O O8 0.500000 0.433322 0.298074
O O9 0.377022 0.506481 0.281436
O O10 0.386281 0.361296 0.246155
O O11 0.750000 0.432793 0.750000
O O12 0.862527 0.355731 0.718887
O O13 0.828204 0.377210 0.856476
O O14 0.563600 0.317553 0.897119
O O15 0.704697 0.340013 0.907274
O O16 0.813942 0.750000 0.677108
O O17 0.750000 0.641383 0.750000
O O18 0.685733 0.750000 0.427355
#
# Coordination Sequence:
#
# PCOD9539404 Si02
#       8
#    16  16  16  16  16  16   4  16
#     4  11  20  38  65  99 132 171 228 286 327 405
#     4  11  21  41  73 100 127 173 236 285 332 402
#     4  12  24  40  68 100 135 176 222 281 353 415
#     4  10  21  38  66  93 126 177 236 276 317 404
#     4  11  22  39  64  93 132 175 217 279 345 402
#     4  11  24  43  71 104 136 179 238 299 346 408
#     4  12  28  40  60 100 150 162 220 294 366 414
#     4  11  22  38  64  95 128 174 231 284 328 391
#
# _framework density 19.510846000000001
#
# number of rings (size 3 to 8) (size 9 to 14) (size 15 to 20)
#    0.000    0.966    7.586    1.241    1.931    2.483 
#    1.241    0.345    0.000    0.828    0.000    0.000 
#    0.000    0.000    0.000    0.000    0.000    0.000 
#
# Total GULP energy -322874.472245 kJ/mol
# GULP energy per Si atom -5566.801246 kJ/mol
# Density = 1.946644 g / cm^3
# Si number density = 19.510846 Si / 1000 Ang^3
#
#
#
# Elastic Constant Matrix: (Units=GPa)
#
#
# Indices 1 2 3 4 5 6 
#
# 1 72.8900 24.4809 26.4412 0.0000 0.0000 0.0000
# 2 24.4809 134.4171 49.2144 0.0000 0.0000 0.0000
# 3 26.4412 49.2144 113.1122 0.0000 0.0000 0.0000
# 4 0.0000 0.0000 0.0000 19.5075 0.0000 0.0000
# 5 0.0000 0.0000 0.0000 0.0000 8.7223 0.0000
# 6 0.0000 0.0000 0.0000 0.0000 0.0000 17.9844
#
#
#
# Elastic Compliance Matrix: (Units=1/GPa)
#
#
# Indices 1 2 3 4 5 6 
#
# 1 0.015333 -0.001761 -0.002818 0.000000 0.000000 0.000000
# 2 -0.001761 0.009051 -0.003527 0.000000 0.000000 0.000000
# 3 -0.002818 -0.003527 0.011034 0.000000 0.000000 0.000000
# 4 0.000000 0.000000 0.000000 0.051262 0.000000 0.000000
# 5 0.000000 0.000000 0.000000 0.000000 0.114648 0.000000
# 6 0.000000 0.000000 0.000000 0.000000 0.000000 0.055604
#
#
# Mechanical properties :
#
#
# Convention : Reuss Voigt Hill
#
# Bulk Modulus (GPa) = 52.06346 57.85468 54.95907
# Shear Modulus (GPa) = 17.88615 23.92838 20.90726
#
# Velocity S-wave (km/s) = 3.03104 3.50582 3.27704
# Velocity P-wave (km/s) = 6.24435 6.79004 6.52290
#
# Compressibility (1/GPa) = 0.01920733
#
# Stress axis : x y z
#
# Youngs Moduli (GPa) = 65.21899 110.47993 90.62922
#
# Poissons Ratio (x) = 0.19452 0.25541
# Poissons Ratio (y) = 0.11483 0.31962
# Poissons Ratio (z) = 0.18380 0.38962
#
# Static dielectric constant tensor:
#      x y z
#    x 1.652380 0.000000 0.000000 
#    y 0.000000 1.753540 0.000000 
#    z 0.000000 0.000000 1.766760 
# 
# From -- ./inp_files/44279.got.cif
#   From: 2010.05.17/outbox.cif.g08.bks.cpg/sg74_23_cif.got.tgz:44279.got - 2010.06.03 17:57:02.
