data_PCOD9539810
_publ_section_title
;
Structure prediction by ZEFSAII (Michael W. Deem and Ramdas Pophale) SiO2 
 PCOD9539810
Probable space group: I M M A
;
_chemical_formula_sum "Si O2"
_cell_formula_units_Z 80
_cell_length_a 26.389995
_cell_length_b 8.480990
_cell_length_c 18.836925
_cell_angle_alpha 90.000000
_cell_angle_beta 90.000000
_cell_angle_gamma 90.000000
_cell_volume 4215.954039
_symmetry_space_group_name_H-M "I M M A"
_symmetry_group_IT_number 74
_symmetry_cell_setting 'orthorhombic'
loop_
_space_group_symop_operation_xyz
x,y,z
-x,1/2-y,z
x,-y,-z
-x,1/2+y,-z
-x,-y,-z
x,1/2+y,-z
-x,y,z
x,1/2-y,z
1/2+x,1/2+y,1/2+z
1/2-x,-y,1/2+z
1/2+x,1/2-y,1/2-z
1/2-x,y,1/2-z
1/2-x,1/2-y,1/2-z
1/2+x,y,1/2-z
1/2-x,1/2+y,1/2+z
1/2+x,-y,1/2+z
loop_
_atom_site_type_symbol
_atom_site_label
_atom_site_fract_x
_atom_site_fract_y
_atom_site_fract_z
Si Si1 0.057099 0.058002 0.668537
Si Si2 0.653733 0.439259 0.920055
Si Si3 0.250355 0.559107 0.832010
Si Si4 0.848054 0.061579 0.079819
Si Si5 0.942299 0.059703 0.832258
O O1 0.056898 0.250000 0.667724
O O2 0.101391 0.004471 0.616476
O O3 0.067345 0.011428 0.750298
O O4 0.000000 0.006474 0.649495
O O5 0.653593 0.250000 0.920771
O O6 0.700722 0.497065 0.873145
O O7 0.658214 0.500000 0.000000
O O8 0.251614 0.750000 0.833008
O O9 0.250000 0.507730 0.750000
O O10 0.199545 0.506528 0.872698
O O11 0.847001 0.250000 0.078309
O O12 0.900024 0.006979 0.116127
O O13 0.843635 0.000000 0.000000
O O14 0.940355 0.250000 0.834569
O O15 0.000000 0.012185 0.850384
#
# Coordination Sequence:
#
# PCOD9539810 Si02
#       5
#    16  16  16  16  16
#     4   8  16  33  56  81 109 142 181 223 267 318
#     4  11  22  35  55  82 112 147 184 223 269 321
#     4  10  22  40  60  82 109 140 177 225 277 326
#     4  11  23  37  55  79 109 144 178 217 266 319
#     4   9  18  35  59  83 107 138 178 224 270 317
#
# _framework density 18.975539999999999
#
# number of rings (size 3 to 8) (size 9 to 14) (size 15 to 20)
#    0.000    2.200    0.000    4.200    0.000    4.800 
#    0.000    1.000    0.000    4.200    0.000    0.000 
#    0.000    0.000    0.000    0.000    0.000    0.000 
#
# Total GULP energy -223396.224086 kJ/mol
# GULP energy per Si atom -5584.905602 kJ/mol
# Density = 1.893235 g / cm^3
# Si number density = 18.975540 Si / 1000 Ang^3
#
#
#
# Elastic Constant Matrix: (Units=GPa)
#
#
# Indices 1 2 3 4 5 6 
#
# 1 177.1314 31.8559 136.3162 0.0000 0.0000 0.0000
# 2 31.8559 17.8073 32.9702 0.0000 0.0000 0.0000
# 3 136.3162 32.9702 192.4457 0.0000 0.0000 0.0000
# 4 0.0000 0.0000 0.0000 -9.0180 0.0000 0.0000
# 5 0.0000 0.0000 0.0000 0.0000 -49.4272 0.0000
# 6 0.0000 0.0000 0.0000 0.0000 0.0000 -2.8167
#
#
#
# Elastic Compliance Matrix: (Units=1/GPa)
#
#
# Indices 1 2 3 4 5 6 
#
# 1 0.013400 -0.009370 -0.007886 0.000000 0.000000 0.000000
# 2 -0.009370 0.088797 -0.008576 0.000000 0.000000 0.000000
# 3 -0.007886 -0.008576 0.012252 0.000000 0.000000 0.000000
# 4 0.000000 0.000000 0.000000 -0.110890 0.000000 0.000000
# 5 0.000000 0.000000 0.000000 0.000000 -0.020232 0.000000
# 6 0.000000 0.000000 0.000000 0.000000 0.000000 -0.355020
#
#
# Mechanical properties :
#
#
# Convention : Reuss Voigt Hill
#
# Bulk Modulus (GPa) = 15.92757 87.74101 51.83429
# Shear Modulus (GPa) = -16.71671 0.16375 -8.27648
#
# Velocity S-wave (km/s) = -2.97132 0.29408 -2.09072
# Velocity P-wave (km/s) = 1.83294 6.81577 4.64193
#
# Compressibility (1/GPa) = 0.06278420
#
# Stress axis : x y z
#
# Youngs Moduli (GPa) = 74.62883 11.26170 81.62167
#
# Poissons Ratio (x) = 0.10552 0.64369
# Poissons Ratio (y) = 0.69924 0.69999
# Poissons Ratio (z) = 0.58854 0.09658
#
# Static dielectric constant tensor:
#      x y z
#    x 1.645770 0.000000 0.000000 
#    y 0.000000 1.647350 0.000000 
#    z 0.000000 0.000000 1.627210 
# 
# From -- ./inp_files/46493.got.cif
#   From: 2010.05.17/outbox.cif.g08.bks.cpg/sg74_24_cif.got.tgz:46493.got - 2010.06.03 17:57:02.
