data_PCOD9539788
_publ_section_title
;
Structure prediction by ZEFSAII (Michael W. Deem and Ramdas Pophale) SiO2 
 PCOD9539788
Probable space group: I M M A
;
_chemical_formula_sum "Si O2"
_cell_formula_units_Z 64
_cell_length_a 27.664316
_cell_length_b 15.210502
_cell_length_c 6.350094
_cell_angle_alpha 90.000000
_cell_angle_beta 90.000000
_cell_angle_gamma 90.000000
_cell_volume 2672.044204
_symmetry_space_group_name_H-M "I M M A"
_symmetry_group_IT_number 74
_symmetry_cell_setting 'orthorhombic'
loop_
_space_group_symop_operation_xyz
x,y,z
-x,1/2-y,z
x,-y,-z
-x,1/2+y,-z
-x,-y,-z
x,1/2+y,-z
-x,y,z
x,1/2-y,z
1/2+x,1/2+y,1/2+z
1/2-x,-y,1/2+z
1/2+x,1/2-y,1/2-z
1/2-x,y,1/2-z
1/2-x,1/2-y,1/2-z
1/2+x,y,1/2-z
1/2-x,1/2+y,1/2+z
1/2+x,-y,1/2+z
loop_
_atom_site_type_symbol
_atom_site_label
_atom_site_fract_x
_atom_site_fract_y
_atom_site_fract_z
Si Si1 0.599737 0.750000 0.018267
Si Si2 0.552921 0.750000 0.617059
Si Si3 0.792089 0.750000 0.428084
Si Si4 0.131035 0.000000 0.000000
Si Si5 0.946229 0.399893 0.766022
Si Si6 0.199039 0.067865 0.324996
O O1 0.650901 0.750000 0.138536
O O2 0.570094 0.663419 0.079439
O O3 0.599068 0.750000 0.767444
O O4 0.500000 0.750000 0.727697
O O5 0.553308 0.665640 0.466636
O O6 0.750000 0.750000 0.250000
O O7 0.790128 0.661507 0.568097
O O8 0.095219 0.967555 0.181273
O O9 0.165340 0.069623 0.118676
O O10 0.000000 0.436577 0.737243
O O11 0.250000 0.028818 0.250000
O O12 0.179324 0.000000 0.500000
#
# Coordination Sequence:
#
# PCOD9539788 Si02
#       6
#     8   8   8   8  16  16
#     4  11  21  40  65  95 130 173 223 284 348 403
#     4   9  18  37  63  91 129 171 216 277 333 401
#     4  12  28  45  74 107 142 186 244 295 356 428
#     4  12  25  42  70  94 140 184 223 292 348 416
#     4  10  22  39  64  97 131 174 226 273 339 415
#     4  12  26  48  71 103 144 187 234 293 357 420
#
# _framework density 23.951696999999999
#
# number of rings (size 3 to 8) (size 9 to 14) (size 15 to 20)
#    0.000    1.000    1.250    6.375    3.500    1.000 
#    0.000    0.000    0.000    7.500    0.000    0.000 
#    0.000    0.000    0.000    0.000    0.000    0.000 
#
# Total GULP energy -178873.688032 kJ/mol
# GULP energy per Si atom -5589.802751 kJ/mol
# Density = 2.389718 g / cm^3
# Si number density = 23.951697 Si / 1000 Ang^3
#
#
#
# Elastic Constant Matrix: (Units=GPa)
#
#
# Indices 1 2 3 4 5 6 
#
# 1 152.6715 10.1351 36.2296 0.0000 0.0000 0.0000
# 2 10.1351 68.3361 24.7772 0.0000 0.0000 0.0000
# 3 36.2296 24.7772 70.5443 0.0000 0.0000 0.0000
# 4 0.0000 0.0000 0.0000 -17.2236 0.0000 0.0000
# 5 0.0000 0.0000 0.0000 0.0000 39.6895 0.0000
# 6 0.0000 0.0000 0.0000 0.0000 0.0000 39.6911
#
#
#
# Elastic Compliance Matrix: (Units=1/GPa)
#
#
# Indices 1 2 3 4 5 6 
#
# 1 0.007465 0.000324 -0.003948 0.000000 0.000000 0.000000
# 2 0.000324 0.016783 -0.006061 0.000000 0.000000 0.000000
# 3 -0.003948 -0.006061 0.018332 0.000000 0.000000 0.000000
# 4 0.000000 0.000000 0.000000 -0.058060 0.000000 0.000000
# 5 0.000000 0.000000 0.000000 0.000000 0.025196 0.000000
# 6 0.000000 0.000000 0.000000 0.000000 0.000000 0.025195
#
#
# Mechanical properties :
#
#
# Convention : Reuss Voigt Hill
#
# Bulk Modulus (GPa) = 43.08378 48.20397 45.64388
# Shear Modulus (GPa) = 80.62246 27.12539 53.87392
#
# Velocity S-wave (km/s) = 5.80806 3.36892 4.74780
# Velocity P-wave (km/s) = 7.93756 5.94155 7.01095
#
# Compressibility (1/GPa) = 0.02321059
#
# Stress axis : x y z
#
# Youngs Moduli (GPa) = 133.95249 59.58352 54.54969
#
# Poissons Ratio (x) = -0.01932 0.21536
# Poissons Ratio (y) = -0.04343 0.33064
# Poissons Ratio (z) = 0.52883 0.36115
#
# Static dielectric constant tensor:
#      x y z
#    x 1.972440 0.000000 0.000000 
#    y 0.000000 1.674110 0.000000 
#    z 0.000000 0.000000 1.906220 
# 
# From -- ./inp_files/4968.got.cif
#   From: 2010.05.17/outbox.cif.g08.bks.cpg/sg74_3_cif.got.tgz:4968.got - 2010.06.03 17:57:02.
