data_PCOD9539644
_publ_section_title
;
Structure prediction by ZEFSAII (Michael W. Deem and Ramdas Pophale) SiO2 
 PCOD9539644
Probable space group: I M M A
;
_chemical_formula_sum "Si O2"
_cell_formula_units_Z 112
_cell_length_a 19.118459
_cell_length_b 28.183143
_cell_length_c 12.424326
_cell_angle_alpha 90.000000
_cell_angle_beta 90.000000
_cell_angle_gamma 90.000000
_cell_volume 6694.453766
_symmetry_space_group_name_H-M "I M M A"
_symmetry_group_IT_number 74
_symmetry_cell_setting 'orthorhombic'
loop_
_space_group_symop_operation_xyz
x,y,z
-x,1/2-y,z
x,-y,-z
-x,1/2+y,-z
-x,-y,-z
x,1/2+y,-z
-x,y,z
x,1/2-y,z
1/2+x,1/2+y,1/2+z
1/2-x,-y,1/2+z
1/2+x,1/2-y,1/2-z
1/2-x,y,1/2-z
1/2-x,1/2-y,1/2-z
1/2+x,y,1/2-z
1/2-x,1/2+y,1/2+z
1/2+x,-y,1/2+z
loop_
_atom_site_type_symbol
_atom_site_label
_atom_site_fract_x
_atom_site_fract_y
_atom_site_fract_z
Si Si1 0.578586 0.599576 0.358577
Si Si2 0.166653 0.398519 0.465894
Si Si3 0.666149 0.545540 0.760460
Si Si4 0.692612 0.195842 0.913333
Si Si5 0.648740 0.303657 0.663799
Si Si6 0.683973 0.946214 0.521092
Si Si7 0.581937 0.543427 0.140995
O O1 0.500000 0.589777 0.393833
O O2 0.597494 0.654634 0.369200
O O3 0.632306 0.569733 0.428382
O O4 0.585153 0.582753 0.235365
O O5 0.154016 0.410222 0.340533
O O6 0.162366 0.344955 0.509804
O O7 0.246956 0.414485 0.482450
O O8 0.117922 0.433213 0.537042
O O9 0.750000 0.535442 0.750000
O O10 0.646588 0.555694 0.637263
O O11 0.625551 0.501378 0.813596
O O12 0.679948 0.250000 0.950504
O O13 0.662235 0.191779 0.792193
O O14 0.776225 0.190054 0.894875
O O15 0.624443 0.250000 0.642904
O O16 0.706776 0.000000 0.500000
O O17 0.500000 0.531555 0.123030
#
# Coordination Sequence:
#
# PCOD9539644 Si02
#       7
#    16  16  16  16  16  16  16
#     4  11  22  33  52  80 111 145 175 215 267 314
#     4  11  20  34  58  78 105 139 174 227 266 316
#     4  10  22  36  53  79 104 142 190 217 256 313
#     4   9  17  30  54  82 104 132 169 215 275 321
#     4   9  17  32  53  79 107 136 173 214 263 327
#     4  11  21  36  54  74 106 147 183 219 256 311
#     4  11  23  36  53  81 113 143 177 218 270 319
#
# _framework density 16.730267000000001
#
# number of rings (size 3 to 8) (size 9 to 14) (size 15 to 20)
#    0.000    1.714    4.286    3.000    0.000    2.286 
#    0.000    0.000    0.000    5.143    0.000    0.000 
#    0.000    0.000    0.000    0.000    0.000    0.000 
#
# Total GULP energy -312295.557259 kJ/mol
# GULP energy per Si atom -5576.706380 kJ/mol
# Density = 1.669219 g / cm^3
# Si number density = 16.730267 Si / 1000 Ang^3
#
#
#
# Elastic Constant Matrix: (Units=GPa)
#
#
# Indices 1 2 3 4 5 6 
#
# 1 35.2990 7.6852 14.8869 0.0000 0.0000 0.0000
# 2 7.6852 87.9289 14.2418 0.0000 0.0000 0.0000
# 3 14.8869 14.2418 71.3043 -0.0001 0.0000 0.0000
# 4 0.0000 0.0000 -0.0001 22.7693 0.0000 0.0000
# 5 0.0000 0.0000 0.0000 0.0000 -0.8600 0.0000
# 6 0.0000 0.0000 0.0000 0.0000 0.0000 14.5832
#
#
#
# Elastic Compliance Matrix: (Units=1/GPa)
#
#
# Indices 1 2 3 4 5 6 
#
# 1 0.031318 -0.001734 -0.006192 0.000000 0.000000 0.000000
# 2 -0.001734 0.011849 -0.002005 0.000000 0.000000 0.000000
# 3 -0.006192 -0.002005 0.015718 0.000000 0.000000 0.000000
# 4 0.000000 0.000000 0.000000 0.043919 0.000000 0.000000
# 5 0.000000 0.000000 0.000000 0.000000 -1.162851 0.000000
# 6 0.000000 0.000000 0.000000 0.000000 0.000000 0.068572
#
#
# Mechanical properties :
#
#
# Convention : Reuss Voigt Hill
#
# Bulk Modulus (GPa) = 25.62602 29.79555 27.71079
# Shear Modulus (GPa) = -5.21591 17.81305 6.29857
#
# Velocity S-wave (km/s) = -1.76760 3.26655 1.94241
# Velocity P-wave (km/s) = 3.34433 5.66349 4.65079
#
# Compressibility (1/GPa) = 0.03902283
#
# Stress axis : x y z
#
# Youngs Moduli (GPa) = 31.93003 84.39468 63.62298
#
# Poissons Ratio (x) = 0.14637 0.39397
# Poissons Ratio (y) = 0.05538 0.12754
# Poissons Ratio (z) = 0.19772 0.16917
#
# Static dielectric constant tensor:
#      x y z
#    x 1.563760 0.000000 0.000000 
#    y 0.000000 1.558910 0.000000 
#    z 0.000000 0.000000 1.569020 
# 
# From -- ./inp_files/24323.got.cif
#   From: 2010.05.17/outbox.cif.g08.bks.cpg/sg74_13_cif.got.tgz:24323.got - 2010.06.03 17:57:02.
