data_PCOD9539165
_publ_section_title
;
Structure prediction by ZEFSAII (Michael W. Deem and Ramdas Pophale) SiO2 
 PCOD9539165
Probable space group: I M M A
;
_chemical_formula_sum "Si O2"
_cell_formula_units_Z 96
_cell_length_a 24.838056
_cell_length_b 7.875046
_cell_length_c 21.957437
_cell_angle_alpha 90.000000
_cell_angle_beta 90.000000
_cell_angle_gamma 90.000000
_cell_volume 4294.892980
_symmetry_space_group_name_H-M "I M M A"
_symmetry_group_IT_number 74
_symmetry_cell_setting 'orthorhombic'
loop_
_space_group_symop_operation_xyz
x,y,z
-x,1/2-y,z
x,-y,-z
-x,1/2+y,-z
-x,-y,-z
x,1/2+y,-z
-x,y,z
x,1/2-y,z
1/2+x,1/2+y,1/2+z
1/2-x,-y,1/2+z
1/2+x,1/2-y,1/2-z
1/2-x,y,1/2-z
1/2-x,1/2-y,1/2-z
1/2+x,y,1/2-z
1/2-x,1/2+y,1/2+z
1/2+x,-y,1/2+z
loop_
_atom_site_type_symbol
_atom_site_label
_atom_site_fract_x
_atom_site_fract_y
_atom_site_fract_z
Si Si1 0.823672 0.544697 0.566019
Si Si2 0.939106 0.047251 0.069887
Si Si3 0.257201 0.057731 0.182395
Si Si4 0.645551 0.438781 0.667034
Si Si5 0.558587 0.045138 0.093299
Si Si6 0.440459 0.546748 0.762017
O O1 0.799348 0.500000 0.500000
O O2 0.824325 0.750000 0.569898
O O3 0.793114 0.483990 0.627380
O O4 0.885444 0.479225 0.566760
O O5 0.935835 0.250000 0.077703
O O6 0.000000 0.994025 0.085539
O O7 0.896041 0.961533 0.112615
O O8 0.930038 0.000000 0.000000
O O9 0.278413 0.250000 0.193049
O O10 0.250000 0.978120 0.250000
O O11 0.195884 0.061297 0.159721
O O12 0.668124 0.250000 0.667644
O O13 0.609882 0.470348 0.727035
O O14 0.500000 0.978687 0.072373
O O15 0.557829 0.250000 0.084633
O O16 0.562026 0.016188 0.165955
O O17 0.500000 0.488234 0.740721
O O18 0.438478 0.750000 0.752377
#
# Coordination Sequence:
#
# PCOD9539165 Si02
#       6
#    16  16  16  16  16  16
#     4  10  21  37  59  86 115 148 185 231 286 341
#     4  10  21  38  59  82 111 148 190 236 286 342
#     4  10  22  42  65  83 105 147 204 255 293 339
#     4  12  24  35  53  82 115 148 183 230 289 353
#     4   8  15  31  57  86 113 144 185 227 267 321
#     4   9  17  32  56  83 111 146 190 237 278 322
#
# _framework density 22.352126999999999
#
# number of rings (size 3 to 8) (size 9 to 14) (size 15 to 20)
#    0.000    2.167    0.000    4.500    0.000    8.000 
#    0.000    4.167    0.000    1.000    0.000    0.000 
#    0.000    0.000    0.000    0.000    0.000    0.000 
#
# Total GULP energy -268006.303647 kJ/mol
# GULP energy per Si atom -5583.464659 kJ/mol
# Density = 2.230125 g / cm^3
# Si number density = 22.352127 Si / 1000 Ang^3
#
#
#
# Elastic Constant Matrix: (Units=GPa)
#
#
# Indices 1 2 3 4 5 6 
#
# 1 104.8261 4.7566 61.1036 0.0000 0.0000 0.0000
# 2 4.7566 41.6227 7.7516 0.0000 0.0000 0.0000
# 3 61.1036 7.7516 127.0192 0.0000 0.0000 0.0000
# 4 0.0000 0.0000 0.0000 20.5208 0.0000 0.0000
# 5 0.0000 0.0000 0.0000 0.0000 40.7248 0.0000
# 6 0.0000 0.0000 0.0000 0.0000 0.0000 -105.5828
#
#
#
# Elastic Compliance Matrix: (Units=1/GPa)
#
#
# Indices 1 2 3 4 5 6 
#
# 1 0.013262 -0.000331 -0.006359 0.000000 0.000000 0.000000
# 2 -0.000331 0.024310 -0.001324 0.000000 0.000000 0.000000
# 3 -0.006359 -0.001324 0.011013 0.000000 0.000000 0.000000
# 4 0.000000 0.000000 0.000000 0.048731 0.000000 0.000000
# 5 0.000000 0.000000 0.000000 0.000000 0.024555 0.000000
# 6 0.000000 0.000000 0.000000 0.000000 0.000000 -0.009471
#
#
# Mechanical properties :
#
#
# Convention : Reuss Voigt Hill
#
# Bulk Modulus (GPa) = 30.71757 46.74350 38.73053
# Shear Modulus (GPa) = 35.89890 4.45633 20.17761
#
# Velocity S-wave (km/s) = 4.01192 1.41351 3.00778
# Velocity P-wave (km/s) = 5.93574 4.86022 5.42470
#
# Compressibility (1/GPa) = 0.03255466
#
# Stress axis : x y z
#
# Youngs Moduli (GPa) = 75.40607 41.13564 90.80293
#
# Poissons Ratio (x) = 0.01362 0.57745
# Poissons Ratio (y) = 0.02497 0.12024
# Poissons Ratio (z) = 0.47953 0.05447
#
# Static dielectric constant tensor:
#      x y z
#    x 1.821780 0.000000 0.000000 
#    y 0.000000 1.850310 0.000000 
#    z 0.000000 0.000000 1.819670 
# 
# From -- ./inp_files/61908.got.cif
#   From: 2010.05.17/outbox.cif.g08.bks.cpg/sg74_31_cif.got.tgz:61908.got - 2010.06.03 17:57:02.
