data_PCOD9539879
_publ_section_title
;
Structure prediction by ZEFSAII (Michael W. Deem and Ramdas Pophale) SiO2 
 PCOD9539879
Probable space group: I M M A
;
_chemical_formula_sum "Si O2"
_cell_formula_units_Z 44
_cell_length_a 14.428114
_cell_length_b 9.364015
_cell_length_c 14.021942
_cell_angle_alpha 90.000000
_cell_angle_beta 90.000000
_cell_angle_gamma 90.000000
_cell_volume 1894.435538
_symmetry_space_group_name_H-M "I M M A"
_symmetry_group_IT_number 74
_symmetry_cell_setting 'orthorhombic'
loop_
_space_group_symop_operation_xyz
x,y,z
-x,1/2-y,z
x,-y,-z
-x,1/2+y,-z
-x,-y,-z
x,1/2+y,-z
-x,y,z
x,1/2-y,z
1/2+x,1/2+y,1/2+z
1/2-x,-y,1/2+z
1/2+x,1/2-y,1/2-z
1/2-x,y,1/2-z
1/2-x,1/2-y,1/2-z
1/2+x,y,1/2-z
1/2-x,1/2+y,1/2+z
1/2+x,-y,1/2+z
loop_
_atom_site_type_symbol
_atom_site_label
_atom_site_fract_x
_atom_site_fract_y
_atom_site_fract_z
Si Si1 0.859991 0.250000 0.338605
Si Si2 0.641078 0.750000 0.620689
Si Si3 0.500000 0.250000 0.741148
Si Si4 0.672534 0.000000 0.500000
Si Si5 0.700398 0.250000 0.645182
Si Si6 0.500000 0.014735 0.111936
O O1 0.753592 0.250000 0.368355
O O2 0.886823 0.250000 0.228166
O O3 0.908389 0.391905 0.373323
O O4 0.615311 0.890924 0.564405
O O5 0.591698 0.250000 0.674986
O O6 0.500000 0.384357 0.814251
O O7 0.720588 0.889784 0.422555
O O8 0.750000 0.250000 0.750000
O O9 0.500000 0.000000 0.000000
#
# Coordination Sequence:
#
# PCOD9539879 Si02
#       6
#     8   8   4   8   8   8
#     4  10  23  41  62  91 138 177 217 267 357 405
#     4  10  22  40  68  95 130 183 222 278 335 415
#     4  12  26  44  72 100 144 184 234 302 348 410
#     4  10  24  43  70 105 136 186 240 291 346 423
#     4  11  27  47  72 108 143 188 241 295 357 422
#     4  11  25  41  63 100 136 178 225 287 347 423
#
# _framework density 23.225916999999999
#
# number of rings (size 3 to 8) (size 9 to 14) (size 15 to 20)
#    0.000    1.455    0.000    3.273   12.727    3.636 
#    0.000    7.273    0.000    0.000    0.000    0.000 
#    0.000    0.000    0.000    0.000    0.000    0.000 
#
# Total GULP energy -122775.980709 kJ/mol
# GULP energy per Si atom -5580.726396 kJ/mol
# Density = 2.317305 g / cm^3
# Si number density = 23.225917 Si / 1000 Ang^3
#
#
#
# Elastic Constant Matrix: (Units=GPa)
#
#
# Indices 1 2 3 4 5 6 
#
# 1 92.6985 17.6071 24.6573 0.0000 0.0000 0.0000
# 2 17.6071 174.7297 78.0164 0.0000 0.0000 0.0000
# 3 24.6573 78.0164 219.8730 0.0000 0.0000 0.0000
# 4 0.0000 0.0000 0.0000 58.1002 0.0000 0.0000
# 5 0.0000 0.0000 0.0000 0.0000 32.6367 0.0000
# 6 0.0000 0.0000 0.0000 0.0000 0.0000 29.4025
#
#
#
# Elastic Compliance Matrix: (Units=1/GPa)
#
#
# Indices 1 2 3 4 5 6 
#
# 1 0.011186 -0.000674 -0.001015 0.000000 0.000000 0.000000
# 2 -0.000674 0.006841 -0.002352 0.000000 0.000000 0.000000
# 3 -0.001015 -0.002352 0.005496 0.000000 0.000000 0.000000
# 4 0.000000 0.000000 0.000000 0.017212 0.000000 0.000000
# 5 0.000000 0.000000 0.000000 0.000000 0.030640 0.000000
# 6 0.000000 0.000000 0.000000 0.000000 0.000000 0.034011
#
#
# Mechanical properties :
#
#
# Convention : Reuss Voigt Hill
#
# Bulk Modulus (GPa) = 64.76132 80.87365 72.81749
# Shear Modulus (GPa) = 42.15318 48.49590 45.32454
#
# Velocity S-wave (km/s) = 4.26481 4.57443 4.42233
# Velocity P-wave (km/s) = 7.22463 7.92443 7.58260
#
# Compressibility (1/GPa) = 0.01544132
#
# Stress axis : x y z
#
# Youngs Moduli (GPa) = 89.39976 146.17509 181.93629
#
# Poissons Ratio (x) = 0.09850 0.18472
# Poissons Ratio (y) = 0.06024 0.42788
# Poissons Ratio (z) = 0.09077 0.34378
#
# Static dielectric constant tensor:
#      x y z
#    x 1.895200 0.000000 0.000000 
#    y 0.000000 1.861270 0.000000 
#    z 0.000000 0.000000 1.821270 
# 
# From -- ./inp_files/33376.got.cif
#   From: 2010.05.17/outbox.cif.g08.bks.cpg/sg74_17_cif.got.tgz:33376.got - 2010.06.03 17:57:02.
