data_PCOD9539280
_publ_section_title
;
Structure prediction by ZEFSAII (Michael W. Deem and Ramdas Pophale) SiO2 
 PCOD9539280
Probable space group: I M M A
;
_chemical_formula_sum "Si O2"
_cell_formula_units_Z 64
_cell_length_a 21.374503
_cell_length_b 16.223384
_cell_length_c 9.158369
_cell_angle_alpha 90.000000
_cell_angle_beta 90.000000
_cell_angle_gamma 90.000000
_cell_volume 3175.818036
_symmetry_space_group_name_H-M "I M M A"
_symmetry_group_IT_number 74
_symmetry_cell_setting 'orthorhombic'
loop_
_space_group_symop_operation_xyz
x,y,z
-x,1/2-y,z
x,-y,-z
-x,1/2+y,-z
-x,-y,-z
x,1/2+y,-z
-x,y,z
x,1/2-y,z
1/2+x,1/2+y,1/2+z
1/2-x,-y,1/2+z
1/2+x,1/2-y,1/2-z
1/2-x,y,1/2-z
1/2-x,1/2-y,1/2-z
1/2+x,y,1/2-z
1/2-x,1/2+y,1/2+z
1/2+x,-y,1/2+z
loop_
_atom_site_type_symbol
_atom_site_label
_atom_site_fract_x
_atom_site_fract_y
_atom_site_fract_z
Si Si1 0.429463 0.153570 0.382046
Si Si2 0.683096 0.156160 0.881497
Si Si3 0.570538 0.407624 0.062555
Si Si4 0.684939 0.409228 0.567022
O O1 0.500000 0.138693 0.440548
O O2 0.426142 0.250000 0.339716
O O3 0.421641 0.098953 0.236704
O O4 0.374767 0.133836 0.494449
O O5 0.684447 0.250000 0.826746
O O6 0.677296 0.096035 0.742065
O O7 0.748704 0.135788 0.959740
O O8 0.624775 0.143665 0.986469
O O9 0.500000 0.377052 0.030563
O O10 0.575053 0.500000 0.000000
O O11 0.688941 0.500000 0.500000
#
# Coordination Sequence:
#
# PCOD9539280 Si02
#       4
#    16  16  16  16
#     4  10  21  38  59  85 117 151 190 236 286 342
#     4  11  23  40  60  86 120 153 193 242 292 346
#     4  10  21  38  60  87 119 154 194 239 287 342
#     4  11  23  39  60  84 115 153 194 240 292 347
#
# _framework density 20.152287999999999
#
# number of rings (size 3 to 8) (size 9 to 14) (size 15 to 20)
#    0.000    1.500    0.000    6.000    0.000    6.000 
#    0.000    2.500    0.000    0.000    0.000    0.000 
#    0.000    0.000    0.000    0.000    0.000    0.000 
#
# Total GULP energy -178763.289121 kJ/mol
# GULP energy per Si atom -5586.352785 kJ/mol
# Density = 2.010642 g / cm^3
# Si number density = 20.152288 Si / 1000 Ang^3
#
#
#
# Elastic Constant Matrix: (Units=GPa)
#
#
# Indices 1 2 3 4 5 6 
#
# 1 176.0861 25.9046 75.6830 0.0000 0.0000 0.0000
# 2 25.9046 69.6701 20.8647 0.0000 0.0000 0.0000
# 3 75.6830 20.8647 66.5626 0.0000 0.0000 0.0000
# 4 0.0000 0.0000 0.0000 15.1432 0.0000 0.0000
# 5 0.0000 0.0000 0.0000 0.0000 45.1020 0.0000
# 6 0.0000 0.0000 0.0000 0.0000 0.0000 12.3914
#
#
#
# Elastic Compliance Matrix: (Units=1/GPa)
#
#
# Indices 1 2 3 4 5 6 
#
# 1 0.011116 -0.000384 -0.012519 0.000000 0.000000 0.000000
# 2 -0.000384 0.015854 -0.004533 0.000000 0.000000 0.000000
# 3 -0.012519 -0.004533 0.030679 0.000000 0.000000 0.000000
# 4 0.000000 0.000000 0.000000 0.066036 0.000000 0.000000
# 5 0.000000 0.000000 0.000000 0.000000 0.022172 0.000000
# 6 0.000000 0.000000 0.000000 0.000000 0.000000 0.080701
#
#
# Mechanical properties :
#
#
# Convention : Reuss Voigt Hill
#
# Bulk Modulus (GPa) = 43.90429 61.91370 52.90899
# Shear Modulus (GPa) = 18.58581 27.18508 22.88545
#
# Velocity S-wave (km/s) = 3.04018 3.67683 3.37356
# Velocity P-wave (km/s) = 5.84441 6.98678 6.44097
#
# Compressibility (1/GPa) = 0.02277682
#
# Stress axis : x y z
#
# Youngs Moduli (GPa) = 89.95756 63.07704 32.59576
#
# Poissons Ratio (x) = 0.02422 0.40807
# Poissons Ratio (y) = 0.03455 0.14775
# Poissons Ratio (z) = 1.12619 0.28592
#
# Static dielectric constant tensor:
#      x y z
#    x 1.710860 0.000000 0.000000 
#    y 0.000000 1.715450 0.000000 
#    z 0.000000 0.000000 1.685880 
# 
# From -- ./inp_files/8790.got.cif
#   From: 2010.05.17/outbox.cif.g08.bks.cpg/sg74_5_cif.got.tgz:8790.got - 2010.06.03 17:57:02.
