data_PCOD9539449
_publ_section_title
;
Structure prediction by ZEFSAII (Michael W. Deem and Ramdas Pophale) SiO2 
 PCOD9539449
Probable space group: I M M A
;
_chemical_formula_sum "Si O2"
_cell_formula_units_Z 96
_cell_length_a 15.019996
_cell_length_b 15.115516
_cell_length_c 22.766014
_cell_angle_alpha 90.000000
_cell_angle_beta 90.000000
_cell_angle_gamma 90.000000
_cell_volume 5168.681758
_symmetry_space_group_name_H-M "I M M A"
_symmetry_group_IT_number 74
_symmetry_cell_setting 'orthorhombic'
loop_
_space_group_symop_operation_xyz
x,y,z
-x,1/2-y,z
x,-y,-z
-x,1/2+y,-z
-x,-y,-z
x,1/2+y,-z
-x,y,z
x,1/2-y,z
1/2+x,1/2+y,1/2+z
1/2-x,-y,1/2+z
1/2+x,1/2-y,1/2-z
1/2-x,y,1/2-z
1/2-x,1/2-y,1/2-z
1/2+x,y,1/2-z
1/2-x,1/2+y,1/2+z
1/2+x,-y,1/2+z
loop_
_atom_site_type_symbol
_atom_site_label
_atom_site_fract_x
_atom_site_fract_y
_atom_site_fract_z
Si Si1 0.350302 0.392031 0.739159
Si Si2 0.402954 0.750000 0.354503
Si Si3 0.723918 0.250000 0.066733
Si Si4 0.599580 0.897696 0.127305
Si Si5 0.893867 0.750000 0.853892
Si Si6 0.605570 0.106468 0.130549
Si Si7 0.224269 0.250000 0.572994
Si Si8 0.893613 0.589550 0.765406
O O1 0.250000 0.360632 0.750000
O O2 0.393365 0.333982 0.688671
O O3 0.397186 0.384144 0.802251
O O4 0.349089 0.495401 0.722084
O O5 0.500000 0.750000 0.382704
O O6 0.322382 0.750000 0.399730
O O7 0.823226 0.250000 0.093695
O O8 0.668434 0.166132 0.090997
O O9 0.726081 0.250000 0.996865
O O10 0.500000 0.876185 0.106224
O O11 0.671186 0.835246 0.097199
O O12 0.616187 0.002009 0.118010
O O13 0.876266 0.664360 0.813099
O O14 0.000000 0.750000 0.869199
O O15 0.500000 0.127927 0.123400
O O16 0.629512 0.120181 0.199374
O O17 0.000000 0.572840 0.764143
#
# Coordination Sequence:
#
# PCOD9539449 Si02
#       8
#    16   8   8  16   8  16   8  16
#     4  11  20  35  61  94 122 143 180 230 292 360
#     4  12  24  40  60  83 117 156 193 240 288 335
#     4  12  26  38  59  79 114 156 204 252 274 320
#     4  10  21  39  62  88 122 149 177 231 295 356
#     4  10  23  39  58  85 116 156 198 237 285 334
#     4   9  20  38  60  91 121 148 179 227 296 360
#     4  12  26  42  54  84 109 154 214 242 275 327
#     4   9  19  36  59  91 124 148 180 228 289 360
#
# _framework density 18.573401
#
# number of rings (size 3 to 8) (size 9 to 14) (size 15 to 20)
#    0.000    1.667    1.667    4.250    4.667    4.333 
#    0.000    1.667    0.000    0.000    0.000    5.833 
#    0.000    0.000    0.000    0.000    0.000    0.000 
#
# Total GULP energy -268276.511749 kJ/mol
# GULP energy per Si atom -5589.093995 kJ/mol
# Density = 1.853113 g / cm^3
# Si number density = 18.573401 Si / 1000 Ang^3
#
#
#
# Elastic Constant Matrix: (Units=GPa)
#
#
# Indices 1 2 3 4 5 6 
#
# 1 124.6204 51.6928 49.7367 0.0000 0.0000 0.0000
# 2 51.6928 82.0401 56.5429 0.0000 0.0000 0.0000
# 3 49.7367 56.5429 92.4831 0.0000 0.0000 0.0000
# 4 0.0000 0.0000 0.0000 -17.9310 0.0000 0.0000
# 5 0.0000 0.0000 0.0000 0.0000 -3.9730 0.0000
# 6 0.0000 0.0000 0.0000 0.0000 0.0000 17.9978
#
#
#
# Elastic Compliance Matrix: (Units=1/GPa)
#
#
# Indices 1 2 3 4 5 6 
#
# 1 0.011321 -0.005076 -0.002985 0.000000 0.000000 0.000000
# 2 -0.005076 0.023342 -0.011541 0.000000 0.000000 0.000000
# 3 -0.002985 -0.011541 0.019474 0.000000 0.000000 0.000000
# 4 0.000000 0.000000 0.000000 -0.055769 0.000000 0.000000
# 5 0.000000 0.000000 0.000000 0.000000 -0.251701 0.000000
# 6 0.000000 0.000000 0.000000 0.000000 0.000000 0.055562
#
#
# Mechanical properties :
#
#
# Convention : Reuss Voigt Hill
#
# Bulk Modulus (GPa) = 66.96605 68.34317 67.65461
# Shear Modulus (GPa) = -32.55439 8.63016 -11.96211
#
# Velocity S-wave (km/s) = -4.19112 2.15792 -2.54056
# Velocity P-wave (km/s) = 3.56545 6.56391 5.28192
#
# Compressibility (1/GPa) = 0.01493294
#
# Stress axis : x y z
#
# Youngs Moduli (GPa) = 88.32896 42.84175 51.35036
#
# Poissons Ratio (x) = 0.21747 0.15328
# Poissons Ratio (y) = 0.44837 0.59263
# Poissons Ratio (z) = 0.26366 0.49443
#
# Static dielectric constant tensor:
#      x y z
#    x 1.660640 0.000000 0.000000 
#    y 0.000000 1.634430 0.000000 
#    z 0.000000 0.000000 1.595660 
# 
# From -- ./inp_files/51968.got.cif
#   From: 2010.05.17/outbox.cif.g08.bks.cpg/sg74_26_cif.got.tgz:51968.got - 2010.06.03 17:57:02.
