data_PCOD9539044
_publ_section_title
;
Structure prediction by ZEFSAII (Michael W. Deem and Ramdas Pophale) SiO2 
 PCOD9539044
Probable space group: I M M A
;
_chemical_formula_sum "Si O2"
_cell_formula_units_Z 88
_cell_length_a 25.340110
_cell_length_b 30.192302
_cell_length_c 5.438407
_cell_angle_alpha 90.000000
_cell_angle_beta 90.000000
_cell_angle_gamma 90.000000
_cell_volume 4160.796054
_symmetry_space_group_name_H-M "I M M A"
_symmetry_group_IT_number 74
_symmetry_cell_setting 'orthorhombic'
loop_
_space_group_symop_operation_xyz
x,y,z
-x,1/2-y,z
x,-y,-z
-x,1/2+y,-z
-x,-y,-z
x,1/2+y,-z
-x,y,z
x,1/2-y,z
1/2+x,1/2+y,1/2+z
1/2-x,-y,1/2+z
1/2+x,1/2-y,1/2-z
1/2-x,y,1/2-z
1/2-x,1/2-y,1/2-z
1/2+x,y,1/2-z
1/2-x,1/2+y,1/2+z
1/2+x,-y,1/2+z
loop_
_atom_site_type_symbol
_atom_site_label
_atom_site_fract_x
_atom_site_fract_y
_atom_site_fract_z
Si Si1 0.556652 0.040433 0.725020
Si Si2 0.161336 0.619050 0.439950
Si Si3 0.831418 0.020632 0.750530
Si Si4 0.690627 0.299612 0.634132
Si Si5 0.250000 0.847336 0.750000
Si Si6 0.441357 0.902479 0.777381
O O1 0.500000 0.017422 0.718015
O O2 0.606389 0.008480 0.740564
O O3 0.561778 0.072669 0.486401
O O4 0.555586 0.067680 0.977195
O O5 0.164779 0.573714 0.281420
O O6 0.157358 0.662620 0.270254
O O7 0.219163 0.622373 0.560245
O O8 0.115266 0.619519 0.648458
O O9 0.809584 0.000000 0.500000
O O10 0.808684 0.000000 0.000000
O O11 0.669062 0.250000 0.645702
O O12 0.750000 0.298674 0.750000
O O13 0.704781 0.316115 0.362342
O O14 0.500000 0.879291 0.770077
#
# Coordination Sequence:
#
# PCOD9539044 Si02
#       6
#    16  16  16  16   8  16
#     4   9  18  33  53  81 114 152 203 260 312 354
#     4  10  22  37  63  85 124 159 207 255 311 371
#     4  11  23  36  57  83 120 167 208 255 298 363
#     4   9  19  37  62  93 119 142 188 253 322 373
#     4  10  21  36  66  92 116 160 198 264 321 372
#     4   9  18  33  57  87 119 158 199 248 308 369
#
# _framework density 21.149799000000002
#
# number of rings (size 3 to 8) (size 9 to 14) (size 15 to 20)
#    0.000    2.364    0.000    2.455    7.636    1.455 
#    0.000    0.000    6.000    0.545    0.000    0.000 
#    0.000    0.000    0.000    0.000    0.000    0.000 
#
# Total GULP energy -245014.096681 kJ/mol
# GULP energy per Si atom -5568.502197 kJ/mol
# Density = 2.110166 g / cm^3
# Si number density = 21.149799 Si / 1000 Ang^3
#
#
#
# Elastic Constant Matrix: (Units=GPa)
#
#
# Indices 1 2 3 4 5 6 
#
# 1 91.2218 34.9760 23.4243 0.0000 0.0000 0.0000
# 2 34.9760 121.5117 56.8467 0.0000 0.0000 0.0000
# 3 23.4243 56.8467 150.3538 0.0000 0.0000 0.0000
# 4 0.0000 0.0000 0.0000 20.5787 0.0000 0.0000
# 5 0.0000 0.0000 0.0000 0.0000 17.3145 0.0000
# 6 0.0000 0.0000 0.0000 0.0000 0.0000 24.6972
#
#
#
# Elastic Compliance Matrix: (Units=1/GPa)
#
#
# Indices 1 2 3 4 5 6 
#
# 1 0.012384 -0.003234 -0.000707 0.000000 0.000000 0.000000
# 2 -0.003234 0.010843 -0.003596 0.000000 0.000000 0.000000
# 3 -0.000707 -0.003596 0.008121 0.000000 0.000000 0.000000
# 4 0.000000 0.000000 0.000000 0.048594 0.000000 0.000000
# 5 0.000000 0.000000 0.000000 0.000000 0.057755 0.000000
# 6 0.000000 0.000000 0.000000 0.000000 0.000000 0.040490
#
#
# Mechanical properties :
#
#
# Convention : Reuss Voigt Hill
#
# Bulk Modulus (GPa) = 61.44581 65.95347 63.69964
# Shear Modulus (GPa) = 25.16564 29.04075 27.10320
#
# Velocity S-wave (km/s) = 3.45320 3.70955 3.58367
# Velocity P-wave (km/s) = 6.70934 7.04268 6.87803
#
# Compressibility (1/GPa) = 0.01627450
#
# Stress axis : x y z
#
# Youngs Moduli (GPa) = 80.75136 92.22821 123.14477
#
# Poissons Ratio (x) = 0.29826 0.08701
# Poissons Ratio (y) = 0.26115 0.44278
# Poissons Ratio (z) = 0.05706 0.33162
#
# Static dielectric constant tensor:
#      x y z
#    x 1.855740 0.000000 0.000000 
#    y 0.000000 1.763140 0.000000 
#    z 0.000000 0.000000 1.886260 
# 
# From -- ./inp_files/5244.got.cif
#   From: 2010.05.17/outbox.cif.g08.bks.cpg/sg74_3_cif.got.tgz:5244.got - 2010.06.03 17:57:02.
