data_PCOD9539942
_publ_section_title
;
Structure prediction by ZEFSAII (Michael W. Deem and Ramdas Pophale) SiO2 
 PCOD9539942
Probable space group: I M M A
;
_chemical_formula_sum "Si O2"
_cell_formula_units_Z 48
_cell_length_a 10.760486
_cell_length_b 7.654403
_cell_length_c 26.730044
_cell_angle_alpha 90.000000
_cell_angle_beta 90.000000
_cell_angle_gamma 90.000000
_cell_volume 2201.622649
_symmetry_space_group_name_H-M "I M M A"
_symmetry_group_IT_number 74
_symmetry_cell_setting 'orthorhombic'
loop_
_space_group_symop_operation_xyz
x,y,z
-x,1/2-y,z
x,-y,-z
-x,1/2+y,-z
-x,-y,-z
x,1/2+y,-z
-x,y,z
x,1/2-y,z
1/2+x,1/2+y,1/2+z
1/2-x,-y,1/2+z
1/2+x,1/2-y,1/2-z
1/2-x,y,1/2-z
1/2-x,1/2-y,1/2-z
1/2+x,y,1/2-z
1/2-x,1/2+y,1/2+z
1/2+x,-y,1/2+z
loop_
_atom_site_type_symbol
_atom_site_label
_atom_site_fract_x
_atom_site_fract_y
_atom_site_fract_z
Si Si1 0.639439 0.537089 0.713762
Si Si2 0.635087 0.250000 0.477626
Si Si3 0.754607 0.053946 0.107131
Si Si4 0.864776 0.750000 0.447044
O O1 0.500000 0.476301 0.726236
O O2 0.636767 0.750000 0.716265
O O3 0.750000 0.476953 0.750000
O O4 0.675637 0.493141 0.656771
O O5 0.500000 0.250000 0.501185
O O6 0.651125 0.088058 0.439030
O O7 0.754559 0.250000 0.512727
O O8 0.703187 0.250000 0.117137
O O9 0.654667 0.918498 0.087642
O O10 0.000000 0.750000 0.471221
#
# Coordination Sequence:
#
# PCOD9539942 Si02
#       4
#    16   8  16   8
#     4   9  17  33  59  90 123 156 199 248 301 361
#     4  10  22  42  65  90 122 164 210 252 300 362
#     4   9  22  40  62  90 121 162 203 253 296 359
#     4  12  26  42  61  92 125 160 206 256 311 368
#
# _framework density 21.802102000000001
#
# number of rings (size 3 to 8) (size 9 to 14) (size 15 to 20)
#    1.000    1.333    0.000    2.000    0.000    8.667 
#    0.000    4.167    0.000    0.000    0.000    0.000 
#    0.000    0.000    0.000    0.000    0.000    0.000 
#
# Total GULP energy -133851.584508 kJ/mol
# GULP energy per Si atom -5577.149355 kJ/mol
# Density = 2.175248 g / cm^3
# Si number density = 21.802102 Si / 1000 Ang^3
#
#
#
# Elastic Constant Matrix: (Units=GPa)
#
#
# Indices 1 2 3 4 5 6 
#
# 1 206.5797 29.0754 98.0610 0.0000 0.0000 0.0000
# 2 29.0754 57.6419 17.1240 0.0000 0.0000 0.0000
# 3 98.0610 17.1240 106.7407 0.0000 0.0000 0.0000
# 4 0.0000 0.0000 0.0000 -10.2861 0.0000 0.0000
# 5 0.0000 0.0000 0.0000 0.0000 24.3353 0.0000
# 6 0.0000 0.0000 0.0000 0.0000 0.0000 12.9813
#
#
#
# Elastic Compliance Matrix: (Units=1/GPa)
#
#
# Indices 1 2 3 4 5 6 
#
# 1 0.008830 -0.002146 -0.007768 0.000000 0.000000 0.000000
# 2 -0.002146 0.018738 -0.001034 0.000000 0.000000 0.000000
# 3 -0.007768 -0.001034 0.016671 0.000000 0.000000 0.000000
# 4 0.000000 0.000000 0.000000 -0.097219 0.000000 0.000000
# 5 0.000000 0.000000 0.000000 0.000000 0.041093 0.000000
# 6 0.000000 0.000000 0.000000 0.000000 0.000000 0.077034
#
#
# Mechanical properties :
#
#
# Convention : Reuss Voigt Hill
#
# Bulk Modulus (GPa) = 44.75832 73.27590 59.01711
# Shear Modulus (GPa) = 52.91516 20.51957 36.71736
#
# Velocity S-wave (km/s) = 4.93187 3.07118 4.10826
# Velocity P-wave (km/s) = 7.28046 6.80138 7.04499
#
# Compressibility (1/GPa) = 0.02234221
#
# Stress axis : x y z
#
# Youngs Moduli (GPa) = 113.24906 53.36630 59.98620
#
# Poissons Ratio (x) = 0.11455 0.46596
# Poissons Ratio (y) = 0.24308 0.06204
# Poissons Ratio (z) = 0.87969 0.05519
#
# Static dielectric constant tensor:
#      x y z
#    x 1.758160 0.000000 0.000000 
#    y 0.000000 1.859190 0.000000 
#    z 0.000000 0.000000 1.787020 
# 
# From -- ./inp_files/69547.got.cif
#   From: 2010.05.17/outbox.cif.g08.bks.cpg/sg74_35_cif.got.tgz:69547.got - 2010.06.03 17:57:02.
