data_PCOD9539726
_publ_section_title
;
Structure prediction by ZEFSAII (Michael W. Deem and Ramdas Pophale) SiO2 
 PCOD9539726
Probable space group: I M M A
;
_chemical_formula_sum "Si O2"
_cell_formula_units_Z 112
_cell_length_a 26.330503
_cell_length_b 15.061765
_cell_length_c 13.105908
_cell_angle_alpha 90.000000
_cell_angle_beta 90.000000
_cell_angle_gamma 90.000000
_cell_volume 5197.591433
_symmetry_space_group_name_H-M "I M M A"
_symmetry_group_IT_number 74
_symmetry_cell_setting 'orthorhombic'
loop_
_space_group_symop_operation_xyz
x,y,z
-x,1/2-y,z
x,-y,-z
-x,1/2+y,-z
-x,-y,-z
x,1/2+y,-z
-x,y,z
x,1/2-y,z
1/2+x,1/2+y,1/2+z
1/2-x,-y,1/2+z
1/2+x,1/2-y,1/2-z
1/2-x,y,1/2-z
1/2-x,1/2-y,1/2-z
1/2+x,y,1/2-z
1/2-x,1/2+y,1/2+z
1/2+x,-y,1/2+z
loop_
_atom_site_type_symbol
_atom_site_label
_atom_site_fract_x
_atom_site_fract_y
_atom_site_fract_z
Si Si1 0.748918 0.856021 0.540113
Si Si2 0.942342 0.144326 0.553864
Si Si3 0.887917 0.044616 0.181714
Si Si4 0.715675 0.028778 0.651974
Si Si5 0.059255 0.648767 0.992746
Si Si6 0.635776 0.855165 0.887390
Si Si7 0.442396 0.886407 0.276816
O O1 0.736869 0.750000 0.547720
O O2 0.723138 0.925222 0.618427
O O3 0.808731 0.867758 0.563326
O O4 0.733161 0.900841 0.433091
O O5 0.945880 0.250000 0.536923
O O6 0.906343 0.107844 0.465298
O O7 0.918515 0.134909 0.667154
O O8 0.000000 0.108083 0.551032
O O9 0.844383 0.970016 0.169775
O O10 0.902463 0.093396 0.077277
O O11 0.869996 0.104092 0.275628
O O12 0.938322 0.992101 0.213640
O O13 0.750000 0.044213 0.750000
O O14 0.060161 0.750000 0.955906
O O15 0.000000 0.617363 0.986760
O O16 0.073902 0.647822 0.112078
O O17 0.628770 0.750000 0.876931
O O18 0.500000 0.853964 0.266585
#
# Coordination Sequence:
#
# PCOD9539726 Si02
#       7
#    16  16  16  16  16  16  16
#     4  10  24  45  68  93 128 171 219 270 326 393
#     4   9  19  37  61  90 122 158 207 259 308 375
#     4  12  24  39  60  93 128 163 206 264 318 390
#     4  11  25  44  66  96 130 170 215 270 331 387
#     4  10  22  41  64  89 124 169 213 262 320 382
#     4  10  22  41  65  91 122 167 210 257 322 388
#     4  10  22  38  60  89 124 165 207 256 317 378
#
# _framework density 21.548442999999999
#
# number of rings (size 3 to 8) (size 9 to 14) (size 15 to 20)
#    0.000    1.714    1.429    1.714    6.000    6.286 
#    0.000    3.571    0.000    0.000    0.000    0.000 
#    0.000    0.000    0.000    0.000    0.000    0.000 
#
# Total GULP energy -312382.920275 kJ/mol
# GULP energy per Si atom -5578.266433 kJ/mol
# Density = 2.149940 g / cm^3
# Si number density = 21.548443 Si / 1000 Ang^3
#
#
#
# Elastic Constant Matrix: (Units=GPa)
#
#
# Indices 1 2 3 4 5 6 
#
# 1 73.2575 23.1516 39.0024 0.0000 0.0000 0.0000
# 2 23.1516 61.8463 10.7190 0.0000 0.0000 0.0000
# 3 39.0024 10.7190 127.8660 0.0000 0.0000 0.0000
# 4 0.0000 0.0000 0.0000 29.6735 0.0000 0.0000
# 5 0.0000 0.0000 0.0000 0.0000 31.0523 0.0000
# 6 0.0000 0.0000 0.0000 0.0000 0.0000 19.9240
#
#
#
# Elastic Compliance Matrix: (Units=1/GPa)
#
#
# Indices 1 2 3 4 5 6 
#
# 1 0.018223 -0.005945 -0.005060 0.000000 0.000000 0.000000
# 2 -0.005945 0.018347 0.000275 0.000000 0.000000 0.000000
# 3 -0.005060 0.000275 0.009341 0.000000 0.000000 0.000000
# 4 0.000000 0.000000 0.000000 0.033700 0.000000 0.000000
# 5 0.000000 0.000000 0.000000 0.000000 0.032204 0.000000
# 6 0.000000 0.000000 0.000000 0.000000 0.000000 0.050191
#
#
# Mechanical properties :
#
#
# Convention : Reuss Voigt Hill
#
# Bulk Modulus (GPa) = 40.89672 45.41288 43.15480
# Shear Modulus (GPa) = 26.09390 28.80306 27.44848
#
# Velocity S-wave (km/s) = 3.48363 3.66001 3.57291
# Velocity P-wave (km/s) = 5.93305 6.24351 6.09026
#
# Compressibility (1/GPa) = 0.02445184
#
# Stress axis : x y z
#
# Youngs Moduli (GPa) = 54.87492 54.50552 107.05364
#
# Poissons Ratio (x) = 0.32402 0.54172
# Poissons Ratio (y) = 0.32622 -0.02947
# Poissons Ratio (z) = 0.27768 -0.01500
#
# Static dielectric constant tensor:
#      x y z
#    x 1.876840 0.000000 0.000000 
#    y 0.000000 1.773920 0.000000 
#    z 0.000000 0.000000 1.773630 
# 
# From -- ./inp_files/27207.got.cif
#   From: 2010.05.17/outbox.cif.g08.bks.cpg/sg74_14_cif.got.tgz:27207.got - 2010.06.03 17:57:02.
