data_PCOD9539352
_publ_section_title
;
Structure prediction by ZEFSAII (Michael W. Deem and Ramdas Pophale) SiO2 
 PCOD9539352
Probable space group: I M M A
;
_chemical_formula_sum "Si O2"
_cell_formula_units_Z 112
_cell_length_a 14.654260
_cell_length_b 24.697479
_cell_length_c 14.513245
_cell_angle_alpha 90.000000
_cell_angle_beta 90.000000
_cell_angle_gamma 90.000000
_cell_volume 5252.681214
_symmetry_space_group_name_H-M "I M M A"
_symmetry_group_IT_number 74
_symmetry_cell_setting 'orthorhombic'
loop_
_space_group_symop_operation_xyz
x,y,z
-x,1/2-y,z
x,-y,-z
-x,1/2+y,-z
-x,-y,-z
x,1/2+y,-z
-x,y,z
x,1/2-y,z
1/2+x,1/2+y,1/2+z
1/2-x,-y,1/2+z
1/2+x,1/2-y,1/2-z
1/2-x,y,1/2-z
1/2-x,1/2-y,1/2-z
1/2+x,y,1/2-z
1/2-x,1/2+y,1/2+z
1/2+x,-y,1/2+z
loop_
_atom_site_type_symbol
_atom_site_label
_atom_site_fract_x
_atom_site_fract_y
_atom_site_fract_z
Si Si1 0.231942 0.450575 0.952785
Si Si2 0.400611 0.498854 0.840130
Si Si3 0.390708 0.187817 0.847783
Si Si4 0.901677 0.188182 0.108464
Si Si5 0.709861 0.844920 0.964587
Si Si6 0.853575 0.618735 0.717874
Si Si7 0.395848 0.402290 0.697225
O O1 0.315528 0.479243 0.900348
O O2 0.171679 0.413581 0.886178
O O3 0.178226 0.500000 0.000000
O O4 0.273770 0.409068 0.025155
O O5 0.500000 0.489469 0.885292
O O6 0.394576 0.560898 0.808893
O O7 0.396892 0.458669 0.753065
O O8 0.500000 0.181590 0.862172
O O9 0.372749 0.250000 0.820375
O O10 0.365782 0.144730 0.768329
O O11 0.340063 0.175436 0.943852
O O12 0.898550 0.250000 0.142259
O O13 0.810314 0.179854 0.049232
O O14 0.897707 0.147901 0.194831
O O15 0.000000 0.180483 0.059988
O O16 0.651928 0.841232 0.870471
O O17 0.750000 0.608324 0.750000
O O18 0.500000 0.390107 0.668351
#
# Coordination Sequence:
#
# PCOD9539352 Si02
#       7
#    16  16  16  16  16  16  16
#     4  12  24  41  63  93 133 170 209 266 325 388
#     4  11  22  38  63  93 126 167 211 256 321 393
#     4  10  22  42  67  96 128 166 218 274 328 389
#     4  10  23  43  64  90 131 179 223 267 322 390
#     4  11  23  38  64  96 129 169 215 273 326 386
#     4  10  21  38  61  92 130 172 216 267 323 390
#     4  10  23  42  66  93 127 170 213 265 329 393
#
# _framework density 21.322441999999999
#
# number of rings (size 3 to 8) (size 9 to 14) (size 15 to 20)
#    0.000    1.429    2.857    2.143    2.000    5.429 
#    0.000    3.571    0.000    1.714    0.000    0.000 
#    0.000    0.000    0.000    0.000    0.000    0.000 
#
# Total GULP energy -312800.167210 kJ/mol
# GULP energy per Si atom -5585.717272 kJ/mol
# Density = 2.127391 g / cm^3
# Si number density = 21.322442 Si / 1000 Ang^3
#
#
#
# Elastic Constant Matrix: (Units=GPa)
#
#
# Indices 1 2 3 4 5 6 
#
# 1 93.6273 34.1283 38.4230 0.0000 0.0000 0.0000
# 2 34.1283 98.8509 26.0197 0.0000 0.0001 0.0000
# 3 38.4230 26.0197 82.9826 -0.0001 0.0000 0.0000
# 4 0.0000 0.0000 -0.0001 21.7533 0.0001 0.0000
# 5 0.0000 0.0001 0.0000 0.0001 -24.7874 0.0000
# 6 0.0000 0.0000 0.0000 0.0000 0.0000 22.0684
#
#
#
# Elastic Compliance Matrix: (Units=1/GPa)
#
#
# Indices 1 2 3 4 5 6 
#
# 1 0.014192 -0.003455 -0.005488 0.000000 0.000000 0.000000
# 2 -0.003455 0.011868 -0.002121 0.000000 0.000000 0.000000
# 3 -0.005488 -0.002121 0.015257 0.000000 0.000000 0.000000
# 4 0.000000 0.000000 0.000000 0.045970 0.000000 0.000000
# 5 0.000000 0.000000 0.000000 0.000000 -0.040343 0.000000
# 6 0.000000 0.000000 0.000000 0.000000 0.000000 0.045314
#
#
# Mechanical properties :
#
#
# Convention : Reuss Voigt Hill
#
# Bulk Modulus (GPa) = 52.11669 52.51143 52.31406
# Shear Modulus (GPa) = 41.39672 15.59950 28.49811
#
# Velocity S-wave (km/s) = 4.41098 2.70774 3.65983
# Velocity P-wave (km/s) = 7.10194 5.86998 6.51514
#
# Compressibility (1/GPa) = 0.01918771
#
# Stress axis : x y z
#
# Youngs Moduli (GPa) = 70.46061 84.26325 65.54417
#
# Poissons Ratio (x) = 0.29116 0.35970
# Poissons Ratio (y) = 0.24347 0.13903
# Poissons Ratio (z) = 0.38668 0.17874
#
# Static dielectric constant tensor:
#      x y z
#    x 1.803340 0.000000 0.000000 
#    y 0.000000 1.759750 0.000000 
#    z 0.000000 0.000000 1.780910 
# 
# From -- ./inp_files/32694.got.cif
#   From: 2010.05.17/outbox.cif.g08.bks.cpg/sg74_17_cif.got.tgz:32694.got - 2010.06.03 17:57:02.
