data_PCOD9539706
_publ_section_title
;
Structure prediction by ZEFSAII (Michael W. Deem and Ramdas Pophale) SiO2 
 PCOD9539706
Probable space group: I M M A
;
_chemical_formula_sum "Si O2"
_cell_formula_units_Z 112
_cell_length_a 14.738002
_cell_length_b 30.996431
_cell_length_c 11.747243
_cell_angle_alpha 90.000000
_cell_angle_beta 90.000000
_cell_angle_gamma 90.000000
_cell_volume 5366.439712
_symmetry_space_group_name_H-M "I M M A"
_symmetry_group_IT_number 74
_symmetry_cell_setting 'orthorhombic'
loop_
_space_group_symop_operation_xyz
x,y,z
-x,1/2-y,z
x,-y,-z
-x,1/2+y,-z
-x,-y,-z
x,1/2+y,-z
-x,y,z
x,1/2-y,z
1/2+x,1/2+y,1/2+z
1/2-x,-y,1/2+z
1/2+x,1/2-y,1/2-z
1/2-x,y,1/2-z
1/2-x,1/2-y,1/2-z
1/2+x,y,1/2-z
1/2-x,1/2+y,1/2+z
1/2+x,-y,1/2+z
loop_
_atom_site_type_symbol
_atom_site_label
_atom_site_fract_x
_atom_site_fract_y
_atom_site_fract_z
Si Si1 0.348363 0.413054 0.221989
Si Si2 0.895047 0.547840 0.052522
Si Si3 0.396607 0.999693 0.220815
Si Si4 0.741849 0.700592 0.559387
Si Si5 0.247626 0.877269 0.112548
Si Si6 0.398088 0.680442 0.758968
Si Si7 0.391675 0.436613 0.965925
O O1 0.250000 0.395931 0.250000
O O2 0.357552 0.458421 0.285385
O O3 0.406958 0.371625 0.244395
O O4 0.362984 0.432117 0.096519
O O5 0.898558 0.537887 0.187220
O O6 0.821421 0.586970 0.053154
O O7 0.000000 0.558931 0.015460
O O8 0.874126 0.500000 0.000000
O O9 0.500000 0.012340 0.193853
O O10 0.355784 0.976896 0.109126
O O11 0.744352 0.750000 0.520638
O O12 0.732631 0.666767 0.456724
O O13 0.658322 0.694981 0.648175
O O14 0.833407 0.691186 0.633256
O O15 0.250000 0.874084 0.250000
O O16 0.348358 0.894262 0.086381
O O17 0.500000 0.698250 0.765949
O O18 0.500000 0.438067 0.958545
#
# Coordination Sequence:
#
# PCOD9539706 Si02
#       7
#    16  16  16  16  16  16  16
#     4  12  23  36  59  98 136 173 217 270 327 394
#     4  10  24  42  62  93 133 177 223 270 320 378
#     4  10  22  38  57  88 129 180 226 265 312 376
#     4  11  26  47  68 101 134 164 222 283 342 418
#     4  12  25  44  69  99 131 181 228 276 338 398
#     4  11  22  43  72 101 136 172 212 275 345 406
#     4  11  23  42  62  88 132 179 227 274 318 384
#
# _framework density 20.870448
#
# number of rings (size 3 to 8) (size 9 to 14) (size 15 to 20)
#    0.000    1.000    4.286    2.571    6.000    3.143 
#    0.000    0.000    0.000    0.000    0.000    4.000 
#    0.000    0.000    0.000    0.000    0.000    0.000 
#
# Total GULP energy -312179.604099 kJ/mol
# GULP energy per Si atom -5574.635787 kJ/mol
# Density = 2.082295 g / cm^3
# Si number density = 20.870448 Si / 1000 Ang^3
#
#
#
# Elastic Constant Matrix: (Units=GPa)
#
#
# Indices 1 2 3 4 5 6 
#
# 1 122.5934 45.7435 29.3422 0.0000 0.0000 0.0000
# 2 45.7435 153.2451 41.0641 0.0000 0.0000 0.0000
# 3 29.3422 41.0641 87.8278 0.0005 0.0001 0.0000
# 4 0.0000 0.0000 0.0005 20.0153 0.0000 0.0000
# 5 0.0000 0.0000 0.0001 0.0000 19.8449 0.0000
# 6 0.0000 0.0000 0.0000 0.0000 0.0000 -2.1177
#
#
#
# Elastic Compliance Matrix: (Units=1/GPa)
#
#
# Indices 1 2 3 4 5 6 
#
# 1 0.009511 -0.002272 -0.002115 0.000000 0.000000 0.000000
# 2 -0.002272 0.008003 -0.002983 0.000000 0.000000 0.000000
# 3 -0.002115 -0.002983 0.013487 0.000000 0.000000 0.000000
# 4 0.000000 0.000000 0.000000 0.049962 0.000000 -0.000001
# 5 0.000000 0.000000 0.000000 0.000000 0.050391 -0.000001
# 6 0.000000 0.000000 0.000000 -0.000001 -0.000001 -0.472200
#
#
# Mechanical properties :
#
#
# Convention : Reuss Voigt Hill
#
# Bulk Modulus (GPa) = 61.49660 66.21843 63.85752
# Shear Modulus (GPa) = -15.59160 24.04961 4.22900
#
# Velocity S-wave (km/s) = -2.73622 3.39828 1.42503
# Velocity P-wave (km/s) = 4.42124 6.86986 5.77678
#
# Compressibility (1/GPa) = 0.01626106
#
# Stress axis : x y z
#
# Youngs Moduli (GPa) = 105.13966 124.95283 74.14477
#
# Poissons Ratio (x) = 0.28393 0.15683
# Poissons Ratio (y) = 0.23891 0.22115
# Poissons Ratio (z) = 0.22239 0.37269
#
# Static dielectric constant tensor:
#      x y z
#    x 1.878770 0.000000 0.000000 
#    y 0.000000 1.825740 0.000000 
#    z 0.000000 0.000000 1.960360 
# 
# From -- ./inp_files/21124.got.cif
#   From: 2010.05.17/outbox.cif.g08.bks.cpg/sg74_11_cif.got.tgz:21124.got - 2010.06.03 17:57:02.
