data_PCOD9539148
_publ_section_title
;
Structure prediction by ZEFSAII (Michael W. Deem and Ramdas Pophale) SiO2 
 PCOD9539148
Probable space group: I M M A
;
_chemical_formula_sum "Si O2"
_cell_formula_units_Z 112
_cell_length_a 15.749342
_cell_length_b 15.061396
_cell_length_c 22.681062
_cell_angle_alpha 90.000000
_cell_angle_beta 90.000000
_cell_angle_gamma 90.000000
_cell_volume 5380.108411
_symmetry_space_group_name_H-M "I M M A"
_symmetry_group_IT_number 74
_symmetry_cell_setting 'orthorhombic'
loop_
_space_group_symop_operation_xyz
x,y,z
-x,1/2-y,z
x,-y,-z
-x,1/2+y,-z
-x,-y,-z
x,1/2+y,-z
-x,y,z
x,1/2-y,z
1/2+x,1/2+y,1/2+z
1/2-x,-y,1/2+z
1/2+x,1/2-y,1/2-z
1/2-x,y,1/2-z
1/2-x,1/2-y,1/2-z
1/2+x,y,1/2-z
1/2-x,1/2+y,1/2+z
1/2+x,-y,1/2+z
loop_
_atom_site_type_symbol
_atom_site_label
_atom_site_fract_x
_atom_site_fract_y
_atom_site_fract_z
Si Si1 0.902623 0.924932 0.631448
Si Si2 0.904655 0.473471 0.786793
Si Si3 0.828081 0.344632 0.703991
Si Si4 0.098722 0.643047 0.098581
Si Si5 0.406706 0.352411 0.004716
Si Si6 0.150382 0.347109 0.243134
Si Si7 0.222662 0.425386 0.585327
O O1 0.902029 0.859982 0.574972
O O2 0.888254 0.875696 0.693578
O O3 0.000000 0.963631 0.631689
O O4 0.822438 0.988588 0.614824
O O5 0.882253 0.428008 0.724977
O O6 0.896332 0.396410 0.835074
O O7 0.856425 0.565021 0.797629
O O8 0.000000 0.503701 0.786174
O O9 0.873063 0.250000 0.710480
O O10 0.750000 0.346254 0.750000
O O11 0.794668 0.355128 0.638100
O O12 0.112007 0.750000 0.096405
O O13 0.177581 0.588453 0.070078
O O14 0.000000 0.626909 0.078835
O O15 0.500000 0.387002 0.986414
O O16 0.401078 0.250000 0.987103
O O17 0.333193 0.403995 0.971510
O O18 0.116001 0.250000 0.224294
O O19 0.250000 0.337373 0.250000
#
# Coordination Sequence:
#
# PCOD9539148 Si02
#       7
#    16  16  16  16  16  16  16
#     4  11  23  40  61  86 122 164 198 240 304 369
#     4  11  21  34  52  78 112 152 193 235 285 349
#     4  11  21  33  51  78 116 156 188 230 292 352
#     4  10  21  37  58  86 121 160 200 242 299 366
#     4  10  22  39  59  86 118 156 204 251 298 357
#     4  11  23  39  59  84 113 153 204 250 291 346
#     4  12  21  35  59  86 119 154 202 250 295 352
#
# _framework density 20.817425
#
# number of rings (size 3 to 8) (size 9 to 14) (size 15 to 20)
#    0.000    1.143    2.857    4.714    0.000    4.286 
#    0.000    0.000    0.000    1.714    0.000    0.000 
#    0.000    4.571    0.000    0.000    0.000    0.000 
#
# Total GULP energy -311961.934955 kJ/mol
# GULP energy per Si atom -5570.748838 kJ/mol
# Density = 2.077004 g / cm^3
# Si number density = 20.817425 Si / 1000 Ang^3
#
#
#
# Elastic Constant Matrix: (Units=GPa)
#
#
# Indices 1 2 3 4 5 6 
#
# 1 136.1106 33.2900 7.0619 0.0000 0.0000 0.0000
# 2 33.2900 98.5638 -17.2508 0.0000 0.0000 0.0000
# 3 7.0619 -17.2508 45.2204 0.0000 0.0000 0.0000
# 4 0.0000 0.0000 0.0000 20.5870 0.0000 0.0000
# 5 0.0000 0.0000 0.0000 0.0000 26.7791 0.0000
# 6 0.0000 0.0000 0.0000 0.0000 0.0000 61.9753
#
#
#
# Elastic Compliance Matrix: (Units=1/GPa)
#
#
# Indices 1 2 3 4 5 6 
#
# 1 0.008269 -0.003235 -0.002525 0.000000 0.000000 0.000000
# 2 -0.003235 0.012137 0.005135 0.000000 0.000000 0.000000
# 3 -0.002525 0.005135 0.024467 0.000000 0.000000 0.000000
# 4 0.000000 0.000000 0.000000 0.048574 0.000000 0.000000
# 5 0.000000 0.000000 0.000000 0.000000 0.037343 0.000000
# 6 0.000000 0.000000 0.000000 0.000000 0.000000 0.016135
#
#
# Mechanical properties :
#
#
# Convention : Reuss Voigt Hill
#
# Bulk Modulus (GPa) = 22.92346 36.23300 29.57823
# Shear Modulus (GPa) = 30.72814 38.98787 34.85800
#
# Velocity S-wave (km/s) = 3.84614 4.33234 4.09646
# Velocity P-wave (km/s) = 5.54611 6.51678 6.05094
#
# Compressibility (1/GPa) = 0.04362343
#
# Stress axis : x y z
#
# Youngs Moduli (GPa) = 120.93079 82.39208 40.87083
#
# Poissons Ratio (x) = 0.26653 0.10322
# Poissons Ratio (y) = 0.39120 -0.20988
# Poissons Ratio (z) = 0.30540 -0.42311
#
# Static dielectric constant tensor:
#      x y z
#    x 1.791730 0.000000 0.000000 
#    y 0.000000 1.804010 0.000000 
#    z 0.000000 0.000000 1.757770 
# 
# From -- ./inp_files/60124.got.cif
#   From: 2010.05.17/outbox.cif.g08.bks.cpg/sg74_31_cif.got.tgz:60124.got - 2010.06.03 17:57:02.
