data_PCOD9539970
_publ_section_title
;
Structure prediction by ZEFSAII (Michael W. Deem and Ramdas Pophale) SiO2 
 PCOD9539970
Probable space group: I M M A
;
_chemical_formula_sum "Si O2"
_cell_formula_units_Z 72
_cell_length_a 11.414858
_cell_length_b 14.144647
_cell_length_c 20.735095
_cell_angle_alpha 90.000000
_cell_angle_beta 90.000000
_cell_angle_gamma 90.000000
_cell_volume 3347.870544
_symmetry_space_group_name_H-M "I M M A"
_symmetry_group_IT_number 74
_symmetry_cell_setting 'orthorhombic'
loop_
_space_group_symop_operation_xyz
x,y,z
-x,1/2-y,z
x,-y,-z
-x,1/2+y,-z
-x,-y,-z
x,1/2+y,-z
-x,y,z
x,1/2-y,z
1/2+x,1/2+y,1/2+z
1/2-x,-y,1/2+z
1/2+x,1/2-y,1/2-z
1/2-x,y,1/2-z
1/2-x,1/2-y,1/2-z
1/2+x,y,1/2-z
1/2-x,1/2+y,1/2+z
1/2+x,-y,1/2+z
loop_
_atom_site_type_symbol
_atom_site_label
_atom_site_fract_x
_atom_site_fract_y
_atom_site_fract_z
Si Si1 0.000000 0.364833 0.441445
Si Si2 0.299561 0.493635 0.887121
Si Si3 0.750000 0.938150 0.750000
Si Si4 0.000000 0.363055 0.088085
Si Si5 0.500000 0.859685 0.097503
Si Si6 0.500000 0.361618 0.268915
Si Si7 0.135121 0.139818 0.968361
O O1 0.883414 0.420587 0.414815
O O2 0.000000 0.375941 0.519435
O O3 0.000000 0.250000 0.427437
O O4 0.235569 0.514680 0.819940
O O5 0.216619 0.436551 0.936301
O O6 0.112894 0.616695 0.955930
O O7 0.624623 0.887326 0.761487
O O8 0.000000 0.250000 0.092252
O O9 0.000000 0.402399 0.158514
O O10 0.500000 0.750000 0.108044
O O11 0.391467 0.911264 0.128663
O O12 0.500000 0.250000 0.273284
O O13 0.174918 0.250000 0.962754
O O14 0.000000 0.135352 0.943078
#
# Coordination Sequence:
#
# PCOD9539970 Si02
#       7
#     8  16   8   8   8   8  16
#     4  10  24  44  67  95 130 175 221 273 336 398
#     4  11  22  41  67  94 134 175 220 270 328 387
#     4  12  29  42  63  92 136 182 232 276 310 400
#     4   7  16  35  64  98 128 157 205 272 347 412
#     4  10  22  43  70 100 130 167 219 274 335 404
#     4  11  24  46  67  91 127 179 231 281 335 386
#     4   8  17  37  66 103 135 158 201 273 348 403
#
# _framework density 21.506208000000001
#
# number of rings (size 3 to 8) (size 9 to 14) (size 15 to 20)
#    0.667    1.556    0.000    3.667    1.556    6.222 
#    0.000    7.778    0.000    0.000    0.000    0.000 
#    0.000    0.000    0.000    0.000    0.000    0.000 
#
# Total GULP energy -200526.218140 kJ/mol
# GULP energy per Si atom -5570.172726 kJ/mol
# Density = 2.145726 g / cm^3
# Si number density = 21.506208 Si / 1000 Ang^3
#
#
#
# Elastic Constant Matrix: (Units=GPa)
#
#
# Indices 1 2 3 4 5 6 
#
# 1 107.0705 55.1034 19.9955 0.0000 0.0000 0.0000
# 2 55.1034 125.8953 14.6483 0.0000 0.0000 0.0000
# 3 19.9955 14.6483 65.9582 0.0000 0.0000 0.0000
# 4 0.0000 0.0000 0.0000 14.9354 0.0000 0.0000
# 5 0.0000 0.0000 0.0000 0.0000 54.2884 0.0000
# 6 0.0000 0.0000 0.0000 0.0000 0.0000 -239.7963
#
#
#
# Elastic Compliance Matrix: (Units=1/GPa)
#
#
# Indices 1 2 3 4 5 6 
#
# 1 0.012487 -0.005158 -0.002640 0.000000 0.000000 0.000000
# 2 -0.005158 0.010285 -0.000720 0.000000 0.000000 0.000000
# 3 -0.002640 -0.000720 0.016121 0.000000 0.000000 0.000000
# 4 0.000000 0.000000 0.000000 0.066955 0.000000 0.000000
# 5 0.000000 0.000000 0.000000 0.000000 0.018420 0.000000
# 6 0.000000 0.000000 0.000000 0.000000 0.000000 -0.004170
#
#
# Mechanical properties :
#
#
# Convention : Reuss Voigt Hill
#
# Bulk Modulus (GPa) = 45.75383 53.15760 49.45571
# Shear Modulus (GPa) = 34.62088 -20.16938 7.22575
#
# Velocity S-wave (km/s) = 4.01659 -3.06574 1.83498
# Velocity P-wave (km/s) = 6.54459 3.49847 5.24742
#
# Compressibility (1/GPa) = 0.02185610
#
# Stress axis : x y z
#
# Youngs Moduli (GPa) = 80.08040 97.23143 62.02932
#
# Poissons Ratio (x) = 0.50157 0.16376
# Poissons Ratio (y) = 0.41309 0.04468
# Poissons Ratio (z) = 0.21141 0.07003
#
# Static dielectric constant tensor:
#      x y z
#    x 1.004800 0.000000 0.000000 
#    y 0.000000 1.771570 0.000000 
#    z 0.000000 0.000000 1.812430 
# 
# From -- ./inp_files/63747.got.cif
#   From: 2010.05.17/outbox.cif.g08.bks.cpg/sg74_32_cif.got.tgz:63747.got - 2010.06.03 17:57:02.
