data_PCOD9539592
_publ_section_title
;
Structure prediction by ZEFSAII (Michael W. Deem and Ramdas Pophale) SiO2 
 PCOD9539592
Probable space group: I M M A
;
_chemical_formula_sum "Si O2"
_cell_formula_units_Z 64
_cell_length_a 18.542943
_cell_length_b 10.214419
_cell_length_c 17.648004
_cell_angle_alpha 90.000000
_cell_angle_beta 90.000000
_cell_angle_gamma 90.000000
_cell_volume 3342.627068
_symmetry_space_group_name_H-M "I M M A"
_symmetry_group_IT_number 74
_symmetry_cell_setting 'orthorhombic'
loop_
_space_group_symop_operation_xyz
x,y,z
-x,1/2-y,z
x,-y,-z
-x,1/2+y,-z
-x,-y,-z
x,1/2+y,-z
-x,y,z
x,1/2-y,z
1/2+x,1/2+y,1/2+z
1/2-x,-y,1/2+z
1/2+x,1/2-y,1/2-z
1/2-x,y,1/2-z
1/2-x,1/2-y,1/2-z
1/2+x,y,1/2-z
1/2-x,1/2+y,1/2+z
1/2+x,-y,1/2+z
loop_
_atom_site_type_symbol
_atom_site_label
_atom_site_fract_x
_atom_site_fract_y
_atom_site_fract_z
Si Si1 0.082554 0.906879 0.320373
Si Si2 0.084318 0.750000 0.070025
Si Si3 0.709255 0.591417 0.073116
Si Si4 0.913231 0.750000 0.891037
Si Si5 0.345606 0.518191 0.336410
O O1 0.079232 0.750000 0.312411
O O2 0.128452 0.932719 0.396085
O O3 0.128402 0.955527 0.248639
O O4 0.000000 0.956698 0.320442
O O5 0.115074 0.622452 0.109598
O O6 0.000000 0.750000 0.082371
O O7 0.098446 0.750000 0.981151
O O8 0.718873 0.750000 0.060354
O O9 0.763020 0.545022 0.140433
O O10 0.724066 0.500000 0.000000
O O11 0.874396 0.623569 0.857978
O O12 0.000000 0.750000 0.877048
#
# Coordination Sequence:
#
# PCOD9539592 Si02
#       5
#    16   8  16   8  16
#     4  10  21  41  68  94 123 165 214 258 306 371
#     4  11  20  34  57  84 120 168 209 245 302 370
#     4  11  24  42  66  95 126 164 211 260 311 372
#     4  11  24  36  53  90 134 168 207 253 310 374
#     4  12  22  38  63  90 125 163 205 260 313 368
#
# _framework density 19.146616000000002
#
# number of rings (size 3 to 8) (size 9 to 14) (size 15 to 20)
#    0.000    1.000    2.500    5.250    1.750    4.500 
#    2.250    1.250    0.000    0.000    0.000    0.000 
#    0.000    0.000    0.000    0.000    0.000    0.000 
#
# Total GULP energy -178683.135568 kJ/mol
# GULP energy per Si atom -5583.847987 kJ/mol
# Density = 1.910304 g / cm^3
# Si number density = 19.146616 Si / 1000 Ang^3
#
#
#
# Elastic Constant Matrix: (Units=GPa)
#
#
# Indices 1 2 3 4 5 6 
#
# 1 151.5908 47.9076 44.6493 0.0000 0.0000 0.0000
# 2 47.9076 105.6325 13.9995 0.0000 0.0000 0.0000
# 3 44.6493 13.9995 33.8616 0.0000 0.0000 0.0000
# 4 0.0000 0.0000 0.0000 88.1319 0.0000 0.0000
# 5 0.0000 0.0000 0.0000 0.0000 34.9185 0.0000
# 6 0.0000 0.0000 0.0000 0.0000 0.0000 22.8386
#
#
#
# Elastic Compliance Matrix: (Units=1/GPa)
#
#
# Indices 1 2 3 4 5 6 
#
# 1 0.011900 -0.003510 -0.014240 0.000000 0.000000 0.000000
# 2 -0.003510 0.011051 0.000059 0.000000 0.000000 0.000000
# 3 -0.014240 0.000059 0.048284 0.000000 0.000000 0.000000
# 4 0.000000 0.000000 0.000000 0.011347 0.000000 0.000000
# 5 0.000000 0.000000 0.000000 0.000000 0.028638 0.000000
# 6 0.000000 0.000000 0.000000 0.000000 0.000000 0.043786
#
#
# Mechanical properties :
#
#
# Convention : Reuss Voigt Hill
#
# Bulk Modulus (GPa) = 27.89119 56.02197 41.95658
# Shear Modulus (GPa) = 24.71102 41.47971 33.09537
#
# Velocity S-wave (km/s) = 3.59642 4.65954 4.16206
# Velocity P-wave (km/s) = 5.64309 7.63357 6.71252
#
# Compressibility (1/GPa) = 0.03585362
#
# Stress axis : x y z
#
# Youngs Moduli (GPa) = 84.03181 90.49156 20.71059
#
# Poissons Ratio (x) = 0.31761 0.29493
# Poissons Ratio (y) = 0.29494 -0.00123
# Poissons Ratio (z) = 1.19664 -0.00536
#
# Static dielectric constant tensor:
#      x y z
#    x 1.715100 0.000000 0.000000 
#    y 0.000000 1.632500 0.000000 
#    z 0.000000 0.000000 1.621760 
# 
# From -- ./inp_files/44798.got.cif
#   From: 2010.05.17/outbox.cif.g08.bks.cpg/sg74_23_cif.got.tgz:44798.got - 2010.06.03 17:57:02.
