data_PCOD9539962
_publ_section_title
;
Structure prediction by ZEFSAII (Michael W. Deem and Ramdas Pophale) SiO2 
 PCOD9539962
Probable space group: I M M A
;
_chemical_formula_sum "Si O2"
_cell_formula_units_Z 64
_cell_length_a 15.068962
_cell_length_b 14.711624
_cell_length_c 12.098319
_cell_angle_alpha 90.000000
_cell_angle_beta 90.000000
_cell_angle_gamma 90.000000
_cell_volume 2682.063067
_symmetry_space_group_name_H-M "I M M A"
_symmetry_group_IT_number 74
_symmetry_cell_setting 'orthorhombic'
loop_
_space_group_symop_operation_xyz
x,y,z
-x,1/2-y,z
x,-y,-z
-x,1/2+y,-z
-x,-y,-z
x,1/2+y,-z
-x,y,z
x,1/2-y,z
1/2+x,1/2+y,1/2+z
1/2-x,-y,1/2+z
1/2+x,1/2-y,1/2-z
1/2-x,y,1/2-z
1/2-x,1/2-y,1/2-z
1/2+x,y,1/2-z
1/2-x,1/2+y,1/2+z
1/2+x,-y,1/2+z
loop_
_atom_site_type_symbol
_atom_site_label
_atom_site_fract_x
_atom_site_fract_y
_atom_site_fract_z
Si Si1 0.894784 0.141104 0.242621
Si Si2 0.397608 0.348118 0.725030
Si Si3 0.330844 0.491242 0.893972
Si Si4 0.814655 0.854960 0.996565
O O1 0.887832 0.250000 0.255487
O O2 0.835567 0.089239 0.333466
O O3 0.000000 0.116570 0.251720
O O4 0.858593 0.118085 0.119816
O O5 0.500000 0.348563 0.754819
O O6 0.358412 0.250000 0.757371
O O7 0.353746 0.428880 0.790104
O O8 0.387179 0.356252 0.593947
O O9 0.258006 0.425158 0.956389
O O10 0.395454 0.500000 0.000000
O O11 0.782850 0.750000 0.987737
#
# Coordination Sequence:
#
# PCOD9539962 Si02
#       4
#    16  16  16  16
#     4  10  24  48  76 106 142 189 245 302 360 424
#     4  10  22  42  69  99 134 180 235 295 355 417
#     4  12  27  41  66 103 146 190 234 289 361 433
#     4  10  23  44  73 104 139 184 239 301 358 423
#
# _framework density 23.862227000000001
#
# number of rings (size 3 to 8) (size 9 to 14) (size 15 to 20)
#    0.000    1.500    0.000    3.000    7.000    9.000 
#    0.000    7.500    0.000    0.000    0.000    0.000 
#    0.000    2.000    0.000    0.000    0.000    0.000 
#
# Total GULP energy -178475.876091 kJ/mol
# GULP energy per Si atom -5577.371128 kJ/mol
# Density = 2.380792 g / cm^3
# Si number density = 23.862227 Si / 1000 Ang^3
#
#
#
# Elastic Constant Matrix: (Units=GPa)
#
#
# Indices 1 2 3 4 5 6 
#
# 1 101.6426 40.3968 17.0205 0.0000 0.0000 0.0000
# 2 40.3968 108.0205 55.7086 0.0000 0.0000 0.0000
# 3 17.0205 55.7086 160.9112 0.0000 0.0000 0.0000
# 4 0.0000 0.0000 0.0000 35.7209 0.0000 0.0000
# 5 0.0000 0.0000 0.0000 0.0000 -5.8088 0.0000
# 6 0.0000 0.0000 0.0000 0.0000 0.0000 57.1817
#
#
#
# Elastic Compliance Matrix: (Units=1/GPa)
#
#
# Indices 1 2 3 4 5 6 
#
# 1 0.011571 -0.004499 0.000334 0.000000 0.000000 0.000000
# 2 -0.004499 0.013019 -0.004031 0.000000 0.000000 0.000000
# 3 0.000334 -0.004031 0.007575 0.000000 0.000000 0.000000
# 4 0.000000 0.000000 0.000000 0.027995 0.000000 0.000000
# 5 0.000000 0.000000 0.000000 0.000000 -0.172154 0.000000
# 6 0.000000 0.000000 0.000000 0.000000 0.000000 0.017488
#
#
# Mechanical properties :
#
#
# Convention : Reuss Voigt Hill
#
# Bulk Modulus (GPa) = 63.40721 66.31400 64.86061
# Shear Modulus (GPa) = -68.62959 34.58199 -17.02380
#
# Velocity S-wave (km/s) = -5.36872 3.81101 -2.67389
# Velocity P-wave (km/s) = 3.43526 6.87137 4.20801
#
# Compressibility (1/GPa) = 0.01577108
#
# Stress axis : x y z
#
# Youngs Moduli (GPa) = 86.42528 76.80955 132.01298
#
# Poissons Ratio (x) = 0.34559 -0.04406
# Poissons Ratio (y) = 0.38885 0.53220
# Poissons Ratio (z) = -0.02885 0.30965
#
# Static dielectric constant tensor:
#      x y z
#    x 2.126480 0.000000 0.000000 
#    y 0.000000 2.020470 0.000000 
#    z 0.000000 0.000000 2.041810 
# 
# From -- ./inp_files/21603.got.cif
#   From: 2010.05.17/outbox.cif.g08.bks.cpg/sg74_11_cif.got.tgz:21603.got - 2010.06.03 17:57:02.
