data_PCOD9539826
_publ_section_title
;
Structure prediction by ZEFSAII (Michael W. Deem and Ramdas Pophale) SiO2 
 PCOD9539826
Probable space group: I M M A
;
_chemical_formula_sum "Si O2"
_cell_formula_units_Z 96
_cell_length_a 17.754963
_cell_length_b 22.735327
_cell_length_c 12.427198
_cell_angle_alpha 90.000000
_cell_angle_beta 90.000000
_cell_angle_gamma 90.000000
_cell_volume 5016.423510
_symmetry_space_group_name_H-M "I M M A"
_symmetry_group_IT_number 74
_symmetry_cell_setting 'orthorhombic'
loop_
_space_group_symop_operation_xyz
x,y,z
-x,1/2-y,z
x,-y,-z
-x,1/2+y,-z
-x,-y,-z
x,1/2+y,-z
-x,y,z
x,1/2-y,z
1/2+x,1/2+y,1/2+z
1/2-x,-y,1/2+z
1/2+x,1/2-y,1/2-z
1/2-x,y,1/2-z
1/2-x,1/2-y,1/2-z
1/2+x,y,1/2-z
1/2-x,1/2+y,1/2+z
1/2+x,-y,1/2+z
loop_
_atom_site_type_symbol
_atom_site_label
_atom_site_fract_x
_atom_site_fract_y
_atom_site_fract_z
Si Si1 0.165505 0.130611 0.199309
Si Si2 0.587214 0.551845 0.864260
Si Si3 0.910492 0.250000 0.466009
Si Si4 0.647557 0.374160 0.945956
Si Si5 0.340761 0.559373 0.253648
Si Si6 0.803940 0.933304 0.014658
Si Si7 0.589964 0.250000 0.292808
O O1 0.250000 0.132568 0.250000
O O2 0.109756 0.107390 0.291048
O O3 0.162668 0.086660 0.098639
O O4 0.133854 0.193263 0.164382
O O5 0.500000 0.537962 0.859698
O O6 0.631467 0.498601 0.808299
O O7 0.607712 0.574787 0.982947
O O8 0.875774 0.309814 0.514890
O O9 0.899558 0.250000 0.337115
O O10 0.000000 0.250000 0.486293
O O11 0.632199 0.386853 0.820623
O O12 0.735722 0.388091 0.964660
O O13 0.250000 0.556770 0.250000
O O14 0.357421 0.564796 0.380397
O O15 0.774364 0.000000 0.000000
O O16 0.500000 0.250000 0.314486
#
# Coordination Sequence:
#
# PCOD9539826 Si02
#       7
#    16  16   8  16  16  16   8
#     4  12  22  38  65  95 124 163 214 252 306 370
#     4  12  22  36  61  94 128 159 202 262 317 367
#     4  11  22  39  59  85 125 164 198 252 318 371
#     4  11  22  37  62  90 123 157 210 258 310 364
#     4  10  22  40  61  90 124 165 204 254 314 372
#     4  11  21  39  65  90 124 162 205 256 308 368
#     4  11  23  41  62  91 128 162 204 262 317 362
#
# _framework density 19.137139000000001
#
# number of rings (size 3 to 8) (size 9 to 14) (size 15 to 20)
#    0.000    0.833    5.000    4.250    0.000    2.667 
#    0.000    7.083    0.000    1.000    0.000    0.000 
#    0.000    0.000    0.000    0.000    0.000    0.000 
#
# Total GULP energy -267974.121650 kJ/mol
# GULP energy per Si atom -5582.794201 kJ/mol
# Density = 1.909358 g / cm^3
# Si number density = 19.137139 Si / 1000 Ang^3
#
#
#
# Elastic Constant Matrix: (Units=GPa)
#
#
# Indices 1 2 3 4 5 6 
#
# 1 51.0524 30.9704 39.0117 0.0000 0.0000 0.0000
# 2 30.9704 118.4502 32.4732 0.0000 0.0000 0.0000
# 3 39.0117 32.4732 111.5753 0.0000 0.0000 0.0000
# 4 0.0000 0.0000 0.0000 31.5667 0.0000 0.0000
# 5 0.0000 0.0000 0.0000 0.0000 9.9722 0.0000
# 6 0.0000 0.0000 0.0000 0.0000 0.0000 -19.6957
#
#
#
# Elastic Compliance Matrix: (Units=1/GPa)
#
#
# Indices 1 2 3 4 5 6 
#
# 1 0.029514 -0.005312 -0.008774 0.000000 0.000000 0.000000
# 2 -0.005312 0.010130 -0.001091 0.000000 0.000000 0.000000
# 3 -0.008774 -0.001091 0.012348 0.000000 0.000000 0.000000
# 4 0.000000 0.000000 0.000000 0.031679 0.000000 0.000000
# 5 0.000000 0.000000 0.000000 0.000000 0.100278 0.000000
# 6 0.000000 0.000000 0.000000 0.000000 0.000000 -0.050772
#
#
# Mechanical properties :
#
#
# Convention : Reuss Voigt Hill
#
# Bulk Modulus (GPa) = 46.21163 53.99874 50.10518
# Shear Modulus (GPa) = 29.28371 16.27682 22.78026
#
# Velocity S-wave (km/s) = 3.91602 2.91956 3.45392
# Velocity P-wave (km/s) = 6.68184 6.29627 6.49192
#
# Compressibility (1/GPa) = 0.02163957
#
# Stress axis : x y z
#
# Youngs Moduli (GPa) = 33.88185 98.71371 80.98619
#
# Poissons Ratio (x) = 0.52433 0.71054
# Poissons Ratio (y) = 0.17997 0.08837
# Poissons Ratio (z) = 0.29727 0.10771
#
# Static dielectric constant tensor:
#      x y z
#    x 1.655570 0.000000 0.000000 
#    y 0.000000 1.713720 0.000000 
#    z 0.000000 0.000000 1.806620 
# 
# From -- ./inp_files/22517.got.cif
#   From: 2010.05.17/outbox.cif.g08.bks.cpg/sg74_12_cif.got.tgz:22517.got - 2010.06.03 17:57:02.
