data_PCOD9539693
_publ_section_title
;
Structure prediction by ZEFSAII (Michael W. Deem and Ramdas Pophale) SiO2 
 PCOD9539693
Probable space group: I M M A
;
_chemical_formula_sum "Si O2"
_cell_formula_units_Z 56
_cell_length_a 7.598518
_cell_length_b 7.529138
_cell_length_c 42.841379
_cell_angle_alpha 90.000000
_cell_angle_beta 90.000000
_cell_angle_gamma 90.000000
_cell_volume 2450.967743
_symmetry_space_group_name_H-M "I M M A"
_symmetry_group_IT_number 74
_symmetry_cell_setting 'orthorhombic'
loop_
_space_group_symop_operation_xyz
x,y,z
-x,1/2-y,z
x,-y,-z
-x,1/2+y,-z
-x,-y,-z
x,1/2+y,-z
-x,y,z
x,1/2-y,z
1/2+x,1/2+y,1/2+z
1/2-x,-y,1/2+z
1/2+x,1/2-y,1/2-z
1/2-x,y,1/2-z
1/2-x,1/2-y,1/2-z
1/2+x,y,1/2-z
1/2-x,1/2+y,1/2+z
1/2+x,-y,1/2+z
loop_
_atom_site_type_symbol
_atom_site_label
_atom_site_fract_x
_atom_site_fract_y
_atom_site_fract_z
Si Si1 0.800339 0.461537 0.581551
Si Si2 0.211620 0.045422 0.283624
Si Si3 0.500000 0.036631 0.536531
Si Si4 0.296583 0.964138 0.850077
O O1 0.813799 0.250000 0.577588
O O2 0.671947 0.531365 0.554825
O O3 0.721148 0.490687 0.616195
O O4 0.000000 0.534773 0.580381
O O5 0.277893 0.250000 0.281842
O O6 0.250000 0.961556 0.250000
O O7 0.277198 0.970457 0.316801
O O8 0.000000 0.050978 0.286420
O O9 0.500000 0.250000 0.540122
O O10 0.500000 0.000000 0.500000
O O11 0.500000 0.026738 0.851872
O O12 0.297543 0.750000 0.847763
#
# Coordination Sequence:
#
# PCOD9539693 Si02
#       4
#    16  16   8  16
#     4   9  18  34  54  73  96 129 162 191 234 288
#     4   8  13  22  36  56  86 120 152 191 239 282
#     4  10  22  38  54  76 104 128 156 196 238 286
#     4   8  14  26  45  68  93 122 159 202 240 278
#
# _framework density 22.848119000000001
#
# number of rings (size 3 to 8) (size 9 to 14) (size 15 to 20)
#    0.000    3.429    0.000    1.714    0.000    1.714 
#    2.571    0.000    0.000    0.857    0.000    0.000 
#    0.000    0.000    0.000    0.000    0.000    0.000 
#
# Total GULP energy -156015.199095 kJ/mol
# GULP energy per Si atom -5571.971396 kJ/mol
# Density = 2.279612 g / cm^3
# Si number density = 22.848119 Si / 1000 Ang^3
#
#
#
# Elastic Constant Matrix: (Units=GPa)
#
#
# Indices 1 2 3 4 5 6 
#
# 1 88.5671 5.5400 80.2387 0.0000 0.0000 0.0000
# 2 5.5400 57.6522 0.5309 0.0000 0.0000 0.0000
# 3 80.2387 0.5309 276.2293 0.0000 0.0000 0.0000
# 4 0.0000 0.0000 0.0000 -4.2031 0.0000 0.0000
# 5 0.0000 0.0000 0.0000 0.0000 34.1176 0.0000
# 6 0.0000 0.0000 0.0000 0.0000 0.0000 8.1785
#
#
#
# Elastic Compliance Matrix: (Units=1/GPa)
#
#
# Indices 1 2 3 4 5 6 
#
# 1 0.015443 -0.001443 -0.004483 0.000000 0.000000 0.000000
# 2 -0.001443 0.017480 0.000385 0.000000 0.000000 0.000000
# 3 -0.004483 0.000385 0.004922 0.000000 0.000000 0.000000
# 4 0.000000 0.000000 0.000000 -0.237921 0.000000 0.000000
# 5 0.000000 0.000000 0.000000 0.000000 0.029310 0.000000
# 6 0.000000 0.000000 0.000000 0.000000 0.000000 0.122271
#
#
# Mechanical properties :
#
#
# Convention : Reuss Voigt Hill
#
# Bulk Modulus (GPa) = 37.36313 66.11864 51.74089
# Shear Modulus (GPa) = -175.48201 30.02787 -72.72707
#
# Velocity S-wave (km/s) = -8.77328 3.62918 -5.64799
# Velocity P-wave (km/s) = 9.28649 6.82366 4.45402
#
# Compressibility (1/GPa) = 0.02676435
#
# Stress axis : x y z
#
# Youngs Moduli (GPa) = 64.75630 57.20670 203.18433
#
# Poissons Ratio (x) = 0.08253 0.91086
# Poissons Ratio (y) = 0.09342 -0.07832
# Poissons Ratio (z) = 0.29030 -0.02205
#
# Static dielectric constant tensor:
#      x y z
#    x 1.876650 0.000000 0.000000 
#    y 0.000000 1.894920 0.000000 
#    z 0.000000 0.000000 1.889010 
# 
# From -- ./inp_files/69639.got.cif
#   From: 2010.05.17/outbox.cif.g08.bks.cpg/sg74_35_cif.got.tgz:69639.got - 2010.06.03 17:57:02.
