data_PCOD9539508
_publ_section_title
;
Structure prediction by ZEFSAII (Michael W. Deem and Ramdas Pophale) SiO2 
 PCOD9539508
Probable space group: I M M A
;
_chemical_formula_sum "Si O2"
_cell_formula_units_Z 72
_cell_length_a 9.743406
_cell_length_b 22.317431
_cell_length_c 16.844561
_cell_angle_alpha 90.000000
_cell_angle_beta 90.000000
_cell_angle_gamma 90.000000
_cell_volume 3662.812582
_symmetry_space_group_name_H-M "I M M A"
_symmetry_group_IT_number 74
_symmetry_cell_setting 'orthorhombic'
loop_
_space_group_symop_operation_xyz
x,y,z
-x,1/2-y,z
x,-y,-z
-x,1/2+y,-z
-x,-y,-z
x,1/2+y,-z
-x,y,z
x,1/2-y,z
1/2+x,1/2+y,1/2+z
1/2-x,-y,1/2+z
1/2+x,1/2-y,1/2-z
1/2-x,y,1/2-z
1/2-x,1/2-y,1/2-z
1/2+x,y,1/2-z
1/2-x,1/2+y,1/2+z
1/2+x,-y,1/2+z
loop_
_atom_site_type_symbol
_atom_site_label
_atom_site_fract_x
_atom_site_fract_y
_atom_site_fract_z
Si Si1 0.500000 0.678844 0.381374
Si Si2 0.841128 0.639429 0.594109
Si Si3 0.277389 0.622991 0.087760
Si Si4 0.341181 0.994702 0.904024
Si Si5 0.329091 0.250000 0.335437
Si Si6 0.500000 0.678754 0.199714
O O1 0.500000 0.750000 0.382802
O O2 0.367074 0.653650 0.422133
O O3 0.500000 0.658021 0.290063
O O4 0.845795 0.630999 0.498599
O O5 0.799259 0.571967 0.622070
O O6 0.735245 0.690918 0.620823
O O7 0.000000 0.652156 0.619898
O O8 0.261465 0.554714 0.118048
O O9 0.368134 0.656246 0.152605
O O10 0.500000 0.002955 0.879920
O O11 0.338093 0.000000 0.000000
O O12 0.500000 0.250000 0.332117
O O13 0.250000 0.250000 0.250000
O O14 0.500000 0.750000 0.200043
#
# Coordination Sequence:
#
# PCOD9539508 Si02
#       6
#     8  16  16  16   8   8
#     4  11  26  38  49  82 138 167 204 265 317 345
#     4  10  21  39  70  96 121 160 206 258 317 370
#     4  11  20  37  63  90 122 166 218 256 302 376
#     4   8  15  34  60  92 119 152 203 263 306 359
#     4  12  28  48  68  96 133 160 201 259 321 384
#     4  11  22  38  57  82 120 173 212 251 301 361
#
# _framework density 19.657025999999998
#
# number of rings (size 3 to 8) (size 9 to 14) (size 15 to 20)
#    0.000    1.778    2.222    3.667    4.667    1.778 
#    2.000    3.889    0.000    0.000    0.000    0.000 
#    0.000    0.000    0.000    0.000    0.000    0.000 
#
# Total GULP energy -200573.934542 kJ/mol
# GULP energy per Si atom -5571.498182 kJ/mol
# Density = 1.961229 g / cm^3
# Si number density = 19.657026 Si / 1000 Ang^3
#
#
#
# Elastic Constant Matrix: (Units=GPa)
#
#
# Indices 1 2 3 4 5 6 
#
# 1 119.0144 58.1129 3.3511 0.0000 0.0000 0.0000
# 2 58.1129 137.2189 25.2008 0.0000 0.0000 0.0000
# 3 3.3511 25.2008 32.6496 0.0001 0.0000 0.0000
# 4 0.0000 0.0000 0.0001 -62.8102 0.0000 0.0000
# 5 0.0000 0.0000 0.0000 0.0000 18.4856 0.0000
# 6 0.0000 0.0000 0.0000 0.0000 0.0000 20.5628
#
#
#
# Elastic Compliance Matrix: (Units=1/GPa)
#
#
# Indices 1 2 3 4 5 6 
#
# 1 0.010812 -0.005098 0.002825 0.000000 0.000000 0.000000
# 2 -0.005098 0.010895 -0.007886 0.000000 0.000000 0.000000
# 3 0.002825 -0.007886 0.036425 0.000000 0.000000 0.000000
# 4 0.000000 0.000000 0.000000 -0.015921 0.000000 0.000000
# 5 0.000000 0.000000 0.000000 0.000000 0.054096 0.000000
# 6 0.000000 0.000000 0.000000 0.000000 0.000000 0.048632
#
#
# Mechanical properties :
#
#
# Convention : Reuss Voigt Hill
#
# Bulk Modulus (GPa) = 26.44492 51.35695 38.90094
# Shear Modulus (GPa) = 28.11183 8.72884 18.42033
#
# Velocity S-wave (km/s) = 3.78579 2.10955 3.06451
# Velocity P-wave (km/s) = 5.70894 5.66717 5.68809
#
# Compressibility (1/GPa) = 0.03781444
#
# Stress axis : x y z
#
# Youngs Moduli (GPa) = 92.49020 91.78642 27.45352
#
# Poissons Ratio (x) = 0.46790 -0.07756
# Poissons Ratio (y) = 0.47149 0.21650
# Poissons Ratio (z) = -0.26129 0.72383
#
# Static dielectric constant tensor:
#      x y z
#    x 1.666260 0.000000 0.000000 
#    y 0.000000 1.738530 0.000000 
#    z 0.000000 0.000000 1.690260 
# 
# From -- ./inp_files/39505.got.cif
#   From: 2010.05.17/outbox.cif.g08.bks.cpg/sg74_20_cif.got.tgz:39505.got - 2010.06.03 17:57:02.
