data_PCOD9539882
_publ_section_title
;
Structure prediction by ZEFSAII (Michael W. Deem and Ramdas Pophale) SiO2 
 PCOD9539882
Probable space group: I M M A
;
_chemical_formula_sum "Si O2"
_cell_formula_units_Z 84
_cell_length_a 20.615203
_cell_length_b 13.772317
_cell_length_c 14.403695
_cell_angle_alpha 90.000000
_cell_angle_beta 90.000000
_cell_angle_gamma 90.000000
_cell_volume 4089.484276
_symmetry_space_group_name_H-M "I M M A"
_symmetry_group_IT_number 74
_symmetry_cell_setting 'orthorhombic'
loop_
_space_group_symop_operation_xyz
x,y,z
-x,1/2-y,z
x,-y,-z
-x,1/2+y,-z
-x,-y,-z
x,1/2+y,-z
-x,y,z
x,1/2-y,z
1/2+x,1/2+y,1/2+z
1/2-x,-y,1/2+z
1/2+x,1/2-y,1/2-z
1/2-x,y,1/2-z
1/2-x,1/2-y,1/2-z
1/2+x,y,1/2-z
1/2-x,1/2+y,1/2+z
1/2+x,-y,1/2+z
loop_
_atom_site_type_symbol
_atom_site_label
_atom_site_fract_x
_atom_site_fract_y
_atom_site_fract_z
Si Si1 0.000000 0.912500 0.577906
Si Si2 0.500000 0.250000 0.418667
Si Si3 0.781467 0.075131 0.084509
Si Si4 0.639082 0.078037 0.081845
Si Si5 0.177894 0.750000 0.205783
Si Si6 0.140568 0.250000 0.009289
Si Si7 0.500000 0.450212 0.300935
Si Si8 0.633996 0.964334 0.274052
O O1 0.071424 0.865156 0.566641
O O2 0.000000 0.939732 0.687974
O O3 0.000000 0.000000 0.500000
O O4 0.563315 0.250000 0.483600
O O5 0.500000 0.345844 0.352284
O O6 0.710313 0.123942 0.090240
O O7 0.833742 0.156593 0.063381
O O8 0.805983 0.011430 0.170538
O O9 0.780473 0.000000 0.000000
O O10 0.632521 0.015815 0.175192
O O11 0.642862 0.000000 0.000000
O O12 0.250000 0.750000 0.250000
O O13 0.143654 0.650287 0.235786
O O14 0.172174 0.750000 0.093318
O O15 0.433869 0.508062 0.323922
#
# Coordination Sequence:
#
# PCOD9539882 Si02
#       8
#     8   4  16  16   8   8   8  16
#     4   8  16  36  62  91 118 171 227 272 345 406
#     4  12  24  46  68 102 148 190 230 298 352 456
#     4  11  21  39  62  94 134 169 224 280 355 414
#     4   9  19  35  63  90 127 169 221 281 343 416
#     4  12  26  42  66  96 134 174 234 280 347 412
#     4  12  26  42  66 103 134 181 234 289 346 436
#     4  10  22  40  69  94 139 185 223 285 362 425
#     4  11  22  41  65  97 132 182 225 285 349 420
#
# _framework density 20.540486999999999
#
# number of rings (size 3 to 8) (size 9 to 14) (size 15 to 20)
#    0.000    1.524    3.810    1.714    2.667    1.143 
#    0.000    7.619    0.000   13.714    0.000    0.000 
#    0.000    0.000    0.000    0.000    0.000    0.000 
#
# Total GULP energy -234032.628951 kJ/mol
# GULP energy per Si atom -5572.205451 kJ/mol
# Density = 2.049374 g / cm^3
# Si number density = 20.540487 Si / 1000 Ang^3
#
#
#
# Elastic Constant Matrix: (Units=GPa)
#
#
# Indices 1 2 3 4 5 6 
#
# 1 204.5409 47.2594 17.3571 0.0000 0.0000 0.0000
# 2 47.2594 101.1940 10.7504 0.0000 0.0000 0.0000
# 3 17.3571 10.7504 87.5676 0.0000 0.0000 0.0000
# 4 0.0000 0.0000 0.0000 2.9380 0.0000 0.0000
# 5 0.0000 0.0000 0.0000 0.0000 23.6256 0.0000
# 6 0.0000 0.0000 0.0000 0.0000 0.0000 28.3695
#
#
#
# Elastic Compliance Matrix: (Units=1/GPa)
#
#
# Indices 1 2 3 4 5 6 
#
# 1 0.005534 -0.002500 -0.000790 0.000000 0.000000 0.000000
# 2 -0.002500 0.011142 -0.000872 0.000000 0.000000 0.000000
# 3 -0.000790 -0.000872 0.011683 0.000000 0.000000 0.000000
# 4 0.000000 0.000000 0.000000 0.340371 0.000000 0.000000
# 5 0.000000 0.000000 0.000000 0.000000 0.042327 0.000000
# 6 0.000000 0.000000 0.000000 0.000000 0.000000 0.035249
#
#
# Mechanical properties :
#
#
# Convention : Reuss Voigt Hill
#
# Bulk Modulus (GPa) = 49.91434 60.44847 55.18141
# Shear Modulus (GPa) = 10.83870 32.18232 21.51051
#
# Velocity S-wave (km/s) = 2.29961 3.96255 3.23960
# Velocity P-wave (km/s) = 5.60394 7.10130 6.39659
#
# Compressibility (1/GPa) = 0.02003432
#
# Stress axis : x y z
#
# Youngs Moduli (GPa) = 180.70900 89.74703 85.59143
#
# Poissons Ratio (x) = 0.22441 0.06761
# Poissons Ratio (y) = 0.45185 0.07466
# Poissons Ratio (z) = 0.14274 0.07829
#
# Static dielectric constant tensor:
#      x y z
#    x 1.835660 0.000000 0.000000 
#    y 0.000000 1.677200 0.000000 
#    z 0.000000 0.000000 1.705520 
# 
# From -- ./inp_files/35217.got.cif
#   From: 2010.05.17/outbox.cif.g08.bks.cpg/sg74_18_cif.got.tgz:35217.got - 2010.06.03 17:57:02.
