data_PCOD9539101
_publ_section_title
;
Structure prediction by ZEFSAII (Michael W. Deem and Ramdas Pophale) SiO2 
 PCOD9539101
Probable space group: I M M A
;
_chemical_formula_sum "Si O2"
_cell_formula_units_Z 112
_cell_length_a 21.582304
_cell_length_b 16.335082
_cell_length_c 17.170657
_cell_angle_alpha 90.000000
_cell_angle_beta 90.000000
_cell_angle_gamma 90.000000
_cell_volume 6053.492899
_symmetry_space_group_name_H-M "I M M A"
_symmetry_group_IT_number 74
_symmetry_cell_setting 'orthorhombic'
loop_
_space_group_symop_operation_xyz
x,y,z
-x,1/2-y,z
x,-y,-z
-x,1/2+y,-z
-x,-y,-z
x,1/2+y,-z
-x,y,z
x,1/2-y,z
1/2+x,1/2+y,1/2+z
1/2-x,-y,1/2+z
1/2+x,1/2-y,1/2-z
1/2-x,y,1/2-z
1/2-x,1/2-y,1/2-z
1/2+x,y,1/2-z
1/2-x,1/2+y,1/2+z
1/2+x,-y,1/2+z
loop_
_atom_site_type_symbol
_atom_site_label
_atom_site_fract_x
_atom_site_fract_y
_atom_site_fract_z
Si Si1 0.881598 0.111549 0.060315
Si Si2 0.431333 0.844324 0.723843
Si Si3 0.428469 0.565809 0.402027
Si Si4 0.758182 0.592774 0.529739
Si Si5 0.280611 0.652899 0.134618
Si Si6 0.692884 0.150244 0.191196
Si Si7 0.847688 0.651044 0.215118
O O1 0.912955 0.155470 0.132857
O O2 0.809645 0.130649 0.047061
O O3 0.888784 0.016048 0.084228
O O4 0.915546 0.121512 0.977846
O O5 0.500000 0.882051 0.734109
O O6 0.435597 0.750000 0.748794
O O7 0.371814 0.877979 0.769977
O O8 0.500000 0.542359 0.400737
O O9 0.406329 0.610078 0.324519
O O10 0.749597 0.500000 0.500000
O O11 0.789804 0.634208 0.455203
O O12 0.795269 0.605725 0.609334
O O13 0.279595 0.750000 0.145022
O O14 0.212159 0.625683 0.162764
O O15 0.330665 0.623050 0.197579
O O16 0.692205 0.250000 0.180302
O O17 0.750000 0.132889 0.250000
O O18 0.853357 0.750000 0.212622
#
# Coordination Sequence:
#
# PCOD9539101 Si02
#       7
#    16  16  16  16  16  16  16
#     4  11  20  34  50  75 111 149 182 216 271 335
#     4  10  21  37  57  81 110 146 186 225 274 338
#     4  11  21  34  50  72 111 151 181 218 267 324
#     4  12  21  34  54  84 113 144 182 228 276 326
#     4   9  18  34  53  72 100 136 174 225 280 321
#     4  10  21  37  58  84 113 146 185 235 285 325
#     4   9  18  33  52  73  96 132 182 225 265 316
#
# _framework density 18.501714
#
# number of rings (size 3 to 8) (size 9 to 14) (size 15 to 20)
#    0.000    1.714    4.286    3.000    0.000    2.571 
#    2.571    0.000    0.000    1.286    0.000    2.000 
#    0.000    0.000    0.000    0.000    0.000    0.000 
#
# Total GULP energy -312332.961455 kJ/mol
# GULP energy per Si atom -5577.374312 kJ/mol
# Density = 1.845960 g / cm^3
# Si number density = 18.501714 Si / 1000 Ang^3
#
#
#
# Elastic Constant Matrix: (Units=GPa)
#
#
# Indices 1 2 3 4 5 6 
#
# 1 94.8336 12.6806 58.4816 0.0000 0.0000 0.0000
# 2 12.6806 12.5524 11.0962 0.0000 0.0000 0.0000
# 3 58.4816 11.0962 130.8143 0.0000 0.0000 0.0000
# 4 0.0000 0.0000 0.0000 7.4152 0.0000 0.0000
# 5 0.0000 0.0000 0.0000 0.0000 14.0561 0.0000
# 6 0.0000 0.0000 0.0000 0.0000 0.0000 -0.6866
#
#
#
# Elastic Compliance Matrix: (Units=1/GPa)
#
#
# Indices 1 2 3 4 5 6 
#
# 1 0.015734 -0.010461 -0.006147 0.000000 0.000000 0.000000
# 2 -0.010461 0.093079 -0.003219 0.000000 0.000000 0.000000
# 3 -0.006147 -0.003219 0.010665 0.000000 0.000000 0.000000
# 4 0.000000 0.000000 0.000000 0.134857 0.000000 0.000000
# 5 0.000000 0.000000 0.000000 0.000000 0.071143 0.000000
# 6 0.000000 0.000000 0.000000 0.000000 0.000000 -1.456348
#
#
# Mechanical properties :
#
#
# Convention : Reuss Voigt Hill
#
# Bulk Modulus (GPa) = 12.52732 44.74637 28.63685
# Shear Modulus (GPa) = -4.69657 14.55307 4.92825
#
# Velocity S-wave (km/s) = -1.59498 2.80765 1.63385
# Velocity P-wave (km/s) = 1.84219 5.89474 4.36701
#
# Compressibility (1/GPa) = 0.07982552
#
# Stress axis : x y z
#
# Youngs Moduli (GPa) = 63.55611 10.74356 93.76134
#
# Poissons Ratio (x) = 0.11239 0.57632
# Poissons Ratio (y) = 0.66487 0.30178
# Poissons Ratio (z) = 0.39066 0.03458
#
# Static dielectric constant tensor:
#      x y z
#    x 1.635520 0.000000 0.000000 
#    y 0.000000 1.702980 0.000000 
#    z 0.000000 0.000000 1.648740 
# 
# From -- ./inp_files/45429.got.cif
#   From: 2010.05.17/outbox.cif.g08.bks.cpg/sg74_23_cif.got.tgz:45429.got - 2010.06.03 17:57:02.
