data_PCOD9539514
_publ_section_title
;
Structure prediction by ZEFSAII (Michael W. Deem and Ramdas Pophale) SiO2 
 PCOD9539514
Probable space group: I M M A
;
_chemical_formula_sum "Si O2"
_cell_formula_units_Z 52
_cell_length_a 7.474950
_cell_length_b 18.173152
_cell_length_c 16.248581
_cell_angle_alpha 90.000000
_cell_angle_beta 90.000000
_cell_angle_gamma 90.000000
_cell_volume 2207.262530
_symmetry_space_group_name_H-M "I M M A"
_symmetry_group_IT_number 74
_symmetry_cell_setting 'orthorhombic'
loop_
_space_group_symop_operation_xyz
x,y,z
-x,1/2-y,z
x,-y,-z
-x,1/2+y,-z
-x,-y,-z
x,1/2+y,-z
-x,y,z
x,1/2-y,z
1/2+x,1/2+y,1/2+z
1/2-x,-y,1/2+z
1/2+x,1/2-y,1/2-z
1/2-x,y,1/2-z
1/2-x,1/2-y,1/2-z
1/2+x,y,1/2-z
1/2-x,1/2+y,1/2+z
1/2+x,-y,1/2+z
loop_
_atom_site_type_symbol
_atom_site_label
_atom_site_fract_x
_atom_site_fract_y
_atom_site_fract_z
Si Si1 0.203188 0.356332 0.655463
Si Si2 0.000000 0.750000 0.090393
Si Si3 0.715903 0.513856 0.594086
Si Si4 0.214201 0.171013 0.152606
O O1 0.250000 0.336665 0.750000
O O2 0.343774 0.314450 0.598139
O O3 0.219148 0.444286 0.645828
O O4 0.000000 0.335318 0.638437
O O5 0.763950 0.500000 0.500000
O O6 0.500000 0.514488 0.601520
O O7 0.784453 0.594231 0.618879
O O8 0.281361 0.250000 0.119688
O O9 0.250000 0.170708 0.250000
O O10 0.000000 0.171323 0.138524
#
# Coordination Sequence:
#
# PCOD9539514 Si02
#       4
#    16   4  16  16
#     4  12  24  40  67  95 128 170 216 266 320 383
#     4  12  24  44  64  98 128 170 208 274 316 382
#     4  10  21  40  59  90 129 170 211 257 322 384
#     4   9  18  34  59  87 115 155 205 258 310 367
#
# _framework density 23.558592999999998
#
# number of rings (size 3 to 8) (size 9 to 14) (size 15 to 20)
#    0.000    1.538    3.077    1.846    0.000    4.308 
#    2.769    0.000    0.000    0.000    0.000    0.000 
#    0.000    0.000    0.000    0.000    0.000    0.000 
#
# Total GULP energy -144951.822160 kJ/mol
# GULP energy per Si atom -5575.070083 kJ/mol
# Density = 2.350497 g / cm^3
# Si number density = 23.558593 Si / 1000 Ang^3
#
#
#
# Elastic Constant Matrix: (Units=GPa)
#
#
# Indices 1 2 3 4 5 6 
#
# 1 156.8199 42.6835 3.1240 0.0000 0.0000 0.0000
# 2 42.6835 269.4928 38.0177 0.0000 0.0000 0.0000
# 3 3.1240 38.0177 26.6331 0.0000 0.0000 0.0000
# 4 0.0000 0.0000 0.0000 24.4199 0.0000 0.0000
# 5 0.0000 0.0000 0.0000 0.0000 5.7909 0.0000
# 6 0.0000 0.0000 0.0000 0.0000 0.0000 132.8499
#
#
#
# Elastic Compliance Matrix: (Units=1/GPa)
#
#
# Indices 1 2 3 4 5 6 
#
# 1 0.006682 -0.001187 0.000910 0.000000 0.000000 0.000000
# 2 -0.001187 0.004857 -0.006794 0.000000 0.000000 0.000000
# 3 0.000910 -0.006794 0.047139 0.000000 0.000000 0.000000
# 4 0.000000 0.000000 0.000000 0.040950 0.000000 0.000000
# 5 0.000000 0.000000 0.000000 0.000000 0.172684 0.000000
# 6 0.000000 0.000000 0.000000 0.000000 0.000000 0.007527
#
#
# Mechanical properties :
#
#
# Convention : Reuss Voigt Hill
#
# Bulk Modulus (GPa) = 22.45359 68.95516 45.70437
# Shear Modulus (GPa) = 16.19035 57.22019 36.70527
#
# Velocity S-wave (km/s) = 2.62437 4.93368 3.95149
# Velocity P-wave (km/s) = 4.32836 7.86054 6.34519
#
# Compressibility (1/GPa) = 0.04453632
#
# Stress axis : x y z
#
# Youngs Moduli (GPa) = 149.66481 205.88519 21.21394
#
# Poissons Ratio (x) = 0.24432 -0.01931
# Poissons Ratio (y) = 0.17760 0.14413
# Poissons Ratio (z) = -0.13622 1.39880
#
# Static dielectric constant tensor:
#      x y z
#    x 1.856250 0.000000 0.000000 
#    y 0.000000 1.912470 0.000000 
#    z 0.000000 0.000000 1.886480 
# 
# From -- ./inp_files/38773.got.cif
#   From: 2010.05.17/outbox.cif.g08.bks.cpg/sg74_20_cif.got.tgz:38773.got - 2010.06.03 17:57:02.
