data_PCOD9539451
_publ_section_title
;
Structure prediction by ZEFSAII (Michael W. Deem and Ramdas Pophale) SiO2 
 PCOD9539451
Probable space group: I M M A
;
_chemical_formula_sum "Si O2"
_cell_formula_units_Z 112
_cell_length_a 14.720564
_cell_length_b 23.237439
_cell_length_c 15.165369
_cell_angle_alpha 90.000000
_cell_angle_beta 90.000000
_cell_angle_gamma 90.000000
_cell_volume 5187.590597
_symmetry_space_group_name_H-M "I M M A"
_symmetry_group_IT_number 74
_symmetry_cell_setting 'orthorhombic'
loop_
_space_group_symop_operation_xyz
x,y,z
-x,1/2-y,z
x,-y,-z
-x,1/2+y,-z
-x,-y,-z
x,1/2+y,-z
-x,y,z
x,1/2-y,z
1/2+x,1/2+y,1/2+z
1/2-x,-y,1/2+z
1/2+x,1/2-y,1/2-z
1/2-x,y,1/2-z
1/2-x,1/2-y,1/2-z
1/2+x,y,1/2-z
1/2-x,1/2+y,1/2+z
1/2+x,-y,1/2+z
loop_
_atom_site_type_symbol
_atom_site_label
_atom_site_fract_x
_atom_site_fract_y
_atom_site_fract_z
Si Si1 0.798130 0.184158 0.656035
Si Si2 0.404775 0.423981 0.877832
Si Si3 0.402337 0.516356 0.310292
Si Si4 0.239951 0.000177 0.588661
Si Si5 0.603392 0.877829 0.666237
Si Si6 0.610380 0.108374 0.132709
Si Si7 0.250142 0.318332 0.038391
O O1 0.829224 0.250000 0.650177
O O2 0.750000 0.176681 0.750000
O O3 0.878713 0.138921 0.651483
O O4 0.738640 0.173746 0.567287
O O5 0.500000 0.425386 0.923742
O O6 0.406423 0.463925 0.790827
O O7 0.333455 0.452832 0.940984
O O8 0.500000 0.536012 0.348561
O O9 0.303636 0.533792 0.343032
O O10 0.395609 0.447865 0.330241
O O11 0.182864 0.945552 0.625028
O O12 0.300466 0.000000 0.500000
O O13 0.500000 0.860088 0.644757
O O14 0.622647 0.864778 0.769093
O O15 0.674799 0.850947 0.598009
O O16 0.500000 0.095302 0.125938
O O17 0.651772 0.154691 0.064788
O O18 0.247127 0.250000 0.056539
#
# Coordination Sequence:
#
# PCOD9539451 Si02
#       7
#    16  16  16  16  16  16  16
#     4  10  23  45  69  92 126 171 221 277 335 392
#     4  11  23  39  62  92 123 162 214 264 319 389
#     4  10  21  39  62  89 122 165 215 267 324 390
#     4  12  23  35  59  90 126 169 214 267 325 381
#     4  10  21  40  64  91 131 174 214 267 328 388
#     4  11  23  39  61  92 133 177 218 265 321 387
#     4  11  24  41  66  97 128 172 223 271 330 398
#
# _framework density 21.589984999999999
#
# number of rings (size 3 to 8) (size 9 to 14) (size 15 to 20)
#    0.000    1.286    2.857    3.000    0.000    5.143 
#    0.000    3.571    0.000    2.571    0.000    0.000 
#    0.000    0.000    0.000    0.000    0.000    0.000 
#
# Total GULP energy -311883.551071 kJ/mol
# GULP energy per Si atom -5569.349126 kJ/mol
# Density = 2.154084 g / cm^3
# Si number density = 21.589985 Si / 1000 Ang^3
#
#
#
# Elastic Constant Matrix: (Units=GPa)
#
#
# Indices 1 2 3 4 5 6 
#
# 1 104.3887 28.6519 40.1758 0.0000 0.0000 0.0000
# 2 28.6519 79.7157 28.4425 0.0005 -0.0002 -0.0001
# 3 40.1758 28.4425 119.6822 0.0009 -0.0002 -0.0002
# 4 0.0000 0.0005 0.0009 28.1597 -0.0002 -0.0002
# 5 0.0000 -0.0002 -0.0002 -0.0002 -26.5645 0.0001
# 6 0.0000 -0.0001 -0.0002 -0.0002 0.0001 -34.2644
#
#
#
# Elastic Compliance Matrix: (Units=1/GPa)
#
#
# Indices 1 2 3 4 5 6 
#
# 1 0.011641 -0.003048 -0.003183 0.000000 0.000000 0.000000
# 2 -0.003048 0.014505 -0.002424 0.000000 0.000000 0.000000
# 3 -0.003183 -0.002424 0.010000 0.000000 0.000000 0.000000
# 4 0.000000 0.000000 0.000000 0.035512 0.000000 0.000000
# 5 0.000000 0.000000 0.000000 0.000000 -0.037644 0.000000
# 6 0.000000 0.000000 0.000000 0.000000 0.000000 -0.029185
#
#
# Mechanical properties :
#
#
# Convention : Reuss Voigt Hill
#
# Bulk Modulus (GPa) = 53.09170 55.36969 54.23069
# Shear Modulus (GPa) = 175.93776 7.23393 91.58584
#
# Velocity S-wave (km/s) = 9.03700 1.83245 6.52017
# Velocity P-wave (km/s) = 11.55570 5.49353 9.04746
#
# Compressibility (1/GPa) = 0.01883534
#
# Stress axis : x y z
#
# Youngs Moduli (GPa) = 85.89966 68.94141 99.99876
#
# Poissons Ratio (x) = 0.21016 0.31834
# Poissons Ratio (y) = 0.26186 0.24238
# Poissons Ratio (z) = 0.27346 0.16710
#
# Static dielectric constant tensor:
#      x y z
#    x 1.892930 0.000000 0.000000 
#    y 0.000000 1.832860 0.000000 
#    z 0.000000 0.000000 2.094400 
# 
# From -- ./inp_files/32715.got.cif
#   From: 2010.05.17/outbox.cif.g08.bks.cpg/sg74_17_cif.got.tgz:32715.got - 2010.06.03 17:57:02.
