data_PCOD9539486
_publ_section_title
;
Structure prediction by ZEFSAII (Michael W. Deem and Ramdas Pophale) SiO2 
 PCOD9539486
Probable space group: I M M A
;
_chemical_formula_sum "Si O2"
_cell_formula_units_Z 84
_cell_length_a 24.685960
_cell_length_b 15.247404
_cell_length_c 11.378191
_cell_angle_alpha 90.000000
_cell_angle_beta 90.000000
_cell_angle_gamma 90.000000
_cell_volume 4282.714742
_symmetry_space_group_name_H-M "I M M A"
_symmetry_group_IT_number 74
_symmetry_cell_setting 'orthorhombic'
loop_
_space_group_symop_operation_xyz
x,y,z
-x,1/2-y,z
x,-y,-z
-x,1/2+y,-z
-x,-y,-z
x,1/2+y,-z
-x,y,z
x,1/2-y,z
1/2+x,1/2+y,1/2+z
1/2-x,-y,1/2+z
1/2+x,1/2-y,1/2-z
1/2-x,y,1/2-z
1/2-x,1/2-y,1/2-z
1/2+x,y,1/2-z
1/2-x,1/2+y,1/2+z
1/2+x,-y,1/2+z
loop_
_atom_site_type_symbol
_atom_site_label
_atom_site_fract_x
_atom_site_fract_y
_atom_site_fract_z
Si Si1 0.561016 0.521340 0.137742
Si Si2 0.607206 0.651572 0.765612
Si Si3 0.314013 0.439161 0.386262
Si Si4 0.327286 0.409232 0.796740
Si Si5 0.250000 0.750000 0.250000
Si Si6 0.795268 0.649415 0.544311
O O1 0.500000 0.555239 0.150309
O O2 0.567613 0.427499 0.201906
O O3 0.607572 0.585232 0.187935
O O4 0.570728 0.500000 0.000000
O O5 0.584833 0.750000 0.764758
O O6 0.637032 0.626282 0.644510
O O7 0.654906 0.649470 0.865396
O O8 0.322257 0.500000 0.500000
O O9 0.311772 0.505875 0.277287
O O10 0.259820 0.382966 0.398525
O O11 0.297422 0.327061 0.739073
O O12 0.306348 0.409171 0.930557
O O13 0.788107 0.750000 0.499185
#
# Coordination Sequence:
#
# PCOD9539486 Si02
#       6
#    16  16  16  16   4  16
#     4  10  21  39  65  93 125 163 205 258 321 382
#     4  10  22  39  60  88 123 163 205 262 311 374
#     4  11  25  35  56  87 127 172 208 251 309 383
#     4  11  24  39  60  91 127 168 208 257 319 373
#     4  12  24  36  58  88 124 176 204 238 312 380
#     4  11  22  37  58  85 126 166 206 255 315 381
#
# _framework density 19.613727999999998
#
# number of rings (size 3 to 8) (size 9 to 14) (size 15 to 20)
#    0.000    1.333    2.857    2.286   13.333    1.905 
#    1.714    0.476    0.000    9.143    0.000    0.000 
#    0.000    0.000    0.000    0.000    0.000    0.000 
#
# Total GULP energy -234124.090124 kJ/mol
# GULP energy per Si atom -5574.383098 kJ/mol
# Density = 1.956909 g / cm^3
# Si number density = 19.613728 Si / 1000 Ang^3
#
#
#
# Elastic Constant Matrix: (Units=GPa)
#
#
# Indices 1 2 3 4 5 6 
#
# 1 112.5785 25.8098 14.0779 0.0000 0.0000 0.0000
# 2 25.8098 95.1696 13.6529 0.0000 0.0000 0.0000
# 3 14.0779 13.6529 52.3681 0.0000 0.0000 0.0000
# 4 0.0000 0.0000 0.0000 22.4586 0.0000 0.0000
# 5 0.0000 0.0000 0.0000 0.0000 16.1088 0.0000
# 6 0.0000 0.0000 0.0000 0.0000 0.0000 20.3122
#
#
#
# Elastic Compliance Matrix: (Units=1/GPa)
#
#
# Indices 1 2 3 4 5 6 
#
# 1 0.009667 -0.002336 -0.001990 0.000000 0.000000 0.000000
# 2 -0.002336 0.011480 -0.002365 0.000000 0.000000 0.000000
# 3 -0.001990 -0.002365 0.020247 0.000000 0.000000 0.000000
# 4 0.000000 0.000000 0.000000 0.044526 0.000000 0.000000
# 5 0.000000 0.000000 0.000000 0.000000 0.062078 0.000000
# 6 0.000000 0.000000 0.000000 0.000000 0.000000 0.049231
#
#
# Mechanical properties :
#
#
# Convention : Reuss Voigt Hill
#
# Bulk Modulus (GPa) = 35.69811 40.79970 38.24890
# Shear Modulus (GPa) = 22.73246 25.54763 24.14005
#
# Velocity S-wave (km/s) = 3.40811 3.61298 3.51204
# Velocity P-wave (km/s) = 5.80750 6.18479 5.99911
#
# Compressibility (1/GPa) = 0.02801269
#
# Stress axis : x y z
#
# Youngs Moduli (GPa) = 103.44350 87.10479 49.38986
#
# Poissons Ratio (x) = 0.20350 0.09827
# Poissons Ratio (y) = 0.24167 0.11681
# Poissons Ratio (z) = 0.20582 0.20600
#
# Static dielectric constant tensor:
#      x y z
#    x 1.695160 0.000000 0.000000 
#    y 0.000000 1.705100 0.000000 
#    z 0.000000 0.000000 1.795110 
# 
# From -- ./inp_files/24969.got.cif
#   From: 2010.05.17/outbox.cif.g08.bks.cpg/sg74_13_cif.got.tgz:24969.got - 2010.06.03 17:57:02.
