data_PCOD9539292
_publ_section_title
;
Structure prediction by ZEFSAII (Michael W. Deem and Ramdas Pophale) SiO2 
 PCOD9539292
Probable space group: I M M A
;
_chemical_formula_sum "Si O2"
_cell_formula_units_Z 96
_cell_length_a 15.126791
_cell_length_b 24.412326
_cell_length_c 11.184822
_cell_angle_alpha 90.000000
_cell_angle_beta 90.000000
_cell_angle_gamma 90.000000
_cell_volume 4130.332782
_symmetry_space_group_name_H-M "I M M A"
_symmetry_group_IT_number 74
_symmetry_cell_setting 'orthorhombic'
loop_
_space_group_symop_operation_xyz
x,y,z
-x,1/2-y,z
x,-y,-z
-x,1/2+y,-z
-x,-y,-z
x,1/2+y,-z
-x,y,z
x,1/2-y,z
1/2+x,1/2+y,1/2+z
1/2-x,-y,1/2+z
1/2+x,1/2-y,1/2-z
1/2-x,y,1/2-z
1/2-x,1/2-y,1/2-z
1/2+x,y,1/2-z
1/2-x,1/2+y,1/2+z
1/2+x,-y,1/2+z
loop_
_atom_site_type_symbol
_atom_site_label
_atom_site_fract_x
_atom_site_fract_y
_atom_site_fract_z
Si Si1 0.607774 0.125581 0.060315
Si Si2 0.604476 0.688669 0.171718
Si Si3 0.348382 0.414383 0.705590
Si Si4 0.392437 0.082796 0.439555
Si Si5 0.892519 0.311539 0.195091
Si Si6 0.396075 0.475098 0.198975
O O1 0.500000 0.124616 0.049218
O O2 0.630217 0.162131 0.176543
O O3 0.638797 0.063710 0.092461
O O4 0.642420 0.155782 0.942639
O O5 0.500000 0.694654 0.150411
O O6 0.640956 0.750000 0.187035
O O7 0.613338 0.646433 0.280383
O O8 0.250000 0.411472 0.750000
O O9 0.358735 0.432808 0.569339
O O10 0.389686 0.459779 0.794367
O O11 0.500000 0.078569 0.444758
O O12 0.366698 0.144943 0.405709
O O13 0.360521 0.047511 0.325892
O O14 0.858998 0.250000 0.180912
O O15 0.000000 0.309687 0.193234
O O16 0.500000 0.462644 0.200793
#
# Coordination Sequence:
#
# PCOD9539292 Si02
#       6
#    16  16  16  16  16  16
#     4   8  15  30  55  87 114 136 170 227 289 334
#     4  10  21  38  60  83 111 151 193 230 275 337
#     4  12  25  38  51  80 114 155 187 226 279 343
#     4   9  18  35  59  82 108 143 188 239 283 324
#     4   8  13  24  50  86 112 131 168 228 285 323
#     4   9  18  37  63  86 108 139 186 244 292 329
#
# _framework density 23.24268
#
# number of rings (size 3 to 8) (size 9 to 14) (size 15 to 20)
#    0.000    2.667    0.000    4.500    0.000    5.000 
#    6.000    4.167    0.000    0.000    0.000    3.500 
#    0.000    0.000    0.000    0.000    0.000    0.000 
#
# Total GULP energy -267918.948676 kJ/mol
# GULP energy per Si atom -5581.644764 kJ/mol
# Density = 2.318978 g / cm^3
# Si number density = 23.242680 Si / 1000 Ang^3
#
#
#
# Elastic Constant Matrix: (Units=GPa)
#
#
# Indices 1 2 3 4 5 6 
#
# 1 25.3185 -9.8577 1.4088 0.0000 0.0000 0.0000
# 2 -9.8577 118.7438 23.2684 -0.0001 0.0000 0.0000
# 3 1.4088 23.2684 63.1096 0.0001 0.0001 -0.0001
# 4 0.0000 -0.0001 0.0001 10.6848 0.0000 0.0000
# 5 0.0000 0.0000 0.0001 0.0000 -13.9891 0.0000
# 6 0.0000 0.0000 -0.0001 0.0000 0.0000 0.0292
#
#
#
# Elastic Compliance Matrix: (Units=1/GPa)
#
#
# Indices 1 2 3 4 5 6 
#
# 1 0.041136 0.003875 -0.002347 0.000000 0.000000 -0.000020
# 2 0.003875 0.009442 -0.003568 0.000000 0.000000 -0.000022
# 3 -0.002347 -0.003568 0.017213 0.000000 0.000000 0.000050
# 4 0.000000 0.000000 0.000000 0.093591 0.000000 0.000047
# 5 0.000000 0.000000 0.000000 0.000000 -0.071484 0.000041
# 6 -0.000020 -0.000022 0.000050 0.000047 0.000041 34.255914
#
#
# Mechanical properties :
#
#
# Convention : Reuss Voigt Hill
#
# Bulk Modulus (GPa) = 15.69571 26.31235 21.00403
# Shear Modulus (GPa) = 0.14547 12.16848 6.15698
#
# Velocity S-wave (km/s) = 0.25045 2.29058 1.62934
# Velocity P-wave (km/s) = 2.61749 4.28264 3.54910
#
# Compressibility (1/GPa) = 0.06371169
#
# Stress axis : x y z
#
# Youngs Moduli (GPa) = 24.30960 105.90631 58.09458
#
# Poissons Ratio (x) = -0.41037 0.13635
# Poissons Ratio (y) = -0.09420 0.20727
# Poissons Ratio (z) = 0.05705 0.37786
#
# Static dielectric constant tensor:
#      x y z
#    x 1.904140 0.000000 0.000000 
#    y 0.000000 1.751120 0.000000 
#    z 0.000000 0.000000 1.867340 
# 
# From -- ./inp_files/22431.got.cif
#   From: 2010.05.17/outbox.cif.g08.bks.cpg/sg74_12_cif.got.tgz:22431.got - 2010.06.03 17:57:02.
