data_PCOD9539873
_publ_section_title
;
Structure prediction by ZEFSAII (Michael W. Deem and Ramdas Pophale) SiO2 
 PCOD9539873
Probable space group: I M M A
;
_chemical_formula_sum "Si O2"
_cell_formula_units_Z 64
_cell_length_a 12.151151
_cell_length_b 8.687968
_cell_length_c 31.428674
_cell_angle_alpha 90.000000
_cell_angle_beta 90.000000
_cell_angle_gamma 90.000000
_cell_volume 3317.887747
_symmetry_space_group_name_H-M "I M M A"
_symmetry_group_IT_number 74
_symmetry_cell_setting 'orthorhombic'
loop_
_space_group_symop_operation_xyz
x,y,z
-x,1/2-y,z
x,-y,-z
-x,1/2+y,-z
-x,-y,-z
x,1/2+y,-z
-x,y,z
x,1/2-y,z
1/2+x,1/2+y,1/2+z
1/2-x,-y,1/2+z
1/2+x,1/2-y,1/2-z
1/2-x,y,1/2-z
1/2-x,1/2-y,1/2-z
1/2+x,y,1/2-z
1/2-x,1/2+y,1/2+z
1/2+x,-y,1/2+z
loop_
_atom_site_type_symbol
_atom_site_label
_atom_site_fract_x
_atom_site_fract_y
_atom_site_fract_z
Si Si1 0.264739 0.066896 0.455634
Si Si2 0.500000 0.430228 0.338196
Si Si3 0.000000 0.432173 0.931395
Si Si4 0.783822 0.565628 0.201812
Si Si5 0.127647 0.064873 0.623186
O O1 0.266649 0.250000 0.457228
O O2 0.220263 0.000000 0.500000
O O3 0.388757 0.004377 0.449807
O O4 0.193635 0.010981 0.415519
O O5 0.500000 0.250000 0.349421
O O6 0.500000 0.529589 0.381271
O O7 0.608010 0.474834 0.312004
O O8 0.000000 0.250000 0.938609
O O9 0.805704 0.750000 0.199190
O O10 0.750000 0.530708 0.250000
O O11 0.688496 0.529780 0.167637
O O12 0.132548 0.250000 0.617681
O O13 0.000000 0.018357 0.623799
#
# Coordination Sequence:
#
# PCOD9539873 Si02
#       5
#    16   8   8  16  16
#     4  12  25  42  65  94 127 165 209 259 318 380
#     4  12  24  39  63  96 132 170 208 261 320 375
#     4  12  23  41  66  94 129 166 208 261 315 377
#     4  10  22  40  67  96 126 168 215 261 310 372
#     4  10  22  41  64  92 127 167 214 264 312 370
#
# _framework density 19.289380000000001
#
# number of rings (size 3 to 8) (size 9 to 14) (size 15 to 20)
#    0.000    1.000    2.500    4.875    1.750    1.500 
#    0.000    0.000    0.000    0.000    0.000    0.000 
#    0.000    0.000    0.000    0.000    0.000    0.000 
#
# Total GULP energy -179035.829425 kJ/mol
# GULP energy per Si atom -5594.869670 kJ/mol
# Density = 1.924548 g / cm^3
# Si number density = 19.289380 Si / 1000 Ang^3
#
#
#
# Elastic Constant Matrix: (Units=GPa)
#
#
# Indices 1 2 3 4 5 6 
#
# 1 139.6960 62.0774 64.1738 0.0000 0.0000 0.0000
# 2 62.0774 85.1389 58.5639 0.0000 0.0000 0.0000
# 3 64.1738 58.5639 161.3402 0.0000 0.0000 0.0000
# 4 0.0000 0.0000 0.0000 28.8891 0.0000 0.0000
# 5 0.0000 0.0000 0.0000 0.0000 22.1009 0.0000
# 6 0.0000 0.0000 0.0000 0.0000 0.0000 25.1424
#
#
#
# Elastic Compliance Matrix: (Units=1/GPa)
#
#
# Indices 1 2 3 4 5 6 
#
# 1 0.011035 -0.006699 -0.001957 0.000000 0.000000 0.000000
# 2 -0.006699 0.019721 -0.004494 0.000000 0.000000 0.000000
# 3 -0.001957 -0.004494 0.008608 0.000000 0.000000 0.000000
# 4 0.000000 0.000000 0.000000 0.034615 0.000000 0.000000
# 5 0.000000 0.000000 0.000000 0.000000 0.045247 0.000000
# 6 0.000000 0.000000 0.000000 0.000000 0.000000 0.039773
#
#
# Mechanical properties :
#
#
# Convention : Reuss Voigt Hill
#
# Bulk Modulus (GPa) = 76.55329 83.97839 80.26584
# Shear Modulus (GPa) = 26.36375 28.65049 27.50712
#
# Velocity S-wave (km/s) = 3.70097 3.85814 3.78037
# Velocity P-wave (km/s) = 7.61812 7.96728 7.79466
#
# Compressibility (1/GPa) = 0.01306280
#
# Stress axis : x y z
#
# Youngs Moduli (GPa) = 90.62450 50.70652 116.17352
#
# Poissons Ratio (x) = 0.33970 0.22739
# Poissons Ratio (y) = 0.60712 0.52207
# Poissons Ratio (z) = 0.17738 0.22787
#
# Static dielectric constant tensor:
#      x y z
#    x 1.646360 0.000000 0.000000 
#    y 0.000000 1.648800 0.000000 
#    z 0.000000 0.000000 1.661220 
# 
# From -- ./inp_files/69743.got.cif
#   From: 2010.05.17/outbox.cif.g08.bks.cpg/sg74_35_cif.got.tgz:69743.got - 2010.06.03 17:57:02.
