data_PCOD9539378
_publ_section_title
;
Structure prediction by ZEFSAII (Michael W. Deem and Ramdas Pophale) SiO2 
 PCOD9539378
Probable space group: I M M A
;
_chemical_formula_sum "Si O2"
_cell_formula_units_Z 76
_cell_length_a 7.536482
_cell_length_b 18.909898
_cell_length_c 23.807928
_cell_angle_alpha 90.000000
_cell_angle_beta 90.000000
_cell_angle_gamma 90.000000
_cell_volume 3392.965572
_symmetry_space_group_name_H-M "I M M A"
_symmetry_group_IT_number 74
_symmetry_cell_setting 'orthorhombic'
loop_
_space_group_symop_operation_xyz
x,y,z
-x,1/2-y,z
x,-y,-z
-x,1/2+y,-z
-x,-y,-z
x,1/2+y,-z
-x,y,z
x,1/2-y,z
1/2+x,1/2+y,1/2+z
1/2-x,-y,1/2+z
1/2+x,1/2-y,1/2-z
1/2-x,y,1/2-z
1/2-x,1/2-y,1/2-z
1/2+x,y,1/2-z
1/2-x,1/2+y,1/2+z
1/2+x,-y,1/2+z
loop_
_atom_site_type_symbol
_atom_site_label
_atom_site_fract_x
_atom_site_fract_y
_atom_site_fract_z
Si Si1 0.286862 0.328507 0.316089
Si Si2 0.712659 0.750000 0.315747
Si Si3 0.800533 0.361369 0.480876
Si Si4 0.785505 0.960390 0.889560
Si Si5 0.000000 0.750000 0.948702
Si Si6 0.715248 0.118465 0.611018
O O1 0.500000 0.325663 0.324524
O O2 0.219750 0.250000 0.332643
O O3 0.250000 0.336524 0.250000
O O4 0.220615 0.396936 0.349264
O O5 0.500000 0.750000 0.322631
O O6 0.750000 0.750000 0.250000
O O7 0.778829 0.820495 0.347054
O O8 0.772813 0.437194 0.451547
O O9 0.654337 0.311138 0.453547
O O10 0.769220 0.363871 0.547425
O O11 0.000000 0.337515 0.469946
O O12 0.000000 0.961312 0.887299
O O13 0.724398 0.039101 0.874601
O O14 0.500000 0.118647 0.611990
#
# Coordination Sequence:
#
# PCOD9539378 Si02
#       6
#    16   8  16  16   4  16
#     4   9  19  35  56  81 119 167 216 268 327 391
#     4  10  23  42  66  93 128 174 232 290 348 411
#     4  12  25  40  67 101 133 180 226 271 337 405
#     4  10  21  38  63  92 130 178 223 277 342 405
#     4  12  24  44  62  92 144 174 212 276 318 392
#     4  10  21  41  66  91 129 179 222 276 349 409
#
# _framework density 22.399286
#
# number of rings (size 3 to 8) (size 9 to 14) (size 15 to 20)
#    0.000    1.684    2.105    1.579    2.947    5.895 
#    0.000    0.000    0.000    0.000    0.000    0.000 
#    0.000    0.000    0.000    0.000    0.000    0.000 
#
# Total GULP energy -212026.665896 kJ/mol
# GULP energy per Si atom -5579.649103 kJ/mol
# Density = 2.234830 g / cm^3
# Si number density = 22.399286 Si / 1000 Ang^3
#
#
#
# Elastic Constant Matrix: (Units=GPa)
#
#
# Indices 1 2 3 4 5 6 
#
# 1 108.4125 42.4354 0.9575 0.0000 0.0000 0.0000
# 2 42.4354 215.0070 96.9375 0.0000 0.0000 0.0000
# 3 0.9575 96.9375 141.9611 0.0000 0.0000 0.0000
# 4 0.0000 0.0000 0.0000 31.6981 0.0000 0.0000
# 5 0.0000 0.0000 0.0000 0.0000 26.5927 0.0000
# 6 0.0000 0.0000 0.0000 0.0000 0.0000 -14.1594
#
#
#
# Elastic Compliance Matrix: (Units=1/GPa)
#
#
# Indices 1 2 3 4 5 6 
#
# 1 0.010344 -0.002904 0.001913 0.000000 0.000000 0.000000
# 2 -0.002904 0.007535 -0.005126 0.000000 0.000000 0.000000
# 3 0.001913 -0.005126 0.010531 0.000000 0.000000 0.000000
# 4 0.000000 0.000000 0.000000 0.031548 0.000000 0.000000
# 5 0.000000 0.000000 0.000000 0.000000 0.037604 0.000000
# 6 0.000000 0.000000 0.000000 0.000000 0.000000 -0.070625
#
#
# Mechanical properties :
#
#
# Convention : Reuss Voigt Hill
#
# Bulk Modulus (GPa) = 61.81529 82.89351 72.35440
# Shear Modulus (GPa) = 112.19926 30.49631 71.34778
#
# Velocity S-wave (km/s) = 7.08515 3.69383 5.64994
# Velocity P-wave (km/s) = 9.72570 7.43506 8.65648
#
# Compressibility (1/GPa) = 0.01617723
#
# Stress axis : x y z
#
# Youngs Moduli (GPa) = 96.67532 132.71033 94.95411
#
# Poissons Ratio (x) = 0.38542 -0.18168
# Poissons Ratio (y) = 0.28076 0.48672
# Poissons Ratio (z) = -0.18497 0.68025
#
# Static dielectric constant tensor:
#      x y z
#    x 1.786240 0.000000 0.000000 
#    y 0.000000 1.845680 0.000000 
#    z 0.000000 0.000000 1.820330 
# 
# From -- ./inp_files/64003.got.cif
#   From: 2010.05.17/outbox.cif.g08.bks.cpg/sg74_33_cif.got.tgz:64003.got - 2010.06.03 17:57:02.
