data_PCOD9539264
_publ_section_title
;
Structure prediction by ZEFSAII (Michael W. Deem and Ramdas Pophale) SiO2 
 PCOD9539264
Probable space group: I M M A
;
_chemical_formula_sum "Si O2"
_cell_formula_units_Z 68
_cell_length_a 22.399552
_cell_length_b 27.706417
_cell_length_c 5.138495
_cell_angle_alpha 90.000000
_cell_angle_beta 90.000000
_cell_angle_gamma 90.000000
_cell_volume 3189.008208
_symmetry_space_group_name_H-M "I M M A"
_symmetry_group_IT_number 74
_symmetry_cell_setting 'orthorhombic'
loop_
_space_group_symop_operation_xyz
x,y,z
-x,1/2-y,z
x,-y,-z
-x,1/2+y,-z
-x,-y,-z
x,1/2+y,-z
-x,y,z
x,1/2-y,z
1/2+x,1/2+y,1/2+z
1/2-x,-y,1/2+z
1/2+x,1/2-y,1/2-z
1/2-x,y,1/2-z
1/2-x,1/2-y,1/2-z
1/2+x,y,1/2-z
1/2-x,1/2+y,1/2+z
1/2+x,-y,1/2+z
loop_
_atom_site_type_symbol
_atom_site_label
_atom_site_fract_x
_atom_site_fract_y
_atom_site_fract_z
Si Si1 0.416084 0.157424 0.114499
Si Si2 0.711125 0.695088 0.008576
Si Si3 0.500000 0.750000 0.800977
Si Si4 0.065207 0.595569 0.126959
Si Si5 0.816481 0.965646 0.248492
O O1 0.346438 0.165315 0.066633
O O2 0.448448 0.207057 0.190994
O O3 0.426625 0.118454 0.341363
O O4 0.438400 0.138439 0.837196
O O5 0.692453 0.750000 0.081521
O O6 0.750000 0.697315 0.750000
O O7 0.750000 0.676587 0.250000
O O8 0.124181 0.566285 0.211123
O O9 0.000000 0.569965 0.134526
O O10 0.750000 0.941407 0.250000
O O11 0.822427 0.000000 0.500000
O O12 0.814678 0.000000 0.000000
#
# Coordination Sequence:
#
# PCOD9539264 Si02
#       5
#    16  16   4  16  16
#     4  12  25  42  65  93 133 180 231 278 334 387
#     4  10  21  38  58  84 116 161 219 278 333 387
#     4  12  24  46  64  90 132 198 232 276 316 402
#     4  12  25  42  65 103 136 169 226 284 333 400
#     4  10  23  45  72 100 132 174 217 266 344 430
#
# _framework density 21.323240999999999
#
# number of rings (size 3 to 8) (size 9 to 14) (size 15 to 20)
#    0.000    0.941    3.529    2.824    0.000    5.647 
#    0.000    0.000    0.000    0.000    0.000    0.000 
#    0.000    0.000    0.000    0.000    0.000    0.000 
#
# Total GULP energy -189349.305522 kJ/mol
# GULP energy per Si atom -5569.097221 kJ/mol
# Density = 2.127471 g / cm^3
# Si number density = 21.323241 Si / 1000 Ang^3
#
#
#
# Elastic Constant Matrix: (Units=GPa)
#
#
# Indices 1 2 3 4 5 6 
#
# 1 219.2793 45.7962 22.3815 0.0000 0.0000 0.0000
# 2 45.7962 47.6848 3.6239 0.0000 0.0000 0.0000
# 3 22.3815 3.6239 110.1516 0.0000 0.0000 0.0000
# 4 0.0000 0.0000 0.0000 16.1024 0.0000 0.0000
# 5 0.0000 0.0000 0.0000 0.0000 52.5041 0.0000
# 6 0.0000 0.0000 0.0000 0.0000 0.0000-2750.3637
#
#
#
# Elastic Compliance Matrix: (Units=1/GPa)
#
#
# Indices 1 2 3 4 5 6 
#
# 1 0.005812 -0.005506 -0.001000 0.000000 0.000000 0.000000
# 2 -0.005506 0.026240 0.000256 0.000000 0.000000 0.000000
# 3 -0.001000 0.000256 0.009273 0.000000 0.000000 0.000000
# 4 0.000000 0.000000 0.000000 0.062103 0.000000 0.000000
# 5 0.000000 0.000000 0.000000 0.000000 0.019046 0.000000
# 6 0.000000 0.000000 0.000000 0.000000 0.000000 -0.000364
#
#
# Mechanical properties :
#
#
# Convention : Reuss Voigt Hill
#
# Bulk Modulus (GPa) = 34.69306 57.85768 46.27537
# Shear Modulus (GPa) = 34.66934 -515.99716 -240.66391
#
# Velocity S-wave (km/s) = 4.03661 -15.57284 -10.63530
# Velocity P-wave (km/s) = 6.16693 17.20926 11.36063
#
# Compressibility (1/GPa) = 0.02882421
#
# Stress axis : x y z
#
# Youngs Moduli (GPa) = 172.04544 38.11012 107.83824
#
# Poissons Ratio (x) = 0.20984 0.10782
# Poissons Ratio (y) = 0.94732 -0.02756
# Poissons Ratio (z) = 0.17202 -0.00974
#
# Static dielectric constant tensor:
#      x y z
#    x 1.743880 0.000000 0.000000 
#    y 0.000000 1.780610 0.000000 
#    z 0.000000 0.000000 1.713960 
# 
# From -- ./inp_files/3087.got.cif
#   From: 2010.05.17/outbox.cif.g08.bks.cpg/sg74_2_cif.got.tgz:3087.got - 2010.06.03 17:57:02.
