data_PCOD9539246
_publ_section_title
;
Structure prediction by ZEFSAII (Michael W. Deem and Ramdas Pophale) SiO2 
 PCOD9539246
Probable space group: I M M A
;
_chemical_formula_sum "Si O2"
_cell_formula_units_Z 84
_cell_length_a 22.482403
_cell_length_b 7.665219
_cell_length_c 23.885603
_cell_angle_alpha 90.000000
_cell_angle_beta 90.000000
_cell_angle_gamma 90.000000
_cell_volume 4116.266698
_symmetry_space_group_name_H-M "I M M A"
_symmetry_group_IT_number 74
_symmetry_cell_setting 'orthorhombic'
loop_
_space_group_symop_operation_xyz
x,y,z
-x,1/2-y,z
x,-y,-z
-x,1/2+y,-z
-x,-y,-z
x,1/2+y,-z
-x,y,z
x,1/2-y,z
1/2+x,1/2+y,1/2+z
1/2-x,-y,1/2+z
1/2+x,1/2-y,1/2-z
1/2-x,y,1/2-z
1/2-x,1/2-y,1/2-z
1/2+x,y,1/2-z
1/2-x,1/2+y,1/2+z
1/2+x,-y,1/2+z
loop_
_atom_site_type_symbol
_atom_site_label
_atom_site_fract_x
_atom_site_fract_y
_atom_site_fract_z
Si Si1 0.895941 0.547207 0.137963
Si Si2 0.500000 0.250000 0.358103
Si Si3 0.675117 0.049232 0.860894
Si Si4 0.816638 0.049763 0.240755
Si Si5 0.784600 0.958518 0.065269
Si Si6 0.934316 0.541920 0.565464
O O1 0.914885 0.750000 0.128462
O O2 0.857026 0.543444 0.195192
O O3 0.849078 0.492492 0.089308
O O4 0.947941 0.405515 0.141817
O O5 0.687895 0.250000 0.846392
O O6 0.732152 0.973128 0.894067
O O7 0.658134 0.955643 0.803418
O O8 0.619492 0.042275 0.901977
O O9 0.810835 0.250000 0.221667
O O10 0.750000 0.978048 0.250000
O O11 0.781226 0.750000 0.069895
O O12 0.776043 0.000000 0.000000
O O13 0.929469 0.500000 0.500000
O O14 0.930679 0.750000 0.572579
O O15 0.000000 0.483466 0.584349
#
# Coordination Sequence:
#
# PCOD9539246 Si02
#       6
#    16   4  16  16  16  16
#     4  11  24  46  71  99 135 176 225 281 343 407
#     4  12  26  48  72  98 130 184 230 276 342 416
#     4  11  22  37  60  95 130 168 214 266 326 392
#     4  11  22  39  67  99 129 169 212 266 334 399
#     4  10  23  39  65  97 131 167 214 277 343 402
#     4  10  21  38  57  81 120 168 214 261 311 379
#
# _framework density 20.406842000000001
#
# number of rings (size 3 to 8) (size 9 to 14) (size 15 to 20)
#    0.000    1.333    2.857    2.571    1.333    4.952 
#    1.714    0.476    0.000    0.000    0.000    0.000 
#    0.000    0.000    0.000    0.000    0.000    0.000 
#
# Total GULP energy -234040.218301 kJ/mol
# GULP energy per Si atom -5572.386150 kJ/mol
# Density = 2.036039 g / cm^3
# Si number density = 20.406842 Si / 1000 Ang^3
#
#
#
# Elastic Constant Matrix: (Units=GPa)
#
#
# Indices 1 2 3 4 5 6 
#
# 1 92.7294 32.4987 12.6315 0.0000 0.0000 0.0000
# 2 32.4987 94.2902 2.5876 0.0000 0.0000 0.0000
# 3 12.6315 2.5876 68.2443 0.0000 0.0000 0.0000
# 4 0.0000 0.0000 0.0000 25.6910 0.0000 0.0000
# 5 0.0000 0.0000 0.0000 0.0000 8.8306 0.0000
# 6 0.0000 0.0000 0.0000 0.0000 0.0000 -19.6629
#
#
#
# Elastic Compliance Matrix: (Units=1/GPa)
#
#
# Indices 1 2 3 4 5 6 
#
# 1 0.012578 -0.004276 -0.002166 0.000000 0.000000 0.000000
# 2 -0.004276 0.012070 0.000334 0.000000 0.000000 0.000000
# 3 -0.002166 0.000334 0.015041 0.000000 0.000000 0.000000
# 4 0.000000 0.000000 0.000000 0.038924 0.000000 0.000000
# 5 0.000000 0.000000 0.000000 0.000000 0.113243 0.000000
# 6 0.000000 0.000000 0.000000 0.000000 0.000000 -0.050857
#
#
# Mechanical properties :
#
#
# Convention : Reuss Voigt Hill
#
# Bulk Modulus (GPa) = 36.39870 38.96663 37.68266
# Shear Modulus (GPa) = 30.79340 16.80814 23.80077
#
# Velocity S-wave (km/s) = 3.88877 2.87305 3.41884
# Velocity P-wave (km/s) = 6.16754 5.49019 5.83870
#
# Compressibility (1/GPa) = 0.02747351
#
# Stress axis : x y z
#
# Youngs Moduli (GPa) = 79.50659 82.84962 66.48287
#
# Poissons Ratio (x) = 0.35423 0.14400
# Poissons Ratio (y) = 0.33994 -0.02219
# Poissons Ratio (z) = 0.17220 -0.02765
#
# Static dielectric constant tensor:
#      x y z
#    x 1.729080 0.000000 0.000000 
#    y 0.000000 1.770730 0.000000 
#    z 0.000000 0.000000 1.732580 
# 
# From -- ./inp_files/61344.got.cif
#   From: 2010.05.17/outbox.cif.g08.bks.cpg/sg74_31_cif.got.tgz:61344.got - 2010.06.03 17:57:02.
