data_PCOD9539915
_publ_section_title
;
Structure prediction by ZEFSAII (Michael W. Deem and Ramdas Pophale) SiO2 
 PCOD9539915
Probable space group: I M M A
;
_chemical_formula_sum "Si O2"
_cell_formula_units_Z 104
_cell_length_a 26.774893
_cell_length_b 20.929991
_cell_length_c 8.227944
_cell_angle_alpha 90.000000
_cell_angle_beta 90.000000
_cell_angle_gamma 90.000000
_cell_volume 4610.925579
_symmetry_space_group_name_H-M "I M M A"
_symmetry_group_IT_number 74
_symmetry_cell_setting 'orthorhombic'
loop_
_space_group_symop_operation_xyz
x,y,z
-x,1/2-y,z
x,-y,-z
-x,1/2+y,-z
-x,-y,-z
x,1/2+y,-z
-x,y,z
x,1/2-y,z
1/2+x,1/2+y,1/2+z
1/2-x,-y,1/2+z
1/2+x,1/2-y,1/2-z
1/2-x,y,1/2-z
1/2-x,1/2-y,1/2-z
1/2+x,y,1/2-z
1/2-x,1/2+y,1/2+z
1/2+x,-y,1/2+z
loop_
_atom_site_type_symbol
_atom_site_label
_atom_site_fract_x
_atom_site_fract_y
_atom_site_fract_z
Si Si1 0.593450 0.923819 0.504966
Si Si2 0.184509 0.823250 0.980340
Si Si3 0.750000 0.622648 0.250000
Si Si4 0.054239 0.060440 0.667544
Si Si5 0.338757 0.318478 0.121211
Si Si6 0.834838 0.943850 0.400442
Si Si7 0.445398 0.862506 0.826668
O O1 0.640512 0.875593 0.493925
O O2 0.559578 0.908885 0.346261
O O3 0.565559 0.909980 0.675414
O O4 0.605103 0.000000 0.500000
O O5 0.167969 0.750000 0.016305
O O6 0.232967 0.836901 0.092230
O O7 0.192593 0.826221 0.786178
O O8 0.797412 0.576663 0.263281
O O9 0.110327 0.032054 0.651127
O O10 0.053212 0.103785 0.504720
O O11 0.000000 0.026067 0.667668
O O12 0.326958 0.250000 0.043293
O O13 0.397127 0.317978 0.173373
O O14 0.336885 0.379909 0.007779
O O15 0.810336 0.000000 0.500000
O O16 0.500000 0.833221 0.802311
#
# Coordination Sequence:
#
# PCOD9539915 Si02
#       7
#    16  16   8  16  16  16  16
#     4  11  23  39  64  97 138 176 225 278 342 406
#     4  10  23  43  68  96 128 175 225 279 342 407
#     4  12  25  44  68  98 133 170 224 288 341 408
#     4  10  22  41  65  99 137 174 223 276 335 406
#     4   9  21  42  65  91 130 174 223 278 337 411
#     4  11  26  44  67 100 134 177 225 278 346 404
#     4   9  20  37  60  94 134 177 224 279 336 402
#
# _framework density 22.555125
#
# number of rings (size 3 to 8) (size 9 to 14) (size 15 to 20)
#    0.000    1.846    1.538    0.692    6.462    5.538 
#    0.000    1.538    0.000    5.077    0.000    0.000 
#    0.000    0.000    0.000    0.000    0.000    0.000 
#
# Total GULP energy -289586.375979 kJ/mol
# GULP energy per Si atom -5568.968769 kJ/mol
# Density = 2.250379 g / cm^3
# Si number density = 22.555125 Si / 1000 Ang^3
#
#
#
# Elastic Constant Matrix: (Units=GPa)
#
#
# Indices 1 2 3 4 5 6 
#
# 1 132.0393 34.9715 36.4938 0.0000 0.0000 0.0000
# 2 34.9715 90.8681 24.6034 0.0000 0.0000 0.0000
# 3 36.4938 24.6034 113.1892 0.0000 0.0000 0.0000
# 4 0.0000 0.0000 0.0000 19.3119 0.0000 0.0000
# 5 0.0000 0.0000 0.0000 0.0000 6.0978 0.0000
# 6 0.0000 0.0000 0.0000 0.0000 0.0000 10.2463
#
#
#
# Elastic Compliance Matrix: (Units=1/GPa)
#
#
# Indices 1 2 3 4 5 6 
#
# 1 0.008951 -0.002830 -0.002271 0.000000 0.000000 0.000000
# 2 -0.002830 0.012588 -0.001824 0.000000 0.000000 0.000000
# 3 -0.002271 -0.001824 0.009963 0.000000 0.000000 0.000000
# 4 0.000000 0.000000 0.000000 0.051781 0.000000 0.000000
# 5 0.000000 0.000000 0.000000 0.000000 0.163993 0.000000
# 6 0.000000 0.000000 0.000000 0.000000 0.000000 0.097596
#
#
# Mechanical properties :
#
#
# Convention : Reuss Voigt Hill
#
# Bulk Modulus (GPa) = 56.64744 58.69270 57.67007
# Shear Modulus (GPa) = 13.71348 23.13308 18.42328
#
# Velocity S-wave (km/s) = 2.46844 3.20601 2.86109
# Velocity P-wave (km/s) = 5.77008 6.30738 6.04471
#
# Compressibility (1/GPa) = 0.01765305
#
# Stress axis : x y z
#
# Youngs Moduli (GPa) = 111.72422 79.44146 100.36843
#
# Poissons Ratio (x) = 0.22481 0.22790
# Poissons Ratio (y) = 0.31617 0.18305
# Poissons Ratio (z) = 0.25369 0.14488
#
# Static dielectric constant tensor:
#      x y z
#    x 1.872700 0.000000 0.000000 
#    y 0.000000 2.962150 0.000000 
#    z 0.000000 0.000000 1.956430 
# 
# From -- ./inp_files/15212.got.cif
#   From: 2010.05.17/outbox.cif.g08.bks.cpg/sg74_8_cif.got.tgz:15212.got - 2010.06.03 17:57:02.
