data_PCOD9539681
_publ_section_title
;
Structure prediction by ZEFSAII (Michael W. Deem and Ramdas Pophale) SiO2 
 PCOD9539681
Probable space group: I M M A
;
_chemical_formula_sum "Si O2"
_cell_formula_units_Z 104
_cell_length_a 18.461917
_cell_length_b 27.146916
_cell_length_c 10.148130
_cell_angle_alpha 90.000000
_cell_angle_beta 90.000000
_cell_angle_gamma 90.000000
_cell_volume 5086.081502
_symmetry_space_group_name_H-M "I M M A"
_symmetry_group_IT_number 74
_symmetry_cell_setting 'orthorhombic'
loop_
_space_group_symop_operation_xyz
x,y,z
-x,1/2-y,z
x,-y,-z
-x,1/2+y,-z
-x,-y,-z
x,1/2+y,-z
-x,y,z
x,1/2-y,z
1/2+x,1/2+y,1/2+z
1/2-x,-y,1/2+z
1/2+x,1/2-y,1/2-z
1/2-x,y,1/2-z
1/2-x,1/2-y,1/2-z
1/2+x,y,1/2-z
1/2-x,1/2+y,1/2+z
1/2+x,-y,1/2+z
loop_
_atom_site_type_symbol
_atom_site_label
_atom_site_fract_x
_atom_site_fract_y
_atom_site_fract_z
Si Si1 0.914033 0.250000 0.918243
Si Si2 0.415267 0.493176 0.147028
Si Si3 0.412867 0.885628 0.808822
Si Si4 0.811156 0.854465 0.459937
Si Si5 0.644369 0.647505 0.537875
Si Si6 0.750000 0.076864 0.750000
Si Si7 0.374833 0.455192 0.598380
Si Si8 0.675561 0.750000 0.165838
O O1 0.891081 0.250000 0.765966
O O2 0.000000 0.250000 0.938291
O O3 0.880322 0.300506 0.976768
O O4 0.500000 0.484840 0.125666
O O5 0.388816 0.442448 0.211739
O O6 0.409079 0.534717 0.258113
O O7 0.383032 0.500000 0.000000
O O8 0.500000 0.881216 0.813046
O O9 0.381961 0.854858 0.687625
O O10 0.374639 0.871305 0.944524
O O11 0.731262 0.857595 0.525372
O O12 0.804526 0.887177 0.327611
O O13 0.824213 0.798678 0.419759
O O14 0.611700 0.598729 0.464248
O O15 0.709918 0.044940 0.640073
O O16 0.393279 0.500000 0.500000
O O17 0.750000 0.750000 0.250000
#
# Coordination Sequence:
#
# PCOD9539681 Si02
#       8
#     8  16  16  16  16   8  16   8
#     4  12  26  43  71 103 135 175 224 291 349 400
#     4  10  22  40  61  89 132 182 224 277 349 414
#     4  11  24  41  63  96 139 177 224 288 345 416
#     4  11  22  41  69  94 129 181 229 276 344 413
#     4  11  23  44  67  98 136 182 230 285 348 413
#     4  10  22  37  60  94 130 165 216 288 338 396
#     4  11  22  39  64  96 127 178 229 279 337 409
#     4  12  20  45  71  94 129 174 233 283 335 413
#
# _framework density 20.447962
#
# number of rings (size 3 to 8) (size 9 to 14) (size 15 to 20)
#    0.000    1.077    3.846    2.769    0.000    5.846 
#    0.000    3.846    0.000    0.000    0.000    0.000 
#    0.000    0.000    0.000    0.000    0.000    0.000 
#
# Total GULP energy -290228.762836 kJ/mol
# GULP energy per Si atom -5581.322362 kJ/mol
# Density = 2.040142 g / cm^3
# Si number density = 20.447962 Si / 1000 Ang^3
#
#
#
# Elastic Constant Matrix: (Units=GPa)
#
#
# Indices 1 2 3 4 5 6 
#
# 1 45.5809 13.5140 14.2085 0.0000 0.0000 0.0000
# 2 13.5140 92.6085 34.4977 0.0000 0.0000 0.0000
# 3 14.2085 34.4977 111.3497 0.0000 0.0000 0.0000
# 4 0.0000 0.0000 0.0000 30.1416 0.0000 0.0000
# 5 0.0000 0.0000 0.0000 0.0000 27.9154 0.0000
# 6 0.0000 0.0000 0.0000 0.0000 0.0000 12.9483
#
#
#
# Elastic Compliance Matrix: (Units=1/GPa)
#
#
# Indices 1 2 3 4 5 6 
#
# 1 0.023389 -0.002602 -0.002179 0.000000 0.000000 0.000000
# 2 -0.002602 0.012496 -0.003540 0.000000 0.000000 0.000000
# 3 -0.002179 -0.003540 0.010355 0.000000 0.000000 0.000000
# 4 0.000000 0.000000 0.000000 0.033177 0.000000 0.000000
# 5 0.000000 0.000000 0.000000 0.000000 0.035823 0.000000
# 6 0.000000 0.000000 0.000000 0.000000 0.000000 0.077230
#
#
# Mechanical properties :
#
#
# Convention : Reuss Voigt Hill
#
# Bulk Modulus (GPa) = 33.78187 41.55327 37.66757
# Shear Modulus (GPa) = 22.83343 26.68898 24.76121
#
# Velocity S-wave (km/s) = 3.34527 3.61669 3.48363
# Velocity P-wave (km/s) = 5.61052 6.14868 5.88575
#
# Compressibility (1/GPa) = 0.02960167
#
# Stress axis : x y z
#
# Youngs Moduli (GPa) = 42.75430 80.02367 96.56879
#
# Poissons Ratio (x) = 0.20819 0.21038
# Poissons Ratio (y) = 0.11123 0.34181
# Poissons Ratio (z) = 0.09314 0.28325
#
# Static dielectric constant tensor:
#      x y z
#    x 1.762080 0.000000 0.000000 
#    y 0.000000 1.771880 0.000000 
#    z 0.000000 0.000000 1.729760 
# 
# From -- ./inp_files/12946.got.cif
#   From: 2010.05.17/outbox.cif.g08.bks.cpg/sg74_7_cif.got.tgz:12946.got - 2010.06.03 17:57:02.
