data_PCOD9539334
_publ_section_title
;
Structure prediction by ZEFSAII (Michael W. Deem and Ramdas Pophale) SiO2 
 PCOD9539334
Probable space group: I M M A
;
_chemical_formula_sum "Si O2"
_cell_formula_units_Z 64
_cell_length_a 9.971838
_cell_length_b 14.029006
_cell_length_c 24.925683
_cell_angle_alpha 90.000000
_cell_angle_beta 90.000000
_cell_angle_gamma 90.000000
_cell_volume 3486.977803
_symmetry_space_group_name_H-M "I M M A"
_symmetry_group_IT_number 74
_symmetry_cell_setting 'orthorhombic'
loop_
_space_group_symop_operation_xyz
x,y,z
-x,1/2-y,z
x,-y,-z
-x,1/2+y,-z
-x,-y,-z
x,1/2+y,-z
-x,y,z
x,1/2-y,z
1/2+x,1/2+y,1/2+z
1/2-x,-y,1/2+z
1/2+x,1/2-y,1/2-z
1/2-x,y,1/2-z
1/2-x,1/2-y,1/2-z
1/2+x,y,1/2-z
1/2-x,1/2+y,1/2+z
1/2+x,-y,1/2+z
loop_
_atom_site_type_symbol
_atom_site_label
_atom_site_fract_x
_atom_site_fract_y
_atom_site_fract_z
Si Si1 0.843991 0.750000 0.899765
Si Si2 0.250000 0.579124 0.750000
Si Si3 0.845756 0.750000 0.301239
Si Si4 0.843821 0.539081 0.939803
Si Si5 0.635912 0.750000 0.803408
Si Si6 0.839124 0.043181 0.651548
O O1 0.820125 0.652741 0.932833
O O2 0.755635 0.750000 0.845902
O O3 0.000000 0.750000 0.884099
O O4 0.360666 0.657528 0.765766
O O5 0.242821 0.511721 0.698496
O O6 0.750000 0.750000 0.250000
O O7 0.826503 0.845089 0.335889
O O8 0.000000 0.750000 0.281979
O O9 0.735286 0.487377 0.902430
O O10 0.000000 0.521842 0.922737
O O11 0.831762 0.500000 0.000000
O O12 0.500000 0.750000 0.836541
O O13 0.000000 0.019983 0.652549
#
# Coordination Sequence:
#
# PCOD9539334 Si02
#       6
#     8   8   8  16   8  16
#     4  10  21  38  61  88 119 156 195 241 294 351
#     4  11  22  35  58  90 126 157 190 241 294 354
#     4  10  22  39  58  85 120 156 198 244 294 352
#     4  10  23  42  63  88 119 156 199 246 296 350
#     4  11  23  37  57  90 125 159 195 237 290 354
#     4  11  23  40  62  89 120 157 201 246 295 352
#
# _framework density 18.354002000000001
#
# number of rings (size 3 to 8) (size 9 to 14) (size 15 to 20)
#    0.000    1.500    3.750    0.750    0.000    7.500 
#    0.000    1.250    0.000    0.000    0.000    0.000 
#    0.000    0.000    0.000    0.000    0.000    0.000 
#
# Total GULP energy -178194.234840 kJ/mol
# GULP energy per Si atom -5568.569839 kJ/mol
# Density = 1.831223 g / cm^3
# Si number density = 18.354002 Si / 1000 Ang^3
#
#
#
# Elastic Constant Matrix: (Units=GPa)
#
#
# Indices 1 2 3 4 5 6 
#
# 1 96.9369 73.5908 75.2564 0.0000 0.0000 0.0000
# 2 73.5908 147.3738 57.5985 0.0000 0.0000 0.0000
# 3 75.2564 57.5985 108.9788 0.0000 0.0000 0.0000
# 4 0.0000 0.0000 0.0000 20.4116 0.0000 0.0000
# 5 0.0000 0.0000 0.0000 0.0000 22.1971 0.0000
# 6 0.0000 0.0000 0.0000 0.0000 0.0000 42.2728
#
#
#
# Elastic Compliance Matrix: (Units=1/GPa)
#
#
# Indices 1 2 3 4 5 6 
#
# 1 0.028418 -0.008218 -0.015281 0.000000 0.000000 0.000000
# 2 -0.008218 0.010929 -0.000101 0.000000 0.000000 0.000000
# 3 -0.015281 -0.000101 0.019782 0.000000 0.000000 0.000000
# 4 0.000000 0.000000 0.000000 0.048992 0.000000 0.000000
# 5 0.000000 0.000000 0.000000 0.000000 0.045051 0.000000
# 6 0.000000 0.000000 0.000000 0.000000 0.000000 0.023656
#
#
# Mechanical properties :
#
#
# Convention : Reuss Voigt Hill
#
# Bulk Modulus (GPa) = 83.83255 85.13121 84.48188
# Shear Modulus (GPa) = 21.92948 26.76589 24.34768
#
# Velocity S-wave (km/s) = 3.46035 3.82293 3.64615
# Velocity P-wave (km/s) = 7.85747 8.12219 7.99093
#
# Compressibility (1/GPa) = 0.01192854
#
# Stress axis : x y z
#
# Youngs Moduli (GPa) = 35.18871 91.50228 50.55157
#
# Poissons Ratio (x) = 0.75199 0.77247
# Poissons Ratio (y) = 0.28919 0.00510
# Poissons Ratio (z) = 0.53771 0.00923
#
# Static dielectric constant tensor:
#      x y z
#    x 1.659150 0.000000 0.000000 
#    y 0.000000 1.656360 0.000000 
#    z 0.000000 0.000000 1.589040 
# 
# From -- ./inp_files/56485.got.cif
#   From: 2010.05.17/outbox.cif.g08.bks.cpg/sg74_29_cif.got.tgz:56485.got - 2010.06.03 17:57:02.
