data_PCOD9539329
_publ_section_title
;
Structure prediction by ZEFSAII (Michael W. Deem and Ramdas Pophale) SiO2 
 PCOD9539329
Probable space group: I M M A
;
_chemical_formula_sum "Si O2"
_cell_formula_units_Z 80
_cell_length_a 8.832602
_cell_length_b 25.796195
_cell_length_c 18.781328
_cell_angle_alpha 90.000000
_cell_angle_beta 90.000000
_cell_angle_gamma 90.000000
_cell_volume 4279.279074
_symmetry_space_group_name_H-M "I M M A"
_symmetry_group_IT_number 74
_symmetry_cell_setting 'orthorhombic'
loop_
_space_group_symop_operation_xyz
x,y,z
-x,1/2-y,z
x,-y,-z
-x,1/2+y,-z
-x,-y,-z
x,1/2+y,-z
-x,y,z
x,1/2-y,z
1/2+x,1/2+y,1/2+z
1/2-x,-y,1/2+z
1/2+x,1/2-y,1/2-z
1/2-x,y,1/2-z
1/2-x,1/2-y,1/2-z
1/2+x,y,1/2-z
1/2-x,1/2+y,1/2+z
1/2+x,-y,1/2+z
loop_
_atom_site_type_symbol
_atom_site_label
_atom_site_fract_x
_atom_site_fract_y
_atom_site_fract_z
Si Si1 0.818794 0.501445 0.171286
Si Si2 0.817779 0.690875 0.327163
Si Si3 0.319218 0.689329 0.827369
Si Si4 0.682059 0.406110 0.922396
Si Si5 0.819249 0.100535 0.078481
O O1 0.750000 0.500742 0.250000
O O2 0.747922 0.548054 0.125905
O O3 0.785714 0.447802 0.130408
O O4 0.000000 0.507739 0.175198
O O5 0.771232 0.750000 0.344684
O O6 0.750000 0.677570 0.250000
O O7 0.774231 0.648464 0.385470
O O8 0.000000 0.690087 0.321478
O O9 0.500000 0.682606 0.825009
O O10 0.286811 0.750000 0.841686
O O11 0.250000 0.676687 0.750000
O O12 0.248242 0.651957 0.885873
O O13 0.500000 0.409397 0.924290
O O14 0.747400 0.409133 0.001532
O O15 0.000000 0.104812 0.071805
#
# Coordination Sequence:
#
# PCOD9539329 Si02
#       5
#    16  16  16  16  16
#     4  11  24  41  61  85 114 149 191 239 289 344
#     4   9  19  36  57  82 112 146 186 231 278 331
#     4  10  21  38  61  88 118 153 194 240 289 343
#     4  11  23  38  59  86 117 153 191 236 291 347
#     4  11  24  40  59  85 118 154 193 239 290 345
#
# _framework density 18.694738999999998
#
# number of rings (size 3 to 8) (size 9 to 14) (size 15 to 20)
#    0.000    1.600    0.000    4.200    0.000   12.400 
#    0.000    2.000    0.000    0.000    0.000    0.000 
#    0.000    0.000    0.000    0.000    0.000    0.000 
#
# Total GULP energy -223637.775089 kJ/mol
# GULP energy per Si atom -5590.944377 kJ/mol
# Density = 1.865219 g / cm^3
# Si number density = 18.694739 Si / 1000 Ang^3
#
#
#
# Elastic Constant Matrix: (Units=GPa)
#
#
# Indices 1 2 3 4 5 6 
#
# 1 61.4064 64.0239 75.0602 0.0000 0.0000 0.0000
# 2 64.0239 105.6960 100.6275 0.0000 0.0000 0.0000
# 3 75.0602 100.6275 191.0164 -0.0001 0.0000 0.0000
# 4 0.0000 0.0000 -0.0001 -38.2982 0.0000 0.0000
# 5 0.0000 0.0000 0.0000 0.0000 39.9025 0.0000
# 6 0.0000 0.0000 0.0000 0.0000 0.0000 29.2375
#
#
#
# Elastic Compliance Matrix: (Units=1/GPa)
#
#
# Indices 1 2 3 4 5 6 
#
# 1 0.048698 -0.022629 -0.007215 0.000000 0.000000 0.000000
# 2 -0.022629 0.029496 -0.006646 0.000000 0.000000 0.000000
# 3 -0.007215 -0.006646 0.011572 0.000000 0.000000 0.000000
# 4 0.000000 0.000000 0.000000 -0.026111 0.000000 0.000000
# 5 0.000000 0.000000 0.000000 0.000000 0.025061 0.000000
# 6 0.000000 0.000000 0.000000 0.000000 0.000000 0.034203
#
#
# Mechanical properties :
#
#
# Convention : Reuss Voigt Hill
#
# Bulk Modulus (GPa) = 59.57830 93.06020 76.31925
# Shear Modulus (GPa) = 24.81474 14.06219 19.43847
#
# Velocity S-wave (km/s) = 3.64725 2.74560 3.22806
# Velocity P-wave (km/s) = 7.04804 7.74196 7.40314
#
# Compressibility (1/GPa) = 0.01678464
#
# Stress axis : x y z
#
# Youngs Moduli (GPa) = 20.53492 33.90293 86.41905
#
# Poissons Ratio (x) = 0.76719 0.62350
# Poissons Ratio (y) = 0.46469 0.57437
# Poissons Ratio (z) = 0.14816 0.22533
#
# Static dielectric constant tensor:
#      x y z
#    x 1.623220 0.000000 0.000000 
#    y 0.000000 1.642450 0.000000 
#    z 0.000000 0.000000 1.598770 
# 
# From -- ./inp_files/39705.got.cif
#   From: 2010.05.17/outbox.cif.g08.bks.cpg/sg74_20_cif.got.tgz:39705.got - 2010.06.03 17:57:02.
