data_PCOD9539578
_publ_section_title
;
Structure prediction by ZEFSAII (Michael W. Deem and Ramdas Pophale) SiO2 
 PCOD9539578
Probable space group: I M M A
;
_chemical_formula_sum "Si O2"
_cell_formula_units_Z 72
_cell_length_a 14.915277
_cell_length_b 9.799424
_cell_length_c 27.908131
_cell_angle_alpha 90.000000
_cell_angle_beta 90.000000
_cell_angle_gamma 90.000000
_cell_volume 4079.083779
_symmetry_space_group_name_H-M "I M M A"
_symmetry_group_IT_number 74
_symmetry_cell_setting 'orthorhombic'
loop_
_space_group_symop_operation_xyz
x,y,z
-x,1/2-y,z
x,-y,-z
-x,1/2+y,-z
-x,-y,-z
x,1/2+y,-z
-x,y,z
x,1/2-y,z
1/2+x,1/2+y,1/2+z
1/2-x,-y,1/2+z
1/2+x,1/2-y,1/2-z
1/2-x,y,1/2-z
1/2-x,1/2-y,1/2-z
1/2+x,y,1/2-z
1/2-x,1/2+y,1/2+z
1/2+x,-y,1/2+z
loop_
_atom_site_type_symbol
_atom_site_label
_atom_site_fract_x
_atom_site_fract_y
_atom_site_fract_z
Si Si1 0.369201 0.413084 0.378993
Si Si2 0.500000 0.921621 0.448264
Si Si3 0.893461 0.250000 0.461308
Si Si4 0.500000 0.086240 0.294517
Si Si5 0.000000 0.587284 0.686936
Si Si6 0.661511 0.029550 0.115141
Si Si7 0.890814 0.750000 0.429332
O O1 0.386141 0.250000 0.389833
O O2 0.415391 0.513141 0.418373
O O3 0.415788 0.446932 0.328271
O O4 0.263616 0.434813 0.373620
O O5 0.500000 0.750000 0.450501
O O6 0.500000 0.000000 0.500000
O O7 0.864436 0.121690 0.430347
O O8 0.860662 0.250000 0.515423
O O9 0.000000 0.250000 0.463672
O O10 0.500000 0.250000 0.289806
O O11 0.500000 0.029000 0.240881
O O12 0.089459 0.551969 0.657246
O O13 0.000000 0.750000 0.689774
O O14 0.648168 0.878264 0.097468
O O15 0.000000 0.750000 0.427652
#
# Coordination Sequence:
#
# PCOD9539578 Si02
#       7
#    16   8   8   8   8  16   8
#     4  10  21  41  63  89 123 154 199 254 305 355
#     4  11  24  42  65  90 122 163 206 252 297 354
#     4  11  20  38  56  82 116 162 202 241 288 351
#     4   8  19  37  63  90 114 150 193 257 312 355
#     4  11  19  36  63  92 118 149 203 246 303 368
#     4  12  21  37  60  86 123 157 199 247 298 356
#     4  11  24  36  54  82 124 166 202 239 296 361
#
# _framework density 17.651022999999999
#
# number of rings (size 3 to 8) (size 9 to 14) (size 15 to 20)
#    0.000    1.333    4.444    2.333    1.556    4.444 
#    0.000    3.333    9.778    1.333    0.000    0.000 
#    0.000    0.000    0.000    0.000    0.000    0.000 
#
# Total GULP energy -200633.988552 kJ/mol
# GULP energy per Si atom -5573.166349 kJ/mol
# Density = 1.761085 g / cm^3
# Si number density = 17.651023 Si / 1000 Ang^3
#
#
#
# Elastic Constant Matrix: (Units=GPa)
#
#
# Indices 1 2 3 4 5 6 
#
# 1 135.5263 30.3895 70.7780 0.0000 0.0000 0.0000
# 2 30.3895 135.3926 53.6717 0.0000 0.0000 0.0000
# 3 70.7780 53.6717 157.9936 0.0000 0.0000 0.0000
# 4 0.0000 0.0000 0.0000 -9.3980 0.0000 0.0000
# 5 0.0000 0.0000 0.0000 0.0000 0.1970 0.0000
# 6 0.0000 0.0000 0.0000 0.0000 0.0000 26.0831
#
#
#
# Elastic Compliance Matrix: (Units=1/GPa)
#
#
# Indices 1 2 3 4 5 6 
#
# 1 0.009664 -0.000523 -0.004152 0.000000 0.000000 0.000000
# 2 -0.000523 0.008564 -0.002675 0.000000 0.000000 0.000000
# 3 -0.004152 -0.002675 0.009098 0.000000 0.000000 0.000000
# 4 0.000000 0.000000 0.000000 -0.106406 0.000000 0.000000
# 5 0.000000 0.000000 0.000000 0.000000 5.077068 0.000000
# 6 0.000000 0.000000 0.000000 0.000000 0.000000 0.038339
#
#
# Mechanical properties :
#
#
# Convention : Reuss Voigt Hill
#
# Bulk Modulus (GPa) = 79.19945 82.06566 80.63256
# Shear Modulus (GPa) = 0.98907 21.64798 11.31853
#
# Velocity S-wave (km/s) = 0.74938 3.50586 2.53502
# Velocity P-wave (km/s) = 6.76134 7.93615 7.37218
#
# Compressibility (1/GPa) = 0.01262635
#
# Stress axis : x y z
#
# Youngs Moduli (GPa) = 103.47547 116.77207 109.91695
#
# Poissons Ratio (x) = 0.06112 0.45632
# Poissons Ratio (y) = 0.05416 0.29399
# Poissons Ratio (z) = 0.42958 0.31233
#
# Static dielectric constant tensor:
#      x y z
#    x 1.666580 0.000000 0.000000 
#    y 0.000000 1.589550 0.000000 
#    z 0.000000 0.000000 1.611430 
# 
# From -- ./inp_files/66837.got.cif
#   From: 2010.05.17/outbox.cif.g08.bks.cpg/sg74_34_cif.got.tgz:66837.got - 2010.06.03 17:57:02.
