data_PCOD9539778
_publ_section_title
;
Structure prediction by ZEFSAII (Michael W. Deem and Ramdas Pophale) SiO2 
 PCOD9539778
Probable space group: I M M A
;
_chemical_formula_sum "Si O2"
_cell_formula_units_Z 52
_cell_length_a 10.889239
_cell_length_b 7.371888
_cell_length_c 29.095788
_cell_angle_alpha 90.000000
_cell_angle_beta 90.000000
_cell_angle_gamma 90.000000
_cell_volume 2335.642569
_symmetry_space_group_name_H-M "I M M A"
_symmetry_group_IT_number 74
_symmetry_cell_setting 'orthorhombic'
loop_
_space_group_symop_operation_xyz
x,y,z
-x,1/2-y,z
x,-y,-z
-x,1/2+y,-z
-x,-y,-z
x,1/2+y,-z
-x,y,z
x,1/2-y,z
1/2+x,1/2+y,1/2+z
1/2-x,-y,1/2+z
1/2+x,1/2-y,1/2-z
1/2-x,y,1/2-z
1/2-x,1/2-y,1/2-z
1/2+x,y,1/2-z
1/2-x,1/2+y,1/2+z
1/2+x,-y,1/2+z
loop_
_atom_site_type_symbol
_atom_site_label
_atom_site_fract_x
_atom_site_fract_y
_atom_site_fract_z
Si Si1 0.000000 0.250000 0.323033
Si Si2 0.864857 0.033197 0.445684
Si Si3 0.136096 0.969322 0.886476
Si Si4 0.788822 0.040532 0.698498
O O1 0.107604 0.407753 0.320690
O O2 0.868856 0.250000 0.438163
O O3 0.747181 0.963416 0.418576
O O4 0.000000 0.963592 0.431453
O O5 0.852143 0.000000 0.500000
O O6 0.135388 0.750000 0.889023
O O7 0.000000 0.031962 0.899459
O O8 0.172110 0.023443 0.835041
O O9 0.829403 0.250000 0.699408
O O10 0.750000 0.987414 0.750000
#
# Coordination Sequence:
#
# PCOD9539778 Si02
#       4
#     4  16  16  16
#     4  12  24  44  70  94 130 186 212 288 328 396
#     4   9  19  36  59  87 122 164 216 272 329 394
#     4  10  22  39  63  91 127 176 222 269 336 402
#     4  11  26  43  66  99 132 173 227 275 328 398
#
# _framework density 22.263680000000001
#
# number of rings (size 3 to 8) (size 9 to 14) (size 15 to 20)
#    0.000    1.846    1.538    0.923    4.308    2.462 
#    0.000    0.000    0.000    0.000    0.000    0.000 
#    0.000    0.000    0.000    0.000    0.000    0.000 
#
# Total GULP energy -144868.975135 kJ/mol
# GULP energy per Si atom -5571.883659 kJ/mol
# Density = 2.221301 g / cm^3
# Si number density = 22.263680 Si / 1000 Ang^3
#
#
#
# Elastic Constant Matrix: (Units=GPa)
#
#
# Indices 1 2 3 4 5 6 
#
# 1 210.6935 24.5609 83.5764 0.0000 0.0000 0.0000
# 2 24.5609 108.9309 -11.5994 0.0000 0.0000 0.0000
# 3 83.5764 -11.5994 100.6837 0.0000 0.0000 0.0000
# 4 0.0000 0.0000 0.0000 12.8633 0.0000 0.0000
# 5 0.0000 0.0000 0.0000 0.0000 4.3823 0.0000
# 6 0.0000 0.0000 0.0000 0.0000 0.0000 -91.5478
#
#
#
# Elastic Compliance Matrix: (Units=1/GPa)
#
#
# Indices 1 2 3 4 5 6 
#
# 1 0.007666 -0.002436 -0.006644 0.000000 0.000000 0.000000
# 2 -0.002436 0.010068 0.003182 0.000000 0.000000 0.000000
# 3 -0.006644 0.003182 0.015814 0.000000 0.000000 0.000000
# 4 0.000000 0.000000 0.000000 0.077741 0.000000 0.000000
# 5 0.000000 0.000000 0.000000 0.000000 0.228189 0.000000
# 6 0.000000 0.000000 0.000000 0.000000 0.000000 -0.010923
#
#
# Mechanical properties :
#
#
# Convention : Reuss Voigt Hill
#
# Bulk Modulus (GPa) = 45.97299 68.15377 57.06338
# Shear Modulus (GPa) = 14.38436 6.72424 10.55430
#
# Velocity S-wave (km/s) = 2.54459 1.73978 2.17965
# Velocity P-wave (km/s) = 5.41548 5.89189 5.65870
#
# Compressibility (1/GPa) = 0.02175190
#
# Stress axis : x y z
#
# Youngs Moduli (GPa) = 130.45362 99.32305 63.23695
#
# Poissons Ratio (x) = 0.24193 0.42013
# Poissons Ratio (y) = 0.31776 -0.20121
# Poissons Ratio (z) = 0.86670 -0.31603
#
# Static dielectric constant tensor:
#      x y z
#    x 1.807290 0.000000 0.000000 
#    y 0.000000 1.825160 0.000000 
#    z 0.000000 0.000000 1.821380 
# 
# From -- ./inp_files/65452.got.cif
#   From: 2010.05.17/outbox.cif.g08.bks.cpg/sg74_33_cif.got.tgz:65452.got - 2010.06.03 17:57:02.
