data_PCOD9539465
_publ_section_title
;
Structure prediction by ZEFSAII (Michael W. Deem and Ramdas Pophale) SiO2 
 PCOD9539465
Probable space group: I M M A
;
_chemical_formula_sum "Si O2"
_cell_formula_units_Z 116
_cell_length_a 24.164433
_cell_length_b 16.933450
_cell_length_c 15.674650
_cell_angle_alpha 90.000000
_cell_angle_beta 90.000000
_cell_angle_gamma 90.000000
_cell_volume 6413.866426
_symmetry_space_group_name_H-M "I M M A"
_symmetry_group_IT_number 74
_symmetry_cell_setting 'orthorhombic'
loop_
_space_group_symop_operation_xyz
x,y,z
-x,1/2-y,z
x,-y,-z
-x,1/2+y,-z
-x,-y,-z
x,1/2+y,-z
-x,y,z
x,1/2-y,z
1/2+x,1/2+y,1/2+z
1/2-x,-y,1/2+z
1/2+x,1/2-y,1/2-z
1/2-x,y,1/2-z
1/2-x,1/2-y,1/2-z
1/2+x,y,1/2-z
1/2-x,1/2+y,1/2+z
1/2+x,-y,1/2+z
loop_
_atom_site_type_symbol
_atom_site_label
_atom_site_fract_x
_atom_site_fract_y
_atom_site_fract_z
Si Si1 0.000000 0.750000 0.195244
Si Si2 0.647352 0.547828 0.919003
Si Si3 0.096532 0.615254 0.181691
Si Si4 0.768478 0.339241 0.512410
Si Si5 0.936095 0.659178 0.677006
Si Si6 0.562774 0.936065 0.650285
Si Si7 0.150426 0.908385 0.998196
Si Si8 0.196176 0.591708 0.307636
O O1 0.048834 0.679868 0.194071
O O2 0.601937 0.604472 0.879946
O O3 0.671330 0.487554 0.849471
O O4 0.624162 0.500000 0.000000
O O5 0.696833 0.599739 0.956713
O O6 0.075203 0.524029 0.186510
O O7 0.147005 0.626470 0.248751
O O8 0.120447 0.616869 0.085460
O O9 0.783903 0.250000 0.492248
O O10 0.704346 0.354737 0.492032
O O11 0.783305 0.356640 0.611633
O O12 0.918368 0.750000 0.674382
O O13 0.933782 0.625286 0.772557
O O14 0.000000 0.654735 0.649217
O O15 0.500000 0.936580 0.615422
O O16 0.606279 0.910520 0.578254
O O17 0.170408 0.000000 0.000000
O O18 0.250000 0.575888 0.250000
#
# Coordination Sequence:
#
# PCOD9539465 Si02
#       8
#     4  16  16  16  16  16  16  16
#     4  12  28  40  60 100 136 160 224 258 326 366
#     4  10  22  39  64  90 119 160 209 269 326 378
#     4  11  23  40  63  92 127 174 205 268 312 382
#     4  11  24  39  59  91 129 162 210 271 322 380
#     4  10  21  39  63  91 122 162 215 266 318 384
#     4  10  21  40  64  90 124 171 214 256 318 384
#     4  10  22  38  61  89 124 168 215 250 309 384
#     4  11  22  40  67  91 122 171 218 253 317 395
#
# _framework density 18.085815
#
# number of rings (size 3 to 8) (size 9 to 14) (size 15 to 20)
#    0.000    1.517    3.448    1.655    4.828    1.931 
#    0.000    0.000    1.517    2.483    0.000    0.000 
#    0.000    0.000    0.000    0.000    0.000    0.000 
#
# Total GULP energy -323173.353289 kJ/mol
# GULP energy per Si atom -5571.954367 kJ/mol
# Density = 1.804465 g / cm^3
# Si number density = 18.085815 Si / 1000 Ang^3
#
#
#
# Elastic Constant Matrix: (Units=GPa)
#
#
# Indices 1 2 3 4 5 6 
#
# 1 93.0260 47.3263 52.4977 0.0000 0.0000 0.0000
# 2 47.3263 92.8917 34.9086 0.0000 0.0000 0.0000
# 3 52.4977 34.9086 67.7504 0.0000 0.0000 0.0000
# 4 0.0000 0.0000 0.0000 5.1191 0.0000 0.0000
# 5 0.0000 0.0000 0.0000 0.0000 23.7594 0.0000
# 6 0.0000 0.0000 0.0000 0.0000 0.0000 26.3802
#
#
#
# Elastic Compliance Matrix: (Units=1/GPa)
#
#
# Indices 1 2 3 4 5 6 
#
# 1 0.021341 -0.005777 -0.013560 0.000000 0.000000 0.000000
# 2 -0.005777 0.014914 -0.003208 0.000000 0.000000 0.000000
# 3 -0.013560 -0.003208 0.026920 0.000000 0.000000 0.000000
# 4 0.000000 0.000000 0.000000 0.195347 0.000000 0.000000
# 5 0.000000 0.000000 0.000000 0.000000 0.042089 0.000000
# 6 0.000000 0.000000 0.000000 0.000000 0.000000 0.037907
#
#
# Mechanical properties :
#
#
# Convention : Reuss Voigt Hill
#
# Bulk Modulus (GPa) = 55.29348 58.12589 56.70968
# Shear Modulus (GPa) = 12.83249 18.98078 15.90663
#
# Velocity S-wave (km/s) = 2.66660 3.24309 2.96887
# Velocity P-wave (km/s) = 6.33405 6.79943 6.57086
#
# Compressibility (1/GPa) = 0.01808532
#
# Stress axis : x y z
#
# Youngs Moduli (GPa) = 46.85829 67.05077 37.14692
#
# Poissons Ratio (x) = 0.38735 0.50371
# Poissons Ratio (y) = 0.27070 0.11917
# Poissons Ratio (z) = 0.63539 0.21511
#
# Static dielectric constant tensor:
#      x y z
#    x 1.605820 0.000000 0.000000 
#    y 0.000000 1.615770 0.000000 
#    z 0.000000 0.000000 1.606880 
# 
# From -- ./inp_files/36713.got.cif
#   From: 2010.05.17/outbox.cif.g08.bks.cpg/sg74_19_cif.got.tgz:36713.got - 2010.06.03 17:57:02.
