data_PCOD9539068
_publ_section_title
;
Structure prediction by ZEFSAII (Michael W. Deem and Ramdas Pophale) SiO2 
 PCOD9539068
Probable space group: I M M A
;
_chemical_formula_sum "Si O2"
_cell_formula_units_Z 96
_cell_length_a 21.098493
_cell_length_b 7.833184
_cell_length_c 28.727211
_cell_angle_alpha 90.000000
_cell_angle_beta 90.000000
_cell_angle_gamma 90.000000
_cell_volume 4747.699560
_symmetry_space_group_name_H-M "I M M A"
_symmetry_group_IT_number 74
_symmetry_cell_setting 'orthorhombic'
loop_
_space_group_symop_operation_xyz
x,y,z
-x,1/2-y,z
x,-y,-z
-x,1/2+y,-z
-x,-y,-z
x,1/2+y,-z
-x,y,z
x,1/2-y,z
1/2+x,1/2+y,1/2+z
1/2-x,-y,1/2+z
1/2+x,1/2-y,1/2-z
1/2-x,y,1/2-z
1/2-x,1/2-y,1/2-z
1/2+x,y,1/2-z
1/2-x,1/2+y,1/2+z
1/2+x,-y,1/2+z
loop_
_atom_site_type_symbol
_atom_site_label
_atom_site_fract_x
_atom_site_fract_y
_atom_site_fract_z
Si Si1 0.928726 0.047548 0.775810
Si Si2 0.192269 0.959436 0.388681
Si Si3 0.428787 0.544415 0.053626
Si Si4 0.190808 0.459222 0.718417
Si Si5 0.928459 0.047224 0.119808
Si Si6 0.185872 0.047221 0.946008
O O1 0.932745 0.250000 0.767087
O O2 0.874561 0.980055 0.741859
O O3 0.000000 0.975669 0.770332
O O4 0.909498 0.025118 0.829741
O O5 0.192250 0.750000 0.389218
O O6 0.126933 0.016625 0.412753
O O7 0.196996 0.012450 0.335058
O O8 0.252376 0.019882 0.418672
O O9 0.500000 0.480649 0.064281
O O10 0.430353 0.750000 0.057104
O O11 0.414518 0.500000 0.000000
O O12 0.190320 0.250000 0.718865
O O13 0.250000 0.513083 0.750000
O O14 0.931218 0.250000 0.124993
O O15 0.000000 0.984367 0.109231
O O16 0.877797 0.006899 0.080400
O O17 0.188876 0.250000 0.943055
O O18 0.186270 0.000000 0.000000
#
# Coordination Sequence:
#
# PCOD9539068 Si02
#       6
#    16  16  16  16  16  16
#     4   9  17  30  51  78 104 132 168 209 252 298
#     4   9  18  31  49  75 104 135 171 210 252 297
#     4   9  17  30  49  72  99 131 166 204 246 293
#     4   9  16  27  46  72 100 129 163 204 247 290
#     4  10  21  37  56  77 103 135 169 207 254 309
#     4  11  22  36  55  77 103 135 172 215 259 305
#
# _framework density 20.220319
#
# number of rings (size 3 to 8) (size 9 to 14) (size 15 to 20)
#    0.000    2.500    0.000    2.500    0.000    4.667 
#    0.000    4.167    0.000    6.500    0.000    4.667 
#    0.000    0.000    0.000    0.000    0.000    0.000 
#
# Total GULP energy -267965.504417 kJ/mol
# GULP energy per Si atom -5582.614675 kJ/mol
# Density = 2.017430 g / cm^3
# Si number density = 20.220319 Si / 1000 Ang^3
#
#
#
# Elastic Constant Matrix: (Units=GPa)
#
#
# Indices 1 2 3 4 5 6 
#
# 1 120.5840 -0.3602 81.4482 0.0000 0.0000 0.0000
# 2 -0.3602 23.5573 -12.7023 0.0000 0.0000 0.0000
# 3 81.4482 -12.7023 99.4805 0.0000 0.0000 0.0000
# 4 0.0000 0.0000 0.0000 19.9332 0.0000 0.0000
# 5 0.0000 0.0000 0.0000 0.0000 43.1880 0.0000
# 6 0.0000 0.0000 0.0000 0.0000 0.0000 -7.7037
#
#
#
# Elastic Compliance Matrix: (Units=1/GPa)
#
#
# Indices 1 2 3 4 5 6 
#
# 1 0.020282 -0.009283 -0.017791 0.000000 0.000000 0.000000
# 2 -0.009283 0.049837 0.013964 0.000000 0.000000 0.000000
# 3 -0.017791 0.013964 0.026401 0.000000 0.000000 0.000000
# 4 0.000000 0.000000 0.000000 0.050168 0.000000 0.000000
# 5 0.000000 0.000000 0.000000 0.000000 0.023155 0.000000
# 6 0.000000 0.000000 0.000000 0.000000 0.000000 -0.129808
#
#
# Mechanical properties :
#
#
# Convention : Reuss Voigt Hill
#
# Bulk Modulus (GPa) = 14.22464 42.26593 28.24529
# Shear Modulus (GPa) = 55.74839 22.76591 39.25715
#
# Velocity S-wave (km/s) = 5.25646 3.35907 4.41099
# Velocity P-wave (km/s) = 6.62499 5.99938 6.31993
#
# Compressibility (1/GPa) = 0.07030054
#
# Stress axis : x y z
#
# Youngs Moduli (GPa) = 49.30432 20.06527 37.87675
#
# Poissons Ratio (x) = 0.18627 0.67387
# Poissons Ratio (y) = 0.45769 -0.52891
# Poissons Ratio (z) = 0.87718 -0.28019
#
# Static dielectric constant tensor:
#      x y z
#    x 1.740510 0.000000 0.000000 
#    y 0.000000 1.751230 0.000000 
#    z 0.000000 0.000000 1.648380 
# 
# From -- ./inp_files/64300.got.cif
#   From: 2010.05.17/outbox.cif.g08.bks.cpg/sg74_33_cif.got.tgz:64300.got - 2010.06.03 17:57:02.
