data_PCOD9539226
_publ_section_title
;
Structure prediction by ZEFSAII (Michael W. Deem and Ramdas Pophale) SiO2 
 PCOD9539226
Probable space group: I M M A
;
_chemical_formula_sum "Si O2"
_cell_formula_units_Z 112
_cell_length_a 17.374335
_cell_length_b 29.124441
_cell_length_c 11.518798
_cell_angle_alpha 90.000000
_cell_angle_beta 90.000000
_cell_angle_gamma 90.000000
_cell_volume 5828.716761
_symmetry_space_group_name_H-M "I M M A"
_symmetry_group_IT_number 74
_symmetry_cell_setting 'orthorhombic'
loop_
_space_group_symop_operation_xyz
x,y,z
-x,1/2-y,z
x,-y,-z
-x,1/2+y,-z
-x,-y,-z
x,1/2+y,-z
-x,y,z
x,1/2-y,z
1/2+x,1/2+y,1/2+z
1/2-x,-y,1/2+z
1/2+x,1/2-y,1/2-z
1/2-x,y,1/2-z
1/2-x,1/2-y,1/2-z
1/2+x,y,1/2-z
1/2-x,1/2+y,1/2+z
1/2+x,-y,1/2+z
loop_
_atom_site_type_symbol
_atom_site_label
_atom_site_fract_x
_atom_site_fract_y
_atom_site_fract_z
Si Si1 0.408616 0.302375 0.808867
Si Si2 0.324384 0.563239 0.905577
Si Si3 0.090258 0.353527 0.294241
Si Si4 0.805108 0.302128 0.461924
Si Si5 0.828338 0.538517 0.323563
Si Si6 0.819958 0.619669 0.930963
Si Si7 0.590172 0.892219 0.337920
O O1 0.500000 0.306476 0.835957
O O2 0.395844 0.250000 0.765245
O O3 0.389099 0.343024 0.720039
O O4 0.358192 0.308228 0.924344
O O5 0.385359 0.601683 0.868682
O O6 0.341905 0.515627 0.841649
O O7 0.238415 0.581750 0.879753
O O8 0.324159 0.557112 0.044897
O O9 0.141231 0.313478 0.351479
O O10 0.119609 0.364148 0.165090
O O11 0.000000 0.344568 0.299809
O O12 0.777523 0.250000 0.458464
O O13 0.735679 0.337930 0.462375
O O14 0.750000 0.544844 0.250000
O O15 0.890808 0.567535 0.252856
O O16 0.861699 0.601705 0.045212
O O17 0.500000 0.891469 0.364278
#
# Coordination Sequence:
#
# PCOD9539226 Si02
#       7
#    16  16  16  16  16  16  16
#     4   9  19  36  58  87 124 161 198 248 310 367
#     4  10  22  39  64  86 115 160 201 250 300 359
#     4  11  23  39  59  84 119 160 201 250 307 363
#     4  10  21  37  62  90 115 153 208 262 303 357
#     4  11  21  38  63  91 119 151 200 250 302 357
#     4  11  22  40  59  84 123 161 203 248 306 371
#     4  11  23  38  60  91 126 162 201 250 308 367
#
# _framework density 19.215206999999999
#
# number of rings (size 3 to 8) (size 9 to 14) (size 15 to 20)
#    0.000    1.571    1.429    5.143    0.000    4.857 
#    0.000    2.857    0.000    5.143    0.000    0.000 
#    0.000    0.000    0.000    0.000    0.000    0.000 
#
# Total GULP energy -312846.897034 kJ/mol
# GULP energy per Si atom -5586.551733 kJ/mol
# Density = 1.917147 g / cm^3
# Si number density = 19.215207 Si / 1000 Ang^3
#
#
#
# Elastic Constant Matrix: (Units=GPa)
#
#
# Indices 1 2 3 4 5 6 
#
# 1 51.8597 22.1176 24.9536 0.0001 0.0000 0.0001
# 2 22.1176 89.4696 29.3584 -0.0002 0.0000 -0.0001
# 3 24.9536 29.3584 84.0689 -0.0002 -0.0001 -0.0003
# 4 0.0001 -0.0002 -0.0002 16.5501 -0.0001 -0.0003
# 5 0.0000 0.0000 -0.0001 -0.0001 33.0270 0.0000
# 6 0.0001 -0.0001 -0.0003 -0.0003 0.0000 3.5561
#
#
#
# Elastic Compliance Matrix: (Units=1/GPa)
#
#
# Indices 1 2 3 4 5 6 
#
# 1 0.023705 -0.004011 -0.005636 0.000000 0.000000 -0.000001
# 2 -0.004011 0.013302 -0.003455 0.000000 0.000000 0.000000
# 3 -0.005636 -0.003455 0.014774 0.000000 0.000000 0.000001
# 4 0.000000 0.000000 0.000000 0.060423 0.000000 0.000005
# 5 0.000000 0.000000 0.000000 0.000000 0.030278 0.000000
# 6 -0.000001 0.000000 0.000001 0.000005 0.000000 0.281207
#
#
# Mechanical properties :
#
#
# Convention : Reuss Voigt Hill
#
# Bulk Modulus (GPa) = 39.09458 42.02861 40.56159
# Shear Modulus (GPa) = 10.90708 20.55788 15.73248
#
# Velocity S-wave (km/s) = 2.38508 3.27444 2.86449
# Velocity P-wave (km/s) = 5.28910 6.01798 5.66527
#
# Compressibility (1/GPa) = 0.02557900
#
# Stress axis : x y z
#
# Youngs Moduli (GPa) = 42.18510 75.17580 67.68530
#
# Poissons Ratio (x) = 0.30152 0.38144
# Poissons Ratio (y) = 0.16920 0.23384
# Poissons Ratio (z) = 0.23774 0.25972
#
# Static dielectric constant tensor:
#      x y z
#    x 1.640280 0.000000 0.000000 
#    y 0.000000 1.671830 0.000000 
#    z 0.000000 0.000000 1.658280 
# 
# From -- ./inp_files/21100.got.cif
#   From: 2010.05.17/outbox.cif.g08.bks.cpg/sg74_11_cif.got.tgz:21100.got - 2010.06.03 17:57:02.
