data_PCOD9539355
_publ_section_title
;
Structure prediction by ZEFSAII (Michael W. Deem and Ramdas Pophale) SiO2 
 PCOD9539355
Probable space group: I M M A
;
_chemical_formula_sum "Si O2"
_cell_formula_units_Z 116
_cell_length_a 9.810205
_cell_length_b 22.080439
_cell_length_c 25.329361
_cell_angle_alpha 90.000000
_cell_angle_beta 90.000000
_cell_angle_gamma 90.000000
_cell_volume 5486.684910
_symmetry_space_group_name_H-M "I M M A"
_symmetry_group_IT_number 74
_symmetry_cell_setting 'orthorhombic'
loop_
_space_group_symop_operation_xyz
x,y,z
-x,1/2-y,z
x,-y,-z
-x,1/2+y,-z
-x,-y,-z
x,1/2+y,-z
-x,y,z
x,1/2-y,z
1/2+x,1/2+y,1/2+z
1/2-x,-y,1/2+z
1/2+x,1/2-y,1/2-z
1/2-x,y,1/2-z
1/2-x,1/2-y,1/2-z
1/2+x,y,1/2-z
1/2-x,1/2+y,1/2+z
1/2+x,-y,1/2+z
loop_
_atom_site_type_symbol
_atom_site_label
_atom_site_fract_x
_atom_site_fract_y
_atom_site_fract_z
Si Si1 0.645589 0.323258 0.483997
Si Si2 0.655088 0.519337 0.655182
Si Si3 0.159449 0.850179 0.800045
Si Si4 0.847792 0.678264 0.601446
Si Si5 0.157463 0.507847 0.439720
Si Si6 0.500000 0.750000 0.078601
Si Si7 0.772289 0.145069 0.587737
Si Si8 0.660840 0.885936 0.300599
O O1 0.500000 0.342176 0.460111
O O2 0.648827 0.250000 0.483362
O O3 0.774821 0.346395 0.450988
O O4 0.657936 0.345099 0.543497
O O5 0.500000 0.514980 0.634745
O O6 0.662258 0.577068 0.693094
O O7 0.755482 0.525180 0.605571
O O8 0.682299 0.457360 0.686554
O O9 0.250000 0.831621 0.750000
O O10 0.240201 0.828055 0.851470
O O11 0.000000 0.831366 0.797258
O O12 0.863178 0.750000 0.592698
O O13 0.000000 0.653902 0.612134
O O14 0.207549 0.500000 0.500000
O O15 0.167448 0.578494 0.423451
O O16 0.000000 0.488299 0.438304
O O17 0.382137 0.697028 0.079135
O O18 0.712239 0.146951 0.646561
O O19 0.500000 0.876011 0.291718
O O20 0.750000 0.868822 0.250000
#
# Coordination Sequence:
#
# PCOD9539355 Si02
#       8
#    16  16  16  16  16   4  16  16
#     4  10  21  38  62  88 122 163 205 253 310 376
#     4   9  21  40  60  90 123 161 206 252 314 380
#     4  11  23  40  62  90 124 160 206 256 312 372
#     4  10  23  40  61  88 120 161 210 259 314 374
#     4  10  22  38  59  92 127 163 206 256 311 370
#     4  12  24  40  66  96 126 176 216 266 310 390
#     4  11  23  40  64  91 131 167 213 259 321 373
#     4  10  22  41  67  93 125 164 211 264 320 387
#
# _framework density 21.142092000000002
#
# number of rings (size 3 to 8) (size 9 to 14) (size 15 to 20)
#    0.000    1.793    1.379    1.655    3.862    3.586 
#    0.000    0.345    0.000    0.000    0.000    0.000 
#    0.000    0.000    0.000    0.000    0.000    0.000 
#
# Total GULP energy -323485.574940 kJ/mol
# GULP energy per Si atom -5577.337499 kJ/mol
# Density = 2.109397 g / cm^3
# Si number density = 21.142092 Si / 1000 Ang^3
#
#
#
# Elastic Constant Matrix: (Units=GPa)
#
#
# Indices 1 2 3 4 5 6 
#
# 1 151.2772 4.4458 73.3369 0.0000 0.0000 0.0000
# 2 4.4458 46.3652 -7.8136 0.0000 0.0000 0.0000
# 3 73.3369 -7.8136 137.8322 0.0000 0.0000 0.0000
# 4 0.0000 0.0000 0.0000 6.9701 0.0000 0.0000
# 5 0.0000 0.0000 0.0000 0.0000 3.1891 0.0000
# 6 0.0000 0.0000 0.0000 0.0000 0.0000 70.3239
#
#
#
# Elastic Compliance Matrix: (Units=1/GPa)
#
#
# Indices 1 2 3 4 5 6 
#
# 1 0.009038 -0.001693 -0.004905 0.000000 0.000000 0.000000
# 2 -0.001693 0.022093 0.002153 0.000000 0.000000 0.000000
# 3 -0.004905 0.002153 0.009987 0.000000 0.000000 0.000000
# 4 0.000000 0.000000 0.000000 0.143470 0.000000 0.000000
# 5 0.000000 0.000000 0.000000 0.000000 0.313564 0.000000
# 6 0.000000 0.000000 0.000000 0.000000 0.000000 0.014220
#
#
# Mechanical properties :
#
#
# Convention : Reuss Voigt Hill
#
# Bulk Modulus (GPa) = 31.02822 52.82365 41.92594
# Shear Modulus (GPa) = 9.39843 33.79699 21.59771
#
# Velocity S-wave (km/s) = 2.11069 4.00254 3.19964
# Velocity P-wave (km/s) = 4.54400 6.81174 5.78998
#
# Compressibility (1/GPa) = 0.03222872
#
# Stress axis : x y z
#
# Youngs Moduli (GPa) = 110.64481 45.26290 100.13011
#
# Poissons Ratio (x) = 0.07664 0.49112
# Poissons Ratio (y) = 0.18734 -0.21562
# Poissons Ratio (z) = 0.54269 -0.09747
#
# Static dielectric constant tensor:
#      x y z
#    x 1.784170 0.000000 0.000000 
#    y 0.000000 1.781270 0.000000 
#    z 0.000000 0.000000 1.740250 
# 
# From -- ./inp_files/64866.got.cif
#   From: 2010.05.17/outbox.cif.g08.bks.cpg/sg74_33_cif.got.tgz:64866.got - 2010.06.03 17:57:02.
