data_PCOD9539742
_publ_section_title
;
Structure prediction by ZEFSAII (Michael W. Deem and Ramdas Pophale) SiO2 
 PCOD9539742
Probable space group: I M M A
;
_chemical_formula_sum "Si O2"
_cell_formula_units_Z 116
_cell_length_a 24.316864
_cell_length_b 25.127357
_cell_length_c 9.573860
_cell_angle_alpha 90.000000
_cell_angle_beta 90.000000
_cell_angle_gamma 90.000000
_cell_volume 5849.805795
_symmetry_space_group_name_H-M "I M M A"
_symmetry_group_IT_number 74
_symmetry_cell_setting 'orthorhombic'
loop_
_space_group_symop_operation_xyz
x,y,z
-x,1/2-y,z
x,-y,-z
-x,1/2+y,-z
-x,-y,-z
x,1/2+y,-z
-x,y,z
x,1/2-y,z
1/2+x,1/2+y,1/2+z
1/2-x,-y,1/2+z
1/2+x,1/2-y,1/2-z
1/2-x,y,1/2-z
1/2-x,1/2-y,1/2-z
1/2+x,y,1/2-z
1/2-x,1/2+y,1/2+z
1/2+x,-y,1/2+z
loop_
_atom_site_type_symbol
_atom_site_label
_atom_site_fract_x
_atom_site_fract_y
_atom_site_fract_z
Si Si1 0.437462 0.066242 0.875446
Si Si2 0.597988 0.835581 0.772813
Si Si3 0.592589 0.451704 0.188934
Si Si4 0.696871 0.000498 0.331890
Si Si5 0.806361 0.813678 0.507019
Si Si6 0.161141 0.118370 0.756220
Si Si7 0.500000 0.750000 0.803442
Si Si8 0.181839 0.811553 0.974888
O O1 0.500000 0.082653 0.905071
O O2 0.402281 0.107591 0.786295
O O3 0.438738 0.008083 0.802382
O O4 0.405132 0.057804 0.021389
O O5 0.573365 0.894843 0.756077
O O6 0.643111 0.832537 0.897291
O O7 0.548621 0.795770 0.800007
O O8 0.635733 0.819786 0.641571
O O9 0.647748 0.463389 0.274378
O O10 0.750000 0.020138 0.250000
O O11 0.685459 0.940512 0.278164
O O12 0.701574 0.000000 0.500000
O O13 0.812544 0.750000 0.482305
O O14 0.809903 0.847988 0.365696
O O15 0.745235 0.821858 0.570650
O O16 0.167897 0.150368 0.897627
O O17 0.180467 0.750000 0.020621
#
# Coordination Sequence:
#
# PCOD9539742 Si02
#       8
#    16  16  16  16  16  16   4  16
#     4  10  22  42  65  96 126 173 229 275 333 409
#     4  12  24  43  66  97 131 175 223 276 343 399
#     4  10  22  38  67  92 129 166 224 273 331 395
#     4  11  25  40  64 100 143 179 219 274 342 411
#     4  11  22  41  67  98 128 172 225 281 338 400
#     4  11  23  41  65  98 136 170 226 277 340 400
#     4  12  28  44  66  96 138 176 230 286 322 408
#     4  11  23  42  65  94 136 177 220 274 341 419
#
# _framework density 19.829718
#
# number of rings (size 3 to 8) (size 9 to 14) (size 15 to 20)
#    0.000    1.103    2.759    3.724    5.793    4.414 
#    1.241    0.000    0.000    5.379    0.000    0.000 
#    0.000    0.000    0.000    0.000    0.000    0.000 
#
# Total GULP energy -323184.282251 kJ/mol
# GULP energy per Si atom -5572.142797 kJ/mol
# Density = 1.978458 g / cm^3
# Si number density = 19.829718 Si / 1000 Ang^3
#
#
#
# Elastic Constant Matrix: (Units=GPa)
#
#
# Indices 1 2 3 4 5 6 
#
# 1 109.2209 17.7581 48.3419 0.0000 0.0000 0.0000
# 2 17.7581 81.4924 -5.3903 0.0000 0.0000 0.0000
# 3 48.3419 -5.3903 58.2490 0.0000 0.0000 0.0000
# 4 0.0000 0.0000 0.0000 -326.6608 0.0000 0.0000
# 5 0.0000 0.0000 0.0000 0.0000 57.3125 0.0000
# 6 0.0000 0.0000 0.0000 0.0000 0.0000 24.0151
#
#
#
# Elastic Compliance Matrix: (Units=1/GPa)
#
#
# Indices 1 2 3 4 5 6 
#
# 1 0.015873 -0.004357 -0.013577 0.000000 0.000000 0.000000
# 2 -0.004357 0.013543 0.004869 0.000000 0.000000 0.000000
# 3 -0.013577 0.004869 0.028886 0.000000 0.000000 0.000000
# 4 0.000000 0.000000 0.000000 -0.003061 0.000000 0.000000
# 5 0.000000 0.000000 0.000000 0.000000 0.017448 0.000000
# 6 0.000000 0.000000 0.000000 0.000000 0.000000 0.041640
#
#
# Mechanical properties :
#
#
# Convention : Reuss Voigt Hill
#
# Bulk Modulus (GPa) = 31.08233 41.15354 36.11793
# Shear Modulus (GPa) = 33.07258 -36.51646 -1.72194
#
# Velocity S-wave (km/s) = 4.08834 -4.29593 -0.93287
# Velocity P-wave (km/s) = 6.16398 1.95145 4.13440
#
# Compressibility (1/GPa) = 0.03217262
#
# Stress axis : x y z
#
# Youngs Moduli (GPa) = 62.99870 73.84103 34.61895
#
# Poissons Ratio (x) = 0.32173 0.47001
# Poissons Ratio (y) = 0.27449 -0.16857
# Poissons Ratio (z) = 0.85532 -0.35955
#
# Static dielectric constant tensor:
#      x y z
#    x 1.722420 0.000000 0.000000 
#    y 0.000000 2.100680 0.000000 
#    z 0.000000 0.000000 1.695480 
# 
# From -- ./inp_files/14201.got.cif
#   From: 2010.05.17/outbox.cif.g08.bks.cpg/sg74_8_cif.got.tgz:14201.got - 2010.06.03 17:57:02.
