data_PCOD9539837
_publ_section_title
;
Structure prediction by ZEFSAII (Michael W. Deem and Ramdas Pophale) SiO2 
 PCOD9539837
Probable space group: I M M A
;
_chemical_formula_sum "Si O2"
_cell_formula_units_Z 104
_cell_length_a 22.496064
_cell_length_b 8.569759
_cell_length_c 27.920388
_cell_angle_alpha 90.000000
_cell_angle_beta 90.000000
_cell_angle_gamma 90.000000
_cell_volume 5382.655647
_symmetry_space_group_name_H-M "I M M A"
_symmetry_group_IT_number 74
_symmetry_cell_setting 'orthorhombic'
loop_
_space_group_symop_operation_xyz
x,y,z
-x,1/2-y,z
x,-y,-z
-x,1/2+y,-z
-x,-y,-z
x,1/2+y,-z
-x,y,z
x,1/2-y,z
1/2+x,1/2+y,1/2+z
1/2-x,-y,1/2+z
1/2+x,1/2-y,1/2-z
1/2-x,y,1/2-z
1/2-x,1/2-y,1/2-z
1/2+x,y,1/2-z
1/2-x,1/2+y,1/2+z
1/2+x,-y,1/2+z
loop_
_atom_site_type_symbol
_atom_site_label
_atom_site_fract_x
_atom_site_fract_y
_atom_site_fract_z
Si Si1 0.319535 0.063123 0.874007
Si Si2 0.396921 0.430260 0.717508
Si Si3 0.500000 0.935684 0.552716
Si Si4 0.606311 0.561490 0.385886
Si Si5 0.778102 0.437542 0.946219
Si Si6 0.223919 0.423015 0.197684
Si Si7 0.431357 0.436481 0.179010
O O1 0.316972 0.250000 0.868934
O O2 0.287005 0.022346 0.924289
O O3 0.276081 0.982767 0.835766
O O4 0.385370 0.008482 0.859305
O O5 0.413621 0.250000 0.724022
O O6 0.418686 0.493053 0.666136
O O7 0.327287 0.450062 0.705090
O O8 0.412987 0.516272 0.766579
O O9 0.500000 0.750000 0.554492
O O10 0.500000 0.000000 0.500000
O O11 0.441640 0.003581 0.577127
O O12 0.608201 0.750000 0.382706
O O13 0.670859 0.511705 0.407557
O O14 0.782068 0.250000 0.948469
O O15 0.787329 0.500000 0.000000
O O16 0.201482 0.250000 0.182511
O O17 0.250000 0.404848 0.250000
O O18 0.500000 0.484510 0.171449
O O19 0.427512 0.250000 0.175562
#
# Coordination Sequence:
#
# PCOD9539837 Si02
#       7
#    16  16   8  16  16  16  16
#     4  11  22  39  62  88 119 155 201 248 297 359
#     4  11  22  37  59  85 118 157 197 240 289 347
#     4  12  26  42  60  82 110 156 210 256 305 350
#     4  10  22  41  60  85 120 157 201 249 298 352
#     4  10  22  40  62  91 120 149 191 246 304 361
#     4  11  21  33  54  86 120 153 190 232 286 342
#     4  11  25  42  59  86 124 161 201 248 298 360
#
# _framework density 19.321318000000002
#
# number of rings (size 3 to 8) (size 9 to 14) (size 15 to 20)
#    0.000    1.231    3.077    3.000    1.077    6.154 
#    0.000    0.000    0.000    0.462    0.000    0.000 
#    0.000    0.000    0.000    0.000    0.000    0.000 
#
# Total GULP energy -289960.502399 kJ/mol
# GULP energy per Si atom -5576.163508 kJ/mol
# Density = 1.927734 g / cm^3
# Si number density = 19.321318 Si / 1000 Ang^3
#
#
#
# Elastic Constant Matrix: (Units=GPa)
#
#
# Indices 1 2 3 4 5 6 
#
# 1 106.0549 16.8120 30.8780 0.0000 0.0000 0.0000
# 2 16.8120 34.0351 18.7678 0.0000 0.0000 0.0000
# 3 30.8780 18.7678 69.0813 0.0000 0.0000 0.0000
# 4 0.0000 0.0000 0.0000 42.9552 0.0000 0.0000
# 5 0.0000 0.0000 0.0000 0.0000 34.3367 0.0000
# 6 0.0000 0.0000 0.0000 0.0000 0.0000 31.8923
#
#
#
# Elastic Compliance Matrix: (Units=1/GPa)
#
#
# Indices 1 2 3 4 5 6 
#
# 1 0.011136 -0.003242 -0.004097 0.000000 0.000000 0.000000
# 2 -0.003242 0.035502 -0.008196 0.000000 0.000000 0.000000
# 3 -0.004097 -0.008196 0.018534 0.000000 0.000000 0.000000
# 4 0.000000 0.000000 0.000000 0.023280 0.000000 0.000000
# 5 0.000000 0.000000 0.000000 0.000000 0.029123 0.000000
# 6 0.000000 0.000000 0.000000 0.000000 0.000000 0.031356
#
#
# Mechanical properties :
#
#
# Convention : Reuss Voigt Hill
#
# Bulk Modulus (GPa) = 29.32345 38.00967 33.66656
# Shear Modulus (GPa) = 26.12779 31.35107 28.73943
#
# Velocity S-wave (km/s) = 3.68132 4.03254 3.86093
# Velocity P-wave (km/s) = 5.76881 6.43405 6.11049
#
# Compressibility (1/GPa) = 0.03410240
#
# Stress axis : x y z
#
# Youngs Moduli (GPa) = 89.80110 28.16726 53.95600
#
# Poissons Ratio (x) = 0.09130 0.22105
# Poissons Ratio (y) = 0.29109 0.44224
# Poissons Ratio (z) = 0.36790 0.23087
#
# Static dielectric constant tensor:
#      x y z
#    x 1.633730 0.000000 0.000000 
#    y 0.000000 1.707450 0.000000 
#    z 0.000000 0.000000 1.533270 
# 
# From -- ./inp_files/68252.got.cif
#   From: 2010.05.17/outbox.cif.g08.bks.cpg/sg74_35_cif.got.tgz:68252.got - 2010.06.03 17:57:02.
