data_PCOD9539998
_publ_section_title
;
Structure prediction by ZEFSAII (Michael W. Deem and Ramdas Pophale) SiO2 
 PCOD9539998
Probable space group: I M M A
;
_chemical_formula_sum "Si O2"
_cell_formula_units_Z 72
_cell_length_a 17.576520
_cell_length_b 23.649215
_cell_length_c 8.335311
_cell_angle_alpha 90.000000
_cell_angle_beta 90.000000
_cell_angle_gamma 90.000000
_cell_volume 3464.746229
_symmetry_space_group_name_H-M "I M M A"
_symmetry_group_IT_number 74
_symmetry_cell_setting 'orthorhombic'
loop_
_space_group_symop_operation_xyz
x,y,z
-x,1/2-y,z
x,-y,-z
-x,1/2+y,-z
-x,-y,-z
x,1/2+y,-z
-x,y,z
x,1/2-y,z
1/2+x,1/2+y,1/2+z
1/2-x,-y,1/2+z
1/2+x,1/2-y,1/2-z
1/2-x,y,1/2-z
1/2-x,1/2-y,1/2-z
1/2+x,y,1/2-z
1/2-x,1/2+y,1/2+z
1/2+x,-y,1/2+z
loop_
_atom_site_type_symbol
_atom_site_label
_atom_site_fract_x
_atom_site_fract_y
_atom_site_fract_z
Si Si1 0.585359 0.957375 0.850677
Si Si2 0.189348 0.896039 0.139419
Si Si3 0.196045 0.351372 0.395178
Si Si4 0.113587 0.500000 0.000000
Si Si5 0.909925 0.812811 0.350504
O O1 0.500000 0.931810 0.873016
O O2 0.652969 0.910900 0.854938
O O3 0.581174 0.990880 0.680825
O O4 0.597559 0.000000 0.000000
O O5 0.250000 0.928944 0.250000
O O6 0.127719 0.861683 0.241277
O O7 0.243758 0.855070 0.040626
O O8 0.155435 0.940923 0.020301
O O9 0.250000 0.332680 0.250000
O O10 0.127858 0.315840 0.473265
O O11 0.894509 0.750000 0.283128
O O12 0.000000 0.820922 0.357821
#
# Coordination Sequence:
#
# PCOD9539998 Si02
#       5
#    16  16  16   8  16
#     4  11  24  39  60  92 136 182 227 273 330 404
#     4  10  23  38  65  97 130 171 218 275 325 401
#     4  11  22  39  62  95 127 169 211 278 331 398
#     4  12  23  38  66  96 141 182 230 268 339 404
#     4  10  23  46  71  93 126 172 223 280 344 405
#
# _framework density 20.780743999999999
#
# number of rings (size 3 to 8) (size 9 to 14) (size 15 to 20)
#    0.000    1.333    2.222    3.667    4.667    8.000 
#    0.000    0.000    0.000    2.667    0.000    0.000 
#    0.000    0.000    0.000    0.000    0.000    0.000 
#
# Total GULP energy -200415.553411 kJ/mol
# GULP energy per Si atom -5567.098706 kJ/mol
# Density = 2.073345 g / cm^3
# Si number density = 20.780744 Si / 1000 Ang^3
#
#
#
# Elastic Constant Matrix: (Units=GPa)
#
#
# Indices 1 2 3 4 5 6 
#
# 1 116.4821 40.2935 40.0803 0.0000 0.0000 0.0000
# 2 40.2935 71.7366 21.1987 0.0000 0.0000 0.0000
# 3 40.0803 21.1987 115.9066 0.0000 0.0000 0.0000
# 4 0.0000 0.0000 0.0000 19.9114 0.0000 0.0000
# 5 0.0000 0.0000 0.0000 0.0000 -226.7870 0.0000
# 6 0.0000 0.0000 0.0000 0.0000 0.0000 -1.3017
#
#
#
# Elastic Compliance Matrix: (Units=1/GPa)
#
#
# Indices 1 2 3 4 5 6 
#
# 1 0.011546 -0.005609 -0.002967 0.000000 0.000000 0.000000
# 2 -0.005609 0.017461 -0.001254 0.000000 0.000000 0.000000
# 3 -0.002967 -0.001254 0.009883 0.000000 0.000000 0.000000
# 4 0.000000 0.000000 0.000000 0.050222 0.000000 0.000000
# 5 0.000000 0.000000 0.000000 0.000000 -0.004409 0.000000
# 6 0.000000 0.000000 0.000000 0.000000 0.000000 -0.768209
#
#
# Mechanical properties :
#
#
# Convention : Reuss Voigt Hill
#
# Bulk Modulus (GPa) = 51.99985 56.36337 54.18161
# Shear Modulus (GPa) = -7.60529 -28.13194 -17.86861
#
# Velocity S-wave (km/s) = -1.91513 -3.68333 -2.93552
# Velocity P-wave (km/s) = 4.49301 3.01539 3.82621
#
# Compressibility (1/GPa) = 0.01923082
#
# Stress axis : x y z
#
# Youngs Moduli (GPa) = 86.61043 57.27152 101.18479
#
# Poissons Ratio (x) = 0.32121 0.30020
# Poissons Ratio (y) = 0.48575 0.12689
# Poissons Ratio (z) = 0.25696 0.07182
#
# Static dielectric constant tensor:
#      x y z
#    x 1.786110 0.000000 0.000000 
#    y 0.000000 1.760460 0.000000 
#    z 0.000000 0.000000 2.045940 
# 
# From -- ./inp_files/10668.got.cif
#   From: 2010.05.17/outbox.cif.g08.bks.cpg/sg74_6_cif.got.tgz:10668.got - 2010.06.03 17:57:02.
