data_PCOD9539211
_publ_section_title
;
Structure prediction by ZEFSAII (Michael W. Deem and Ramdas Pophale) SiO2 
 PCOD9539211
Probable space group: I M M A
;
_chemical_formula_sum "Si O2"
_cell_formula_units_Z 92
_cell_length_a 15.591053
_cell_length_b 14.382115
_cell_length_c 20.510478
_cell_angle_alpha 90.000000
_cell_angle_beta 90.000000
_cell_angle_gamma 90.000000
_cell_volume 4599.112009
_symmetry_space_group_name_H-M "I M M A"
_symmetry_group_IT_number 74
_symmetry_cell_setting 'orthorhombic'
loop_
_space_group_symop_operation_xyz
x,y,z
-x,1/2-y,z
x,-y,-z
-x,1/2+y,-z
-x,-y,-z
x,1/2+y,-z
-x,y,z
x,1/2-y,z
1/2+x,1/2+y,1/2+z
1/2-x,-y,1/2+z
1/2+x,1/2-y,1/2-z
1/2-x,y,1/2-z
1/2-x,1/2-y,1/2-z
1/2+x,y,1/2-z
1/2-x,1/2+y,1/2+z
1/2+x,-y,1/2+z
loop_
_atom_site_type_symbol
_atom_site_label
_atom_site_fract_x
_atom_site_fract_y
_atom_site_fract_z
Si Si1 0.250000 0.750000 0.250000
Si Si2 0.099988 0.861724 0.075321
Si Si3 0.275752 0.640305 0.902676
Si Si4 0.409035 0.854757 0.641129
Si Si5 0.230723 0.500000 0.000000
Si Si6 0.902151 0.390285 0.768865
Si Si7 0.403969 0.597032 0.787403
O O1 0.174777 0.829145 0.257151
O O2 0.118542 0.750000 0.069063
O O3 0.105846 0.887220 0.152211
O O4 0.000000 0.875132 0.054719
O O5 0.167159 0.926182 0.036718
O O6 0.276826 0.750000 0.920226
O O7 0.178650 0.608056 0.885925
O O8 0.334216 0.627010 0.839383
O O9 0.294160 0.566413 0.958468
O O10 0.500000 0.903346 0.626796
O O11 0.414284 0.750000 0.615170
O O12 0.399802 0.849740 0.718846
O O13 0.893877 0.491576 0.737232
O O14 0.000000 0.358540 0.755282
O O15 0.500000 0.610034 0.814448
#
# Coordination Sequence:
#
# PCOD9539211 Si02
#       7
#     4  16  16  16   8  16  16
#     4  12  22  32  64  90 126 172 186 244 306 362
#     4  10  21  39  59  83 120 161 203 249 298 362
#     4  11  24  40  59  86 118 156 200 250 293 358
#     4   9  18  33  56  88 123 149 175 223 293 365
#     4  12  25  38  57  80 114 156 214 258 302 350
#     4  10  22  38  58  92 125 156 198 241 298 375
#     4  10  21  37  61  89 118 150 189 239 300 365
#
# _framework density 20.003862000000002
#
# number of rings (size 3 to 8) (size 9 to 14) (size 15 to 20)
#    0.000    1.739    0.870    3.130    4.870    5.217 
#    0.000    2.174    0.000    0.000    0.000    0.000 
#    0.000    0.000    0.000    0.000    0.000    0.000 
#
# Total GULP energy -256078.052357 kJ/mol
# GULP energy per Si atom -5566.914182 kJ/mol
# Density = 1.995833 g / cm^3
# Si number density = 20.003862 Si / 1000 Ang^3
#
#
#
# Elastic Constant Matrix: (Units=GPa)
#
#
# Indices 1 2 3 4 5 6 
#
# 1 69.6013 30.3337 6.9901 0.0000 0.0000 0.0000
# 2 30.3337 113.8275 20.4741 0.0000 0.0000 0.0000
# 3 6.9901 20.4741 38.6192 0.0000 0.0000 0.0000
# 4 0.0000 0.0000 0.0000 -3.3177 0.0000 0.0000
# 5 0.0000 0.0000 0.0000 0.0000 -18.2083 0.0000
# 6 0.0000 0.0000 0.0000 0.0000 0.0000 29.6068
#
#
#
# Elastic Compliance Matrix: (Units=1/GPa)
#
#
# Indices 1 2 3 4 5 6 
#
# 1 0.016273 -0.004208 -0.000715 0.000000 0.000000 0.000000
# 2 -0.004208 0.010799 -0.004964 0.000000 0.000000 0.000000
# 3 -0.000715 -0.004964 0.028655 0.000000 0.000000 0.000000
# 4 0.000000 0.000000 0.000000 -0.301409 0.000000 0.000000
# 5 0.000000 0.000000 0.000000 0.000000 -0.054920 0.000000
# 6 0.000000 0.000000 0.000000 0.000000 0.000000 0.033776
#
#
# Mechanical properties :
#
#
# Convention : Reuss Voigt Hill
#
# Bulk Modulus (GPa) = 27.81275 37.51598 32.66437
# Shear Modulus (GPa) = -21.27043 12.56615 -4.35214
#
# Velocity S-wave (km/s) = -3.26439 2.50908 -1.47661
# Velocity P-wave (km/s) = 0.52388 5.21432 3.66842
#
# Compressibility (1/GPa) = 0.03595473
#
# Stress axis : x y z
#
# Youngs Moduli (GPa) = 61.45037 92.59728 34.89831
#
# Poissons Ratio (x) = 0.38966 0.02494
# Poissons Ratio (y) = 0.25859 0.17322
# Poissons Ratio (z) = 0.04391 0.45962
#
# Static dielectric constant tensor:
#      x y z
#    x 1.711030 0.000000 0.000000 
#    y 0.000000 1.875480 0.000000 
#    z 0.000000 0.000000 1.733510 
# 
# From -- ./inp_files/51956.got.cif
#   From: 2010.05.17/outbox.cif.g08.bks.cpg/sg74_26_cif.got.tgz:51956.got - 2010.06.03 17:57:02.
