data_PCOD9539820
_publ_section_title
;
Structure prediction by ZEFSAII (Michael W. Deem and Ramdas Pophale) SiO2 
 PCOD9539820
Probable space group: I M M A
;
_chemical_formula_sum "Si O2"
_cell_formula_units_Z 64
_cell_length_a 21.154526
_cell_length_b 8.578875
_cell_length_c 18.331523
_cell_angle_alpha 90.000000
_cell_angle_beta 90.000000
_cell_angle_gamma 90.000000
_cell_volume 3326.842085
_symmetry_space_group_name_H-M "I M M A"
_symmetry_group_IT_number 74
_symmetry_cell_setting 'orthorhombic'
loop_
_space_group_symop_operation_xyz
x,y,z
-x,1/2-y,z
x,-y,-z
-x,1/2+y,-z
-x,-y,-z
x,1/2+y,-z
-x,y,z
x,1/2-y,z
1/2+x,1/2+y,1/2+z
1/2-x,-y,1/2+z
1/2+x,1/2-y,1/2-z
1/2-x,y,1/2-z
1/2-x,1/2-y,1/2-z
1/2+x,y,1/2-z
1/2-x,1/2+y,1/2+z
1/2+x,-y,1/2+z
loop_
_atom_site_type_symbol
_atom_site_label
_atom_site_fract_x
_atom_site_fract_y
_atom_site_fract_z
Si Si1 0.500000 0.060231 0.166883
Si Si2 0.500000 0.437425 0.335554
Si Si3 0.126027 0.562969 0.582060
Si Si4 0.751527 0.938310 0.334585
Si Si5 0.376745 0.437260 0.582168
O O1 0.500000 0.250000 0.166846
O O2 0.500000 0.010426 0.251096
O O3 0.563079 0.009343 0.124795
O O4 0.500000 0.250000 0.337409
O O5 0.437872 0.498776 0.376141
O O6 0.125968 0.500000 0.500000
O O7 0.125818 0.750000 0.579997
O O8 0.187991 0.506199 0.624424
O O9 0.755549 0.750000 0.336661
O O10 0.750000 0.987005 0.250000
O O11 0.687029 0.984665 0.375362
O O12 0.375348 0.500000 0.500000
O O13 0.379594 0.250000 0.580764
#
# Coordination Sequence:
#
# PCOD9539820 Si02
#       5
#     8   8  16  16  16
#     4   9  21  39  59  86 117 151 190 235 286 342
#     4  11  22  39  62  86 114 147 190 239 286 340
#     4  11  22  38  60  86 118 154 194 237 285 340
#     4  10  22  40  61  87 118 151 191 239 289 343
#     4  11  23  39  59  84 116 152 190 233 284 340
#
# _framework density 19.237463000000002
#
# number of rings (size 3 to 8) (size 9 to 14) (size 15 to 20)
#    0.000    1.500    0.000    4.875    0.000    4.500 
#    0.000    5.625    0.000    0.000    0.000    0.000 
#    0.000    0.000    0.000    0.000    0.000    0.000 
#
# Total GULP energy -178980.273222 kJ/mol
# GULP energy per Si atom -5593.133538 kJ/mol
# Density = 1.919368 g / cm^3
# Si number density = 19.237463 Si / 1000 Ang^3
#
#
#
# Elastic Constant Matrix: (Units=GPa)
#
#
# Indices 1 2 3 4 5 6 
#
# 1 243.4741 54.5777 150.7350 0.0000 0.0000 0.0000
# 2 54.5777 38.7208 50.0682 0.0000 0.0000 0.0000
# 3 150.7350 50.0682 245.5001 0.0000 0.0000 0.0000
# 4 0.0000 0.0000 0.0000 -16.5609 0.0000 0.0000
# 5 0.0000 0.0000 0.0000 0.0000 44.7566 0.0000
# 6 0.0000 0.0000 0.0000 0.0000 0.0000 -16.3211
#
#
#
# Elastic Compliance Matrix: (Units=1/GPa)
#
#
# Indices 1 2 3 4 5 6 
#
# 1 0.007634 -0.006382 -0.003385 0.000000 0.000000 0.000000
# 2 -0.006382 0.040412 -0.004323 0.000000 0.000000 0.000000
# 3 -0.003385 -0.004323 0.007034 0.000000 0.000000 0.000000
# 4 0.000000 0.000000 0.000000 -0.060383 0.000000 0.000000
# 5 0.000000 0.000000 0.000000 0.000000 0.022343 0.000000
# 6 0.000000 0.000000 0.000000 0.000000 0.000000 -0.061271
#
#
# Mechanical properties :
#
#
# Convention : Reuss Voigt Hill
#
# Bulk Modulus (GPa) = 37.17795 115.38410 76.28103
# Shear Modulus (GPa) = -705.90204 20.52919 -342.68642
#
# Velocity S-wave (km/s) = -19.17649 3.27027 -13.36120
# Velocity P-wave (km/s) = 21.70137 8.62372 14.08156
#
# Compressibility (1/GPa) = 0.02689766
#
# Stress axis : x y z
#
# Youngs Moduli (GPa) = 130.99514 24.74507 142.17444
#
# Poissons Ratio (x) = 0.15794 0.48133
# Poissons Ratio (y) = 0.83608 0.61462
# Poissons Ratio (z) = 0.44348 0.10697
#
# Static dielectric constant tensor:
#      x y z
#    x 1.632100 0.000000 0.000000 
#    y 0.000000 1.653290 0.000000 
#    z 0.000000 0.000000 1.634120 
# 
# From -- ./inp_files/39111.got.cif
#   From: 2010.05.17/outbox.cif.g08.bks.cpg/sg74_20_cif.got.tgz:39111.got - 2010.06.03 17:57:02.
