data_PCOD9539549
_publ_section_title
;
Structure prediction by ZEFSAII (Michael W. Deem and Ramdas Pophale) SiO2 
 PCOD9539549
Probable space group: I M M A
;
_chemical_formula_sum "Si O2"
_cell_formula_units_Z 96
_cell_length_a 21.627014
_cell_length_b 14.183215
_cell_length_c 15.544487
_cell_angle_alpha 90.000000
_cell_angle_beta 90.000000
_cell_angle_gamma 90.000000
_cell_volume 4768.125104
_symmetry_space_group_name_H-M "I M M A"
_symmetry_group_IT_number 74
_symmetry_cell_setting 'orthorhombic'
loop_
_space_group_symop_operation_xyz
x,y,z
-x,1/2-y,z
x,-y,-z
-x,1/2+y,-z
-x,-y,-z
x,1/2+y,-z
-x,y,z
x,1/2-y,z
1/2+x,1/2+y,1/2+z
1/2-x,-y,1/2+z
1/2+x,1/2-y,1/2-z
1/2-x,y,1/2-z
1/2-x,1/2-y,1/2-z
1/2+x,y,1/2-z
1/2-x,1/2+y,1/2+z
1/2+x,-y,1/2+z
loop_
_atom_site_type_symbol
_atom_site_label
_atom_site_fract_x
_atom_site_fract_y
_atom_site_fract_z
Si Si1 0.427094 0.750000 0.519866
Si Si2 0.798737 0.750000 0.081749
Si Si3 0.602964 0.549385 0.590997
Si Si4 0.932317 0.456708 0.275545
Si Si5 0.574580 0.250000 0.156642
Si Si6 0.271526 0.958759 0.348905
Si Si7 0.142768 0.550424 0.417967
Si Si8 0.166584 0.250000 0.507462
O O1 0.500000 0.750000 0.491175
O O2 0.369561 0.750000 0.452222
O O3 0.414576 0.842779 0.575678
O O4 0.788759 0.651570 0.133228
O O5 0.742602 0.750000 0.009643
O O6 0.589670 0.500000 0.500000
O O7 0.567558 0.517006 0.675873
O O8 0.672965 0.524841 0.618981
O O9 0.915115 0.346706 0.290252
O O10 0.888988 0.523941 0.329657
O O11 0.000000 0.467578 0.313207
O O12 0.500000 0.250000 0.131575
O O13 0.625845 0.250000 0.080087
O O14 0.250000 0.970065 0.250000
O O15 0.212592 0.984738 0.406195
O O16 0.112734 0.500000 0.500000
O O17 0.146411 0.659181 0.439204
#
# Coordination Sequence:
#
# PCOD9539549 Si02
#       8
#     8   8  16  16   8  16  16   8
#     4  12  27  45  68 101 139 187 240 301 360 420
#     4  10  23  43  69 102 138 173 230 286 347 427
#     4  12  25  47  71  97 137 180 236 290 351 417
#     4  11  24  41  64  96 132 177 228 278 337 410
#     4  10  21  40  65  97 136 177 224 277 346 419
#     4  11  22  43  71 101 132 175 224 284 350 417
#     4  11  22  39  65  96 133 171 219 277 342 415
#     4  10  22  38  67  99 136 182 216 279 358 413
#
# _framework density 20.133700999999999
#
# number of rings (size 3 to 8) (size 9 to 14) (size 15 to 20)
#    0.000    1.000    5.000    1.750    2.333    3.000 
#    0.000    1.250    0.000    0.000    0.000    0.000 
#    0.000    0.000    0.000    0.000    0.000    0.000 
#
# Total GULP energy -267660.278824 kJ/mol
# GULP energy per Si atom -5576.255809 kJ/mol
# Density = 2.008788 g / cm^3
# Si number density = 20.133701 Si / 1000 Ang^3
#
#
#
# Elastic Constant Matrix: (Units=GPa)
#
#
# Indices 1 2 3 4 5 6 
#
# 1 105.2334 39.2842 52.7117 0.0000 0.0000 0.0000
# 2 39.2842 49.5294 30.7017 0.0000 0.0000 0.0000
# 3 52.7117 30.7017 133.2351 0.0000 0.0000 0.0000
# 4 0.0000 0.0000 0.0000 5.5194 0.0000 0.0000
# 5 0.0000 0.0000 0.0000 0.0000 1.1616 0.0000
# 6 0.0000 0.0000 0.0000 0.0000 0.0000 -315.8238
#
#
#
# Elastic Compliance Matrix: (Units=1/GPa)
#
#
# Indices 1 2 3 4 5 6 
#
# 1 0.014918 -0.009536 -0.003705 0.000000 0.000000 0.000000
# 2 -0.009536 0.029650 -0.003060 0.000000 0.000000 0.000000
# 3 -0.003705 -0.003060 0.009676 0.000000 0.000000 0.000000
# 4 0.000000 0.000000 0.000000 0.181181 0.000000 0.000000
# 5 0.000000 0.000000 0.000000 0.000000 0.860851 0.000000
# 6 0.000000 0.000000 0.000000 0.000000 0.000000 -0.003166
#
#
# Mechanical properties :
#
#
# Convention : Reuss Voigt Hill
#
# Bulk Modulus (GPa) = 46.20230 59.26589 52.73410
# Shear Modulus (GPa) = 4.41336 -50.80853 -23.19759
#
# Velocity S-wave (km/s) = 1.48215 -5.02895 -3.39806
# Velocity P-wave (km/s) = 5.09182 2.05436 3.29440
#
# Compressibility (1/GPa) = 0.02164394
#
# Stress axis : x y z
#
# Youngs Moduli (GPa) = 67.03233 33.72685 103.34590
#
# Poissons Ratio (x) = 0.32162 0.38286
# Poissons Ratio (y) = 0.63921 0.31620
# Poissons Ratio (z) = 0.24833 0.10319
#
# Static dielectric constant tensor:
#      x y z
#    x 1.737550 0.000000 0.000000 
#    y 0.000000 1.693710 0.000000 
#    z 0.000000 0.000000 1.718520 
# 
# From -- ./inp_files/35355.got.cif
#   From: 2010.05.17/outbox.cif.g08.bks.cpg/sg74_18_cif.got.tgz:35355.got - 2010.06.03 17:57:02.
