data_PCOD9539811
_publ_section_title
;
Structure prediction by ZEFSAII (Michael W. Deem and Ramdas Pophale) SiO2 
 PCOD9539811
Probable space group: I M M A
;
_chemical_formula_sum "Si O2"
_cell_formula_units_Z 64
_cell_length_a 25.593064
_cell_length_b 16.855919
_cell_length_c 7.487722
_cell_angle_alpha 90.000000
_cell_angle_beta 90.000000
_cell_angle_gamma 90.000000
_cell_volume 3230.162940
_symmetry_space_group_name_H-M "I M M A"
_symmetry_group_IT_number 74
_symmetry_cell_setting 'orthorhombic'
loop_
_space_group_symop_operation_xyz
x,y,z
-x,1/2-y,z
x,-y,-z
-x,1/2+y,-z
-x,-y,-z
x,1/2+y,-z
-x,y,z
x,1/2-y,z
1/2+x,1/2+y,1/2+z
1/2-x,-y,1/2+z
1/2+x,1/2-y,1/2-z
1/2-x,y,1/2-z
1/2-x,1/2-y,1/2-z
1/2+x,y,1/2-z
1/2-x,1/2+y,1/2+z
1/2+x,-y,1/2+z
loop_
_atom_site_type_symbol
_atom_site_label
_atom_site_fract_x
_atom_site_fract_y
_atom_site_fract_z
Si Si1 0.386810 0.347065 0.075427
Si Si2 0.500000 0.158867 0.481399
Si Si3 0.191214 0.654880 0.271273
Si Si4 0.500000 0.158778 0.046810
Si Si5 0.612392 0.906524 0.520199
O O1 0.388663 0.250000 0.083818
O O2 0.443329 0.375213 0.998794
O O3 0.380912 0.379097 0.275198
O O4 0.340133 0.372748 0.946612
O O5 0.500000 0.250000 0.539840
O O6 0.500000 0.158857 0.264076
O O7 0.553760 0.118284 0.537806
O O8 0.194494 0.750000 0.286586
O O9 0.250000 0.623421 0.250000
O O10 0.155332 0.634746 0.102836
O O11 0.500000 0.250000 0.984574
O O12 0.617851 0.000000 0.500000
#
# Coordination Sequence:
#
# PCOD9539811 Si02
#       5
#    16   8  16   8  16
#     4   9  18  35  59  84 116 154 197 246 294 346
#     4   9  17  34  61  86 117 155 199 242 291 361
#     4  10  22  40  60  84 111 151 213 260 287 347
#     4   7  12  26  51  83 110 139 180 230 288 346
#     4  11  22  37  57  90 123 158 188 244 307 367
#
# _framework density 19.813243
#
# number of rings (size 3 to 8) (size 9 to 14) (size 15 to 20)
#    0.000    2.500    0.000    4.125    0.000    3.000 
#    4.500    6.250    0.000    6.000    0.000    0.000 
#    0.000    0.000    0.000    0.000    0.000    0.000 
#
# Total GULP energy -178582.114545 kJ/mol
# GULP energy per Si atom -5580.691080 kJ/mol
# Density = 1.976815 g / cm^3
# Si number density = 19.813243 Si / 1000 Ang^3
#
#
#
# Elastic Constant Matrix: (Units=GPa)
#
#
# Indices 1 2 3 4 5 6 
#
# 1 201.1345 5.8600 86.2447 0.0000 0.0000 0.0000
# 2 5.8600 2.3530 7.3754 0.0000 0.0000 0.0000
# 3 86.2447 7.3754 113.0841 0.0000 0.0000 0.0000
# 4 0.0000 0.0000 0.0000 3.8720 0.0000 0.0000
# 5 0.0000 0.0000 0.0000 0.0000 37.2557 0.0000
# 6 0.0000 0.0000 0.0000 0.0000 0.0000 7.0749
#
#
#
# Elastic Compliance Matrix: (Units=1/GPa)
#
#
# Indices 1 2 3 4 5 6 
#
# 1 0.007389 -0.000928 -0.005575 0.000000 0.000000 0.000000
# 2 -0.000928 0.534310 -0.034140 0.000000 0.000000 0.000000
# 3 -0.005575 -0.034140 0.015321 0.000000 0.000000 0.000000
# 4 0.000000 0.000000 0.000000 0.258266 0.000000 0.000000
# 5 0.000000 0.000000 0.000000 0.000000 0.026842 0.000000
# 6 0.000000 0.000000 0.000000 0.000000 0.000000 0.141345
#
#
# Mechanical properties :
#
#
# Convention : Reuss Voigt Hill
#
# Bulk Modulus (GPa) = 2.10201 57.28130 29.69166
# Shear Modulus (GPa) = 4.08718 24.11329 14.10023
#
# Velocity S-wave (km/s) = 1.43782 3.49238 2.67058
# Velocity P-wave (km/s) = 1.95439 6.72575 4.95254
#
# Compressibility (1/GPa) = 0.47573448
#
# Stress axis : x y z
#
# Youngs Moduli (GPa) = 135.32957 1.87157 65.26795
#
# Poissons Ratio (x) = 0.00174 0.36387
# Poissons Ratio (y) = 0.12559 2.22825
# Poissons Ratio (z) = 0.75447 0.06390
#
# Static dielectric constant tensor:
#      x y z
#    x 1.750560 0.000000 0.000000 
#    y 0.000000 1.669860 0.000000 
#    z 0.000000 0.000000 1.696970 
# 
# From -- ./inp_files/13413.got.cif
#   From: 2010.05.17/outbox.cif.g08.bks.cpg/sg74_7_cif.got.tgz:13413.got - 2010.06.03 17:57:02.
