data_PCOD9539487
_publ_section_title
;
Structure prediction by ZEFSAII (Michael W. Deem and Ramdas Pophale) SiO2 
 PCOD9539487
Probable space group: I M M A
;
_chemical_formula_sum "Si O2"
_cell_formula_units_Z 48
_cell_length_a 15.090960
_cell_length_b 12.188230
_cell_length_c 9.846747
_cell_angle_alpha 90.000000
_cell_angle_beta 90.000000
_cell_angle_gamma 90.000000
_cell_volume 1811.132769
_symmetry_space_group_name_H-M "I M M A"
_symmetry_group_IT_number 74
_symmetry_cell_setting 'orthorhombic'
loop_
_space_group_symop_operation_xyz
x,y,z
-x,1/2-y,z
x,-y,-z
-x,1/2+y,-z
-x,-y,-z
x,1/2+y,-z
-x,y,z
x,1/2-y,z
1/2+x,1/2+y,1/2+z
1/2-x,-y,1/2+z
1/2+x,1/2-y,1/2-z
1/2-x,y,1/2-z
1/2-x,1/2-y,1/2-z
1/2+x,y,1/2-z
1/2-x,1/2+y,1/2+z
1/2+x,-y,1/2+z
loop_
_atom_site_type_symbol
_atom_site_label
_atom_site_fract_x
_atom_site_fract_y
_atom_site_fract_z
Si Si1 0.398004 0.090141 0.703822
Si Si2 0.336668 0.632421 0.599362
Si Si3 0.140652 0.874834 0.493166
O O1 0.500000 0.116133 0.734190
O O2 0.374334 0.131313 0.553955
O O3 0.342008 0.130316 0.830913
O O4 0.383121 0.960640 0.685170
O O5 0.352583 0.750000 0.661436
O O6 0.232136 0.614799 0.576659
O O7 0.104228 0.750000 0.524025
O O8 0.098495 0.000000 0.500000
#
# Coordination Sequence:
#
# PCOD9539487 Si02
#       3
#    16  16  16
#     4  11  23  39  63  96 129 167 217 273 333 384
#     4  10  21  39  65  93 125 168 219 271 324 385
#     4  11  24  43  67  95 130 174 222 267 322 393
#
# _framework density 26.502749999999999
#
# number of rings (size 3 to 8) (size 9 to 14) (size 15 to 20)
#    0.000    1.333    3.333    4.000    0.000    9.333 
#    0.000    3.333    0.000    0.000    0.000    0.000 
#    0.000    0.000    0.000    0.000    0.000    0.000 
#
# Total GULP energy -134109.728245 kJ/mol
# GULP energy per Si atom -5587.905344 kJ/mol
# Density = 2.644243 g / cm^3
# Si number density = 26.502750 Si / 1000 Ang^3
#
#
#
# Elastic Constant Matrix: (Units=GPa)
#
#
# Indices 1 2 3 4 5 6 
#
# 1 74.6539 14.6785 0.5127 0.0000 0.0000 0.0000
# 2 14.6785 280.3034 10.6231 0.0000 0.0000 0.0000
# 3 0.5127 10.6231 113.2433 0.0000 0.0000 0.0000
# 4 0.0000 0.0000 0.0000 -39.7001 0.0000 0.0000
# 5 0.0000 0.0000 0.0000 0.0000 11.6938 0.0000
# 6 0.0000 0.0000 0.0000 0.0000 0.0000 141.7521
#
#
#
# Elastic Compliance Matrix: (Units=1/GPa)
#
#
# Indices 1 2 3 4 5 6 
#
# 1 0.013535 -0.000709 0.000005 0.000000 0.000000 0.000000
# 2 -0.000709 0.003617 -0.000336 0.000000 0.000000 0.000000
# 3 0.000005 -0.000336 0.008862 0.000000 0.000000 0.000000
# 4 0.000000 0.000000 0.000000 -0.025189 0.000000 0.000000
# 5 0.000000 0.000000 0.000000 0.000000 0.085515 0.000000
# 6 0.000000 0.000000 0.000000 0.000000 0.000000 0.007055
#
#
# Mechanical properties :
#
#
# Convention : Reuss Voigt Hill
#
# Bulk Modulus (GPa) = 41.78111 57.75880 49.76995
# Shear Modulus (GPa) = 48.33112 52.24156 50.28634
#
# Velocity S-wave (km/s) = 4.27503 4.44461 4.36064
# Velocity P-wave (km/s) = 6.33773 6.94120 6.64632
#
# Compressibility (1/GPa) = 0.02393426
#
# Stress axis : x y z
#
# Youngs Moduli (GPa) = 73.88525 276.43956 112.84066
#
# Poissons Ratio (x) = 0.19598 -0.00059
# Poissons Ratio (y) = 0.05238 0.03793
# Poissons Ratio (z) = -0.00039 0.09292
#
# Static dielectric constant tensor:
#      x y z
#    x 1.980420 0.000000 0.000000 
#    y 0.000000 2.162370 0.000000 
#    z 0.000000 0.000000 2.038140 
# 
# From -- ./inp_files/21365.got.cif
#   From: 2010.05.17/outbox.cif.g08.bks.cpg/sg74_11_cif.got.tgz:21365.got - 2010.06.03 17:57:02.
