data_PCOD9539274
_publ_section_title
;
Structure prediction by ZEFSAII (Michael W. Deem and Ramdas Pophale) SiO2 
 PCOD9539274
Probable space group: I M M A
;
_chemical_formula_sum "Si O2"
_cell_formula_units_Z 96
_cell_length_a 8.608030
_cell_length_b 19.014110
_cell_length_c 30.603839
_cell_angle_alpha 90.000000
_cell_angle_beta 90.000000
_cell_angle_gamma 90.000000
_cell_volume 5009.053641
_symmetry_space_group_name_H-M "I M M A"
_symmetry_group_IT_number 74
_symmetry_cell_setting 'orthorhombic'
loop_
_space_group_symop_operation_xyz
x,y,z
-x,1/2-y,z
x,-y,-z
-x,1/2+y,-z
-x,-y,-z
x,1/2+y,-z
-x,y,z
x,1/2-y,z
1/2+x,1/2+y,1/2+z
1/2-x,-y,1/2+z
1/2+x,1/2-y,1/2-z
1/2-x,y,1/2-z
1/2-x,1/2-y,1/2-z
1/2+x,y,1/2-z
1/2-x,1/2+y,1/2+z
1/2+x,-y,1/2+z
loop_
_atom_site_type_symbol
_atom_site_label
_atom_site_fract_x
_atom_site_fract_y
_atom_site_fract_z
Si Si1 0.815825 0.568831 0.622265
Si Si2 0.312517 0.168067 0.202420
Si Si3 0.320223 0.665478 0.203682
Si Si4 0.314758 0.831613 0.047430
Si Si5 0.185718 0.573299 0.975391
Si Si6 0.680468 0.080659 0.627061
O O1 0.762056 0.620958 0.661058
O O2 0.734515 0.575790 0.575136
O O3 0.779790 0.488943 0.635606
O O4 0.000000 0.579267 0.616347
O O5 0.500000 0.165083 0.204019
O O6 0.266464 0.250000 0.196366
O O7 0.250000 0.144907 0.250000
O O8 0.500000 0.643485 0.198921
O O9 0.317012 0.750000 0.201636
O O10 0.250000 0.643493 0.250000
O O11 0.215834 0.634272 0.165745
O O12 0.500000 0.836247 0.053595
O O13 0.269270 0.750000 0.052208
O O14 0.232462 0.880822 0.082897
O O15 0.267104 0.863212 0.000938
O O16 0.000000 0.578940 0.979086
O O17 0.231404 0.500000 0.000000
O O18 0.500000 0.061679 0.624179
#
# Coordination Sequence:
#
# PCOD9539274 Si02
#       6
#    16  16  16  16  16  16
#     4  11  23  39  63  91 123 162 204 251 303 364
#     4   9  20  40  65  93 124 159 201 251 308 368
#     4  10  21  38  59  83 113 151 196 245 298 355
#     4  11  24  41  63  90 119 157 204 250 301 363
#     4  11  23  40  62  90 123 160 203 253 310 370
#     4  12  24  38  58  86 120 158 200 247 299 360
#
# _framework density 19.165296999999999
#
# number of rings (size 3 to 8) (size 9 to 14) (size 15 to 20)
#    0.000    1.333    1.667    4.000    0.000    7.667 
#    0.000    3.333    0.000    0.000    0.000    0.000 
#    0.000    0.000    0.000    0.000    0.000    0.000 
#
# Total GULP energy -268216.404256 kJ/mol
# GULP energy per Si atom -5587.841755 kJ/mol
# Density = 1.912168 g / cm^3
# Si number density = 19.165297 Si / 1000 Ang^3
#
#
#
# Elastic Constant Matrix: (Units=GPa)
#
#
# Indices 1 2 3 4 5 6 
#
# 1 18.0313 9.9030 10.4801 0.0000 0.0000 0.0000
# 2 9.9030 64.4739 34.2058 0.0000 0.0000 0.0000
# 3 10.4801 34.2058 118.3925 0.0000 0.0000 0.0000
# 4 0.0000 0.0000 0.0000 31.7613 0.0000 0.0000
# 5 0.0000 0.0000 0.0000 0.0000 33.7194 0.0000
# 6 0.0000 0.0000 0.0000 0.0000 0.0000 6.0238
#
#
#
# Elastic Compliance Matrix: (Units=1/GPa)
#
#
# Indices 1 2 3 4 5 6 
#
# 1 0.061585 -0.007756 -0.003211 0.000000 0.000000 0.000000
# 2 -0.007756 0.019295 -0.004888 0.000000 0.000000 0.000000
# 3 -0.003211 -0.004888 0.010143 0.000000 0.000000 0.000000
# 4 0.000000 0.000000 0.000000 0.031485 0.000000 0.000000
# 5 0.000000 0.000000 0.000000 0.000000 0.029656 0.000000
# 6 0.000000 0.000000 0.000000 0.000000 0.000000 0.166008
#
#
# Mechanical properties :
#
#
# Convention : Reuss Voigt Hill
#
# Bulk Modulus (GPa) = 16.85964 34.45283 25.65624
# Shear Modulus (GPa) = 13.52624 24.05482 18.79053
#
# Velocity S-wave (km/s) = 2.65951 3.54662 3.13460
# Velocity P-wave (km/s) = 4.27162 5.89805 5.14945
#
# Compressibility (1/GPa) = 0.05931326
#
# Stress axis : x y z
#
# Youngs Moduli (GPa) = 16.23779 51.82769 98.59067
#
# Poissons Ratio (x) = 0.40197 0.31655
# Poissons Ratio (y) = 0.12594 0.48192
# Poissons Ratio (z) = 0.05213 0.25334
#
# Static dielectric constant tensor:
#      x y z
#    x 1.650220 0.000000 0.000000 
#    y 0.000000 1.665160 0.000000 
#    z 0.000000 0.000000 1.668820 
# 
# From -- ./inp_files/64250.got.cif
#   From: 2010.05.17/outbox.cif.g08.bks.cpg/sg74_33_cif.got.tgz:64250.got - 2010.06.03 17:57:02.
