data_PCOD9539127
_publ_section_title
;
Structure prediction by ZEFSAII (Michael W. Deem and Ramdas Pophale) SiO2 
 PCOD9539127
Probable space group: I M M A
;
_chemical_formula_sum "Si O2"
_cell_formula_units_Z 96
_cell_length_a 13.045291
_cell_length_b 12.799962
_cell_length_c 25.663015
_cell_angle_alpha 90.000000
_cell_angle_beta 90.000000
_cell_angle_gamma 90.000000
_cell_volume 4285.190461
_symmetry_space_group_name_H-M "I M M A"
_symmetry_group_IT_number 74
_symmetry_cell_setting 'orthorhombic'
loop_
_space_group_symop_operation_xyz
x,y,z
-x,1/2-y,z
x,-y,-z
-x,1/2+y,-z
-x,-y,-z
x,1/2+y,-z
-x,y,z
x,1/2-y,z
1/2+x,1/2+y,1/2+z
1/2-x,-y,1/2+z
1/2+x,1/2-y,1/2-z
1/2-x,y,1/2-z
1/2-x,1/2-y,1/2-z
1/2+x,y,1/2-z
1/2-x,1/2+y,1/2+z
1/2+x,-y,1/2+z
loop_
_atom_site_type_symbol
_atom_site_label
_atom_site_fract_x
_atom_site_fract_y
_atom_site_fract_z
Si Si1 0.121748 0.860176 0.807458
Si Si2 0.122419 0.909243 0.222604
Si Si3 0.748217 0.570395 0.898558
Si Si4 0.122707 0.420023 0.664072
Si Si5 0.626472 0.750000 0.958687
Si Si6 0.623899 0.630305 0.398291
Si Si7 0.877435 0.250000 0.579392
O O1 0.151829 0.750000 0.782759
O O2 0.168509 0.867653 0.864974
O O3 0.000000 0.861793 0.812538
O O4 0.144582 0.966838 0.777615
O O5 0.158949 0.875502 0.280109
O O6 0.147994 0.872002 0.164248
O O7 0.000000 0.889990 0.224134
O O8 0.671358 0.528101 0.853625
O O9 0.681033 0.646434 0.934735
O O10 0.812195 0.469308 0.920790
O O11 0.149297 0.347086 0.615422
O O12 0.000000 0.428441 0.666802
O O13 0.500000 0.750000 0.951915
O O14 0.653129 0.750000 0.019860
O O15 0.500000 0.613375 0.403722
O O16 0.645096 0.750000 0.416779
O O17 0.000000 0.250000 0.576870
#
# Coordination Sequence:
#
# PCOD9539127 Si02
#       7
#    16  16  16  16   8  16   8
#     4   9  17  33  55  86 125 167 209 247 294 372
#     4   8  16  31  52  83 124 169 205 244 302 363
#     4  11  21  36  60  90 122 165 213 258 324 377
#     4  10  21  37  57  85 121 159 205 259 312 375
#     4  11  24  44  65  90 121 161 216 280 341 382
#     4   9  19  35  58  94 135 174 211 248 300 381
#     4   9  22  42  64  86 113 157 213 271 328 379
#
# _framework density 22.402739
#
# number of rings (size 3 to 8) (size 9 to 14) (size 15 to 20)
#    0.000    2.500    0.833    2.000    2.333    3.333 
#    1.500    4.167    0.000    0.000    0.000   14.000 
#    0.000    0.000    0.000    0.000    0.000    0.000 
#
# Total GULP energy -267507.182630 kJ/mol
# GULP energy per Si atom -5573.066305 kJ/mol
# Density = 2.235175 g / cm^3
# Si number density = 22.402739 Si / 1000 Ang^3
#
#
#
# Elastic Constant Matrix: (Units=GPa)
#
#
# Indices 1 2 3 4 5 6 
#
# 1 124.4408 50.1321 44.0565 0.0000 0.0000 0.0000
# 2 50.1321 135.5212 36.5304 0.0000 0.0000 0.0000
# 3 44.0565 36.5304 111.0731 0.0000 0.0000 0.0000
# 4 0.0000 0.0000 0.0000 -33.9224 0.0000 0.0000
# 5 0.0000 0.0000 0.0000 0.0000 32.5438 0.0000
# 6 0.0000 0.0000 0.0000 0.0000 0.0000 32.2195
#
#
#
# Elastic Compliance Matrix: (Units=1/GPa)
#
#
# Indices 1 2 3 4 5 6 
#
# 1 0.010343 -0.002985 -0.003121 0.000000 0.000000 0.000000
# 2 -0.002985 0.008958 -0.001762 0.000000 0.000000 0.000000
# 3 -0.003121 -0.001762 0.010821 0.000000 0.000000 0.000000
# 4 0.000000 0.000000 0.000000 -0.029479 0.000000 0.000000
# 5 0.000000 0.000000 0.000000 0.000000 0.030728 0.000000
# 6 0.000000 0.000000 0.000000 0.000000 0.000000 0.031037
#
#
# Mechanical properties :
#
#
# Convention : Reuss Voigt Hill
#
# Bulk Modulus (GPa) = 69.51295 70.27479 69.89387
# Shear Modulus (GPa) = 60.28490 22.18926 41.23708
#
# Velocity S-wave (km/s) = 5.19308 3.15059 4.29501
# Velocity P-wave (km/s) = 8.18862 6.68370 7.47414
#
# Compressibility (1/GPa) = 0.01438581
#
# Stress axis : x y z
#
# Youngs Moduli (GPa) = 96.68006 111.63030 92.41671
#
# Poissons Ratio (x) = 0.33321 0.28843
# Poissons Ratio (y) = 0.28859 0.16286
# Poissons Ratio (z) = 0.30173 0.19672
#
# Static dielectric constant tensor:
#      x y z
#    x 1.933010 0.000000 0.000000 
#    y 0.000000 1.930440 0.000000 
#    z 0.000000 0.000000 1.771700 
# 
# From -- ./inp_files/60055.got.cif
#   From: 2010.05.17/outbox.cif.g08.bks.cpg/sg74_31_cif.got.tgz:60055.got - 2010.06.03 17:57:02.
