data_PCOD9539668
_publ_section_title
;
Structure prediction by ZEFSAII (Michael W. Deem and Ramdas Pophale) SiO2 
 PCOD9539668
Probable space group: I M M A
;
_chemical_formula_sum "Si O2"
_cell_formula_units_Z 88
_cell_length_a 8.528949
_cell_length_b 24.014881
_cell_length_c 22.399827
_cell_angle_alpha 90.000000
_cell_angle_beta 90.000000
_cell_angle_gamma 90.000000
_cell_volume 4587.970540
_symmetry_space_group_name_H-M "I M M A"
_symmetry_group_IT_number 74
_symmetry_cell_setting 'orthorhombic'
loop_
_space_group_symop_operation_xyz
x,y,z
-x,1/2-y,z
x,-y,-z
-x,1/2+y,-z
-x,-y,-z
x,1/2+y,-z
-x,y,z
x,1/2-y,z
1/2+x,1/2+y,1/2+z
1/2-x,-y,1/2+z
1/2+x,1/2-y,1/2-z
1/2-x,y,1/2-z
1/2-x,1/2-y,1/2-z
1/2+x,y,1/2-z
1/2-x,1/2+y,1/2+z
1/2+x,-y,1/2+z
loop_
_atom_site_type_symbol
_atom_site_label
_atom_site_fract_x
_atom_site_fract_y
_atom_site_fract_z
Si Si1 0.685669 0.526987 0.815458
Si Si2 0.689886 0.470589 0.563289
Si Si3 0.176296 0.250000 0.378142
Si Si4 0.315110 0.849376 0.688578
Si Si5 0.324275 0.750000 0.017695
Si Si6 0.310176 0.250000 0.682984
Si Si7 0.686865 0.344977 0.591449
O O1 0.500000 0.518258 0.815675
O O2 0.750000 0.507577 0.750000
O O3 0.758633 0.501178 0.875612
O O4 0.726969 0.592322 0.818981
O O5 0.741551 0.500000 0.500000
O O6 0.500000 0.470542 0.560880
O O7 0.745734 0.406721 0.574815
O O8 0.270255 0.195220 0.360275
O O9 0.160456 0.250000 0.448072
O O10 0.000000 0.250000 0.351217
O O11 0.500000 0.859710 0.691774
O O12 0.250000 0.824457 0.750000
O O13 0.500000 0.750000 0.044690
O O14 0.231006 0.804147 0.038011
O O15 0.500000 0.250000 0.681922
O O16 0.250000 0.250000 0.750000
O O17 0.258552 0.193276 0.647993
O O18 0.500000 0.350169 0.598233
#
# Coordination Sequence:
#
# PCOD9539668 Si02
#       7
#    16  16   8  16   8   8  16
#     4  11  23  41  63  88 122 162 204 255 308 367
#     4  10  22  40  63  92 123 161 209 259 311 376
#     4  11  23  37  54  83 116 150 191 241 295 353
#     4  11  22  38  59  83 113 151 194 243 295 352
#     4  10  22  37  57  84 116 151 192 239 288 345
#     4   9  18  34  57  85 116 151 191 240 300 364
#     4   9  20  39  59  83 119 156 193 241 301 363
#
# _framework density 19.180595
#
# number of rings (size 3 to 8) (size 9 to 14) (size 15 to 20)
#    0.000    1.818    0.000    5.727    2.545    4.727 
#    0.000    1.818    0.000    0.000    0.000    0.000 
#    0.000    0.000    0.000    0.000    0.000    0.000 
#
# Total GULP energy -245200.067608 kJ/mol
# GULP energy per Si atom -5572.728809 kJ/mol
# Density = 1.913694 g / cm^3
# Si number density = 19.180595 Si / 1000 Ang^3
#
#
#
# Elastic Constant Matrix: (Units=GPa)
#
#
# Indices 1 2 3 4 5 6 
#
# 1 16.9745 6.3862 15.2836 0.0000 0.0000 0.0000
# 2 6.3862 116.6187 74.8478 0.0000 0.0000 0.0000
# 3 15.2836 74.8478 154.0534 0.0000 0.0000 0.0000
# 4 0.0000 0.0000 0.0000 43.9985 0.0000 0.0000
# 5 0.0000 0.0000 0.0000 0.0000 32.5025 0.0000
# 6 0.0000 0.0000 0.0000 0.0000 0.0000 20.2440
#
#
#
# Elastic Compliance Matrix: (Units=1/GPa)
#
#
# Indices 1 2 3 4 5 6 
#
# 1 0.064747 0.000839 -0.006831 0.000000 0.000000 0.000000
# 2 0.000839 0.012471 -0.006142 0.000000 0.000000 0.000000
# 3 -0.006831 -0.006142 0.010153 0.000000 0.000000 0.000000
# 4 0.000000 0.000000 0.000000 0.022728 0.000000 0.000000
# 5 0.000000 0.000000 0.000000 0.000000 0.030767 0.000000
# 6 0.000000 0.000000 0.000000 0.000000 0.000000 0.049397
#
#
# Mechanical properties :
#
#
# Convention : Reuss Voigt Hill
#
# Bulk Modulus (GPa) = 15.84735 53.40907 34.62821
# Shear Modulus (GPa) = 21.22532 32.09095 26.65813
#
# Velocity S-wave (km/s) = 3.33017 4.09479 3.73211
# Velocity P-wave (km/s) = 4.80280 7.08958 6.05512
#
# Compressibility (1/GPa) = 0.06310205
#
# Stress axis : x y z
#
# Youngs Moduli (GPa) = 15.44472 80.18356 98.48998
#
# Poissons Ratio (x) = -0.06724 0.67278
# Poissons Ratio (y) = -0.01295 0.60497
# Poissons Ratio (z) = 0.10550 0.49253
#
# Static dielectric constant tensor:
#      x y z
#    x 1.693940 0.000000 0.000000 
#    y 0.000000 1.665810 0.000000 
#    z 0.000000 0.000000 1.708240 
# 
# From -- ./inp_files/48812.got.cif
#   From: 2010.05.17/outbox.cif.g08.bks.cpg/sg74_25_cif.got.tgz:48812.got - 2010.06.03 17:57:02.
