data_PCOD9539842
_publ_section_title
;
Structure prediction by ZEFSAII (Michael W. Deem and Ramdas Pophale) SiO2 
 PCOD9539842
Probable space group: I M M A
;
_chemical_formula_sum "Si O2"
_cell_formula_units_Z 84
_cell_length_a 13.683404
_cell_length_b 13.788783
_cell_length_c 22.428908
_cell_angle_alpha 90.000000
_cell_angle_beta 90.000000
_cell_angle_gamma 90.000000
_cell_volume 4231.830030
_symmetry_space_group_name_H-M "I M M A"
_symmetry_group_IT_number 74
_symmetry_cell_setting 'orthorhombic'
loop_
_space_group_symop_operation_xyz
x,y,z
-x,1/2-y,z
x,-y,-z
-x,1/2+y,-z
-x,-y,-z
x,1/2+y,-z
-x,y,z
x,1/2-y,z
1/2+x,1/2+y,1/2+z
1/2-x,-y,1/2+z
1/2+x,1/2-y,1/2-z
1/2-x,y,1/2-z
1/2-x,1/2-y,1/2-z
1/2+x,y,1/2-z
1/2-x,1/2+y,1/2+z
1/2+x,-y,1/2+z
loop_
_atom_site_type_symbol
_atom_site_label
_atom_site_fract_x
_atom_site_fract_y
_atom_site_fract_z
Si Si1 0.778626 0.864593 0.962689
Si Si2 0.615592 0.639135 0.663075
Si Si3 0.888735 0.366586 0.917747
Si Si4 0.235213 0.041566 0.813220
Si Si5 0.106957 0.441103 0.389301
Si Si6 0.500000 0.250000 0.146866
O O1 0.755904 0.750000 0.969206
O O2 0.851661 0.872953 0.906067
O O3 0.680332 0.918964 0.943427
O O4 0.830411 0.897170 0.023125
O O5 0.500000 0.625061 0.669554
O O6 0.637773 0.750000 0.680695
O O7 0.675905 0.558622 0.697864
O O8 0.893027 0.250000 0.919091
O O9 0.830348 0.400412 0.859997
O O10 0.000000 0.403832 0.917863
O O11 0.250000 0.091519 0.750000
O O12 0.336174 0.011884 0.844890
O O13 0.083647 0.337101 0.358224
O O14 0.000000 0.478379 0.407631
#
# Coordination Sequence:
#
# PCOD9539842 Si02
#       6
#    16  16  16  16  16   4
#     4   9  15  31  58  87 115 142 176 223 280 342
#     4   9  18  32  52  84 119 147 173 216 279 344
#     4  10  22  40  63  86 107 141 184 234 293 344
#     4  11  24  38  54  78 113 151 196 243 273 315
#     4   9  18  34  58  82 115 155 186 220 268 331
#     4   8  16  36  58  82 116 160 194 206 268 336
#
# _framework density 19.849568000000001
#
# number of rings (size 3 to 8) (size 9 to 14) (size 15 to 20)
#    0.571    1.905    0.952    1.143    1.333    7.619 
#    0.000    6.667    0.000    1.714    0.000    0.000 
#    0.000    0.000    0.000    0.000    0.000    0.000 
#
# Total GULP energy -233890.559990 kJ/mol
# GULP energy per Si atom -5568.822857 kJ/mol
# Density = 1.980439 g / cm^3
# Si number density = 19.849568 Si / 1000 Ang^3
#
#
#
# Elastic Constant Matrix: (Units=GPa)
#
#
# Indices 1 2 3 4 5 6 
#
# 1 132.7472 19.7156 43.0072 0.0000 0.0000 0.0000
# 2 19.7156 34.0717 12.4438 0.0000 0.0000 0.0000
# 3 43.0072 12.4438 89.2149 0.0000 0.0000 0.0000
# 4 0.0000 0.0000 0.0000 13.8387 0.0000 0.0000
# 5 0.0000 0.0000 0.0000 0.0000 -2.4815 0.0000
# 6 0.0000 0.0000 0.0000 0.0000 0.0000 26.9663
#
#
#
# Elastic Compliance Matrix: (Units=1/GPa)
#
#
# Indices 1 2 3 4 5 6 
#
# 1 0.009417 -0.003994 -0.003982 0.000000 0.000000 0.000000
# 2 -0.003994 0.032620 -0.002624 0.000000 0.000000 0.000000
# 3 -0.003982 -0.002624 0.013495 0.000000 0.000000 0.000000
# 4 0.000000 0.000000 0.000000 0.072261 0.000000 0.000000
# 5 0.000000 0.000000 0.000000 0.000000 -0.402976 0.000000
# 6 0.000000 0.000000 0.000000 0.000000 0.000000 0.037083
#
#
# Mechanical properties :
#
#
# Convention : Reuss Voigt Hill
#
# Bulk Modulus (GPa) = 29.12991 45.15188 37.14089
# Shear Modulus (GPa) = -24.33610 19.72250 -2.30680
#
# Velocity S-wave (km/s) = -3.50526 3.15556 -1.07920
# Velocity P-wave (km/s) = 1.29434 6.00609 4.14716
#
# Compressibility (1/GPa) = 0.03432898
#
# Stress axis : x y z
#
# Youngs Moduli (GPa) = 106.19636 30.65632 74.10372
#
# Poissons Ratio (x) = 0.12246 0.29510
# Poissons Ratio (y) = 0.42420 0.19447
# Poissons Ratio (z) = 0.42290 0.08045
#
# Static dielectric constant tensor:
#      x y z
#    x 1.693010 0.000000 0.000000 
#    y 0.000000 1.726870 0.000000 
#    z 0.000000 0.000000 1.709460 
# 
# From -- ./inp_files/51726.got.cif
#   From: 2010.05.17/outbox.cif.g08.bks.cpg/sg74_26_cif.got.tgz:51726.got - 2010.06.03 17:57:02.
