data_PCOD9539590
_publ_section_title
;
Structure prediction by ZEFSAII (Michael W. Deem and Ramdas Pophale) SiO2 
 PCOD9539590
Probable space group: I M M A
;
_chemical_formula_sum "Si O2"
_cell_formula_units_Z 84
_cell_length_a 26.839131
_cell_length_b 19.946845
_cell_length_c 7.378921
_cell_angle_alpha 90.000000
_cell_angle_beta 90.000000
_cell_angle_gamma 90.000000
_cell_volume 3950.349528
_symmetry_space_group_name_H-M "I M M A"
_symmetry_group_IT_number 74
_symmetry_cell_setting 'orthorhombic'
loop_
_space_group_symop_operation_xyz
x,y,z
-x,1/2-y,z
x,-y,-z
-x,1/2+y,-z
-x,-y,-z
x,1/2+y,-z
-x,y,z
x,1/2-y,z
1/2+x,1/2+y,1/2+z
1/2-x,-y,1/2+z
1/2+x,1/2-y,1/2-z
1/2-x,y,1/2-z
1/2-x,1/2-y,1/2-z
1/2+x,y,1/2-z
1/2-x,1/2+y,1/2+z
1/2+x,-y,1/2+z
loop_
_atom_site_type_symbol
_atom_site_label
_atom_site_fract_x
_atom_site_fract_y
_atom_site_fract_z
Si Si1 0.500000 0.750000 0.787410
Si Si2 0.944484 0.009238 0.717223
Si Si3 0.578876 0.361600 0.315766
Si Si4 0.128217 0.623748 0.164300
Si Si5 0.835989 0.829252 0.554061
Si Si6 0.229084 0.173065 0.954875
O O1 0.543018 0.691358 0.777070
O O2 0.899415 0.054656 0.788578
O O3 0.000000 0.039050 0.749233
O O4 0.939411 0.000000 0.500000
O O5 0.942387 0.936465 0.808469
O O6 0.591107 0.340855 0.522046
O O7 0.629488 0.363710 0.200446
O O8 0.140222 0.658250 0.355750
O O9 0.181371 0.625467 0.060789
O O10 0.835892 0.750000 0.585431
O O11 0.778153 0.850703 0.560693
O O12 0.214958 0.250000 0.009573
O O13 0.250000 0.178685 0.750000
#
# Coordination Sequence:
#
# PCOD9539590 Si02
#       6
#     4  16  16  16  16  16
#     4  12  28  44  62 106 142 164 222 290 326 404
#     4  11  24  45  69  91 126 181 227 267 331 401
#     4  12  25  43  66  96 135 174 221 278 334 393
#     4  11  23  39  69  95 128 171 222 274 332 399
#     4  10  21  41  67  97 134 179 219 273 332 395
#     4   8  17  36  64  96 131 167 216 269 327 393
#
# _framework density 21.263942
#
# number of rings (size 3 to 8) (size 9 to 14) (size 15 to 20)
#    0.000    1.524    3.810    2.286    4.000    1.524 
#    0.000    2.857   25.143    0.000    0.000    0.000 
#    0.000    0.000    0.000    0.000    0.000    0.000 
#
# Total GULP energy -233905.973735 kJ/mol
# GULP energy per Si atom -5569.189851 kJ/mol
# Density = 2.121554 g / cm^3
# Si number density = 21.263942 Si / 1000 Ang^3
#
#
#
# Elastic Constant Matrix: (Units=GPa)
#
#
# Indices 1 2 3 4 5 6 
#
# 1 161.9999 62.5892 31.4488 0.0000 0.0000 0.0000
# 2 62.5892 50.4369 -15.0627 0.0000 0.0000 0.0000
# 3 31.4488 -15.0627 86.4070 0.0000 0.0000 0.0000
# 4 0.0000 0.0000 0.0000 -34.0156 0.0000 0.0000
# 5 0.0000 0.0000 0.0000 0.0000 -3.7076 0.0000
# 6 0.0000 0.0000 0.0000 0.0000 0.0000 32.9000
#
#
#
# Elastic Compliance Matrix: (Units=1/GPa)
#
#
# Indices 1 2 3 4 5 6 
#
# 1 0.018644 -0.026544 -0.011413 0.000000 0.000000 0.000000
# 2 -0.026544 0.058709 0.019895 0.000000 0.000000 0.000000
# 3 -0.011413 0.019895 0.019195 0.000000 0.000000 0.000000
# 4 0.000000 0.000000 0.000000 -0.029398 0.000000 0.000000
# 5 0.000000 0.000000 0.000000 0.000000 -0.269716 0.000000
# 6 0.000000 0.000000 0.000000 0.000000 0.000000 0.030395
#
#
# Mechanical properties :
#
#
# Convention : Reuss Voigt Hill
#
# Bulk Modulus (GPa) = 16.54983 50.75495 33.65239
# Shear Modulus (GPa) = -43.13829 13.69327 -14.72251
#
# Velocity S-wave (km/s) = -4.50900 2.54040 -2.63415
# Velocity P-wave (km/s) = 4.39411 5.70313 2.57075
#
# Compressibility (1/GPa) = 0.06042360
#
# Stress axis : x y z
#
# Youngs Moduli (GPa) = 53.63660 17.03330 52.09620
#
# Poissons Ratio (x) = 0.45214 0.59457
# Poissons Ratio (y) = 1.42376 -1.03648
# Poissons Ratio (z) = 0.61216 -0.33888
#
# Static dielectric constant tensor:
#      x y z
#    x 1.817400 0.000000 0.000000 
#    y 0.000000 1.726000 0.000000 
#    z 0.000000 0.000000 1.827550 
# 
# From -- ./inp_files/13665.got.cif
#   From: 2010.05.17/outbox.cif.g08.bks.cpg/sg74_7_cif.got.tgz:13665.got - 2010.06.03 17:57:02.
