data_PCOD9539266
_publ_section_title
;
Structure prediction by ZEFSAII (Michael W. Deem and Ramdas Pophale) SiO2 
 PCOD9539266
Probable space group: I M M A
;
_chemical_formula_sum "Si O2"
_cell_formula_units_Z 88
_cell_length_a 29.248221
_cell_length_b 27.308197
_cell_length_c 5.265486
_cell_angle_alpha 90.000000
_cell_angle_beta 90.000000
_cell_angle_gamma 90.000000
_cell_volume 4205.628869
_symmetry_space_group_name_H-M "I M M A"
_symmetry_group_IT_number 74
_symmetry_cell_setting 'orthorhombic'
loop_
_space_group_symop_operation_xyz
x,y,z
-x,1/2-y,z
x,-y,-z
-x,1/2+y,-z
-x,-y,-z
x,1/2+y,-z
-x,y,z
x,1/2-y,z
1/2+x,1/2+y,1/2+z
1/2-x,-y,1/2+z
1/2+x,1/2-y,1/2-z
1/2-x,y,1/2-z
1/2-x,1/2-y,1/2-z
1/2+x,y,1/2-z
1/2-x,1/2+y,1/2+z
1/2+x,-y,1/2+z
loop_
_atom_site_type_symbol
_atom_site_label
_atom_site_fract_x
_atom_site_fract_y
_atom_site_fract_z
Si Si1 0.892997 0.803400 0.260358
Si Si2 0.947736 0.825804 0.774182
Si Si3 0.447205 0.934553 0.872495
Si Si4 0.277958 0.941177 0.997304
Si Si5 0.365912 0.591228 0.221667
Si Si6 0.609398 0.000000 0.500000
O O1 0.870110 0.750000 0.253199
O O2 0.915953 0.810383 0.537664
O O3 0.863810 0.852251 0.200817
O O4 0.930993 0.804524 0.039512
O O5 0.945806 0.885005 0.795407
O O6 0.000000 0.812451 0.717598
O O7 0.500000 0.944371 0.933946
O O8 0.422971 0.978260 0.720948
O O9 0.416385 0.919346 0.111364
O O10 0.250000 0.926945 0.750000
O O11 0.250000 0.927214 0.250000
O O12 0.327923 0.917770 0.008870
O O13 0.283356 0.000000 0.000000
O O14 0.359934 0.546288 0.416817
#
# Coordination Sequence:
#
# PCOD9539266 Si02
#       6
#    16  16  16  16  16   8
#     4  11  23  40  61  86 119 165 214 265 321 375
#     4  10  21  38  58  85 119 162 218 274 318 362
#     4  10  22  37  56  86 128 171 213 256 308 379
#     4  10  23  40  66  95 126 161 199 253 321 384
#     4  11  25  40  62  91 129 165 215 262 324 378
#     4  12  21  36  62  88 122 176 212 260 309 386
#
# _framework density 20.924337999999999
#
# number of rings (size 3 to 8) (size 9 to 14) (size 15 to 20)
#    0.000    1.455    1.818    3.000    6.364    5.091 
#    0.000    0.000    0.000    1.091    0.000    0.000 
#    0.000    0.000    0.000    0.000    0.000    0.182 
#
# Total GULP energy -245868.663837 kJ/mol
# GULP energy per Si atom -5587.924178 kJ/mol
# Density = 2.087671 g / cm^3
# Si number density = 20.924338 Si / 1000 Ang^3
#
#
#
# Elastic Constant Matrix: (Units=GPa)
#
#
# Indices 1 2 3 4 5 6 
#
# 1 57.7466 29.4893 15.7817 0.0000 0.0000 0.0000
# 2 29.4893 171.6503 26.1073 0.0000 0.0000 0.0000
# 3 15.7817 26.1073 79.2147 0.0000 0.0000 0.0000
# 4 0.0000 0.0000 0.0000 7.6877 0.0000 0.0000
# 5 0.0000 0.0000 0.0000 0.0000 21.0693 0.0000
# 6 0.0000 0.0000 0.0000 0.0000 0.0000 -569.7462
#
#
#
# Elastic Compliance Matrix: (Units=1/GPa)
#
#
# Indices 1 2 3 4 5 6 
#
# 1 0.019614 -0.002922 -0.002945 0.000000 0.000000 0.000000
# 2 -0.002922 0.006568 -0.001583 0.000000 0.000000 0.000000
# 3 -0.002945 -0.001583 0.013732 0.000000 0.000000 0.000000
# 4 0.000000 0.000000 0.000000 0.130078 0.000000 0.000000
# 5 0.000000 0.000000 0.000000 0.000000 0.047462 0.000000
# 6 0.000000 0.000000 0.000000 0.000000 0.000000 -0.001755
#
#
# Mechanical properties :
#
#
# Convention : Reuss Voigt Hill
#
# Bulk Modulus (GPa) = 39.97403 50.15201 45.06302
# Shear Modulus (GPa) = 20.92607 -92.38227 -35.72810
#
# Velocity S-wave (km/s) = 3.16584 -6.65180 -4.13666
# Velocity P-wave (km/s) = 5.70166 5.91397 1.11042
#
# Compressibility (1/GPa) = 0.02501624
#
# Stress axis : x y z
#
# Youngs Moduli (GPa) = 50.98439 152.24232 72.82153
#
# Poissons Ratio (x) = 0.44482 0.21443
# Poissons Ratio (y) = 0.14896 0.11526
# Poissons Ratio (z) = 0.15013 0.24096
#
# Static dielectric constant tensor:
#      x y z
#    x 1.724960 0.000000 0.000000 
#    y 0.000000 1.833480 0.000000 
#    z 0.000000 0.000000 1.798050 
# 
# From -- ./inp_files/5220.got.cif
#   From: 2010.05.17/outbox.cif.g08.bks.cpg/sg74_3_cif.got.tgz:5220.got - 2010.06.03 17:57:02.
