data_PCOD9539492
_publ_section_title
;
Structure prediction by ZEFSAII (Michael W. Deem and Ramdas Pophale) SiO2 
 PCOD9539492
Probable space group: I M M A
;
_chemical_formula_sum "Si O2"
_cell_formula_units_Z 96
_cell_length_a 22.863756
_cell_length_b 18.635127
_cell_length_c 11.871853
_cell_angle_alpha 90.000000
_cell_angle_beta 90.000000
_cell_angle_gamma 90.000000
_cell_volume 5058.228497
_symmetry_space_group_name_H-M "I M M A"
_symmetry_group_IT_number 74
_symmetry_cell_setting 'orthorhombic'
loop_
_space_group_symop_operation_xyz
x,y,z
-x,1/2-y,z
x,-y,-z
-x,1/2+y,-z
-x,-y,-z
x,1/2+y,-z
-x,y,z
x,1/2-y,z
1/2+x,1/2+y,1/2+z
1/2-x,-y,1/2+z
1/2+x,1/2-y,1/2-z
1/2-x,y,1/2-z
1/2-x,1/2-y,1/2-z
1/2+x,y,1/2-z
1/2-x,1/2+y,1/2+z
1/2+x,-y,1/2+z
loop_
_atom_site_type_symbol
_atom_site_label
_atom_site_fract_x
_atom_site_fract_y
_atom_site_fract_z
Si Si1 0.818409 0.665348 0.027370
Si Si2 0.500000 0.888422 0.936628
Si Si3 0.190855 0.332214 0.617460
Si Si4 0.313347 0.429205 0.304492
Si Si5 0.874153 0.169014 0.378397
Si Si6 0.877597 0.423595 0.799473
Si Si7 0.500000 0.956630 0.182793
O O1 0.824931 0.750000 0.006216
O O2 0.759930 0.655571 0.103217
O O3 0.871779 0.631572 0.097182
O O4 0.808697 0.621682 0.912927
O O5 0.558602 0.845618 0.907947
O O6 0.500000 0.961846 0.863700
O O7 0.500000 0.909165 0.068646
O O8 0.181775 0.250000 0.657968
O O9 0.162992 0.337504 0.493087
O O10 0.158230 0.387837 0.696723
O O11 0.250000 0.442760 0.250000
O O12 0.351472 0.387986 0.211122
O O13 0.344994 0.503350 0.333749
O O14 0.866053 0.250000 0.335136
O O15 0.942254 0.440403 0.755147
#
# Coordination Sequence:
#
# PCOD9539492 Si02
#       7
#    16   8  16  16  16  16   8
#     4  11  24  43  64  91 130 171 207 254 320 385
#     4  11  21  44  63  93 131 169 207 256 320 372
#     4  10  21  39  65  96 129 164 202 257 321 380
#     4  12  24  40  65  96 129 164 209 260 315 378
#     4  11  22  38  65  98 130 164 207 255 311 378
#     4  12  24  42  63  94 127 164 214 264 318 374
#     4  11  24  40  66  90 127 167 208 270 319 366
#
# _framework density 18.978978000000001
#
# number of rings (size 3 to 8) (size 9 to 14) (size 15 to 20)
#    0.000    0.833    5.000    3.250    0.000    2.667 
#    0.000    4.167    0.000    0.000    0.000    0.000 
#    0.000    0.000    0.000    0.000    0.000    0.000 
#
# Total GULP energy -268458.617348 kJ/mol
# GULP energy per Si atom -5592.887861 kJ/mol
# Density = 1.893578 g / cm^3
# Si number density = 18.978978 Si / 1000 Ang^3
#
#
#
# Elastic Constant Matrix: (Units=GPa)
#
#
# Indices 1 2 3 4 5 6 
#
# 1 108.4554 34.2198 31.1520 0.0000 0.0000 0.0000
# 2 34.2198 104.4422 29.9112 0.0000 0.0000 0.0000
# 3 31.1520 29.9112 53.5105 0.0000 0.0000 0.0000
# 4 0.0000 0.0000 0.0000 35.3658 0.0000 0.0000
# 5 0.0000 0.0000 0.0000 0.0000 32.4407 0.0000
# 6 0.0000 0.0000 0.0000 0.0000 0.0000 28.7497
#
#
#
# Elastic Compliance Matrix: (Units=1/GPa)
#
#
# Indices 1 2 3 4 5 6 
#
# 1 0.011481 -0.002200 -0.005454 0.000000 0.000000 0.000000
# 2 -0.002200 0.011821 -0.005327 0.000000 0.000000 0.000000
# 3 -0.005454 -0.005327 0.024841 0.000000 0.000000 0.000000
# 4 0.000000 0.000000 0.000000 0.028276 0.000000 0.000000
# 5 0.000000 0.000000 0.000000 0.000000 0.030825 0.000000
# 6 0.000000 0.000000 0.000000 0.000000 0.000000 0.034783
#
#
# Mechanical properties :
#
#
# Convention : Reuss Voigt Hill
#
# Bulk Modulus (GPa) = 45.08390 50.77490 47.92940
# Shear Modulus (GPa) = 28.50897 30.71956 29.61426
#
# Velocity S-wave (km/s) = 3.87994 4.02756 3.95444
# Velocity P-wave (km/s) = 6.62406 6.95986 6.79403
#
# Compressibility (1/GPa) = 0.02218087
#
# Stress axis : x y z
#
# Youngs Moduli (GPa) = 87.09977 84.59513 40.25600
#
# Poissons Ratio (x) = 0.18608 0.21957
# Poissons Ratio (y) = 0.19159 0.21445
# Poissons Ratio (z) = 0.47507 0.45065
#
# Static dielectric constant tensor:
#      x y z
#    x 1.627640 0.000000 0.000000 
#    y 0.000000 1.641970 0.000000 
#    z 0.000000 0.000000 1.647880 
# 
# From -- ./inp_files/25213.got.cif
#   From: 2010.05.17/outbox.cif.g08.bks.cpg/sg74_13_cif.got.tgz:25213.got - 2010.06.03 17:57:02.
