data_PCOD9539865
_publ_section_title
;
Structure prediction by ZEFSAII (Michael W. Deem and Ramdas Pophale) SiO2 
 PCOD9539865
Probable space group: I M M A
;
_chemical_formula_sum "Si O2"
_cell_formula_units_Z 48
_cell_length_a 15.092759
_cell_length_b 7.500420
_cell_length_c 22.721816
_cell_angle_alpha 90.000000
_cell_angle_beta 90.000000
_cell_angle_gamma 90.000000
_cell_volume 2572.155730
_symmetry_space_group_name_H-M "I M M A"
_symmetry_group_IT_number 74
_symmetry_cell_setting 'orthorhombic'
loop_
_space_group_symop_operation_xyz
x,y,z
-x,1/2-y,z
x,-y,-z
-x,1/2+y,-z
-x,-y,-z
x,1/2+y,-z
-x,y,z
x,1/2-y,z
1/2+x,1/2+y,1/2+z
1/2-x,-y,1/2+z
1/2+x,1/2-y,1/2-z
1/2-x,y,1/2-z
1/2-x,1/2-y,1/2-z
1/2+x,y,1/2-z
1/2-x,1/2+y,1/2+z
1/2+x,-y,1/2+z
loop_
_atom_site_type_symbol
_atom_site_label
_atom_site_fract_x
_atom_site_fract_y
_atom_site_fract_z
Si Si1 0.400412 0.960669 0.653340
Si Si2 0.602173 0.750000 0.114961
Si Si3 0.263084 0.960291 0.931511
Si Si4 0.856231 0.750000 0.248332
O O1 0.500000 0.993258 0.630345
O O2 0.392710 0.750000 0.666417
O O3 0.323832 0.007098 0.606855
O O4 0.386951 0.078601 0.711256
O O5 0.500000 0.750000 0.096473
O O6 0.655663 0.579344 0.090929
O O7 0.608390 0.750000 0.185665
O O8 0.280375 0.750000 0.924099
O O9 0.247278 0.000000 0.000000
O O10 0.750000 0.750000 0.250000
#
# Coordination Sequence:
#
# PCOD9539865 Si02
#       4
#    16   8  16   8
#     4  10  22  40  65  97 130 162 202 257 319 382
#     4  12  26  43  64  93 124 169 218 260 314 370
#     4  11  23  42  64  90 128 166 210 260 311 372
#     4  12  22  41  69  92 127 169 208 259 318 372
#
# _framework density 18.661390000000001
#
# number of rings (size 3 to 8) (size 9 to 14) (size 15 to 20)
#    0.000    1.000    5.000    1.500    0.000    4.000 
#    0.000    0.000    0.000    0.000    0.000    0.000 
#    0.000    0.000    0.000    0.000    0.000    0.000 
#
# Total GULP energy -134145.537591 kJ/mol
# GULP energy per Si atom -5589.397400 kJ/mol
# Density = 1.861892 g / cm^3
# Si number density = 18.661390 Si / 1000 Ang^3
#
#
#
# Elastic Constant Matrix: (Units=GPa)
#
#
# Indices 1 2 3 4 5 6 
#
# 1 144.9647 53.9919 22.3993 0.0000 0.0000 0.0000
# 2 53.9919 91.0184 35.4265 0.0000 0.0000 0.0000
# 3 22.3993 35.4265 108.9838 0.0000 0.0000 0.0000
# 4 0.0000 0.0000 0.0000 29.3784 0.0000 0.0000
# 5 0.0000 0.0000 0.0000 0.0000 -0.7363 0.0000
# 6 0.0000 0.0000 0.0000 0.0000 0.0000 32.9809
#
#
#
# Elastic Compliance Matrix: (Units=1/GPa)
#
#
# Indices 1 2 3 4 5 6 
#
# 1 0.008856 -0.005203 -0.000129 0.000000 0.000000 0.000000
# 2 -0.005203 0.015635 -0.004013 0.000000 0.000000 0.000000
# 3 -0.000129 -0.004013 0.010507 0.000000 0.000000 0.000000
# 4 0.000000 0.000000 0.000000 0.034039 0.000000 0.000000
# 5 0.000000 0.000000 0.000000 0.000000 -1.358091 0.000000
# 6 0.000000 0.000000 0.000000 0.000000 0.000000 0.030321
#
#
# Mechanical properties :
#
#
# Convention : Reuss Voigt Hill
#
# Bulk Modulus (GPa) = 61.32019 63.17803 62.24911
# Shear Modulus (GPa) = -4.04987 27.86787 11.90900
#
# Velocity S-wave (km/s) = -1.47475 3.86857 2.52893
# Velocity P-wave (km/s) = 5.48004 7.34050 6.47741
#
# Compressibility (1/GPa) = 0.01630784
#
# Stress axis : x y z
#
# Youngs Moduli (GPa) = 112.91671 63.95775 95.17798
#
# Poissons Ratio (x) = 0.33279 0.01226
# Poissons Ratio (y) = 0.58754 0.38195
# Poissons Ratio (z) = 0.01454 0.25666
#
# Static dielectric constant tensor:
#      x y z
#    x 1.642740 0.000000 0.000000 
#    y 0.000000 1.643160 0.000000 
#    z 0.000000 0.000000 1.606570 
# 
# From -- ./inp_files/42033.got.cif
#   From: 2010.05.17/outbox.cif.g08.bks.cpg/sg74_22_cif.got.tgz:42033.got - 2010.06.03 17:57:02.
