data_PCOD9539273
_publ_section_title
;
Structure prediction by ZEFSAII (Michael W. Deem and Ramdas Pophale) SiO2 
 PCOD9539273
Probable space group: I M M A
;
_chemical_formula_sum "Si O2"
_cell_formula_units_Z 88
_cell_length_a 9.088909
_cell_length_b 22.183215
_cell_length_c 23.491359
_cell_angle_alpha 90.000000
_cell_angle_beta 90.000000
_cell_angle_gamma 90.000000
_cell_volume 4736.356519
_symmetry_space_group_name_H-M "I M M A"
_symmetry_group_IT_number 74
_symmetry_cell_setting 'orthorhombic'
loop_
_space_group_symop_operation_xyz
x,y,z
-x,1/2-y,z
x,-y,-z
-x,1/2+y,-z
-x,-y,-z
x,1/2+y,-z
-x,y,z
x,1/2-y,z
1/2+x,1/2+y,1/2+z
1/2-x,-y,1/2+z
1/2+x,1/2-y,1/2-z
1/2-x,y,1/2-z
1/2-x,1/2-y,1/2-z
1/2+x,y,1/2-z
1/2-x,1/2+y,1/2+z
1/2+x,-y,1/2+z
loop_
_atom_site_type_symbol
_atom_site_label
_atom_site_fract_x
_atom_site_fract_y
_atom_site_fract_z
Si Si1 0.821251 0.750000 0.812955
Si Si2 0.324293 0.997443 0.689534
Si Si3 0.332740 0.677967 0.306463
Si Si4 0.327391 0.096500 0.888405
Si Si5 0.173753 0.567485 0.516130
Si Si6 0.175839 0.624746 0.873701
O O1 0.750000 0.750000 0.750000
O O2 0.778745 0.810476 0.848105
O O3 0.000000 0.750000 0.807122
O O4 0.500000 0.005419 0.692661
O O5 0.250000 0.010713 0.750000
O O6 0.293387 0.928487 0.671502
O O7 0.257047 0.040550 0.640819
O O8 0.500000 0.655514 0.307912
O O9 0.336471 0.750000 0.305045
O O10 0.250000 0.656337 0.250000
O O11 0.240719 0.654754 0.359195
O O12 0.500000 0.089751 0.875840
O O13 0.310200 0.100557 0.955929
O O14 0.228685 0.500000 0.500000
O O15 0.251093 0.602100 0.567595
O O16 0.000000 0.561416 0.530366
O O17 0.000000 0.626975 0.882543
#
# Coordination Sequence:
#
# PCOD9539273 Si02
#       6
#     8  16  16  16  16  16
#     4  10  22  42  64  92 124 160 205 252 305 360
#     4  11  22  35  55  85 116 150 190 237 292 350
#     4  10  21  38  59  83 113 149 188 232 283 340
#     4  11  22  37  58  83 114 151 190 239 288 344
#     4  10  21  39  61  85 115 151 192 237 289 347
#     4  10  22  39  61  87 119 156 197 245 297 355
#
# _framework density 18.579681999999998
#
# number of rings (size 3 to 8) (size 9 to 14) (size 15 to 20)
#    0.000    1.636    1.818    2.727    0.000    4.364 
#    1.636    0.000    0.000    0.000    0.000    0.000 
#    0.000    0.000    0.000    0.000    0.000    0.000 
#
# Total GULP energy -245648.662866 kJ/mol
# GULP energy per Si atom -5582.924156 kJ/mol
# Density = 1.853739 g / cm^3
# Si number density = 18.579682 Si / 1000 Ang^3
#
#
#
# Elastic Constant Matrix: (Units=GPa)
#
#
# Indices 1 2 3 4 5 6 
#
# 1 66.9315 33.3135 62.8085 0.0000 0.0000 0.0000
# 2 33.3135 99.3536 56.6784 0.0000 0.0000 0.0000
# 3 62.8085 56.6784 109.3593 0.0000 0.0000 0.0000
# 4 0.0000 0.0000 0.0000 36.3811 0.0000 0.0000
# 5 0.0000 0.0000 0.0000 0.0000 36.8444 0.0000
# 6 0.0000 0.0000 0.0000 0.0000 0.0000 17.8179
#
#
#
# Elastic Compliance Matrix: (Units=1/GPa)
#
#
# Indices 1 2 3 4 5 6 
#
# 1 0.032415 -0.000353 -0.018434 0.000000 0.000000 0.000000
# 2 -0.000353 0.014294 -0.007206 0.000000 0.000000 0.000000
# 3 -0.018434 -0.007206 0.023466 0.000000 0.000000 0.000000
# 4 0.000000 0.000000 0.000000 0.027487 0.000000 0.000000
# 5 0.000000 0.000000 0.000000 0.000000 0.027141 0.000000
# 6 0.000000 0.000000 0.000000 0.000000 0.000000 0.056123
#
#
# Mechanical properties :
#
#
# Convention : Reuss Voigt Hill
#
# Bulk Modulus (GPa) = 54.97567 64.58280 59.77923
# Shear Modulus (GPa) = 20.92280 26.39827 23.66054
#
# Velocity S-wave (km/s) = 3.35940 3.77346 3.57243
# Velocity P-wave (km/s) = 6.68586 7.33626 7.01860
#
# Compressibility (1/GPa) = 0.01818987
#
# Stress axis : x y z
#
# Youngs Moduli (GPa) = 30.85031 69.95968 42.61498
#
# Poissons Ratio (x) = 0.02467 0.78556
# Poissons Ratio (y) = 0.01088 0.30707
# Poissons Ratio (z) = 0.56869 0.50411
#
# Static dielectric constant tensor:
#      x y z
#    x 1.633480 0.000000 0.000000 
#    y 0.000000 1.674940 0.000000 
#    z 0.000000 0.000000 1.593250 
# 
# From -- ./inp_files/48693.got.cif
#   From: 2010.05.17/outbox.cif.g08.bks.cpg/sg74_25_cif.got.tgz:48693.got - 2010.06.03 17:57:02.
