data_PCOD9539522
_publ_section_title
;
Structure prediction by ZEFSAII (Michael W. Deem and Ramdas Pophale) SiO2 
 PCOD9539522
Probable space group: I M M A
;
_chemical_formula_sum "Si O2"
_cell_formula_units_Z 56
_cell_length_a 11.942651
_cell_length_b 14.287671
_cell_length_c 15.224157
_cell_angle_alpha 90.000000
_cell_angle_beta 90.000000
_cell_angle_gamma 90.000000
_cell_volume 2597.738532
_symmetry_space_group_name_H-M "I M M A"
_symmetry_group_IT_number 74
_symmetry_cell_setting 'orthorhombic'
loop_
_space_group_symop_operation_xyz
x,y,z
-x,1/2-y,z
x,-y,-z
-x,1/2+y,-z
-x,-y,-z
x,1/2+y,-z
-x,y,z
x,1/2-y,z
1/2+x,1/2+y,1/2+z
1/2-x,-y,1/2+z
1/2+x,1/2-y,1/2-z
1/2-x,y,1/2-z
1/2-x,1/2-y,1/2-z
1/2+x,y,1/2-z
1/2-x,1/2+y,1/2+z
1/2+x,-y,1/2+z
loop_
_atom_site_type_symbol
_atom_site_label
_atom_site_fract_x
_atom_site_fract_y
_atom_site_fract_z
Si Si1 0.674718 0.250000 0.903634
Si Si2 0.250000 0.404598 0.250000
Si Si3 0.759846 0.540512 0.090478
Si Si4 0.500000 0.250000 0.747272
Si Si5 0.500000 0.380958 0.227164
Si Si6 0.500000 0.553395 0.345284
Si Si7 0.500000 0.750000 0.937923
O O1 0.735977 0.349601 0.901086
O O2 0.602853 0.250000 0.814576
O O3 0.603601 0.250000 0.994369
O O4 0.278493 0.473462 0.169026
O O5 0.372122 0.353681 0.263036
O O6 0.892502 0.531444 0.097883
O O7 0.714025 0.500000 0.000000
O O8 0.500000 0.341022 0.687675
O O9 0.500000 0.489009 0.257873
O O10 0.500000 0.338554 0.128863
#
# Coordination Sequence:
#
# PCOD9539522 Si02
#       7
#     8   8  16   4   8   8   4
#     4  11  23  36  59  91 120 158 202 261 323 367
#     4  10  22  40  66  92 126 172 210 262 322 370
#     4  11  22  39  61  90 127 162 207 257 312 377
#     4  11  22  38  60  89 118 148 202 263 318 373
#     4  10  21  40  61  89 124 166 214 252 305 373
#     4  10  22  39  62  88 119 163 205 256 316 372
#     4  11  24  40  60  89 128 168 214 259 308 377
#
# _framework density 21.557210999999999
#
# number of rings (size 3 to 8) (size 9 to 14) (size 15 to 20)
#    0.000    1.429    0.000    6.429    0.000    3.429 
#    0.000   10.714    0.000    3.429    0.000    0.000 
#    0.000    0.000    0.000    0.000    0.000    0.000 
#
# Total GULP energy -155902.053729 kJ/mol
# GULP energy per Si atom -5567.930490 kJ/mol
# Density = 2.150815 g / cm^3
# Si number density = 21.557211 Si / 1000 Ang^3
#
#
#
# Elastic Constant Matrix: (Units=GPa)
#
#
# Indices 1 2 3 4 5 6 
#
# 1 126.2752 10.3646 -0.2164 0.0000 0.0000 0.0000
# 2 10.3646 123.7785 32.9195 0.0000 0.0000 0.0000
# 3 -0.2164 32.9195 123.7802 0.0000 0.0000 0.0000
# 4 0.0000 0.0000 0.0000 34.8956 0.0000 0.0000
# 5 0.0000 0.0000 0.0000 0.0000 2.6936 0.0000
# 6 0.0000 0.0000 0.0000 0.0000 0.0000 37.4118
#
#
#
# Elastic Compliance Matrix: (Units=1/GPa)
#
#
# Indices 1 2 3 4 5 6 
#
# 1 0.007979 -0.000723 0.000206 0.000000 0.000000 0.000000
# 2 -0.000723 0.008759 -0.002331 0.000000 0.000000 0.000000
# 3 0.000206 -0.002331 0.008699 0.000000 0.000000 0.000000
# 4 0.000000 0.000000 0.000000 0.028657 0.000000 0.000000
# 5 0.000000 0.000000 0.000000 0.000000 0.371249 0.000000
# 6 0.000000 0.000000 0.000000 0.000000 0.000000 0.026730
#
#
# Mechanical properties :
#
#
# Convention : Reuss Voigt Hill
#
# Bulk Modulus (GPa) = 50.65285 51.10771 50.88028
# Shear Modulus (GPa) = 10.76777 37.05128 23.90953
#
# Velocity S-wave (km/s) = 2.23737 4.15027 3.33396
# Velocity P-wave (km/s) = 5.49749 6.83562 6.20275
#
# Compressibility (1/GPa) = 0.01974222
#
# Stress axis : x y z
#
# Youngs Moduli (GPa) = 125.33050 114.16333 114.95458
#
# Poissons Ratio (x) = 0.08254 -0.02371
# Poissons Ratio (y) = 0.09061 0.26794
# Poissons Ratio (z) = -0.02585 0.26610
#
# Static dielectric constant tensor:
#      x y z
#    x 1.886210 0.000000 0.000000 
#    y 0.000000 1.927380 0.000000 
#    z 0.000000 0.000000 1.760110 
# 
# From -- ./inp_files/30002.got.cif
#   From: 2010.05.17/outbox.cif.g08.bks.cpg/sg74_16_cif.got.tgz:30002.got - 2010.06.03 17:57:02.
