data_PCOD9539254
_publ_section_title
;
Structure prediction by ZEFSAII (Michael W. Deem and Ramdas Pophale) SiO2 
 PCOD9539254
Probable space group: I M M A
;
_chemical_formula_sum "Si O2"
_cell_formula_units_Z 84
_cell_length_a 20.830455
_cell_length_b 7.487141
_cell_length_c 25.642062
_cell_angle_alpha 90.000000
_cell_angle_beta 90.000000
_cell_angle_gamma 90.000000
_cell_volume 3999.150187
_symmetry_space_group_name_H-M "I M M A"
_symmetry_group_IT_number 74
_symmetry_cell_setting 'orthorhombic'
loop_
_space_group_symop_operation_xyz
x,y,z
-x,1/2-y,z
x,-y,-z
-x,1/2+y,-z
-x,-y,-z
x,1/2+y,-z
-x,y,z
x,1/2-y,z
1/2+x,1/2+y,1/2+z
1/2-x,-y,1/2+z
1/2+x,1/2-y,1/2-z
1/2-x,y,1/2-z
1/2-x,1/2-y,1/2-z
1/2+x,y,1/2-z
1/2-x,1/2+y,1/2+z
1/2+x,-y,1/2+z
loop_
_atom_site_type_symbol
_atom_site_label
_atom_site_fract_x
_atom_site_fract_y
_atom_site_fract_z
Si Si1 0.753610 0.049063 0.831608
Si Si2 0.500000 0.750000 0.645122
Si Si3 0.616848 0.033311 0.799072
Si Si4 0.709965 0.549117 0.942338
Si Si5 0.430147 0.966255 0.088117
Si Si6 0.399223 0.467732 0.682786
O O1 0.758375 0.250000 0.810596
O O2 0.690517 0.966631 0.804681
O O3 0.824819 0.977870 0.824977
O O4 0.735862 0.057280 0.892881
O O5 0.444455 0.591147 0.648584
O O6 0.620019 0.250000 0.801013
O O7 0.579383 0.979767 0.851201
O O8 0.586274 0.989821 0.743752
O O9 0.729094 0.750000 0.931147
O O10 0.632633 0.534480 0.940980
O O11 0.732346 0.500000 0.000000
O O12 0.500000 0.025705 0.069221
O O13 0.428176 0.750000 0.085767
O O14 0.405797 0.250000 0.674980
#
# Coordination Sequence:
#
# PCOD9539254 Si02
#       6
#    16   4  16  16  16  16
#     4   9  18  36  60  82 107 143 187 230 286 333
#     4  12  26  36  50  86 118 152 192 236 264 350
#     4   8  15  31  55  79 107 150 193 230 267 322
#     4  11  22  36  55  79 109 137 178 236 281 333
#     4   9  18  33  53  75 106 153 194 226 269 321
#     4  10  21  38  58  80 116 155 190 230 283 331
#
# _framework density 21.004463000000001
#
# number of rings (size 3 to 8) (size 9 to 14) (size 15 to 20)
#    0.000    2.476    0.000    3.714    2.667    3.048 
#    6.857    0.952    0.000    0.000    0.000    0.667 
#    0.000    0.000    0.000    0.000    0.000    0.000 
#
# Total GULP energy -233821.916942 kJ/mol
# GULP energy per Si atom -5567.188499 kJ/mol
# Density = 2.095666 g / cm^3
# Si number density = 21.004463 Si / 1000 Ang^3
#
#
#
# Elastic Constant Matrix: (Units=GPa)
#
#
# Indices 1 2 3 4 5 6 
#
# 1 67.7200 9.0740 1.2874 0.0000 0.0000 0.0000
# 2 9.0740 91.9424 -0.2136 0.0000 0.0000 0.0000
# 3 1.2874 -0.2136 58.5583 0.0000 0.0000 0.0000
# 4 0.0000 0.0000 0.0000 3.8210 0.0000 0.0000
# 5 0.0000 0.0000 0.0000 0.0000 -5.1305 0.0000
# 6 0.0000 0.0000 0.0000 0.0000 0.0000 42.0773
#
#
#
# Elastic Compliance Matrix: (Units=1/GPa)
#
#
# Indices 1 2 3 4 5 6 
#
# 1 0.014971 -0.001478 -0.000335 0.000000 0.000000 0.000000
# 2 -0.001478 0.011022 0.000073 0.000000 0.000000 0.000000
# 3 -0.000335 0.000073 0.017085 0.000000 0.000000 0.000000
# 4 0.000000 0.000000 0.000000 0.261713 0.000000 0.000000
# 5 0.000000 0.000000 0.000000 0.000000 -0.194912 0.000000
# 6 0.000000 0.000000 0.000000 0.000000 0.000000 0.023766
#
#
# Mechanical properties :
#
#
# Convention : Reuss Voigt Hill
#
# Bulk Modulus (GPa) = 25.25386 26.50182 25.87784
# Shear Modulus (GPa) = 33.26129 22.02506 27.64318
#
# Velocity S-wave (km/s) = 3.98368 3.24171 3.63169
# Velocity P-wave (km/s) = 5.76271 5.16296 5.47106
#
# Compressibility (1/GPa) = 0.03959791
#
# Stress axis : x y z
#
# Youngs Moduli (GPa) = 66.79520 90.72395 58.53215
#
# Poissons Ratio (x) = 0.13412 0.01958
# Poissons Ratio (y) = 0.09874 -0.00426
# Poissons Ratio (z) = 0.02235 -0.00660
#
# Static dielectric constant tensor:
#      x y z
#    x 1.763780 0.000000 0.000000 
#    y 0.000000 1.855120 0.000000 
#    z 0.000000 0.000000 1.764210 
# 
# From -- ./inp_files/68058.got.cif
#   From: 2010.05.17/outbox.cif.g08.bks.cpg/sg74_35_cif.got.tgz:68058.got - 2010.06.03 17:57:02.
