data_PCOD9539960
_publ_section_title
;
Structure prediction by ZEFSAII (Michael W. Deem and Ramdas Pophale) SiO2 
 PCOD9539960
Probable space group: I M M A
;
_chemical_formula_sum "Si O2"
_cell_formula_units_Z 44
_cell_length_a 12.944443
_cell_length_b 8.287044
_cell_length_c 18.080656
_cell_angle_alpha 90.000000
_cell_angle_beta 90.000000
_cell_angle_gamma 90.000000
_cell_volume 1939.533100
_symmetry_space_group_name_H-M "I M M A"
_symmetry_group_IT_number 74
_symmetry_cell_setting 'orthorhombic'
loop_
_space_group_symop_operation_xyz
x,y,z
-x,1/2-y,z
x,-y,-z
-x,1/2+y,-z
-x,-y,-z
x,1/2+y,-z
-x,y,z
x,1/2-y,z
1/2+x,1/2+y,1/2+z
1/2-x,-y,1/2+z
1/2+x,1/2-y,1/2-z
1/2-x,y,1/2-z
1/2-x,1/2-y,1/2-z
1/2+x,y,1/2-z
1/2-x,1/2+y,1/2+z
1/2+x,-y,1/2+z
loop_
_atom_site_type_symbol
_atom_site_label
_atom_site_fract_x
_atom_site_fract_y
_atom_site_fract_z
Si Si1 0.122436 0.250000 0.516574
Si Si2 0.226314 0.576800 0.118337
Si Si3 0.000000 0.931890 0.128352
Si Si4 0.000000 0.250000 0.230711
Si Si5 0.814193 0.250000 0.344886
O O1 0.183222 0.393931 0.558801
O O2 0.142740 0.250000 0.429277
O O3 0.000000 0.250000 0.530800
O O4 0.227500 0.750000 0.160220
O O5 0.109948 0.561538 0.086589
O O6 0.249467 0.414208 0.161195
O O7 0.000000 0.750000 0.163422
O O8 0.000000 0.085689 0.182552
O O9 0.902932 0.250000 0.285137
#
# Coordination Sequence:
#
# PCOD9539960 Si02
#       5
#     8  16   8   4   8
#     4  10  22  42  69 101 141 168 219 285 347 404
#     4   9  23  40  70  94 133 180 221 287 331 388
#     4  10  22  50  65  95 135 177 242 270 324 398
#     4  12  28  38  74  98 140 188 208 284 332 410
#     4  12  23  40  62 108 137 175 218 271 351 408
#
# _framework density 22.685873000000001
#
# number of rings (size 3 to 8) (size 9 to 14) (size 15 to 20)
#    1.091    0.727    0.909    2.182    2.545    5.818 
#    0.000    9.091    0.000    0.000    0.000    0.000 
#    0.000    0.000    0.000    0.000    0.000    0.000 
#
# Total GULP energy -122480.994396 kJ/mol
# GULP energy per Si atom -5567.317927 kJ/mol
# Density = 2.263424 g / cm^3
# Si number density = 22.685873 Si / 1000 Ang^3
#
#
#
# Elastic Constant Matrix: (Units=GPa)
#
#
# Indices 1 2 3 4 5 6 
#
# 1 225.4617 54.5532 54.8139 0.0000 0.0000 0.0000
# 2 54.5532 223.8722 38.3898 0.0000 0.0000 0.0000
# 3 54.8139 38.3898 84.7176 0.0000 0.0000 0.0000
# 4 0.0000 0.0000 0.0000 -9.6566 0.0000 0.0000
# 5 0.0000 0.0000 0.0000 0.0000 2.1486 0.0000
# 6 0.0000 0.0000 0.0000 0.0000 0.0000 28.1305
#
#
#
# Elastic Compliance Matrix: (Units=1/GPa)
#
#
# Indices 1 2 3 4 5 6 
#
# 1 0.005384 -0.000775 -0.003133 0.000000 0.000000 0.000000
# 2 -0.000775 0.004955 -0.001744 0.000000 0.000000 0.000000
# 3 -0.003133 -0.001744 0.014621 0.000000 0.000000 0.000000
# 4 0.000000 0.000000 0.000000 -0.103557 0.000000 0.000000
# 5 0.000000 0.000000 0.000000 0.000000 0.465420 0.000000
# 6 0.000000 0.000000 0.000000 0.000000 0.000000 0.035549
#
#
# Mechanical properties :
#
#
# Convention : Reuss Voigt Hill
#
# Bulk Modulus (GPa) = 73.22079 92.17393 82.69736
# Shear Modulus (GPa) = 11.40959 29.87748 20.64354
#
# Velocity S-wave (km/s) = 2.24506 3.63300 3.01985
# Velocity P-wave (km/s) = 6.25031 7.63656 6.97794
#
# Compressibility (1/GPa) = 0.01365732
#
# Stress axis : x y z
#
# Youngs Moduli (GPa) = 185.71990 201.82872 68.39448
#
# Poissons Ratio (x) = 0.15639 0.21426
# Poissons Ratio (y) = 0.14391 0.11927
# Poissons Ratio (z) = 0.58180 0.35196
#
# Static dielectric constant tensor:
#      x y z
#    x 1.851240 0.000000 0.000000 
#    y 0.000000 1.901320 0.000000 
#    z 0.000000 0.000000 1.791850 
# 
# From -- ./inp_files/58025.got.cif
#   From: 2010.05.17/outbox.cif.g08.bks.cpg/sg74_30_cif.got.tgz:58025.got - 2010.06.03 17:57:02.
