data_PCOD9539552
_publ_section_title
;
Structure prediction by ZEFSAII (Michael W. Deem and Ramdas Pophale) SiO2 
 PCOD9539552
Probable space group: I M M A
;
_chemical_formula_sum "Si O2"
_cell_formula_units_Z 80
_cell_length_a 22.496951
_cell_length_b 15.198181
_cell_length_c 11.058919
_cell_angle_alpha 90.000000
_cell_angle_beta 90.000000
_cell_angle_gamma 90.000000
_cell_volume 3781.185222
_symmetry_space_group_name_H-M "I M M A"
_symmetry_group_IT_number 74
_symmetry_cell_setting 'orthorhombic'
loop_
_space_group_symop_operation_xyz
x,y,z
-x,1/2-y,z
x,-y,-z
-x,1/2+y,-z
-x,-y,-z
x,1/2+y,-z
-x,y,z
x,1/2-y,z
1/2+x,1/2+y,1/2+z
1/2-x,-y,1/2+z
1/2+x,1/2-y,1/2-z
1/2-x,y,1/2-z
1/2-x,1/2-y,1/2-z
1/2+x,y,1/2-z
1/2-x,1/2+y,1/2+z
1/2+x,-y,1/2+z
loop_
_atom_site_type_symbol
_atom_site_label
_atom_site_fract_x
_atom_site_fract_y
_atom_site_fract_z
Si Si1 0.681695 0.148685 0.766327
Si Si2 0.107035 0.504652 0.630827
Si Si3 0.290959 0.349888 0.135228
Si Si4 0.435501 0.568560 0.614332
Si Si5 0.178494 0.894580 0.000920
O O1 0.680702 0.250000 0.804599
O O2 0.750000 0.118639 0.750000
O O3 0.643558 0.085139 0.848770
O O4 0.657039 0.138214 0.630491
O O5 0.075820 0.500000 0.500000
O O6 0.156432 0.581538 0.622528
O O7 0.071062 0.522988 0.754315
O O8 0.312313 0.250000 0.149679
O O9 0.250000 0.374856 0.250000
O O10 0.241966 0.353262 0.029203
O O11 0.434908 0.500000 0.500000
O O12 0.500000 0.613526 0.609775
O O13 0.374956 0.623155 0.592948
O O14 0.188564 0.000000 0.000000
#
# Coordination Sequence:
#
# PCOD9539552 Si02
#       5
#    16  16  16  16  16
#     4  11  22  36  58  91 129 166 203 249 309 376
#     4  12  23  38  62  91 127 163 203 255 316 380
#     4  11  21  33  56  90 128 164 202 249 312 381
#     4  10  21  40  66  88 115 163 216 263 305 360
#     4  11  18  36  62  87 121 162 206 254 304 371
#
# _framework density 21.157387
#
# number of rings (size 3 to 8) (size 9 to 14) (size 15 to 20)
#    0.000    1.000    6.000    4.200    0.000    2.800 
#    0.000    0.000    0.000    7.200    0.000    2.800 
#    0.000    0.000    0.000    0.000    0.000    0.000 
#
# Total GULP energy -223361.610123 kJ/mol
# GULP energy per Si atom -5584.040253 kJ/mol
# Density = 2.110923 g / cm^3
# Si number density = 21.157387 Si / 1000 Ang^3
#
#
#
# Elastic Constant Matrix: (Units=GPa)
#
#
# Indices 1 2 3 4 5 6 
#
# 1 80.7517 20.2224 13.8305 0.0000 0.0000 0.0000
# 2 20.2224 68.5651 4.4874 0.0000 0.0000 0.0000
# 3 13.8305 4.4874 149.4509 0.0000 0.0000 0.0000
# 4 0.0000 0.0000 0.0000 11.6933 0.0000 0.0000
# 5 0.0000 0.0000 0.0000 0.0000 6.1961 0.0000
# 6 0.0000 0.0000 0.0000 0.0000 0.0000 6.1372
#
#
#
# Elastic Compliance Matrix: (Units=1/GPa)
#
#
# Indices 1 2 3 4 5 6 
#
# 1 0.013561 -0.003925 -0.001137 0.000000 0.000000 0.000000
# 2 -0.003925 0.015750 -0.000110 0.000000 0.000000 0.000000
# 3 -0.001137 -0.000110 0.006800 0.000000 0.000000 0.000000
# 4 0.000000 0.000000 0.000000 0.085519 0.000000 0.000000
# 5 0.000000 0.000000 0.000000 0.000000 0.161392 0.000000
# 6 0.000000 0.000000 0.000000 0.000000 0.000000 0.162940
#
#
# Mechanical properties :
#
#
# Convention : Reuss Voigt Hill
#
# Bulk Modulus (GPa) = 38.81015 41.76091 40.28553
# Shear Modulus (GPa) = 10.75514 22.15383 16.45449
#
# Velocity S-wave (km/s) = 2.25708 3.23940 2.79179
# Velocity P-wave (km/s) = 5.01756 5.81143 5.42902
#
# Compressibility (1/GPa) = 0.02576645
#
# Stress axis : x y z
#
# Youngs Moduli (GPa) = 73.73863 63.49374 147.06563
#
# Poissons Ratio (x) = 0.24923 0.16723
# Poissons Ratio (y) = 0.28945 0.01612
# Poissons Ratio (z) = 0.08385 0.00696
#
# Static dielectric constant tensor:
#      x y z
#    x 1.755010 0.000000 0.000000 
#    y 0.000000 1.741350 0.000000 
#    z 0.000000 0.000000 1.934170 
# 
# From -- ./inp_files/24884.got.cif
#   From: 2010.05.17/outbox.cif.g08.bks.cpg/sg74_13_cif.got.tgz:24884.got - 2010.06.03 17:57:02.
