data_PCOD9539574
_publ_section_title
;
Structure prediction by ZEFSAII (Michael W. Deem and Ramdas Pophale) SiO2 
 PCOD9539574
Probable space group: I M M A
;
_chemical_formula_sum "Si O2"
_cell_formula_units_Z 92
_cell_length_a 19.915243
_cell_length_b 13.242174
_cell_length_c 17.622705
_cell_angle_alpha 90.000000
_cell_angle_beta 90.000000
_cell_angle_gamma 90.000000
_cell_volume 4647.479378
_symmetry_space_group_name_H-M "I M M A"
_symmetry_group_IT_number 74
_symmetry_cell_setting 'orthorhombic'
loop_
_space_group_symop_operation_xyz
x,y,z
-x,1/2-y,z
x,-y,-z
-x,1/2+y,-z
-x,-y,-z
x,1/2+y,-z
-x,y,z
x,1/2-y,z
1/2+x,1/2+y,1/2+z
1/2-x,-y,1/2+z
1/2+x,1/2-y,1/2-z
1/2-x,y,1/2-z
1/2-x,1/2-y,1/2-z
1/2+x,y,1/2-z
1/2-x,1/2+y,1/2+z
1/2+x,-y,1/2+z
loop_
_atom_site_type_symbol
_atom_site_label
_atom_site_fract_x
_atom_site_fract_y
_atom_site_fract_z
Si Si1 0.874054 0.637362 0.641914
Si Si2 0.579129 0.750000 0.367098
Si Si3 0.000000 0.250000 0.611328
Si Si4 0.638432 0.250000 0.799079
Si Si5 0.359199 0.043914 0.583964
Si Si6 0.500000 0.110132 0.030654
Si Si7 0.221504 0.452579 0.666535
Si Si8 0.579909 0.636527 0.683629
O O1 0.843117 0.750000 0.635492
O O2 0.822654 0.544975 0.634573
O O3 0.904157 0.628228 0.726867
O O4 0.934671 0.631780 0.581779
O O5 0.500000 0.750000 0.349033
O O6 0.623485 0.750000 0.290460
O O7 0.597874 0.646545 0.409779
O O8 0.933636 0.250000 0.661113
O O9 0.000000 0.162606 0.550356
O O10 0.678416 0.149085 0.821807
O O11 0.284119 0.067593 0.612015
O O12 0.360164 0.000000 0.500000
O O13 0.386842 0.955892 0.639357
O O14 0.500000 0.000000 0.000000
O O15 0.250000 0.481196 0.750000
O O16 0.500000 0.630832 0.673116
O O17 0.602214 0.750000 0.659338
#
# Coordination Sequence:
#
# PCOD9539574 Si02
#       8
#    16   8   4   8  16   8  16  16
#     4  11  22  42  69  98 138 181 231 275 337 414
#     4  12  25  47  78 101 135 180 230 295 352 416
#     4  12  26  42  70 110 140 168 228 288 358 402
#     4  12  24  46  75 106 134 183 239 280 344 431
#     4  12  28  46  65 102 141 176 232 291 349 403
#     4  12  24  42  66 104 148 175 220 294 348 407
#     4  12  24  43  71  99 136 187 236 277 337 417
#     4  10  21  40  71  99 129 178 226 276 338 412
#
# _framework density 19.795677000000001
#
# number of rings (size 3 to 8) (size 9 to 14) (size 15 to 20)
#    0.000    0.522    5.652    2.348    1.217    4.522 
#    0.000    0.000    0.000    0.000    0.000    0.000 
#    0.000    0.000    0.000    0.000    0.000    0.000 
#
# Total GULP energy -257131.271052 kJ/mol
# GULP energy per Si atom -5589.810240 kJ/mol
# Density = 1.975062 g / cm^3
# Si number density = 19.795677 Si / 1000 Ang^3
#
#
#
# Elastic Constant Matrix: (Units=GPa)
#
#
# Indices 1 2 3 4 5 6 
#
# 1 96.7677 54.7527 10.5699 0.0000 0.0000 0.0000
# 2 54.7527 152.8735 32.7332 0.0000 0.0000 0.0000
# 3 10.5699 32.7332 84.3155 0.0000 0.0000 0.0000
# 4 0.0000 0.0000 0.0000 25.6171 0.0000 0.0000
# 5 0.0000 0.0000 0.0000 0.0000 49.0029 0.0000
# 6 0.0000 0.0000 0.0000 0.0000 0.0000 25.9127
#
#
#
# Elastic Compliance Matrix: (Units=1/GPa)
#
#
# Indices 1 2 3 4 5 6 
#
# 1 0.012963 -0.004684 0.000193 0.000000 0.000000 0.000000
# 2 -0.004684 0.008827 -0.002840 0.000000 0.000000 0.000000
# 3 0.000193 -0.002840 0.012938 0.000000 0.000000 0.000000
# 4 0.000000 0.000000 0.000000 0.039036 0.000000 0.000000
# 5 0.000000 0.000000 0.000000 0.000000 0.020407 0.000000
# 6 0.000000 0.000000 0.000000 0.000000 0.000000 0.038591
#
#
# Mechanical properties :
#
#
# Convention : Reuss Voigt Hill
#
# Bulk Modulus (GPa) = 49.83106 58.89647 54.36376
# Shear Modulus (GPa) = 32.44358 35.83327 34.13842
#
# Velocity S-wave (km/s) = 4.05275 4.25921 4.15726
# Velocity P-wave (km/s) = 6.86492 7.34878 7.11097
#
# Compressibility (1/GPa) = 0.02006781
#
# Stress axis : x y z
#
# Youngs Moduli (GPa) = 77.14042 113.28728 77.28942
#
# Poissons Ratio (x) = 0.53068 -0.01495
# Poissons Ratio (y) = 0.36135 0.21947
# Poissons Ratio (z) = -0.01492 0.32170
#
# Static dielectric constant tensor:
#      x y z
#    x 1.670900 0.000000 0.000000 
#    y 0.000000 1.686130 0.000000 
#    z 0.000000 0.000000 1.660660 
# 
# From -- ./inp_files/45187.got.cif
#   From: 2010.05.17/outbox.cif.g08.bks.cpg/sg74_23_cif.got.tgz:45187.got - 2010.06.03 17:57:02.
