data_PCOD9539728
_publ_section_title
;
Structure prediction by ZEFSAII (Michael W. Deem and Ramdas Pophale) SiO2 
 PCOD9539728
Probable space group: I M M A
;
_chemical_formula_sum "Si O2"
_cell_formula_units_Z 80
_cell_length_a 26.679292
_cell_length_b 28.740992
_cell_length_c 5.201167
_cell_angle_alpha 90.000000
_cell_angle_beta 90.000000
_cell_angle_gamma 90.000000
_cell_volume 3988.199296
_symmetry_space_group_name_H-M "I M M A"
_symmetry_group_IT_number 74
_symmetry_cell_setting 'orthorhombic'
loop_
_space_group_symop_operation_xyz
x,y,z
-x,1/2-y,z
x,-y,-z
-x,1/2+y,-z
-x,-y,-z
x,1/2+y,-z
-x,y,z
x,1/2-y,z
1/2+x,1/2+y,1/2+z
1/2-x,-y,1/2+z
1/2+x,1/2-y,1/2-z
1/2-x,y,1/2-z
1/2-x,1/2-y,1/2-z
1/2+x,y,1/2-z
1/2-x,1/2+y,1/2+z
1/2+x,-y,1/2+z
loop_
_atom_site_type_symbol
_atom_site_label
_atom_site_fract_x
_atom_site_fract_y
_atom_site_fract_z
Si Si1 0.876953 0.378364 0.256349
Si Si2 0.782599 0.855472 0.009929
Si Si3 0.151205 0.199625 0.643051
Si Si4 0.942621 0.468421 0.247901
Si Si5 0.557571 0.198816 0.503393
O O1 0.831456 0.386075 0.056943
O O2 0.850081 0.346644 0.472111
O O3 0.904707 0.426408 0.303283
O O4 0.919989 0.343176 0.158355
O O5 0.750000 0.848838 0.750000
O O6 0.750000 0.873635 0.250000
O O7 0.809093 0.809062 0.126769
O O8 0.161908 0.250000 0.518972
O O9 0.095523 0.201200 0.759320
O O10 0.943423 0.500000 0.500000
O O11 0.000000 0.451142 0.202472
O O12 0.929170 0.500000 0.000000
O O13 0.500000 0.191248 0.575252
O O14 0.560740 0.250000 0.373604
#
# Coordination Sequence:
#
# PCOD9539728 Si02
#       5
#    16  16  16  16  16
#     4  11  22  39  66  90 126 170 210 263 325 376
#     4  11  23  42  62  93 125 170 217 270 319 373
#     4  10  22  38  60  94 130 172 221 262 312 383
#     4  10  24  43  67 100 130 161 208 261 319 389
#     4   9  19  34  54  87 131 173 212 252 302 375
#
# _framework density 20.059179
#
# number of rings (size 3 to 8) (size 9 to 14) (size 15 to 20)
#    0.000    1.800    2.000    1.200    5.600    3.200 
#    0.000    2.000    0.000    2.400    0.000    0.000 
#    0.000    0.000    0.000    0.000    0.000    0.000 
#
# Total GULP energy -222760.906813 kJ/mol
# GULP energy per Si atom -5569.022670 kJ/mol
# Density = 2.001352 g / cm^3
# Si number density = 20.059179 Si / 1000 Ang^3
#
#
#
# Elastic Constant Matrix: (Units=GPa)
#
#
# Indices 1 2 3 4 5 6 
#
# 1 121.4199 51.4526 22.8690 0.0000 0.0000 0.0000
# 2 51.4526 107.7199 40.4252 0.0000 0.0000 0.0000
# 3 22.8690 40.4252 83.4520 0.0000 0.0000 0.0000
# 4 0.0000 0.0000 0.0000 14.5193 0.0000 0.0000
# 5 0.0000 0.0000 0.0000 0.0000 452.2956 0.0000
# 6 0.0000 0.0000 0.0000 0.0000 0.0000 72.3190
#
#
#
# Elastic Compliance Matrix: (Units=1/GPa)
#
#
# Indices 1 2 3 4 5 6 
#
# 1 0.010346 -0.004739 -0.000539 0.000000 0.000000 0.000000
# 2 -0.004739 0.013517 -0.005249 0.000000 0.000000 0.000000
# 3 -0.000539 -0.005249 0.014673 0.000000 0.000000 0.000000
# 4 0.000000 0.000000 0.000000 0.068874 0.000000 0.000000
# 5 0.000000 0.000000 0.000000 0.000000 0.002211 0.000000
# 6 0.000000 0.000000 0.000000 0.000000 0.000000 0.013828
#
#
# Mechanical properties :
#
#
# Convention : Reuss Voigt Hill
#
# Bulk Modulus (GPa) = 57.20563 60.23172 58.71867
# Shear Modulus (GPa) = 33.26004 121.01646 77.13825
#
# Velocity S-wave (km/s) = 4.07639 7.77565 6.20796
# Velocity P-wave (km/s) = 7.12294 10.52171 8.98451
#
# Compressibility (1/GPa) = 0.01748080
#
# Stress axis : x y z
#
# Youngs Moduli (GPa) = 96.65784 73.98141 68.15041
#
# Poissons Ratio (x) = 0.35062 0.03676
# Poissons Ratio (y) = 0.45809 0.35772
# Poissons Ratio (z) = 0.05214 0.38833
#
# Static dielectric constant tensor:
#      x y z
#    x 1.731320 0.000000 0.000000 
#    y 0.000000 1.728320 0.000000 
#    z 0.000000 0.000000 1.813160 
# 
# From -- ./inp_files/4586.got.cif
#   From: 2010.05.17/outbox.cif.g08.bks.cpg/sg74_3_cif.got.tgz:4586.got - 2010.06.03 17:57:02.
