data_PCOD9539236
_publ_section_title
;
Structure prediction by ZEFSAII (Michael W. Deem and Ramdas Pophale) SiO2 
 PCOD9539236
Probable space group: I M M A
;
_chemical_formula_sum "Si O2"
_cell_formula_units_Z 72
_cell_length_a 10.322874
_cell_length_b 14.270798
_cell_length_c 27.594820
_cell_angle_alpha 90.000000
_cell_angle_beta 90.000000
_cell_angle_gamma 90.000000
_cell_volume 4065.148835
_symmetry_space_group_name_H-M "I M M A"
_symmetry_group_IT_number 74
_symmetry_cell_setting 'orthorhombic'
loop_
_space_group_symop_operation_xyz
x,y,z
-x,1/2-y,z
x,-y,-z
-x,1/2+y,-z
-x,-y,-z
x,1/2+y,-z
-x,y,z
x,1/2-y,z
1/2+x,1/2+y,1/2+z
1/2-x,-y,1/2+z
1/2+x,1/2-y,1/2-z
1/2-x,y,1/2-z
1/2-x,1/2-y,1/2-z
1/2+x,y,1/2-z
1/2-x,1/2+y,1/2+z
1/2+x,-y,1/2+z
loop_
_atom_site_type_symbol
_atom_site_label
_atom_site_fract_x
_atom_site_fract_y
_atom_site_fract_z
Si Si1 0.000000 0.359869 0.189398
Si Si2 0.500000 0.750000 0.978739
Si Si3 0.850180 0.971022 0.208726
Si Si4 0.754117 0.049545 0.900522
Si Si5 0.500000 0.541814 0.944742
Si Si6 0.000000 0.568723 0.921954
Si Si7 0.241140 0.250000 0.551488
Si Si8 0.000000 0.250000 0.010428
O O1 0.877992 0.416800 0.211049
O O2 0.000000 0.387075 0.132335
O O3 0.000000 0.250000 0.196623
O O4 0.624565 0.750000 0.013352
O O5 0.500000 0.654010 0.948784
O O6 0.750000 0.941221 0.250000
O O7 0.789264 0.951298 0.156287
O O8 0.000000 0.932856 0.211746
O O9 0.736847 0.155752 0.917458
O O10 0.625801 0.994418 0.916315
O O11 0.874454 0.997120 0.926338
O O12 0.500000 0.500000 0.000000
O O13 0.000000 0.655918 0.957708
O O14 0.373900 0.250000 0.522310
#
# Coordination Sequence:
#
# PCOD9539236 Si02
#       8
#     8   4  16  16   8   8   8   4
#     4   8  16  34  57  83 120 152 189 244 297 362
#     4  12  24  44  56  96 120 176 208 258 296 374
#     4   9  21  40  63  87 121 156 202 256 316 370
#     4  11  23  42  62  87 125 165 201 262 313 361
#     4  12  24  41  63  87 131 166 210 252 300 374
#     4  10  21  38  55  89 122 163 198 246 304 358
#     4  12  24  38  61  88 121 158 218 253 308 358
#     4  12  24  30  64  88 118 164 204 244 296 376
#
# _framework density 17.711528999999999
#
# number of rings (size 3 to 8) (size 9 to 14) (size 15 to 20)
#    0.667    0.889    3.889    2.000    1.556    1.333 
#    2.000    0.556    2.444    0.000    0.000    0.000 
#    0.000    0.000    0.000    0.000    0.000    0.000 
#
# Total GULP energy -200727.228672 kJ/mol
# GULP energy per Si atom -5575.756352 kJ/mol
# Density = 1.767122 g / cm^3
# Si number density = 17.711529 Si / 1000 Ang^3
#
#
#
# Elastic Constant Matrix: (Units=GPa)
#
#
# Indices 1 2 3 4 5 6 
#
# 1 181.0903 62.1628 73.0517 0.0000 0.0000 0.0000
# 2 62.1628 143.2173 50.4304 0.0000 0.0000 0.0000
# 3 73.0517 50.4304 93.1447 0.0000 0.0000 0.0000
# 4 0.0000 0.0000 0.0000 -5.5706 0.0000 0.0000
# 5 0.0000 0.0000 0.0000 0.0000 25.5363 0.0000
# 6 0.0000 0.0000 0.0000 0.0000 0.0000 25.6205
#
#
#
# Elastic Compliance Matrix: (Units=1/GPa)
#
#
# Indices 1 2 3 4 5 6 
#
# 1 0.008376 -0.001634 -0.005685 0.000000 0.000000 0.000000
# 2 -0.001634 0.008946 -0.003562 0.000000 0.000000 0.000000
# 3 -0.005685 -0.003562 0.017123 0.000000 0.000000 0.000000
# 4 0.000000 0.000000 0.000000 -0.179513 0.000000 0.000000
# 5 0.000000 0.000000 0.000000 0.000000 0.039160 0.000000
# 6 0.000000 0.000000 0.000000 0.000000 0.000000 0.039031
#
#
# Mechanical properties :
#
#
# Convention : Reuss Voigt Hill
#
# Bulk Modulus (GPa) = 78.84089 87.63800 83.23944
# Shear Modulus (GPa) = -122.28576 24.57107 -48.85735
#
# Velocity S-wave (km/s) = -8.31823 3.72868 -5.25785
# Velocity P-wave (km/s) = 6.90266 8.25382 3.19991
#
# Compressibility (1/GPa) = 0.01268377
#
# Stress axis : x y z
#
# Youngs Moduli (GPa) = 119.38643 111.78339 58.40135
#
# Poissons Ratio (x) = 0.18265 0.33199
# Poissons Ratio (y) = 0.19507 0.20803
# Poissons Ratio (z) = 0.67867 0.39817
#
# Static dielectric constant tensor:
#      x y z
#    x 1.596130 0.000000 0.000000 
#    y 0.000000 1.594740 0.000000 
#    z 0.000000 0.000000 1.600080 
# 
# From -- ./inp_files/63765.got.cif
#   From: 2010.05.17/outbox.cif.g08.bks.cpg/sg74_32_cif.got.tgz:63765.got - 2010.06.03 17:57:02.
