data_PCOD9539571
_publ_section_title
;
Structure prediction by ZEFSAII (Michael W. Deem and Ramdas Pophale) SiO2 
 PCOD9539571
Probable space group: I M M A
;
_chemical_formula_sum "Si O2"
_cell_formula_units_Z 72
_cell_length_a 20.628130
_cell_length_b 20.401116
_cell_length_c 8.038161
_cell_angle_alpha 90.000000
_cell_angle_beta 90.000000
_cell_angle_gamma 90.000000
_cell_volume 3382.754540
_symmetry_space_group_name_H-M "I M M A"
_symmetry_group_IT_number 74
_symmetry_cell_setting 'orthorhombic'
loop_
_space_group_symop_operation_xyz
x,y,z
-x,1/2-y,z
x,-y,-z
-x,1/2+y,-z
-x,-y,-z
x,1/2+y,-z
-x,y,z
x,1/2-y,z
1/2+x,1/2+y,1/2+z
1/2-x,-y,1/2+z
1/2+x,1/2-y,1/2-z
1/2-x,y,1/2-z
1/2-x,1/2-y,1/2-z
1/2+x,y,1/2-z
1/2-x,1/2+y,1/2+z
1/2+x,-y,1/2+z
loop_
_atom_site_type_symbol
_atom_site_label
_atom_site_fract_x
_atom_site_fract_y
_atom_site_fract_z
Si Si1 0.927256 0.895902 0.716965
Si Si2 0.644042 0.500000 0.000000
Si Si3 0.250000 0.546412 0.250000
Si Si4 0.331141 0.861622 0.492460
Si Si5 0.731142 0.750000 0.964932
Si Si6 0.410667 0.250000 0.100090
Si Si7 0.871228 0.750000 0.246111
O O1 0.899288 0.938520 0.562133
O O2 0.932738 0.819232 0.669251
O O3 0.000000 0.919624 0.759686
O O4 0.876796 0.895132 0.870936
O O5 0.693428 0.489906 0.848002
O O6 0.290075 0.588365 0.383242
O O7 0.275426 0.812987 0.559943
O O8 0.372433 0.813844 0.369945
O O9 0.833851 0.750000 0.639977
O O10 0.696667 0.750000 0.148553
O O11 0.419900 0.250000 0.900452
#
# Coordination Sequence:
#
# PCOD9539571 Si02
#       7
#    16   8   8  16   8   8   8
#     4  12  27  45  63  94 139 190 226 261 328 417
#     4  12  27  46  68  96 135 170 220 292 344 412
#     4  12  22  43  70 101 120 160 228 286 358 390
#     4  11  19  37  67  97 138 167 218 281 332 404
#     4   9  17  32  63 104 135 163 207 281 356 376
#     4  10  21  40  68  97 130 174 226 277 330 400
#     4   9  17  35  61 105 138 166 207 275 357 393
#
# _framework density 21.28443
#
# number of rings (size 3 to 8) (size 9 to 14) (size 15 to 20)
#    0.667    0.444    2.222    6.667    0.000    3.556 
#    0.000    7.778    0.000    0.000    0.000    0.000 
#    0.000    0.000    0.000    0.000    0.000    0.000 
#
# Total GULP energy -200782.204388 kJ/mol
# GULP energy per Si atom -5577.283455 kJ/mol
# Density = 2.123599 g / cm^3
# Si number density = 21.284430 Si / 1000 Ang^3
#
#
#
# Elastic Constant Matrix: (Units=GPa)
#
#
# Indices 1 2 3 4 5 6 
#
# 1 136.4933 37.7446 44.0587 0.0000 0.0000 0.0000
# 2 37.7446 79.5195 31.7880 0.0000 0.0000 0.0000
# 3 44.0587 31.7880 92.4653 0.0000 0.0000 0.0000
# 4 0.0000 0.0000 0.0000 40.6283 0.0000 0.0000
# 5 0.0000 0.0000 0.0000 0.0000 -32.3483 0.0000
# 6 0.0000 0.0000 0.0000 0.0000 0.0000 -35.0513
#
#
#
# Elastic Compliance Matrix: (Units=1/GPa)
#
#
# Indices 1 2 3 4 5 6 
#
# 1 0.009255 -0.003049 -0.003362 0.000000 0.000000 0.000000
# 2 -0.003049 0.015584 -0.003905 0.000000 0.000000 0.000000
# 3 -0.003362 -0.003905 0.013759 0.000000 0.000000 0.000000
# 4 0.000000 0.000000 0.000000 0.024613 0.000000 0.000000
# 5 0.000000 0.000000 0.000000 0.000000 -0.030913 0.000000
# 6 0.000000 0.000000 0.000000 0.000000 0.000000 -0.028530
#
#
# Mechanical properties :
#
#
# Convention : Reuss Voigt Hill
#
# Bulk Modulus (GPa) = 55.65772 59.51784 57.58778
# Shear Modulus (GPa) = 164.54665 7.63818 86.09241
#
# Velocity S-wave (km/s) = 8.80206 1.89642 6.36682
# Velocity P-wave (km/s) = 11.38016 5.72879 9.00908
#
# Compressibility (1/GPa) = 0.01796696
#
# Stress axis : x y z
#
# Youngs Moduli (GPa) = 108.05471 64.16993 72.68021
#
# Poissons Ratio (x) = 0.19565 0.24431
# Poissons Ratio (y) = 0.32946 0.28378
# Poissons Ratio (z) = 0.36323 0.25056
#
# Static dielectric constant tensor:
#      x y z
#    x 1.796920 0.000000 0.000000 
#    y 0.000000 1.781550 0.000000 
#    z 0.000000 0.000000 1.875520 
# 
# From -- ./inp_files/12223.got.cif
#   From: 2010.05.17/outbox.cif.g08.bks.cpg/sg74_7_cif.got.tgz:12223.got - 2010.06.03 17:57:02.
