data_PCOD9539540
_publ_section_title
;
Structure prediction by ZEFSAII (Michael W. Deem and Ramdas Pophale) SiO2 
 PCOD9539540
Probable space group: I M M A
;
_chemical_formula_sum "Si O2"
_cell_formula_units_Z 84
_cell_length_a 10.830027
_cell_length_b 14.074835
_cell_length_c 29.577611
_cell_angle_alpha 90.000000
_cell_angle_beta 90.000000
_cell_angle_gamma 90.000000
_cell_volume 4508.540181
_symmetry_space_group_name_H-M "I M M A"
_symmetry_group_IT_number 74
_symmetry_cell_setting 'orthorhombic'
loop_
_space_group_symop_operation_xyz
x,y,z
-x,1/2-y,z
x,-y,-z
-x,1/2+y,-z
-x,-y,-z
x,1/2+y,-z
-x,y,z
x,1/2-y,z
1/2+x,1/2+y,1/2+z
1/2-x,-y,1/2+z
1/2+x,1/2-y,1/2-z
1/2-x,y,1/2-z
1/2-x,1/2-y,1/2-z
1/2+x,y,1/2-z
1/2-x,1/2+y,1/2+z
1/2+x,-y,1/2+z
loop_
_atom_site_type_symbol
_atom_site_label
_atom_site_fract_x
_atom_site_fract_y
_atom_site_fract_z
Si Si1 0.500000 0.435659 0.623311
Si Si2 0.652473 0.250000 0.091114
Si Si3 0.141410 0.059372 0.540351
Si Si4 0.255290 0.250000 0.986576
Si Si5 0.500000 0.863622 0.272740
Si Si6 0.238085 0.545580 0.624179
Si Si7 0.000000 0.250000 0.944240
Si Si8 0.137493 0.978464 0.723585
O O1 0.500000 0.392145 0.674308
O O2 0.377050 0.502354 0.619106
O O3 0.500000 0.345728 0.587964
O O4 0.500000 0.250000 0.094432
O O5 0.713813 0.157055 0.114277
O O6 0.690400 0.250000 0.037540
O O7 0.200755 0.160157 0.541117
O O8 0.000000 0.074743 0.528261
O O9 0.202412 0.000000 0.500000
O O10 0.156499 0.004401 0.586110
O O11 0.111302 0.250000 0.979632
O O12 0.500000 0.750000 0.267427
O O13 0.387645 0.919319 0.247712
O O14 0.182996 0.517002 0.672508
O O15 0.250000 0.929641 0.750000
O O16 0.000000 0.933015 0.726063
#
# Coordination Sequence:
#
# PCOD9539540 Si02
#       8
#     8   8  16   8   8  16   4  16
#     4  12  24  44  69  97 144 186 225 278 363 401
#     4  12  26  46  73  95 131 179 238 296 362 407
#     4  11  22  39  63  93 131 168 221 285 341 405
#     4  12  24  42  64  96 129 180 229 272 349 428
#     4  10  22  42  70  97 141 184 227 282 339 430
#     4  12  24  44  68  98 134 182 230 290 344 422
#     4  12  26  44  64 102 144 188 222 278 346 436
#     4  10  21  40  64  97 134 174 222 278 344 407
#
# _framework density 18.631307
#
# number of rings (size 3 to 8) (size 9 to 14) (size 15 to 20)
#    0.571    0.190    6.190    2.571    0.000    1.524 
#    3.429    2.381    0.000    0.000    0.000    0.000 
#    0.000    0.000    0.000    0.000    0.000    0.000 
#
# Total GULP energy -233847.097374 kJ/mol
# GULP energy per Si atom -5567.788033 kJ/mol
# Density = 1.858890 g / cm^3
# Si number density = 18.631307 Si / 1000 Ang^3
#
#
#
# Elastic Constant Matrix: (Units=GPa)
#
#
# Indices 1 2 3 4 5 6 
#
# 1 126.2709 25.9190 -7.5050 0.0000 0.0000 0.0000
# 2 25.9190 106.5772 0.6698 0.0000 0.0000 0.0000
# 3 -7.5050 0.6698 70.0992 0.0000 0.0000 0.0000
# 4 0.0000 0.0000 0.0000 18.4286 0.0000 0.0000
# 5 0.0000 0.0000 0.0000 0.0000 52.9753 0.0000
# 6 0.0000 0.0000 0.0000 0.0000 0.0000 13.0277
#
#
#
# Elastic Compliance Matrix: (Units=1/GPa)
#
#
# Indices 1 2 3 4 5 6 
#
# 1 0.008394 -0.002047 0.000918 0.000000 0.000000 0.000000
# 2 -0.002047 0.009883 -0.000314 0.000000 0.000000 0.000000
# 3 0.000918 -0.000314 0.014367 0.000000 0.000000 0.000000
# 4 0.000000 0.000000 0.000000 0.054263 0.000000 0.000000
# 5 0.000000 0.000000 0.000000 0.000000 0.018877 0.000000
# 6 0.000000 0.000000 0.000000 0.000000 0.000000 0.076759
#
#
# Mechanical properties :
#
#
# Convention : Reuss Voigt Hill
#
# Bulk Modulus (GPa) = 33.60360 37.90164 35.75262
# Shear Modulus (GPa) = 25.59534 35.81055 30.70295
#
# Velocity S-wave (km/s) = 3.71048 4.38889 4.06386
# Velocity P-wave (km/s) = 6.03590 6.78751 6.42271
#
# Compressibility (1/GPa) = 0.02975872
#
# Stress axis : x y z
#
# Youngs Moduli (GPa) = 119.12873 101.18683 69.60485
#
# Poissons Ratio (x) = 0.20715 -0.06392
# Poissons Ratio (y) = 0.24388 0.02183
# Poissons Ratio (z) = -0.10939 0.03173
#
# Static dielectric constant tensor:
#      x y z
#    x 1.695040 0.000000 0.000000 
#    y 0.000000 1.682480 0.000000 
#    z 0.000000 0.000000 1.634510 
# 
# From -- ./inp_files/71679.got.cif
#   From: 2010.05.17/outbox.cif.g08.bks.cpg/sg74_36_cif.got.tgz:71679.got - 2010.06.03 17:57:02.
