data_PCOD9539824
_publ_section_title
;
Structure prediction by ZEFSAII (Michael W. Deem and Ramdas Pophale) SiO2 
 PCOD9539824
Probable space group: I M M A
;
_chemical_formula_sum "Si O2"
_cell_formula_units_Z 112
_cell_length_a 14.358270
_cell_length_b 14.574585
_cell_length_c 22.602512
_cell_angle_alpha 90.000000
_cell_angle_beta 90.000000
_cell_angle_gamma 90.000000
_cell_volume 4729.933356
_symmetry_space_group_name_H-M "I M M A"
_symmetry_group_IT_number 74
_symmetry_cell_setting 'orthorhombic'
loop_
_space_group_symop_operation_xyz
x,y,z
-x,1/2-y,z
x,-y,-z
-x,1/2+y,-z
-x,-y,-z
x,1/2+y,-z
-x,y,z
x,1/2-y,z
1/2+x,1/2+y,1/2+z
1/2-x,-y,1/2+z
1/2+x,1/2-y,1/2-z
1/2-x,y,1/2-z
1/2-x,1/2-y,1/2-z
1/2+x,y,1/2-z
1/2-x,1/2+y,1/2+z
1/2+x,-y,1/2+z
loop_
_atom_site_type_symbol
_atom_site_label
_atom_site_fract_x
_atom_site_fract_y
_atom_site_fract_z
Si Si1 0.296812 0.641216 0.456784
Si Si2 0.401437 0.353307 0.081380
Si Si3 0.604739 0.653366 0.776988
Si Si4 0.611262 0.471184 0.647264
Si Si5 0.886410 0.950467 0.274353
Si Si6 0.194864 0.139576 0.088071
Si Si7 0.892540 0.859912 0.398907
O O1 0.303016 0.750000 0.445681
O O2 0.350567 0.584643 0.407885
O O3 0.341855 0.626642 0.521420
O O4 0.186240 0.618267 0.447584
O O5 0.500000 0.395175 0.061965
O O6 0.396810 0.250000 0.054916
O O7 0.406908 0.342044 0.152193
O O8 0.300500 0.395524 0.077224
O O9 0.500000 0.649210 0.751134
O O10 0.647026 0.750000 0.757190
O O11 0.648926 0.554841 0.770694
O O12 0.500000 0.475139 0.646879
O O13 0.639442 0.419144 0.708315
O O14 0.648015 0.575568 0.636861
O O15 0.860768 0.902366 0.335650
O O16 0.000000 0.951702 0.277308
O O17 0.195867 0.250000 0.101606
O O18 0.894856 0.750000 0.392333
O O19 0.000000 0.888848 0.411274
#
# Coordination Sequence:
#
# PCOD9539824 Si02
#       7
#    16  16  16  16  16  16  16
#     4  10  23  42  63  88 118 155 202 256 307 360
#     4   8  15  30  54  84 119 156 188 226 282 349
#     4   8  14  27  49  79 116 154 188 223 271 341
#     4  11  25  43  61  84 117 159 208 262 312 353
#     4   9  19  35  57  85 117 157 200 245 301 364
#     4  10  22  40  61  89 123 157 202 253 299 360
#     4   9  19  38  64  94 127 159 192 241 309 378
#
# _framework density 23.678981
#
# number of rings (size 3 to 8) (size 9 to 14) (size 15 to 20)
#    0.000    2.714    0.000    1.286    2.000    4.000 
#    0.000    8.571    0.000    4.286    0.000    0.000 
#    0.000    0.000    0.000    0.000    0.000    0.000 
#
# Total GULP energy -312133.320831 kJ/mol
# GULP energy per Si atom -5573.809301 kJ/mol
# Density = 2.362509 g / cm^3
# Si number density = 23.678981 Si / 1000 Ang^3
#
#
#
# Elastic Constant Matrix: (Units=GPa)
#
#
# Indices 1 2 3 4 5 6 
#
# 1 72.9065 1.9475 17.0435 0.0000 0.0000 0.0000
# 2 1.9475 45.7700 13.9008 0.0000 0.0000 0.0000
# 3 17.0435 13.9008 94.3549 0.0000 0.0000 0.0000
# 4 0.0000 0.0000 0.0000 27.8200 0.0000 0.0000
# 5 0.0000 0.0000 0.0000 0.0000 59.8587 0.0000
# 6 0.0000 0.0000 0.0000 0.0000 0.0000 43.7919
#
#
#
# Elastic Compliance Matrix: (Units=1/GPa)
#
#
# Indices 1 2 3 4 5 6 
#
# 1 0.014322 0.000185 -0.002614 0.000000 0.000000 0.000000
# 2 0.000185 0.022874 -0.003403 0.000000 0.000000 0.000000
# 3 -0.002614 -0.003403 0.011572 0.000000 0.000000 0.000000
# 4 0.000000 0.000000 0.000000 0.035945 0.000000 0.000000
# 5 0.000000 0.000000 0.000000 0.000000 0.016706 0.000000
# 6 0.000000 0.000000 0.000000 0.000000 0.000000 0.022835
#
#
# Mechanical properties :
#
#
# Convention : Reuss Voigt Hill
#
# Bulk Modulus (GPa) = 26.95238 30.97945 28.96592
# Shear Modulus (GPa) = 33.71805 38.30341 36.01073
#
# Velocity S-wave (km/s) = 3.77764 4.02632 3.90396
# Velocity P-wave (km/s) = 5.51675 5.89292 5.70793
#
# Compressibility (1/GPa) = 0.03710247
#
# Stress axis : x y z
#
# Youngs Moduli (GPa) = 69.82066 43.71757 86.41631
#
# Poissons Ratio (x) = -0.00807 0.22592
# Poissons Ratio (y) = -0.01289 0.29410
# Poissons Ratio (z) = 0.18253 0.14878
#
# Static dielectric constant tensor:
#      x y z
#    x 1.946210 0.000000 0.000000 
#    y 0.000000 1.946450 0.000000 
#    z 0.000000 0.000000 1.914340 
# 
# From -- ./inp_files/60095.got.cif
#   From: 2010.05.17/outbox.cif.g08.bks.cpg/sg74_31_cif.got.tgz:60095.got - 2010.06.03 17:57:02.
