data_PCOD9539078
_publ_section_title
;
Structure prediction by ZEFSAII (Michael W. Deem and Ramdas Pophale) SiO2 
 PCOD9539078
Probable space group: I M M A
;
_chemical_formula_sum "Si O2"
_cell_formula_units_Z 96
_cell_length_a 9.183986
_cell_length_b 20.885819
_cell_length_c 24.163859
_cell_angle_alpha 90.000000
_cell_angle_beta 90.000000
_cell_angle_gamma 90.000000
_cell_volume 4634.992289
_symmetry_space_group_name_H-M "I M M A"
_symmetry_group_IT_number 74
_symmetry_cell_setting 'orthorhombic'
loop_
_space_group_symop_operation_xyz
x,y,z
-x,1/2-y,z
x,-y,-z
-x,1/2+y,-z
-x,-y,-z
x,1/2+y,-z
-x,y,z
x,1/2-y,z
1/2+x,1/2+y,1/2+z
1/2-x,-y,1/2+z
1/2+x,1/2-y,1/2-z
1/2-x,y,1/2-z
1/2-x,1/2-y,1/2-z
1/2+x,y,1/2-z
1/2-x,1/2+y,1/2+z
1/2+x,-y,1/2+z
loop_
_atom_site_type_symbol
_atom_site_label
_atom_site_fract_x
_atom_site_fract_y
_atom_site_fract_z
Si Si1 0.672228 0.678068 0.351763
Si Si2 0.167324 0.558570 0.300884
Si Si3 0.170124 0.355792 0.535794
Si Si4 0.827397 0.126127 0.073381
Si Si5 0.670246 0.672776 0.694159
Si Si6 0.663429 0.500083 0.921381
O O1 0.500000 0.664635 0.355001
O O2 0.692841 0.750000 0.330303
O O3 0.751805 0.624709 0.315499
O O4 0.742346 0.673710 0.412921
O O5 0.250000 0.526881 0.250000
O O6 0.170866 0.517608 0.356679
O O7 0.000000 0.571061 0.286650
O O8 0.242731 0.340557 0.477067
O O9 0.177714 0.432794 0.546891
O O10 0.000000 0.338063 0.537925
O O11 0.777078 0.146743 0.134828
O O12 0.000000 0.137575 0.068983
O O13 0.786866 0.051464 0.067264
O O14 0.500000 0.655941 0.698736
O O15 0.682169 0.750000 0.691920
O O16 0.750000 0.650782 0.750000
O O17 0.500000 0.526257 0.932969
#
# Coordination Sequence:
#
# PCOD9539078 Si02
#       6
#    16  16  16  16  16  16
#     4  10  21  37  57  81 110 144 182 227 277 324
#     4  10  21  37  57  80 109 146 186 228 274 324
#     4  10  21  37  56  79 110 146 182 222 268 319
#     4  11  22  34  55  85 110 139 179 221 269 326
#     4   9  20  39  58  77 105 138 173 216 264 313
#     4   9  20  37  54  76 109 145 179 222 271 316
#
# _framework density 20.712007
#
# number of rings (size 3 to 8) (size 9 to 14) (size 15 to 20)
#    0.000    2.167    0.000    3.500    0.000   10.333 
#    0.000    5.000    0.000    0.000    0.000    0.000 
#    0.000    0.000    0.000    0.000    0.000    0.000 
#
# Total GULP energy -268152.885108 kJ/mol
# GULP energy per Si atom -5586.518440 kJ/mol
# Density = 2.066487 g / cm^3
# Si number density = 20.712007 Si / 1000 Ang^3
#
#
#
# Elastic Constant Matrix: (Units=GPa)
#
#
# Indices 1 2 3 4 5 6 
#
# 1 82.6529 3.2796 33.2762 0.0000 0.0000 0.0000
# 2 3.2796 11.5189 -9.5812 0.0000 0.0000 0.0000
# 3 33.2762 -9.5812 132.9135 0.0000 0.0000 0.0000
# 4 0.0000 0.0000 0.0000 -4.6072 0.0000 0.0000
# 5 0.0000 0.0000 0.0000 0.0000 40.0626 0.0000
# 6 0.0000 0.0000 0.0000 0.0000 0.0000 19.7792
#
#
#
# Elastic Compliance Matrix: (Units=1/GPa)
#
#
# Indices 1 2 3 4 5 6 
#
# 1 0.014017 -0.007350 -0.004039 0.000000 0.000000 0.000000
# 2 -0.007350 0.096206 0.008775 0.000000 0.000000 0.000000
# 3 -0.004039 0.008775 0.009167 0.000000 0.000000 0.000000
# 4 0.000000 0.000000 0.000000 -0.217050 0.000000 0.000000
# 5 0.000000 0.000000 0.000000 0.000000 0.024961 0.000000
# 6 0.000000 0.000000 0.000000 0.000000 0.000000 0.050558
#
#
# Mechanical properties :
#
#
# Convention : Reuss Voigt Hill
#
# Bulk Modulus (GPa) = 8.75953 31.22606 19.99279
# Shear Modulus (GPa) = 236.51770 24.38763 130.45266
#
# Velocity S-wave (km/s) = 10.69773 3.43514 7.94486
# Velocity P-wave (km/s) = 12.52306 5.55361 9.68684
#
# Compressibility (1/GPa) = 0.11416142
#
# Stress axis : x y z
#
# Youngs Moduli (GPa) = 71.34412 10.39441 109.08134
#
# Poissons Ratio (x) = 0.07640 0.44058
# Poissons Ratio (y) = 0.52440 -0.95722
# Poissons Ratio (z) = 0.28816 -0.09121
#
# Static dielectric constant tensor:
#      x y z
#    x 1.702120 0.000000 0.000000 
#    y 0.000000 1.744810 0.000000 
#    z 0.000000 0.000000 1.759910 
# 
# From -- ./inp_files/57289.got.cif
#   From: 2010.05.17/outbox.cif.g08.bks.cpg/sg74_29_cif.got.tgz:57289.got - 2010.06.03 17:57:02.
