data_PCOD9539791
_publ_section_title
;
Structure prediction by ZEFSAII (Michael W. Deem and Ramdas Pophale) SiO2 
 PCOD9539791
Probable space group: I M M A
;
_chemical_formula_sum "Si O2"
_cell_formula_units_Z 104
_cell_length_a 19.703869
_cell_length_b 7.660154
_cell_length_c 29.249527
_cell_angle_alpha 90.000000
_cell_angle_beta 90.000000
_cell_angle_gamma 90.000000
_cell_volume 4414.767733
_symmetry_space_group_name_H-M "I M M A"
_symmetry_group_IT_number 74
_symmetry_cell_setting 'orthorhombic'
loop_
_space_group_symop_operation_xyz
x,y,z
-x,1/2-y,z
x,-y,-z
-x,1/2+y,-z
-x,-y,-z
x,1/2+y,-z
-x,y,z
x,1/2-y,z
1/2+x,1/2+y,1/2+z
1/2-x,-y,1/2+z
1/2+x,1/2-y,1/2-z
1/2-x,y,1/2-z
1/2-x,1/2-y,1/2-z
1/2+x,y,1/2-z
1/2-x,1/2+y,1/2+z
1/2+x,-y,1/2+z
loop_
_atom_site_type_symbol
_atom_site_label
_atom_site_fract_x
_atom_site_fract_y
_atom_site_fract_z
Si Si1 0.500000 0.957677 0.446817
Si Si2 0.813058 0.054004 0.279148
Si Si3 0.606837 0.040576 0.050199
Si Si4 0.423176 0.550333 0.288038
Si Si5 0.074804 0.036250 0.348228
Si Si6 0.238948 0.459571 0.049806
Si Si7 0.374340 0.047057 0.385152
O O1 0.500000 0.750000 0.439977
O O2 0.500000 0.000000 0.500000
O O3 0.433956 0.033759 0.422182
O O4 0.789886 0.250000 0.292730
O O5 0.750000 0.973121 0.250000
O O6 0.856048 0.977521 0.322190
O O7 0.873139 0.060364 0.242389
O O8 0.607428 0.250000 0.052704
O O9 0.576148 0.982553 0.098439
O O10 0.684410 0.973073 0.050100
O O11 0.577543 0.000000 0.000000
O O12 0.500000 0.485767 0.287098
O O13 0.421201 0.750000 0.271211
O O14 0.397594 0.547699 0.339804
O O15 0.076851 0.250000 0.345998
O O16 0.000000 0.984115 0.329091
O O17 0.241456 0.250000 0.054024
O O18 0.192922 0.525257 0.090896
O O19 0.208556 0.500000 0.000000
O O20 0.363859 0.250000 0.373210
#
# Coordination Sequence:
#
# PCOD9539791 Si02
#       7
#     8  16  16  16  16  16  16
#     4  12  24  38  54  78 116 156 202 254 307 364
#     4  10  22  39  65  94 118 152 202 257 306 361
#     4   9  18  34  56  83 118 152 190 237 290 352
#     4  11  24  41  60  85 121 160 195 244 308 371
#     4   9  18  34  58  87 119 155 195 243 300 358
#     4   9  19  33  52  77 107 145 189 240 295 349
#     4  11  22  36  57  82 108 149 202 251 304 361
#
# _framework density 23.557300000000001
#
# number of rings (size 3 to 8) (size 9 to 14) (size 15 to 20)
#    0.000    2.000    0.769    2.538    2.154    4.615 
#    0.000    0.769    0.000    0.923    0.000    0.000 
#    0.000    0.000    0.000    0.000    0.000    0.000 
#
# Total GULP energy -290362.156755 kJ/mol
# GULP energy per Si atom -5583.887630 kJ/mol
# Density = 2.350368 g / cm^3
# Si number density = 23.557300 Si / 1000 Ang^3
#
#
#
# Elastic Constant Matrix: (Units=GPa)
#
#
# Indices 1 2 3 4 5 6 
#
# 1 128.4851 4.9361 50.2202 0.0000 0.0000 0.0000
# 2 4.9361 57.2710 -3.1652 0.0000 0.0000 0.0000
# 3 50.2202 -3.1652 133.7136 0.0000 0.0000 0.0000
# 4 0.0000 0.0000 0.0000 18.5120 0.0000 0.0000
# 5 0.0000 0.0000 0.0000 0.0000 37.7646 0.0000
# 6 0.0000 0.0000 0.0000 0.0000 0.0000 -64.4929
#
#
#
# Elastic Compliance Matrix: (Units=1/GPa)
#
#
# Indices 1 2 3 4 5 6 
#
# 1 0.009177 -0.000983 -0.003470 0.000000 0.000000 0.000000
# 2 -0.000983 0.017589 0.000785 0.000000 0.000000 0.000000
# 3 -0.003470 0.000785 0.008801 0.000000 0.000000 0.000000
# 4 0.000000 0.000000 0.000000 0.054019 0.000000 0.000000
# 5 0.000000 0.000000 0.000000 0.000000 0.026480 0.000000
# 6 0.000000 0.000000 0.000000 0.000000 0.000000 -0.015506
#
#
# Mechanical properties :
#
#
# Convention : Reuss Voigt Hill
#
# Bulk Modulus (GPa) = 35.42078 47.05020 41.23549
# Shear Modulus (GPa) = 42.62395 16.18865 29.40630
#
# Velocity S-wave (km/s) = 4.25829 2.62430 3.53695
# Velocity P-wave (km/s) = 6.26466 5.40357 5.84998
#
# Compressibility (1/GPa) = 0.02823201
#
# Stress axis : x y z
#
# Youngs Moduli (GPa) = 108.96745 56.85385 113.62965
#
# Poissons Ratio (x) = 0.05587 0.39429
# Poissons Ratio (y) = 0.10709 -0.08925
# Poissons Ratio (z) = 0.37812 -0.04466
#
# Static dielectric constant tensor:
#      x y z
#    x 3.014640 0.000000 0.000000 
#    y 0.000000 1.931520 0.000000 
#    z 0.000000 0.000000 1.762690 
# 
# From -- ./inp_files/68273.got.cif
#   From: 2010.05.17/outbox.cif.g08.bks.cpg/sg74_35_cif.got.tgz:68273.got - 2010.06.03 17:57:02.
