data_PCOD9539821
_publ_section_title
;
Structure prediction by ZEFSAII (Michael W. Deem and Ramdas Pophale) SiO2 
 PCOD9539821
Probable space group: I M M A
;
_chemical_formula_sum "Si O2"
_cell_formula_units_Z 116
_cell_length_a 7.863406
_cell_length_b 24.489933
_cell_length_c 29.300642
_cell_angle_alpha 90.000000
_cell_angle_beta 90.000000
_cell_angle_gamma 90.000000
_cell_volume 5642.550215
_symmetry_space_group_name_H-M "I M M A"
_symmetry_group_IT_number 74
_symmetry_cell_setting 'orthorhombic'
loop_
_space_group_symop_operation_xyz
x,y,z
-x,1/2-y,z
x,-y,-z
-x,1/2+y,-z
-x,-y,-z
x,1/2+y,-z
-x,y,z
x,1/2-y,z
1/2+x,1/2+y,1/2+z
1/2-x,-y,1/2+z
1/2+x,1/2-y,1/2-z
1/2-x,y,1/2-z
1/2-x,1/2-y,1/2-z
1/2+x,y,1/2-z
1/2-x,1/2+y,1/2+z
1/2+x,-y,1/2+z
loop_
_atom_site_type_symbol
_atom_site_label
_atom_site_fract_x
_atom_site_fract_y
_atom_site_fract_z
Si Si1 0.794857 0.927681 0.196955
Si Si2 0.295735 0.947483 0.030457
Si Si3 0.295104 0.308608 0.696172
Si Si4 0.307176 0.128848 0.107363
Si Si5 0.298687 0.993868 0.620466
Si Si6 0.000000 0.250000 0.502562
Si Si7 0.297079 0.812732 0.699392
Si Si8 0.688838 0.665812 0.512912
O O1 0.750000 0.933073 0.250000
O O2 0.732923 0.867839 0.179603
O O3 0.733163 0.978009 0.166742
O O4 0.000000 0.927055 0.193289
O O5 0.500000 0.942120 0.029698
O O6 0.234412 0.962406 0.080888
O O7 0.214823 0.893284 0.010100
O O8 0.249192 0.000000 0.000000
O O9 0.500000 0.308422 0.691944
O O10 0.232156 0.250000 0.677194
O O11 0.250000 0.308316 0.750000
O O12 0.500000 0.142147 0.094972
O O13 0.270100 0.152146 0.157457
O O14 0.197174 0.156158 0.067668
O O15 0.284526 0.063710 0.108269
O O16 0.500000 0.983288 0.624548
O O17 0.847394 0.296920 0.500955
O O18 0.500000 0.811832 0.696198
O O19 0.233105 0.750000 0.695744
O O20 0.250000 0.833062 0.750000
O O21 0.500000 0.686236 0.500944
#
# Coordination Sequence:
#
# PCOD9539821 Si02
#       8
#    16  16  16  16  16   4  16  16
#     4   9  19  34  53  81 118 157 206 257 314 386
#     4  11  22  41  68  98 130 166 217 275 334 403
#     4   8  13  24  45  71  99 135 178 234 289 344
#     4  12  24  40  60  92 126 163 215 275 332 396
#     4  11  23  38  60  91 124 165 215 265 330 405
#     4  12  26  48  66 106 138 176 226 270 332 410
#     4  10  22  40  61  87 119 165 215 267 330 395
#     4  12  25  44  71 102 137 178 219 277 338 396
#
# _framework density 20.558081000000001
#
# number of rings (size 3 to 8) (size 9 to 14) (size 15 to 20)
#    0.000    1.517    2.759    2.690    0.966    3.034 
#    0.000    1.379    1.517    0.000    0.000    0.000 
#    0.000    0.000    0.000    0.000    0.000    0.000 
#
# Total GULP energy -323330.463759 kJ/mol
# GULP energy per Si atom -5574.663168 kJ/mol
# Density = 2.051129 g / cm^3
# Si number density = 20.558081 Si / 1000 Ang^3
#
#
#
# Elastic Constant Matrix: (Units=GPa)
#
#
# Indices 1 2 3 4 5 6 
#
# 1 95.0243 23.6901 -5.9929 0.0000 0.0000 0.0000
# 2 23.6901 70.6705 5.4037 0.0000 0.0000 0.0000
# 3 -5.9929 5.4037 46.1704 0.0000 0.0000 0.0000
# 4 0.0000 0.0000 0.0000 50.2712 0.0000 0.0000
# 5 0.0000 0.0000 0.0000 0.0000 20.0302 0.0000
# 6 0.0000 0.0000 0.0000 0.0000 0.0000 6.4502
#
#
#
# Elastic Compliance Matrix: (Units=1/GPa)
#
#
# Indices 1 2 3 4 5 6 
#
# 1 0.011662 -0.004061 0.001989 0.000000 0.000000 0.000000
# 2 -0.004061 0.015692 -0.002364 0.000000 0.000000 0.000000
# 3 0.001989 -0.002364 0.022194 0.000000 0.000000 0.000000
# 4 0.000000 0.000000 0.000000 0.019892 0.000000 0.000000
# 5 0.000000 0.000000 0.000000 0.000000 0.049925 0.000000
# 6 0.000000 0.000000 0.000000 0.000000 0.000000 0.155033
#
#
# Mechanical properties :
#
#
# Convention : Reuss Voigt Hill
#
# Bulk Modulus (GPa) = 24.58478 28.67410 26.62944
# Shear Modulus (GPa) = 16.84477 27.93460 22.38969
#
# Velocity S-wave (km/s) = 2.86558 3.69021 3.30372
# Velocity P-wave (km/s) = 4.78888 5.66877 5.24730
#
# Compressibility (1/GPa) = 0.04067558
#
# Stress axis : x y z
#
# Youngs Moduli (GPa) = 85.75179 63.72536 45.05777
#
# Poissons Ratio (x) = 0.25881 -0.08962
# Poissons Ratio (y) = 0.34826 0.10651
# Poissons Ratio (z) = -0.17056 0.15063
#
# Static dielectric constant tensor:
#      x y z
#    x 1.663590 0.000000 0.000000 
#    y 0.000000 1.744640 0.000000 
#    z 0.000000 0.000000 1.750210 
# 
# From -- ./inp_files/64846.got.cif
#   From: 2010.05.17/outbox.cif.g08.bks.cpg/sg74_33_cif.got.tgz:64846.got - 2010.06.03 17:57:02.
