data_PCOD9539354
_publ_section_title
;
Structure prediction by ZEFSAII (Michael W. Deem and Ramdas Pophale) SiO2 
 PCOD9539354
Probable space group: I M M A
;
_chemical_formula_sum "Si O2"
_cell_formula_units_Z 72
_cell_length_a 32.898544
_cell_length_b 10.184589
_cell_length_c 11.560382
_cell_angle_alpha 90.000000
_cell_angle_beta 90.000000
_cell_angle_gamma 90.000000
_cell_volume 3873.400199
_symmetry_space_group_name_H-M "I M M A"
_symmetry_group_IT_number 74
_symmetry_cell_setting 'orthorhombic'
loop_
_space_group_symop_operation_xyz
x,y,z
-x,1/2-y,z
x,-y,-z
-x,1/2+y,-z
-x,-y,-z
x,1/2+y,-z
-x,y,z
x,1/2-y,z
1/2+x,1/2+y,1/2+z
1/2-x,-y,1/2+z
1/2+x,1/2-y,1/2-z
1/2-x,y,1/2-z
1/2-x,1/2-y,1/2-z
1/2+x,y,1/2-z
1/2-x,1/2+y,1/2+z
1/2+x,-y,1/2+z
loop_
_atom_site_type_symbol
_atom_site_label
_atom_site_fract_x
_atom_site_fract_y
_atom_site_fract_z
Si Si1 0.812688 0.250000 0.297203
Si Si2 0.799260 0.250000 0.032366
Si Si3 0.911460 0.399924 0.807300
Si Si4 0.500000 0.093381 0.613004
Si Si5 0.713566 0.250000 0.931240
Si Si6 0.144173 0.000000 0.000000
Si Si7 0.346752 0.025403 0.866397
O O1 0.789575 0.250000 0.172158
O O2 0.795194 0.250000 0.429429
O O3 0.836348 0.389057 0.302165
O O4 0.826667 0.124130 0.007938
O O5 0.762087 0.250000 0.940801
O O6 0.907568 0.250000 0.849501
O O7 0.886091 0.490384 0.892907
O O8 0.886654 0.411088 0.689052
O O9 0.959012 0.431907 0.813888
O O10 0.500000 0.250000 0.581683
O O11 0.500000 0.000000 0.500000
O O12 0.692083 0.375533 0.871073
O O13 0.355300 0.000000 0.000000
#
# Coordination Sequence:
#
# PCOD9539354 Si02
#       7
#     8   8  16   8   8   8  16
#     4  10  21  38  62  86 114 163 206 267 298 358
#     4  12  25  39  56  90 119 160 212 256 303 357
#     4  11  21  41  63  93 126 162 202 247 324 378
#     4  10  22  38  67  96 126 160 201 255 302 385
#     4  10  23  41  58  83 123 163 212 250 311 365
#     4  12  24  37  60  88 126 158 200 253 312 374
#     4  10  21  40  64  87 120 166 205 257 312 371
#
# _framework density 18.588318999999998
#
# number of rings (size 3 to 8) (size 9 to 14) (size 15 to 20)
#    0.000    1.333    5.556    0.333    4.667    0.000 
#    2.000    2.778    0.000    0.000    0.000    0.000 
#    0.000    0.000    0.000    0.000    0.000    0.000 
#
# Total GULP energy -200512.504000 kJ/mol
# GULP energy per Si atom -5569.791778 kJ/mol
# Density = 1.854601 g / cm^3
# Si number density = 18.588319 Si / 1000 Ang^3
#
#
#
# Elastic Constant Matrix: (Units=GPa)
#
#
# Indices 1 2 3 4 5 6 
#
# 1 169.6596 74.9234 46.9440 0.0000 0.0000 0.0000
# 2 74.9234 113.8319 24.2332 0.0000 0.0000 0.0000
# 3 46.9440 24.2332 54.4663 0.0000 0.0000 0.0000
# 4 0.0000 0.0000 0.0000 -2.3872 0.0000 0.0000
# 5 0.0000 0.0000 0.0000 0.0000 -78.2178 0.0000
# 6 0.0000 0.0000 0.0000 0.0000 0.0000 21.0363
#
#
#
# Elastic Compliance Matrix: (Units=1/GPa)
#
#
# Indices 1 2 3 4 5 6 
#
# 1 0.009914 -0.005199 -0.006232 0.000000 0.000000 0.000000
# 2 -0.005199 0.012430 -0.001050 0.000000 0.000000 0.000000
# 3 -0.006232 -0.001050 0.024198 0.000000 0.000000 0.000000
# 4 0.000000 0.000000 0.000000 -0.418892 0.000000 0.000000
# 5 0.000000 0.000000 0.000000 0.000000 -0.012785 0.000000
# 6 0.000000 0.000000 0.000000 0.000000 0.000000 0.047537
#
#
# Mechanical properties :
#
#
# Convention : Reuss Voigt Hill
#
# Bulk Modulus (GPa) = 46.33514 70.01766 58.17640
# Shear Modulus (GPa) = -16.36970 0.87675 -7.74648
#
# Velocity S-wave (km/s) = -2.97078 0.68753 -2.04363
# Velocity P-wave (km/s) = 3.63507 6.19513 5.07904
#
# Compressibility (1/GPa) = 0.02158189
#
# Stress axis : x y z
#
# Youngs Moduli (GPa) = 100.86332 80.44931 41.32519
#
# Poissons Ratio (x) = 0.41825 0.25754
# Poissons Ratio (y) = 0.52438 0.04337
# Poissons Ratio (z) = 0.62858 0.08444
#
# Static dielectric constant tensor:
#      x y z
#    x 1.642430 0.000000 0.000000 
#    y 0.000000 1.651660 0.000000 
#    z 0.000000 0.000000 1.693220 
# 
# From -- ./inp_files/26041.got.cif
#   From: 2010.05.17/outbox.cif.g08.bks.cpg/sg74_14_cif.got.tgz:26041.got - 2010.06.03 17:57:02.
