data_PCOD9539524
_publ_section_title
;
Structure prediction by ZEFSAII (Michael W. Deem and Ramdas Pophale) SiO2 
 PCOD9539524
Probable space group: I M M A
;
_chemical_formula_sum "Si O2"
_cell_formula_units_Z 100
_cell_length_a 14.887710
_cell_length_b 16.349677
_cell_length_c 19.614927
_cell_angle_alpha 90.000000
_cell_angle_beta 90.000000
_cell_angle_gamma 90.000000
_cell_volume 4774.454665
_symmetry_space_group_name_H-M "I M M A"
_symmetry_group_IT_number 74
_symmetry_cell_setting 'orthorhombic'
loop_
_space_group_symop_operation_xyz
x,y,z
-x,1/2-y,z
x,-y,-z
-x,1/2+y,-z
-x,-y,-z
x,1/2+y,-z
-x,y,z
x,1/2-y,z
1/2+x,1/2+y,1/2+z
1/2-x,-y,1/2+z
1/2+x,1/2-y,1/2-z
1/2-x,y,1/2-z
1/2-x,1/2-y,1/2-z
1/2+x,y,1/2-z
1/2-x,1/2+y,1/2+z
1/2+x,-y,1/2+z
loop_
_atom_site_type_symbol
_atom_site_label
_atom_site_fract_x
_atom_site_fract_y
_atom_site_fract_z
Si Si1 0.647397 0.623042 0.249406
Si Si2 0.098879 0.077197 0.900243
Si Si3 0.608341 0.562958 0.777013
Si Si4 0.274870 0.342968 0.492824
Si Si5 0.396825 0.848317 0.918050
Si Si6 0.500000 0.250000 0.797458
Si Si7 0.603298 0.115699 0.367960
O O1 0.750000 0.651699 0.250000
O O2 0.612484 0.620412 0.327539
O O3 0.646574 0.528589 0.224495
O O4 0.579195 0.678680 0.207547
O O5 0.000000 0.098934 0.927974
O O6 0.101170 0.980611 0.886947
O O7 0.174326 0.102338 0.952885
O O8 0.500000 0.554449 0.770105
O O9 0.627188 0.608321 0.847221
O O10 0.636136 0.614852 0.710345
O O11 0.271448 0.250000 0.518659
O O12 0.175038 0.371953 0.474950
O O13 0.331518 0.343961 0.422499
O O14 0.500000 0.867981 0.935191
O O15 0.390436 0.750000 0.909569
O O16 0.500000 0.146092 0.371794
#
# Coordination Sequence:
#
# PCOD9539524 Si02
#       7
#    16  16  16  16  16   4  16
#     4  11  23  38  66  92 119 160 196 250 308 367
#     4  10  21  40  62  84 119 161 196 235 299 365
#     4   9  18  37  61  86 117 161 204 242 305 360
#     4  11  23  34  56  87 117 158 201 244 297 353
#     4   9  20  38  59  84 121 163 205 252 298 351
#     4  12  22  44  60  94 132 142 202 258 306 364
#     4   9  19  35  54  83 118 151 194 244 289 353
#
# _framework density 20.944800999999998
#
# number of rings (size 3 to 8) (size 9 to 14) (size 15 to 20)
#    0.000    2.080    1.600    2.160    5.600    3.200 
#    0.000    3.200    1.760    1.920    0.000    0.000 
#    0.000    0.000    0.000    0.000    0.000    0.000 
#
# Total GULP energy -278914.141327 kJ/mol
# GULP energy per Si atom -5578.282827 kJ/mol
# Density = 2.089713 g / cm^3
# Si number density = 20.944801 Si / 1000 Ang^3
#
#
#
# Elastic Constant Matrix: (Units=GPa)
#
#
# Indices 1 2 3 4 5 6 
#
# 1 113.5621 19.7182 33.1680 0.0000 0.0000 0.0000
# 2 19.7182 24.5672 16.9675 0.0001 0.0000 0.0000
# 3 33.1680 16.9675 46.9492 0.0001 0.0000 0.0000
# 4 0.0000 0.0001 0.0001 216.3726 0.0000 0.0001
# 5 0.0000 0.0000 0.0000 0.0000 28.4069 0.0000
# 6 0.0000 0.0000 0.0000 0.0001 0.0000 9.0452
#
#
#
# Elastic Compliance Matrix: (Units=1/GPa)
#
#
# Indices 1 2 3 4 5 6 
#
# 1 0.011509 -0.004827 -0.006386 0.000000 0.000000 0.000000
# 2 -0.004827 0.056269 -0.016926 0.000000 0.000000 0.000000
# 3 -0.006386 -0.016926 0.031928 0.000000 0.000000 0.000000
# 4 0.000000 0.000000 0.000000 0.004622 0.000000 0.000000
# 5 0.000000 0.000000 0.000000 0.000000 0.035203 0.000000
# 6 0.000000 0.000000 0.000000 0.000000 0.000000 0.110556
#
#
# Mechanical properties :
#
#
# Convention : Reuss Voigt Hill
#
# Bulk Modulus (GPa) = 23.02633 36.08733 29.55683
# Shear Modulus (GPa) = 15.58410 58.44661 37.01535
#
# Velocity S-wave (km/s) = 2.73070 5.28826 4.20847
# Velocity P-wave (km/s) = 4.57821 7.38611 6.14470
#
# Compressibility (1/GPa) = 0.04342854
#
# Stress axis : x y z
#
# Youngs Moduli (GPa) = 86.88780 17.77189 31.32009
#
# Poissons Ratio (x) = 0.08578 0.20002
# Poissons Ratio (y) = 0.41938 0.53012
# Poissons Ratio (z) = 0.55490 0.30080
#
# Static dielectric constant tensor:
#      x y z
#    x 1.769190 0.000000 0.000000 
#    y 0.000000 1.733880 0.000000 
#    z 0.000000 0.000000 1.740220 
# 
# From -- ./inp_files/52132.got.cif
#   From: 2010.05.17/outbox.cif.g08.bks.cpg/sg74_27_cif.got.tgz:52132.got - 2010.06.03 17:57:02.
