data_PCOD9539899
_publ_section_title
;
Structure prediction by ZEFSAII (Michael W. Deem and Ramdas Pophale) SiO2 
 PCOD9539899
Probable space group: I M M A
;
_chemical_formula_sum "Si O2"
_cell_formula_units_Z 56
_cell_length_a 11.711393
_cell_length_b 7.681758
_cell_length_c 27.795387
_cell_angle_alpha 90.000000
_cell_angle_beta 90.000000
_cell_angle_gamma 90.000000
_cell_volume 2500.586611
_symmetry_space_group_name_H-M "I M M A"
_symmetry_group_IT_number 74
_symmetry_cell_setting 'orthorhombic'
loop_
_space_group_symop_operation_xyz
x,y,z
-x,1/2-y,z
x,-y,-z
-x,1/2+y,-z
-x,-y,-z
x,1/2+y,-z
-x,y,z
x,1/2-y,z
1/2+x,1/2+y,1/2+z
1/2-x,-y,1/2+z
1/2+x,1/2-y,1/2-z
1/2-x,y,1/2-z
1/2-x,1/2-y,1/2-z
1/2+x,y,1/2-z
1/2-x,1/2+y,1/2+z
1/2+x,-y,1/2+z
loop_
_atom_site_type_symbol
_atom_site_label
_atom_site_fract_x
_atom_site_fract_y
_atom_site_fract_z
Si Si1 0.629301 0.959575 0.947478
Si Si2 0.500000 0.542410 0.444270
Si Si3 0.196342 0.951175 0.873735
Si Si4 0.628763 0.048772 0.730312
O O1 0.500000 0.025667 0.948736
O O2 0.628782 0.750000 0.943779
O O3 0.691658 0.025553 0.899665
O O4 0.682069 0.000000 0.000000
O O5 0.500000 0.750000 0.437350
O O6 0.500000 0.500000 0.500000
O O7 0.607308 0.461884 0.417107
O O8 0.214321 0.750000 0.859731
O O9 0.145999 0.043314 0.827197
O O10 0.500000 0.975711 0.741051
O O11 0.625994 0.250000 0.746765
O O12 0.750000 0.972656 0.750000
#
# Coordination Sequence:
#
# PCOD9539899 Si02
#       4
#    16   8  16  16
#     4   9  19  35  54  80 116 155 194 238 289 350
#     4  12  24  38  58  86 122 160 198 244 299 360
#     4  11  22  37  59  87 118 153 197 247 301 361
#     4  10  22  41  63  87 118 158 203 255 313 372
#
# _framework density 22.394742999999998
#
# number of rings (size 3 to 8) (size 9 to 14) (size 15 to 20)
#    0.000    1.714    1.429    3.000    0.000    6.286 
#    0.000    0.000    0.000    0.000    0.000    0.000 
#    0.000    0.000    0.000    0.000    0.000    0.000 
#
# Total GULP energy -156164.369364 kJ/mol
# GULP energy per Si atom -5577.298906 kJ/mol
# Density = 2.234377 g / cm^3
# Si number density = 22.394743 Si / 1000 Ang^3
#
#
#
# Elastic Constant Matrix: (Units=GPa)
#
#
# Indices 1 2 3 4 5 6 
#
# 1 147.8566 -2.4365 47.4640 0.0000 0.0000 0.0000
# 2 -2.4365 57.1682 -9.8802 0.0000 0.0000 0.0000
# 3 47.4640 -9.8802 79.5871 0.0000 0.0000 0.0000
# 4 0.0000 0.0000 0.0000 24.5866 0.0000 0.0000
# 5 0.0000 0.0000 0.0000 0.0000 18.8102 0.0000
# 6 0.0000 0.0000 0.0000 0.0000 0.0000 10.2271
#
#
#
# Elastic Compliance Matrix: (Units=1/GPa)
#
#
# Indices 1 2 3 4 5 6 
#
# 1 0.008380 -0.000518 -0.005062 0.000000 0.000000 0.000000
# 2 -0.000518 0.017908 0.002532 0.000000 0.000000 0.000000
# 3 -0.005062 0.002532 0.015898 0.000000 0.000000 0.000000
# 4 0.000000 0.000000 0.000000 0.040673 0.000000 0.000000
# 5 0.000000 0.000000 0.000000 0.000000 0.053163 0.000000
# 6 0.000000 0.000000 0.000000 0.000000 0.000000 0.097780
#
#
# Mechanical properties :
#
#
# Convention : Reuss Voigt Hill
#
# Bulk Modulus (GPa) = 27.70834 39.43405 33.57119
# Shear Modulus (GPa) = 19.84716 27.35574 23.60145
#
# Velocity S-wave (km/s) = 2.98021 3.49882 3.24988
# Velocity P-wave (km/s) = 4.92359 5.82831 5.39495
#
# Compressibility (1/GPa) = 0.03609022
#
# Stress axis : x y z
#
# Youngs Moduli (GPa) = 119.33666 55.84171 62.90163
#
# Poissons Ratio (x) = 0.02891 0.31839
# Poissons Ratio (y) = 0.06178 -0.15926
# Poissons Ratio (z) = 0.60405 -0.14138
#
# Static dielectric constant tensor:
#      x y z
#    x 1.741680 0.000000 0.000000 
#    y 0.000000 1.846220 0.000000 
#    z 0.000000 0.000000 1.786890 
# 
# From -- ./inp_files/63242.got.cif
#   From: 2010.05.17/outbox.cif.g08.bks.cpg/sg74_32_cif.got.tgz:63242.got - 2010.06.03 17:57:02.
