data_PCOD9539567
_publ_section_title
;
Structure prediction by ZEFSAII (Michael W. Deem and Ramdas Pophale) SiO2 
 PCOD9539567
Probable space group: I M M A
;
_chemical_formula_sum "Si O2"
_cell_formula_units_Z 80
_cell_length_a 26.627971
_cell_length_b 26.124972
_cell_length_c 5.275529
_cell_angle_alpha 90.000000
_cell_angle_beta 90.000000
_cell_angle_gamma 90.000000
_cell_volume 3669.948110
_symmetry_space_group_name_H-M "I M M A"
_symmetry_group_IT_number 74
_symmetry_cell_setting 'orthorhombic'
loop_
_space_group_symop_operation_xyz
x,y,z
-x,1/2-y,z
x,-y,-z
-x,1/2+y,-z
-x,-y,-z
x,1/2+y,-z
-x,y,z
x,1/2-y,z
1/2+x,1/2+y,1/2+z
1/2-x,-y,1/2+z
1/2+x,1/2-y,1/2-z
1/2-x,y,1/2-z
1/2-x,1/2-y,1/2-z
1/2+x,y,1/2-z
1/2-x,1/2+y,1/2+z
1/2+x,-y,1/2+z
loop_
_atom_site_type_symbol
_atom_site_label
_atom_site_fract_x
_atom_site_fract_y
_atom_site_fract_z
Si Si1 0.389036 0.354560 0.903944
Si Si2 0.780378 0.938215 0.997839
Si Si3 0.216202 0.691599 0.501407
Si Si4 0.104747 0.940298 0.062260
Si Si5 0.557124 0.155542 0.405346
O O1 0.331745 0.344252 0.971086
O O2 0.422104 0.332111 0.130087
O O3 0.397717 0.415683 0.846571
O O4 0.406853 0.328964 0.638851
O O5 0.750000 0.923015 0.250000
O O6 0.838593 0.922754 0.985921
O O7 0.750000 0.923216 0.750000
O O8 0.781935 0.000000 0.000000
O O9 0.196857 0.750000 0.519324
O O10 0.250000 0.683358 0.750000
O O11 0.250000 0.688503 0.250000
O O12 0.063371 0.906450 0.920939
O O13 0.100010 0.000000 0.000000
O O14 0.500000 0.171153 0.444679
#
# Coordination Sequence:
#
# PCOD9539567 Si02
#       5
#    16  16  16  16  16
#     4  10  22  39  59  90 119 162 197 259 309 374
#     4   9  18  31  47  68 102 143 181 229 286 349
#     4  10  21  40  68 100 130 159 198 250 313 387
#     4   9  22  38  56  84 116 160 215 257 308 361
#     4  10  22  40  60  83 117 162 210 265 315 356
#
# _framework density 21.798670999999999
#
# number of rings (size 3 to 8) (size 9 to 14) (size 15 to 20)
#    1.200    1.200    0.000    1.800    2.800    2.000 
#    0.000    1.000    0.000    3.600    0.000    0.000 
#    0.000    0.000    0.000    0.000    0.000    0.000 
#
# Total GULP energy -222957.481540 kJ/mol
# GULP energy per Si atom -5573.937038 kJ/mol
# Density = 2.174906 g / cm^3
# Si number density = 21.798671 Si / 1000 Ang^3
#
#
#
# Elastic Constant Matrix: (Units=GPa)
#
#
# Indices 1 2 3 4 5 6 
#
# 1 82.2420 -14.5036 39.1278 0.0000 0.0000 0.0000
# 2 -14.5036 54.7507 -1.1091 0.0000 0.0000 0.0000
# 3 39.1278 -1.1091 166.5466 0.0000 0.0000 0.0000
# 4 0.0000 0.0000 0.0000 20.0971 0.0000 0.0000
# 5 0.0000 0.0000 0.0000 0.0000 30.2636 0.0000
# 6 0.0000 0.0000 0.0000 0.0000 0.0000 2.8720
#
#
#
# Elastic Compliance Matrix: (Units=1/GPa)
#
#
# Indices 1 2 3 4 5 6 
#
# 1 0.014421 0.003752 -0.003363 0.000000 0.000000 0.000000
# 2 0.003752 0.019243 -0.000753 0.000000 0.000000 0.000000
# 3 -0.003363 -0.000753 0.006789 0.000000 0.000000 0.000000
# 4 0.000000 0.000000 0.000000 0.049758 0.000000 0.000000
# 5 0.000000 0.000000 0.000000 0.000000 0.033043 0.000000
# 6 0.000000 0.000000 0.000000 0.000000 0.000000 0.348185
#
#
# Mechanical properties :
#
#
# Convention : Reuss Voigt Hill
#
# Bulk Modulus (GPa) = 25.17313 38.95218 32.06266
# Shear Modulus (GPa) = 10.30058 29.31482 19.80770
#
# Velocity S-wave (km/s) = 2.17614 3.67113 3.01768
# Velocity P-wave (km/s) = 4.22932 5.98978 5.18482
#
# Compressibility (1/GPa) = 0.03972489
#
# Stress axis : x y z
#
# Youngs Moduli (GPa) = 69.34370 51.96627 147.28842
#
# Poissons Ratio (x) = -0.19498 0.49533
# Poissons Ratio (y) = -0.26018 0.11096
# Poissons Ratio (z) = 0.23320 0.03915
#
# Static dielectric constant tensor:
#      x y z
#    x 1.743000 0.000000 0.000000 
#    y 0.000000 1.847660 0.000000 
#    z 0.000000 0.000000 1.824210 
# 
# From -- ./inp_files/4590.got.cif
#   From: 2010.05.17/outbox.cif.g08.bks.cpg/sg74_3_cif.got.tgz:4590.got - 2010.06.03 17:57:02.
