data_PCOD9539382
_publ_section_title
;
Structure prediction by ZEFSAII (Michael W. Deem and Ramdas Pophale) SiO2 
 PCOD9539382
Probable space group: I M M A
;
_chemical_formula_sum "Si O2"
_cell_formula_units_Z 88
_cell_length_a 15.963222
_cell_length_b 25.345729
_cell_length_c 9.802284
_cell_angle_alpha 90.000000
_cell_angle_beta 90.000000
_cell_angle_gamma 90.000000
_cell_volume 3965.999193
_symmetry_space_group_name_H-M "I M M A"
_symmetry_group_IT_number 74
_symmetry_cell_setting 'orthorhombic'
loop_
_space_group_symop_operation_xyz
x,y,z
-x,1/2-y,z
x,-y,-z
-x,1/2+y,-z
-x,-y,-z
x,1/2+y,-z
-x,y,z
x,1/2-y,z
1/2+x,1/2+y,1/2+z
1/2-x,-y,1/2+z
1/2+x,1/2-y,1/2-z
1/2-x,y,1/2-z
1/2-x,1/2-y,1/2-z
1/2+x,y,1/2-z
1/2-x,1/2+y,1/2+z
1/2+x,-y,1/2+z
loop_
_atom_site_type_symbol
_atom_site_label
_atom_site_fract_x
_atom_site_fract_y
_atom_site_fract_z
Si Si1 0.775928 0.308341 0.462113
Si Si2 0.405227 0.853950 0.492596
Si Si3 0.274142 0.000000 0.500000
Si Si4 0.407861 0.656015 0.171594
Si Si5 0.910039 0.038591 0.169161
Si Si6 0.143097 0.912004 0.558000
O O1 0.791155 0.250000 0.407789
O O2 0.677027 0.319940 0.470812
O O3 0.819182 0.357014 0.383467
O O4 0.827634 0.313333 0.607061
O O5 0.500000 0.832524 0.521539
O O6 0.398667 0.858774 0.328777
O O7 0.401555 0.909796 0.571875
O O8 0.334730 0.999284 0.630099
O O9 0.217961 0.948629 0.508328
O O10 0.500000 0.682363 0.155291
O O11 0.408192 0.604974 0.073848
O O12 0.903272 0.058266 0.322715
O O13 0.000000 0.013336 0.146832
#
# Coordination Sequence:
#
# PCOD9539382 Si02
#       6
#    16  16   8  16  16  16
#     4  10  22  41  68  97 131 175 227 276 339 407
#     4  10  21  38  63  94 133 173 221 276 336 401
#     4  12  23  40  67  94 130 170 218 270 336 400
#     4   9  20  39  63  95 131 173 223 276 334 399
#     4  11  23  43  68  97 133 173 220 279 339 402
#     4  10  24  42  67  97 133 174 223 274 335 403
#
# _framework density 22.188607000000001
#
# number of rings (size 3 to 8) (size 9 to 14) (size 15 to 20)
#    1.091    0.727    1.818    1.909    0.000    5.091 
#    0.000    7.273    0.000    1.091    0.000    0.000 
#    0.000    0.000    0.000    0.000    0.000    0.000 
#
# Total GULP energy -245336.130554 kJ/mol
# GULP energy per Si atom -5575.821149 kJ/mol
# Density = 2.213811 g / cm^3
# Si number density = 22.188607 Si / 1000 Ang^3
#
#
#
# Elastic Constant Matrix: (Units=GPa)
#
#
# Indices 1 2 3 4 5 6 
#
# 1 136.8855 23.9282 -0.0673 0.0000 0.0000 0.0000
# 2 23.9282 56.5092 3.8429 0.0000 0.0000 0.0000
# 3 -0.0673 3.8429 45.0533 -0.0003 0.0000 0.0001
# 4 0.0000 0.0000 -0.0003 7.9540 0.0000 0.0000
# 5 0.0000 0.0000 0.0000 0.0000 31.7120 0.0000
# 6 0.0000 0.0000 0.0001 0.0000 0.0000 -13.9564
#
#
#
# Elastic Compliance Matrix: (Units=1/GPa)
#
#
# Indices 1 2 3 4 5 6 
#
# 1 0.007893 -0.003363 0.000299 0.000000 0.000000 0.000000
# 2 -0.003363 0.019232 -0.001645 0.000000 0.000000 0.000000
# 3 0.000299 -0.001645 0.022337 0.000001 0.000000 0.000000
# 4 0.000000 0.000000 0.000001 0.125723 0.000000 0.000000
# 5 0.000000 0.000000 0.000000 0.000000 0.031534 0.000000
# 6 0.000000 0.000000 0.000000 0.000000 0.000000 -0.071652
#
#
# Mechanical properties :
#
#
# Convention : Reuss Voigt Hill
#
# Bulk Modulus (GPa) = 24.97311 32.65063 28.81187
# Shear Modulus (GPa) = 31.67896 19.19155 25.43526
#
# Velocity S-wave (km/s) = 3.78261 2.94416 3.38941
# Velocity P-wave (km/s) = 5.50971 5.12878 5.32265
#
# Compressibility (1/GPa) = 0.04004307
#
# Stress axis : x y z
#
# Youngs Moduli (GPa) = 126.68933 51.99668 44.76929
#
# Poissons Ratio (x) = 0.17485 -0.01337
# Poissons Ratio (y) = 0.42601 0.07367
# Poissons Ratio (z) = -0.03783 0.08556
#
# Static dielectric constant tensor:
#      x y z
#    x 1.845290 0.000000 0.000000 
#    y 0.000000 1.816800 0.000000 
#    z 0.000000 0.000000 1.805420 
# 
# From -- ./inp_files/11251.got.cif
#   From: 2010.05.17/outbox.cif.g08.bks.cpg/sg74_6_cif.got.tgz:11251.got - 2010.06.03 17:57:02.
