data_PCOD9539079
_publ_section_title
;
Structure prediction by ZEFSAII (Michael W. Deem and Ramdas Pophale) SiO2 
 PCOD9539079
Probable space group: I M M A
;
_chemical_formula_sum "Si O2"
_cell_formula_units_Z 116
_cell_length_a 31.694998
_cell_length_b 8.936314
_cell_length_c 23.007949
_cell_angle_alpha 90.000000
_cell_angle_beta 90.000000
_cell_angle_gamma 90.000000
_cell_volume 6516.689897
_symmetry_space_group_name_H-M "I M M A"
_symmetry_group_IT_number 74
_symmetry_cell_setting 'orthorhombic'
loop_
_space_group_symop_operation_xyz
x,y,z
-x,1/2-y,z
x,-y,-z
-x,1/2+y,-z
-x,-y,-z
x,1/2+y,-z
-x,y,z
x,1/2-y,z
1/2+x,1/2+y,1/2+z
1/2-x,-y,1/2+z
1/2+x,1/2-y,1/2-z
1/2-x,y,1/2-z
1/2-x,1/2-y,1/2-z
1/2+x,y,1/2-z
1/2-x,1/2+y,1/2+z
1/2+x,-y,1/2+z
loop_
_atom_site_type_symbol
_atom_site_label
_atom_site_fract_x
_atom_site_fract_y
_atom_site_fract_z
Si Si1 0.000000 0.500000 0.500000
Si Si2 0.689632 0.070916 0.296547
Si Si3 0.451069 0.930125 0.438281
Si Si4 0.784255 0.929536 0.666156
Si Si5 0.602610 0.429176 0.673440
Si Si6 0.075587 0.570945 0.590939
Si Si7 0.334694 0.071803 0.939182
Si Si8 0.950934 0.570371 0.723052
O O1 0.963035 0.471387 0.450664
O O2 0.683646 0.250000 0.300095
O O3 0.734667 0.036326 0.325858
O O4 0.694011 0.033602 0.228012
O O5 0.650143 0.988609 0.324115
O O6 0.500000 0.972075 0.426691
O O7 0.449343 0.750000 0.442627
O O8 0.421696 0.977791 0.385020
O O9 0.438765 0.000000 0.500000
O O10 0.788504 0.750000 0.657929
O O11 0.805872 0.014702 0.613577
O O12 0.602182 0.250000 0.675495
O O13 0.577686 0.492556 0.728943
O O14 0.082443 0.750000 0.586248
O O15 0.117881 0.486042 0.572850
O O16 0.064038 0.535563 0.657669
O O17 0.334332 0.250000 0.943121
O O18 0.320504 0.000000 0.000000
O O19 0.947853 0.750000 0.729928
O O20 0.000000 0.527561 0.729786
#
# Coordination Sequence:
#
# PCOD9539079 Si02
#       8
#     4  16  16  16  16  16  16  16
#     4  12  22  36  64  82 110 160 204 244 294 328
#     4   9  19  37  62  87 111 145 182 222 275 338
#     4   9  19  36  56  78 108 146 186 225 267 320
#     4   9  19  39  63  85 111 143 184 230 279 332
#     4  11  22  35  54  85 121 149 179 229 285 335
#     4  11  23  40  59  82 114 152 199 246 288 335
#     4  12  25  39  58  84 113 148 190 234 285 337
#     4  10  21  37  56  79 111 153 196 238 281 333
#
# _framework density 17.800447999999999
#
# number of rings (size 3 to 8) (size 9 to 14) (size 15 to 20)
#    0.000    1.793    1.379    3.931    0.000    7.448 
#    0.000    3.448    0.000    1.655    0.000    0.000 
#    0.000    0.000    0.000    0.000    0.000    0.000 
#
# Total GULP energy -323502.383804 kJ/mol
# GULP energy per Si atom -5577.627307 kJ/mol
# Density = 1.775993 g / cm^3
# Si number density = 17.800448 Si / 1000 Ang^3
#
#
#
# Elastic Constant Matrix: (Units=GPa)
#
#
# Indices 1 2 3 4 5 6 
#
# 1 104.1615 58.6917 94.9758 0.0000 0.0000 0.0000
# 2 58.6917 50.1613 71.5450 0.0000 0.0000 0.0000
# 3 94.9758 71.5450 153.9263 0.0000 0.0000 0.0000
# 4 0.0000 0.0000 0.0000 29.5945 0.0000 0.0000
# 5 0.0000 0.0000 0.0000 0.0000 428.3699 0.0000
# 6 0.0000 0.0000 0.0000 0.0000 0.0000 15.6383
#
#
#
# Elastic Compliance Matrix: (Units=1/GPa)
#
#
# Indices 1 2 3 4 5 6 
#
# 1 0.030263 -0.026039 -0.006570 0.000000 0.000000 0.000000
# 2 -0.026039 0.081550 -0.021838 0.000000 0.000000 0.000000
# 3 -0.006570 -0.021838 0.020701 0.000000 0.000000 0.000000
# 4 0.000000 0.000000 0.000000 0.033790 0.000000 0.000000
# 5 0.000000 0.000000 0.000000 0.000000 0.002334 0.000000
# 6 0.000000 0.000000 0.000000 0.000000 0.000000 0.063946
#
#
# Mechanical properties :
#
#
# Convention : Reuss Voigt Hill
#
# Bulk Modulus (GPa) = 42.33642 84.29713 63.31677
# Shear Modulus (GPa) = 14.31217 100.25632 57.28424
#
# Velocity S-wave (km/s) = 2.83863 7.51296 5.67902
# Velocity P-wave (km/s) = 5.88041 11.07786 8.86844
#
# Compressibility (1/GPa) = 0.02362033
#
# Stress axis : x y z
#
# Youngs Moduli (GPa) = 33.04327 12.26235 48.30651
#
# Poissons Ratio (x) = 0.31929 0.31739
# Poissons Ratio (y) = 0.86040 1.05493
# Poissons Ratio (z) = 0.21711 0.26779
#
# Static dielectric constant tensor:
#      x y z
#    x 1.589360 0.000000 0.000000 
#    y 0.000000 1.602780 0.000000 
#    z 0.000000 0.000000 1.572600 
# 
# From -- ./inp_files/62769.got.cif
#   From: 2010.05.17/outbox.cif.g08.bks.cpg/sg74_32_cif.got.tgz:62769.got - 2010.06.03 17:57:02.
