data_PCOD9539193
_publ_section_title
;
Structure prediction by ZEFSAII (Michael W. Deem and Ramdas Pophale) SiO2 
 PCOD9539193
Probable space group: I M M A
;
_chemical_formula_sum "Si O2"
_cell_formula_units_Z 100
_cell_length_a 10.277577
_cell_length_b 26.388121
_cell_length_c 20.290553
_cell_angle_alpha 90.000000
_cell_angle_beta 90.000000
_cell_angle_gamma 90.000000
_cell_volume 5502.918610
_symmetry_space_group_name_H-M "I M M A"
_symmetry_group_IT_number 74
_symmetry_cell_setting 'orthorhombic'
loop_
_space_group_symop_operation_xyz
x,y,z
-x,1/2-y,z
x,-y,-z
-x,1/2+y,-z
-x,-y,-z
x,1/2+y,-z
-x,y,z
x,1/2-y,z
1/2+x,1/2+y,1/2+z
1/2-x,-y,1/2+z
1/2+x,1/2-y,1/2-z
1/2-x,y,1/2-z
1/2-x,1/2-y,1/2-z
1/2+x,y,1/2-z
1/2-x,1/2+y,1/2+z
1/2+x,-y,1/2+z
loop_
_atom_site_type_symbol
_atom_site_label
_atom_site_fract_x
_atom_site_fract_y
_atom_site_fract_z
Si Si1 0.647059 0.311043 0.196206
Si Si2 0.152498 0.546970 0.311180
Si Si3 0.342637 0.524126 0.932261
Si Si4 0.145687 0.310797 0.951765
Si Si5 0.845137 0.141695 0.445712
Si Si6 0.000000 0.250000 0.651401
Si Si7 0.785192 0.662760 0.326831
O O1 0.500000 0.328365 0.211713
O O2 0.647972 0.250000 0.197719
O O3 0.750000 0.329654 0.250000
O O4 0.677058 0.328244 0.122189
O O5 0.250000 0.541232 0.250000
O O6 0.194875 0.508796 0.369043
O O7 0.163876 0.605367 0.334667
O O8 0.000000 0.537605 0.294509
O O9 0.500000 0.521185 0.933713
O O10 0.310915 0.583318 0.931644
O O11 0.292575 0.500000 0.000000
O O12 0.158741 0.250000 0.954746
O O13 0.166090 0.328788 0.876711
O O14 0.000000 0.324077 0.974571
O O15 0.256692 0.335837 0.996643
O O16 0.000000 0.145201 0.462089
O O17 0.111992 0.205398 0.653672
O O18 0.750000 0.669470 0.250000
#
# Coordination Sequence:
#
# PCOD9539193 Si02
#       7
#    16  16  16  16  16   4  16
#     4   9  18  33  53  80 110 142 175 216 267 323
#     4  10  21  38  59  84 115 150 187 235 289 339
#     4   9  18  35  58  82 107 141 187 233 279 326
#     4  11  25  39  55  82 120 154 184 232 295 346
#     4  10  21  37  60  85 110 145 194 238 274 335
#     4  12  22  36  58  88 106 158 202 238 278 338
#     4  11  24  37  58  82 117 152 196 240 284 338
#
# _framework density 18.172173999999998
#
# number of rings (size 3 to 8) (size 9 to 14) (size 15 to 20)
#    0.000    1.920    1.600    1.680    2.240    4.160 
#    0.000    2.400    0.000    1.920    0.000    0.000 
#    0.000    0.000    0.000    0.000    0.000    0.000 
#
# Total GULP energy -278439.140256 kJ/mol
# GULP energy per Si atom -5568.782805 kJ/mol
# Density = 1.813081 g / cm^3
# Si number density = 18.172174 Si / 1000 Ang^3
#
#
#
# Elastic Constant Matrix: (Units=GPa)
#
#
# Indices 1 2 3 4 5 6 
#
# 1 83.4773 37.8448 58.2462 0.0000 0.0000 0.0000
# 2 37.8448 66.6473 51.3127 0.0000 0.0000 0.0000
# 3 58.2462 51.3127 105.1241 0.0000 0.0000 0.0000
# 4 0.0000 0.0000 0.0000 12.9078 0.0000 0.0000
# 5 0.0000 0.0000 0.0000 0.0000 17.2411 0.0000
# 6 0.0000 0.0000 0.0000 0.0000 0.0000 16.5566
#
#
#
# Elastic Compliance Matrix: (Units=1/GPa)
#
#
# Indices 1 2 3 4 5 6 
#
# 1 0.020377 -0.004611 -0.009040 0.000000 0.000000 0.000000
# 2 -0.004611 0.025082 -0.009688 0.000000 0.000000 0.000000
# 3 -0.009040 -0.009688 0.019250 0.000000 0.000000 0.000000
# 4 0.000000 0.000000 0.000000 0.077473 0.000000 0.000000
# 5 0.000000 0.000000 0.000000 0.000000 0.058001 0.000000
# 6 0.000000 0.000000 0.000000 0.000000 0.000000 0.060399
#
#
# Mechanical properties :
#
#
# Convention : Reuss Voigt Hill
#
# Bulk Modulus (GPa) = 55.45856 61.11734 58.28795
# Shear Modulus (GPa) = 15.96072 16.53074 16.24573
#
# Velocity S-wave (km/s) = 2.96684 3.01935 2.99321
# Velocity P-wave (km/s) = 6.50544 6.77205 6.64009
#
# Compressibility (1/GPa) = 0.01803148
#
# Stress axis : x y z
#
# Youngs Moduli (GPa) = 49.07449 39.86999 51.94843
#
# Poissons Ratio (x) = 0.18385 0.46959
# Poissons Ratio (y) = 0.22629 0.50326
# Poissons Ratio (z) = 0.44361 0.38625
#
# Static dielectric constant tensor:
#      x y z
#    x 1.713270 0.000000 0.000000 
#    y 0.000000 1.596790 0.000000 
#    z 0.000000 0.000000 1.620630 
# 
# From -- ./inp_files/49272.got.cif
#   From: 2010.05.17/outbox.cif.g08.bks.cpg/sg74_25_cif.got.tgz:49272.got - 2010.06.03 17:57:02.
