data_PCOD9539720
_publ_section_title
;
Structure prediction by ZEFSAII (Michael W. Deem and Ramdas Pophale) SiO2 
 PCOD9539720
Probable space group: I M M A
;
_chemical_formula_sum "Si O2"
_cell_formula_units_Z 64
_cell_length_a 19.707733
_cell_length_b 13.682781
_cell_length_c 11.071561
_cell_angle_alpha 90.000000
_cell_angle_beta 90.000000
_cell_angle_gamma 90.000000
_cell_volume 2985.519437
_symmetry_space_group_name_H-M "I M M A"
_symmetry_group_IT_number 74
_symmetry_cell_setting 'orthorhombic'
loop_
_space_group_symop_operation_xyz
x,y,z
-x,1/2-y,z
x,-y,-z
-x,1/2+y,-z
-x,-y,-z
x,1/2+y,-z
-x,y,z
x,1/2-y,z
1/2+x,1/2+y,1/2+z
1/2-x,-y,1/2+z
1/2+x,1/2-y,1/2-z
1/2-x,y,1/2-z
1/2-x,1/2-y,1/2-z
1/2+x,y,1/2-z
1/2-x,1/2+y,1/2+z
1/2+x,-y,1/2+z
loop_
_atom_site_type_symbol
_atom_site_label
_atom_site_fract_x
_atom_site_fract_y
_atom_site_fract_z
Si Si1 0.574227 0.362829 0.401993
Si Si2 0.656263 0.361883 0.991606
Si Si3 0.190016 0.861477 0.103119
Si Si4 0.872259 0.499385 0.294890
O O1 0.500000 0.371980 0.462037
O O2 0.579884 0.250000 0.357980
O O3 0.635625 0.377063 0.495737
O O4 0.578474 0.440519 0.294091
O O5 0.636080 0.250000 0.002874
O O6 0.658259 0.415801 0.119652
O O7 0.733405 0.367585 0.943277
O O8 0.608722 0.419284 0.895717
O O9 0.179423 0.750000 0.149566
O O10 0.175587 0.941171 0.204113
#
# Coordination Sequence:
#
# PCOD9539720 Si02
#       4
#    16  16  16  16
#     4  10  23  42  63  91 124 159 205 257 305 357
#     4  10  23  39  57  90 128 161 200 249 307 366
#     4  10  22  38  59  88 126 162 198 252 309 360
#     4  11  22  35  65  87 118 162 204 249 305 361
#
# _framework density 21.436805
#
# number of rings (size 3 to 8) (size 9 to 14) (size 15 to 20)
#    0.000    1.750    0.000    3.000   10.500    4.000 
#    0.000    6.250    0.000    3.750    0.000    3.500 
#    0.000    0.000    0.000    0.000    0.000    0.000 
#
# Total GULP energy -178590.839968 kJ/mol
# GULP energy per Si atom -5580.963749 kJ/mol
# Density = 2.138801 g / cm^3
# Si number density = 21.436805 Si / 1000 Ang^3
#
#
#
# Elastic Constant Matrix: (Units=GPa)
#
#
# Indices 1 2 3 4 5 6 
#
# 1 39.1378 17.9131 23.7012 0.0000 0.0000 0.0000
# 2 17.9131 157.6773 63.7185 0.0000 0.0000 0.0000
# 3 23.7012 63.7185 95.5316 0.0000 0.0000 0.0000
# 4 0.0000 0.0000 0.0000 33.5123 0.0000 0.0000
# 5 0.0000 0.0000 0.0000 0.0000 10.5524 0.0000
# 6 0.0000 0.0000 0.0000 0.0000 0.0000 -56.4297
#
#
#
# Elastic Compliance Matrix: (Units=1/GPa)
#
#
# Indices 1 2 3 4 5 6 
#
# 1 0.030103 -0.000550 -0.007102 0.000000 0.000000 0.000000
# 2 -0.000550 0.008692 -0.005661 0.000000 0.000000 0.000000
# 3 -0.007102 -0.005661 0.016006 0.000000 0.000000 0.000000
# 4 0.000000 0.000000 0.000000 0.029840 0.000000 0.000000
# 5 0.000000 0.000000 0.000000 0.000000 0.094766 0.000000
# 6 0.000000 0.000000 0.000000 0.000000 0.000000 -0.017721
#
#
# Mechanical properties :
#
#
# Convention : Reuss Voigt Hill
#
# Bulk Modulus (GPa) = 35.49215 55.89025 45.69120
# Shear Modulus (GPa) = 25.29049 9.99458 17.64254
#
# Velocity S-wave (km/s) = 3.43850 2.16159 2.87191
# Velocity P-wave (km/s) = 5.68832 5.68847 5.68839
#
# Compressibility (1/GPa) = 0.02817524
#
# Stress axis : x y z
#
# Youngs Moduli (GPa) = 33.21908 115.04466 62.47820
#
# Poissons Ratio (x) = 0.06328 0.44370
# Poissons Ratio (y) = 0.01827 0.35370
# Poissons Ratio (z) = 0.23591 0.65129
#
# Static dielectric constant tensor:
#      x y z
#    x 1.752160 0.000000 0.000000 
#    y 0.000000 1.811540 0.000000 
#    z 0.000000 0.000000 1.780620 
# 
# From -- ./inp_files/19903.got.cif
#   From: 2010.05.17/outbox.cif.g08.bks.cpg/sg74_10_cif.got.tgz:19903.got - 2010.06.03 17:57:02.
