data_PCOD9539309
_publ_section_title
;
Structure prediction by ZEFSAII (Michael W. Deem and Ramdas Pophale) SiO2 
 PCOD9539309
Probable space group: I M M A
;
_chemical_formula_sum "Si O2"
_cell_formula_units_Z 104
_cell_length_a 8.504539
_cell_length_b 22.151642
_cell_length_c 26.998792
_cell_angle_alpha 90.000000
_cell_angle_beta 90.000000
_cell_angle_gamma 90.000000
_cell_volume 5086.289015
_symmetry_space_group_name_H-M "I M M A"
_symmetry_group_IT_number 74
_symmetry_cell_setting 'orthorhombic'
loop_
_space_group_symop_operation_xyz
x,y,z
-x,1/2-y,z
x,-y,-z
-x,1/2+y,-z
-x,-y,-z
x,1/2+y,-z
-x,y,z
x,1/2-y,z
1/2+x,1/2+y,1/2+z
1/2-x,-y,1/2+z
1/2+x,1/2-y,1/2-z
1/2-x,y,1/2-z
1/2-x,1/2-y,1/2-z
1/2+x,y,1/2-z
1/2-x,1/2+y,1/2+z
1/2+x,-y,1/2+z
loop_
_atom_site_type_symbol
_atom_site_label
_atom_site_fract_x
_atom_site_fract_y
_atom_site_fract_z
Si Si1 0.813775 0.645912 0.124938
Si Si2 0.189158 0.683117 0.804939
Si Si3 0.312300 0.819712 0.016974
Si Si4 0.189781 0.062203 0.145829
Si Si5 0.184875 0.450680 0.696043
Si Si6 0.189879 0.557765 0.967545
Si Si7 0.188007 0.250000 0.694658
O O1 0.732935 0.663018 0.073387
O O2 0.766985 0.582970 0.150000
O O3 0.755409 0.693105 0.165630
O O4 0.000000 0.648835 0.117705
O O5 0.246190 0.750000 0.818676
O O6 0.250000 0.669256 0.750000
O O7 0.233334 0.631086 0.842732
O O8 0.000000 0.684406 0.802989
O O9 0.500000 0.819036 0.012123
O O10 0.256360 0.750000 0.006827
O O11 0.247223 0.876179 0.985249
O O12 0.233613 0.047209 0.089570
O O13 0.000000 0.055043 0.151148
O O14 0.275052 0.020131 0.185519
O O15 0.250000 0.432350 0.750000
O O16 0.000000 0.438711 0.694907
O O17 0.000000 0.559050 0.970763
O O18 0.244568 0.500000 0.000000
O O19 0.250000 0.250000 0.750000
O O20 0.000000 0.250000 0.693548
#
# Coordination Sequence:
#
# PCOD9539309 Si02
#       7
#    16  16  16  16  16  16   8
#     4  12  24  41  64  90 121 162 209 255 308 366
#     4   9  18  33  54  81 114 152 193 239 296 360
#     4  11  24  42  65  94 129 167 211 265 321 382
#     4  10  21  38  60  88 121 157 202 256 310 371
#     4  12  25  41  62  90 126 166 208 257 311 372
#     4  10  22  40  63  91 123 161 209 264 319 379
#     4  12  24  40  60  88 124 160 202 250 301 358
#
# _framework density 20.447126999999998
#
# number of rings (size 3 to 8) (size 9 to 14) (size 15 to 20)
#    0.000    1.231    0.769    5.769    0.000    5.538 
#    0.000    1.538    0.000    1.846    0.000    0.000 
#    0.000    0.000    0.000    0.000    0.000    0.000 
#
# Total GULP energy -290585.181555 kJ/mol
# GULP energy per Si atom -5588.176568 kJ/mol
# Density = 2.040059 g / cm^3
# Si number density = 20.447127 Si / 1000 Ang^3
#
#
#
# Elastic Constant Matrix: (Units=GPa)
#
#
# Indices 1 2 3 4 5 6 
#
# 1 33.0258 13.0769 1.4721 0.0000 0.0000 0.0000
# 2 13.0769 104.1488 27.8316 0.0000 0.0000 0.0000
# 3 1.4721 27.8316 43.9690 0.0000 0.0000 0.0000
# 4 0.0000 0.0000 0.0000 40.4237 0.0000 0.0000
# 5 0.0000 0.0000 0.0000 0.0000 28.7024 0.0000
# 6 0.0000 0.0000 0.0000 0.0000 0.0000 35.6586
#
#
#
# Elastic Compliance Matrix: (Units=1/GPa)
#
#
# Indices 1 2 3 4 5 6 
#
# 1 0.031978 -0.004488 0.001770 0.000000 0.000000 0.000000
# 2 -0.004488 0.012186 -0.007563 0.000000 0.000000 0.000000
# 3 0.001770 -0.007563 0.027472 0.000000 0.000000 0.000000
# 4 0.000000 0.000000 0.000000 0.024738 0.000000 0.000000
# 5 0.000000 0.000000 0.000000 0.000000 0.034840 0.000000
# 6 0.000000 0.000000 0.000000 0.000000 0.000000 0.028044
#
#
# Mechanical properties :
#
#
# Convention : Reuss Voigt Hill
#
# Bulk Modulus (GPa) = 19.57987 29.54497 24.56242
# Shear Modulus (GPa) = 25.40076 30.20780 27.80428
#
# Velocity S-wave (km/s) = 3.52840 3.84782 3.69157
# Velocity P-wave (km/s) = 5.11822 5.84993 5.49627
#
# Compressibility (1/GPa) = 0.05107286
#
# Stress axis : x y z
#
# Youngs Moduli (GPa) = 31.27189 82.05895 36.40129
#
# Poissons Ratio (x) = 0.36830 -0.06444
# Poissons Ratio (y) = 0.14035 0.27532
# Poissons Ratio (z) = -0.05536 0.62065
#
# Static dielectric constant tensor:
#      x y z
#    x 1.695840 0.000000 0.000000 
#    y 0.000000 1.736040 0.000000 
#    z 0.000000 0.000000 1.713670 
# 
# From -- ./inp_files/64482.got.cif
#   From: 2010.05.17/outbox.cif.g08.bks.cpg/sg74_33_cif.got.tgz:64482.got - 2010.06.03 17:57:02.
