data_PCOD9539790
_publ_section_title
;
Structure prediction by ZEFSAII (Michael W. Deem and Ramdas Pophale) SiO2 
 PCOD9539790
Probable space group: I M M A
;
_chemical_formula_sum "Si O2"
_cell_formula_units_Z 64
_cell_length_a 13.006440
_cell_length_b 27.021020
_cell_length_c 8.624419
_cell_angle_alpha 90.000000
_cell_angle_beta 90.000000
_cell_angle_gamma 90.000000
_cell_volume 3031.028559
_symmetry_space_group_name_H-M "I M M A"
_symmetry_group_IT_number 74
_symmetry_cell_setting 'orthorhombic'
loop_
_space_group_symop_operation_xyz
x,y,z
-x,1/2-y,z
x,-y,-z
-x,1/2+y,-z
-x,-y,-z
x,1/2+y,-z
-x,y,z
x,1/2-y,z
1/2+x,1/2+y,1/2+z
1/2-x,-y,1/2+z
1/2+x,1/2-y,1/2-z
1/2-x,y,1/2-z
1/2-x,1/2-y,1/2-z
1/2+x,y,1/2-z
1/2-x,1/2+y,1/2+z
1/2+x,-y,1/2+z
loop_
_atom_site_type_symbol
_atom_site_label
_atom_site_fract_x
_atom_site_fract_y
_atom_site_fract_z
Si Si1 0.323455 0.123411 0.121631
Si Si2 0.000000 0.442871 0.041782
Si Si3 0.000000 0.806283 0.650460
Si Si4 0.670717 0.876788 0.373638
Si Si5 0.500000 0.447043 0.082504
Si Si6 0.000000 0.192626 0.725252
O O1 0.250000 0.099395 0.250000
O O2 0.399223 0.163362 0.198464
O O3 0.398088 0.083837 0.039890
O O4 0.247133 0.147541 0.998537
O O5 0.000000 0.443411 0.229322
O O6 0.000000 0.500000 0.000000
O O7 0.902099 0.415334 0.964481
O O8 0.000000 0.808265 0.462085
O O9 0.000000 0.750000 0.702563
O O10 0.750000 0.900241 0.250000
O O11 0.597975 0.837033 0.290650
O O12 0.500000 0.500000 0.000000
O O13 0.000000 0.250000 0.773388
#
# Coordination Sequence:
#
# PCOD9539790 Si02
#       6
#    16   8   8  16   8   8
#     4  11  23  44  65  90 134 175 214 268 334 392
#     4  11  26  44  64  98 131 164 224 278 324 399
#     4  10  22  39  65  99 132 170 222 273 327 390
#     4  11  23  42  67  95 132 177 217 268 331 391
#     4  11  26  44  66  94 131 172 218 276 333 393
#     4  10  22  39  65 101 132 168 222 278 323 386
#
# _framework density 21.114944999999999
#
# number of rings (size 3 to 8) (size 9 to 14) (size 15 to 20)
#    0.000    1.250    5.000    0.000    3.500    3.000 
#    0.000    1.250    0.000    0.000    0.000    0.000 
#    0.000    0.000    0.000    0.000    0.000    0.000 
#
# Total GULP energy -178657.369006 kJ/mol
# GULP energy per Si atom -5583.042781 kJ/mol
# Density = 2.106689 g / cm^3
# Si number density = 21.114945 Si / 1000 Ang^3
#
#
#
# Elastic Constant Matrix: (Units=GPa)
#
#
# Indices 1 2 3 4 5 6 
#
# 1 158.6376 55.4363 44.8435 -0.0006 0.0001 0.0001
# 2 55.4363 139.1656 19.3877 -0.0011 0.0002 0.0003
# 3 44.8435 19.3877 75.9459 -0.0032 0.0019 0.0008
# 4 -0.0006 -0.0011 -0.0032 28.2538 0.0005 0.0006
# 5 0.0001 0.0002 0.0019 0.0005 35.8039 -0.0002
# 6 0.0001 0.0003 0.0008 0.0006 -0.0002 1.9835
#
#
#
# Elastic Compliance Matrix: (Units=1/GPa)
#
#
# Indices 1 2 3 4 5 6 
#
# 1 0.008493 -0.002784 -0.004304 0.000000 0.000000 0.000002
# 2 -0.002784 0.008363 -0.000491 0.000000 0.000000 -0.000001
# 3 -0.004304 -0.000491 0.015834 0.000002 -0.000001 -0.000006
# 4 0.000000 0.000000 0.000002 0.035393 0.000000 -0.000011
# 5 0.000000 0.000000 -0.000001 0.000000 0.027930 0.000003
# 6 0.000002 -0.000001 -0.000006 -0.000011 0.000003 0.504172
#
#
# Mechanical properties :
#
#
# Convention : Reuss Voigt Hill
#
# Bulk Modulus (GPa) = 57.03875 68.12044 62.57960
# Shear Modulus (GPa) = 8.04909 30.14702 19.09806
#
# Velocity S-wave (km/s) = 1.95456 3.78267 3.01072
# Velocity P-wave (km/s) = 5.67149 7.17007 6.46435
#
# Compressibility (1/GPa) = 0.01753194
#
# Stress axis : x y z
#
# Youngs Moduli (GPa) = 117.74208 119.57489 63.15427
#
# Poissons Ratio (x) = 0.33285 0.27184
# Poissons Ratio (y) = 0.32774 0.03103
# Poissons Ratio (z) = 0.50680 0.05875
#
# Static dielectric constant tensor:
#      x y z
#    x 1.765640 0.000000 0.000000 
#    y 0.000000 1.714780 0.000000 
#    z 0.000000 0.000000 1.825670 
# 
# From -- ./inp_files/7383.got.cif
#   From: 2010.05.17/outbox.cif.g08.bks.cpg/sg74_4_cif.got.tgz:7383.got - 2010.06.03 17:57:02.
