data_PCOD9539339
_publ_section_title
;
Structure prediction by ZEFSAII (Michael W. Deem and Ramdas Pophale) SiO2 
 PCOD9539339
Probable space group: I M M A
;
_chemical_formula_sum "Si O2"
_cell_formula_units_Z 80
_cell_length_a 8.898992
_cell_length_b 25.378986
_cell_length_c 18.787198
_cell_angle_alpha 90.000000
_cell_angle_beta 90.000000
_cell_angle_gamma 90.000000
_cell_volume 4243.039697
_symmetry_space_group_name_H-M "I M M A"
_symmetry_group_IT_number 74
_symmetry_cell_setting 'orthorhombic'
loop_
_space_group_symop_operation_xyz
x,y,z
-x,1/2-y,z
x,-y,-z
-x,1/2+y,-z
-x,-y,-z
x,1/2+y,-z
-x,y,z
x,1/2-y,z
1/2+x,1/2+y,1/2+z
1/2-x,-y,1/2+z
1/2+x,1/2-y,1/2-z
1/2-x,y,1/2-z
1/2-x,1/2-y,1/2-z
1/2+x,y,1/2-z
1/2-x,1/2+y,1/2+z
1/2+x,-y,1/2+z
loop_
_atom_site_type_symbol
_atom_site_label
_atom_site_fract_x
_atom_site_fract_y
_atom_site_fract_z
Si Si1 0.820849 0.688026 0.073028
Si Si2 0.320783 0.005061 0.083078
Si Si3 0.320762 0.399007 0.827644
Si Si4 0.321271 0.401626 0.327255
Si Si5 0.821867 0.687678 0.580702
O O1 0.792279 0.750000 0.087220
O O2 0.750886 0.651024 0.132910
O O3 0.000000 0.680349 0.068591
O O4 0.746017 0.675121 0.996946
O O5 0.500000 0.016196 0.087910
O O6 0.231672 0.051727 0.120781
O O7 0.291626 0.950555 0.124237
O O8 0.282226 0.000000 0.000000
O O9 0.500000 0.392387 0.821826
O O10 0.250000 0.406022 0.750000
O O11 0.500000 0.400180 0.321922
O O12 0.250000 0.410561 0.250000
O O13 0.258713 0.347689 0.360774
O O14 0.799127 0.750000 0.593123
O O15 0.000000 0.676956 0.580477
#
# Coordination Sequence:
#
# PCOD9539339 Si02
#       5
#    16  16  16  16  16
#     4  10  21  38  61  89 120 154 195 243 293 349
#     4  10  22  41  64  89 118 152 193 241 293 351
#     4  11  23  38  59  86 119 158 197 243 296 350
#     4  12  25  40  61  88 121 158 196 242 294 349
#     4  10  21  39  63  89 119 156 197 241 290 346
#
# _framework density 18.854406999999998
#
# number of rings (size 3 to 8) (size 9 to 14) (size 15 to 20)
#    0.000    1.400    0.000    5.400    0.000    8.400 
#    0.000    0.000    0.000    0.000    0.000    0.000 
#    0.000    0.000    0.000    0.000    0.000    0.000 
#
# Total GULP energy -223762.212824 kJ/mol
# GULP energy per Si atom -5594.055321 kJ/mol
# Density = 1.881149 g / cm^3
# Si number density = 18.854407 Si / 1000 Ang^3
#
#
#
# Elastic Constant Matrix: (Units=GPa)
#
#
# Indices 1 2 3 4 5 6 
#
# 1 121.0374 73.8025 89.7394 0.0000 0.0000 0.0000
# 2 73.8025 74.3930 73.3672 0.0000 0.0000 0.0000
# 3 89.7394 73.3672 163.4826 0.0002 0.0000 0.0000
# 4 0.0000 0.0000 0.0002 -151.8729 -0.0001 0.0000
# 5 0.0000 0.0000 0.0000 -0.0001 23.1007 0.0000
# 6 0.0000 0.0000 0.0000 0.0000 0.0000 29.9140
#
#
#
# Elastic Compliance Matrix: (Units=1/GPa)
#
#
# Indices 1 2 3 4 5 6 
#
# 1 0.022388 -0.018103 -0.004165 0.000000 0.000000 0.000000
# 2 -0.018103 0.038753 -0.007454 0.000000 0.000000 0.000000
# 3 -0.004165 -0.007454 0.011749 0.000000 0.000000 0.000000
# 4 0.000000 0.000000 0.000000 -0.006584 0.000000 0.000000
# 5 0.000000 0.000000 0.000000 0.000000 0.043289 0.000000
# 6 0.000000 0.000000 0.000000 0.000000 0.000000 0.033429
#
#
# Mechanical properties :
#
#
# Convention : Reuss Voigt Hill
#
# Bulk Modulus (GPa) = 74.37792 92.52571 83.45181
# Shear Modulus (GPa) = 24.16051 -11.63805 6.26123
#
# Velocity S-wave (km/s) = 3.58358 -2.48716 1.82429
# Velocity P-wave (km/s) = 7.52708 6.39784 6.98532
#
# Compressibility (1/GPa) = 0.01344485
#
# Stress axis : x y z
#
# Youngs Moduli (GPa) = 44.66619 25.80477 85.11599
#
# Poissons Ratio (x) = 0.46713 0.35455
# Poissons Ratio (y) = 0.80857 0.63448
# Poissons Ratio (z) = 0.18605 0.19236
#
# Static dielectric constant tensor:
#      x y z
#    x 1.626600 0.000000 0.000000 
#    y 0.000000 1.637970 0.000000 
#    z 0.000000 0.000000 1.615460 
# 
# From -- ./inp_files/39727.got.cif
#   From: 2010.05.17/outbox.cif.g08.bks.cpg/sg74_20_cif.got.tgz:39727.got - 2010.06.03 17:57:02.
