data_PCOD9539650
_publ_section_title
;
Structure prediction by ZEFSAII (Michael W. Deem and Ramdas Pophale) SiO2 
 PCOD9539650
Probable space group: I M M A
;
_chemical_formula_sum "Si O2"
_cell_formula_units_Z 72
_cell_length_a 10.424434
_cell_length_b 24.737227
_cell_length_c 14.920644
_cell_angle_alpha 90.000000
_cell_angle_beta 90.000000
_cell_angle_gamma 90.000000
_cell_volume 3847.610195
_symmetry_space_group_name_H-M "I M M A"
_symmetry_group_IT_number 74
_symmetry_cell_setting 'orthorhombic'
loop_
_space_group_symop_operation_xyz
x,y,z
-x,1/2-y,z
x,-y,-z
-x,1/2+y,-z
-x,-y,-z
x,1/2+y,-z
-x,y,z
x,1/2-y,z
1/2+x,1/2+y,1/2+z
1/2-x,-y,1/2+z
1/2+x,1/2-y,1/2-z
1/2-x,y,1/2-z
1/2-x,1/2-y,1/2-z
1/2+x,y,1/2-z
1/2-x,1/2+y,1/2+z
1/2+x,-y,1/2+z
loop_
_atom_site_type_symbol
_atom_site_label
_atom_site_fract_x
_atom_site_fract_y
_atom_site_fract_z
Si Si1 0.000000 0.563470 0.256335
Si Si2 0.752555 0.095968 0.142977
Si Si3 0.500000 0.471766 0.095842
Si Si4 0.846803 0.185766 0.480595
Si Si5 0.000000 0.522270 0.899695
Si Si6 0.357217 0.664777 0.186915
O O1 0.000000 0.530443 0.164618
O O2 0.883176 0.604389 0.275168
O O3 0.000000 0.518523 0.331468
O O4 0.750000 0.104496 0.250000
O O5 0.626615 0.063286 0.112000
O O6 0.739237 0.151824 0.088266
O O7 0.876103 0.059667 0.119520
O O8 0.500000 0.500000 0.000000
O O9 0.824581 0.250000 0.475526
O O10 0.821272 0.166210 0.582526
O O11 0.000000 0.176587 0.463565
O O12 0.000000 0.500000 0.000000
O O13 0.500000 0.689903 0.192408
O O14 0.250000 0.689569 0.250000
#
# Coordination Sequence:
#
# PCOD9539650 Si02
#       6
#     8  16   8  16   8  16
#     4  10  22  36  58  92 126 170 197 254 305 382
#     4  12  24  43  63  96 125 167 216 268 306 389
#     4  12  22  38  66  90 124 172 219 250 311 378
#     4  10  22  44  69  93 122 168 221 275 322 373
#     4  12  28  40  61  92 143 172 202 256 325 375
#     4   9  21  36  64  94 128 161 213 257 317 391
#
# _framework density 18.712914999999999
#
# number of rings (size 3 to 8) (size 9 to 14) (size 15 to 20)
#    0.667    0.667    3.333    2.000    6.222    0.889 
#    0.000    0.556    0.000    0.000    0.000    0.000 
#    0.000    0.000    0.000    0.000    0.000    0.000 
#
# Total GULP energy -200818.294605 kJ/mol
# GULP energy per Si atom -5578.285961 kJ/mol
# Density = 1.867032 g / cm^3
# Si number density = 18.712915 Si / 1000 Ang^3
#
#
#
# Elastic Constant Matrix: (Units=GPa)
#
#
# Indices 1 2 3 4 5 6 
#
# 1 105.2772 51.5379 56.3085 0.0000 0.0000 0.0000
# 2 51.5379 139.8926 83.8014 0.0000 0.0000 0.0000
# 3 56.3085 83.8014 198.4914 0.0000 0.0000 0.0000
# 4 0.0000 0.0000 0.0000 -42.9401 0.0000 0.0000
# 5 0.0000 0.0000 0.0000 0.0000 42.9773 0.0000
# 6 0.0000 0.0000 0.0000 0.0000 0.0000 -27.8887
#
#
#
# Elastic Compliance Matrix: (Units=1/GPa)
#
#
# Indices 1 2 3 4 5 6 
#
# 1 0.012206 -0.003243 -0.002094 0.000000 0.000000 0.000000
# 2 -0.003243 0.010430 -0.003483 0.000000 0.000000 0.000000
# 3 -0.002094 -0.003483 0.007103 0.000000 0.000000 0.000000
# 4 0.000000 0.000000 0.000000 -0.023288 0.000000 0.000000
# 5 0.000000 0.000000 0.000000 0.000000 0.023268 0.000000
# 6 0.000000 0.000000 0.000000 0.000000 0.000000 -0.035857
#
#
# Mechanical properties :
#
#
# Convention : Reuss Voigt Hill
#
# Bulk Modulus (GPa) = 82.65243 91.88407 87.26825
# Shear Modulus (GPa) = 321.88424 11.23060 166.55742
#
# Velocity S-wave (km/s) = 13.12956 2.45246 9.44457
# Velocity P-wave (km/s) = 16.55631 7.56492 12.87128
#
# Compressibility (1/GPa) = 0.01209886
#
# Stress axis : x y z
#
# Youngs Moduli (GPa) = 81.92744 95.88014 140.79363
#
# Poissons Ratio (x) = 0.31091 0.29476
# Poissons Ratio (y) = 0.26566 0.49045
# Poissons Ratio (z) = 0.17152 0.33399
#
# Static dielectric constant tensor:
#      x y z
#    x 1.559110 0.000000 0.000000 
#    y 0.000000 1.671120 0.000000 
#    z 0.000000 0.000000 1.619860 
# 
# From -- ./inp_files/29228.got.cif
#   From: 2010.05.17/outbox.cif.g08.bks.cpg/sg74_15_cif.got.tgz:29228.got - 2010.06.03 17:57:02.
