data_PCOD9539695
_publ_section_title
;
Structure prediction by ZEFSAII (Michael W. Deem and Ramdas Pophale) SiO2 
 PCOD9539695
Probable space group: I M M A
;
_chemical_formula_sum "Si O2"
_cell_formula_units_Z 116
_cell_length_a 32.264958
_cell_length_b 7.957791
_cell_length_c 22.728097
_cell_angle_alpha 90.000000
_cell_angle_beta 90.000000
_cell_angle_gamma 90.000000
_cell_volume 5835.616011
_symmetry_space_group_name_H-M "I M M A"
_symmetry_group_IT_number 74
_symmetry_cell_setting 'orthorhombic'
loop_
_space_group_symop_operation_xyz
x,y,z
-x,1/2-y,z
x,-y,-z
-x,1/2+y,-z
-x,-y,-z
x,1/2+y,-z
-x,y,z
x,1/2-y,z
1/2+x,1/2+y,1/2+z
1/2-x,-y,1/2+z
1/2+x,1/2-y,1/2-z
1/2-x,y,1/2-z
1/2-x,1/2-y,1/2-z
1/2+x,y,1/2-z
1/2-x,1/2+y,1/2+z
1/2+x,-y,1/2+z
loop_
_atom_site_type_symbol
_atom_site_label
_atom_site_fract_x
_atom_site_fract_y
_atom_site_fract_z
Si Si1 0.297126 0.944389 0.259939
Si Si2 0.311518 0.945347 0.610637
Si Si3 0.274591 0.941430 0.062993
Si Si4 0.066287 0.545887 0.688912
Si Si5 0.899163 0.547998 0.935015
Si Si6 0.500000 0.250000 0.835981
Si Si7 0.547754 0.047159 0.323276
Si Si8 0.842267 0.439278 0.348933
O O1 0.299601 0.750000 0.241403
O O2 0.250000 0.001915 0.250000
O O3 0.308320 0.959729 0.327748
O O4 0.326310 0.049280 0.217823
O O5 0.318804 0.750000 0.624734
O O6 0.351325 0.006942 0.574235
O O7 0.267193 0.959785 0.579326
O O8 0.261032 0.750000 0.059469
O O9 0.310439 0.957649 0.111376
O O10 0.290731 0.000000 0.000000
O O11 0.055687 0.750000 0.682839
O O12 0.035306 0.402678 0.666426
O O13 0.068333 0.514272 0.759761
O O14 0.109633 0.517864 0.655685
O O15 0.899912 0.750000 0.932668
O O16 0.926628 0.485147 0.879867
O O17 0.914052 0.500000 0.000000
O O18 0.500000 0.985001 0.321889
O O19 0.545880 0.250000 0.328279
O O20 0.838415 0.250000 0.371312
#
# Coordination Sequence:
#
# PCOD9539695 Si02
#       8
#    16  16  16  16  16   4  16  16
#     4  11  22  35  55  87 123 158 198 252 305 358
#     4  11  22  38  59  81 114 162 208 251 306 365
#     4  12  25  41  61  86 120 158 207 253 298 355
#     4  10  22  40  63  94 131 162 196 250 308 375
#     4  10  22  38  54  78 108 151 205 255 307 362
#     4  12  22  36  68  98 130 156 206 236 314 376
#     4   9  17  36  60  80 114 153 192 247 311 368
#     4  11  23  40  63  90 126 163 202 248 307 363
#
# _framework density 19.877935999999998
#
# number of rings (size 3 to 8) (size 9 to 14) (size 15 to 20)
#    0.000    1.379    2.069    3.931    1.931    5.241 
#    1.241    0.000    0.000    0.000    0.000    0.483 
#    0.000    0.000    0.000    0.000    0.000    0.000 
#
# Total GULP energy -323211.077347 kJ/mol
# GULP energy per Si atom -5572.604782 kJ/mol
# Density = 1.983269 g / cm^3
# Si number density = 19.877936 Si / 1000 Ang^3
#
#
#
# Elastic Constant Matrix: (Units=GPa)
#
#
# Indices 1 2 3 4 5 6 
#
# 1 80.1492 24.8574 15.2857 0.0000 0.0000 0.0000
# 2 24.8574 49.7677 -1.4796 0.0000 0.0000 0.0000
# 3 15.2857 -1.4796 54.0267 0.0000 0.0000 0.0000
# 4 0.0000 0.0000 0.0000 20.9008 0.0000 0.0000
# 5 0.0000 0.0000 0.0000 0.0000 -24.4980 0.0000
# 6 0.0000 0.0000 0.0000 0.0000 0.0000 -589.3557
#
#
#
# Elastic Compliance Matrix: (Units=1/GPa)
#
#
# Indices 1 2 3 4 5 6 
#
# 1 0.015879 -0.008071 -0.004714 0.000000 0.000000 0.000000
# 2 -0.008071 0.024212 0.002947 0.000000 0.000000 0.000000
# 3 -0.004714 0.002947 0.019924 0.000000 0.000000 0.000000
# 4 0.000000 0.000000 0.000000 0.047845 0.000000 0.000000
# 5 0.000000 0.000000 0.000000 0.000000 -0.040820 0.000000
# 6 0.000000 0.000000 0.000000 0.000000 0.000000 -0.001697
#
#
# Mechanical properties :
#
#
# Convention : Reuss Voigt Hill
#
# Bulk Modulus (GPa) = 24.79019 29.03007 26.91013
# Shear Modulus (GPa) = 50.77901 -108.90525 -29.06312
#
# Velocity S-wave (km/s) = 5.05973 -7.40985 -3.82786
# Velocity P-wave (km/s) = 6.82882 7.65324 2.44328
#
# Compressibility (1/GPa) = 0.04033854
#
# Stress axis : x y z
#
# Youngs Moduli (GPa) = 62.97678 41.30145 50.19153
#
# Poissons Ratio (x) = 0.33335 0.23658
# Poissons Ratio (y) = 0.50829 -0.14790
# Poissons Ratio (z) = 0.29685 -0.12170
#
# Static dielectric constant tensor:
#      x y z
#    x 1.730710 0.000000 0.000000 
#    y 0.000000 1.697240 0.000000 
#    z 0.000000 0.000000 1.686950 
# 
# From -- ./inp_files/62748.got.cif
#   From: 2010.05.17/outbox.cif.g08.bks.cpg/sg74_32_cif.got.tgz:62748.got - 2010.06.03 17:57:02.
