data_PCOD9539232
_publ_section_title
;
Structure prediction by ZEFSAII (Michael W. Deem and Ramdas Pophale) SiO2 
 PCOD9539232
Probable space group: I M M A
;
_chemical_formula_sum "Si O2"
_cell_formula_units_Z 44
_cell_length_a 7.647129
_cell_length_b 9.687686
_cell_length_c 29.248406
_cell_angle_alpha 90.000000
_cell_angle_beta 90.000000
_cell_angle_gamma 90.000000
_cell_volume 2166.809210
_symmetry_space_group_name_H-M "I M M A"
_symmetry_group_IT_number 74
_symmetry_cell_setting 'orthorhombic'
loop_
_space_group_symop_operation_xyz
x,y,z
-x,1/2-y,z
x,-y,-z
-x,1/2+y,-z
-x,-y,-z
x,1/2+y,-z
-x,y,z
x,1/2-y,z
1/2+x,1/2+y,1/2+z
1/2-x,-y,1/2+z
1/2+x,1/2-y,1/2-z
1/2-x,y,1/2-z
1/2-x,1/2-y,1/2-z
1/2+x,y,1/2-z
1/2-x,1/2+y,1/2+z
1/2+x,-y,1/2+z
loop_
_atom_site_type_symbol
_atom_site_label
_atom_site_fract_x
_atom_site_fract_y
_atom_site_fract_z
Si Si1 0.000000 0.250000 0.157397
Si Si2 0.291924 0.750000 0.303452
Si Si3 0.712385 0.589445 0.455991
Si Si4 0.695115 0.975904 0.856985
O O1 0.153506 0.369777 0.155493
O O2 0.500000 0.750000 0.310760
O O3 0.250000 0.750000 0.250000
O O4 0.216643 0.613955 0.327149
O O5 0.764969 0.500000 0.500000
O O6 0.500000 0.586470 0.453612
O O7 0.764962 0.750000 0.459711
O O8 0.781751 0.521705 0.409747
O O9 0.500000 0.920180 0.850171
#
# Coordination Sequence:
#
# PCOD9539232 Si02
#       4
#     4   8  16  16
#     4  12  26  46  70  98 148 188 220 290 360 424
#     4  12  24  48  81 109 141 183 245 302 353 424
#     4  10  21  37  63  97 140 187 237 295 355 416
#     4  12  25  45  72 105 141 188 238 296 358 426
#
# _framework density 20.306356999999998
#
# number of rings (size 3 to 8) (size 9 to 14) (size 15 to 20)
#    0.000    0.727    5.455    2.182    2.545    0.727 
#    0.000    0.909    0.000    0.000    0.000    0.000 
#    0.000    0.000    0.000    0.000    0.000    0.000 
#
# Total GULP energy -122572.249239 kJ/mol
# GULP energy per Si atom -5571.465875 kJ/mol
# Density = 2.026014 g / cm^3
# Si number density = 20.306357 Si / 1000 Ang^3
#
#
#
# Elastic Constant Matrix: (Units=GPa)
#
#
# Indices 1 2 3 4 5 6 
#
# 1 181.1994 69.1313 18.5245 0.0000 0.0000 0.0000
# 2 69.1313 164.2951 36.7413 0.0000 0.0000 0.0000
# 3 18.5245 36.7413 105.4475 0.0000 0.0000 0.0000
# 4 0.0000 0.0000 0.0000 31.0461 0.0000 0.0000
# 5 0.0000 0.0000 0.0000 0.0000 26.8199 0.0000
# 6 0.0000 0.0000 0.0000 0.0000 0.0000 -116.9691
#
#
#
# Elastic Compliance Matrix: (Units=1/GPa)
#
#
# Indices 1 2 3 4 5 6 
#
# 1 0.006578 -0.002722 -0.000207 0.000000 0.000000 0.000000
# 2 -0.002722 0.007727 -0.002214 0.000000 0.000000 0.000000
# 3 -0.000207 -0.002214 0.010291 0.000000 0.000000 0.000000
# 4 0.000000 0.000000 0.000000 0.032210 0.000000 0.000000
# 5 0.000000 0.000000 0.000000 0.000000 0.037286 0.000000
# 6 0.000000 0.000000 0.000000 0.000000 0.000000 -0.008549
#
#
# Mechanical properties :
#
#
# Convention : Reuss Voigt Hill
#
# Bulk Modulus (GPa) = 69.87990 77.74845 73.81418
# Shear Modulus (GPa) = 49.70190 9.94904 29.82547
#
# Velocity S-wave (km/s) = 4.95269 2.21588 3.83662
# Velocity P-wave (km/s) = 8.19714 6.70206 7.48701
#
# Compressibility (1/GPa) = 0.01431027
#
# Stress axis : x y z
#
# Youngs Moduli (GPa) = 152.01407 129.41687 97.16931
#
# Poissons Ratio (x) = 0.35223 0.02015
# Poissons Ratio (y) = 0.41373 0.21515
# Poissons Ratio (z) = 0.03152 0.28656
#
# Static dielectric constant tensor:
#      x y z
#    x 1.738720 0.000000 0.000000 
#    y 0.000000 1.669540 0.000000 
#    z 0.000000 0.000000 1.160150 
# 
# From -- ./inp_files/69469.got.cif
#   From: 2010.05.17/outbox.cif.g08.bks.cpg/sg74_35_cif.got.tgz:69469.got - 2010.06.03 17:57:02.
