data_PCOD9539315
_publ_section_title
;
Structure prediction by ZEFSAII (Michael W. Deem and Ramdas Pophale) SiO2 
 PCOD9539315
Probable space group: I M M A
;
_chemical_formula_sum "Si O2"
_cell_formula_units_Z 116
_cell_length_a 23.047439
_cell_length_b 15.809629
_cell_length_c 14.870612
_cell_angle_alpha 90.000000
_cell_angle_beta 90.000000
_cell_angle_gamma 90.000000
_cell_volume 5418.426605
_symmetry_space_group_name_H-M "I M M A"
_symmetry_group_IT_number 74
_symmetry_cell_setting 'orthorhombic'
loop_
_space_group_symop_operation_xyz
x,y,z
-x,1/2-y,z
x,-y,-z
-x,1/2+y,-z
-x,-y,-z
x,1/2+y,-z
-x,y,z
x,1/2-y,z
1/2+x,1/2+y,1/2+z
1/2-x,-y,1/2+z
1/2+x,1/2-y,1/2-z
1/2-x,y,1/2-z
1/2-x,1/2-y,1/2-z
1/2+x,y,1/2-z
1/2-x,1/2+y,1/2+z
1/2+x,-y,1/2+z
loop_
_atom_site_type_symbol
_atom_site_label
_atom_site_fract_x
_atom_site_fract_y
_atom_site_fract_z
Si Si1 0.500000 0.250000 0.326286
Si Si2 0.764010 0.384440 0.850772
Si Si3 0.742514 0.419649 0.152926
Si Si4 0.164864 0.847334 0.984995
Si Si5 0.936180 0.656498 0.571114
Si Si6 0.934990 0.581891 0.873731
Si Si7 0.862966 0.844792 0.393364
Si Si8 0.113360 0.978946 0.691159
O O1 0.450563 0.174564 0.333727
O O2 0.750000 0.353055 0.750000
O O3 0.768780 0.485554 0.843920
O O4 0.705607 0.358734 0.902355
O O5 0.817354 0.354623 0.910452
O O6 0.750000 0.376025 0.250000
O O7 0.778832 0.374815 0.074821
O O8 0.673784 0.439236 0.152851
O O9 0.152211 0.750000 0.965497
O O10 0.109439 0.902715 0.955592
O O11 0.929260 0.750000 0.615362
O O12 0.891079 0.648716 0.491106
O O13 0.932247 0.578865 0.638406
O O14 0.000000 0.656056 0.529200
O O15 0.900502 0.532950 0.795646
O O16 0.000000 0.546177 0.894345
O O17 0.874365 0.750000 0.358261
O O18 0.885758 0.922589 0.334080
#
# Coordination Sequence:
#
# PCOD9539315 Si02
#       8
#     4  16  16  16  16  16  16  16
#     4   8  20  40  56  90 136 172 222 264 308 396
#     4  10  23  42  68  91 123 165 215 264 321 385
#     4  10  21  39  58  93 129 168 206 255 322 387
#     4  12  22  37  62  97 134 170 209 268 334 394
#     4  10  22  36  57  86 122 167 214 265 323 391
#     4  10  21  38  60  92 129 174 217 261 321 388
#     4  10  22  41  59  86 124 163 218 277 328 384
#     4  11  21  35  61  88 128 170 216 265 326 396
#
# _framework density 21.408429000000002
#
# number of rings (size 3 to 8) (size 9 to 14) (size 15 to 20)
#    0.414    1.241    2.069    2.483    0.966    6.897 
#    0.000    0.000    0.000    2.483    0.000    1.931 
#    0.000    0.000    0.000    0.000    0.000    0.000 
#
# Total GULP energy -322936.156648 kJ/mol
# GULP energy per Si atom -5567.864770 kJ/mol
# Density = 2.135970 g / cm^3
# Si number density = 21.408429 Si / 1000 Ang^3
#
#
#
# Elastic Constant Matrix: (Units=GPa)
#
#
# Indices 1 2 3 4 5 6 
#
# 1 125.6507 24.4204 59.1379 0.0000 0.0000 0.0000
# 2 24.4204 98.4395 34.2106 0.0000 0.0000 0.0000
# 3 59.1379 34.2106 86.9598 0.0000 0.0000 0.0000
# 4 0.0000 0.0000 0.0000 32.6023 0.0000 0.0000
# 5 0.0000 0.0000 0.0000 0.0000 10.5341 0.0000
# 6 0.0000 0.0000 0.0000 0.0000 0.0000 18.5242
#
#
#
# Elastic Compliance Matrix: (Units=1/GPa)
#
#
# Indices 1 2 3 4 5 6 
#
# 1 0.011707 -0.000159 -0.007899 0.000000 0.000000 0.000000
# 2 -0.000159 0.011770 -0.004522 0.000000 0.000000 0.000000
# 3 -0.007899 -0.004522 0.018650 0.000000 0.000000 0.000000
# 4 0.000000 0.000000 0.000000 0.030673 0.000000 0.000000
# 5 0.000000 0.000000 0.000000 0.000000 0.094930 0.000000
# 6 0.000000 0.000000 0.000000 0.000000 0.000000 0.053983
#
#
# Mechanical properties :
#
#
# Convention : Reuss Voigt Hill
#
# Bulk Modulus (GPa) = 58.93857 60.73199 59.83528
# Shear Modulus (GPa) = 19.79972 25.21752 22.50862
#
# Velocity S-wave (km/s) = 3.04444 3.43581 3.24603
# Velocity P-wave (km/s) = 6.32048 6.64602 6.48530
#
# Compressibility (1/GPa) = 0.01696682
#
# Stress axis : x y z
#
# Youngs Moduli (GPa) = 85.41761 84.96526 53.61829
#
# Poissons Ratio (x) = 0.01352 0.42353
# Poissons Ratio (y) = 0.01359 0.24246
# Poissons Ratio (z) = 0.67471 0.38421
#
# Static dielectric constant tensor:
#      x y z
#    x 1.816540 0.000000 0.000000 
#    y 0.000000 1.775050 0.000000 
#    z 0.000000 0.000000 1.824030 
# 
# From -- ./inp_files/36724.got.cif
#   From: 2010.05.17/outbox.cif.g08.bks.cpg/sg74_19_cif.got.tgz:36724.got - 2010.06.03 17:57:02.
