data_PCOD9539546
_publ_section_title
;
Structure prediction by ZEFSAII (Michael W. Deem and Ramdas Pophale) SiO2 
 PCOD9539546
Probable space group: I M M A
;
_chemical_formula_sum "Si O2"
_cell_formula_units_Z 88
_cell_length_a 15.940973
_cell_length_b 21.449361
_cell_length_c 11.862857
_cell_angle_alpha 90.000000
_cell_angle_beta 90.000000
_cell_angle_gamma 90.000000
_cell_volume 4056.191775
_symmetry_space_group_name_H-M "I M M A"
_symmetry_group_IT_number 74
_symmetry_cell_setting 'orthorhombic'
loop_
_space_group_symop_operation_xyz
x,y,z
-x,1/2-y,z
x,-y,-z
-x,1/2+y,-z
-x,-y,-z
x,1/2+y,-z
-x,y,z
x,1/2-y,z
1/2+x,1/2+y,1/2+z
1/2-x,-y,1/2+z
1/2+x,1/2-y,1/2-z
1/2-x,y,1/2-z
1/2-x,1/2-y,1/2-z
1/2+x,y,1/2-z
1/2-x,1/2+y,1/2+z
1/2+x,-y,1/2+z
loop_
_atom_site_type_symbol
_atom_site_label
_atom_site_fract_x
_atom_site_fract_y
_atom_site_fract_z
Si Si1 0.100209 0.597538 0.720740
Si Si2 0.096607 0.750000 0.088909
Si Si3 0.334775 0.750000 0.174624
Si Si4 0.318806 0.028794 0.825465
Si Si5 0.601488 0.372952 0.467880
Si Si6 0.811310 0.000000 0.000000
Si Si7 0.398950 0.135987 0.969928
O O1 0.124353 0.524443 0.729642
O O2 0.127822 0.630410 0.836428
O O3 0.126890 0.626721 0.600826
O O4 0.000000 0.600920 0.718669
O O5 0.133362 0.813588 0.037778
O O6 0.000000 0.750000 0.050890
O O7 0.098769 0.750000 0.223167
O O8 0.250000 0.750000 0.250000
O O9 0.350892 0.809143 0.094833
O O10 0.250000 0.065572 0.750000
O O11 0.374247 0.073543 0.901856
O O12 0.253147 0.989301 0.899090
O O13 0.500000 0.375370 0.472873
O O14 0.635344 0.437961 0.516712
O O15 0.500000 0.145871 0.965146
#
# Coordination Sequence:
#
# PCOD9539546 Si02
#       7
#    16   8   8  16  16   8  16
#     4  10  21  40  65  93 126 164 213 265 317 378
#     4  10  24  45  66  91 130 169 206 257 325 391
#     4  12  28  45  66  92 126 163 214 263 319 384
#     4  12  23  38  61  94 132 167 208 266 325 377
#     4  10  23  42  65  95 129 173 218 266 324 388
#     4  12  23  38  65  94 134 166 220 268 323 380
#     4  11  24  43  66  92 126 169 215 262 319 385
#
# _framework density 21.695226999999999
#
# number of rings (size 3 to 8) (size 9 to 14) (size 15 to 20)
#    0.000    1.091    3.636    2.182    5.091    2.182 
#    0.000    2.727    0.000    2.182    0.000    0.000 
#    0.000    0.000    0.000    0.000    0.000    0.000 
#
# Total GULP energy -245518.713748 kJ/mol
# GULP energy per Si atom -5579.970767 kJ/mol
# Density = 2.164585 g / cm^3
# Si number density = 21.695227 Si / 1000 Ang^3
#
#
#
# Elastic Constant Matrix: (Units=GPa)
#
#
# Indices 1 2 3 4 5 6 
#
# 1 58.9000 21.6533 15.7403 0.0000 0.0000 0.0000
# 2 21.6533 126.4053 36.7682 0.0000 0.0000 0.0000
# 3 15.7403 36.7682 88.4146 0.0000 0.0000 0.0000
# 4 0.0000 0.0000 0.0000 36.8161 0.0000 0.0000
# 5 0.0000 0.0000 0.0000 0.0000 5.1288 0.0000
# 6 0.0000 0.0000 0.0000 0.0000 0.0000 11.6199
#
#
#
# Elastic Compliance Matrix: (Units=1/GPa)
#
#
# Indices 1 2 3 4 5 6 
#
# 1 0.018504 -0.002516 -0.002248 0.000000 0.000000 0.000000
# 2 -0.002516 0.009342 -0.003437 0.000000 0.000000 0.000000
# 3 -0.002248 -0.003437 0.013140 0.000000 0.000000 0.000000
# 4 0.000000 0.000000 0.000000 0.027162 0.000000 0.000000
# 5 0.000000 0.000000 0.000000 0.000000 0.194976 0.000000
# 6 0.000000 0.000000 0.000000 0.000000 0.000000 0.086060
#
#
# Mechanical properties :
#
#
# Convention : Reuss Voigt Hill
#
# Bulk Modulus (GPa) = 40.67737 46.89374 43.78555
# Shear Modulus (GPa) = 13.37691 24.01684 18.69687
#
# Velocity S-wave (km/s) = 2.48580 3.33079 2.93882
# Velocity P-wave (km/s) = 5.19895 6.03770 5.63396
#
# Compressibility (1/GPa) = 0.02458370
#
# Stress axis : x y z
#
# Youngs Moduli (GPa) = 54.04376 107.04625 76.10434
#
# Poissons Ratio (x) = 0.26931 0.17108
# Poissons Ratio (y) = 0.13596 0.26157
# Poissons Ratio (z) = 0.12149 0.36792
#
# Static dielectric constant tensor:
#      x y z
#    x 1.822800 0.000000 0.000000 
#    y 0.000000 1.762770 0.000000 
#    z 0.000000 0.000000 1.896040 
# 
# From -- ./inp_files/22259.got.cif
#   From: 2010.05.17/outbox.cif.g08.bks.cpg/sg74_12_cif.got.tgz:22259.got - 2010.06.03 17:57:02.
