data_PCOD9539564
_publ_section_title
;
Structure prediction by ZEFSAII (Michael W. Deem and Ramdas Pophale) SiO2 
 PCOD9539564
Probable space group: I M M A
;
_chemical_formula_sum "Si O2"
_cell_formula_units_Z 64
_cell_length_a 19.302180
_cell_length_b 16.930698
_cell_length_c 8.721054
_cell_angle_alpha 90.000000
_cell_angle_beta 90.000000
_cell_angle_gamma 90.000000
_cell_volume 2850.035043
_symmetry_space_group_name_H-M "I M M A"
_symmetry_group_IT_number 74
_symmetry_cell_setting 'orthorhombic'
loop_
_space_group_symop_operation_xyz
x,y,z
-x,1/2-y,z
x,-y,-z
-x,1/2+y,-z
-x,-y,-z
x,1/2+y,-z
-x,y,z
x,1/2-y,z
1/2+x,1/2+y,1/2+z
1/2-x,-y,1/2+z
1/2+x,1/2-y,1/2-z
1/2-x,y,1/2-z
1/2-x,1/2-y,1/2-z
1/2+x,y,1/2-z
1/2-x,1/2+y,1/2+z
1/2+x,-y,1/2+z
loop_
_atom_site_type_symbol
_atom_site_label
_atom_site_fract_x
_atom_site_fract_y
_atom_site_fract_z
Si Si1 0.418526 0.075465 0.604041
Si Si2 0.809521 0.429037 0.377586
Si Si3 0.918704 0.161553 0.199877
Si Si4 0.823345 0.162558 0.666947
O O1 0.500000 0.065098 0.642204
O O2 0.410997 0.146467 0.481582
O O3 0.373084 0.098546 0.750819
O O4 0.396921 0.000000 0.500000
O O5 0.808424 0.500000 0.500000
O O6 0.750000 0.437098 0.250000
O O7 0.879680 0.408187 0.288132
O O8 0.804296 0.354943 0.491696
O O9 0.893866 0.250000 0.237516
O O10 0.000000 0.156991 0.235256
O O11 0.854527 0.250000 0.682030
O O12 0.750000 0.159545 0.750000
#
# Coordination Sequence:
#
# PCOD9539564 Si02
#       4
#    16  16  16  16
#     4  10  21  40  67  98 135 177 219 268 326 390
#     4  12  26  43  66  94 130 173 223 280 340 401
#     4  10  22  41  66  97 134 177 221 266 326 399
#     4  11  24  40  61  93 131 172 222 277 331 391
#
# _framework density 22.455863999999998
#
# number of rings (size 3 to 8) (size 9 to 14) (size 15 to 20)
#    0.000    1.250    0.000    5.250    0.000    9.000 
#    0.000    0.000    0.000    0.000    0.000    0.000 
#    0.000    0.000    0.000    0.000    0.000    0.000 
#
# Total GULP energy -178769.785793 kJ/mol
# GULP energy per Si atom -5586.555806 kJ/mol
# Density = 2.240475 g / cm^3
# Si number density = 22.455864 Si / 1000 Ang^3
#
#
#
# Elastic Constant Matrix: (Units=GPa)
#
#
# Indices 1 2 3 4 5 6 
#
# 1 66.8441 49.1483 57.7054 0.0000 0.0000 0.0000
# 2 49.1483 133.3771 50.9712 0.0000 0.0000 0.0000
# 3 57.7054 50.9712 140.3479 0.0000 0.0000 0.0000
# 4 0.0000 0.0000 0.0000 32.2478 0.0000 0.0000
# 5 0.0000 0.0000 0.0000 0.0000 42.3619 0.0000
# 6 0.0000 0.0000 0.0000 0.0000 0.0000 285.4305
#
#
#
# Elastic Compliance Matrix: (Units=1/GPa)
#
#
# Indices 1 2 3 4 5 6 
#
# 1 0.027625 -0.006780 -0.008896 0.000000 0.000000 0.000000
# 2 -0.006780 0.010370 -0.000978 0.000000 0.000000 0.000000
# 3 -0.008896 -0.000978 0.011138 0.000000 0.000000 0.000000
# 4 0.000000 0.000000 0.000000 0.031010 0.000000 0.000000
# 5 0.000000 0.000000 0.000000 0.000000 0.023606 0.000000
# 6 0.000000 0.000000 0.000000 0.000000 0.000000 0.003503
#
#
# Mechanical properties :
#
#
# Convention : Reuss Voigt Hill
#
# Bulk Modulus (GPa) = 63.19396 72.91321 68.05358
# Shear Modulus (GPa) = 34.28513 84.19098 59.23806
#
# Velocity S-wave (km/s) = 3.91164 6.12969 5.14170
# Velocity P-wave (km/s) = 6.97164 9.09052 8.10066
#
# Compressibility (1/GPa) = 0.01582430
#
# Stress axis : x y z
#
# Youngs Moduli (GPa) = 36.19913 96.43394 89.78129
#
# Poissons Ratio (x) = 0.65381 0.79869
# Poissons Ratio (y) = 0.24543 0.08785
# Poissons Ratio (z) = 0.32203 0.09436
#
# Static dielectric constant tensor:
#      x y z
#    x 1.535990 0.000000 0.000000 
#    y 0.000000 1.919040 0.000000 
#    z 0.000000 0.000000 1.892330 
# 
# From -- ./inp_files/11792.got.cif
#   From: 2010.05.17/outbox.cif.g08.bks.cpg/sg74_6_cif.got.tgz:11792.got - 2010.06.03 17:57:02.
