data_PCOD9539687
_publ_section_title
;
Structure prediction by ZEFSAII (Michael W. Deem and Ramdas Pophale) SiO2 
 PCOD9539687
Probable space group: I M M A
;
_chemical_formula_sum "Si O2"
_cell_formula_units_Z 40
_cell_length_a 14.692319
_cell_length_b 23.001283
_cell_length_c 5.377329
_cell_angle_alpha 90.000000
_cell_angle_beta 90.000000
_cell_angle_gamma 90.000000
_cell_volume 1817.226324
_symmetry_space_group_name_H-M "I M M A"
_symmetry_group_IT_number 74
_symmetry_cell_setting 'orthorhombic'
loop_
_space_group_symop_operation_xyz
x,y,z
-x,1/2-y,z
x,-y,-z
-x,1/2+y,-z
-x,-y,-z
x,1/2+y,-z
-x,y,z
x,1/2-y,z
1/2+x,1/2+y,1/2+z
1/2-x,-y,1/2+z
1/2+x,1/2-y,1/2-z
1/2-x,y,1/2-z
1/2-x,1/2-y,1/2-z
1/2+x,y,1/2-z
1/2-x,1/2+y,1/2+z
1/2+x,-y,1/2+z
loop_
_atom_site_type_symbol
_atom_site_label
_atom_site_fract_x
_atom_site_fract_y
_atom_site_fract_z
Si Si1 0.500000 0.179833 0.157355
Si Si2 0.500000 0.931568 0.470678
Si Si3 0.857460 0.643785 0.246440
Si Si4 0.811260 0.250000 0.006596
O O1 0.500000 0.250000 0.223458
O O2 0.409770 0.172153 0.978891
O O3 0.500000 0.117628 0.310412
O O4 0.410993 0.913971 0.316073
O O5 0.500000 0.000000 0.500000
O O6 0.750000 0.632532 0.250000
O O7 0.868436 0.691602 0.026110
O O8 0.750000 0.250000 0.750000
O O9 0.750000 0.250000 0.250000
#
# Coordination Sequence:
#
# PCOD9539687 Si02
#       4
#     8   8  16   8
#     4  11  24  43  74 107 144 186 250 318 382 453
#     4  11  28  46  65 103 143 196 243 313 378 461
#     4  10  24  43  68 104 142 189 247 306 382 449
#     4  10  22  37  68 113 149 180 241 305 368 439
#
# _framework density 22.011566999999999
#
# number of rings (size 3 to 8) (size 9 to 14) (size 15 to 20)
#    0.000    1.600    2.000    0.000   14.000    3.200 
#    7.200    0.000    0.000    0.000    0.000    0.000 
#    0.000    0.000    0.000    0.000    0.000    0.000 
#
# Total GULP energy -111424.869978 kJ/mol
# GULP energy per Si atom -5571.243499 kJ/mol
# Density = 2.196147 g / cm^3
# Si number density = 22.011567 Si / 1000 Ang^3
#
#
#
# Elastic Constant Matrix: (Units=GPa)
#
#
# Indices 1 2 3 4 5 6 
#
# 1 162.4476 82.2970 19.6192 0.0000 -0.0001 0.0000
# 2 82.2970 230.6667 48.8336 0.0000 0.0000 0.0000
# 3 19.6192 48.8336 93.3968 -0.0001 -0.0004 0.0000
# 4 0.0000 0.0000 -0.0001 28.6890 0.0000 0.0000
# 5 -0.0001 0.0000 -0.0004 0.0000 43.6169 0.0000
# 6 0.0000 0.0000 0.0000 0.0000 0.0000 18.6954
#
#
#
# Elastic Compliance Matrix: (Units=1/GPa)
#
#
# Indices 1 2 3 4 5 6 
#
# 1 0.007517 -0.002640 -0.000199 0.000000 0.000000 0.000000
# 2 -0.002640 0.005802 -0.002479 0.000000 0.000000 0.000000
# 3 -0.000199 -0.002479 0.012045 0.000000 0.000000 0.000000
# 4 0.000000 0.000000 0.000000 0.034857 0.000000 0.000000
# 5 0.000000 0.000000 0.000000 0.000000 0.022927 0.000000
# 6 0.000000 0.000000 0.000000 0.000000 0.000000 0.053489
#
#
# Mechanical properties :
#
#
# Convention : Reuss Voigt Hill
#
# Bulk Modulus (GPa) = 67.89493 87.55672 77.72583
# Shear Modulus (GPa) = 32.85544 40.58435 36.71990
#
# Velocity S-wave (km/s) = 3.86767 4.29858 4.08880
# Velocity P-wave (km/s) = 7.13142 8.03125 7.59468
#
# Compressibility (1/GPa) = 0.01472864
#
# Stress axis : x y z
#
# Youngs Moduli (GPa) = 133.02768 172.35565 83.02216
#
# Poissons Ratio (x) = 0.45500 0.01650
# Poissons Ratio (y) = 0.35118 0.20582
# Poissons Ratio (z) = 0.02644 0.42728
#
# Static dielectric constant tensor:
#      x y z
#    x 1.963810 0.000000 0.000000 
#    y 0.000000 1.781220 0.000000 
#    z 0.000000 0.000000 4.514120 
# 
# From -- ./inp_files/1175.got.cif
#   From: 2010.05.17/outbox.cif.g08.bks.cpg/sg74_1_cif.got.tgz:1175.got - 2010.06.03 17:57:02.
