data_PCOD9539604
_publ_section_title
;
Structure prediction by ZEFSAII (Michael W. Deem and Ramdas Pophale) SiO2 
 PCOD9539604
Probable space group: I M M A
;
_chemical_formula_sum "Si O2"
_cell_formula_units_Z 120
_cell_length_a 21.465047
_cell_length_b 21.246660
_cell_length_c 12.079867
_cell_angle_alpha 90.000000
_cell_angle_beta 90.000000
_cell_angle_gamma 90.000000
_cell_volume 5509.150854
_symmetry_space_group_name_H-M "I M M A"
_symmetry_group_IT_number 74
_symmetry_cell_setting 'orthorhombic'
loop_
_space_group_symop_operation_xyz
x,y,z
-x,1/2-y,z
x,-y,-z
-x,1/2+y,-z
-x,-y,-z
x,1/2+y,-z
-x,y,z
x,1/2-y,z
1/2+x,1/2+y,1/2+z
1/2-x,-y,1/2+z
1/2+x,1/2-y,1/2-z
1/2-x,y,1/2-z
1/2-x,1/2-y,1/2-z
1/2+x,y,1/2-z
1/2-x,1/2+y,1/2+z
1/2+x,-y,1/2+z
loop_
_atom_site_type_symbol
_atom_site_label
_atom_site_fract_x
_atom_site_fract_y
_atom_site_fract_z
Si Si1 0.386818 0.927138 0.013906
Si Si2 0.428975 0.488647 0.369287
Si Si3 0.573422 0.385892 0.749327
Si Si4 0.740125 0.570640 0.510882
Si Si5 0.750000 0.631311 0.750000
Si Si6 0.658425 0.819252 0.413857
Si Si7 0.120584 0.681709 0.663156
Si Si8 0.928670 0.350707 0.115614
O O1 0.417607 0.896223 0.121184
O O2 0.311973 0.931019 0.028121
O O3 0.395561 0.878527 0.912409
O O4 0.408643 0.000000 0.000000
O O5 0.431400 0.500000 0.500000
O O6 0.500000 0.483600 0.326409
O O7 0.403110 0.548895 0.307680
O O8 0.401142 0.419984 0.357060
O O9 0.500000 0.376702 0.722617
O O10 0.616752 0.333528 0.693839
O O11 0.713655 0.500000 0.500000
O O12 0.739183 0.590405 0.639712
O O13 0.705606 0.624137 0.440203
O O14 0.810704 0.671649 0.716832
O O15 0.687789 0.750000 0.408245
O O16 0.611341 0.821372 0.518301
O O17 0.119123 0.750000 0.605148
O O18 0.075406 0.683212 0.768187
O O19 0.000000 0.357466 0.077511
#
# Coordination Sequence:
#
# PCOD9539604 Si02
#       8
#    16  16  16  16   8  16  16  16
#     4  10  24  46  68  97 132 172 227 283 335 400
#     4   9  17  33  58  91 123 160 207 258 310 380
#     4  11  24  42  67  95 135 182 222 269 338 411
#     4  10  24  42  68  98 130 176 226 283 341 402
#     4  10  21  42  66  94 131 166 214 274 343 400
#     4  12  26  41  63  97 136 179 224 276 336 402
#     4  11  23  39  64  93 124 170 220 272 325 392
#     4  11  22  37  61  96 135 167 209 269 333 390
#
# _framework density 21.781941
#
# number of rings (size 3 to 8) (size 9 to 14) (size 15 to 20)
#    0.000    1.467    2.667    1.800    1.867    9.067 
#    0.000    0.667    0.000    0.000    0.000    0.000 
#    0.000    0.000    0.000    0.000    0.000    0.000 
#
# Total GULP energy -335194.815677 kJ/mol
# GULP energy per Si atom -5586.580261 kJ/mol
# Density = 2.173236 g / cm^3
# Si number density = 21.781941 Si / 1000 Ang^3
#
#
#
# Elastic Constant Matrix: (Units=GPa)
#
#
# Indices 1 2 3 4 5 6 
#
# 1 42.0417 6.7214 -2.1218 0.0000 0.0000 0.0000
# 2 6.7214 146.8608 20.5016 0.0000 0.0000 0.0000
# 3 -2.1218 20.5016 81.2855 0.0000 0.0000 0.0000
# 4 0.0000 0.0000 0.0000 2.9221 0.0000 0.0000
# 5 0.0000 0.0000 0.0000 0.0000 23.0966 0.0000
# 6 0.0000 0.0000 0.0000 0.0000 0.0000 -35.1018
#
#
#
# Elastic Compliance Matrix: (Units=1/GPa)
#
#
# Indices 1 2 3 4 5 6 
#
# 1 0.024030 -0.001231 0.000938 0.000000 0.000000 0.000000
# 2 -0.001231 0.007121 -0.001828 0.000000 0.000000 0.000000
# 3 0.000938 -0.001828 0.012788 0.000000 0.000000 0.000000
# 4 0.000000 0.000000 0.000000 0.342214 0.000000 0.000000
# 5 0.000000 0.000000 0.000000 0.000000 0.043296 0.000000
# 6 0.000000 0.000000 0.000000 0.000000 0.000000 -0.028489
#
#
# Mechanical properties :
#
#
# Convention : Reuss Voigt Hill
#
# Bulk Modulus (GPa) = 25.19125 35.59894 30.39510
# Shear Modulus (GPa) = 11.94930 14.52250 13.23590
#
# Velocity S-wave (km/s) = 2.34474 2.58490 2.46774
# Velocity P-wave (km/s) = 4.34979 5.02869 4.70151
#
# Compressibility (1/GPa) = 0.03969632
#
# Stress axis : x y z
#
# Youngs Moduli (GPa) = 41.61465 140.43571 78.19913
#
# Poissons Ratio (x) = 0.17283 -0.07332
# Poissons Ratio (y) = 0.05121 0.14296
# Poissons Ratio (z) = -0.03902 0.25673
#
# Static dielectric constant tensor:
#      x y z
#    x 1.823180 0.000000 0.000000 
#    y 0.000000 1.790950 0.000000 
#    z 0.000000 0.000000 1.767390 
# 
# From -- ./inp_files/25451.got.cif
#   From: 2010.05.17/outbox.cif.g08.bks.cpg/sg74_13_cif.got.tgz:25451.got - 2010.06.03 17:57:02.
