data_PCOD9539020
_publ_section_title
;
Structure prediction by ZEFSAII (Michael W. Deem and Ramdas Pophale) SiO2 
 PCOD9539020
Probable space group: I M M A
;
_chemical_formula_sum "Si O2"
_cell_formula_units_Z 96
_cell_length_a 24.992505
_cell_length_b 23.280514
_cell_length_c 9.466920
_cell_angle_alpha 90.000000
_cell_angle_beta 90.000000
_cell_angle_gamma 90.000000
_cell_volume 5508.217231
_symmetry_space_group_name_H-M "I M M A"
_symmetry_group_IT_number 74
_symmetry_cell_setting 'orthorhombic'
loop_
_space_group_symop_operation_xyz
x,y,z
-x,1/2-y,z
x,-y,-z
-x,1/2+y,-z
-x,-y,-z
x,1/2+y,-z
-x,y,z
x,1/2-y,z
1/2+x,1/2+y,1/2+z
1/2-x,-y,1/2+z
1/2+x,1/2-y,1/2-z
1/2-x,y,1/2-z
1/2-x,1/2-y,1/2-z
1/2+x,y,1/2-z
1/2-x,1/2+y,1/2+z
1/2+x,-y,1/2+z
loop_
_atom_site_type_symbol
_atom_site_label
_atom_site_fract_x
_atom_site_fract_y
_atom_site_fract_z
Si Si1 0.500000 0.864790 0.404818
Si Si2 0.099924 0.818880 0.267203
Si Si3 0.000000 0.519466 0.267521
Si Si4 0.500000 0.114786 0.267578
Si Si5 0.105323 0.124307 0.425731
Si Si6 0.411800 0.000000 0.000000
Si Si7 0.215854 0.815588 0.609346
Si Si8 0.291843 0.685153 0.376019
O O1 0.448783 0.835095 0.333910
O O2 0.500000 0.930929 0.348745
O O3 0.500000 0.859988 0.574466
O O4 0.103632 0.750000 0.286081
O O5 0.093805 0.847704 0.420796
O O6 0.154133 0.839826 0.189176
O O7 0.000000 0.454348 0.212445
O O8 0.949575 0.523170 0.373464
O O9 0.446822 0.129708 0.175522
O O10 0.159135 0.154312 0.371398
O O11 0.117300 0.056525 0.445042
O O12 0.204383 0.750000 0.559208
O O13 0.250000 0.812762 0.750000
O O14 0.256647 0.843987 0.497350
O O15 0.306159 0.750000 0.427617
O O16 0.250000 0.690188 0.250000
#
# Coordination Sequence:
#
# PCOD9539020 Si02
#       8
#     8  16   8   8  16   8  16  16
#     4  12  22  37  55  85 118 148 183 241 288 340
#     4  11  22  36  58  84 114 151 192 237 288 339
#     4   9  17  37  59  80 107 147 195 232 271 343
#     4  10  25  36  56  85 117 150 188 225 293 345
#     4  11  20  39  61  82 114 148 194 236 281 346
#     4   9  18  34  62  86 102 146 196 243 278 326
#     4  10  21  36  59  84 112 151 187 227 283 345
#     4   9  17  33  55  80 104 137 189 230 261 328
#
# _framework density 17.428505999999999
#
# number of rings (size 3 to 8) (size 9 to 14) (size 15 to 20)
#    0.000    1.833    3.333    2.000    2.333    0.000 
#    0.000    3.750    3.667    0.000    0.000    0.000 
#    0.000    0.000    0.000    0.000    0.000    0.000 
#
# Total GULP energy -267404.726486 kJ/mol
# GULP energy per Si atom -5570.931802 kJ/mol
# Density = 1.738884 g / cm^3
# Si number density = 17.428506 Si / 1000 Ang^3
#
#
#
# Elastic Constant Matrix: (Units=GPa)
#
#
# Indices 1 2 3 4 5 6 
#
# 1 137.4833 41.6805 59.9177 0.0000 0.0000 0.0000
# 2 41.6805 67.4317 25.7255 0.0000 0.0000 0.0000
# 3 59.9177 25.7255 101.1081 0.0000 0.0000 0.0000
# 4 0.0000 0.0000 0.0000 -27.0323 0.0000 0.0000
# 5 0.0000 0.0000 0.0000 0.0000 25.8861 0.0000
# 6 0.0000 0.0000 0.0000 0.0000 0.0000 11.4956
#
#
#
# Elastic Compliance Matrix: (Units=1/GPa)
#
#
# Indices 1 2 3 4 5 6 
#
# 1 0.011050 -0.004798 -0.005328 0.000000 0.000000 0.000000
# 2 -0.004798 0.018507 -0.001866 0.000000 0.000000 0.000000
# 3 -0.005328 -0.001866 0.013522 0.000000 0.000000 0.000000
# 4 0.000000 0.000000 0.000000 -0.036993 0.000000 0.000000
# 5 0.000000 0.000000 0.000000 0.000000 0.038631 0.000000
# 6 0.000000 0.000000 0.000000 0.000000 0.000000 0.086990
#
#
# Mechanical properties :
#
#
# Convention : Reuss Voigt Hill
#
# Bulk Modulus (GPa) = 52.36322 62.29675 57.32998
# Shear Modulus (GPa) = 30.85372 13.98318 22.41845
#
# Velocity S-wave (km/s) = 4.21206 2.83559 3.59041
# Velocity P-wave (km/s) = 7.33247 6.82221 7.08194
#
# Compressibility (1/GPa) = 0.01909737
#
# Stress axis : x y z
#
# Youngs Moduli (GPa) = 90.49786 54.03336 73.95171
#
# Poissons Ratio (x) = 0.25923 0.39399
# Poissons Ratio (y) = 0.43418 0.13797
# Poissons Ratio (z) = 0.48214 0.10081
#
# Static dielectric constant tensor:
#      x y z
#    x 1.619000 0.000000 0.000000 
#    y 0.000000 1.616920 0.000000 
#    z 0.000000 0.000000 1.714040 
# 
# From -- ./inp_files/14009.got.cif
#   From: 2010.05.17/outbox.cif.g08.bks.cpg/sg74_8_cif.got.tgz:14009.got - 2010.06.03 17:57:02.
