data_PCOD9539745
_publ_section_title
;
Structure prediction by ZEFSAII (Michael W. Deem and Ramdas Pophale) SiO2 
 PCOD9539745
Probable space group: I M M A
;
_chemical_formula_sum "Si O2"
_cell_formula_units_Z 112
_cell_length_a 19.436316
_cell_length_b 19.401495
_cell_length_c 17.822359
_cell_angle_alpha 90.000000
_cell_angle_beta 90.000000
_cell_angle_gamma 90.000000
_cell_volume 6720.697296
_symmetry_space_group_name_H-M "I M M A"
_symmetry_group_IT_number 74
_symmetry_cell_setting 'orthorhombic'
loop_
_space_group_symop_operation_xyz
x,y,z
-x,1/2-y,z
x,-y,-z
-x,1/2+y,-z
-x,-y,-z
x,1/2+y,-z
-x,y,z
x,1/2-y,z
1/2+x,1/2+y,1/2+z
1/2-x,-y,1/2+z
1/2+x,1/2-y,1/2-z
1/2-x,y,1/2-z
1/2-x,1/2-y,1/2-z
1/2+x,y,1/2-z
1/2-x,1/2+y,1/2+z
1/2+x,-y,1/2+z
loop_
_atom_site_type_symbol
_atom_site_label
_atom_site_fract_x
_atom_site_fract_y
_atom_site_fract_z
Si Si1 0.918577 0.603822 0.703316
Si Si2 0.813123 0.574332 0.459109
Si Si3 0.324583 0.030823 0.788639
Si Si4 0.079334 0.062783 0.841235
Si Si5 0.919634 0.169734 0.456580
Si Si6 0.658631 0.916440 0.489089
Si Si7 0.422060 0.103947 0.367475
O O1 0.866648 0.539838 0.697200
O O2 0.908838 0.651480 0.631275
O O3 0.906080 0.635437 0.785967
O O4 0.000000 0.581849 0.703863
O O5 0.819528 0.500000 0.500000
O O6 0.816696 0.564751 0.369775
O O7 0.871564 0.622725 0.492597
O O8 0.737445 0.602833 0.477474
O O9 0.250000 0.018752 0.750000
O O10 0.371656 0.073421 0.730231
O O11 0.112202 0.095649 0.915712
O O12 0.000000 0.082795 0.829926
O O13 0.079881 0.979323 0.853996
O O14 0.906296 0.250000 0.469099
O O15 0.000000 0.155539 0.472512
O O16 0.627966 0.882734 0.563735
O O17 0.657712 0.000000 0.500000
O O18 0.500000 0.121839 0.388747
#
# Coordination Sequence:
#
# PCOD9539745 Si02
#       7
#    16  16  16  16  16  16  16
#     4   9  18  31  48  71 100 137 176 216 265 313
#     4  11  21  33  51  79 106 138 174 217 273 321
#     4  11  19  30  47  76 112 140 170 213 270 325
#     4   9  16  26  41  65  99 136 168 207 259 313
#     4  10  22  39  56  74 103 143 185 228 270 315
#     4   9  16  26  42  69 100 133 166 206 258 314
#     4   8  14  24  42  66  96 133 170 209 255 308
#
# _framework density 16.664937999999999
#
# number of rings (size 3 to 8) (size 9 to 14) (size 15 to 20)
#    0.000    2.429    2.857    1.714    2.000    3.143 
#    0.000    0.000    0.000    4.286    0.000    0.000 
#    0.000    1.714    0.000    0.286    0.000    0.000 
#
# Total GULP energy -311951.566940 kJ/mol
# GULP energy per Si atom -5570.563695 kJ/mol
# Density = 1.662701 g / cm^3
# Si number density = 16.664938 Si / 1000 Ang^3
#
#
#
# Elastic Constant Matrix: (Units=GPa)
#
#
# Indices 1 2 3 4 5 6 
#
# 1 123.6244 38.3176 78.0294 0.0000 0.0000 0.0000
# 2 38.3176 17.7433 24.9262 0.0000 0.0000 0.0000
# 3 78.0294 24.9262 132.5245 0.0000 0.0000 0.0000
# 4 0.0000 0.0000 0.0000 8.8355 0.0000 0.0000
# 5 0.0000 0.0000 0.0000 0.0000 33.9802 0.0000
# 6 0.0000 0.0000 0.0000 0.0000 0.0000 6.2327
#
#
#
# Elastic Compliance Matrix: (Units=1/GPa)
#
#
# Indices 1 2 3 4 5 6 
#
# 1 0.028679 -0.051934 -0.007118 0.000000 0.000000 0.000000
# 2 -0.051934 0.170647 -0.001518 0.000000 0.000000 0.000000
# 3 -0.007118 -0.001518 0.012022 0.000000 0.000000 0.000000
# 4 0.000000 0.000000 0.000000 0.113180 0.000000 0.000000
# 5 0.000000 0.000000 0.000000 0.000000 0.029429 0.000000
# 6 0.000000 0.000000 0.000000 0.000000 0.000000 0.160444
#
#
# Mechanical properties :
#
#
# Convention : Reuss Voigt Hill
#
# Bulk Modulus (GPa) = 11.08549 61.82652 36.45601
# Shear Modulus (GPa) = 7.51191 18.65095 13.08143
#
# Velocity S-wave (km/s) = 2.12542 3.34903 2.80477
# Velocity P-wave (km/s) = 3.56225 7.22046 5.69318
#
# Compressibility (1/GPa) = 0.09020798
#
# Stress axis : x y z
#
# Youngs Moduli (GPa) = 34.86923 5.86005 83.18027
#
# Poissons Ratio (x) = 0.30434 0.59204
# Poissons Ratio (y) = 1.81090 0.12628
# Poissons Ratio (z) = 0.24818 0.00890
#
# Static dielectric constant tensor:
#      x y z
#    x 1.566210 0.000000 0.000000 
#    y 0.000000 1.528560 0.000000 
#    z 0.000000 0.000000 1.581840 
# 
# From -- ./inp_files/44385.got.cif
#   From: 2010.05.17/outbox.cif.g08.bks.cpg/sg74_23_cif.got.tgz:44385.got - 2010.06.03 17:57:02.
