data_PCOD9539454
_publ_section_title
;
Structure prediction by ZEFSAII (Michael W. Deem and Ramdas Pophale) SiO2 
 PCOD9539454
Probable space group: I M M A
;
_chemical_formula_sum "Si O2"
_cell_formula_units_Z 116
_cell_length_a 7.760733
_cell_length_b 27.278153
_cell_length_c 23.472972
_cell_angle_alpha 90.000000
_cell_angle_beta 90.000000
_cell_angle_gamma 90.000000
_cell_volume 4969.192075
_symmetry_space_group_name_H-M "I M M A"
_symmetry_group_IT_number 74
_symmetry_cell_setting 'orthorhombic'
loop_
_space_group_symop_operation_xyz
x,y,z
-x,1/2-y,z
x,-y,-z
-x,1/2+y,-z
-x,-y,-z
x,1/2+y,-z
-x,y,z
x,1/2-y,z
1/2+x,1/2+y,1/2+z
1/2-x,-y,1/2+z
1/2+x,1/2-y,1/2-z
1/2-x,y,1/2-z
1/2-x,1/2-y,1/2-z
1/2+x,y,1/2-z
1/2-x,1/2+y,1/2+z
1/2+x,-y,1/2+z
loop_
_atom_site_type_symbol
_atom_site_label
_atom_site_fract_x
_atom_site_fract_y
_atom_site_fract_z
Si Si1 0.789187 0.460602 0.369147
Si Si2 0.301536 0.194970 0.411143
Si Si3 0.789123 0.172096 0.660444
Si Si4 0.201304 0.554452 0.995025
Si Si5 0.705483 0.940727 0.185031
Si Si6 0.695463 0.370066 0.191960
Si Si7 0.802997 0.157036 0.530947
Si Si8 0.500000 0.250000 0.695506
O O1 0.721099 0.437549 0.427705
O O2 0.729199 0.515970 0.356313
O O3 0.723297 0.423138 0.320933
O O4 0.000000 0.460801 0.372583
O O5 0.500000 0.195679 0.393029
O O6 0.231735 0.250000 0.410892
O O7 0.209784 0.161712 0.364767
O O8 0.296280 0.175563 0.475743
O O9 0.743666 0.115472 0.673903
O O10 0.755608 0.178062 0.592432
O O11 0.655060 0.207478 0.691631
O O12 0.000000 0.180083 0.670087
O O13 0.287333 0.597932 0.030174
O O14 0.000000 0.553510 0.010726
O O15 0.277317 0.500000 0.000000
O O16 0.500000 0.940814 0.178722
O O17 0.750000 0.953542 0.250000
O O18 0.500000 0.382078 0.202413
O O19 0.750000 0.344397 0.250000
O O20 0.000000 0.170507 0.520656
#
# Coordination Sequence:
#
# PCOD9539454 Si02
#       8
#    16  16  16  16  16  16  16   4
#     4  10  21  39  62  94 128 174 217 262 331 394
#     4  11  25  42  64  93 125 165 218 273 326 386
#     4  10  25  45  69 103 137 176 228 279 344 407
#     4  11  23  36  57  92 133 170 215 262 317 389
#     4  10  22  42  68  97 136 174 224 278 332 409
#     4  11  23  40  64  92 128 169 218 267 324 385
#     4  11  23  41  65  93 131 174 213 272 329 396
#     4  12  26  44  78  98 136 180 224 290 338 416
#
# _framework density 23.343834000000001
#
# number of rings (size 3 to 8) (size 9 to 14) (size 15 to 20)
#    0.000    1.379    1.379    3.103    3.862    4.690 
#    0.000    0.345    0.000    0.000    0.000    0.000 
#    0.000    0.000    0.000    0.000    0.000    0.000 
#
# Total GULP energy -323544.993425 kJ/mol
# GULP energy per Si atom -5578.361956 kJ/mol
# Density = 2.329070 g / cm^3
# Si number density = 23.343834 Si / 1000 Ang^3
#
#
#
# Elastic Constant Matrix: (Units=GPa)
#
#
# Indices 1 2 3 4 5 6 
#
# 1 59.7057 14.6934 10.0749 0.0000 0.0000 0.0000
# 2 14.6934 100.9975 2.5761 0.0000 0.0000 0.0000
# 3 10.0749 2.5761 74.9324 -0.0001 0.0000 0.0000
# 4 0.0000 0.0000 -0.0001 -0.8091 0.0000 0.0000
# 5 0.0000 0.0000 0.0000 0.0000 16.7459 0.0000
# 6 0.0000 0.0000 0.0000 0.0000 0.0000 11.6963
#
#
#
# Elastic Compliance Matrix: (Units=1/GPa)
#
#
# Indices 1 2 3 4 5 6 
#
# 1 0.017758 -0.002525 -0.002301 0.000000 0.000000 0.000000
# 2 -0.002525 0.010269 -0.000014 0.000000 0.000000 0.000000
# 3 -0.002301 -0.000014 0.013655 -0.000001 0.000000 0.000000
# 4 0.000000 0.000000 -0.000001 -1.235944 0.000000 -0.000001
# 5 0.000000 0.000000 0.000000 0.000000 0.059716 0.000000
# 6 0.000000 0.000000 0.000000 -0.000001 0.000000 0.085497
#
#
# Mechanical properties :
#
#
# Convention : Reuss Voigt Hill
#
# Bulk Modulus (GPa) = 31.24617 32.25828 31.75222
# Shear Modulus (GPa) = -4.86050 19.41269 7.27610
#
# Velocity S-wave (km/s) = -1.44453 2.88687 1.76740
# Velocity P-wave (km/s) = 3.26068 4.99608 4.21858
#
# Compressibility (1/GPa) = 0.03200393
#
# Stress axis : x y z
#
# Youngs Moduli (GPa) = 56.31131 97.38138 73.23223
#
# Poissons Ratio (x) = 0.24587 0.16850
# Poissons Ratio (y) = 0.14218 0.00099
# Poissons Ratio (z) = 0.12957 0.00132
#
# Static dielectric constant tensor:
#      x y z
#    x 1.859590 0.000000 0.000000 
#    y 0.000000 1.908330 0.000000 
#    z 0.000000 0.000000 1.948210 
# 
# From -- ./inp_files/57715.got.cif
#   From: 2010.05.17/outbox.cif.g08.bks.cpg/sg74_29_cif.got.tgz:57715.got - 2010.06.03 17:57:02.
