data_PCOD9539889
_publ_section_title
;
Structure prediction by ZEFSAII (Michael W. Deem and Ramdas Pophale) SiO2 
 PCOD9539889
Probable space group: I M M A
;
_chemical_formula_sum "Si O2"
_cell_formula_units_Z 100
_cell_length_a 7.344603
_cell_length_b 29.800079
_cell_length_c 19.999607
_cell_angle_alpha 90.000000
_cell_angle_beta 90.000000
_cell_angle_gamma 90.000000
_cell_volume 4377.308977
_symmetry_space_group_name_H-M "I M M A"
_symmetry_group_IT_number 74
_symmetry_cell_setting 'orthorhombic'
loop_
_space_group_symop_operation_xyz
x,y,z
-x,1/2-y,z
x,-y,-z
-x,1/2+y,-z
-x,-y,-z
x,1/2+y,-z
-x,y,z
x,1/2-y,z
1/2+x,1/2+y,1/2+z
1/2-x,-y,1/2+z
1/2+x,1/2-y,1/2-z
1/2-x,y,1/2-z
1/2-x,1/2-y,1/2-z
1/2+x,y,1/2-z
1/2-x,1/2+y,1/2+z
1/2+x,-y,1/2+z
loop_
_atom_site_type_symbol
_atom_site_label
_atom_site_fract_x
_atom_site_fract_y
_atom_site_fract_z
Si Si1 0.282206 0.383701 0.918796
Si Si2 0.783733 0.319231 0.470051
Si Si3 0.217504 0.300200 0.670615
Si Si4 0.283496 0.559022 0.824673
Si Si5 0.216908 0.161022 0.324542
Si Si6 0.277191 0.015626 0.926263
Si Si7 0.500000 0.250000 0.524178
O O1 0.500000 0.385124 0.907747
O O2 0.214978 0.343986 0.869481
O O3 0.213833 0.434055 0.909419
O O4 0.259102 0.368057 0.996037
O O5 0.723078 0.315307 0.392815
O O6 0.659505 0.288058 0.514237
O O7 0.000000 0.308680 0.475035
O O8 0.293242 0.250000 0.652694
O O9 0.250000 0.305637 0.750000
O O10 0.000000 0.297952 0.659479
O O11 0.500000 0.562938 0.835915
O O12 0.250000 0.542470 0.750000
O O13 0.210766 0.609949 0.827313
O O14 0.213295 0.522660 0.875950
O O15 0.250000 0.179706 0.250000
O O16 0.000000 0.159280 0.330961
O O17 0.500000 0.016802 0.924052
O O18 0.226060 0.000000 0.000000
#
# Coordination Sequence:
#
# PCOD9539889 Si02
#       7
#    16  16  16  16  16  16   4
#     4   9  18  33  56  80 108 151 189 233 286 340
#     4  10  22  41  61  85 116 149 195 239 294 351
#     4   9  18  33  51  74 102 139 181 228 278 330
#     4   9  17  30  51  82 111 147 191 230 276 337
#     4   9  18  33  58  82 111 151 192 234 285 341
#     4   9  16  28  51  81 111 141 186 233 275 330
#     4  12  26  40  62  90 114 148 188 248 302 348
#
# _framework density 22.845086999999999
#
# number of rings (size 3 to 8) (size 9 to 14) (size 15 to 20)
#    0.000    2.720    0.000    1.200    2.240    4.480 
#    1.440    0.400    1.760    0.480    0.000    0.000 
#    0.000    0.000    0.000    0.000    0.000    0.480 
#
# Total GULP energy -278561.013976 kJ/mol
# GULP energy per Si atom -5571.220280 kJ/mol
# Density = 2.279309 g / cm^3
# Si number density = 22.845087 Si / 1000 Ang^3
#
#
#
# Elastic Constant Matrix: (Units=GPa)
#
#
# Indices 1 2 3 4 5 6 
#
# 1 91.2456 -0.8485 -15.9707 0.0000 0.0000 0.0000
# 2 -0.8485 57.4998 16.1010 0.0000 0.0000 0.0000
# 3 -15.9707 16.1010 101.4743 -0.0001 0.0000 0.0000
# 4 0.0000 0.0000 -0.0001 22.4162 0.0000 0.0000
# 5 0.0000 0.0000 0.0000 0.0000 2.4898 0.0000
# 6 0.0000 0.0000 0.0000 0.0000 0.0000 7.7017
#
#
#
# Elastic Compliance Matrix: (Units=1/GPa)
#
#
# Indices 1 2 3 4 5 6 
#
# 1 0.011276 -0.000346 0.001830 0.000000 0.000000 0.000000
# 2 -0.000346 0.018211 -0.002944 0.000000 0.000000 0.000000
# 3 0.001830 -0.002944 0.010610 0.000000 0.000000 0.000000
# 4 0.000000 0.000000 0.000000 0.044611 0.000000 0.000000
# 5 0.000000 0.000000 0.000000 0.000000 0.401633 0.000000
# 6 0.000000 0.000000 0.000000 0.000000 0.000000 0.129842
#
#
# Mechanical properties :
#
#
# Convention : Reuss Voigt Hill
#
# Bulk Modulus (GPa) = 26.89875 27.64257 27.27066
# Shear Modulus (GPa) = 7.91772 23.25074 15.58423
#
# Velocity S-wave (km/s) = 1.86369 3.19369 2.61467
# Velocity P-wave (km/s) = 4.05353 5.07206 4.59113
#
# Compressibility (1/GPa) = 0.03717645
#
# Stress axis : x y z
#
# Youngs Moduli (GPa) = 88.68033 54.91299 94.25253
#
# Poissons Ratio (x) = 0.01900 -0.17245
# Poissons Ratio (y) = 0.03068 0.27747
# Poissons Ratio (z) = -0.16225 0.16166
#
# Static dielectric constant tensor:
#      x y z
#    x 1.867280 0.000000 0.000000 
#    y 0.000000 1.855350 0.000000 
#    z 0.000000 0.000000 1.886060 
# 
# From -- ./inp_files/49597.got.cif
#   From: 2010.05.17/outbox.cif.g08.bks.cpg/sg74_25_cif.got.tgz:49597.got - 2010.06.03 17:57:02.
