data_PCOD9539383
_publ_section_title
;
Structure prediction by ZEFSAII (Michael W. Deem and Ramdas Pophale) SiO2 
 PCOD9539383
Probable space group: I M M A
;
_chemical_formula_sum "Si O2"
_cell_formula_units_Z 80
_cell_length_a 19.281461
_cell_length_b 16.629298
_cell_length_c 12.028856
_cell_angle_alpha 90.000000
_cell_angle_beta 90.000000
_cell_angle_gamma 90.000000
_cell_volume 3856.898236
_symmetry_space_group_name_H-M "I M M A"
_symmetry_group_IT_number 74
_symmetry_cell_setting 'orthorhombic'
loop_
_space_group_symop_operation_xyz
x,y,z
-x,1/2-y,z
x,-y,-z
-x,1/2+y,-z
-x,-y,-z
x,1/2+y,-z
-x,y,z
x,1/2-y,z
1/2+x,1/2+y,1/2+z
1/2-x,-y,1/2+z
1/2+x,1/2-y,1/2-z
1/2-x,y,1/2-z
1/2-x,1/2-y,1/2-z
1/2+x,y,1/2-z
1/2-x,1/2+y,1/2+z
1/2+x,-y,1/2+z
loop_
_atom_site_type_symbol
_atom_site_label
_atom_site_fract_x
_atom_site_fract_y
_atom_site_fract_z
Si Si1 0.310834 0.087471 0.010079
Si Si2 0.081891 0.543029 0.884449
Si Si3 0.631029 0.750000 0.262204
Si Si4 0.249239 0.250000 0.928247
Si Si5 0.422174 0.915780 0.187249
Si Si6 0.333014 0.656075 0.760667
O O1 0.263783 0.166549 0.991467
O O2 0.367377 0.082048 0.912207
O O3 0.348278 0.105777 0.127030
O O4 0.274552 0.000000 0.000000
O O5 0.090936 0.478874 0.785129
O O6 0.128114 0.617658 0.844268
O O7 0.000000 0.564668 0.890734
O O8 0.100672 0.500000 0.000000
O O9 0.692227 0.750000 0.168839
O O10 0.673235 0.750000 0.376476
O O11 0.586467 0.671197 0.243236
O O12 0.500000 0.927377 0.144516
O O13 0.350790 0.750000 0.774572
O O14 0.250000 0.649242 0.750000
#
# Coordination Sequence:
#
# PCOD9539383 Si02
#       6
#    16  16   8   8  16  16
#     4  11  21  39  65  95 131 178 216 276 345 403
#     4  10  23  46  68  93 131 178 235 284 333 415
#     4   9  19  36  56  86 125 163 203 266 325 379
#     4   9  20  36  57  88 128 164 225 265 310 410
#     4  10  21  38  63  95 127 165 216 275 332 394
#     4  11  25  44  65  98 140 178 224 284 344 418
#
# _framework density 20.742056999999999
#
# number of rings (size 3 to 8) (size 9 to 14) (size 15 to 20)
#    0.000    1.800    3.000    0.300    0.000    5.600 
#    1.800    0.000    0.000    0.000    0.000    0.000 
#    0.000    0.000    0.000    0.000    0.000    0.000 
#
# Total GULP energy -223377.833483 kJ/mol
# GULP energy per Si atom -5584.445837 kJ/mol
# Density = 2.069485 g / cm^3
# Si number density = 20.742057 Si / 1000 Ang^3
#
#
#
# Elastic Constant Matrix: (Units=GPa)
#
#
# Indices 1 2 3 4 5 6 
#
# 1 52.5810 36.7850 50.9409 0.0000 0.0000 0.0000
# 2 36.7850 157.2624 43.7838 0.0000 0.0000 0.0000
# 3 50.9409 43.7838 113.6604 0.0000 0.0000 0.0000
# 4 0.0000 0.0000 0.0000 28.8186 0.0000 0.0000
# 5 0.0000 0.0000 0.0000 0.0000 24.1010 0.0000
# 6 0.0000 0.0000 0.0000 0.0000 0.0000 17.5459
#
#
#
# Elastic Compliance Matrix: (Units=1/GPa)
#
#
# Indices 1 2 3 4 5 6 
#
# 1 0.036163 -0.004421 -0.014505 0.000000 0.000000 0.000000
# 2 -0.004421 0.007663 -0.000971 0.000000 0.000000 0.000000
# 3 -0.014505 -0.000971 0.015673 0.000000 0.000000 0.000000
# 4 0.000000 0.000000 0.000000 0.034700 0.000000 0.000000
# 5 0.000000 0.000000 0.000000 0.000000 0.041492 0.000000
# 6 0.000000 0.000000 0.000000 0.000000 0.000000 0.056993
#
#
# Mechanical properties :
#
#
# Convention : Reuss Voigt Hill
#
# Bulk Modulus (GPa) = 50.74360 65.16924 57.95642
# Shear Modulus (GPa) = 20.91643 26.89270 23.90457
#
# Velocity S-wave (km/s) = 3.17899 3.60464 3.39849
# Velocity P-wave (km/s) = 6.16375 6.98654 6.58800
#
# Compressibility (1/GPa) = 0.01970692
#
# Stress axis : x y z
#
# Youngs Moduli (GPa) = 27.65219 130.49617 63.80380
#
# Poissons Ratio (x) = 0.57686 0.92548
# Poissons Ratio (y) = 0.12224 0.06194
# Poissons Ratio (z) = 0.40110 0.12667
#
# Static dielectric constant tensor:
#      x y z
#    x 1.712200 0.000000 0.000000 
#    y 0.000000 1.770260 0.000000 
#    z 0.000000 0.000000 1.764750 
# 
# From -- ./inp_files/23591.got.cif
#   From: 2010.05.17/outbox.cif.g08.bks.cpg/sg74_12_cif.got.tgz:23591.got - 2010.06.03 17:57:02.
