data_PCOD9539951
_publ_section_title
;
Structure prediction by ZEFSAII (Michael W. Deem and Ramdas Pophale) SiO2 
 PCOD9539951
Probable space group: I M M A
;
_chemical_formula_sum "Si O2"
_cell_formula_units_Z 48
_cell_length_a 13.073436
_cell_length_b 10.254643
_cell_length_c 15.213940
_cell_angle_alpha 90.000000
_cell_angle_beta 90.000000
_cell_angle_gamma 90.000000
_cell_volume 2039.632812
_symmetry_space_group_name_H-M "I M M A"
_symmetry_group_IT_number 74
_symmetry_cell_setting 'orthorhombic'
loop_
_space_group_symop_operation_xyz
x,y,z
-x,1/2-y,z
x,-y,-z
-x,1/2+y,-z
-x,-y,-z
x,1/2+y,-z
-x,y,z
x,1/2-y,z
1/2+x,1/2+y,1/2+z
1/2-x,-y,1/2+z
1/2+x,1/2-y,1/2-z
1/2-x,y,1/2-z
1/2-x,1/2-y,1/2-z
1/2+x,y,1/2-z
1/2-x,1/2+y,1/2+z
1/2+x,-y,1/2+z
loop_
_atom_site_type_symbol
_atom_site_label
_atom_site_fract_x
_atom_site_fract_y
_atom_site_fract_z
Si Si1 0.877197 0.250000 0.726512
Si Si2 0.115583 0.538797 0.653963
Si Si3 0.121204 0.750000 0.797305
Si Si4 0.878508 0.750000 0.002187
Si Si5 0.736618 0.500000 0.500000
O O1 0.750000 0.250000 0.750000
O O2 0.883088 0.386352 0.676357
O O3 0.000000 0.250000 0.771679
O O4 0.145138 0.623669 0.738886
O O5 0.190735 0.559765 0.573664
O O6 0.000000 0.577318 0.629609
O O7 0.348860 0.750000 0.601375
O O8 0.000000 0.750000 0.804180
O O9 0.000000 0.750000 0.010331
O O10 0.832369 0.883845 0.039722
#
# Coordination Sequence:
#
# PCOD9539951 Si02
#       5
#     8  16   8   8   8
#     4  10  23  41  63  95 132 171 218 272 333 402
#     4  10  22  42  67  99 131 167 220 281 341 398
#     4   9  21  43  70  95 127 173 224 282 334 395
#     4  11  26  46  64  95 135 180 226 271 333 410
#     4  12  24  40  68  96 130 176 212 274 338 408
#
# _framework density 23.533647999999999
#
# number of rings (size 3 to 8) (size 9 to 14) (size 15 to 20)
#    0.000    1.667    0.000    3.000    4.667    1.333 
#    0.000   10.000    0.000    0.000    0.000    0.000 
#    0.000    0.000    0.000    0.000    0.000    0.000 
#
# Total GULP energy -133785.460116 kJ/mol
# GULP energy per Si atom -5574.394171 kJ/mol
# Density = 2.348008 g / cm^3
# Si number density = 23.533648 Si / 1000 Ang^3
#
#
#
# Elastic Constant Matrix: (Units=GPa)
#
#
# Indices 1 2 3 4 5 6 
#
# 1 232.1377 30.8839 27.2134 0.0000 0.0000 0.0000
# 2 30.8839 95.7196 -19.1804 0.0000 0.0000 0.0000
# 3 27.2134 -19.1804 48.8404 0.0000 0.0000 0.0000
# 4 0.0000 0.0000 0.0000 31.7916 0.0000 0.0000
# 5 0.0000 0.0000 0.0000 0.0000 32.8144 0.0000
# 6 0.0000 0.0000 0.0000 0.0000 0.0000 44.1084
#
#
#
# Elastic Compliance Matrix: (Units=1/GPa)
#
#
# Indices 1 2 3 4 5 6 
#
# 1 0.005066 -0.002388 -0.003761 0.000000 0.000000 0.000000
# 2 -0.002388 0.012465 0.006226 0.000000 0.000000 0.000000
# 3 -0.003761 0.006226 0.025015 0.000000 0.000000 0.000000
# 4 0.000000 0.000000 0.000000 0.031455 0.000000 0.000000
# 5 0.000000 0.000000 0.000000 0.000000 0.030474 0.000000
# 6 0.000000 0.000000 0.000000 0.000000 0.000000 0.022671
#
#
# Mechanical properties :
#
#
# Convention : Reuss Voigt Hill
#
# Bulk Modulus (GPa) = 23.41866 50.50351 36.96108
# Shear Modulus (GPa) = 35.40381 44.26160 39.83271
#
# Velocity S-wave (km/s) = 3.88286 4.34150 4.11857
# Velocity P-wave (km/s) = 5.48405 6.82922 6.19326
#
# Compressibility (1/GPa) = 0.04270100
#
# Stress axis : x y z
#
# Youngs Moduli (GPa) = 197.37828 80.22242 39.97531
#
# Poissons Ratio (x) = 0.19159 0.15034
# Poissons Ratio (y) = 0.47139 -0.24889
# Poissons Ratio (z) = 0.74232 -0.49947
#
# Static dielectric constant tensor:
#      x y z
#    x 1.992040 0.000000 0.000000 
#    y 0.000000 1.807780 0.000000 
#    z 0.000000 0.000000 1.893550 
# 
# From -- ./inp_files/40466.got.cif
#   From: 2010.05.17/outbox.cif.g08.bks.cpg/sg74_21_cif.got.tgz:40466.got - 2010.06.03 17:57:02.
