data_PCOD9539288
_publ_section_title
;
Structure prediction by ZEFSAII (Michael W. Deem and Ramdas Pophale) SiO2 
 PCOD9539288
Probable space group: I M M A
;
_chemical_formula_sum "Si O2"
_cell_formula_units_Z 116
_cell_length_a 25.319498
_cell_length_b 18.775764
_cell_length_c 11.895714
_cell_angle_alpha 90.000000
_cell_angle_beta 90.000000
_cell_angle_gamma 90.000000
_cell_volume 5655.138203
_symmetry_space_group_name_H-M "I M M A"
_symmetry_group_IT_number 74
_symmetry_cell_setting 'orthorhombic'
loop_
_space_group_symop_operation_xyz
x,y,z
-x,1/2-y,z
x,-y,-z
-x,1/2+y,-z
-x,-y,-z
x,1/2+y,-z
-x,y,z
x,1/2-y,z
1/2+x,1/2+y,1/2+z
1/2-x,-y,1/2+z
1/2+x,1/2-y,1/2-z
1/2-x,y,1/2-z
1/2-x,1/2-y,1/2-z
1/2+x,y,1/2-z
1/2-x,1/2+y,1/2+z
1/2+x,-y,1/2+z
loop_
_atom_site_type_symbol
_atom_site_label
_atom_site_fract_x
_atom_site_fract_y
_atom_site_fract_z
Si Si1 0.940862 0.834868 0.499652
Si Si2 0.827853 0.478496 0.805139
Si Si3 0.080053 0.329878 0.238601
Si Si4 0.768675 0.864629 0.050397
Si Si5 0.302232 0.355942 0.313017
Si Si6 0.442505 0.478324 0.369323
Si Si7 0.750000 0.750000 0.250000
Si Si8 0.660028 0.074676 0.940454
O O1 0.934389 0.750000 0.480893
O O2 0.938414 0.846240 0.634573
O O3 0.892094 0.877022 0.445637
O O4 0.000000 0.855530 0.460943
O O5 0.801411 0.431526 0.901540
O O6 0.805073 0.557860 0.809269
O O7 0.891044 0.485808 0.817039
O O8 0.820029 0.442220 0.684877
O O9 0.062321 0.250000 0.207927
O O10 0.143523 0.330482 0.241020
O O11 0.063152 0.393719 0.155928
O O12 0.760274 0.811190 0.152750
O O13 0.710950 0.888069 0.004395
O O14 0.799754 0.834892 0.943473
O O15 0.250000 0.331919 0.250000
O O16 0.441253 0.500000 0.500000
O O17 0.500000 0.500512 0.323873
O O18 0.648313 0.000000 0.000000
#
# Coordination Sequence:
#
# PCOD9539288 Si02
#       8
#    16  16  16  16  16  16   4  16
#     4  10  23  42  63  89 131 179 220 274 337 400
#     4  11  21  39  62  91 123 169 209 265 331 392
#     4  10  21  38  59  91 123 166 216 268 337 401
#     4  12  24  43  63  91 135 173 221 264 331 408
#     4  11  22  38  64  93 127 164 215 274 330 386
#     4  10  21  38  61  88 116 154 206 268 332 392
#     4  12  28  44  62  96 130 192 218 258 336 418
#     4  12  23  37  64  96 127 166 222 274 328 398
#
# _framework density 20.512319999999999
#
# number of rings (size 3 to 8) (size 9 to 14) (size 15 to 20)
#    0.000    1.103    1.379    7.448    1.931    1.931 
#    0.000    0.000    0.000    0.000    0.000    0.000 
#    0.000    0.000    0.000    0.000    0.000    0.000 
#
# Total GULP energy -323681.909172 kJ/mol
# GULP energy per Si atom -5580.722572 kJ/mol
# Density = 2.046563 g / cm^3
# Si number density = 20.512320 Si / 1000 Ang^3
#
#
#
# Elastic Constant Matrix: (Units=GPa)
#
#
# Indices 1 2 3 4 5 6 
#
# 1 133.3813 20.3484 0.3033 0.0000 0.0000 0.0000
# 2 20.3484 103.8308 14.8001 0.0000 0.0000 0.0000
# 3 0.3033 14.8001 62.9009 0.0000 0.0000 0.0000
# 4 0.0000 0.0000 0.0000 13.9536 0.0000 0.0000
# 5 0.0000 0.0000 0.0000 0.0000 26.9419 0.0000
# 6 0.0000 0.0000 0.0000 0.0000 0.0000 37.3218
#
#
#
# Elastic Compliance Matrix: (Units=1/GPa)
#
#
# Indices 1 2 3 4 5 6 
#
# 1 0.007735 -0.001563 0.000330 0.000000 0.000000 0.000000
# 2 -0.001563 0.010281 -0.002412 0.000000 0.000000 0.000000
# 3 0.000330 -0.002412 0.016464 0.000000 0.000000 0.000000
# 4 0.000000 0.000000 0.000000 0.071666 0.000000 0.000000
# 5 0.000000 0.000000 0.000000 0.000000 0.037117 0.000000
# 6 0.000000 0.000000 0.000000 0.000000 0.000000 0.026794
#
#
# Mechanical properties :
#
#
# Convention : Reuss Voigt Hill
#
# Bulk Modulus (GPa) = 36.77573 41.22407 38.99990
# Shear Modulus (GPa) = 26.82274 33.28754 30.05514
#
# Velocity S-wave (km/s) = 3.62005 4.03278 3.83198
# Velocity P-wave (km/s) = 5.95320 6.46724 6.21554
#
# Compressibility (1/GPa) = 0.02719185
#
# Stress axis : x y z
#
# Youngs Moduli (GPa) = 129.28251 97.26585 60.73917
#
# Poissons Ratio (x) = 0.15202 -0.02007
# Poissons Ratio (y) = 0.20207 0.14647
# Poissons Ratio (z) = -0.04272 0.23456
#
# Static dielectric constant tensor:
#      x y z
#    x 1.742470 0.000000 0.000000 
#    y 0.000000 1.739620 0.000000 
#    z 0.000000 0.000000 1.730240 
# 
# From -- ./inp_files/26418.got.cif
#   From: 2010.05.17/outbox.cif.g08.bks.cpg/sg74_14_cif.got.tgz:26418.got - 2010.06.03 17:57:02.
