data_PCOD9539963
_publ_section_title
;
Structure prediction by ZEFSAII (Michael W. Deem and Ramdas Pophale) SiO2 
 PCOD9539963
Probable space group: I M M A
;
_chemical_formula_sum "Si O2"
_cell_formula_units_Z 72
_cell_length_a 14.844198
_cell_length_b 27.241208
_cell_length_c 8.683284
_cell_angle_alpha 90.000000
_cell_angle_beta 90.000000
_cell_angle_gamma 90.000000
_cell_volume 3511.293288
_symmetry_space_group_name_H-M "I M M A"
_symmetry_group_IT_number 74
_symmetry_cell_setting 'orthorhombic'
loop_
_space_group_symop_operation_xyz
x,y,z
-x,1/2-y,z
x,-y,-z
-x,1/2+y,-z
-x,-y,-z
x,1/2+y,-z
-x,y,z
x,1/2-y,z
1/2+x,1/2+y,1/2+z
1/2-x,-y,1/2+z
1/2+x,1/2-y,1/2-z
1/2-x,y,1/2-z
1/2-x,1/2-y,1/2-z
1/2+x,y,1/2-z
1/2-x,1/2+y,1/2+z
1/2+x,-y,1/2+z
loop_
_atom_site_type_symbol
_atom_site_label
_atom_site_fract_x
_atom_site_fract_y
_atom_site_fract_z
Si Si1 0.329789 0.965677 0.143141
Si Si2 0.300986 0.883526 0.902948
Si Si3 0.000000 0.612760 0.723393
Si Si4 0.000000 0.003319 0.817538
Si Si5 0.500000 0.691096 0.497287
Si Si6 0.299898 0.807985 0.406902
O O1 0.250000 0.984634 0.250000
O O2 0.415360 0.966648 0.252841
O O3 0.296387 0.917568 0.054261
O O4 0.354105 0.000000 0.000000
O O5 0.250000 0.903193 0.750000
O O6 0.406531 0.877720 0.865884
O O7 0.247217 0.835104 0.951266
O O8 0.000000 0.554086 0.762787
O O9 0.000000 0.651193 0.865249
O O10 0.000000 0.000000 0.000000
O O11 0.500000 0.750000 0.542851
O O12 0.592984 0.682342 0.405794
O O13 0.288095 0.750000 0.424705
O O14 0.250000 0.822659 0.250000
#
# Coordination Sequence:
#
# PCOD9539963 Si02
#       6
#    16  16   8   8   8  16
#     4  12  25  43  67  96 132 176 231 282 349 412
#     4  12  25  42  68  99 137 180 229 294 347 418
#     4  12  25  43  67  98 139 176 235 283 349 419
#     4  12  28  46  69  97 137 184 230 297 352 416
#     4  10  22  42  71 102 141 184 225 286 356 422
#     4  10  23  44  70 103 140 180 229 286 351 421
#
# _framework density 20.505265999999999
#
# number of rings (size 3 to 8) (size 9 to 14) (size 15 to 20)
#    0.000    0.667    4.444    3.000    3.111    4.000 
#    0.000    1.111    0.000    0.000    0.000    0.000 
#    0.000    0.000    0.000    0.000    0.000    0.000 
#
# Total GULP energy -200990.401761 kJ/mol
# GULP energy per Si atom -5583.066716 kJ/mol
# Density = 2.045859 g / cm^3
# Si number density = 20.505266 Si / 1000 Ang^3
#
#
#
# Elastic Constant Matrix: (Units=GPa)
#
#
# Indices 1 2 3 4 5 6 
#
# 1 144.8016 22.7921 47.5514 0.0008 -0.0001 0.0000
# 2 22.7921 64.0368 31.5694 -0.0025 0.0003 0.0000
# 3 47.5514 31.5694 117.9818 -0.0104 0.0012 -0.0006
# 4 0.0008 -0.0025 -0.0104 -1.6486 0.0014 0.0009
# 5 -0.0001 0.0003 0.0012 0.0014 41.8078 -0.0001
# 6 0.0000 0.0000 -0.0006 0.0009 -0.0001 20.3578
#
#
#
# Elastic Compliance Matrix: (Units=1/GPa)
#
#
# Indices 1 2 3 4 5 6 
#
# 1 0.008077 -0.001463 -0.002864 0.000024 0.000000 0.000000
# 2 -0.001463 0.018254 -0.004295 -0.000001 0.000000 0.000000
# 3 -0.002864 -0.004295 0.010779 -0.000063 0.000000 0.000000
# 4 0.000024 -0.000001 -0.000063 -0.606581 0.000020 0.000027
# 5 0.000000 0.000000 0.000000 0.000020 0.023919 0.000000
# 6 0.000000 0.000000 0.000000 0.000027 0.000000 0.049121
#
#
# Mechanical properties :
#
#
# Convention : Reuss Voigt Hill
#
# Bulk Modulus (GPa) = 50.33450 58.96067 54.64759
# Shear Modulus (GPa) = -10.58055 27.09721 8.25833
#
# Velocity S-wave (km/s) = -2.27401 3.63915 2.00902
# Velocity P-wave (km/s) = 4.20780 6.81720 5.66480
#
# Compressibility (1/GPa) = 0.01986709
#
# Stress axis : x y z
#
# Youngs Moduli (GPa) = 123.81291 54.78263 92.77043
#
# Poissons Ratio (x) = 0.08014 0.26568
# Poissons Ratio (y) = 0.18112 0.39843
# Poissons Ratio (z) = 0.35458 0.23528
#
# Static dielectric constant tensor:
#      x y z
#    x 1.705240 0.000000 0.000000 
#    y 0.000000 1.773780 0.000000 
#    z 0.000000 0.000000 1.711010 
# 
# From -- ./inp_files/9212.got.cif
#   From: 2010.05.17/outbox.cif.g08.bks.cpg/sg74_5_cif.got.tgz:9212.got - 2010.06.03 17:57:02.
