data_PCOD9539267
_publ_section_title
;
Structure prediction by ZEFSAII (Michael W. Deem and Ramdas Pophale) SiO2 
 PCOD9539267
Probable space group: I M M A
;
_chemical_formula_sum "Si O2"
_cell_formula_units_Z 116
_cell_length_a 8.717848
_cell_length_b 25.086147
_cell_length_c 30.514564
_cell_angle_alpha 90.000000
_cell_angle_beta 90.000000
_cell_angle_gamma 90.000000
_cell_volume 6673.450208
_symmetry_space_group_name_H-M "I M M A"
_symmetry_group_IT_number 74
_symmetry_cell_setting 'orthorhombic'
loop_
_space_group_symop_operation_xyz
x,y,z
-x,1/2-y,z
x,-y,-z
-x,1/2+y,-z
-x,-y,-z
x,1/2+y,-z
-x,y,z
x,1/2-y,z
1/2+x,1/2+y,1/2+z
1/2-x,-y,1/2+z
1/2+x,1/2-y,1/2-z
1/2-x,y,1/2-z
1/2-x,1/2-y,1/2-z
1/2+x,y,1/2-z
1/2-x,1/2+y,1/2+z
1/2+x,-y,1/2+z
loop_
_atom_site_type_symbol
_atom_site_label
_atom_site_fract_x
_atom_site_fract_y
_atom_site_fract_z
Si Si1 0.814428 0.560742 0.052324
Si Si2 0.816436 0.508875 0.202751
Si Si3 0.813693 0.562610 0.952652
Si Si4 0.817572 0.186911 0.797759
Si Si5 0.317545 0.401334 0.859799
Si Si6 0.671097 0.354997 0.380441
Si Si7 0.500000 0.250000 0.403183
Si Si8 0.681485 0.109217 0.203818
O O1 0.771696 0.498275 0.058313
O O2 0.738807 0.595172 0.090240
O O3 0.000000 0.564408 0.055402
O O4 0.767474 0.575021 0.002626
O O5 0.500000 0.508277 0.295820
O O6 0.750000 0.526270 0.250000
O O7 0.758125 0.549016 0.165874
O O8 0.753011 0.449363 0.195245
O O9 0.762058 0.604845 0.916586
O O10 0.000000 0.564304 0.952953
O O11 0.790715 0.250000 0.804652
O O12 0.750000 0.172958 0.750000
O O13 0.739795 0.151242 0.834779
O O14 0.000000 0.177323 0.797589
O O15 0.500000 0.405257 0.857365
O O16 0.500000 0.376359 0.367205
O O17 0.631546 0.297563 0.400275
O O18 0.770889 0.354372 0.336858
O O19 0.500000 0.104009 0.207831
O O20 0.750000 0.128364 0.250000
#
# Coordination Sequence:
#
# PCOD9539267 Si02
#       8
#    16  16  16  16  16  16   4  16
#     4   9  17  31  52  81 107 138 177 218 268 324
#     4  11  21  34  51  76 107 145 182 221 264 322
#     4   8  15  30  56  79 104 137 176 220 267 318
#     4  10  21  38  59  79 101 138 186 230 273 320
#     4  12  23  34  50  76 114 147 179 223 267 316
#     4   9  17  34  55  77 104 138 177 221 263 314
#     4   8  20  32  60  78 106 132 190 220 262 318
#     4  11  21  34  54  80 110 143 176 217 268 326
#
# _framework density 17.382313
#
# number of rings (size 3 to 8) (size 9 to 14) (size 15 to 20)
#    0.414    1.655    0.000    7.034    0.000    1.931 
#    0.000    2.759    1.517    0.000    0.000    0.000 
#    0.000    0.000    0.000    0.000    0.000    0.000 
#
# Total GULP energy -323018.888790 kJ/mol
# GULP energy per Si atom -5569.291186 kJ/mol
# Density = 1.734275 g / cm^3
# Si number density = 17.382313 Si / 1000 Ang^3
#
#
#
# Elastic Constant Matrix: (Units=GPa)
#
#
# Indices 1 2 3 4 5 6 
#
# 1 92.8378 19.2167 30.8032 0.0000 0.0000 0.0000
# 2 19.2167 43.6518 37.5415 0.0000 0.0000 0.0000
# 3 30.8032 37.5415 91.9104 0.0000 0.0000 0.0000
# 4 0.0000 0.0000 0.0000 17.3877 0.0000 0.0000
# 5 0.0000 0.0000 0.0000 0.0000 23.6281 0.0000
# 6 0.0000 0.0000 0.0000 0.0000 0.0000 15.4226
#
#
#
# Elastic Compliance Matrix: (Units=1/GPa)
#
#
# Indices 1 2 3 4 5 6 
#
# 1 0.012352 -0.002894 -0.002958 0.000000 0.000000 0.000000
# 2 -0.002894 0.035992 -0.013731 0.000000 0.000000 0.000000
# 3 -0.002958 -0.013731 0.017480 0.000000 0.000000 0.000000
# 4 0.000000 0.000000 0.000000 0.057512 0.000000 0.000000
# 5 0.000000 0.000000 0.000000 0.000000 0.042323 0.000000
# 6 0.000000 0.000000 0.000000 0.000000 0.000000 0.064840
#
#
# Mechanical properties :
#
#
# Convention : Reuss Voigt Hill
#
# Bulk Modulus (GPa) = 37.51223 44.83586 41.17405
# Shear Modulus (GPa) = 17.95013 20.67690 19.31351
#
# Velocity S-wave (km/s) = 3.21700 3.45271 3.33694
# Velocity P-wave (km/s) = 5.95200 6.46103 6.21173
#
# Compressibility (1/GPa) = 0.02665797
#
# Stress axis : x y z
#
# Youngs Moduli (GPa) = 80.95970 27.78420 57.20834
#
# Poissons Ratio (x) = 0.08041 0.16920
# Poissons Ratio (y) = 0.23430 0.78554
# Poissons Ratio (z) = 0.23944 0.38151
#
# Static dielectric constant tensor:
#      x y z
#    x 1.595090 0.000000 0.000000 
#    y 0.000000 1.578290 0.000000 
#    z 0.000000 0.000000 1.604110 
# 
# From -- ./inp_files/71050.got.cif
#   From: 2010.05.17/outbox.cif.g08.bks.cpg/sg74_36_cif.got.tgz:71050.got - 2010.06.03 17:57:02.
