data_PCOD9539845
_publ_section_title
;
Structure prediction by ZEFSAII (Michael W. Deem and Ramdas Pophale) SiO2 
 PCOD9539845
Probable space group: I M M A
;
_chemical_formula_sum "Si O2"
_cell_formula_units_Z 88
_cell_length_a 13.967150
_cell_length_b 11.020722
_cell_length_c 27.026083
_cell_angle_alpha 90.000000
_cell_angle_beta 90.000000
_cell_angle_gamma 90.000000
_cell_volume 4160.072993
_symmetry_space_group_name_H-M "I M M A"
_symmetry_group_IT_number 74
_symmetry_cell_setting 'orthorhombic'
loop_
_space_group_symop_operation_xyz
x,y,z
-x,1/2-y,z
x,-y,-z
-x,1/2+y,-z
-x,-y,-z
x,1/2+y,-z
-x,y,z
x,1/2-y,z
1/2+x,1/2+y,1/2+z
1/2-x,-y,1/2+z
1/2+x,1/2-y,1/2-z
1/2-x,y,1/2-z
1/2-x,1/2-y,1/2-z
1/2+x,y,1/2-z
1/2-x,1/2+y,1/2+z
1/2+x,-y,1/2+z
loop_
_atom_site_type_symbol
_atom_site_label
_atom_site_fract_x
_atom_site_fract_y
_atom_site_fract_z
Si Si1 0.601578 0.886779 0.092651
Si Si2 0.500000 0.111943 0.539461
Si Si3 0.386066 0.113190 0.709570
Si Si4 0.893509 0.964080 0.692915
Si Si5 0.201251 0.617929 0.845020
Si Si6 0.300476 0.524397 0.441776
O O1 0.500000 0.906623 0.064723
O O2 0.600737 0.750000 0.111064
O O3 0.701079 0.905618 0.065366
O O4 0.600667 0.971855 0.139953
O O5 0.500000 0.250000 0.518664
O O6 0.599329 0.093693 0.569096
O O7 0.500000 0.000000 0.500000
O O8 0.500000 0.119281 0.702055
O O9 0.347135 0.250000 0.701681
O O10 0.371027 0.064602 0.765500
O O11 0.346542 0.003813 0.676366
O O12 0.802704 0.879146 0.684021
O O13 0.000000 0.912816 0.704420
O O14 0.154271 0.750000 0.837591
O O15 0.207208 0.589166 0.903920
O O16 0.304564 0.500000 0.500000
#
# Coordination Sequence:
#
# PCOD9539845 Si02
#       6
#    16   8  16  16  16  16
#     4   9  17  32  58  90 120 152 194 247 304 362
#     4  10  22  40  64  90 116 154 204 258 314 374
#     4  10  22  40  63  92 125 164 210 258 309 370
#     4   9  19  37  61  89 124 162 201 246 300 364
#     4  11  25  41  60  91 127 163 206 258 315 374
#     4  10  23  41  61  84 117 161 208 258 311 372
#
# _framework density 21.153475
#
# number of rings (size 3 to 8) (size 9 to 14) (size 15 to 20)
#    0.000    2.182    0.000    1.636    1.273   13.455 
#    0.000    1.818    0.000    0.000    0.000    0.000 
#    0.000    0.000    0.000    0.000    0.000    0.000 
#
# Total GULP energy -244948.256674 kJ/mol
# GULP energy per Si atom -5567.005834 kJ/mol
# Density = 2.110533 g / cm^3
# Si number density = 21.153475 Si / 1000 Ang^3
#
#
#
# Elastic Constant Matrix: (Units=GPa)
#
#
# Indices 1 2 3 4 5 6 
#
# 1 119.3967 44.0563 24.4718 0.0000 0.0000 0.0000
# 2 44.0563 148.1423 29.3635 0.0000 0.0000 0.0000
# 3 24.4718 29.3635 59.8838 0.0000 0.0000 0.0000
# 4 0.0000 0.0000 0.0000 -2.7838 0.0000 0.0000
# 5 0.0000 0.0000 0.0000 0.0000 79.4703 0.0000
# 6 0.0000 0.0000 0.0000 0.0000 0.0000 12.0809
#
#
#
# Elastic Compliance Matrix: (Units=1/GPa)
#
#
# Indices 1 2 3 4 5 6 
#
# 1 0.009832 -0.002357 -0.002862 0.000000 0.000000 0.000000
# 2 -0.002357 0.008042 -0.002980 0.000000 0.000000 0.000000
# 3 -0.002862 -0.002980 0.019330 0.000000 0.000000 0.000000
# 4 0.000000 0.000000 0.000000 -0.359219 0.000000 0.000000
# 5 0.000000 0.000000 0.000000 0.000000 0.012583 0.000000
# 6 0.000000 0.000000 0.000000 0.000000 0.000000 0.082775
#
#
# Mechanical properties :
#
#
# Convention : Reuss Voigt Hill
#
# Bulk Modulus (GPa) = 48.06434 58.13402 53.09918
# Shear Modulus (GPa) = -24.59126 33.05556 4.23215
#
# Velocity S-wave (km/s) = -3.41327 3.95733 1.41599
# Velocity P-wave (km/s) = 2.69020 6.95861 5.27539
#
# Compressibility (1/GPa) = 0.02080544
#
# Stress axis : x y z
#
# Youngs Moduli (GPa) = 101.71261 124.35047 51.73307
#
# Poissons Ratio (x) = 0.29303 0.14807
# Poissons Ratio (y) = 0.23969 0.15418
# Poissons Ratio (z) = 0.29113 0.37059
#
# Static dielectric constant tensor:
#      x y z
#    x 1.892270 0.000000 0.000000 
#    y 0.000000 1.771920 0.000000 
#    z 0.000000 0.000000 0.996920 
# 
# From -- ./inp_files/66952.got.cif
#   From: 2010.05.17/outbox.cif.g08.bks.cpg/sg74_34_cif.got.tgz:66952.got - 2010.06.03 17:57:02.
