data_PCOD9539774
_publ_section_title
;
Structure prediction by ZEFSAII (Michael W. Deem and Ramdas Pophale) SiO2 
 PCOD9539774
Probable space group: I M M A
;
_chemical_formula_sum "Si O2"
_cell_formula_units_Z 116
_cell_length_a 7.624786
_cell_length_b 24.410829
_cell_length_c 29.767343
_cell_angle_alpha 90.000000
_cell_angle_beta 90.000000
_cell_angle_gamma 90.000000
_cell_volume 5540.516586
_symmetry_space_group_name_H-M "I M M A"
_symmetry_group_IT_number 74
_symmetry_cell_setting 'orthorhombic'
loop_
_space_group_symop_operation_xyz
x,y,z
-x,1/2-y,z
x,-y,-z
-x,1/2+y,-z
-x,-y,-z
x,1/2+y,-z
-x,y,z
x,1/2-y,z
1/2+x,1/2+y,1/2+z
1/2-x,-y,1/2+z
1/2+x,1/2-y,1/2-z
1/2-x,y,1/2-z
1/2-x,1/2-y,1/2-z
1/2+x,y,1/2-z
1/2-x,1/2+y,1/2+z
1/2+x,-y,1/2+z
loop_
_atom_site_type_symbol
_atom_site_label
_atom_site_fract_x
_atom_site_fract_y
_atom_site_fract_z
Si Si1 0.786994 0.187727 0.875965
Si Si2 0.500000 0.750000 0.995649
Si Si3 0.791055 0.312408 0.301133
Si Si4 0.295588 0.390802 0.381758
Si Si5 0.203450 0.907419 0.445559
Si Si6 0.296096 0.840487 0.525525
Si Si7 0.205616 0.988770 0.131529
Si Si8 0.710264 0.104387 0.697611
O O1 0.724740 0.250000 0.880813
O O2 0.724510 0.147075 0.914799
O O3 0.731699 0.158734 0.829339
O O4 0.000000 0.188505 0.877855
O O5 0.656252 0.702664 0.993214
O O6 0.724665 0.250000 0.307466
O O7 0.750000 0.328652 0.250000
O O8 0.718113 0.353581 0.337787
O O9 0.000000 0.311458 0.306524
O O10 0.500000 0.399713 0.392690
O O11 0.229838 0.358182 0.425120
O O12 0.216409 0.450705 0.372841
O O13 0.291900 0.892839 0.492498
O O14 0.279855 0.955987 0.415179
O O15 0.000000 0.918849 0.452957
O O16 0.500000 0.820781 0.527475
O O17 0.279961 0.948340 0.170026
O O18 0.000000 0.995408 0.142699
O O19 0.500000 0.103537 0.693075
O O20 0.750000 0.103982 0.750000
#
# Coordination Sequence:
#
# PCOD9539774 Si02
#       8
#    16   4  16  16  16  16  16  16
#     4   9  19  35  55  78 108 155 203 247 303 367
#     4  12  26  44  64  96 134 164 222 244 306 382
#     4  10  22  39  62  88 122 161 201 252 309 372
#     4  10  23  41  64  91 120 159 207 251 312 376
#     4  11  22  38  58  89 124 158 206 257 306 368
#     4  11  25  43  65  95 130 170 206 259 312 362
#     4   9  20  41  62  83 115 159 205 253 307 373
#     4   9  18  33  54  78 111 148 192 247 305 365
#
# _framework density 20.936675000000001
#
# number of rings (size 3 to 8) (size 9 to 14) (size 15 to 20)
#    0.000    2.069    0.690    2.690    2.897    5.241 
#    0.000    4.138    0.000    0.000    0.000    0.000 
#    0.000    0.000    0.000    0.000    0.000    0.000 
#
# Total GULP energy -323274.857180 kJ/mol
# GULP energy per Si atom -5573.704434 kJ/mol
# Density = 2.088902 g / cm^3
# Si number density = 20.936675 Si / 1000 Ang^3
#
#
#
# Elastic Constant Matrix: (Units=GPa)
#
#
# Indices 1 2 3 4 5 6 
#
# 1 63.5374 -6.1888 -18.2165 0.0000 0.0000 0.0000
# 2 -6.1888 80.6238 39.2877 0.0000 0.0000 0.0000
# 3 -18.2165 39.2877 97.1016 0.0000 0.0000 0.0000
# 4 0.0000 0.0000 0.0000 15.3916 0.0000 0.0000
# 5 0.0000 0.0000 0.0000 0.0000 19.6849 0.0000
# 6 0.0000 0.0000 0.0000 0.0000 0.0000 26.6612
#
#
#
# Elastic Compliance Matrix: (Units=1/GPa)
#
#
# Indices 1 2 3 4 5 6 
#
# 1 0.016639 -0.000304 0.003244 0.000000 0.000000 0.000000
# 2 -0.000304 0.015455 -0.006310 0.000000 0.000000 0.000000
# 3 0.003244 -0.006310 0.013460 0.000000 0.000000 0.000000
# 4 0.000000 0.000000 0.000000 0.064971 0.000000 0.000000
# 5 0.000000 0.000000 0.000000 0.000000 0.050800 0.000000
# 6 0.000000 0.000000 0.000000 0.000000 0.000000 0.037508
#
#
# Mechanical properties :
#
#
# Convention : Reuss Voigt Hill
#
# Bulk Modulus (GPa) = 25.76272 30.11418 27.93845
# Shear Modulus (GPa) = 22.88221 27.43957 25.16089
#
# Velocity S-wave (km/s) = 3.30953 3.62415 3.47040
# Velocity P-wave (km/s) = 5.18997 5.65042 5.42508
#
# Compressibility (1/GPa) = 0.03881577
#
# Stress axis : x y z
#
# Youngs Moduli (GPa) = 60.09840 64.70458 74.29281
#
# Poissons Ratio (x) = 0.01965 -0.24104
# Poissons Ratio (y) = 0.01826 0.46879
# Poissons Ratio (z) = -0.19499 0.40829
#
# Static dielectric constant tensor:
#      x y z
#    x 1.778190 0.000000 0.000000 
#    y 0.000000 1.762470 0.000000 
#    z 0.000000 0.000000 1.744230 
# 
# From -- ./inp_files/64874.got.cif
#   From: 2010.05.17/outbox.cif.g08.bks.cpg/sg74_33_cif.got.tgz:64874.got - 2010.06.03 17:57:02.
