data_PCOD9539005
_publ_section_title
;
Structure prediction by ZEFSAII (Michael W. Deem and Ramdas Pophale) SiO2 
 PCOD9539005
Probable space group: I M M A
;
_chemical_formula_sum "Si O2"
_cell_formula_units_Z 112
_cell_length_a 26.060415
_cell_length_b 14.117169
_cell_length_c 14.716236
_cell_angle_alpha 90.000000
_cell_angle_beta 90.000000
_cell_angle_gamma 90.000000
_cell_volume 5414.092669
_symmetry_space_group_name_H-M "I M M A"
_symmetry_group_IT_number 74
_symmetry_cell_setting 'orthorhombic'
loop_
_space_group_symop_operation_xyz
x,y,z
-x,1/2-y,z
x,-y,-z
-x,1/2+y,-z
-x,-y,-z
x,1/2+y,-z
-x,y,z
x,1/2-y,z
1/2+x,1/2+y,1/2+z
1/2-x,-y,1/2+z
1/2+x,1/2-y,1/2-z
1/2-x,y,1/2-z
1/2-x,1/2-y,1/2-z
1/2+x,y,1/2-z
1/2-x,1/2+y,1/2+z
1/2+x,-y,1/2+z
loop_
_atom_site_type_symbol
_atom_site_label
_atom_site_fract_x
_atom_site_fract_y
_atom_site_fract_z
Si Si1 0.442174 0.149397 0.638892
Si Si2 0.560830 0.140503 0.963749
Si Si3 0.282917 0.012807 0.156263
Si Si4 0.098740 0.041578 0.361613
Si Si5 0.247823 0.637206 0.007395
Si Si6 0.868885 0.642711 0.966584
Si Si7 0.057698 0.941164 0.818398
O O1 0.500000 0.149500 0.600408
O O2 0.434920 0.250000 0.688027
O O3 0.403047 0.143765 0.556655
O O4 0.438715 0.054305 0.694557
O O5 0.500000 0.133914 0.986237
O O6 0.571322 0.250000 0.937964
O O7 0.594941 0.108004 0.049774
O O8 0.573040 0.058075 0.891434
O O9 0.250000 0.014661 0.250000
O O10 0.343782 0.018916 0.171868
O O11 0.269659 0.921056 0.093459
O O12 0.271219 0.099577 0.087230
O O13 0.069597 0.096016 0.281118
O O14 0.253737 0.750000 0.018824
O O15 0.187635 0.612821 0.995458
O O16 0.864589 0.750000 0.931221
O O17 0.899681 0.585096 0.891585
O O18 0.000000 0.916659 0.849289
#
# Coordination Sequence:
#
# PCOD9539005 Si02
#       7
#    16  16  16  16  16  16  16
#     4   9  19  34  52  80 116 154 194 229 274 342
#     4  10  21  40  65  89 118 156 195 246 311 373
#     4  11  25  41  64  93 123 166 211 267 314 367
#     4  11  23  39  60  89 119 154 200 250 306 359
#     4  10  23  43  65  89 122 162 209 263 318 370
#     4  10  21  36  58  84 116 158 195 238 291 349
#     4  11  22  35  58  88 121 159 193 240 297 359
#
# _framework density 20.686754000000001
#
# number of rings (size 3 to 8) (size 9 to 14) (size 15 to 20)
#    0.000    1.714    0.000    5.143    6.000    6.000 
#    0.000    1.429    0.000    0.000    0.000    0.000 
#    0.000    0.000    0.000    0.000    0.000    0.000 
#
# Total GULP energy -312449.628771 kJ/mol
# GULP energy per Si atom -5579.457657 kJ/mol
# Density = 2.063967 g / cm^3
# Si number density = 20.686754 Si / 1000 Ang^3
#
#
#
# Elastic Constant Matrix: (Units=GPa)
#
#
# Indices 1 2 3 4 5 6 
#
# 1 86.8228 20.3510 12.2852 0.0000 0.0000 0.0000
# 2 20.3510 75.0323 3.7883 0.0000 0.0000 0.0000
# 3 12.2852 3.7883 66.7703 0.0000 0.0000 0.0000
# 4 0.0000 0.0000 0.0000 -2.6192 0.0000 0.0000
# 5 0.0000 0.0000 0.0000 0.0000 21.6280 0.0000
# 6 0.0000 0.0000 0.0000 0.0000 0.0000 21.2558
#
#
#
# Elastic Compliance Matrix: (Units=1/GPa)
#
#
# Indices 1 2 3 4 5 6 
#
# 1 0.012595 -0.003308 -0.002130 0.000000 0.000000 0.000000
# 2 -0.003308 0.014235 -0.000199 0.000000 0.000000 0.000000
# 3 -0.002130 -0.000199 0.015380 0.000000 0.000000 0.000000
# 4 0.000000 0.000000 0.000000 -0.381792 0.000000 0.000000
# 5 0.000000 0.000000 0.000000 0.000000 0.046236 0.000000
# 6 0.000000 0.000000 0.000000 0.000000 0.000000 0.047046
#
#
# Mechanical properties :
#
#
# Convention : Reuss Voigt Hill
#
# Bulk Modulus (GPa) = 32.32541 33.49714 32.91127
# Shear Modulus (GPa) = -22.25045 20.86633 -0.69206
#
# Velocity S-wave (km/s) = -3.28318 3.17942 -0.57902
# Velocity P-wave (km/s) = 1.13479 5.45032 3.93660
#
# Compressibility (1/GPa) = 0.03093542
#
# Stress axis : x y z
#
# Youngs Moduli (GPa) = 79.39945 70.24945 65.02025
#
# Poissons Ratio (x) = 0.23242 0.13847
# Poissons Ratio (y) = 0.26269 0.01293
# Poissons Ratio (z) = 0.16909 0.01397
#
# Static dielectric constant tensor:
#      x y z
#    x 1.779080 0.000000 0.000000 
#    y 0.000000 1.780640 0.000000 
#    z 0.000000 0.000000 1.715870 
# 
# From -- ./inp_files/36470.got.cif
#   From: 2010.05.17/outbox.cif.g08.bks.cpg/sg74_19_cif.got.tgz:36470.got - 2010.06.03 17:57:02.
