data_PCOD9539900
_publ_section_title
;
Structure prediction by ZEFSAII (Michael W. Deem and Ramdas Pophale) SiO2 
 PCOD9539900
Probable space group: I M M A
;
_chemical_formula_sum "Si O2"
_cell_formula_units_Z 96
_cell_length_a 14.929632
_cell_length_b 14.036603
_cell_length_c 22.818768
_cell_angle_alpha 90.000000
_cell_angle_beta 90.000000
_cell_angle_gamma 90.000000
_cell_volume 4781.931082
_symmetry_space_group_name_H-M "I M M A"
_symmetry_group_IT_number 74
_symmetry_cell_setting 'orthorhombic'
loop_
_space_group_symop_operation_xyz
x,y,z
-x,1/2-y,z
x,-y,-z
-x,1/2+y,-z
-x,-y,-z
x,1/2+y,-z
-x,y,z
x,1/2-y,z
1/2+x,1/2+y,1/2+z
1/2-x,-y,1/2+z
1/2+x,1/2-y,1/2-z
1/2-x,y,1/2-z
1/2-x,1/2-y,1/2-z
1/2+x,y,1/2-z
1/2-x,1/2+y,1/2+z
1/2+x,-y,1/2+z
loop_
_atom_site_type_symbol
_atom_site_label
_atom_site_fract_x
_atom_site_fract_y
_atom_site_fract_z
Si Si1 0.900534 0.935860 0.367591
Si Si2 0.399636 0.852582 0.870153
Si Si3 0.142597 0.355767 0.754160
Si Si4 0.234474 0.362724 0.940189
Si Si5 0.209348 0.641829 0.926403
Si Si6 0.396467 0.023982 0.636609
O O1 0.891194 0.868234 0.311854
O O2 0.822458 0.914801 0.414181
O O3 0.000000 0.926325 0.393556
O O4 0.892149 0.043531 0.341446
O O5 0.500000 0.852386 0.896806
O O6 0.392955 0.750000 0.837310
O O7 0.315362 0.853758 0.912922
O O8 0.117334 0.250000 0.776172
O O9 0.250000 0.360533 0.750000
O O10 0.110767 0.440139 0.796553
O O11 0.251824 0.250000 0.938707
O O12 0.152826 0.392054 0.898759
O O13 0.205817 0.388676 0.006035
O O14 0.174264 0.750000 0.920315
O O15 0.159009 0.569796 0.882878
O O16 0.500000 0.011782 0.620966
#
# Coordination Sequence:
#
# PCOD9539900 Si02
#       6
#    16  16  16  16  16  16
#     4  11  22  37  62  95 131 167 204 254 317 383
#     4   9  18  35  60  89 122 162 207 253 306 371
#     4  11  22  40  65  91 126 168 209 258 314 377
#     4  11  23  39  60  89 124 164 210 258 313 377
#     4  10  22  41  63  87 122 162 207 264 316 368
#     4  12  25  41  62  88 122 165 214 261 311 368
#
# _framework density 20.075572000000001
#
# number of rings (size 3 to 8) (size 9 to 14) (size 15 to 20)
#    0.000    1.333    3.333    2.000    0.000    5.667 
#    0.000    5.833    0.000    5.000    0.000    0.000 
#    0.000    0.000    0.000    0.000    0.000    0.000 
#
# Total GULP energy -267509.796223 kJ/mol
# GULP energy per Si atom -5573.120755 kJ/mol
# Density = 2.002988 g / cm^3
# Si number density = 20.075572 Si / 1000 Ang^3
#
#
#
# Elastic Constant Matrix: (Units=GPa)
#
#
# Indices 1 2 3 4 5 6 
#
# 1 90.9708 14.1516 -11.2682 0.0000 0.0000 0.0000
# 2 14.1516 137.6523 14.3203 0.0000 0.0000 0.0000
# 3 -11.2682 14.3203 31.6678 0.0000 0.0000 0.0000
# 4 0.0000 0.0000 0.0000 24.0694 0.0000 0.0000
# 5 0.0000 0.0000 0.0000 0.0000 -8.6187 0.0000
# 6 0.0000 0.0000 0.0000 0.0000 0.0000 -55.0682
#
#
#
# Elastic Compliance Matrix: (Units=1/GPa)
#
#
# Indices 1 2 3 4 5 6 
#
# 1 0.011885 -0.001744 0.005018 0.000000 0.000000 0.000000
# 2 -0.001744 0.007879 -0.004184 0.000000 0.000000 0.000000
# 3 0.005018 -0.004184 0.035255 0.000000 0.000000 0.000000
# 4 0.000000 0.000000 0.000000 0.041546 0.000000 0.000000
# 5 0.000000 0.000000 0.000000 0.000000 -0.116027 0.000000
# 6 0.000000 0.000000 0.000000 0.000000 0.000000 -0.018159
#
#
# Mechanical properties :
#
#
# Convention : Reuss Voigt Hill
#
# Bulk Modulus (GPa) = 18.79698 32.74426 25.77062
# Shear Modulus (GPa) = -276.73701 8.28232 -134.22734
#
# Velocity S-wave (km/s) = -11.75359 2.03335 -8.18573
# Velocity P-wave (km/s) = 13.22166 4.67532 8.74511
#
# Compressibility (1/GPa) = 0.05320005
#
# Stress axis : x y z
#
# Youngs Moduli (GPa) = 84.13726 126.91667 28.36480
#
# Poissons Ratio (x) = 0.22133 -0.14233
# Poissons Ratio (y) = 0.14673 0.11866
# Poissons Ratio (z) = -0.42217 0.53096
#
# Static dielectric constant tensor:
#      x y z
#    x 1.730620 0.000000 0.000000 
#    y 0.000000 1.772280 0.000000 
#    z 0.000000 0.000000 1.698250 
# 
# From -- ./inp_files/51835.got.cif
#   From: 2010.05.17/outbox.cif.g08.bks.cpg/sg74_26_cif.got.tgz:51835.got - 2010.06.03 17:57:02.
