data_PCOD9539029
_publ_section_title
;
Structure prediction by ZEFSAII (Michael W. Deem and Ramdas Pophale) SiO2 
 PCOD9539029
Probable space group: I M M A
;
_chemical_formula_sum "Si O2"
_cell_formula_units_Z 80
_cell_length_a 20.260142
_cell_length_b 17.704337
_cell_length_c 11.948776
_cell_angle_alpha 90.000000
_cell_angle_beta 90.000000
_cell_angle_gamma 90.000000
_cell_volume 4285.934921
_symmetry_space_group_name_H-M "I M M A"
_symmetry_group_IT_number 74
_symmetry_cell_setting 'orthorhombic'
loop_
_space_group_symop_operation_xyz
x,y,z
-x,1/2-y,z
x,-y,-z
-x,1/2+y,-z
-x,-y,-z
x,1/2+y,-z
-x,y,z
x,1/2-y,z
1/2+x,1/2+y,1/2+z
1/2-x,-y,1/2+z
1/2+x,1/2-y,1/2-z
1/2-x,y,1/2-z
1/2-x,1/2-y,1/2-z
1/2+x,y,1/2-z
1/2-x,1/2+y,1/2+z
1/2+x,-y,1/2+z
loop_
_atom_site_type_symbol
_atom_site_label
_atom_site_fract_x
_atom_site_fract_y
_atom_site_fract_z
Si Si1 0.709510 0.899994 0.900919
Si Si2 0.305922 0.922884 0.157084
Si Si3 0.078199 0.915991 0.988409
Si Si4 0.420779 0.839195 0.281295
Si Si5 0.847365 0.161776 0.195019
O O1 0.781228 0.873495 0.859376
O O2 0.657760 0.852814 0.827023
O O3 0.697096 0.986917 0.864953
O O4 0.706132 0.889589 0.033517
O O5 0.250000 0.904749 0.250000
O O6 0.375305 0.891279 0.202989
O O7 0.095297 0.880805 0.869633
O O8 0.000000 0.922377 0.997814
O O9 0.098495 0.863163 0.091848
O O10 0.108162 0.000000 0.000000
O O11 0.500000 0.851824 0.267036
O O12 0.408322 0.750000 0.264095
O O13 0.849594 0.250000 0.172234
#
# Coordination Sequence:
#
# PCOD9539029 Si02
#       5
#    16  16  16  16  16
#     4  10  22  36  56  85 117 148 194 244 294 353
#     4  11  21  37  62  85 113 156 197 244 293 355
#     4  10  21  36  60  88 116 154 199 243 290 353
#     4  10  22  39  57  83 120 155 193 246 301 346
#     4  11  21  36  58  82 119 156 186 242 308 354
#
# _framework density 18.665706
#
# number of rings (size 3 to 8) (size 9 to 14) (size 15 to 20)
#    0.000    1.600    2.000    4.200    2.800    3.200 
#    0.000    3.000    0.000    0.000    0.000    0.000 
#    0.000    0.000    0.000    0.000    0.000    0.000 
#
# Total GULP energy -223155.369038 kJ/mol
# GULP energy per Si atom -5578.884226 kJ/mol
# Density = 1.862322 g / cm^3
# Si number density = 18.665706 Si / 1000 Ang^3
#
#
#
# Elastic Constant Matrix: (Units=GPa)
#
#
# Indices 1 2 3 4 5 6 
#
# 1 23.7761 23.8843 25.2961 0.0000 0.0000 0.0000
# 2 23.8843 99.8743 28.1628 0.0000 0.0000 0.0000
# 3 25.2961 28.1628 124.6828 0.0000 0.0000 0.0000
# 4 0.0000 0.0000 0.0000 18.1614 0.0000 0.0000
# 5 0.0000 0.0000 0.0000 0.0000 -17.6941 0.0000
# 6 0.0000 0.0000 0.0000 0.0000 0.0000 6.7678
#
#
#
# Elastic Compliance Matrix: (Units=1/GPa)
#
#
# Indices 1 2 3 4 5 6 
#
# 1 0.066167 -0.012857 -0.010520 0.000000 0.000000 0.000000
# 2 -0.012857 0.013192 -0.000371 0.000000 0.000000 0.000000
# 3 -0.010520 -0.000371 0.010239 0.000000 0.000000 0.000000
# 4 0.000000 0.000000 0.000000 0.055062 0.000000 0.000000
# 5 0.000000 0.000000 0.000000 0.000000 -0.056516 0.000000
# 6 0.000000 0.000000 0.000000 0.000000 0.000000 0.147757
#
#
# Mechanical properties :
#
#
# Convention : Reuss Voigt Hill
#
# Bulk Modulus (GPa) = 23.75241 44.77997 34.26619
# Shear Modulus (GPa) = 16.81057 12.84635 14.82846
#
# Velocity S-wave (km/s) = 3.00428 2.62626 2.82161
# Velocity P-wave (km/s) = 4.97866 5.76532 5.38637
#
# Compressibility (1/GPa) = 0.04210099
#
# Stress axis : x y z
#
# Youngs Moduli (GPa) = 15.11319 75.80384 97.66970
#
# Poissons Ratio (x) = 0.97461 1.02750
# Poissons Ratio (y) = 0.19431 0.03626
# Poissons Ratio (z) = 0.15899 0.02814
#
# Static dielectric constant tensor:
#      x y z
#    x 1.652600 0.000000 0.000000 
#    y 0.000000 1.653310 0.000000 
#    z 0.000000 0.000000 1.665490 
# 
# From -- ./inp_files/20489.got.cif
#   From: 2010.05.17/outbox.cif.g08.bks.cpg/sg74_11_cif.got.tgz:20489.got - 2010.06.03 17:57:02.
