data_PCOD9539235
_publ_section_title
;
Structure prediction by ZEFSAII (Michael W. Deem and Ramdas Pophale) SiO2 
 PCOD9539235
Probable space group: I M M A
;
_chemical_formula_sum "Si O2"
_cell_formula_units_Z 64
_cell_length_a 7.568948
_cell_length_b 12.394484
_cell_length_c 33.965054
_cell_angle_alpha 90.000000
_cell_angle_beta 90.000000
_cell_angle_gamma 90.000000
_cell_volume 3186.370570
_symmetry_space_group_name_H-M "I M M A"
_symmetry_group_IT_number 74
_symmetry_cell_setting 'orthorhombic'
loop_
_space_group_symop_operation_xyz
x,y,z
-x,1/2-y,z
x,-y,-z
-x,1/2+y,-z
-x,-y,-z
x,1/2+y,-z
-x,y,z
x,1/2-y,z
1/2+x,1/2+y,1/2+z
1/2-x,-y,1/2+z
1/2+x,1/2-y,1/2-z
1/2-x,y,1/2-z
1/2-x,1/2-y,1/2-z
1/2+x,y,1/2-z
1/2-x,1/2+y,1/2+z
1/2+x,-y,1/2+z
loop_
_atom_site_type_symbol
_atom_site_label
_atom_site_fract_x
_atom_site_fract_y
_atom_site_fract_z
Si Si1 0.500000 0.068512 0.959950
Si Si2 0.000000 0.625692 0.602791
Si Si3 0.790679 0.870017 0.830243
Si Si4 0.703973 0.750000 0.445554
Si Si5 0.192557 0.250000 0.640242
Si Si6 0.207816 0.913379 0.206187
O O1 0.325840 0.145961 0.956950
O O2 0.500000 0.975714 0.926356
O O3 0.500000 0.000000 0.000000
O O4 0.828930 0.617465 0.631115
O O5 0.000000 0.750000 0.586058
O O6 0.759536 0.750000 0.814622
O O7 0.000000 0.880635 0.839380
O O8 0.741956 0.962351 0.799474
O O9 0.500000 0.750000 0.461098
O O10 0.687871 0.750000 0.397907
O O11 0.210150 0.150605 0.669961
O O12 0.000000 0.250000 0.621873
O O13 0.250000 0.875515 0.250000
O O14 0.000000 0.900269 0.201214
#
# Coordination Sequence:
#
# PCOD9539235 Si02
#       6
#     8   8  16   8   8  16
#     4  11  25  44  72 103 139 172 220 270 333 409
#     4  10  21  37  66  95 123 173 216 275 333 393
#     4   9  20  38  58  85 120 161 217 267 317 390
#     4  11  25  47  72 103 136 183 220 267 334 398
#     4  12  23  40  63  88 122 167 220 266 314 396
#     4  11  23  36  55  84 122 166 213 276 333 379
#
# _framework density 20.085550000000001
#
# number of rings (size 3 to 8) (size 9 to 14) (size 15 to 20)
#    0.000    1.500    1.250    3.750    5.250    4.000 
#    0.000    0.000    0.000    0.000    0.000    0.000 
#    0.000    0.000    0.000    0.000    0.000    0.000 
#
# Total GULP energy -178565.026236 kJ/mol
# GULP energy per Si atom -5580.157070 kJ/mol
# Density = 2.003983 g / cm^3
# Si number density = 20.085550 Si / 1000 Ang^3
#
#
#
# Elastic Constant Matrix: (Units=GPa)
#
#
# Indices 1 2 3 4 5 6 
#
# 1 102.4129 45.7068 19.6354 0.0000 0.0000 0.0000
# 2 45.7068 150.9628 53.8047 0.0000 0.0000 0.0000
# 3 19.6354 53.8047 79.6239 0.0000 0.0000 0.0000
# 4 0.0000 0.0000 0.0000 28.7975 0.0000 0.0000
# 5 0.0000 0.0000 0.0000 0.0000 16.9460 0.0000
# 6 0.0000 0.0000 0.0000 0.0000 0.0000 -8.6076
#
#
#
# Elastic Compliance Matrix: (Units=1/GPa)
#
#
# Indices 1 2 3 4 5 6 
#
# 1 0.011314 -0.003202 -0.000626 0.000000 0.000000 0.000000
# 2 -0.003202 0.009632 -0.005719 0.000000 0.000000 0.000000
# 3 -0.000626 -0.005719 0.016578 0.000000 0.000000 0.000000
# 4 0.000000 0.000000 0.000000 0.034725 0.000000 0.000000
# 5 0.000000 0.000000 0.000000 0.000000 0.059011 0.000000
# 6 0.000000 0.000000 0.000000 0.000000 0.000000 -0.116176
#
#
# Mechanical properties :
#
#
# Convention : Reuss Voigt Hill
#
# Bulk Modulus (GPa) = 54.26262 63.47706 58.86984
# Shear Modulus (GPa) = 124.00296 21.68401 72.84348
#
# Velocity S-wave (km/s) = 7.86584 3.28926 6.02871
# Velocity P-wave (km/s) = 10.46755 6.78952 8.82234
#
# Compressibility (1/GPa) = 0.01842889
#
# Stress axis : x y z
#
# Youngs Moduli (GPa) = 88.38924 103.82051 60.32097
#
# Poissons Ratio (x) = 0.33246 0.03777
# Poissons Ratio (y) = 0.28305 0.34498
# Poissons Ratio (z) = 0.05534 0.59375
#
# Static dielectric constant tensor:
#      x y z
#    x 1.723560 0.000000 0.000000 
#    y 0.000000 1.769050 0.000000 
#    z 0.000000 0.000000 1.716400 
# 
# From -- ./inp_files/69825.got.cif
#   From: 2010.05.17/outbox.cif.g08.bks.cpg/sg74_35_cif.got.tgz:69825.got - 2010.06.03 17:57:02.
