data_PCOD9539374
_publ_section_title
;
Structure prediction by ZEFSAII (Michael W. Deem and Ramdas Pophale) SiO2 
 PCOD9539374
Probable space group: I M M A
;
_chemical_formula_sum "Si O2"
_cell_formula_units_Z 112
_cell_length_a 13.348247
_cell_length_b 24.081488
_cell_length_c 15.354046
_cell_angle_alpha 90.000000
_cell_angle_beta 90.000000
_cell_angle_gamma 90.000000
_cell_volume 4935.491296
_symmetry_space_group_name_H-M "I M M A"
_symmetry_group_IT_number 74
_symmetry_cell_setting 'orthorhombic'
loop_
_space_group_symop_operation_xyz
x,y,z
-x,1/2-y,z
x,-y,-z
-x,1/2+y,-z
-x,-y,-z
x,1/2+y,-z
-x,y,z
x,1/2-y,z
1/2+x,1/2+y,1/2+z
1/2-x,-y,1/2+z
1/2+x,1/2-y,1/2-z
1/2-x,y,1/2-z
1/2-x,1/2-y,1/2-z
1/2+x,y,1/2-z
1/2-x,1/2+y,1/2+z
1/2+x,-y,1/2+z
loop_
_atom_site_type_symbol
_atom_site_label
_atom_site_fract_x
_atom_site_fract_y
_atom_site_fract_z
Si Si1 0.200773 0.811764 0.342459
Si Si2 0.180174 0.462229 0.924339
Si Si3 0.391546 0.422848 0.903693
Si Si4 0.891305 0.157653 0.944763
Si Si5 0.112823 0.489197 0.248400
Si Si6 0.615802 0.365662 0.187766
Si Si7 0.185050 0.816578 0.871483
O O1 0.157104 0.750000 0.335616
O O2 0.250000 0.827759 0.250000
O O3 0.127078 0.859540 0.374950
O O4 0.296062 0.811077 0.406375
O O5 0.291989 0.442847 0.952815
O O6 0.119674 0.405554 0.912495
O O7 0.180968 0.495042 0.833479
O O8 0.137093 0.500000 0.000000
O O9 0.500000 0.429528 0.947589
O O10 0.390906 0.461013 0.817467
O O11 0.000000 0.179850 0.919525
O O12 0.877803 0.159850 0.048402
O O13 0.134321 0.430910 0.295332
O O14 0.000000 0.482812 0.211708
O O15 0.500000 0.357579 0.160952
O O16 0.701664 0.340734 0.125957
O O17 0.636310 0.335917 0.280618
O O18 0.187614 0.750000 0.874982
#
# Coordination Sequence:
#
# PCOD9539374 Si02
#       7
#    16  16  16  16  16  16  16
#     4  10  22  41  64  92 123 161 210 260 315 381
#     4  11  23  36  60  89 125 163 200 256 311 371
#     4  10  22  39  59  86 117 159 203 244 302 367
#     4  11  24  42  64  95 131 167 211 266 328 389
#     4  10  21  38  63  91 121 159 204 253 314 378
#     4  10  22  39  63  92 126 171 220 270 323 384
#     4  11  24  39  61  93 130 172 219 268 321 385
#
# _framework density 22.692777
#
# number of rings (size 3 to 8) (size 9 to 14) (size 15 to 20)
#    0.000    1.571    0.000    5.143    6.000    7.429 
#    0.000    4.286    0.000    3.429    0.000    0.000 
#    0.000    0.000    0.000    0.000    0.000    0.000 
#
# Total GULP energy -313207.985195 kJ/mol
# GULP energy per Si atom -5592.999736 kJ/mol
# Density = 2.264113 g / cm^3
# Si number density = 22.692777 Si / 1000 Ang^3
#
#
#
# Elastic Constant Matrix: (Units=GPa)
#
#
# Indices 1 2 3 4 5 6 
#
# 1 119.3318 15.1986 -14.9678 0.0000 0.0000 0.0000
# 2 15.1986 101.7009 -5.7716 -0.0003 0.0000 0.0001
# 3 -14.9678 -5.7716 32.0924 -0.0003 0.0000 0.0000
# 4 0.0000 -0.0003 -0.0003 34.5174 0.0000 0.0000
# 5 0.0000 0.0000 0.0000 0.0000 12.6829 0.0000
# 6 0.0000 0.0001 0.0000 0.0000 0.0000 -7.1535
#
#
#
# Elastic Compliance Matrix: (Units=1/GPa)
#
#
# Indices 1 2 3 4 5 6 
#
# 1 0.009026 -0.001121 0.004008 0.000000 0.000000 0.000000
# 2 -0.001121 0.010073 0.001289 0.000000 0.000000 0.000000
# 3 0.004008 0.001289 0.033261 0.000000 0.000000 0.000000
# 4 0.000000 0.000000 0.000000 0.028971 0.000000 0.000000
# 5 0.000000 0.000000 0.000000 0.000000 0.078846 0.000000
# 6 0.000000 0.000000 0.000000 0.000000 0.000000 -0.139792
#
#
# Mechanical properties :
#
#
# Convention : Reuss Voigt Hill
#
# Bulk Modulus (GPa) = 16.47172 26.89371 21.68271
# Shear Modulus (GPa) = 154.93485 25.25377 90.09431
#
# Velocity S-wave (km/s) = 8.27183 3.33957 6.30777
# Velocity P-wave (km/s) = 9.92498 5.17177 7.91367
#
# Compressibility (1/GPa) = 0.06071013
#
# Stress axis : x y z
#
# Youngs Moduli (GPa) = 110.79696 99.27066 30.06527
#
# Poissons Ratio (x) = 0.11132 -0.12050
# Poissons Ratio (y) = 0.12424 -0.03874
# Poissons Ratio (z) = -0.44405 -0.12792
#
# Static dielectric constant tensor:
#      x y z
#    x 1.900270 0.000000 0.000000 
#    y 0.000000 1.800910 0.000000 
#    z 0.000000 0.000000 1.902640 
# 
# From -- ./inp_files/32766.got.cif
#   From: 2010.05.17/outbox.cif.g08.bks.cpg/sg74_17_cif.got.tgz:32766.got - 2010.06.03 17:57:02.
