data_PCOD9539975
_publ_section_title
;
Structure prediction by ZEFSAII (Michael W. Deem and Ramdas Pophale) SiO2 
 PCOD9539975
Probable space group: I M M A
;
_chemical_formula_sum "Si O2"
_cell_formula_units_Z 112
_cell_length_a 29.551671
_cell_length_b 14.810817
_cell_length_c 12.383029
_cell_angle_alpha 90.000000
_cell_angle_beta 90.000000
_cell_angle_gamma 90.000000
_cell_volume 5419.858509
_symmetry_space_group_name_H-M "I M M A"
_symmetry_group_IT_number 74
_symmetry_cell_setting 'orthorhombic'
loop_
_space_group_symop_operation_xyz
x,y,z
-x,1/2-y,z
x,-y,-z
-x,1/2+y,-z
-x,-y,-z
x,1/2+y,-z
-x,y,z
x,1/2-y,z
1/2+x,1/2+y,1/2+z
1/2-x,-y,1/2+z
1/2+x,1/2-y,1/2-z
1/2-x,y,1/2-z
1/2-x,1/2-y,1/2-z
1/2+x,y,1/2-z
1/2-x,1/2+y,1/2+z
1/2+x,-y,1/2+z
loop_
_atom_site_type_symbol
_atom_site_label
_atom_site_fract_x
_atom_site_fract_y
_atom_site_fract_z
Si Si1 0.710154 0.952373 0.331077
Si Si2 0.900373 0.652205 0.845655
Si Si3 0.551489 0.375535 0.910609
Si Si4 0.449515 0.398037 0.542771
Si Si5 0.949344 0.585375 0.648244
Si Si6 0.377516 0.649149 0.273328
Si Si7 0.301852 0.858744 0.562106
O O1 0.750000 0.926590 0.250000
O O2 0.662314 0.924558 0.276525
O O3 0.710017 0.893847 0.442090
O O4 0.716033 0.059184 0.361204
O O5 0.893107 0.750000 0.795402
O O6 0.914815 0.591202 0.746496
O O7 0.855570 0.631395 0.914030
O O8 0.939894 0.654944 0.933339
O O9 0.500000 0.343479 0.887584
O O10 0.549026 0.482018 0.887089
O O11 0.592270 0.345899 0.834452
O O12 0.561053 0.361572 0.037690
O O13 0.444617 0.500000 0.500000
O O14 0.500000 0.384400 0.585602
O O15 0.413083 0.374117 0.632337
O O16 0.000000 0.612653 0.684865
O O17 0.358451 0.750000 0.294372
O O18 0.290963 0.750000 0.576702
#
# Coordination Sequence:
#
# PCOD9539975 Si02
#       7
#    16  16  16  16  16  16  16
#     4  11  24  44  70  97 128 170 215 268 337 404
#     4  11  21  34  56  88 123 161 205 255 312 376
#     4   9  19  36  57  82 118 168 221 268 317 375
#     4  11  22  35  55  86 126 171 217 263 313 376
#     4   9  18  34  55  80 117 169 222 266 311 371
#     4  12  24  38  59  90 128 171 219 270 325 388
#     4  10  22  43  70  99 131 165 208 268 335 400
#
# _framework density 20.664746999999998
#
# number of rings (size 3 to 8) (size 9 to 14) (size 15 to 20)
#    0.000    1.571    1.429    5.143    0.000    7.143 
#    0.000    7.143    0.000    0.000    0.000    0.000 
#    0.000    0.000    0.000    0.000    0.000    0.000 
#
# Total GULP energy -312223.371871 kJ/mol
# GULP energy per Si atom -5575.417355 kJ/mol
# Density = 2.061771 g / cm^3
# Si number density = 20.664747 Si / 1000 Ang^3
#
#
#
# Elastic Constant Matrix: (Units=GPa)
#
#
# Indices 1 2 3 4 5 6 
#
# 1 85.9576 38.4748 65.9010 0.0000 0.0000 0.0000
# 2 38.4748 102.9205 49.4671 0.0000 0.0000 0.0000
# 3 65.9010 49.4671 110.4933 0.0000 0.0000 0.0000
# 4 0.0000 0.0000 0.0000 83.1346 0.0000 0.0000
# 5 0.0000 0.0000 0.0000 0.0000 32.5996 0.0000
# 6 0.0000 0.0000 0.0000 0.0000 0.0000 26.2748
#
#
#
# Elastic Compliance Matrix: (Units=1/GPa)
#
#
# Indices 1 2 3 4 5 6 
#
# 1 0.021903 -0.002433 -0.011974 0.000000 0.000000 0.000000
# 2 -0.002433 0.012650 -0.004213 0.000000 0.000000 0.000000
# 3 -0.011974 -0.004213 0.018078 0.000000 0.000000 0.000000
# 4 0.000000 0.000000 0.000000 0.012029 0.000000 0.000000
# 5 0.000000 0.000000 0.000000 0.000000 0.030675 0.000000
# 6 0.000000 0.000000 0.000000 0.000000 0.000000 0.038059
#
#
# Mechanical properties :
#
#
# Convention : Reuss Voigt Hill
#
# Bulk Modulus (GPa) = 64.96833 67.45082 66.20957
# Shear Modulus (GPa) = 28.44718 38.10369 33.27544
#
# Velocity S-wave (km/s) = 3.71429 4.29872 4.01715
# Velocity P-wave (km/s) = 7.06414 7.57298 7.32298
#
# Compressibility (1/GPa) = 0.01539212
#
# Stress axis : x y z
#
# Youngs Moduli (GPa) = 45.65611 79.04914 55.31569
#
# Poissons Ratio (x) = 0.19230 0.66237
# Poissons Ratio (y) = 0.11107 0.23302
# Poissons Ratio (z) = 0.54670 0.33300
#
# Static dielectric constant tensor:
#      x y z
#    x 1.718520 0.000000 0.000000 
#    y 0.000000 1.850540 0.000000 
#    z 0.000000 0.000000 1.725200 
# 
# From -- ./inp_files/27206.got.cif
#   From: 2010.05.17/outbox.cif.g08.bks.cpg/sg74_14_cif.got.tgz:27206.got - 2010.06.03 17:57:02.
