data_PCOD9539455
_publ_section_title
;
Structure prediction by ZEFSAII (Michael W. Deem and Ramdas Pophale) SiO2 
 PCOD9539455
Probable space group: I M M A
;
_chemical_formula_sum "Si O2"
_cell_formula_units_Z 80
_cell_length_a 8.853959
_cell_length_b 25.701160
_cell_length_c 18.729433
_cell_angle_alpha 90.000000
_cell_angle_beta 90.000000
_cell_angle_gamma 90.000000
_cell_volume 4262.013902
_symmetry_space_group_name_H-M "I M M A"
_symmetry_group_IT_number 74
_symmetry_cell_setting 'orthorhombic'
loop_
_space_group_symop_operation_xyz
x,y,z
-x,1/2-y,z
x,-y,-z
-x,1/2+y,-z
-x,-y,-z
x,1/2+y,-z
-x,y,z
x,1/2-y,z
1/2+x,1/2+y,1/2+z
1/2-x,-y,1/2+z
1/2+x,1/2-y,1/2-z
1/2-x,y,1/2-z
1/2-x,1/2-y,1/2-z
1/2+x,y,1/2-z
1/2-x,1/2+y,1/2+z
1/2+x,-y,1/2+z
loop_
_atom_site_type_symbol
_atom_site_label
_atom_site_fract_x
_atom_site_fract_y
_atom_site_fract_z
Si Si1 0.820135 0.401845 0.916152
Si Si2 0.679785 0.811248 0.172514
Si Si3 0.680923 0.096347 0.071515
Si Si4 0.318092 0.690316 0.827261
Si Si5 0.680225 0.996925 0.171850
O O1 0.755736 0.347692 0.885945
O O2 0.751848 0.447304 0.867028
O O3 0.000000 0.402517 0.911948
O O4 0.764959 0.409676 0.996941
O O5 0.500000 0.820099 0.174258
O O6 0.706372 0.750000 0.158815
O O7 0.750000 0.823643 0.250000
O O8 0.500000 0.098579 0.058075
O O9 0.727268 0.148829 0.113058
O O10 0.709353 0.047650 0.123435
O O11 0.500000 0.688272 0.821733
O O12 0.274577 0.750000 0.844140
O O13 0.250000 0.676980 0.750000
O O14 0.500000 0.990008 0.177450
O O15 0.750000 0.003482 0.250000
#
# Coordination Sequence:
#
# PCOD9539455 Si02
#       5
#    16  16  16  16  16
#     4  12  25  39  58  85 118 152 190 237 287 342
#     4  10  21  39  63  88 116 151 191 235 283 338
#     4  10  22  39  58  83 116 153 192 236 288 341
#     4   9  18  34  57  84 114 148 187 231 279 333
#     4  11  23  40  62  85 113 149 192 240 288 344
#
# _framework density 18.770468000000001
#
# number of rings (size 3 to 8) (size 9 to 14) (size 15 to 20)
#    0.000    1.600    0.000    4.800    0.000    6.800 
#    0.000    2.000    0.000    0.000    0.000    0.000 
#    0.000    0.000    0.000    0.000    0.000    0.000 
#
# Total GULP energy -223650.797213 kJ/mol
# GULP energy per Si atom -5591.269930 kJ/mol
# Density = 1.872775 g / cm^3
# Si number density = 18.770468 Si / 1000 Ang^3
#
#
#
# Elastic Constant Matrix: (Units=GPa)
#
#
# Indices 1 2 3 4 5 6 
#
# 1 96.3490 69.5192 89.2770 0.0000 0.0000 0.0000
# 2 69.5192 84.2950 75.6339 0.0000 0.0000 0.0000
# 3 89.2770 75.6339 157.7801 0.0000 0.0000 0.0000
# 4 0.0000 0.0000 0.0000 -35.7265 0.0000 0.0000
# 5 0.0000 0.0000 0.0000 0.0000 39.4110 0.0000
# 6 0.0000 0.0000 0.0000 0.0000 0.0000 11.3076
#
#
#
# Elastic Compliance Matrix: (Units=1/GPa)
#
#
# Indices 1 2 3 4 5 6 
#
# 1 0.032292 -0.017963 -0.009661 0.000000 0.000000 0.000000
# 2 -0.017963 0.030809 -0.004605 0.000000 0.000000 0.000000
# 3 -0.009661 -0.004605 0.014012 0.000000 0.000000 0.000000
# 4 0.000000 0.000000 0.000000 -0.027990 0.000000 0.000000
# 5 0.000000 0.000000 0.000000 0.000000 0.025374 0.000000
# 6 0.000000 0.000000 0.000000 0.000000 0.000000 0.088436
#
#
# Mechanical properties :
#
#
# Convention : Reuss Voigt Hill
#
# Bulk Modulus (GPa) = 79.01880 89.69825 84.35853
# Shear Modulus (GPa) = 21.58825 9.93134 15.75980
#
# Velocity S-wave (km/s) = 3.39502 2.30270 2.90074
# Velocity P-wave (km/s) = 7.58663 7.41354 7.50058
#
# Compressibility (1/GPa) = 0.01265522
#
# Stress axis : x y z
#
# Youngs Moduli (GPa) = 30.96769 32.45795 71.36971
#
# Poissons Ratio (x) = 0.58305 0.68949
# Poissons Ratio (y) = 0.55628 0.32862
# Poissons Ratio (z) = 0.29917 0.14945
#
# Static dielectric constant tensor:
#      x y z
#    x 1.624030 0.000000 0.000000 
#    y 0.000000 1.647670 0.000000 
#    z 0.000000 0.000000 1.605370 
# 
# From -- ./inp_files/39749.got.cif
#   From: 2010.05.17/outbox.cif.g08.bks.cpg/sg74_20_cif.got.tgz:39749.got - 2010.06.03 17:57:02.
