data_PCOD9539729
_publ_section_title
;
Structure prediction by ZEFSAII (Michael W. Deem and Ramdas Pophale) SiO2 
 PCOD9539729
Probable space group: I M M A
;
_chemical_formula_sum "Si O2"
_cell_formula_units_Z 88
_cell_length_a 16.772187
_cell_length_b 21.543407
_cell_length_c 11.307544
_cell_angle_alpha 90.000000
_cell_angle_beta 90.000000
_cell_angle_gamma 90.000000
_cell_volume 4085.755448
_symmetry_space_group_name_H-M "I M M A"
_symmetry_group_IT_number 74
_symmetry_cell_setting 'orthorhombic'
loop_
_space_group_symop_operation_xyz
x,y,z
-x,1/2-y,z
x,-y,-z
-x,1/2+y,-z
-x,-y,-z
x,1/2+y,-z
-x,y,z
x,1/2-y,z
1/2+x,1/2+y,1/2+z
1/2-x,-y,1/2+z
1/2+x,1/2-y,1/2-z
1/2-x,y,1/2-z
1/2-x,1/2-y,1/2-z
1/2+x,y,1/2-z
1/2-x,1/2+y,1/2+z
1/2+x,-y,1/2+z
loop_
_atom_site_type_symbol
_atom_site_label
_atom_site_fract_x
_atom_site_fract_y
_atom_site_fract_z
Si Si1 0.160271 0.383046 0.757787
Si Si2 0.500000 0.593236 0.645168
Si Si3 0.618995 0.321251 0.511768
Si Si4 0.642420 0.984738 0.630334
Si Si5 0.593791 0.925642 0.006171
Si Si6 0.238682 0.627243 0.618623
O O1 0.250000 0.356773 0.750000
O O2 0.110800 0.343296 0.852940
O O3 0.168549 0.450678 0.816818
O O4 0.119018 0.397046 0.633271
O O5 0.568877 0.634991 0.575992
O O6 0.429264 0.548023 0.698343
O O7 0.597372 0.250000 0.497130
O O8 0.711155 0.332355 0.473840
O O9 0.717232 0.939695 0.617651
O O10 0.607317 0.000000 0.500000
O O11 0.500000 0.917345 0.985777
O O12 0.648641 0.886772 0.916069
O O13 0.611364 0.000000 0.000000
O O14 0.250000 0.653380 0.750000
#
# Coordination Sequence:
#
# PCOD9539729 Si02
#       6
#    16   8  16  16  16  16
#     4  12  22  39  66  95 138 175 221 272 339 421
#     4  10  22  38  60  98 135 159 215 274 339 399
#     4  11  25  43  65  94 130 179 236 285 327 388
#     4  11  19  33  63  94 132 166 205 262 346 417
#     4  11  24  40  61 100 141 173 209 273 346 417
#     4  11  22  43  65  91 128 179 228 276 338 404
#
# _framework density 21.538245
#
# number of rings (size 3 to 8) (size 9 to 14) (size 15 to 20)
#    0.000    0.909    5.455    3.818    2.545    0.727 
#    9.818    0.000    0.000    1.636    0.000    0.000 
#    0.000    0.000    0.000    0.000    0.000    0.000 
#
# Total GULP energy -245004.012022 kJ/mol
# GULP energy per Si atom -5568.273001 kJ/mol
# Density = 2.148922 g / cm^3
# Si number density = 21.538245 Si / 1000 Ang^3
#
#
#
# Elastic Constant Matrix: (Units=GPa)
#
#
# Indices 1 2 3 4 5 6 
#
# 1 108.1151 -6.1843 10.6345 0.0000 0.0000 0.0000
# 2 -6.1843 37.2466 -4.3055 0.0000 0.0000 0.0000
# 3 10.6345 -4.3055 90.7181 0.0000 0.0000 0.0000
# 4 0.0000 0.0000 0.0000 7.9157 0.0000 0.0000
# 5 0.0000 0.0000 0.0000 0.0000 18.4486 0.0000
# 6 0.0000 0.0000 0.0000 0.0000 0.0000 -9.7706
#
#
#
# Elastic Compliance Matrix: (Units=1/GPa)
#
#
# Indices 1 2 3 4 5 6 
#
# 1 0.009434 0.001447 -0.001037 0.000000 0.000000 0.000000
# 2 0.001447 0.027218 0.001122 0.000000 0.000000 0.000000
# 3 -0.001037 0.001122 0.011198 0.000000 0.000000 0.000000
# 4 0.000000 0.000000 0.000000 0.126331 0.000000 0.000000
# 5 0.000000 0.000000 0.000000 0.000000 0.054205 0.000000
# 6 0.000000 0.000000 0.000000 0.000000 0.000000 -0.102348
#
#
# Mechanical properties :
#
#
# Convention : Reuss Voigt Hill
#
# Bulk Modulus (GPa) = 19.64134 26.26327 22.95230
# Shear Modulus (GPa) = 35.72817 19.04776 27.38796
#
# Velocity S-wave (km/s) = 4.07729 2.97706 3.56981
# Velocity P-wave (km/s) = 5.59507 4.90280 5.26033
#
# Compressibility (1/GPa) = 0.05091303
#
# Stress axis : x y z
#
# Youngs Moduli (GPa) = 105.99766 36.74038 89.30155
#
# Poissons Ratio (x) = -0.05315 0.09263
# Poissons Ratio (y) = -0.15333 -0.10021
# Poissons Ratio (z) = 0.10995 -0.04123
#
# Static dielectric constant tensor:
#      x y z
#    x 1.789120 0.000000 0.000000 
#    y 0.000000 1.751080 0.000000 
#    z 0.000000 0.000000 1.950370 
# 
# From -- ./inp_files/20679.got.cif
#   From: 2010.05.17/outbox.cif.g08.bks.cpg/sg74_11_cif.got.tgz:20679.got - 2010.06.03 17:57:02.
