data_PCOD9539004
_publ_section_title
;
Structure prediction by ZEFSAII (Michael W. Deem and Ramdas Pophale) SiO2 
 PCOD9539004
Probable space group: I M M A
;
_chemical_formula_sum "Si O2"
_cell_formula_units_Z 116
_cell_length_a 18.496439
_cell_length_b 29.072867
_cell_length_c 11.125886
_cell_angle_alpha 90.000000
_cell_angle_beta 90.000000
_cell_angle_gamma 90.000000
_cell_volume 5982.884127
_symmetry_space_group_name_H-M "I M M A"
_symmetry_group_IT_number 74
_symmetry_cell_setting 'orthorhombic'
loop_
_space_group_symop_operation_xyz
x,y,z
-x,1/2-y,z
x,-y,-z
-x,1/2+y,-z
-x,-y,-z
x,1/2+y,-z
-x,y,z
x,1/2-y,z
1/2+x,1/2+y,1/2+z
1/2-x,-y,1/2+z
1/2+x,1/2-y,1/2-z
1/2-x,y,1/2-z
1/2-x,1/2-y,1/2-z
1/2+x,y,1/2-z
1/2-x,1/2+y,1/2+z
1/2+x,-y,1/2+z
loop_
_atom_site_type_symbol
_atom_site_label
_atom_site_fract_x
_atom_site_fract_y
_atom_site_fract_z
Si Si1 0.716923 0.699530 0.416647
Si Si2 0.412116 0.975094 0.876610
Si Si3 0.586946 0.525741 0.375353
Si Si4 0.171157 0.699397 0.809489
Si Si5 0.669436 0.890704 0.280353
Si Si6 0.416988 0.128764 0.162384
Si Si7 0.384315 0.672076 0.089532
Si Si8 0.000000 0.750000 0.345091
O O1 0.701924 0.750000 0.365312
O O2 0.683778 0.697805 0.548998
O O3 0.683563 0.658355 0.342030
O O4 0.802929 0.691519 0.423636
O O5 0.500000 0.974884 0.883294
O O6 0.387665 0.922092 0.866934
O O7 0.393558 0.999681 0.749953
O O8 0.386690 0.000000 0.000000
O O9 0.606296 0.500000 0.500000
O O10 0.500000 0.531316 0.375875
O O11 0.626783 0.574336 0.363600
O O12 0.139525 0.750000 0.777500
O O13 0.250000 0.697171 0.750000
O O14 0.125550 0.656965 0.762316
O O15 0.750000 0.908946 0.250000
O O16 0.623520 0.875727 0.163740
O O17 0.500000 0.123444 0.199914
O O18 0.412421 0.159137 0.042192
O O19 0.436887 0.709322 0.147891
#
# Coordination Sequence:
#
# PCOD9539004 Si02
#       8
#    16  16  16  16  16  16  16   4
#     4  10  21  40  59  82 123 170 206 240 299 368
#     4   9  19  37  61  87 121 158 198 248 319 377
#     4  10  22  42  67  91 121 163 209 265 322 377
#     4  10  21  36  58  82 118 163 203 238 292 366
#     4  10  24  41  62  89 126 162 208 257 312 378
#     4  11  22  35  60  92 121 152 200 257 306 366
#     4  11  22  36  59  92 126 159 202 254 305 357
#     4  12  24  32  62  98 130 160 206 256 308 366
#
# _framework density 19.388642000000001
#
# number of rings (size 3 to 8) (size 9 to 14) (size 15 to 20)
#    0.000    1.793    2.759    0.828    4.828    2.207 
#    0.000    4.138    0.000    0.828    0.000    0.000 
#    0.000    0.000    0.000    0.000    0.000    0.000 
#
# Total GULP energy -323173.044415 kJ/mol
# GULP energy per Si atom -5571.949042 kJ/mol
# Density = 1.934451 g / cm^3
# Si number density = 19.388642 Si / 1000 Ang^3
#
#
#
# Elastic Constant Matrix: (Units=GPa)
#
#
# Indices 1 2 3 4 5 6 
#
# 1 52.4863 47.2981 30.3941 0.0000 0.0000 0.0001
# 2 47.2981 129.7802 48.2504 -0.0015 -0.0003 -0.0005
# 3 30.3941 48.2504 102.7615 -0.0069 -0.0011 -0.0025
# 4 0.0000 -0.0015 -0.0069 11.4832 -0.0019 -0.0050
# 5 0.0000 -0.0003 -0.0011 -0.0019 16.5813 -0.0007
# 6 0.0001 -0.0005 -0.0025 -0.0050 -0.0007 11.2477
#
#
#
# Elastic Compliance Matrix: (Units=1/GPa)
#
#
# Indices 1 2 3 4 5 6 
#
# 1 0.030017 -0.009254 -0.004533 -0.000004 -0.000001 -0.000002
# 2 -0.009254 0.012188 -0.002986 0.000000 0.000000 0.000000
# 3 -0.004533 -0.002986 0.012474 0.000007 0.000001 0.000003
# 4 -0.000004 0.000000 0.000007 0.087084 0.000010 0.000039
# 5 -0.000001 0.000000 0.000001 0.000010 0.060309 0.000004
# 6 -0.000002 0.000000 0.000003 0.000039 0.000004 0.088907
#
#
# Mechanical properties :
#
#
# Convention : Reuss Voigt Hill
#
# Bulk Modulus (GPa) = 47.31889 59.65703 53.48796
# Shear Modulus (GPa) = 15.07980 18.46813 16.77396
#
# Velocity S-wave (km/s) = 2.79187 3.08965 2.94452
# Velocity P-wave (km/s) = 5.90349 6.60028 6.26158
#
# Compressibility (1/GPa) = 0.02113321
#
# Stress axis : x y z
#
# Youngs Moduli (GPa) = 33.31428 82.04744 80.16783
#
# Poissons Ratio (x) = 0.75930 0.36340
# Poissons Ratio (y) = 0.30830 0.23935
# Poissons Ratio (z) = 0.15101 0.24496
#
# Static dielectric constant tensor:
#      x y z
#    x 1.666560 0.000000 0.000000 
#    y 0.000000 1.685420 0.000000 
#    z 0.000000 0.000000 1.726980 
# 
# From -- ./inp_files/22830.got.cif
#   From: 2010.05.17/outbox.cif.g08.bks.cpg/sg74_12_cif.got.tgz:22830.got - 2010.06.03 17:57:02.
