data_PCOD9539986
_publ_section_title
;
Structure prediction by ZEFSAII (Michael W. Deem and Ramdas Pophale) SiO2 
 PCOD9539986
Probable space group: I M M A
;
_chemical_formula_sum "Si O2"
_cell_formula_units_Z 68
_cell_length_a 21.027940
_cell_length_b 25.547591
_cell_length_c 5.198510
_cell_angle_alpha 90.000000
_cell_angle_beta 90.000000
_cell_angle_gamma 90.000000
_cell_volume 2792.708248
_symmetry_space_group_name_H-M "I M M A"
_symmetry_group_IT_number 74
_symmetry_cell_setting 'orthorhombic'
loop_
_space_group_symop_operation_xyz
x,y,z
-x,1/2-y,z
x,-y,-z
-x,1/2+y,-z
-x,-y,-z
x,1/2+y,-z
-x,y,z
x,1/2-y,z
1/2+x,1/2+y,1/2+z
1/2-x,-y,1/2+z
1/2+x,1/2-y,1/2-z
1/2-x,y,1/2-z
1/2-x,1/2-y,1/2-z
1/2+x,y,1/2-z
1/2-x,1/2+y,1/2+z
1/2+x,-y,1/2+z
loop_
_atom_site_type_symbol
_atom_site_label
_atom_site_fract_x
_atom_site_fract_y
_atom_site_fract_z
Si Si1 0.750000 0.250000 0.750000
Si Si2 0.155865 0.665335 0.383152
Si Si3 0.800000 0.940969 0.547834
Si Si4 0.072874 0.334331 0.095708
Si Si5 0.933276 0.450738 0.183630
O O1 0.786014 0.204143 0.581793
O O2 0.182820 0.605763 0.350755
O O3 0.108351 0.668187 0.628908
O O4 0.117629 0.685814 0.132213
O O5 0.750000 0.917385 0.750000
O O6 0.869030 0.952341 0.662210
O O7 0.774228 0.000000 0.500000
O O8 0.067841 0.396205 0.033278
O O9 0.000000 0.314147 0.104906
O O10 0.000000 0.449495 0.337319
O O11 0.933843 0.500000 0.000000
#
# Coordination Sequence:
#
# PCOD9539986 Si02
#       5
#     4  16  16  16  16
#     4  12  32  50  78 102 152 198 256 298 370 452
#     4  11  27  46  73 106 145 196 244 301 372 442
#     4  11  24  39  66 104 149 194 249 307 379 443
#     4  10  22  45  74 106 143 184 243 310 370 438
#     4   9  18  34  60  97 141 189 237 290 364 445
#
# _framework density 24.349124
#
# number of rings (size 3 to 8) (size 9 to 14) (size 15 to 20)
#    0.000    1.647    0.000    2.824    8.235    3.294 
#    0.000    3.529    0.000    0.000    0.000    0.000 
#    0.000    0.000    0.000    0.000    0.000    0.000 
#
# Total GULP energy -189268.933859 kJ/mol
# GULP energy per Si atom -5566.733349 kJ/mol
# Density = 2.429370 g / cm^3
# Si number density = 24.349124 Si / 1000 Ang^3
#
#
#
# Elastic Constant Matrix: (Units=GPa)
#
#
# Indices 1 2 3 4 5 6 
#
# 1 119.5180 -2.0288 42.6738 0.0000 0.0000 0.0000
# 2 -2.0288 131.3828 -2.0510 0.0000 0.0000 0.0000
# 3 42.6738 -2.0510 78.2443 0.0000 0.0000 0.0000
# 4 0.0000 0.0000 0.0000 -6.3456 0.0000 0.0000
# 5 0.0000 0.0000 0.0000 0.0000 19.6846 0.0000
# 6 0.0000 0.0000 0.0000 0.0000 0.0000 29.0244
#
#
#
# Elastic Compliance Matrix: (Units=1/GPa)
#
#
# Indices 1 2 3 4 5 6 
#
# 1 0.010391 0.000072 -0.005665 0.000000 0.000000 0.000000
# 2 0.000072 0.007615 0.000160 0.000000 0.000000 0.000000
# 3 -0.005665 0.000160 0.015874 0.000000 0.000000 0.000000
# 4 0.000000 0.000000 0.000000 -0.157589 0.000000 0.000000
# 5 0.000000 0.000000 0.000000 0.000000 0.050801 0.000000
# 6 0.000000 0.000000 0.000000 0.000000 0.000000 0.034454
#
#
# Mechanical properties :
#
#
# Convention : Reuss Voigt Hill
#
# Bulk Modulus (GPa) = 43.45073 45.14812 44.29943
# Shear Modulus (GPa) = -251.05114 27.84275 -111.60419
#
# Velocity S-wave (km/s) = -10.16507 3.38521 -6.77750
# Velocity P-wave (km/s) = 10.94933 5.81909 6.55843
#
# Compressibility (1/GPa) = 0.02301457
#
# Stress axis : x y z
#
# Youngs Moduli (GPa) = 96.23778 131.32039 62.99426
#
# Poissons Ratio (x) = -0.00946 0.35688
# Poissons Ratio (y) = -0.00693 -0.01010
# Poissons Ratio (z) = 0.54521 -0.02105
#
# Static dielectric constant tensor:
#      x y z
#    x 1.984410 0.000000 0.000000 
#    y 0.000000 1.879890 0.000000 
#    z 0.000000 0.000000 2.056590 
# 
# From -- ./inp_files/3106.got.cif
#   From: 2010.05.17/outbox.cif.g08.bks.cpg/sg74_2_cif.got.tgz:3106.got - 2010.06.03 17:57:02.
