data_PCOD9539437
_publ_section_title
;
Structure prediction by ZEFSAII (Michael W. Deem and Ramdas Pophale) SiO2 
 PCOD9539437
Probable space group: I M M A
;
_chemical_formula_sum "Si O2"
_cell_formula_units_Z 96
_cell_length_a 18.541589
_cell_length_b 19.317620
_cell_length_c 13.546665
_cell_angle_alpha 90.000000
_cell_angle_beta 90.000000
_cell_angle_gamma 90.000000
_cell_volume 4852.135942
_symmetry_space_group_name_H-M "I M M A"
_symmetry_group_IT_number 74
_symmetry_cell_setting 'orthorhombic'
loop_
_space_group_symop_operation_xyz
x,y,z
-x,1/2-y,z
x,-y,-z
-x,1/2+y,-z
-x,-y,-z
x,1/2+y,-z
-x,y,z
x,1/2-y,z
1/2+x,1/2+y,1/2+z
1/2-x,-y,1/2+z
1/2+x,1/2-y,1/2-z
1/2-x,y,1/2-z
1/2-x,1/2-y,1/2-z
1/2+x,y,1/2-z
1/2-x,1/2+y,1/2+z
1/2+x,-y,1/2+z
loop_
_atom_site_type_symbol
_atom_site_label
_atom_site_fract_x
_atom_site_fract_y
_atom_site_fract_z
Si Si1 0.150258 0.328877 0.460281
Si Si2 0.586549 0.953399 0.835848
Si Si3 0.916646 0.669025 0.160483
Si Si4 0.084736 0.603278 0.361341
Si Si5 0.310954 0.020835 0.333603
Si Si6 0.300021 0.611245 0.473978
O O1 0.146719 0.250000 0.424271
O O2 0.127654 0.387015 0.380151
O O3 0.097597 0.343114 0.551955
O O4 0.227675 0.345287 0.509335
O O5 0.500000 0.943116 0.843210
O O6 0.613805 0.971123 0.725482
O O7 0.608685 0.025612 0.889879
O O8 0.916674 0.750000 0.184212
O O9 0.885774 0.629870 0.257041
O O10 0.866892 0.654762 0.066784
O O11 0.000000 0.647965 0.142455
O O12 0.000000 0.596766 0.345498
O O13 0.250000 0.031333 0.250000
O O14 0.312547 0.077058 0.419922
O O15 0.293764 0.949987 0.392420
#
# Coordination Sequence:
#
# PCOD9539437 Si02
#       6
#    16  16  16  16  16  16
#     4  12  25  40  62  97 136 171 214 264 325 397
#     4  11  23  42  68  96 127 170 220 270 322 382
#     4  10  21  39  61  90 131 170 208 263 329 389
#     4  10  21  39  63  92 128 169 215 269 323 382
#     4  11  22  42  65  93 126 164 214 269 318 378
#     4  11  24  38  66  95 126 165 213 269 325 386
#
# _framework density 19.785101000000001
#
# number of rings (size 3 to 8) (size 9 to 14) (size 15 to 20)
#    0.000    1.167    3.333    3.000    2.333    4.000 
#    0.000    5.833    0.000    0.000    0.000    0.000 
#    0.000    0.000    0.000    0.000    0.000    0.000 
#
# Total GULP energy -267765.504746 kJ/mol
# GULP energy per Si atom -5578.448016 kJ/mol
# Density = 1.974007 g / cm^3
# Si number density = 19.785101 Si / 1000 Ang^3
#
#
#
# Elastic Constant Matrix: (Units=GPa)
#
#
# Indices 1 2 3 4 5 6 
#
# 1 65.3224 40.5619 26.1880 0.0000 0.0000 0.0000
# 2 40.5619 113.7448 32.1566 0.0000 0.0000 0.0000
# 3 26.1880 32.1566 95.1998 0.0000 0.0000 0.0000
# 4 0.0000 0.0000 0.0000 14.0546 0.0000 0.0000
# 5 0.0000 0.0000 0.0000 0.0000 33.5290 0.0000
# 6 0.0000 0.0000 0.0000 0.0000 0.0000 19.9099
#
#
#
# Elastic Compliance Matrix: (Units=1/GPa)
#
#
# Indices 1 2 3 4 5 6 
#
# 1 0.020686 -0.006377 -0.003536 0.000000 0.000000 0.000000
# 2 -0.006377 0.011686 -0.002193 0.000000 0.000000 0.000000
# 3 -0.003536 -0.002193 0.012218 0.000000 0.000000 0.000000
# 4 0.000000 0.000000 0.000000 0.071151 0.000000 0.000000
# 5 0.000000 0.000000 0.000000 0.000000 0.029825 0.000000
# 6 0.000000 0.000000 0.000000 0.000000 0.000000 0.050226
#
#
# Mechanical properties :
#
#
# Convention : Reuss Voigt Hill
#
# Bulk Modulus (GPa) = 49.07533 52.45334 50.76433
# Shear Modulus (GPa) = 22.04615 25.18941 23.61778
#
# Velocity S-wave (km/s) = 3.34171 3.57199 3.45877
# Velocity P-wave (km/s) = 6.30455 6.60161 6.45479
#
# Compressibility (1/GPa) = 0.02037684
#
# Stress axis : x y z
#
# Youngs Moduli (GPa) = 48.34126 85.57506 81.84792
#
# Poissons Ratio (x) = 0.54571 0.28945
# Poissons Ratio (y) = 0.30827 0.17949
# Poissons Ratio (z) = 0.17096 0.18766
#
# Static dielectric constant tensor:
#      x y z
#    x 1.751080 0.000000 0.000000 
#    y 0.000000 1.716420 0.000000 
#    z 0.000000 0.000000 1.678530 
# 
# From -- ./inp_files/23930.got.cif
#   From: 2010.05.17/outbox.cif.g08.bks.cpg/sg74_12_cif.got.tgz:23930.got - 2010.06.03 17:57:02.
