data_PCOD9539416
_publ_section_title
;
Structure prediction by ZEFSAII (Michael W. Deem and Ramdas Pophale) SiO2 
 PCOD9539416
Probable space group: I M M A
;
_chemical_formula_sum "Si O2"
_cell_formula_units_Z 96
_cell_length_a 14.550665
_cell_length_b 31.322453
_cell_length_c 11.769489
_cell_angle_alpha 90.000000
_cell_angle_beta 90.000000
_cell_angle_gamma 90.000000
_cell_volume 5364.091973
_symmetry_space_group_name_H-M "I M M A"
_symmetry_group_IT_number 74
_symmetry_cell_setting 'orthorhombic'
loop_
_space_group_symop_operation_xyz
x,y,z
-x,1/2-y,z
x,-y,-z
-x,1/2+y,-z
-x,-y,-z
x,1/2+y,-z
-x,y,z
x,1/2-y,z
1/2+x,1/2+y,1/2+z
1/2-x,-y,1/2+z
1/2+x,1/2-y,1/2-z
1/2-x,y,1/2-z
1/2-x,1/2-y,1/2-z
1/2+x,y,1/2-z
1/2-x,1/2+y,1/2+z
1/2+x,-y,1/2+z
loop_
_atom_site_type_symbol
_atom_site_label
_atom_site_fract_x
_atom_site_fract_y
_atom_site_fract_z
Si Si1 0.730687 0.954777 0.939658
Si Si2 0.898794 0.750000 0.936890
Si Si3 0.655018 0.750000 0.318104
Si Si4 0.170114 0.165038 0.162060
Si Si5 0.753258 0.870952 0.072059
Si Si6 0.392343 0.929010 0.725364
Si Si7 0.104550 0.343024 0.744248
O O1 0.653871 0.943165 0.844643
O O2 0.827872 0.950193 0.871905
O O3 0.729464 0.918790 0.036505
O O4 0.719097 0.000000 0.000000
O O5 0.887312 0.707349 0.863500
O O6 0.000000 0.750000 0.989769
O O7 0.831850 0.750000 0.045775
O O8 0.750000 0.750000 0.250000
O O9 0.606264 0.793731 0.282676
O O10 0.250000 0.175573 0.250000
O O11 0.119827 0.122300 0.207576
O O12 0.216324 0.151951 0.043030
O O13 0.838790 0.868051 0.158577
O O14 0.666577 0.848964 0.132490
O O15 0.500000 0.939739 0.718479
O O16 0.000000 0.357467 0.731217
#
# Coordination Sequence:
#
# PCOD9539416 Si02
#       7
#    16   8   8  16  16  16  16
#     4  10  22  42  63  87 119 155 194 248 310 364
#     4  12  23  33  58  91 120 157 210 254 285 345
#     4  12  20  37  56  84 121 161 199 248 288 346
#     4  11  20  40  60  86 120 165 201 245 300 352
#     4  10  21  39  59  85 117 156 199 244 299 357
#     4  10  21  39  63  89 120 157 197 244 302 361
#     4  11  22  36  58  87 121 159 200 245 295 349
#
# _framework density 17.896784
#
# number of rings (size 3 to 8) (size 9 to 14) (size 15 to 20)
#    0.000    1.333    6.667    1.500    0.000    6.667 
#    0.000    1.667    0.000    0.000    0.000    0.000 
#    0.000    0.000    0.000    0.000    0.000    0.000 
#
# Total GULP energy -267785.024291 kJ/mol
# GULP energy per Si atom -5578.854673 kJ/mol
# Density = 1.785605 g / cm^3
# Si number density = 17.896784 Si / 1000 Ang^3
#
#
#
# Elastic Constant Matrix: (Units=GPa)
#
#
# Indices 1 2 3 4 5 6 
#
# 1 125.7873 16.4985 40.0669 0.0000 -0.0001 0.0000
# 2 16.4985 131.5449 49.8082 0.0001 0.0000 0.0000
# 3 40.0669 49.8082 69.5983 -0.0002 -0.0004 0.0000
# 4 0.0000 0.0001 -0.0002 31.0097 -0.0002 0.0000
# 5 -0.0001 0.0000 -0.0004 -0.0002 5.5618 0.0000
# 6 0.0000 0.0000 0.0000 0.0000 0.0000 10.4036
#
#
#
# Elastic Compliance Matrix: (Units=1/GPa)
#
#
# Indices 1 2 3 4 5 6 
#
# 1 0.009884 0.001255 -0.006588 0.000000 0.000000 0.000000
# 2 0.001255 0.010587 -0.008299 0.000000 0.000000 0.000000
# 3 -0.006588 -0.008299 0.024100 0.000000 0.000002 0.000000
# 4 0.000000 0.000000 0.000000 0.032248 0.000001 0.000000
# 5 0.000000 0.000000 0.000002 0.000001 0.179796 0.000000
# 6 0.000000 0.000000 0.000000 0.000000 0.000000 0.096121
#
#
# Mechanical properties :
#
#
# Convention : Reuss Voigt Hill
#
# Bulk Modulus (GPa) = 57.78192 59.96418 58.87305
# Shear Modulus (GPa) = 12.96113 24.09883 18.52998
#
# Velocity S-wave (km/s) = 2.69404 3.67351 3.22122
# Velocity P-wave (km/s) = 6.48332 7.18131 6.84122
#
# Compressibility (1/GPa) = 0.01730645
#
# Stress axis : x y z
#
# Youngs Moduli (GPa) = 101.17553 94.45645 41.49383
#
# Poissons Ratio (x) = -0.11853 0.27336
# Poissons Ratio (y) = -0.12696 0.34435
# Poissons Ratio (z) = 0.66655 0.78389
#
# Static dielectric constant tensor:
#      x y z
#    x 1.612700 0.000000 0.000000 
#    y 0.000000 1.624700 0.000000 
#    z 0.000000 0.000000 1.638010 
# 
# From -- ./inp_files/21074.got.cif
#   From: 2010.05.17/outbox.cif.g08.bks.cpg/sg74_11_cif.got.tgz:21074.got - 2010.06.03 17:57:02.
