data_PCOD9539113
_publ_section_title
;
Structure prediction by ZEFSAII (Michael W. Deem and Ramdas Pophale) SiO2 
 PCOD9539113
Probable space group: I M M A
;
_chemical_formula_sum "Si O2"
_cell_formula_units_Z 96
_cell_length_a 24.300835
_cell_length_b 8.782518
_cell_length_c 22.830985
_cell_angle_alpha 90.000000
_cell_angle_beta 90.000000
_cell_angle_gamma 90.000000
_cell_volume 4872.646371
_symmetry_space_group_name_H-M "I M M A"
_symmetry_group_IT_number 74
_symmetry_cell_setting 'orthorhombic'
loop_
_space_group_symop_operation_xyz
x,y,z
-x,1/2-y,z
x,-y,-z
-x,1/2+y,-z
-x,-y,-z
x,1/2+y,-z
-x,y,z
x,1/2-y,z
1/2+x,1/2+y,1/2+z
1/2-x,-y,1/2+z
1/2+x,1/2-y,1/2-z
1/2-x,y,1/2-z
1/2-x,1/2-y,1/2-z
1/2+x,y,1/2-z
1/2-x,1/2+y,1/2+z
1/2+x,-y,1/2+z
loop_
_atom_site_type_symbol
_atom_site_label
_atom_site_fract_x
_atom_site_fract_y
_atom_site_fract_z
Si Si1 0.063127 0.928284 0.819972
Si Si2 0.277285 0.568838 0.380431
Si Si3 0.165337 0.929445 0.632228
Si Si4 0.164723 0.569991 0.240897
Si Si5 0.605321 0.067786 0.563114
Si Si6 0.937694 0.067607 0.565128
O O1 0.079021 0.750000 0.815618
O O2 0.000000 0.943385 0.801944
O O3 0.103782 0.030850 0.781923
O O4 0.070719 0.985392 0.886393
O O5 0.267242 0.750000 0.380956
O O6 0.221836 0.484267 0.398128
O O7 0.296132 0.528144 0.313917
O O8 0.330542 0.538008 0.420360
O O9 0.159536 0.750000 0.627529
O O10 0.172718 0.980175 0.699492
O O11 0.111062 0.006720 0.605710
O O12 0.171343 0.750000 0.251548
O O13 0.596885 0.250000 0.565330
O O14 0.592671 0.000000 0.500000
O O15 0.934622 0.250000 0.562285
O O16 0.000000 0.025973 0.585053
O O17 0.930752 0.000000 0.500000
#
# Coordination Sequence:
#
# PCOD9539113 Si02
#       6
#    16  16  16  16  16  16
#     4  10  21  37  57  82 113 148 187 234 285 336
#     4   9  20  38  57  80 113 150 188 232 281 331
#     4  12  24  36  58  89 117 149 187 226 271 331
#     4  10  21  38  59  82 113 151 188 232 282 330
#     4  10  21  37  58  82 111 149 190 235 283 331
#     4  10  22  42  65  86 112 146 183 228 280 330
#
# _framework density 19.701820999999999
#
# number of rings (size 3 to 8) (size 9 to 14) (size 15 to 20)
#    0.000    1.833    0.000    5.000    0.000   10.000 
#    0.000    1.667    0.000    0.000    0.000    0.000 
#    0.000    0.000    0.000    0.000    0.000    0.000 
#
# Total GULP energy -268230.789732 kJ/mol
# GULP energy per Si atom -5588.141453 kJ/mol
# Density = 1.965698 g / cm^3
# Si number density = 19.701821 Si / 1000 Ang^3
#
#
#
# Elastic Constant Matrix: (Units=GPa)
#
#
# Indices 1 2 3 4 5 6 
#
# 1 86.6287 31.9357 -8.7690 0.0000 0.0000 0.0000
# 2 31.9357 55.7800 -4.5897 0.0000 0.0000 0.0000
# 3 -8.7690 -4.5897 6.5159 0.0000 0.0000 0.0000
# 4 0.0000 0.0000 0.0000 33.3758 0.0000 0.0000
# 5 0.0000 0.0000 0.0000 0.0000 -0.3682 0.0000
# 6 0.0000 0.0000 0.0000 0.0000 0.0000 26.9811
#
#
#
# Elastic Compliance Matrix: (Units=1/GPa)
#
#
# Indices 1 2 3 4 5 6 
#
# 1 0.016077 -0.007881 0.016085 0.000000 0.000000 0.000000
# 2 -0.007881 0.022894 0.005520 0.000000 0.000000 0.000000
# 3 0.016085 0.005520 0.179005 0.000000 0.000000 0.000000
# 4 0.000000 0.000000 0.000000 0.029962 0.000000 0.000000
# 5 0.000000 0.000000 0.000000 0.000000 -2.715596 0.000000
# 6 0.000000 0.000000 0.000000 0.000000 0.000000 0.037063
#
#
# Mechanical properties :
#
#
# Convention : Reuss Voigt Hill
#
# Bulk Modulus (GPa) = 4.07459 20.67542 12.37500
# Shear Modulus (GPa) = -2.10417 20.68756 9.29169
#
# Velocity S-wave (km/s) = -1.03457 3.24394 2.17403
# Velocity P-wave (km/s) = 0.80344 4.95457 3.54918
#
# Compressibility (1/GPa) = 0.24542359
#
# Stress axis : x y z
#
# Youngs Moduli (GPa) = 62.20026 43.67967 5.58642
#
# Poissons Ratio (x) = 0.34425 -0.08986
# Poissons Ratio (y) = 0.49021 -0.03084
# Poissons Ratio (z) = -1.00049 -0.24110
#
# Static dielectric constant tensor:
#      x y z
#    x 1.707490 0.000000 0.000000 
#    y 0.000000 1.661970 0.000000 
#    z 0.000000 0.000000 1.683330 
# 
# From -- ./inp_files/61919.got.cif
#   From: 2010.05.17/outbox.cif.g08.bks.cpg/sg74_31_cif.got.tgz:61919.got - 2010.06.03 17:57:02.
