data_PCOD9539539
_publ_section_title
;
Structure prediction by ZEFSAII (Michael W. Deem and Ramdas Pophale) SiO2 
 PCOD9539539
Probable space group: I M M A
;
_chemical_formula_sum "Si O2"
_cell_formula_units_Z 64
_cell_length_a 8.714783
_cell_length_b 14.910862
_cell_length_c 25.124738
_cell_angle_alpha 90.000000
_cell_angle_beta 90.000000
_cell_angle_gamma 90.000000
_cell_volume 3264.832237
_symmetry_space_group_name_H-M "I M M A"
_symmetry_group_IT_number 74
_symmetry_cell_setting 'orthorhombic'
loop_
_space_group_symop_operation_xyz
x,y,z
-x,1/2-y,z
x,-y,-z
-x,1/2+y,-z
-x,-y,-z
x,1/2+y,-z
-x,y,z
x,1/2-y,z
1/2+x,1/2+y,1/2+z
1/2-x,-y,1/2+z
1/2+x,1/2-y,1/2-z
1/2-x,y,1/2-z
1/2-x,1/2-y,1/2-z
1/2+x,y,1/2-z
1/2-x,1/2+y,1/2+z
1/2+x,-y,1/2+z
loop_
_atom_site_type_symbol
_atom_site_label
_atom_site_fract_x
_atom_site_fract_y
_atom_site_fract_z
Si Si1 0.817875 0.400384 0.614577
Si Si2 0.185403 0.600898 0.886072
Si Si3 0.683212 0.250000 0.690659
Si Si4 0.816440 0.250000 0.309209
Si Si5 0.176282 0.608878 0.003952
O O1 0.748914 0.500286 0.619330
O O2 0.742985 0.335841 0.657962
O O3 0.775290 0.366713 0.555059
O O4 0.000000 0.402481 0.620978
O O5 0.253967 0.664148 0.841221
O O6 0.000000 0.599298 0.883940
O O7 0.227566 0.637383 0.945162
O O8 0.500000 0.250000 0.692394
O O9 0.750000 0.250000 0.750000
O O10 0.750000 0.250000 0.250000
O O11 0.000000 0.250000 0.308124
O O12 0.000000 0.637134 0.012880
O O13 0.175969 0.500000 0.000000
#
# Coordination Sequence:
#
# PCOD9539539 Si02
#       5
#    16  16   8   8  16
#     4  11  22  38  62  93 125 157 196 243 296 352
#     4  10  21  40  64  90 122 160 199 242 297 355
#     4  12  26  45  64  85 116 155 203 251 297 352
#     4  12  26  43  62  87 118 155 203 253 299 350
#     4   8  16  33  58  88 122 158 194 236 292 354
#
# _framework density 19.602844999999999
#
# number of rings (size 3 to 8) (size 9 to 14) (size 15 to 20)
#    0.000    1.750    0.000    6.750    0.000    7.500 
#    0.000    6.250    0.000    0.000    0.000    0.000 
#    0.000    0.000    0.000    0.000    0.000    0.000 
#
# Total GULP energy -178894.119223 kJ/mol
# GULP energy per Si atom -5590.441226 kJ/mol
# Density = 1.955823 g / cm^3
# Si number density = 19.602845 Si / 1000 Ang^3
#
#
#
# Elastic Constant Matrix: (Units=GPa)
#
#
# Indices 1 2 3 4 5 6 
#
# 1 164.4470 60.7644 101.6815 0.0000 0.0000 0.0000
# 2 60.7644 113.4735 87.5503 0.0000 0.0000 0.0000
# 3 101.6815 87.5503 210.4468 0.0000 0.0000 0.0000
# 4 0.0000 0.0000 0.0000 30.6531 0.0000 0.0000
# 5 0.0000 0.0000 0.0000 0.0000 38.3332 0.0000
# 6 0.0000 0.0000 0.0000 0.0000 0.0000 29.4945
#
#
#
# Elastic Compliance Matrix: (Units=1/GPa)
#
#
# Indices 1 2 3 4 5 6 
#
# 1 0.009018 -0.002161 -0.003458 0.000000 0.000000 0.000000
# 2 -0.002161 0.013496 -0.004571 0.000000 0.000000 0.000000
# 3 -0.003458 -0.004571 0.008324 0.000000 0.000000 0.000000
# 4 0.000000 0.000000 0.000000 0.032623 0.000000 0.000000
# 5 0.000000 0.000000 0.000000 0.000000 0.026087 0.000000
# 6 0.000000 0.000000 0.000000 0.000000 0.000000 0.033905
#
#
# Mechanical properties :
#
#
# Convention : Reuss Voigt Hill
#
# Bulk Modulus (GPa) = 95.61291 109.81773 102.71532
# Shear Modulus (GPa) = 33.94012 35.58757 34.76385
#
# Velocity S-wave (km/s) = 4.16551 4.26541 4.21575
# Velocity P-wave (km/s) = 8.48624 8.96667 8.72976
#
# Compressibility (1/GPa) = 0.01045884
#
# Stress axis : x y z
#
# Youngs Moduli (GPa) = 110.89362 74.09481 120.13232
#
# Poissons Ratio (x) = 0.16010 0.41543
# Poissons Ratio (y) = 0.23962 0.54909
# Poissons Ratio (z) = 0.38348 0.33866
#
# Static dielectric constant tensor:
#      x y z
#    x 1.647770 0.000000 0.000000 
#    y 0.000000 1.711620 0.000000 
#    z 0.000000 0.000000 1.679890 
# 
# From -- ./inp_files/56423.got.cif
#   From: 2010.05.17/outbox.cif.g08.bks.cpg/sg74_29_cif.got.tgz:56423.got - 2010.06.03 17:57:02.
