data_PCOD9539227
_publ_section_title
;
Structure prediction by ZEFSAII (Michael W. Deem and Ramdas Pophale) SiO2 
 PCOD9539227
Probable space group: I M M A
;
_chemical_formula_sum "Si O2"
_cell_formula_units_Z 96
_cell_length_a 28.663033
_cell_length_b 16.532172
_cell_length_c 10.208878
_cell_angle_alpha 90.000000
_cell_angle_beta 90.000000
_cell_angle_gamma 90.000000
_cell_volume 4837.601303
_symmetry_space_group_name_H-M "I M M A"
_symmetry_group_IT_number 74
_symmetry_cell_setting 'orthorhombic'
loop_
_space_group_symop_operation_xyz
x,y,z
-x,1/2-y,z
x,-y,-z
-x,1/2+y,-z
-x,-y,-z
x,1/2+y,-z
-x,y,z
x,1/2-y,z
1/2+x,1/2+y,1/2+z
1/2-x,-y,1/2+z
1/2+x,1/2-y,1/2-z
1/2-x,y,1/2-z
1/2-x,1/2-y,1/2-z
1/2+x,y,1/2-z
1/2-x,1/2+y,1/2+z
1/2+x,-y,1/2+z
loop_
_atom_site_type_symbol
_atom_site_label
_atom_site_fract_x
_atom_site_fract_y
_atom_site_fract_z
Si Si1 0.861982 0.845136 0.285852
Si Si2 0.553454 0.080941 0.916737
Si Si3 0.700424 0.595800 0.981378
Si Si4 0.449247 0.343933 0.187274
Si Si5 0.308017 0.904606 0.468747
Si Si6 0.650242 0.654893 0.731866
O O1 0.870445 0.750000 0.263078
O O2 0.909809 0.894811 0.306884
O O3 0.834189 0.857682 0.421672
O O4 0.830543 0.881667 0.169671
O O5 0.500000 0.073108 0.870980
O O6 0.554818 0.148820 0.030406
O O7 0.565448 0.000000 0.000000
O O8 0.686619 0.615558 0.832649
O O9 0.694199 0.500000 0.000000
O O10 0.753331 0.616614 0.019834
O O11 0.500000 0.380452 0.222278
O O12 0.450581 0.250000 0.225398
O O13 0.401851 0.379713 0.245402
O O14 0.334457 0.858499 0.584235
O O15 0.311940 0.000000 0.500000
O O16 0.649171 0.750000 0.763053
#
# Coordination Sequence:
#
# PCOD9539227 Si02
#       6
#    16  16  16  16  16  16
#     4  12  24  39  62  93 126 161 201 256 318 370
#     4  10  21  37  62  94 124 156 200 250 301 361
#     4  11  23  41  63  87 117 159 209 255 305 365
#     4   9  18  34  58  88 118 148 189 241 296 354
#     4  11  26  42  59  84 122 167 204 251 310 369
#     4  11  22  38  62  90 118 157 202 248 300 358
#
# _framework density 19.844546999999999
#
# number of rings (size 3 to 8) (size 9 to 14) (size 15 to 20)
#    0.000    1.333    1.667    4.000    2.333    7.667 
#    0.000    0.833    0.000    3.000    0.000    0.000 
#    0.000    0.000    0.000    0.000    0.000    0.000 
#
# Total GULP energy -268135.894561 kJ/mol
# GULP energy per Si atom -5586.164470 kJ/mol
# Density = 1.979938 g / cm^3
# Si number density = 19.844547 Si / 1000 Ang^3
#
#
#
# Elastic Constant Matrix: (Units=GPa)
#
#
# Indices 1 2 3 4 5 6 
#
# 1 131.6943 31.9290 13.4722 0.0000 0.0000 0.0000
# 2 31.9290 51.9283 -6.0782 0.0000 0.0000 0.0000
# 3 13.4722 -6.0782 41.3864 0.0000 0.0000 0.0000
# 4 0.0000 0.0000 0.0000 31.4728 0.0000 0.0000
# 5 0.0000 0.0000 0.0000 0.0000 -20.6062 0.0000
# 6 0.0000 0.0000 0.0000 0.0000 0.0000 15.2223
#
#
#
# Elastic Compliance Matrix: (Units=1/GPa)
#
#
# Indices 1 2 3 4 5 6 
#
# 1 0.009544 -0.006341 -0.004038 0.000000 0.000000 0.000000
# 2 -0.006341 0.023807 0.005560 0.000000 0.000000 0.000000
# 3 -0.004038 0.005560 0.026294 0.000000 0.000000 0.000000
# 4 0.000000 0.000000 0.000000 0.031773 0.000000 0.000000
# 5 0.000000 0.000000 0.000000 0.000000 -0.048529 0.000000
# 6 0.000000 0.000000 0.000000 0.000000 0.000000 0.065693
#
#
# Mechanical properties :
#
#
# Convention : Reuss Voigt Hill
#
# Bulk Modulus (GPa) = 19.99688 33.73944 26.86816
# Shear Modulus (GPa) = 37.06797 17.59685 27.33241
#
# Velocity S-wave (km/s) = 4.32663 2.98104 3.71526
# Velocity P-wave (km/s) = 5.92100 5.37472 5.65446
#
# Compressibility (1/GPa) = 0.05000779
#
# Stress axis : x y z
#
# Youngs Moduli (GPa) = 104.78086 42.00465 38.03202
#
# Poissons Ratio (x) = 0.26634 0.15357
# Poissons Ratio (y) = 0.66439 -0.21148
# Poissons Ratio (z) = 0.42310 -0.23357
#
# Static dielectric constant tensor:
#      x y z
#    x 1.740460 0.000000 0.000000 
#    y 0.000000 1.762640 0.000000 
#    z 0.000000 0.000000 1.635740 
# 
# From -- ./inp_files/15130.got.cif
#   From: 2010.05.17/outbox.cif.g08.bks.cpg/sg74_8_cif.got.tgz:15130.got - 2010.06.03 17:57:02.
