data_PCOD9539014
_publ_section_title
;
Structure prediction by ZEFSAII (Michael W. Deem and Ramdas Pophale) SiO2 
 PCOD9539014
Probable space group: I M M A
;
_chemical_formula_sum "Si O2"
_cell_formula_units_Z 116
_cell_length_a 15.117366
_cell_length_b 16.705530
_cell_length_c 23.490350
_cell_angle_alpha 90.000000
_cell_angle_beta 90.000000
_cell_angle_gamma 90.000000
_cell_volume 5932.337818
_symmetry_space_group_name_H-M "I M M A"
_symmetry_group_IT_number 74
_symmetry_cell_setting 'orthorhombic'
loop_
_space_group_symop_operation_xyz
x,y,z
-x,1/2-y,z
x,-y,-z
-x,1/2+y,-z
-x,-y,-z
x,1/2+y,-z
-x,y,z
x,1/2-y,z
1/2+x,1/2+y,1/2+z
1/2-x,-y,1/2+z
1/2+x,1/2-y,1/2-z
1/2-x,y,1/2-z
1/2-x,1/2-y,1/2-z
1/2+x,y,1/2-z
1/2-x,1/2+y,1/2+z
1/2+x,-y,1/2+z
loop_
_atom_site_type_symbol
_atom_site_label
_atom_site_fract_x
_atom_site_fract_y
_atom_site_fract_z
Si Si1 0.102015 0.843607 0.484889
Si Si2 0.167768 0.663490 0.705583
Si Si3 0.102846 0.053872 0.627722
Si Si4 0.101503 0.153918 0.108058
Si Si5 0.598069 0.958859 0.716808
Si Si6 0.348371 0.120722 0.748041
Si Si7 0.283355 0.405712 0.087496
Si Si8 0.000000 0.250000 0.779267
O O1 0.123037 0.750000 0.483563
O O2 0.109382 0.880681 0.422411
O O3 0.162759 0.885820 0.531136
O O4 0.000000 0.853431 0.503281
O O5 0.124145 0.750000 0.713451
O O6 0.250000 0.660155 0.750000
O O7 0.110127 0.588369 0.724362
O O8 0.197574 0.653840 0.640703
O O9 0.120838 0.093827 0.688732
O O10 0.000000 0.023644 0.626286
O O11 0.177229 0.988577 0.611410
O O12 0.116405 0.250000 0.112171
O O13 0.107248 0.109130 0.169004
O O14 0.179675 0.108801 0.074652
O O15 0.000000 0.143081 0.087599
O O16 0.500000 0.992017 0.712856
O O17 0.659346 0.036134 0.713529
O O18 0.250000 0.155439 0.750000
O O19 0.421649 0.180134 0.723798
#
# Coordination Sequence:
#
# PCOD9539014 Si02
#       8
#    16  16  16  16  16  16  16   4
#     4  10  23  40  62  88 119 156 205 261 314 368
#     4  11  21  32  50  81 123 165 197 239 296 360
#     4  11  23  41  65  88 125 164 204 249 315 385
#     4  10  21  36  58  88 125 170 210 244 294 368
#     4  11  20  35  54  81 122 159 199 240 291 360
#     4  12  24  42  66  96 121 162 206 256 316 373
#     4  12  21  36  59  90 122 159 209 257 300 362
#     4  12  26  44  64  94 128 156 208 268 306 370
#
# _framework density 19.553842
#
# number of rings (size 3 to 8) (size 9 to 14) (size 15 to 20)
#    0.000    0.966    4.138    3.931    0.966    2.483 
#    0.000    0.000    0.000    1.655    0.000    0.000 
#    0.000    0.000    0.000    0.000    0.000    0.000 
#
# Total GULP energy -323083.243287 kJ/mol
# GULP energy per Si atom -5570.400746 kJ/mol
# Density = 1.950934 g / cm^3
# Si number density = 19.553842 Si / 1000 Ang^3
#
#
#
# Elastic Constant Matrix: (Units=GPa)
#
#
# Indices 1 2 3 4 5 6 
#
# 1 52.8733 23.1878 -19.5051 0.0000 0.0000 0.0000
# 2 23.1878 57.4574 -12.4800 0.0000 0.0000 0.0000
# 3 -19.5051 -12.4800 37.6359 0.0000 0.0000 0.0000
# 4 0.0000 0.0000 0.0000 1.3087 0.0000 0.0000
# 5 0.0000 0.0000 0.0000 0.0000 25.0814 0.0000
# 6 0.0000 0.0000 0.0000 0.0000 0.0000 34.6050
#
#
#
# Elastic Compliance Matrix: (Units=1/GPa)
#
#
# Indices 1 2 3 4 5 6 
#
# 1 0.026651 -0.008357 0.011041 0.000000 0.000000 0.000000
# 2 -0.008357 0.021376 0.002757 0.000000 0.000000 0.000000
# 3 0.011041 0.002757 0.033207 0.000000 0.000000 0.000000
# 4 0.000000 0.000000 0.000000 0.764109 0.000000 0.000000
# 5 0.000000 0.000000 0.000000 0.000000 0.039870 0.000000
# 6 0.000000 0.000000 0.000000 0.000000 0.000000 0.028898
#
#
# Mechanical properties :
#
#
# Convention : Reuss Voigt Hill
#
# Bulk Modulus (GPa) = 10.85601 14.48576 12.67089
# Shear Modulus (GPa) = 5.35369 22.64994 14.00182
#
# Velocity S-wave (km/s) = 1.65646 3.40713 2.67884
# Velocity P-wave (km/s) = 3.03684 4.78563 4.00778
#
# Compressibility (1/GPa) = 0.09211485
#
# Stress axis : x y z
#
# Youngs Moduli (GPa) = 37.52146 46.78199 30.11440
#
# Poissons Ratio (x) = 0.39098 -0.33249
# Poissons Ratio (y) = 0.31358 -0.08302
# Poissons Ratio (z) = -0.41428 -0.12897
#
# Static dielectric constant tensor:
#      x y z
#    x 1.746340 0.000000 0.000000 
#    y 0.000000 1.695020 0.000000 
#    z 0.000000 0.000000 1.664530 
# 
# From -- ./inp_files/60359.got.cif
#   From: 2010.05.17/outbox.cif.g08.bks.cpg/sg74_31_cif.got.tgz:60359.got - 2010.06.03 17:57:02.
