data_PCOD9539385
_publ_section_title
;
Structure prediction by ZEFSAII (Michael W. Deem and Ramdas Pophale) SiO2 
 PCOD9539385
Probable space group: I M M A
;
_chemical_formula_sum "Si O2"
_cell_formula_units_Z 96
_cell_length_a 19.120753
_cell_length_b 13.911619
_cell_length_c 15.462488
_cell_angle_alpha 90.000000
_cell_angle_beta 90.000000
_cell_angle_gamma 90.000000
_cell_volume 4113.031561
_symmetry_space_group_name_H-M "I M M A"
_symmetry_group_IT_number 74
_symmetry_cell_setting 'orthorhombic'
loop_
_space_group_symop_operation_xyz
x,y,z
-x,1/2-y,z
x,-y,-z
-x,1/2+y,-z
-x,-y,-z
x,1/2+y,-z
-x,y,z
x,1/2-y,z
1/2+x,1/2+y,1/2+z
1/2-x,-y,1/2+z
1/2+x,1/2-y,1/2-z
1/2-x,y,1/2-z
1/2-x,1/2-y,1/2-z
1/2+x,y,1/2-z
1/2-x,1/2+y,1/2+z
1/2+x,-y,1/2+z
loop_
_atom_site_type_symbol
_atom_site_label
_atom_site_fract_x
_atom_site_fract_y
_atom_site_fract_z
Si Si1 0.579333 0.358197 0.806974
Si Si2 0.207795 0.139596 0.907255
Si Si3 0.917503 0.366137 0.338947
Si Si4 0.919888 0.640657 0.965184
Si Si5 0.649444 0.364517 0.981400
Si Si6 0.135467 0.509985 0.811486
O O1 0.500000 0.354543 0.837466
O O2 0.601943 0.250000 0.784464
O O3 0.623488 0.396350 0.887366
O O4 0.586093 0.426096 0.725552
O O5 0.220226 0.250000 0.874888
O O6 0.267623 0.119941 0.978610
O O7 0.203401 0.052502 0.839008
O O8 0.133602 0.138053 0.955606
O O9 0.913267 0.250000 0.333777
O O10 0.891381 0.397805 0.434175
O O11 0.867832 0.413485 0.266687
O O12 0.000000 0.392035 0.326014
O O13 0.916866 0.750000 0.929366
O O14 0.894445 0.566251 0.893472
O O15 0.000000 0.622084 0.990360
O O16 0.637010 0.250000 0.980380
#
# Coordination Sequence:
#
# PCOD9539385 Si02
#       6
#    16  16  16  16  16  16
#     4  10  21  38  63  95 129 169 215 263 320 385
#     4  10  23  44  66  90 127 176 222 263 320 389
#     4  10  21  40  69 101 132 170 217 272 333 391
#     4  10  22  42  66  89 121 168 219 270 323 380
#     4   9  20  43  67  89 128 175 218 265 317 386
#     4  12  23  38  61  96 133 161 208 269 331 383
#
# _framework density 23.340447999999999
#
# number of rings (size 3 to 8) (size 9 to 14) (size 15 to 20)
#    0.000    1.833    0.000    3.500    0.000    7.333 
#    9.000    5.833    0.000    4.000    0.000    0.000 
#    0.000    0.000    0.000    0.000    0.000    0.000 
#
# Total GULP energy -268180.691909 kJ/mol
# GULP energy per Si atom -5587.097748 kJ/mol
# Density = 2.328732 g / cm^3
# Si number density = 23.340448 Si / 1000 Ang^3
#
#
#
# Elastic Constant Matrix: (Units=GPa)
#
#
# Indices 1 2 3 4 5 6 
#
# 1 28.4084 23.9264 26.3158 0.0000 0.0000 0.0000
# 2 23.9264 146.9627 40.9995 0.0000 0.0000 0.0000
# 3 26.3158 40.9995 82.5953 0.0000 0.0000 0.0000
# 4 0.0000 0.0000 0.0000 36.0441 0.0000 0.0000
# 5 0.0000 0.0000 0.0000 0.0000 30.3882 0.0000
# 6 0.0000 0.0000 0.0000 0.0000 0.0000 -26.4815
#
#
#
# Elastic Compliance Matrix: (Units=1/GPa)
#
#
# Indices 1 2 3 4 5 6 
#
# 1 0.052378 -0.004494 -0.014457 0.000000 0.000000 0.000000
# 2 -0.004494 0.008284 -0.002680 0.000000 0.000000 0.000000
# 3 -0.014457 -0.002680 0.018044 0.000000 0.000000 0.000000
# 4 0.000000 0.000000 0.000000 0.027744 0.000000 0.000000
# 5 0.000000 0.000000 0.000000 0.000000 0.032908 0.000000
# 6 0.000000 0.000000 0.000000 0.000000 0.000000 -0.037762
#
#
# Mechanical properties :
#
#
# Convention : Reuss Voigt Hill
#
# Bulk Modulus (GPa) = 28.21459 48.93885 38.57672
# Shear Modulus (GPa) = 31.91359 19.10515 25.50937
#
# Velocity S-wave (km/s) = 3.70172 2.86412 3.30953
# Velocity P-wave (km/s) = 5.51225 5.65248 5.58280
#
# Compressibility (1/GPa) = 0.03544265
#
# Stress axis : x y z
#
# Youngs Moduli (GPa) = 19.09181 120.71727 55.42032
#
# Poissons Ratio (x) = 0.54253 0.80124
# Poissons Ratio (y) = 0.08580 0.14853
# Poissons Ratio (z) = 0.27602 0.32354
#
# Static dielectric constant tensor:
#      x y z
#    x 1.843250 0.000000 0.000000 
#    y 0.000000 1.954860 0.000000 
#    z 0.000000 0.000000 1.870460 
# 
# From -- ./inp_files/35301.got.cif
#   From: 2010.05.17/outbox.cif.g08.bks.cpg/sg74_18_cif.got.tgz:35301.got - 2010.06.03 17:57:02.
