data_PCOD9539743
_publ_section_title
;
Structure prediction by ZEFSAII (Michael W. Deem and Ramdas Pophale) SiO2 
 PCOD9539743
Probable space group: I M M A
;
_chemical_formula_sum "Si O2"
_cell_formula_units_Z 48
_cell_length_a 24.637742
_cell_length_b 10.617846
_cell_length_c 8.892547
_cell_angle_alpha 90.000000
_cell_angle_beta 90.000000
_cell_angle_gamma 90.000000
_cell_volume 2326.288075
_symmetry_space_group_name_H-M "I M M A"
_symmetry_group_IT_number 74
_symmetry_cell_setting 'orthorhombic'
loop_
_space_group_symop_operation_xyz
x,y,z
-x,1/2-y,z
x,-y,-z
-x,1/2+y,-z
-x,-y,-z
x,1/2+y,-z
-x,y,z
x,1/2-y,z
1/2+x,1/2+y,1/2+z
1/2-x,-y,1/2+z
1/2+x,1/2-y,1/2-z
1/2-x,y,1/2-z
1/2-x,1/2-y,1/2-z
1/2+x,y,1/2-z
1/2-x,1/2+y,1/2+z
1/2+x,-y,1/2+z
loop_
_atom_site_type_symbol
_atom_site_label
_atom_site_fract_x
_atom_site_fract_y
_atom_site_fract_z
Si Si1 0.274045 0.250000 0.580950
Si Si2 0.937999 0.750000 0.813722
Si Si3 0.108670 0.999278 0.329778
Si Si4 0.401193 0.750000 0.356608
Si Si5 0.215937 0.500000 0.500000
O O1 0.250000 0.250000 0.750000
O O2 0.338559 0.250000 0.589820
O O3 0.251321 0.374854 0.501473
O O4 0.908371 0.625369 0.753900
O O5 0.000000 0.750000 0.760412
O O6 0.936282 0.750000 0.993713
O O7 0.085894 0.000000 0.500000
O O8 0.090927 0.875225 0.241682
O O9 0.173823 0.995608 0.359408
#
# Coordination Sequence:
#
# PCOD9539743 Si02
#       5
#     8   8  16   8   8
#     4  12  21  39  63 102 136 177 219 265 336 403
#     4  12  28  46  68 100 135 176 227 286 345 384
#     4  10  22  46  70  95 132 177 226 277 323 406
#     4  12  25  41  68 100 141 175 223 279 336 403
#     4  10  22  38  71  96 133 176 224 274 318 400
#
# _framework density 20.633728999999999
#
# number of rings (size 3 to 8) (size 9 to 14) (size 15 to 20)
#    1.000    0.000    3.333    3.000    4.667    3.333 
#    0.000    4.167    0.000    0.000    0.000    0.000 
#    0.000    0.000    0.000    0.000    0.000    0.000 
#
# Total GULP energy -134167.112499 kJ/mol
# GULP energy per Si atom -5590.296354 kJ/mol
# Density = 2.058677 g / cm^3
# Si number density = 20.633729 Si / 1000 Ang^3
#
#
#
# Elastic Constant Matrix: (Units=GPa)
#
#
# Indices 1 2 3 4 5 6 
#
# 1 56.6717 29.0973 3.3953 0.0000 0.0000 0.0000
# 2 29.0973 239.4012 78.1250 0.0000 0.0000 0.0000
# 3 3.3953 78.1250 108.7365 0.0000 0.0000 0.0000
# 4 0.0000 0.0000 0.0000 79.0932 0.0000 0.0000
# 5 0.0000 0.0000 0.0000 0.0000 12.5128 0.0000
# 6 0.0000 0.0000 0.0000 0.0000 0.0000 -13.9527
#
#
#
# Elastic Compliance Matrix: (Units=1/GPa)
#
#
# Indices 1 2 3 4 5 6 
#
# 1 0.018980 -0.002761 0.001391 0.000000 0.000000 0.000000
# 2 -0.002761 0.005858 -0.004123 0.000000 0.000000 0.000000
# 3 0.001391 -0.004123 0.012115 0.000000 0.000000 0.000000
# 4 0.000000 0.000000 0.000000 0.012643 0.000000 0.000000
# 5 0.000000 0.000000 0.000000 0.000000 0.079918 0.000000
# 6 0.000000 0.000000 0.000000 0.000000 0.000000 -0.071670
#
#
# Mechanical properties :
#
#
# Convention : Reuss Voigt Hill
#
# Bulk Modulus (GPa) = 38.50923 69.56050 54.03486
# Shear Modulus (GPa) = 64.52889 35.14344 49.83617
#
# Velocity S-wave (km/s) = 5.59834 4.13147 4.91988
# Velocity P-wave (km/s) = 7.77768 7.51957 7.64971
#
# Compressibility (1/GPa) = 0.02596780
#
# Stress axis : x y z
#
# Youngs Moduli (GPa) = 52.68814 170.70678 82.54120
#
# Poissons Ratio (x) = 0.47127 -0.11481
# Poissons Ratio (y) = 0.14546 0.34029
# Poissons Ratio (z) = -0.07328 0.70377
#
# Static dielectric constant tensor:
#      x y z
#    x 1.711260 0.000000 0.000000 
#    y 0.000000 1.674560 0.000000 
#    z 0.000000 0.000000 1.748070 
# 
# From -- ./inp_files/15704.got.cif
#   From: 2010.05.17/outbox.cif.g08.bks.cpg/sg74_8_cif.got.tgz:15704.got - 2010.06.03 17:57:02.
