data_PCOD9539498
_publ_section_title
;
Structure prediction by ZEFSAII (Michael W. Deem and Ramdas Pophale) SiO2 
 PCOD9539498
Probable space group: I M M A
;
_chemical_formula_sum "Si O2"
_cell_formula_units_Z 96
_cell_length_a 20.376109
_cell_length_b 13.806918
_cell_length_c 15.040653
_cell_angle_alpha 90.000000
_cell_angle_beta 90.000000
_cell_angle_gamma 90.000000
_cell_volume 4231.405952
_symmetry_space_group_name_H-M "I M M A"
_symmetry_group_IT_number 74
_symmetry_cell_setting 'orthorhombic'
loop_
_space_group_symop_operation_xyz
x,y,z
-x,1/2-y,z
x,-y,-z
-x,1/2+y,-z
-x,-y,-z
x,1/2+y,-z
-x,y,z
x,1/2-y,z
1/2+x,1/2+y,1/2+z
1/2-x,-y,1/2+z
1/2+x,1/2-y,1/2-z
1/2-x,y,1/2-z
1/2-x,1/2-y,1/2-z
1/2+x,y,1/2-z
1/2-x,1/2+y,1/2+z
1/2+x,-y,1/2+z
loop_
_atom_site_type_symbol
_atom_site_label
_atom_site_fract_x
_atom_site_fract_y
_atom_site_fract_z
Si Si1 0.923896 0.132414 0.145410
Si Si2 0.430716 0.364057 0.901354
Si Si3 0.842591 0.366366 0.972531
Si Si4 0.641267 0.637889 0.269747
Si Si5 0.318047 0.936895 0.786637
Si Si6 0.193675 0.866948 0.514115
O O1 0.924083 0.250000 0.145676
O O2 0.879839 0.098340 0.228384
O O3 0.000000 0.100631 0.148728
O O4 0.886870 0.099186 0.054882
O O5 0.500000 0.409692 0.926928
O O6 0.433448 0.250000 0.923439
O O7 0.421085 0.368287 0.795152
O O8 0.365565 0.398813 0.950410
O O9 0.842562 0.250000 0.980073
O O10 0.868273 0.385551 0.873194
O O11 0.766478 0.396758 0.982044
O O12 0.665786 0.750000 0.262533
O O13 0.684470 0.552443 0.228556
O O14 0.250000 0.893953 0.750000
O O15 0.321190 0.904522 0.887763
O O16 0.194633 0.750000 0.515297
#
# Coordination Sequence:
#
# PCOD9539498 Si02
#       6
#    16  16  16  16  16  16
#     4  10  22  42  68 100 135 169 213 271 334 401
#     4   9  20  40  65  94 129 171 217 266 322 387
#     4   9  19  39  66  93 126 171 218 268 328 389
#     4  10  24  43  64  92 130 177 225 273 327 382
#     4  12  25  40  63  98 133 176 220 272 327 390
#     4  10  21  39  66  94 127 169 215 269 329 391
#
# _framework density 22.687493
#
# number of rings (size 3 to 8) (size 9 to 14) (size 15 to 20)
#    0.000    2.000    1.667    0.500    2.333    4.333 
#    0.000    6.667    0.000    0.000    0.000    0.000 
#    0.000    0.000    0.000    0.000    0.000    0.000 
#
# Total GULP energy -268081.916682 kJ/mol
# GULP energy per Si atom -5585.039931 kJ/mol
# Density = 2.263586 g / cm^3
# Si number density = 22.687493 Si / 1000 Ang^3
#
#
#
# Elastic Constant Matrix: (Units=GPa)
#
#
# Indices 1 2 3 4 5 6 
#
# 1 202.9969 18.1742 95.5912 0.0000 0.0000 0.0000
# 2 18.1742 85.8256 16.7003 0.0000 0.0000 0.0000
# 3 95.5912 16.7003 173.0518 0.0000 0.0000 0.0000
# 4 0.0000 0.0000 0.0000 27.9046 0.0000 0.0000
# 5 0.0000 0.0000 0.0000 0.0000 -16.1559 0.0000
# 6 0.0000 0.0000 0.0000 0.0000 0.0000 -2.3714
#
#
#
# Elastic Compliance Matrix: (Units=1/GPa)
#
#
# Indices 1 2 3 4 5 6 
#
# 1 0.006700 -0.000712 -0.003633 0.000000 0.000000 0.000000
# 2 -0.000712 0.011950 -0.000760 0.000000 0.000000 0.000000
# 3 -0.003633 -0.000760 0.007859 0.000000 0.000000 0.000000
# 4 0.000000 0.000000 0.000000 0.035836 0.000000 0.000000
# 5 0.000000 0.000000 0.000000 0.000000 -0.061897 0.000000
# 6 0.000000 0.000000 0.000000 0.000000 0.000000 -0.421686
#
#
# Mechanical properties :
#
#
# Convention : Reuss Voigt Hill
#
# Bulk Modulus (GPa) = 61.34901 80.31174 70.83037
# Shear Modulus (GPa) = -12.32756 23.96937 5.82091
#
# Velocity S-wave (km/s) = -2.33354 3.25391 1.60351
# Velocity P-wave (km/s) = 4.45410 7.04225 5.89204
#
# Compressibility (1/GPa) = 0.01630018
#
# Stress axis : x y z
#
# Youngs Moduli (GPa) = 149.24270 83.68069 127.25061
#
# Poissons Ratio (x) = 0.05958 0.46224
# Poissons Ratio (y) = 0.10627 0.09670
# Poissons Ratio (z) = 0.54213 0.06359
#
# Static dielectric constant tensor:
#      x y z
#    x 1.838200 0.000000 0.000000 
#    y 0.000000 1.884300 0.000000 
#    z 0.000000 0.000000 1.820580 
# 
# From -- ./inp_files/35249.got.cif
#   From: 2010.05.17/outbox.cif.g08.bks.cpg/sg74_18_cif.got.tgz:35249.got - 2010.06.03 17:57:02.
