data_PCOD9539340
_publ_section_title
;
Structure prediction by ZEFSAII (Michael W. Deem and Ramdas Pophale) SiO2 
 PCOD9539340
Probable space group: I M M A
;
_chemical_formula_sum "Si O2"
_cell_formula_units_Z 96
_cell_length_a 8.724973
_cell_length_b 25.438896
_cell_length_c 24.134366
_cell_angle_alpha 90.000000
_cell_angle_beta 90.000000
_cell_angle_gamma 90.000000
_cell_volume 5356.711366
_symmetry_space_group_name_H-M "I M M A"
_symmetry_group_IT_number 74
_symmetry_cell_setting 'orthorhombic'
loop_
_space_group_symop_operation_xyz
x,y,z
-x,1/2-y,z
x,-y,-z
-x,1/2+y,-z
-x,-y,-z
x,1/2+y,-z
-x,y,z
x,1/2-y,z
1/2+x,1/2+y,1/2+z
1/2-x,-y,1/2+z
1/2+x,1/2-y,1/2-z
1/2-x,y,1/2-z
1/2-x,1/2-y,1/2-z
1/2+x,y,1/2-z
1/2-x,1/2+y,1/2+z
1/2+x,-y,1/2+z
loop_
_atom_site_type_symbol
_atom_site_label
_atom_site_fract_x
_atom_site_fract_y
_atom_site_fract_z
Si Si1 0.816337 0.187792 0.001409
Si Si2 0.183001 0.937370 0.810342
Si Si3 0.815806 0.250000 0.688556
Si Si4 0.816381 0.250000 0.188248
Si Si5 0.817085 0.346619 0.382098
Si Si6 0.317252 0.061295 0.689740
Si Si7 0.684025 0.650044 0.114085
O O1 0.776945 0.250000 0.999562
O O2 0.756146 0.160697 0.945734
O O3 0.000000 0.183493 0.005091
O O4 0.740917 0.162692 0.055671
O O5 0.250000 0.922835 0.750000
O O6 0.260182 0.901428 0.856586
O O7 0.000000 0.929393 0.810211
O O8 0.214070 0.999330 0.818871
O O9 0.750000 0.250000 0.750000
O O10 0.769328 0.301601 0.654183
O O11 0.000000 0.250000 0.692075
O O12 0.750000 0.250000 0.250000
O O13 0.756524 0.300865 0.155497
O O14 0.000000 0.250000 0.189497
O O15 0.000000 0.342960 0.379707
O O16 0.500000 0.068913 0.690348
O O17 0.250000 0.075917 0.750000
O O18 0.242164 0.097110 0.642915
O O19 0.500000 0.649914 0.109713
#
# Coordination Sequence:
#
# PCOD9539340 Si02
#       7
#    16  16   8   8  16  16  16
#     4  11  23  40  62  86 116 158 200 242 293 353
#     4  10  21  39  62  88 121 157 197 244 295 355
#     4  10  22  35  52  81 116 151 187 233 289 344
#     4  12  24  39  58  85 120 155 193 239 295 352
#     4  12  24  39  61  88 119 154 196 244 294 352
#     4  10  21  38  61  89 120 157 199 244 297 353
#     4  11  22  38  59  85 119 156 198 245 294 351
#
# _framework density 17.921444000000001
#
# number of rings (size 3 to 8) (size 9 to 14) (size 15 to 20)
#    0.000    1.167    1.667    5.250    0.000    5.333 
#    0.000    0.833    0.000    5.000    0.000    0.000 
#    0.000    0.000    0.000    0.000    0.000    0.000 
#
# Total GULP energy -268463.201832 kJ/mol
# GULP energy per Si atom -5592.983371 kJ/mol
# Density = 1.788065 g / cm^3
# Si number density = 17.921444 Si / 1000 Ang^3
#
#
#
# Elastic Constant Matrix: (Units=GPa)
#
#
# Indices 1 2 3 4 5 6 
#
# 1 109.3856 60.6686 75.8189 0.0000 0.0000 0.0000
# 2 60.6686 84.4282 78.9188 0.0000 0.0000 0.0000
# 3 75.8189 78.9188 185.0921 0.0000 0.0000 0.0000
# 4 0.0000 0.0000 0.0000 8.0328 0.0000 0.0000
# 5 0.0000 0.0000 0.0000 0.0000 39.1136 0.0000
# 6 0.0000 0.0000 0.0000 0.0000 0.0000 25.1215
#
#
#
# Elastic Compliance Matrix: (Units=1/GPa)
#
#
# Indices 1 2 3 4 5 6 
#
# 1 0.015997 -0.008929 -0.002746 0.000000 0.000000 0.000000
# 2 -0.008929 0.024676 -0.006864 0.000000 0.000000 0.000000
# 3 -0.002746 -0.006864 0.009454 0.000000 0.000000 0.000000
# 4 0.000000 0.000000 0.000000 0.124490 0.000000 0.000000
# 5 0.000000 0.000000 0.000000 0.000000 0.025567 0.000000
# 6 0.000000 0.000000 0.000000 0.000000 0.000000 0.039807
#
#
# Mechanical properties :
#
#
# Convention : Reuss Voigt Hill
#
# Bulk Modulus (GPa) = 76.62411 89.96873 83.29642
# Shear Modulus (GPa) = 17.76710 25.35355 21.56033
#
# Velocity S-wave (km/s) = 3.15205 3.76534 3.47226
# Velocity P-wave (km/s) = 7.48970 8.31952 7.91549
#
# Compressibility (1/GPa) = 0.01305072
#
# Stress axis : x y z
#
# Youngs Moduli (GPa) = 62.50997 40.52442 105.77265
#
# Poissons Ratio (x) = 0.36183 0.29046
# Poissons Ratio (y) = 0.55813 0.72603
# Poissons Ratio (z) = 0.17166 0.27816
#
# Static dielectric constant tensor:
#      x y z
#    x 1.597660 0.000000 0.000000 
#    y 0.000000 1.606270 0.000000 
#    z 0.000000 0.000000 1.572420 
# 
# From -- ./inp_files/57338.got.cif
#   From: 2010.05.17/outbox.cif.g08.bks.cpg/sg74_29_cif.got.tgz:57338.got - 2010.06.03 17:57:02.
