data_PCOD9539741
_publ_section_title
;
Structure prediction by ZEFSAII (Michael W. Deem and Ramdas Pophale) SiO2 
 PCOD9539741
Probable space group: I M M A
;
_chemical_formula_sum "Si O2"
_cell_formula_units_Z 72
_cell_length_a 25.018746
_cell_length_b 25.095665
_cell_length_c 5.080667
_cell_angle_alpha 90.000000
_cell_angle_beta 90.000000
_cell_angle_gamma 90.000000
_cell_volume 3189.958091
_symmetry_space_group_name_H-M "I M M A"
_symmetry_group_IT_number 74
_symmetry_cell_setting 'orthorhombic'
loop_
_space_group_symop_operation_xyz
x,y,z
-x,1/2-y,z
x,-y,-z
-x,1/2+y,-z
-x,-y,-z
x,1/2+y,-z
-x,y,z
x,1/2-y,z
1/2+x,1/2+y,1/2+z
1/2-x,-y,1/2+z
1/2+x,1/2-y,1/2-z
1/2-x,y,1/2-z
1/2-x,1/2-y,1/2-z
1/2+x,y,1/2-z
1/2-x,1/2+y,1/2+z
1/2+x,-y,1/2+z
loop_
_atom_site_type_symbol
_atom_site_label
_atom_site_fract_x
_atom_site_fract_y
_atom_site_fract_z
Si Si1 0.938258 0.335065 0.906062
Si Si2 0.129470 0.809361 0.596404
Si Si3 0.351140 0.000000 0.000000
Si Si4 0.942844 0.552396 0.828586
Si Si5 0.715132 0.901067 0.009596
O O1 0.915860 0.323105 0.618960
O O2 0.000000 0.318273 0.931320
O O3 0.899321 0.309846 0.121793
O O4 0.935735 0.397566 0.980970
O O5 0.150855 0.750000 0.544027
O O6 0.173401 0.855393 0.573659
O O7 0.391267 0.961483 0.840602
O O8 0.312939 0.045103 0.877849
O O9 0.000000 0.560652 0.681164
O O10 0.947962 0.500000 0.000000
O O11 0.750000 0.879373 0.250000
O O12 0.750000 0.914556 0.750000
#
# Coordination Sequence:
#
# PCOD9539741 Si02
#       5
#    16  16   8  16  16
#     4  11  24  44  70 108 148 185 228 281 349 431
#     4  12  26  47  73 101 140 188 237 295 352 411
#     4  12  23  42  72  96 142 176 221 288 348 416
#     4  10  22  38  66 103 143 186 222 268 343 431
#     4  12  28  47  70 100 136 180 240 294 352 405
#
# _framework density 22.570829
#
# number of rings (size 3 to 8) (size 9 to 14) (size 15 to 20)
#    0.000    0.667    2.222    5.000    3.111    3.556 
#    0.000    0.000    0.000    0.000    0.000    0.000 
#    0.000    0.000    0.000    0.000    0.000    0.000 
#
# Total GULP energy -201260.346490 kJ/mol
# GULP energy per Si atom -5590.565180 kJ/mol
# Density = 2.251946 g / cm^3
# Si number density = 22.570829 Si / 1000 Ang^3
#
#
#
# Elastic Constant Matrix: (Units=GPa)
#
#
# Indices 1 2 3 4 5 6 
#
# 1 93.0408 19.5471 11.1591 0.0000 0.0000 0.0000
# 2 19.5471 142.5347 -25.0753 0.0000 0.0000 0.0000
# 3 11.1591 -25.0753 35.2943 0.0000 0.0000 0.0000
# 4 0.0000 0.0000 0.0000 20.1439 0.0000 0.0000
# 5 0.0000 0.0000 0.0000 0.0000 66.4666 0.0000
# 6 0.0000 0.0000 0.0000 0.0000 0.0000 26.9027
#
#
#
# Elastic Compliance Matrix: (Units=1/GPa)
#
#
# Indices 1 2 3 4 5 6 
#
# 1 0.011982 -0.002640 -0.005664 0.000000 0.000000 0.000000
# 2 -0.002640 0.008599 0.006944 0.000000 0.000000 0.000000
# 3 -0.005664 0.006944 0.035057 0.000000 0.000000 0.000000
# 4 0.000000 0.000000 0.000000 0.049643 0.000000 0.000000
# 5 0.000000 0.000000 0.000000 0.000000 0.015045 0.000000
# 6 0.000000 0.000000 0.000000 0.000000 0.000000 0.037171
#
#
# Mechanical properties :
#
#
# Convention : Reuss Voigt Hill
#
# Bulk Modulus (GPa) = 18.89621 31.34796 25.12209
# Shear Modulus (GPa) = 28.11265 40.38523 34.24894
#
# Velocity S-wave (km/s) = 3.53304 4.23456 3.89961
# Velocity P-wave (km/s) = 5.00332 6.15041 5.60628
#
# Compressibility (1/GPa) = 0.05292066
#
# Stress axis : x y z
#
# Youngs Moduli (GPa) = 83.45985 116.28628 28.52463
#
# Poissons Ratio (x) = 0.30694 0.16155
# Poissons Ratio (y) = 0.22030 -0.19808
# Poissons Ratio (z) = 0.47269 -0.80751
#
# Static dielectric constant tensor:
#      x y z
#    x 1.936730 0.000000 0.000000 
#    y 0.000000 1.851730 0.000000 
#    z 0.000000 0.000000 1.750970 
# 
# From -- ./inp_files/3758.got.cif
#   From: 2010.05.17/outbox.cif.g08.bks.cpg/sg74_2_cif.got.tgz:3758.got - 2010.06.03 17:57:02.
