data_PCOD9539341
_publ_section_title
;
Structure prediction by ZEFSAII (Michael W. Deem and Ramdas Pophale) SiO2 
 PCOD9539341
Probable space group: I M M A
;
_chemical_formula_sum "Si O2"
_cell_formula_units_Z 48
_cell_length_a 10.592189
_cell_length_b 14.191021
_cell_length_c 13.277160
_cell_angle_alpha 90.000000
_cell_angle_beta 90.000000
_cell_angle_gamma 90.000000
_cell_volume 1995.742717
_symmetry_space_group_name_H-M "I M M A"
_symmetry_group_IT_number 74
_symmetry_cell_setting 'orthorhombic'
loop_
_space_group_symop_operation_xyz
x,y,z
-x,1/2-y,z
x,-y,-z
-x,1/2+y,-z
-x,-y,-z
x,1/2+y,-z
-x,y,z
x,1/2-y,z
1/2+x,1/2+y,1/2+z
1/2-x,-y,1/2+z
1/2+x,1/2-y,1/2-z
1/2-x,y,1/2-z
1/2-x,1/2-y,1/2-z
1/2+x,y,1/2-z
1/2-x,1/2+y,1/2+z
1/2+x,-y,1/2+z
loop_
_atom_site_type_symbol
_atom_site_label
_atom_site_fract_x
_atom_site_fract_y
_atom_site_fract_z
Si Si1 0.869300 0.597503 0.789350
Si Si2 0.354426 0.896095 0.176393
Si Si3 0.857772 0.636191 0.018662
O O1 0.750000 0.650755 0.750000
O O2 0.869638 0.499299 0.727212
O O3 0.000000 0.645678 0.767960
O O4 0.859928 0.587849 0.909300
O O5 0.500000 0.860532 0.166907
O O6 0.250000 0.848067 0.250000
O O7 0.270202 0.894528 0.075403
O O8 0.852169 0.750000 0.006828
O O9 0.000000 0.617384 0.065400
#
# Coordination Sequence:
#
# PCOD9539341 Si02
#       3
#    16  16  16
#     4   9  20  38  60  88 121 159 203 249 300 359
#     4  10  21  38  61  89 122 159 202 251 300 358
#     4  10  22  41  63  88 122 162 202 248 304 363
#
# _framework density 24.051196000000001
#
# number of rings (size 3 to 8) (size 9 to 14) (size 15 to 20)
#    0.000    2.333    0.000    1.000    0.000   10.000 
#    0.000   23.333    0.000    0.000    0.000    0.000 
#    0.000    0.000    0.000    0.000    0.000    0.000 
#
# Total GULP energy -133621.006170 kJ/mol
# GULP energy per Si atom -5567.541924 kJ/mol
# Density = 2.399645 g / cm^3
# Si number density = 24.051196 Si / 1000 Ang^3
#
#
#
# Elastic Constant Matrix: (Units=GPa)
#
#
# Indices 1 2 3 4 5 6 
#
# 1 348.2655 36.1558 90.9492 0.0000 0.0000 0.0000
# 2 36.1558 152.2535 33.7035 0.0000 0.0000 0.0000
# 3 90.9492 33.7035 92.7523 0.0000 0.0000 0.0000
# 4 0.0000 0.0000 0.0000 163.2302 0.0000 0.0000
# 5 0.0000 0.0000 0.0000 0.0000 42.6518 0.0000
# 6 0.0000 0.0000 0.0000 0.0000 0.0000 76.4525
#
#
#
# Elastic Compliance Matrix: (Units=1/GPa)
#
#
# Indices 1 2 3 4 5 6 
#
# 1 0.003861 -0.000086 -0.003755 0.000000 0.000000 0.000000
# 2 -0.000086 0.007144 -0.002512 0.000000 0.000000 0.000000
# 3 -0.003755 -0.002512 0.015376 0.000000 0.000000 0.000000
# 4 0.000000 0.000000 0.000000 0.006126 0.000000 0.000000
# 5 0.000000 0.000000 0.000000 0.000000 0.023446 0.000000
# 6 0.000000 0.000000 0.000000 0.000000 0.000000 0.013080
#
#
# Mechanical properties :
#
#
# Convention : Reuss Voigt Hill
#
# Bulk Modulus (GPa) = 73.11895 101.65427 87.38661
# Shear Modulus (GPa) = 57.93980 85.29775 71.61877
#
# Velocity S-wave (km/s) = 4.91350 5.96172 5.46281
# Velocity P-wave (km/s) = 7.91564 9.47349 8.72939
#
# Compressibility (1/GPa) = 0.01367635
#
# Stress axis : x y z
#
# Youngs Moduli (GPa) = 259.01530 139.96934 65.03722
#
# Poissons Ratio (x) = 0.01199 0.24419
# Poissons Ratio (y) = 0.02219 0.16338
# Poissons Ratio (z) = 0.97250 0.35161
#
# Static dielectric constant tensor:
#      x y z
#    x 2.025700 0.000000 0.000000 
#    y 0.000000 1.942470 0.000000 
#    z 0.000000 0.000000 1.993700 
# 
# From -- ./inp_files/18152.got.cif
#   From: 2010.05.17/outbox.cif.g08.bks.cpg/sg74_10_cif.got.tgz:18152.got - 2010.06.03 17:57:02.
