data_PCOD9539332
_publ_section_title
;
Structure prediction by ZEFSAII (Michael W. Deem and Ramdas Pophale) SiO2 
 PCOD9539332
Probable space group: I M M A
;
_chemical_formula_sum "Si O2"
_cell_formula_units_Z 104
_cell_length_a 9.182355
_cell_length_b 21.623415
_cell_length_c 27.038896
_cell_angle_alpha 90.000000
_cell_angle_beta 90.000000
_cell_angle_gamma 90.000000
_cell_volume 5368.677518
_symmetry_space_group_name_H-M "I M M A"
_symmetry_group_IT_number 74
_symmetry_cell_setting 'orthorhombic'
loop_
_space_group_symop_operation_xyz
x,y,z
-x,1/2-y,z
x,-y,-z
-x,1/2+y,-z
-x,-y,-z
x,1/2+y,-z
-x,y,z
x,1/2-y,z
1/2+x,1/2+y,1/2+z
1/2-x,-y,1/2+z
1/2+x,1/2-y,1/2-z
1/2-x,y,1/2-z
1/2-x,1/2-y,1/2-z
1/2+x,y,1/2-z
1/2-x,1/2+y,1/2+z
1/2+x,-y,1/2+z
loop_
_atom_site_type_symbol
_atom_site_label
_atom_site_fract_x
_atom_site_fract_y
_atom_site_fract_z
Si Si1 0.168294 0.650483 0.134903
Si Si2 0.169561 0.676268 0.801564
Si Si3 0.173819 0.821780 0.019509
Si Si4 0.326914 0.075394 0.144304
Si Si5 0.329304 0.467546 0.700492
Si Si6 0.325717 0.561331 0.970247
Si Si7 0.829344 0.250000 0.697893
O O1 0.197274 0.660679 0.077162
O O2 0.181299 0.581503 0.155833
O O3 0.276589 0.691601 0.166551
O O4 0.000000 0.670256 0.143778
O O5 0.176341 0.750000 0.808107
O O6 0.250000 0.661332 0.750000
O O7 0.253381 0.641123 0.844851
O O8 0.000000 0.657914 0.799428
O O9 0.220190 0.750000 0.011275
O O10 0.000000 0.824354 0.010433
O O11 0.252331 0.875202 0.988502
O O12 0.500000 0.077874 0.152074
O O13 0.298853 0.054205 0.088198
O O14 0.251894 0.028757 0.182527
O O15 0.500000 0.478282 0.710592
O O16 0.250000 0.443737 0.750000
O O17 0.500000 0.566617 0.977740
O O18 0.275603 0.500000 0.000000
O O19 0.750000 0.250000 0.750000
O O20 0.000000 0.250000 0.705410
#
# Coordination Sequence:
#
# PCOD9539332 Si02
#       7
#    16  16  16  16  16  16   8
#     4  10  21  40  61  84 119 157 198 246 295 348
#     4  10  21  38  61  88 119 154 193 238 288 354
#     4  10  21  39  64  91 122 158 199 252 306 359
#     4  11  23  39  60  85 118 156 194 246 299 354
#     4  11  23  38  60  87 118 158 199 245 296 354
#     4  10  23  42  62  87 120 157 201 254 305 358
#     4  12  24  36  56  84 116 156 198 244 293 346
#
# _framework density 19.371624000000001
#
# number of rings (size 3 to 8) (size 9 to 14) (size 15 to 20)
#    0.000    1.538    0.769    3.923    0.000    6.462 
#    0.000    3.077    0.000    0.000    0.000    0.000 
#    0.000    0.000    0.000    0.000    0.000    0.000 
#
# Total GULP energy -290551.434756 kJ/mol
# GULP energy per Si atom -5587.527591 kJ/mol
# Density = 1.932753 g / cm^3
# Si number density = 19.371624 Si / 1000 Ang^3
#
#
#
# Elastic Constant Matrix: (Units=GPa)
#
#
# Indices 1 2 3 4 5 6 
#
# 1 88.5896 33.6070 33.8265 0.0000 0.0000 0.0000
# 2 33.6070 85.8529 26.5177 0.0000 0.0000 0.0000
# 3 33.8265 26.5177 43.8047 0.0000 0.0000 0.0000
# 4 0.0000 0.0000 0.0000 6.6674 0.0000 0.0000
# 5 0.0000 0.0000 0.0000 0.0000 31.8442 0.0000
# 6 0.0000 0.0000 0.0000 0.0000 0.0000 23.9256
#
#
#
# Elastic Compliance Matrix: (Units=1/GPa)
#
#
# Indices 1 2 3 4 5 6 
#
# 1 0.016667 -0.003135 -0.010973 0.000000 0.000000 0.000000
# 2 -0.003135 0.014916 -0.006609 0.000000 0.000000 0.000000
# 3 -0.010973 -0.006609 0.035302 0.000000 0.000000 0.000000
# 4 0.000000 0.000000 0.000000 0.149982 0.000000 0.000000
# 5 0.000000 0.000000 0.000000 0.000000 0.031403 0.000000
# 6 0.000000 0.000000 0.000000 0.000000 0.000000 0.041796
#
#
# Mechanical properties :
#
#
# Convention : Reuss Voigt Hill
#
# Bulk Modulus (GPa) = 39.28840 45.12772 42.20806
# Shear Modulus (GPa) = 14.70654 20.77385 17.74020
#
# Velocity S-wave (km/s) = 2.75831 3.27828 3.02947
# Velocity P-wave (km/s) = 5.51995 6.13807 5.83719
#
# Compressibility (1/GPa) = 0.02545280
#
# Stress axis : x y z
#
# Youngs Moduli (GPa) = 59.99865 67.04041 28.32665
#
# Poissons Ratio (x) = 0.21018 0.31082
# Poissons Ratio (y) = 0.18810 0.18721
# Poissons Ratio (z) = 0.65834 0.44306
#
# Static dielectric constant tensor:
#      x y z
#    x 1.655320 0.000000 0.000000 
#    y 0.000000 1.694070 0.000000 
#    z 0.000000 0.000000 1.677470 
# 
# From -- ./inp_files/64486.got.cif
#   From: 2010.05.17/outbox.cif.g08.bks.cpg/sg74_33_cif.got.tgz:64486.got - 2010.06.03 17:57:02.
