data_PCOD9539224
_publ_section_title
;
Structure prediction by ZEFSAII (Michael W. Deem and Ramdas Pophale) SiO2 
 PCOD9539224
Probable space group: I M M A
;
_chemical_formula_sum "Si O2"
_cell_formula_units_Z 116
_cell_length_a 29.073874
_cell_length_b 15.918497
_cell_length_c 12.732063
_cell_angle_alpha 90.000000
_cell_angle_beta 90.000000
_cell_angle_gamma 90.000000
_cell_volume 5892.556329
_symmetry_space_group_name_H-M "I M M A"
_symmetry_group_IT_number 74
_symmetry_cell_setting 'orthorhombic'
loop_
_space_group_symop_operation_xyz
x,y,z
-x,1/2-y,z
x,-y,-z
-x,1/2+y,-z
-x,-y,-z
x,1/2+y,-z
-x,y,z
x,1/2-y,z
1/2+x,1/2+y,1/2+z
1/2-x,-y,1/2+z
1/2+x,1/2-y,1/2-z
1/2-x,y,1/2-z
1/2-x,1/2-y,1/2-z
1/2+x,y,1/2-z
1/2-x,1/2+y,1/2+z
1/2+x,-y,1/2+z
loop_
_atom_site_type_symbol
_atom_site_label
_atom_site_fract_x
_atom_site_fract_y
_atom_site_fract_z
Si Si1 0.052438 0.845947 0.026524
Si Si2 0.202971 0.400040 0.693767
Si Si3 0.335543 0.153752 0.015082
Si Si4 0.898244 0.102234 0.767152
Si Si5 0.870582 0.945802 0.902224
Si Si6 0.000000 0.750000 0.506524
Si Si7 0.198373 0.399290 0.263764
Si Si8 0.433487 0.591927 0.036404
O O1 0.050815 0.750000 0.990955
O O2 0.074784 0.848836 0.142387
O O3 0.000000 0.879085 0.028342
O O4 0.087040 0.896132 0.952177
O O5 0.250000 0.370446 0.750000
O O6 0.201278 0.379043 0.570290
O O7 0.153908 0.366812 0.740363
O O8 0.200680 0.500655 0.709925
O O9 0.345424 0.250000 0.987603
O O10 0.321330 0.145795 0.134897
O O11 0.381283 0.099678 0.002762
O O12 0.928440 0.098020 0.662469
O O13 0.890674 0.010293 0.816875
O O14 0.832646 0.892209 0.840586
O O15 0.850143 0.000000 0.000000
O O16 0.039235 0.673820 0.502361
O O17 0.250000 0.369211 0.250000
O O18 0.450331 0.500000 0.000000
#
# Coordination Sequence:
#
# PCOD9539224 Si02
#       8
#    16  16  16  16  16   4  16  16
#     4  10  22  37  58  82 115 156 202 260 320 368
#     4   9  19  37  60  88 120 161 211 256 308 379
#     4  11  22  38  60  87 129 168 201 257 315 379
#     4   9  20  35  62  88 116 160 205 253 311 371
#     4   9  19  38  57  84 117 151 202 258 307 376
#     4  12  26  40  64  98 122 158 208 272 302 386
#     4  10  21  37  62  88 115 160 211 255 314 378
#     4  11  23  43  65  91 129 166 207 253 319 378
#
# _framework density 19.685853000000002
#
# number of rings (size 3 to 8) (size 9 to 14) (size 15 to 20)
#    0.000    2.069    0.690    3.103    1.931    8.552 
#    0.000    1.379    1.517    0.000    0.000    0.000 
#    0.000    0.000    0.000    0.000    0.000    0.000 
#
# Total GULP energy -322939.594260 kJ/mol
# GULP energy per Si atom -5567.924039 kJ/mol
# Density = 1.964105 g / cm^3
# Si number density = 19.685853 Si / 1000 Ang^3
#
#
#
# Elastic Constant Matrix: (Units=GPa)
#
#
# Indices 1 2 3 4 5 6 
#
# 1 112.7208 33.8431 57.1622 0.0000 0.0000 0.0000
# 2 33.8431 79.3916 17.0240 0.0000 0.0000 0.0000
# 3 57.1622 17.0240 93.4792 0.0000 0.0000 0.0000
# 4 0.0000 0.0000 0.0000 9.3264 0.0000 0.0000
# 5 0.0000 0.0000 0.0000 0.0000 -4.0286 0.0000
# 6 0.0000 0.0000 0.0000 0.0000 0.0000 81.1168
#
#
#
# Elastic Compliance Matrix: (Units=1/GPa)
#
#
# Indices 1 2 3 4 5 6 
#
# 1 0.014171 -0.004353 -0.007873 0.000000 0.000000 0.000000
# 2 -0.004353 0.014445 0.000031 0.000000 0.000000 0.000000
# 3 -0.007873 0.000031 0.015506 0.000000 0.000000 0.000000
# 4 0.000000 0.000000 0.000000 0.107223 0.000000 0.000000
# 5 0.000000 0.000000 0.000000 0.000000 -0.248223 0.000000
# 6 0.000000 0.000000 0.000000 0.000000 0.000000 0.012328
#
#
# Mechanical properties :
#
#
# Convention : Reuss Voigt Hill
#
# Bulk Modulus (GPa) = 50.67697 55.73891 53.20794
# Shear Modulus (GPa) = -93.30904 29.12039 -32.09432
#
# Velocity S-wave (km/s) = -6.89216 3.85028 -4.04211
# Velocity P-wave (km/s) = 6.12676 6.93844 2.30268
#
# Compressibility (1/GPa) = 0.01973283
#
# Stress axis : x y z
#
# Youngs Moduli (GPa) = 70.56883 69.23035 64.49117
#
# Poissons Ratio (x) = 0.30133 0.50771
# Poissons Ratio (y) = 0.30715 -0.00200
# Poissons Ratio (z) = 0.55556 -0.00214
#
# Static dielectric constant tensor:
#      x y z
#    x 1.713740 0.000000 0.000000 
#    y 0.000000 1.709180 0.000000 
#    z 0.000000 0.000000 1.701400 
# 
# From -- ./inp_files/27354.got.cif
#   From: 2010.05.17/outbox.cif.g08.bks.cpg/sg74_14_cif.got.tgz:27354.got - 2010.06.03 17:57:02.
