data_PCOD9539439
_publ_section_title
;
Structure prediction by ZEFSAII (Michael W. Deem and Ramdas Pophale) SiO2 
 PCOD9539439
Probable space group: I M M A
;
_chemical_formula_sum "Si O2"
_cell_formula_units_Z 100
_cell_length_a 8.800713
_cell_length_b 23.772980
_cell_length_c 23.480469
_cell_angle_alpha 90.000000
_cell_angle_beta 90.000000
_cell_angle_gamma 90.000000
_cell_volume 4912.564332
_symmetry_space_group_name_H-M "I M M A"
_symmetry_group_IT_number 74
_symmetry_cell_setting 'orthorhombic'
loop_
_space_group_symop_operation_xyz
x,y,z
-x,1/2-y,z
x,-y,-z
-x,1/2+y,-z
-x,-y,-z
x,1/2+y,-z
-x,y,z
x,1/2-y,z
1/2+x,1/2+y,1/2+z
1/2-x,-y,1/2+z
1/2+x,1/2-y,1/2-z
1/2-x,y,1/2-z
1/2-x,1/2-y,1/2-z
1/2+x,y,1/2-z
1/2-x,1/2+y,1/2+z
1/2+x,-y,1/2+z
loop_
_atom_site_type_symbol
_atom_site_label
_atom_site_fract_x
_atom_site_fract_y
_atom_site_fract_z
Si Si1 0.183382 0.524027 0.120336
Si Si2 0.177800 0.083052 0.514199
Si Si3 0.819884 0.417698 0.312828
Si Si4 0.678283 0.364196 0.689614
Si Si5 0.667187 0.136830 0.407884
Si Si6 0.500000 0.750000 0.563689
Si Si7 0.822941 0.186131 0.926702
O O1 0.251809 0.537519 0.057794
O O2 0.250566 0.470533 0.152638
O O3 0.228421 0.577543 0.159943
O O4 0.000000 0.522606 0.116367
O O5 0.264895 0.095362 0.455508
O O6 0.207901 0.142841 0.545629
O O7 0.000000 0.072572 0.505107
O O8 0.750000 0.414632 0.250000
O O9 0.772229 0.365108 0.352463
O O10 0.000000 0.423226 0.309083
O O11 0.500000 0.369898 0.699090
O O12 0.750000 0.352782 0.750000
O O13 0.700793 0.317706 0.640970
O O14 0.500000 0.115132 0.390462
O O15 0.630333 0.198996 0.431818
O O16 0.812606 0.250000 0.946507
O O17 0.000000 0.167502 0.937711
#
# Coordination Sequence:
#
# PCOD9539439 Si02
#       7
#    16  16  16  16  16   4  16
#     4  10  21  39  61  91 126 173 215 257 320 379
#     4  11  22  36  58  94 133 164 207 266 324 391
#     4  12  25  43  69 100 135 172 216 271 325 397
#     4   9  18  31  48  72 106 147 198 250 303 367
#     4  10  22  44  69  96 125 170 215 266 326 390
#     4   8  24  44  76  94 130 168 224 270 338 398
#     4   9  19  34  51  71 103 154 208 256 312 380
#
# _framework density 20.355965999999999
#
# number of rings (size 3 to 8) (size 9 to 14) (size 15 to 20)
#    0.480    1.440    0.000    5.280    1.120    5.760 
#    0.000    4.800    0.000    0.000    0.000    0.000 
#    0.000    0.000    0.000    0.000    0.000    0.000 
#
# Total GULP energy -278593.253709 kJ/mol
# GULP energy per Si atom -5571.865074 kJ/mol
# Density = 2.030964 g / cm^3
# Si number density = 20.355966 Si / 1000 Ang^3
#
#
#
# Elastic Constant Matrix: (Units=GPa)
#
#
# Indices 1 2 3 4 5 6 
#
# 1 96.8830 16.7161 36.7806 0.0000 0.0000 0.0000
# 2 16.7161 76.7406 20.4450 0.0000 0.0000 0.0000
# 3 36.7806 20.4450 125.2820 0.0000 0.0000 0.0000
# 4 0.0000 0.0000 0.0000 14.1078 0.0000 0.0000
# 5 0.0000 0.0000 0.0000 0.0000 35.0677 0.0000
# 6 0.0000 0.0000 0.0000 0.0000 0.0000 30.0631
#
#
#
# Elastic Compliance Matrix: (Units=1/GPa)
#
#
# Indices 1 2 3 4 5 6 
#
# 1 0.011831 -0.001727 -0.003192 0.000000 0.000000 0.000000
# 2 -0.001727 0.013875 -0.001757 0.000000 0.000000 0.000000
# 3 -0.003192 -0.001757 0.009206 0.000000 0.000000 0.000000
# 4 0.000000 0.000000 0.000000 0.070883 0.000000 0.000000
# 5 0.000000 0.000000 0.000000 0.000000 0.028516 0.000000
# 6 0.000000 0.000000 0.000000 0.000000 0.000000 0.033263
#
#
# Mechanical properties :
#
#
# Convention : Reuss Voigt Hill
#
# Bulk Modulus (GPa) = 46.38083 49.64324 48.01203
# Shear Modulus (GPa) = 26.57970 30.84533 28.71252
#
# Velocity S-wave (km/s) = 3.61743 3.89690 3.75976
# Velocity P-wave (km/s) = 6.34682 6.68493 6.51807
#
# Compressibility (1/GPa) = 0.02156063
#
# Stress axis : x y z
#
# Youngs Moduli (GPa) = 84.52118 72.07077 108.62728
#
# Poissons Ratio (x) = 0.12446 0.34670
# Poissons Ratio (y) = 0.14596 0.19090
# Poissons Ratio (z) = 0.26976 0.12665
#
# Static dielectric constant tensor:
#      x y z
#    x 1.704700 0.000000 0.000000 
#    y 0.000000 1.763810 0.000000 
#    z 0.000000 0.000000 1.763300 
# 
# From -- ./inp_files/49355.got.cif
#   From: 2010.05.17/outbox.cif.g08.bks.cpg/sg74_25_cif.got.tgz:49355.got - 2010.06.03 17:57:02.
