data_PCOD9539725
_publ_section_title
;
Structure prediction by ZEFSAII (Michael W. Deem and Ramdas Pophale) SiO2 
 PCOD9539725
Probable space group: I M M A
;
_chemical_formula_sum "Si O2"
_cell_formula_units_Z 96
_cell_length_a 19.138405
_cell_length_b 22.698393
_cell_length_c 12.379891
_cell_angle_alpha 90.000000
_cell_angle_beta 90.000000
_cell_angle_gamma 90.000000
_cell_volume 5377.961301
_symmetry_space_group_name_H-M "I M M A"
_symmetry_group_IT_number 74
_symmetry_cell_setting 'orthorhombic'
loop_
_space_group_symop_operation_xyz
x,y,z
-x,1/2-y,z
x,-y,-z
-x,1/2+y,-z
-x,-y,-z
x,1/2+y,-z
-x,y,z
x,1/2-y,z
1/2+x,1/2+y,1/2+z
1/2-x,-y,1/2+z
1/2+x,1/2-y,1/2-z
1/2-x,y,1/2-z
1/2-x,1/2-y,1/2-z
1/2+x,y,1/2-z
1/2-x,1/2+y,1/2+z
1/2+x,-y,1/2+z
loop_
_atom_site_type_symbol
_atom_site_label
_atom_site_fract_x
_atom_site_fract_y
_atom_site_fract_z
Si Si1 0.080480 0.373368 0.856152
Si Si2 0.179962 0.933296 0.979565
Si Si3 0.667231 0.942656 0.762714
Si Si4 0.171371 0.625584 0.527498
Si Si5 0.311963 0.250000 0.917627
Si Si6 0.653592 0.250000 0.663442
Si Si7 0.082110 0.053039 0.640707
O O1 0.112642 0.308888 0.865843
O O2 0.086008 0.397681 0.734536
O O3 0.000000 0.373256 0.887204
O O4 0.123983 0.416571 0.931509
O O5 0.147363 0.928274 0.860100
O O6 0.248289 0.893280 0.992090
O O7 0.203495 0.000000 0.000000
O O8 0.750000 0.958401 0.750000
O O9 0.623779 0.996478 0.813600
O O10 0.660390 0.888149 0.845630
O O11 0.164396 0.691615 0.482323
O O12 0.121004 0.581311 0.461684
O O13 0.338901 0.250000 0.794020
O O14 0.228219 0.250000 0.897068
O O15 0.000000 0.039959 0.620950
#
# Coordination Sequence:
#
# PCOD9539725 Si02
#       7
#    16  16  16  16   8   8  16
#     4  11  23  37  60  92 124 155 194 245 297 353
#     4  11  21  38  61  87 122 157 199 243 293 356
#     4  10  22  38  60  88 121 162 194 242 300 355
#     4  11  22  39  59  88 120 152 204 249 299 347
#     4  11  22  36  64  88 112 154 198 258 288 353
#     4  11  21  40  61  87 120 154 200 240 305 350
#     4  11  23  38  61  92 124 157 194 245 304 359
#
# _framework density 17.850629999999999
#
# number of rings (size 3 to 8) (size 9 to 14) (size 15 to 20)
#    0.000    1.167    5.000    2.750    0.000    2.333 
#    0.000    5.000    0.000    0.000    0.000    0.000 
#    0.000    0.000    0.000    0.000    0.000    0.000 
#
# Total GULP energy -267965.461266 kJ/mol
# GULP energy per Si atom -5582.613776 kJ/mol
# Density = 1.781000 g / cm^3
# Si number density = 17.850630 Si / 1000 Ang^3
#
#
#
# Elastic Constant Matrix: (Units=GPa)
#
#
# Indices 1 2 3 4 5 6 
#
# 1 53.5036 14.6710 26.4317 0.0000 0.0000 0.0000
# 2 14.6710 77.3880 7.8743 0.0000 0.0000 0.0000
# 3 26.4317 7.8743 90.2925 0.0000 0.0000 0.0000
# 4 0.0000 0.0000 0.0000 18.2675 0.0000 0.0000
# 5 0.0000 0.0000 0.0000 0.0000 -0.4974 0.0000
# 6 0.0000 0.0000 0.0000 0.0000 0.0000 13.7595
#
#
#
# Elastic Compliance Matrix: (Units=1/GPa)
#
#
# Indices 1 2 3 4 5 6 
#
# 1 0.022845 -0.003683 -0.006366 0.000000 0.000000 0.000000
# 2 -0.003683 0.013631 -0.000111 0.000000 0.000000 0.000000
# 3 -0.006366 -0.000111 0.012948 0.000000 0.000000 0.000000
# 4 0.000000 0.000000 0.000000 0.054742 0.000000 0.000000
# 5 0.000000 0.000000 0.000000 0.000000 -2.010333 0.000000
# 6 0.000000 0.000000 0.000000 0.000000 0.000000 0.072677
#
#
# Mechanical properties :
#
#
# Convention : Reuss Voigt Hill
#
# Bulk Modulus (GPa) = 34.35854 35.45980 34.90917
# Shear Modulus (GPa) = -2.77244 17.78639 7.50698
#
# Velocity S-wave (km/s) = -1.24760 3.16001 2.05294
# Velocity P-wave (km/s) = 4.14901 5.76386 5.02177
#
# Compressibility (1/GPa) = 0.02910484
#
# Stress axis : x y z
#
# Youngs Moduli (GPa) = 43.77252 73.36000 77.22944
#
# Poissons Ratio (x) = 0.27020 0.49168
# Poissons Ratio (y) = 0.16122 0.00854
# Poissons Ratio (z) = 0.27867 0.00811
#
# Static dielectric constant tensor:
#      x y z
#    x 1.596720 0.000000 0.000000 
#    y 0.000000 1.585980 0.000000 
#    z 0.000000 0.000000 1.622020 
# 
# From -- ./inp_files/22529.got.cif
#   From: 2010.05.17/outbox.cif.g08.bks.cpg/sg74_12_cif.got.tgz:22529.got - 2010.06.03 17:57:02.
