data_PCOD9539623
_publ_section_title
;
Structure prediction by ZEFSAII (Michael W. Deem and Ramdas Pophale) SiO2 
 PCOD9539623
Probable space group: I M M A
;
_chemical_formula_sum "Si O2"
_cell_formula_units_Z 72
_cell_length_a 11.450346
_cell_length_b 13.926532
_cell_length_c 17.637311
_cell_angle_alpha 90.000000
_cell_angle_beta 90.000000
_cell_angle_gamma 90.000000
_cell_volume 2812.509282
_symmetry_space_group_name_H-M "I M M A"
_symmetry_group_IT_number 74
_symmetry_cell_setting 'orthorhombic'
loop_
_space_group_symop_operation_xyz
x,y,z
-x,1/2-y,z
x,-y,-z
-x,1/2+y,-z
-x,-y,-z
x,1/2+y,-z
-x,y,z
x,1/2-y,z
1/2+x,1/2+y,1/2+z
1/2-x,-y,1/2+z
1/2+x,1/2-y,1/2-z
1/2-x,y,1/2-z
1/2-x,1/2-y,1/2-z
1/2+x,y,1/2-z
1/2-x,1/2+y,1/2+z
1/2+x,-y,1/2+z
loop_
_atom_site_type_symbol
_atom_site_label
_atom_site_fract_x
_atom_site_fract_y
_atom_site_fract_z
Si Si1 0.875369 0.608330 0.577307
Si Si2 0.876503 0.750000 0.714487
Si Si3 0.127151 0.924445 0.172547
Si Si4 0.626897 0.098485 0.853099
Si Si5 0.373445 0.588327 0.558410
O O1 0.879379 0.658989 0.658753
O O2 0.873873 0.494596 0.592658
O O3 0.750549 0.638194 0.543891
O O4 0.000000 0.633391 0.539817
O O5 0.750000 0.750000 0.750000
O O6 0.000000 0.750000 0.759523
O O7 0.239150 0.865558 0.142171
O O8 0.125994 0.928395 0.263490
O O9 0.000000 0.886463 0.147945
O O10 0.135912 0.032766 0.139385
O O11 0.500000 0.146567 0.864638
O O12 0.377471 0.500000 0.500000
O O13 0.500000 0.637392 0.554914
#
# Coordination Sequence:
#
# PCOD9539623 Si02
#       5
#    16   8  16  16  16
#     4   9  18  30  41  56  79 105 137 174 210 250
#     4  10  22  32  42  62  86 112 146 183 218 257
#     4   8  13  20  32  47  66  88 114 149 188 227
#     4   8  13  21  34  49  65  90 120 150 187 229
#     4   9  17  27  40  57  74  97 132 172 211 251
#
# _framework density 25.599914999999999
#
# number of rings (size 3 to 8) (size 9 to 14) (size 15 to 20)
#    0.000    3.333    0.000    0.000    6.222    1.333 
#    0.000    0.000    0.000    0.000    0.000    0.000 
#    0.000    0.000    0.000    0.000    0.000   17.778 
#
# Total GULP energy -200433.779092 kJ/mol
# GULP energy per Si atom -5567.604975 kJ/mol
# Density = 2.554165 g / cm^3
# Si number density = 25.599915 Si / 1000 Ang^3
#
#
#
# Elastic Constant Matrix: (Units=GPa)
#
#
# Indices 1 2 3 4 5 6 
#
# 1 403.1422 19.0042 19.7066 0.0000 0.0000 0.0000
# 2 19.0042 69.0847 7.3591 0.0000 0.0000 0.0000
# 3 19.7066 7.3591 86.0743 0.0000 0.0000 0.0000
# 4 0.0000 0.0000 0.0000 -0.5969 0.0000 0.0000
# 5 0.0000 0.0000 0.0000 0.0000 16.7669 0.0000
# 6 0.0000 0.0000 0.0000 0.0000 0.0000 268.5552
#
#
#
# Elastic Compliance Matrix: (Units=1/GPa)
#
#
# Indices 1 2 3 4 5 6 
#
# 1 0.002536 -0.000642 -0.000526 0.000000 0.000000 0.000000
# 2 -0.000642 0.014770 -0.001116 0.000000 0.000000 0.000000
# 3 -0.000526 -0.001116 0.011834 0.000000 0.000000 0.000000
# 4 0.000000 0.000000 0.000000 -1.675447 0.000000 0.000000
# 5 0.000000 0.000000 0.000000 0.000000 0.059641 0.000000
# 6 0.000000 0.000000 0.000000 0.000000 0.000000 0.003724
#
#
# Mechanical properties :
#
#
# Convention : Reuss Voigt Hill
#
# Bulk Modulus (GPa) = 40.69413 72.27122 56.48268
# Shear Modulus (GPa) = -3.18434 91.09381 43.95473
#
# Velocity S-wave (km/s) = -1.11651 5.97167 4.14815
# Velocity P-wave (km/s) = 3.77738 8.70863 6.71226
#
# Compressibility (1/GPa) = 0.02457357
#
# Stress axis : x y z
#
# Youngs Moduli (GPa) = 394.24851 67.70300 84.50464
#
# Poissons Ratio (x) = 0.04345 0.04444
# Poissons Ratio (y) = 0.25300 0.09430
# Poissons Ratio (z) = 0.20732 0.07555
#
# Static dielectric constant tensor:
#      x y z
#    x 2.176790 0.000000 0.000000 
#    y 0.000000 1.519300 0.000000 
#    z 0.000000 0.000000 2.026680 
# 
# From -- ./inp_files/43721.got.cif
#   From: 2010.05.17/outbox.cif.g08.bks.cpg/sg74_22_cif.got.tgz:43721.got - 2010.06.03 17:57:02.
