data_PCOD9539622
_publ_section_title
;
Structure prediction by ZEFSAII (Michael W. Deem and Ramdas Pophale) SiO2 
 PCOD9539622
Probable space group: I M M A
;
_chemical_formula_sum "Si O2"
_cell_formula_units_Z 44
_cell_length_a 10.180764
_cell_length_b 17.140079
_cell_length_c 9.166630
_cell_angle_alpha 90.000000
_cell_angle_beta 90.000000
_cell_angle_gamma 90.000000
_cell_volume 1599.568678
_symmetry_space_group_name_H-M "I M M A"
_symmetry_group_IT_number 74
_symmetry_cell_setting 'orthorhombic'
loop_
_space_group_symop_operation_xyz
x,y,z
-x,1/2-y,z
x,-y,-z
-x,1/2+y,-z
-x,-y,-z
x,1/2+y,-z
-x,y,z
x,1/2-y,z
1/2+x,1/2+y,1/2+z
1/2-x,-y,1/2+z
1/2+x,1/2-y,1/2-z
1/2-x,y,1/2-z
1/2-x,1/2-y,1/2-z
1/2+x,y,1/2-z
1/2-x,1/2+y,1/2+z
1/2+x,-y,1/2+z
loop_
_atom_site_type_symbol
_atom_site_label
_atom_site_fract_x
_atom_site_fract_y
_atom_site_fract_z
Si Si1 0.666569 0.750000 0.364893
Si Si2 0.500000 0.750000 0.125521
Si Si3 0.000000 0.921961 0.401606
Si Si4 0.348434 0.366280 0.371555
Si Si5 0.750000 0.518590 0.250000
O O1 0.500000 0.750000 0.318694
O O2 0.832950 0.750000 0.324812
O O3 0.664900 0.824897 0.474170
O O4 0.500000 0.666346 0.040109
O O5 0.129793 0.931224 0.305655
O O6 0.000000 0.000000 0.500000
O O7 0.500000 0.360248 0.325590
O O8 0.250000 0.332545 0.250000
O O9 0.305698 0.456614 0.368096
#
# Coordination Sequence:
#
# PCOD9539622 Si02
#       5
#     8   4   8  16   8
#     4  12  27  47  73 125 176 220 276 357 425 480
#     4  12  32  48  80 116 170 212 276 348 424 482
#     4  12  30  55  82 123 169 221 277 345 422 502
#     4  10  21  47  81 120 164 230 285 337 410 507
#     4  10  24  50  82 116 160 224 282 329 408 507
#
# _framework density 27.507415999999999
#
# number of rings (size 3 to 8) (size 9 to 14) (size 15 to 20)
#    1.091    0.000    3.636    0.545    7.636    0.000 
#    3.273    4.545    0.000    0.000    0.000    0.000 
#    0.000    0.000    0.000    0.000    0.000    0.000 
#
# Total GULP energy -123207.479120 kJ/mol
# GULP energy per Si atom -5600.339960 kJ/mol
# Density = 2.744481 g / cm^3
# Si number density = 27.507416 Si / 1000 Ang^3
#
#
#
# Elastic Constant Matrix: (Units=GPa)
#
#
# Indices 1 2 3 4 5 6 
#
# 1 308.3335 51.8785 101.3690 0.0000 0.0000 0.0000
# 2 51.8785 206.6194 74.4468 0.0004 0.0000 -0.0001
# 3 101.3690 74.4468 156.1228 0.0012 -0.0001 -0.0003
# 4 0.0000 0.0004 0.0012 24.6458 -0.0001 -0.0003
# 5 0.0000 0.0000 -0.0001 -0.0001 62.5111 0.0000
# 6 0.0000 -0.0001 -0.0003 -0.0003 0.0000 24.3599
#
#
#
# Elastic Compliance Matrix: (Units=1/GPa)
#
#
# Indices 1 2 3 4 5 6 
#
# 1 0.004125 -0.000085 -0.002637 0.000000 0.000000 0.000000
# 2 -0.000085 0.005846 -0.002732 0.000000 0.000000 0.000000
# 3 -0.002637 -0.002732 0.009420 0.000000 0.000000 0.000000
# 4 0.000000 0.000000 0.000000 0.040575 0.000000 0.000001
# 5 0.000000 0.000000 0.000000 0.000000 0.015997 0.000000
# 6 0.000000 0.000000 0.000000 0.000001 0.000000 0.041051
#
#
# Mechanical properties :
#
#
# Convention : Reuss Voigt Hill
#
# Bulk Modulus (GPa) = 117.90921 125.16271 121.53596
# Shear Modulus (GPa) = 38.24073 51.86212 45.05143
#
# Velocity S-wave (km/s) = 3.73258 4.34681 4.05135
# Velocity P-wave (km/s) = 7.84435 8.41387 8.13410
#
# Compressibility (1/GPa) = 0.00848110
#
# Stress axis : x y z
#
# Youngs Moduli (GPa) = 242.44226 171.06796 106.15209
#
# Poissons Ratio (x) = 0.01460 0.27997
# Poissons Ratio (y) = 0.02069 0.29001
# Poissons Ratio (z) = 0.63942 0.46737
#
# Static dielectric constant tensor:
#      x y z
#    x 2.155180 0.000000 0.000000 
#    y 0.000000 2.109610 0.000000 
#    z 0.000000 0.000000 2.119640 
# 
# From -- ./inp_files/28212.got.cif
#   From: 2010.05.17/outbox.cif.g08.bks.cpg/sg74_15_cif.got.tgz:28212.got - 2010.06.03 17:57:02.
