data_PCOD9539448
_publ_section_title
;
Structure prediction by ZEFSAII (Michael W. Deem and Ramdas Pophale) SiO2 
 PCOD9539448
Probable space group: I M M A
;
_chemical_formula_sum "Si O2"
_cell_formula_units_Z 56
_cell_length_a 7.406979
_cell_length_b 15.429299
_cell_length_c 28.525819
_cell_angle_alpha 90.000000
_cell_angle_beta 90.000000
_cell_angle_gamma 90.000000
_cell_volume 3260.058781
_symmetry_space_group_name_H-M "I M M A"
_symmetry_group_IT_number 74
_symmetry_cell_setting 'orthorhombic'
loop_
_space_group_symop_operation_xyz
x,y,z
-x,1/2-y,z
x,-y,-z
-x,1/2+y,-z
-x,-y,-z
x,1/2+y,-z
-x,y,z
x,1/2-y,z
1/2+x,1/2+y,1/2+z
1/2-x,-y,1/2+z
1/2+x,1/2-y,1/2-z
1/2-x,y,1/2-z
1/2-x,1/2-y,1/2-z
1/2+x,y,1/2-z
1/2-x,1/2+y,1/2+z
1/2+x,-y,1/2+z
loop_
_atom_site_type_symbol
_atom_site_label
_atom_site_fract_x
_atom_site_fract_y
_atom_site_fract_z
Si Si1 0.713154 0.650963 0.694327
Si Si2 0.500000 0.419465 0.035393
Si Si3 0.299289 0.352636 0.527195
Si Si4 0.500000 0.145703 0.894878
Si Si5 0.000000 0.467487 0.355924
O O1 0.500000 0.640985 0.686157
O O2 0.765061 0.750000 0.680366
O O3 0.750000 0.644545 0.750000
O O4 0.828897 0.578680 0.668067
O O5 0.500000 0.442846 0.089247
O O6 0.500000 0.500000 0.000000
O O7 0.317862 0.371754 0.019040
O O8 0.500000 0.392186 0.527672
O O9 0.317514 0.250000 0.529339
O O10 0.174400 0.373618 0.572163
O O11 0.500000 0.250000 0.883668
O O12 0.500000 0.072598 0.854647
#
# Coordination Sequence:
#
# PCOD9539448 Si02
#       5
#    16   8  16   8   8
#     4  10  21  39  62  88 118 149 184 235 295 353
#     4  11  21  35  47  80 119 149 183 244 283 324
#     4   9  18  34  54  72 106 156 195 233 284 332
#     4   9  19  37  55  80 114 151 197 240 279 328
#     4  12  22  35  60  89 111 156 198 231 288 357
#
# _framework density 17.177605
#
# number of rings (size 3 to 8) (size 9 to 14) (size 15 to 20)
#    0.000    2.000    4.286    1.714    0.000    5.143 
#    0.000    2.857    0.000    0.857    0.000    0.000 
#    0.000    0.000    0.000    0.000    0.000    0.000 
#
# Total GULP energy -155951.688095 kJ/mol
# GULP energy per Si atom -5569.703146 kJ/mol
# Density = 1.713851 g / cm^3
# Si number density = 17.177605 Si / 1000 Ang^3
#
#
#
# Elastic Constant Matrix: (Units=GPa)
#
#
# Indices 1 2 3 4 5 6 
#
# 1 133.9973 45.2054 25.6209 0.0000 0.0000 0.0000
# 2 45.2054 102.0474 45.2165 0.0000 0.0000 0.0000
# 3 25.6209 45.2165 60.1393 0.0000 0.0000 0.0000
# 4 0.0000 0.0000 0.0000 32.4466 0.0000 0.0000
# 5 0.0000 0.0000 0.0000 0.0000 -28.0604 0.0000
# 6 0.0000 0.0000 0.0000 0.0000 0.0000 11.4582
#
#
#
# Elastic Compliance Matrix: (Units=1/GPa)
#
#
# Indices 1 2 3 4 5 6 
#
# 1 0.008834 -0.003368 -0.001232 0.000000 0.000000 0.000000
# 2 -0.003368 0.015979 -0.010579 0.000000 0.000000 0.000000
# 3 -0.001232 -0.010579 0.025107 0.000000 0.000000 0.000000
# 4 0.000000 0.000000 0.000000 0.030820 0.000000 0.000000
# 5 0.000000 0.000000 0.000000 0.000000 -0.035637 0.000000
# 6 0.000000 0.000000 0.000000 0.000000 0.000000 0.087274
#
#
# Mechanical properties :
#
#
# Convention : Reuss Voigt Hill
#
# Bulk Modulus (GPa) = 51.11671 58.69661 54.90666
# Shear Modulus (GPa) = 29.54136 15.17830 22.35983
#
# Velocity S-wave (km/s) = 4.15150 2.97578 3.61180
# Velocity P-wave (km/s) = 7.26652 6.78614 7.03043
#
# Compressibility (1/GPa) = 0.01956307
#
# Stress axis : x y z
#
# Youngs Moduli (GPa) = 113.19265 62.58294 39.82990
#
# Poissons Ratio (x) = 0.21077 0.04905
# Poissons Ratio (y) = 0.38121 0.42136
# Poissons Ratio (z) = 0.13940 0.66207
#
# Static dielectric constant tensor:
#      x y z
#    x 1.703850 0.000000 0.000000 
#    y 0.000000 1.637640 0.000000 
#    z 0.000000 0.000000 1.554180 
# 
# From -- ./inp_files/63455.got.cif
#   From: 2010.05.17/outbox.cif.g08.bks.cpg/sg74_32_cif.got.tgz:63455.got - 2010.06.03 17:57:02.
