data_PCOD9539776
_publ_section_title
;
Structure prediction by ZEFSAII (Michael W. Deem and Ramdas Pophale) SiO2 
 PCOD9539776
Probable space group: I M M A
;
_chemical_formula_sum "Si O2"
_cell_formula_units_Z 36
_cell_length_a 22.665557
_cell_length_b 13.064642
_cell_length_c 5.055974
_cell_angle_alpha 90.000000
_cell_angle_beta 90.000000
_cell_angle_gamma 90.000000
_cell_volume 1497.161814
_symmetry_space_group_name_H-M "I M M A"
_symmetry_group_IT_number 74
_symmetry_cell_setting 'orthorhombic'
loop_
_space_group_symop_operation_xyz
x,y,z
-x,1/2-y,z
x,-y,-z
-x,1/2+y,-z
-x,-y,-z
x,1/2+y,-z
-x,y,z
x,1/2-y,z
1/2+x,1/2+y,1/2+z
1/2-x,-y,1/2+z
1/2+x,1/2-y,1/2-z
1/2-x,y,1/2-z
1/2-x,1/2-y,1/2-z
1/2+x,y,1/2-z
1/2-x,1/2+y,1/2+z
1/2+x,-y,1/2+z
loop_
_atom_site_type_symbol
_atom_site_label
_atom_site_fract_x
_atom_site_fract_y
_atom_site_fract_z
Si Si1 0.500000 0.500000 0.000000
Si Si2 0.388489 0.130662 0.849429
Si Si3 0.310520 0.629505 0.631873
O O1 0.552108 0.566537 0.150409
O O2 0.401463 0.250000 0.788754
O O3 0.339665 0.092873 0.640479
O O4 0.359337 0.126481 0.138590
O O5 0.297070 0.750000 0.574494
O O6 0.250000 0.585491 0.750000
#
# Coordination Sequence:
#
# PCOD9539776 Si02
#       3
#     4  16  16
#     4  12  26  42  60  88 132 178 218 252 308 384
#     4  10  22  39  62  91 124 164 209 259 312 376
#     4   9  18  37  65  93 120 154 201 262 327 378
#
# _framework density 24.045497000000001
#
# number of rings (size 3 to 8) (size 9 to 14) (size 15 to 20)
#    0.000    2.222    0.000    2.000    0.000   10.667 
#    0.000   11.111    0.000    0.000    0.000    0.000 
#    0.000    5.333    0.000    0.000    0.000    0.000 
#
# Total GULP energy -100247.802434 kJ/mol
# GULP energy per Si atom -5569.322357 kJ/mol
# Density = 2.399077 g / cm^3
# Si number density = 24.045497 Si / 1000 Ang^3
#
#
#
# Elastic Constant Matrix: (Units=GPa)
#
#
# Indices 1 2 3 4 5 6 
#
# 1 197.3745 52.8297 20.1676 0.0000 0.0000 0.0000
# 2 52.8297 100.5759 30.4747 0.0000 0.0000 0.0000
# 3 20.1676 30.4747 84.9306 0.0000 0.0000 0.0000
# 4 0.0000 0.0000 0.0000 34.3233 0.0000 0.0000
# 5 0.0000 0.0000 0.0000 0.0000 12.7998 0.0000
# 6 0.0000 0.0000 0.0000 0.0000 0.0000 44.8249
#
#
#
# Elastic Compliance Matrix: (Units=1/GPa)
#
#
# Indices 1 2 3 4 5 6 
#
# 1 0.005903 -0.003003 -0.000324 0.000000 0.000000 0.000000
# 2 -0.003003 0.012683 -0.003838 0.000000 0.000000 0.000000
# 3 -0.000324 -0.003838 0.013228 0.000000 0.000000 0.000000
# 4 0.000000 0.000000 0.000000 0.029135 0.000000 0.000000
# 5 0.000000 0.000000 0.000000 0.000000 0.078126 0.000000
# 6 0.000000 0.000000 0.000000 0.000000 0.000000 0.022309
#
#
# Mechanical properties :
#
#
# Convention : Reuss Voigt Hill
#
# Bulk Modulus (GPa) = 57.19215 65.53610 61.36413
# Shear Modulus (GPa) = 27.54177 37.01686 32.27932
#
# Velocity S-wave (km/s) = 3.38805 3.92784 3.66789
# Velocity P-wave (km/s) = 6.25634 6.91988 6.59646
#
# Compressibility (1/GPa) = 0.01748492
#
# Stress axis : x y z
#
# Youngs Moduli (GPa) = 169.39592 78.84715 75.59468
#
# Poissons Ratio (x) = 0.23674 0.02453
# Poissons Ratio (y) = 0.50862 0.29012
# Poissons Ratio (z) = 0.05496 0.30260
#
# Static dielectric constant tensor:
#      x y z
#    x 1.789230 0.000000 0.000000 
#    y 0.000000 2.086370 0.000000 
#    z 0.000000 0.000000 1.886000 
# 
# From -- ./inp_files/1072.got.cif
#   From: 2010.05.17/outbox.cif.g08.bks.cpg/sg74_1_cif.got.tgz:1072.got - 2010.06.03 17:57:02.
