data_PCOD9539861
_publ_section_title
;
Structure prediction by ZEFSAII (Michael W. Deem and Ramdas Pophale) SiO2 
 PCOD9539861
Probable space group: I M M A
;
_chemical_formula_sum "Si O2"
_cell_formula_units_Z 72
_cell_length_a 24.743170
_cell_length_b 14.583343
_cell_length_c 7.730572
_cell_angle_alpha 90.000000
_cell_angle_beta 90.000000
_cell_angle_gamma 90.000000
_cell_volume 2789.485183
_symmetry_space_group_name_H-M "I M M A"
_symmetry_group_IT_number 74
_symmetry_cell_setting 'orthorhombic'
loop_
_space_group_symop_operation_xyz
x,y,z
-x,1/2-y,z
x,-y,-z
-x,1/2+y,-z
-x,-y,-z
x,1/2+y,-z
-x,y,z
x,1/2-y,z
1/2+x,1/2+y,1/2+z
1/2-x,-y,1/2+z
1/2+x,1/2-y,1/2-z
1/2-x,y,1/2-z
1/2-x,1/2-y,1/2-z
1/2+x,y,1/2-z
1/2-x,1/2+y,1/2+z
1/2+x,-y,1/2+z
loop_
_atom_site_type_symbol
_atom_site_label
_atom_site_fract_x
_atom_site_fract_y
_atom_site_fract_z
Si Si1 0.903184 0.854819 0.750634
Si Si2 0.057315 0.360976 0.610431
Si Si3 0.824548 0.351776 0.764137
Si Si4 0.858789 0.000000 0.000000
Si Si5 0.289577 0.899844 0.915933
O O1 0.917139 0.750000 0.801302
O O2 0.939414 0.888334 0.590987
O O3 0.843561 0.856942 0.666675
O O4 0.896915 0.928481 0.900553
O O5 0.056723 0.250000 0.607879
O O6 0.114556 0.380916 0.698296
O O7 0.000000 0.392167 0.687482
O O8 0.829026 0.250000 0.842145
O O9 0.784999 0.346732 0.599001
O O10 0.817297 0.434970 0.895060
O O11 0.250000 0.898067 0.750000
O O12 0.299586 0.000000 0.000000
#
# Coordination Sequence:
#
# PCOD9539861 Si02
#       5
#    16  16  16   8  16
#     4  10  22  40  65  92 123 172 218 262 329 398
#     4   8  16  36  64  92 126 169 220 276 330 386
#     4  10  22  41  67  98 130 176 226 268 331 398
#     4  12  22  40  63  92 138 176 216 276 323 392
#     4  11  23  41  69  97 128 165 215 274 340 397
#
# _framework density 25.811216000000002
#
# number of rings (size 3 to 8) (size 9 to 14) (size 15 to 20)
#    0.000    2.000    2.222    2.667    1.556    1.778 
#    0.000    4.444    0.000   10.667    0.000    0.000 
#    0.000    0.000    0.000    0.000    0.000    0.000 
#
# Total GULP energy -201053.999464 kJ/mol
# GULP energy per Si atom -5584.833318 kJ/mol
# Density = 2.575247 g / cm^3
# Si number density = 25.811216 Si / 1000 Ang^3
#
#
#
# Elastic Constant Matrix: (Units=GPa)
#
#
# Indices 1 2 3 4 5 6 
#
# 1 117.6880 20.8013 22.6321 0.0000 0.0000 0.0000
# 2 20.8013 161.8411 67.4805 0.0000 0.0000 0.0000
# 3 22.6321 67.4805 130.0449 0.0000 0.0000 0.0000
# 4 0.0000 0.0000 0.0000 37.8895 0.0000 0.0000
# 5 0.0000 0.0000 0.0000 0.0000 18.1818 0.0000
# 6 0.0000 0.0000 0.0000 0.0000 0.0000 8.3686
#
#
#
# Elastic Compliance Matrix: (Units=1/GPa)
#
#
# Indices 1 2 3 4 5 6 
#
# 1 0.008842 -0.000631 -0.001211 0.000000 0.000000 0.000000
# 2 -0.000631 0.007930 -0.004005 0.000000 0.000000 0.000000
# 3 -0.001211 -0.004005 0.009979 0.000000 0.000000 0.000000
# 4 0.000000 0.000000 0.000000 0.026393 0.000000 0.000000
# 5 0.000000 0.000000 0.000000 0.000000 0.055000 0.000000
# 6 0.000000 0.000000 0.000000 0.000000 0.000000 0.119494
#
#
# Mechanical properties :
#
#
# Convention : Reuss Voigt Hill
#
# Bulk Modulus (GPa) = 66.42245 70.15575 68.28910
# Shear Modulus (GPa) = 20.46246 32.79866 26.63056
#
# Velocity S-wave (km/s) = 2.81868 3.56857 3.21556
# Velocity P-wave (km/s) = 6.03184 6.64973 6.34831
#
# Compressibility (1/GPa) = 0.01505515
#
# Stress axis : x y z
#
# Youngs Moduli (GPa) = 113.10238 126.10411 100.21438
#
# Poissons Ratio (x) = 0.07963 0.12137
# Poissons Ratio (y) = 0.07142 0.40136
# Poissons Ratio (z) = 0.13697 0.50504
#
# Static dielectric constant tensor:
#      x y z
#    x 2.076680 0.000000 0.000000 
#    y 0.000000 1.994690 0.000000 
#    z 0.000000 0.000000 2.176000 
# 
# From -- ./inp_files/14732.got.cif
#   From: 2010.05.17/outbox.cif.g08.bks.cpg/sg74_8_cif.got.tgz:14732.got - 2010.06.03 17:57:02.
