data_PCOD9539631
_publ_section_title
;
Structure prediction by ZEFSAII (Michael W. Deem and Ramdas Pophale) SiO2 
 PCOD9539631
Probable space group: I M M A
;
_chemical_formula_sum "Si O2"
_cell_formula_units_Z 92
_cell_length_a 20.450633
_cell_length_b 18.573905
_cell_length_c 13.502353
_cell_angle_alpha 90.000000
_cell_angle_beta 90.000000
_cell_angle_gamma 90.000000
_cell_volume 5128.843329
_symmetry_space_group_name_H-M "I M M A"
_symmetry_group_IT_number 74
_symmetry_cell_setting 'orthorhombic'
loop_
_space_group_symop_operation_xyz
x,y,z
-x,1/2-y,z
x,-y,-z
-x,1/2+y,-z
-x,-y,-z
x,1/2+y,-z
-x,y,z
x,1/2-y,z
1/2+x,1/2+y,1/2+z
1/2-x,-y,1/2+z
1/2+x,1/2-y,1/2-z
1/2-x,y,1/2-z
1/2-x,1/2-y,1/2-z
1/2+x,y,1/2-z
1/2-x,1/2+y,1/2+z
1/2+x,-y,1/2+z
loop_
_atom_site_type_symbol
_atom_site_label
_atom_site_fract_x
_atom_site_fract_y
_atom_site_fract_z
Si Si1 0.107064 0.873293 0.253065
Si Si2 0.688272 0.041106 0.597756
Si Si3 0.750000 0.571891 0.750000
Si Si4 0.141739 0.333928 0.363710
Si Si5 0.500000 0.250000 0.713036
Si Si6 0.792451 0.332047 0.578134
Si Si7 0.500000 0.060807 0.884726
Si Si8 0.000000 0.109850 0.406218
O O1 0.133873 0.919471 0.162532
O O2 0.165549 0.842900 0.321789
O O3 0.057454 0.812145 0.218688
O O4 0.065270 0.924282 0.324273
O O5 0.739436 0.104754 0.572818
O O6 0.664864 0.000000 0.500000
O O7 0.722800 0.980848 0.665328
O O8 0.808195 0.619954 0.702983
O O9 0.146013 0.250000 0.335703
O O10 0.163543 0.339556 0.479194
O O11 0.066496 0.359687 0.359816
O O12 0.765643 0.250000 0.577992
O O13 0.500000 0.976273 0.903872
O O14 0.500000 0.119081 0.974389
#
# Coordination Sequence:
#
# PCOD9539631 Si02
#       8
#    16  16   8  16   4  16   8   8
#     4  11  21  39  60  95 131 161 207 266 339 397
#     4  12  25  40  64  93 126 169 220 267 323 395
#     4  12  23  42  65  90 134 172 212 272 325 388
#     4  11  24  39  62  94 133 170 215 260 325 396
#     4  10  24  38  66  92 132 166 212 264 346 406
#     4  11  22  37  63  98 132 160 201 264 333 393
#     4  10  22  34  58  93 123 161 204 269 323 383
#     4  11  21  36  63  89 129 166 215 261 329 394
#
# _framework density 17.937767000000001
#
# number of rings (size 3 to 8) (size 9 to 14) (size 15 to 20)
#    0.000    0.870    6.087    1.565    1.217    0.696 
#    0.000    1.739    0.000    0.000    0.000    0.000 
#    0.000    0.000    0.000    0.000    0.000    0.000 
#
# Total GULP energy -256226.910361 kJ/mol
# GULP energy per Si atom -5570.150225 kJ/mol
# Density = 1.789694 g / cm^3
# Si number density = 17.937767 Si / 1000 Ang^3
#
#
#
# Elastic Constant Matrix: (Units=GPa)
#
#
# Indices 1 2 3 4 5 6 
#
# 1 101.1163 56.4353 31.7271 0.0000 0.0000 0.0000
# 2 56.4353 126.9720 38.0739 0.0000 0.0000 0.0000
# 3 31.7271 38.0739 68.9864 0.0000 0.0000 0.0000
# 4 0.0000 0.0000 0.0000 3.2315 0.0000 0.0000
# 5 0.0000 0.0000 0.0000 0.0000 22.9367 0.0000
# 6 0.0000 0.0000 0.0000 0.0000 0.0000 55.2460
#
#
#
# Elastic Compliance Matrix: (Units=1/GPa)
#
#
# Indices 1 2 3 4 5 6 
#
# 1 0.013846 -0.005086 -0.003560 0.000000 0.000000 0.000000
# 2 -0.005086 0.011306 -0.003901 0.000000 0.000000 0.000000
# 3 -0.003560 -0.003901 0.018286 0.000000 0.000000 0.000000
# 4 0.000000 0.000000 0.000000 0.309451 0.000000 0.000000
# 5 0.000000 0.000000 0.000000 0.000000 0.043598 0.000000
# 6 0.000000 0.000000 0.000000 0.000000 0.000000 0.018101
#
#
# Mechanical properties :
#
#
# Convention : Reuss Voigt Hill
#
# Bulk Modulus (GPa) = 54.51776 61.06081 57.78928
# Shear Modulus (GPa) = 11.21587 27.67208 19.44397
#
# Velocity S-wave (km/s) = 2.50324 3.93195 3.29594
# Velocity P-wave (km/s) = 6.23006 7.39783 6.83892
#
# Compressibility (1/GPa) = 0.01834265
#
# Stress axis : x y z
#
# Youngs Moduli (GPa) = 72.22544 88.44763 54.68701
#
# Poissons Ratio (x) = 0.44987 0.19471
# Poissons Ratio (y) = 0.36736 0.21332
# Poissons Ratio (z) = 0.25716 0.34501
#
# Static dielectric constant tensor:
#      x y z
#    x 1.601300 0.000000 0.000000 
#    y 0.000000 1.607120 0.000000 
#    z 0.000000 0.000000 1.648100 
# 
# From -- ./inp_files/23743.got.cif
#   From: 2010.05.17/outbox.cif.g08.bks.cpg/sg74_12_cif.got.tgz:23743.got - 2010.06.03 17:57:02.
