data_PCOD9539376
_publ_section_title
;
Structure prediction by ZEFSAII (Michael W. Deem and Ramdas Pophale) SiO2 
 PCOD9539376
Probable space group: I M M A
;
_chemical_formula_sum "Si O2"
_cell_formula_units_Z 104
_cell_length_a 24.706089
_cell_length_b 8.077004
_cell_length_c 23.438573
_cell_angle_alpha 90.000000
_cell_angle_beta 90.000000
_cell_angle_gamma 90.000000
_cell_volume 4677.194892
_symmetry_space_group_name_H-M "I M M A"
_symmetry_group_IT_number 74
_symmetry_cell_setting 'orthorhombic'
loop_
_space_group_symop_operation_xyz
x,y,z
-x,1/2-y,z
x,-y,-z
-x,1/2+y,-z
-x,-y,-z
x,1/2+y,-z
-x,y,z
x,1/2-y,z
1/2+x,1/2+y,1/2+z
1/2-x,-y,1/2+z
1/2+x,1/2-y,1/2-z
1/2-x,y,1/2-z
1/2-x,1/2-y,1/2-z
1/2+x,y,1/2-z
1/2-x,1/2+y,1/2+z
1/2+x,-y,1/2+z
loop_
_atom_site_type_symbol
_atom_site_label
_atom_site_fract_x
_atom_site_fract_y
_atom_site_fract_z
Si Si1 0.500000 0.949895 0.565986
Si Si2 0.885980 0.450932 0.116367
Si Si3 0.500000 0.057505 0.780727
Si Si4 0.307793 0.062115 0.845031
Si Si5 0.882576 0.059188 0.438528
Si Si6 0.118451 0.949802 0.245467
Si Si7 0.500000 0.942963 0.082577
Si Si8 0.777820 0.945422 0.937512
O O1 0.500000 0.750000 0.568906
O O2 0.445168 0.009417 0.596611
O O3 0.500000 0.000000 0.500000
O O4 0.886608 0.250000 0.115792
O O5 0.872322 0.508347 0.179983
O O6 0.838073 0.511827 0.075170
O O7 0.500000 0.250000 0.761417
O O8 0.442189 0.985472 0.760748
O O9 0.500000 0.055015 0.848892
O O10 0.291441 0.250000 0.832552
O O11 0.333669 0.987005 0.787319
O O12 0.358178 0.052891 0.888846
O O13 0.260211 0.986789 0.883518
O O14 0.867545 0.250000 0.428590
O O15 0.862978 0.000000 0.500000
O O16 0.946627 0.035450 0.437388
O O17 0.117456 0.750000 0.253843
O O18 0.500000 0.750000 0.064215
O O19 0.781057 0.750000 0.940126
O O20 0.758614 0.000000 0.000000
#
# Coordination Sequence:
#
# PCOD9539376 Si02
#       8
#     8  16   8  16  16  16   8  16
#     4  10  21  40  66  98 131 166 205 250 306 373
#     4  10  23  41  63  94 131 164 199 250 312 369
#     4   9  17  35  59  85 119 158 200 249 299 353
#     4  11  23  41  63  88 119 162 209 259 311 365
#     4  12  24  38  56  83 116 156 207 260 318 375
#     4  10  21  38  63  91 122 163 209 254 305 366
#     4  11  20  37  58  79 114 154 199 255 311 364
#     4  11  24  43  65  91 123 161 204 256 313 372
#
# _framework density 22.23555
#
# number of rings (size 3 to 8) (size 9 to 14) (size 15 to 20)
#    0.000    1.385    1.538    4.154    0.000    3.692 
#    0.000    3.077    0.000    0.000    0.000    0.000 
#    0.000    0.000    0.000    0.000    0.000    0.000 
#
# Total GULP energy -290568.046235 kJ/mol
# GULP energy per Si atom -5587.847043 kJ/mol
# Density = 2.218494 g / cm^3
# Si number density = 22.235550 Si / 1000 Ang^3
#
#
#
# Elastic Constant Matrix: (Units=GPa)
#
#
# Indices 1 2 3 4 5 6 
#
# 1 144.9046 8.2942 48.4655 0.0000 0.0000 0.0000
# 2 8.2942 37.0235 0.5433 0.0000 0.0000 0.0000
# 3 48.4655 0.5433 127.4948 0.0000 0.0000 0.0000
# 4 0.0000 0.0000 0.0000 28.3715 0.0000 0.0000
# 5 0.0000 0.0000 0.0000 0.0000 0.0107 0.0000
# 6 0.0000 0.0000 0.0000 0.0000 0.0000 538.9263
#
#
#
# Elastic Compliance Matrix: (Units=1/GPa)
#
#
# Indices 1 2 3 4 5 6 
#
# 1 0.008018 -0.001752 -0.003041 0.000000 0.000000 0.000000
# 2 -0.001752 0.027394 0.000549 0.000000 0.000000 0.000000
# 3 -0.003041 0.000549 0.008997 0.000000 0.000000 0.000000
# 4 0.000000 0.000000 0.000000 0.035247 0.000000 0.000000
# 5 0.000000 0.000000 0.000000 0.000000 93.562327 0.000000
# 6 0.000000 0.000000 0.000000 0.000000 0.000000 0.001856
#
#
# Mechanical properties :
#
#
# Convention : Reuss Voigt Hill
#
# Bulk Modulus (GPa) = 27.83712 47.11434 37.47573
# Shear Modulus (GPa) = 0.05338 130.26969 65.16153
#
# Velocity S-wave (km/s) = 0.15511 7.66247 5.41929
# Velocity P-wave (km/s) = 3.54661 9.97594 7.48658
#
# Compressibility (1/GPa) = 0.03592325
#
# Stress axis : x y z
#
# Youngs Moduli (GPa) = 124.71416 36.50400 111.14863
#
# Poissons Ratio (x) = 0.06394 0.33796
# Poissons Ratio (y) = 0.21846 -0.06104
# Poissons Ratio (z) = 0.37921 -0.02005
#
# Static dielectric constant tensor:
#      x y z
#    x 1.857870 0.000000 0.000000 
#    y 0.000000 1.806050 0.000000 
#    z 0.000000 0.000000 1.789140 
# 
# From -- ./inp_files/55299.got.cif
#   From: 2010.05.17/outbox.cif.g08.bks.cpg/sg74_28_cif.got.tgz:55299.got - 2010.06.03 17:57:02.
