data_PCOD9539268
_publ_section_title
;
Structure prediction by ZEFSAII (Michael W. Deem and Ramdas Pophale) SiO2 
 PCOD9539268
Probable space group: I M M A
;
_chemical_formula_sum "Si O2"
_cell_formula_units_Z 64
_cell_length_a 14.882077
_cell_length_b 8.868519
_cell_length_c 28.321133
_cell_angle_alpha 90.000000
_cell_angle_beta 90.000000
_cell_angle_gamma 90.000000
_cell_volume 3737.879284
_symmetry_space_group_name_H-M "I M M A"
_symmetry_group_IT_number 74
_symmetry_cell_setting 'orthorhombic'
loop_
_space_group_symop_operation_xyz
x,y,z
-x,1/2-y,z
x,-y,-z
-x,1/2+y,-z
-x,-y,-z
x,1/2+y,-z
-x,y,z
x,1/2-y,z
1/2+x,1/2+y,1/2+z
1/2-x,-y,1/2+z
1/2+x,1/2-y,1/2-z
1/2-x,y,1/2-z
1/2-x,1/2-y,1/2-z
1/2+x,y,1/2-z
1/2-x,1/2+y,1/2+z
1/2+x,-y,1/2+z
loop_
_atom_site_type_symbol
_atom_site_label
_atom_site_fract_x
_atom_site_fract_y
_atom_site_fract_z
Si Si1 0.213735 0.570688 0.637240
Si Si2 0.105227 0.930215 0.448728
Si Si3 0.648777 0.420292 0.770330
Si Si4 0.401535 0.567443 0.331485
O O1 0.216457 0.750000 0.634556
O O2 0.167856 0.500614 0.591238
O O3 0.155691 0.519105 0.682982
O O4 0.314744 0.506733 0.644784
O O5 0.116171 0.750000 0.450101
O O6 0.000000 0.963013 0.438268
O O7 0.125097 0.000000 0.500000
O O8 0.618779 0.250000 0.782455
O O9 0.750000 0.410209 0.750000
O O10 0.597783 0.476916 0.724035
O O11 0.500000 0.531406 0.351901
O O12 0.390207 0.750000 0.332275
#
# Coordination Sequence:
#
# PCOD9539268 Si02
#       4
#    16  16  16  16
#     4  11  21  32  50  77 108 139 171 209 255 308
#     4  10  21  38  59  80 102 129 164 208 257 308
#     4   8  15  29  47  68  96 132 174 213 249 292
#     4   9  18  33  52  73 101 140 182 219 255 298
#
# _framework density 17.122008999999998
#
# number of rings (size 3 to 8) (size 9 to 14) (size 15 to 20)
#    0.000    2.500    0.000    4.500    0.000    7.500 
#    0.000    2.500    0.000    0.750    0.000    0.000 
#    0.000    0.000    0.000    0.000    0.000    0.000 
#
# Total GULP energy -178380.130973 kJ/mol
# GULP energy per Si atom -5574.379093 kJ/mol
# Density = 1.708304 g / cm^3
# Si number density = 17.122009 Si / 1000 Ang^3
#
#
#
# Elastic Constant Matrix: (Units=GPa)
#
#
# Indices 1 2 3 4 5 6 
#
# 1 110.3248 58.6323 81.8650 0.0000 0.0000 0.0000
# 2 58.6323 93.7840 72.5287 0.0000 0.0000 0.0000
# 3 81.8650 72.5287 129.2625 0.0000 0.0000 0.0000
# 4 0.0000 0.0000 0.0000 29.5839 0.0000 0.0000
# 5 0.0000 0.0000 0.0000 0.0000 24.9857 0.0000
# 6 0.0000 0.0000 0.0000 0.0000 0.0000 8.5546
#
#
#
# Elastic Compliance Matrix: (Units=1/GPa)
#
#
# Indices 1 2 3 4 5 6 
#
# 1 0.018037 -0.004314 -0.009003 0.000000 0.000000 0.000000
# 2 -0.004314 0.019868 -0.008416 0.000000 0.000000 0.000000
# 3 -0.009003 -0.008416 0.018160 0.000000 0.000000 0.000000
# 4 0.000000 0.000000 0.000000 0.033802 0.000000 0.000000
# 5 0.000000 0.000000 0.000000 0.000000 0.040023 0.000000
# 6 0.000000 0.000000 0.000000 0.000000 0.000000 0.116896
#
#
# Mechanical properties :
#
#
# Convention : Reuss Voigt Hill
#
# Bulk Modulus (GPa) = 79.36462 84.38036 81.87249
# Shear Modulus (GPa) = 16.98067 20.64788 18.81427
#
# Velocity S-wave (km/s) = 3.15261 3.47641 3.31847
# Velocity P-wave (km/s) = 7.72690 8.09337 7.91226
#
# Compressibility (1/GPa) = 0.01260007
#
# Stress axis : x y z
#
# Youngs Moduli (GPa) = 55.44050 50.33108 55.06649
#
# Poissons Ratio (x) = 0.21715 0.49575
# Poissons Ratio (y) = 0.23919 0.46342
# Poissons Ratio (z) = 0.49912 0.42357
#
# Static dielectric constant tensor:
#      x y z
#    x 1.617900 0.000000 0.000000 
#    y 0.000000 1.572850 0.000000 
#    z 0.000000 0.000000 1.560220 
# 
# From -- ./inp_files/56384.got.cif
#   From: 2010.05.17/outbox.cif.g08.bks.cpg/sg74_29_cif.got.tgz:56384.got - 2010.06.03 17:57:02.
