data_PCOD9539365
_publ_section_title
;
Structure prediction by ZEFSAII (Michael W. Deem and Ramdas Pophale) SiO2 
 PCOD9539365
Probable space group: I M M A
;
_chemical_formula_sum "Si O2"
_cell_formula_units_Z 120
_cell_length_a 15.841894
_cell_length_b 23.304816
_cell_length_c 15.685787
_cell_angle_alpha 90.000000
_cell_angle_beta 90.000000
_cell_angle_gamma 90.000000
_cell_volume 5791.073737
_symmetry_space_group_name_H-M "I M M A"
_symmetry_group_IT_number 74
_symmetry_cell_setting 'orthorhombic'
loop_
_space_group_symop_operation_xyz
x,y,z
-x,1/2-y,z
x,-y,-z
-x,1/2+y,-z
-x,-y,-z
x,1/2+y,-z
-x,y,z
x,1/2-y,z
1/2+x,1/2+y,1/2+z
1/2-x,-y,1/2+z
1/2+x,1/2-y,1/2-z
1/2-x,y,1/2-z
1/2-x,1/2-y,1/2-z
1/2+x,y,1/2-z
1/2-x,1/2+y,1/2+z
1/2+x,-y,1/2+z
loop_
_atom_site_type_symbol
_atom_site_label
_atom_site_fract_x
_atom_site_fract_y
_atom_site_fract_z
Si Si1 0.601925 0.103347 0.336423
Si Si2 0.353917 0.354227 0.664854
Si Si3 0.396986 0.315099 0.180614
Si Si4 0.297451 0.500000 0.000000
Si Si5 0.188578 0.481197 0.831310
Si Si6 0.599111 0.686827 0.518730
Si Si7 0.842625 0.817734 0.349511
Si Si8 0.599223 0.884063 0.985159
O O1 0.500000 0.099918 0.337677
O O2 0.628268 0.143568 0.257700
O O3 0.636817 0.039783 0.325927
O O4 0.633026 0.135476 0.422386
O O5 0.364864 0.422707 0.666154
O O6 0.393838 0.327391 0.580720
O O7 0.254025 0.339843 0.655698
O O8 0.381115 0.329010 0.755854
O O9 0.500000 0.313402 0.181300
O O10 0.367130 0.250000 0.191329
O O11 0.370816 0.342420 0.090832
O O12 0.241569 0.484881 0.918109
O O13 0.353239 0.555770 0.980792
O O14 0.250000 0.476650 0.750000
O O15 0.500000 0.690388 0.540504
O O16 0.636805 0.750000 0.535971
O O17 0.843483 0.750000 0.367256
O O18 0.885831 0.853031 0.424739
O O19 0.500000 0.894092 0.973219
#
# Coordination Sequence:
#
# PCOD9539365 Si02
#       8
#    16  16  16   8  16  16  16  16
#     4  10  22  39  63  93 122 160 205 250 301 357
#     4  11  21  41  60  87 117 162 202 246 303 363
#     4   9  18  36  61  88 122 157 193 245 305 360
#     4  12  23  42  61  86 124 168 198 252 307 356
#     4  12  23  41  64  85 123 161 207 251 299 362
#     4  10  21  38  62  92 124 158 200 250 303 359
#     4  11  22  39  63  87 120 159 200 247 305 368
#     4  11  23  39  62  92 121 158 207 251 302 361
#
# _framework density 20.721546
#
# number of rings (size 3 to 8) (size 9 to 14) (size 15 to 20)
#    0.000    1.333    2.667    4.200    0.000    3.467 
#    0.000    5.000    0.000    1.600    0.000    0.000 
#    0.000    0.000    0.000    0.000    0.000    0.000 
#
# Total GULP energy -335489.276319 kJ/mol
# GULP energy per Si atom -5591.487939 kJ/mol
# Density = 2.067438 g / cm^3
# Si number density = 20.721546 Si / 1000 Ang^3
#
#
#
# Elastic Constant Matrix: (Units=GPa)
#
#
# Indices 1 2 3 4 5 6 
#
# 1 15.1524 5.8443 -8.2235 -0.0001 0.0000 0.0000
# 2 5.8443 141.1190 -12.5432 -0.0001 0.0000 0.0000
# 3 -8.2235 -12.5432 55.5398 0.0000 0.0000 0.0000
# 4 -0.0001 -0.0001 0.0000 3.4329 0.0000 0.0000
# 5 0.0000 0.0000 0.0000 0.0000 7.1852 0.0002
# 6 0.0000 0.0000 0.0000 0.0000 0.0002 -1.4622
#
#
#
# Elastic Compliance Matrix: (Units=1/GPa)
#
#
# Indices 1 2 3 4 5 6 
#
# 1 0.072360 -0.002086 0.010243 0.000003 0.000000 0.000001
# 2 -0.002086 0.007292 0.001338 0.000000 0.000000 0.000000
# 3 0.010243 0.001338 0.019824 0.000000 0.000000 0.000001
# 4 0.000003 0.000000 0.000000 0.291301 0.000000 -0.000002
# 5 0.000000 0.000000 0.000000 0.000000 0.139175 0.000019
# 6 0.000001 0.000000 0.000001 -0.000002 0.000019 -0.683881
#
#
# Mechanical properties :
#
#
# Convention : Reuss Voigt Hill
#
# Bulk Modulus (GPa) = 8.44140 20.21849 14.32994
# Shear Modulus (GPa) = -37.47277 16.94674 -10.26301
#
# Velocity S-wave (km/s) = -4.25714 2.86288 -2.22791
# Velocity P-wave (km/s) = 4.48126 4.55044 0.55892
#
# Compressibility (1/GPa) = 0.11846380
#
# Stress axis : x y z
#
# Youngs Moduli (GPa) = 13.81982 137.14545 50.44433
#
# Poissons Ratio (x) = 0.28612 -0.51669
# Poissons Ratio (y) = 0.02883 -0.06749
# Poissons Ratio (z) = -0.14155 -0.18348
#
# Static dielectric constant tensor:
#      x y z
#    x 1.754100 0.000000 0.000000 
#    y 0.000000 1.715540 0.000000 
#    z 0.000000 0.000000 1.721470 
# 
# From -- ./inp_files/35728.got.cif
#   From: 2010.05.17/outbox.cif.g08.bks.cpg/sg74_18_cif.got.tgz:35728.got - 2010.06.03 17:57:02.
