data_PCOD9539290
_publ_section_title
;
Structure prediction by ZEFSAII (Michael W. Deem and Ramdas Pophale) SiO2 
 PCOD9539290
Probable space group: I M M A
;
_chemical_formula_sum "Si O2"
_cell_formula_units_Z 88
_cell_length_a 24.874447
_cell_length_b 7.540497
_cell_length_c 25.586103
_cell_angle_alpha 90.000000
_cell_angle_beta 90.000000
_cell_angle_gamma 90.000000
_cell_volume 4799.075140
_symmetry_space_group_name_H-M "I M M A"
_symmetry_group_IT_number 74
_symmetry_cell_setting 'orthorhombic'
loop_
_space_group_symop_operation_xyz
x,y,z
-x,1/2-y,z
x,-y,-z
-x,1/2+y,-z
-x,-y,-z
x,1/2+y,-z
-x,y,z
x,1/2-y,z
1/2+x,1/2+y,1/2+z
1/2-x,-y,1/2+z
1/2+x,1/2-y,1/2-z
1/2-x,y,1/2-z
1/2-x,1/2-y,1/2-z
1/2+x,y,1/2-z
1/2-x,1/2+y,1/2+z
1/2+x,-y,1/2+z
loop_
_atom_site_type_symbol
_atom_site_label
_atom_site_fract_x
_atom_site_fract_y
_atom_site_fract_z
Si Si1 0.437947 0.750000 0.887676
Si Si2 0.644127 0.454329 0.631533
Si Si3 0.311609 0.547298 0.250191
Si Si4 0.391414 0.750000 0.777414
Si Si5 0.936387 0.750000 0.840682
Si Si6 0.258018 0.538253 0.438650
Si Si7 0.862135 0.538439 0.437888
O O1 0.500000 0.750000 0.903481
O O2 0.431817 0.750000 0.825255
O O3 0.406606 0.578663 0.909607
O O4 0.631420 0.250000 0.617559
O O5 0.668898 0.453138 0.689814
O O6 0.592462 0.579199 0.634003
O O7 0.691064 0.527001 0.593908
O O8 0.312777 0.750000 0.230259
O O9 0.250000 0.485617 0.250000
O O10 0.352110 0.419838 0.220186
O O11 0.420528 0.750000 0.721037
O O12 0.000000 0.750000 0.846695
O O13 0.264056 0.500000 0.500000
O O14 0.257537 0.750000 0.431471
O O15 0.198394 0.478629 0.421777
O O16 0.865552 0.500000 0.500000
O O17 0.867730 0.750000 0.429438
#
# Coordination Sequence:
#
# PCOD9539290 Si02
#       7
#     8  16  16   8   8  16  16
#     4  12  27  40  58  82 112 156 200 244 285 325
#     4   9  19  34  53  85 113 142 184 225 279 337
#     4   9  18  33  54  81 115 146 177 223 287 351
#     4  10  22  38  54  82 112 145 193 240 283 326
#     4  10  21  38  60  78 108 154 198 233 267 327
#     4   9  19  33  56  87 116 142 175 227 287 345
#     4  10  21  41  61  84 112 147 191 235 288 345
#
# _framework density 18.336866000000001
#
# number of rings (size 3 to 8) (size 9 to 14) (size 15 to 20)
#    0.000    2.364    0.909    0.545    5.091    1.818 
#    0.000    0.000    0.000    3.818    0.000    0.000 
#    0.000    0.000    0.000    0.000    0.000    0.000 
#
# Total GULP energy -245561.742604 kJ/mol
# GULP energy per Si atom -5580.948696 kJ/mol
# Density = 1.829513 g / cm^3
# Si number density = 18.336866 Si / 1000 Ang^3
#
#
#
# Elastic Constant Matrix: (Units=GPa)
#
#
# Indices 1 2 3 4 5 6 
#
# 1 178.1811 72.1635 42.1538 0.0000 0.0000 0.0000
# 2 72.1635 101.2345 23.1657 0.0000 0.0000 0.0000
# 3 42.1538 23.1657 39.1640 0.0000 0.0000 0.0000
# 4 0.0000 0.0000 0.0000 -20.1104 0.0000 0.0000
# 5 0.0000 0.0000 0.0000 0.0000 23.0074 0.0000
# 6 0.0000 0.0000 0.0000 0.0000 0.0000 21.9680
#
#
#
# Elastic Compliance Matrix: (Units=1/GPa)
#
#
# Indices 1 2 3 4 5 6 
#
# 1 0.009317 -0.005027 -0.007055 0.000000 0.000000 0.000000
# 2 -0.005027 0.014137 -0.002951 0.000000 0.000000 0.000000
# 3 -0.007055 -0.002951 0.034873 0.000000 0.000000 0.000000
# 4 0.000000 0.000000 0.000000 -0.049726 0.000000 0.000000
# 5 0.000000 0.000000 0.000000 0.000000 0.043464 0.000000
# 6 0.000000 0.000000 0.000000 0.000000 0.000000 0.045521
#
#
# Mechanical properties :
#
#
# Convention : Reuss Voigt Hill
#
# Bulk Modulus (GPa) = 35.38502 65.94949 50.66725
# Shear Modulus (GPa) = 36.47683 17.04613 26.76148
#
# Velocity S-wave (km/s) = 4.46495 3.05226 3.82440
# Velocity P-wave (km/s) = 6.77644 6.96170 6.86970
#
# Compressibility (1/GPa) = 0.02826054
#
# Stress axis : x y z
#
# Youngs Moduli (GPa) = 107.32599 70.73633 28.67569
#
# Poissons Ratio (x) = 0.35562 0.20231
# Poissons Ratio (y) = 0.53957 0.08462
# Poissons Ratio (z) = 0.75718 0.20874
#
# Static dielectric constant tensor:
#      x y z
#    x 1.600090 0.000000 0.000000 
#    y 0.000000 1.658580 0.000000 
#    z 0.000000 0.000000 1.613580 
# 
# From -- ./inp_files/61462.got.cif
#   From: 2010.05.17/outbox.cif.g08.bks.cpg/sg74_31_cif.got.tgz:61462.got - 2010.06.03 17:57:02.
