data_PCOD9539949
_publ_section_title
;
Structure prediction by ZEFSAII (Michael W. Deem and Ramdas Pophale) SiO2 
 PCOD9539949
Probable space group: I M M A
;
_chemical_formula_sum "Si O2"
_cell_formula_units_Z 104
_cell_length_a 8.625760
_cell_length_b 22.084933
_cell_length_c 27.066509
_cell_angle_alpha 90.000000
_cell_angle_beta 90.000000
_cell_angle_gamma 90.000000
_cell_volume 5156.151875
_symmetry_space_group_name_H-M "I M M A"
_symmetry_group_IT_number 74
_symmetry_cell_setting 'orthorhombic'
loop_
_space_group_symop_operation_xyz
x,y,z
-x,1/2-y,z
x,-y,-z
-x,1/2+y,-z
-x,-y,-z
x,1/2+y,-z
-x,y,z
x,1/2-y,z
1/2+x,1/2+y,1/2+z
1/2-x,-y,1/2+z
1/2+x,1/2-y,1/2-z
1/2-x,y,1/2-z
1/2-x,1/2-y,1/2-z
1/2+x,y,1/2-z
1/2-x,1/2+y,1/2+z
1/2+x,-y,1/2+z
loop_
_atom_site_type_symbol
_atom_site_label
_atom_site_fract_x
_atom_site_fract_y
_atom_site_fract_z
Si Si1 0.687150 0.179691 0.982244
Si Si2 0.185649 0.433475 0.360022
Si Si3 0.186608 0.318300 0.303530
Si Si4 0.684366 0.540262 0.302685
Si Si5 0.685534 0.558290 0.532394
Si Si6 0.185661 0.250000 0.804920
Si Si7 0.814051 0.141693 0.629835
O O1 0.500000 0.179629 0.986540
O O2 0.737454 0.250000 0.992119
O O3 0.727302 0.161452 0.925718
O O4 0.750513 0.123724 0.014531
O O5 0.230655 0.365212 0.345714
O O6 0.244842 0.475223 0.315528
O O7 0.261047 0.451690 0.411565
O O8 0.000000 0.438270 0.363832
O O9 0.240410 0.250000 0.313505
O O10 0.250000 0.336588 0.250000
O O11 0.000000 0.318256 0.300744
O O12 0.500000 0.538669 0.300008
O O13 0.750000 0.562625 0.250000
O O14 0.738690 0.581238 0.348662
O O15 0.739271 0.500000 0.500000
O O16 0.500000 0.560331 0.529280
O O17 0.250000 0.250000 0.750000
O O18 0.252102 0.307243 0.833682
O O19 0.000000 0.250000 0.805020
O O20 0.000000 0.136709 0.632385
#
# Coordination Sequence:
#
# PCOD9539949 Si02
#       7
#    16  16  16  16  16   8  16
#     4  10  22  42  67  94 124 163 210 263 320 382
#     4  11  23  40  63  90 121 161 205 255 312 372
#     4   9  19  36  59  88 121 156 195 239 292 357
#     4  12  25  41  61  90 126 165 209 258 313 375
#     4  11  25  43  63  91 126 163 208 264 320 380
#     4  12  24  38  58  86 122 162 204 252 305 360
#     4  11  22  41  64  89 122 161 208 257 309 369
#
# _framework density 20.170081
#
# number of rings (size 3 to 8) (size 9 to 14) (size 15 to 20)
#    0.000    1.231    0.769    5.308    0.000    8.308 
#    0.000    1.538    0.000    0.000    0.000    0.000 
#    0.000    0.000    0.000    0.000    0.000    0.000 
#
# Total GULP energy -290599.520104 kJ/mol
# GULP energy per Si atom -5588.452310 kJ/mol
# Density = 2.012417 g / cm^3
# Si number density = 20.170081 Si / 1000 Ang^3
#
#
#
# Elastic Constant Matrix: (Units=GPa)
#
#
# Indices 1 2 3 4 5 6 
#
# 1 15.3480 19.9613 13.9549 0.0000 0.0000 0.0000
# 2 19.9613 110.1143 30.6484 0.0000 0.0000 0.0000
# 3 13.9549 30.6484 59.2183 0.0000 0.0000 0.0000
# 4 0.0000 0.0000 0.0000 41.1256 0.0000 0.0000
# 5 0.0000 0.0000 0.0000 0.0000 27.5661 0.0000
# 6 0.0000 0.0000 0.0000 0.0000 0.0000 39.4003
#
#
#
# Elastic Compliance Matrix: (Units=1/GPa)
#
#
# Indices 1 2 3 4 5 6 
#
# 1 0.096733 -0.013074 -0.016029 0.000000 0.000000 0.000000
# 2 -0.013074 0.012377 -0.003325 0.000000 0.000000 0.000000
# 3 -0.016029 -0.003325 0.022385 0.000000 0.000000 0.000000
# 4 0.000000 0.000000 0.000000 0.024316 0.000000 0.000000
# 5 0.000000 0.000000 0.000000 0.000000 0.036276 0.000000
# 6 0.000000 0.000000 0.000000 0.000000 0.000000 0.025381
#
#
# Mechanical properties :
#
#
# Convention : Reuss Voigt Hill
#
# Bulk Modulus (GPa) = 15.00623 34.86776 24.93699
# Shear Modulus (GPa) = 16.41846 29.62614 23.02230
#
# Velocity S-wave (km/s) = 2.85617 3.83667 3.38214
# Velocity P-wave (km/s) = 4.28169 6.07874 5.25757
#
# Compressibility (1/GPa) = 0.06663899
#
# Stress axis : x y z
#
# Youngs Moduli (GPa) = 10.33775 80.79565 44.67367
#
# Poissons Ratio (x) = 1.05634 0.71606
# Poissons Ratio (y) = 0.13516 0.14853
# Poissons Ratio (z) = 0.16570 0.26862
#
# Static dielectric constant tensor:
#      x y z
#    x 1.674840 0.000000 0.000000 
#    y 0.000000 1.749580 0.000000 
#    z 0.000000 0.000000 1.705860 
# 
# From -- ./inp_files/64418.got.cif
#   From: 2010.05.17/outbox.cif.g08.bks.cpg/sg74_33_cif.got.tgz:64418.got - 2010.06.03 17:57:02.
