data_PCOD9539611
_publ_section_title
;
Structure prediction by ZEFSAII (Michael W. Deem and Ramdas Pophale) SiO2 
 PCOD9539611
Probable space group: I M M A
;
_chemical_formula_sum "Si O2"
_cell_formula_units_Z 52
_cell_length_a 22.619427
_cell_length_b 13.894384
_cell_length_c 7.481632
_cell_angle_alpha 90.000000
_cell_angle_beta 90.000000
_cell_angle_gamma 90.000000
_cell_volume 2351.349784
_symmetry_space_group_name_H-M "I M M A"
_symmetry_group_IT_number 74
_symmetry_cell_setting 'orthorhombic'
loop_
_space_group_symop_operation_xyz
x,y,z
-x,1/2-y,z
x,-y,-z
-x,1/2+y,-z
-x,-y,-z
x,1/2+y,-z
-x,y,z
x,1/2-y,z
1/2+x,1/2+y,1/2+z
1/2-x,-y,1/2+z
1/2+x,1/2-y,1/2-z
1/2-x,y,1/2-z
1/2-x,1/2-y,1/2-z
1/2+x,y,1/2-z
1/2-x,1/2+y,1/2+z
1/2+x,-y,1/2+z
loop_
_atom_site_type_symbol
_atom_site_label
_atom_site_fract_x
_atom_site_fract_y
_atom_site_fract_z
Si Si1 0.372924 0.042288 0.309107
Si Si2 0.738407 0.250000 0.964887
Si Si3 0.885990 0.750000 0.653921
Si Si4 0.750000 0.914127 0.750000
Si Si5 0.500000 0.460321 0.800516
Si Si6 0.500000 0.750000 0.095266
O O1 0.383683 0.155181 0.274547
O O2 0.309750 0.026786 0.210032
O O3 0.358767 0.000000 0.500000
O O4 0.436472 0.995565 0.267819
O O5 0.750000 0.250000 0.750000
O O6 0.668819 0.250000 0.015543
O O7 0.761321 0.156939 0.078828
O O8 0.943927 0.750000 0.534231
O O9 0.500000 0.345856 0.790074
O O10 0.500000 0.500000 0.000000
#
# Coordination Sequence:
#
# PCOD9539611 Si02
#       6
#    16   8   8   8   8   4
#     4  11  24  45  71 101 144 192 240 302 372 441
#     4   9  19  40  71 104 139 194 244 296 374 441
#     4  10  21  42  71  98 148 186 238 310 364 428
#     4   9  22  44  66 105 152 184 242 315 362 431
#     4  12  25  44  73 103 137 187 245 291 373 443
#     4  12  24  44  68 104 142 182 234 310 354 428
#
# _framework density 22.114957
#
# number of rings (size 3 to 8) (size 9 to 14) (size 15 to 20)
#    0.000    1.538    3.077    1.385    0.000    4.923 
#    2.769    0.000    0.000    0.000    0.000    0.000 
#    0.000    0.000    0.000    0.000    0.000    0.000 
#
# Total GULP energy -144934.318483 kJ/mol
# GULP energy per Si atom -5574.396865 kJ/mol
# Density = 2.206462 g / cm^3
# Si number density = 22.114957 Si / 1000 Ang^3
#
#
#
# Elastic Constant Matrix: (Units=GPa)
#
#
# Indices 1 2 3 4 5 6 
#
# 1 221.5754 84.5087 32.1144 0.0000 0.0000 0.0000
# 2 84.5087 135.8843 57.1384 0.0000 0.0000 0.0000
# 3 32.1144 57.1384 131.5314 0.0000 0.0000 0.0000
# 4 0.0000 0.0000 0.0000 61.7948 0.0000 0.0000
# 5 0.0000 0.0000 0.0000 0.0000 18.1574 0.0000
# 6 0.0000 0.0000 0.0000 0.0000 0.0000-1298.8014
#
#
#
# Elastic Compliance Matrix: (Units=1/GPa)
#
#
# Indices 1 2 3 4 5 6 
#
# 1 0.005920 -0.003761 0.000188 0.000000 0.000000 0.000000
# 2 -0.003761 0.011393 -0.004031 0.000000 0.000000 0.000000
# 3 0.000188 -0.004031 0.009308 0.000000 0.000000 0.000000
# 4 0.000000 0.000000 0.000000 0.016183 0.000000 0.000000
# 5 0.000000 0.000000 0.000000 0.000000 0.055074 0.000000
# 6 0.000000 0.000000 0.000000 0.000000 0.000000 -0.000770
#
#
# Mechanical properties :
#
#
# Convention : Reuss Voigt Hill
#
# Bulk Modulus (GPa) = 87.61245 92.94599 90.27922
# Shear Modulus (GPa) = 43.05870 -222.75453 -89.84792
#
# Velocity S-wave (km/s) = 4.41731 -10.04711 -6.38090
# Velocity P-wave (km/s) = 8.10677 9.61627 3.65739
#
# Compressibility (1/GPa) = 0.01141390
#
# Stress axis : x y z
#
# Youngs Moduli (GPa) = 168.90910 87.77029 107.43586
#
# Poissons Ratio (x) = 0.33012 -0.02024
# Poissons Ratio (y) = 0.63530 0.43308
# Poissons Ratio (z) = -0.03182 0.35381
#
# Static dielectric constant tensor:
#      x y z
#    x 1.145120 0.000000 0.000000 
#    y 0.000000 1.747330 0.000000 
#    z 0.000000 0.000000 1.801110 
# 
# From -- ./inp_files/11616.got.cif
#   From: 2010.05.17/outbox.cif.g08.bks.cpg/sg74_6_cif.got.tgz:11616.got - 2010.06.03 17:57:02.
