data_PCOD9539337
_publ_section_title
;
Structure prediction by ZEFSAII (Michael W. Deem and Ramdas Pophale) SiO2 
 PCOD9539337
Probable space group: I M M A
;
_chemical_formula_sum "Si O2"
_cell_formula_units_Z 100
_cell_length_a 18.609685
_cell_length_b 14.978913
_cell_length_c 20.294781
_cell_angle_alpha 90.000000
_cell_angle_beta 90.000000
_cell_angle_gamma 90.000000
_cell_volume 5657.228096
_symmetry_space_group_name_H-M "I M M A"
_symmetry_group_IT_number 74
_symmetry_cell_setting 'orthorhombic'
loop_
_space_group_symop_operation_xyz
x,y,z
-x,1/2-y,z
x,-y,-z
-x,1/2+y,-z
-x,-y,-z
x,1/2+y,-z
-x,y,z
x,1/2-y,z
1/2+x,1/2+y,1/2+z
1/2-x,-y,1/2+z
1/2+x,1/2-y,1/2-z
1/2-x,y,1/2-z
1/2-x,1/2-y,1/2-z
1/2+x,y,1/2-z
1/2-x,1/2+y,1/2+z
1/2+x,-y,1/2+z
loop_
_atom_site_type_symbol
_atom_site_label
_atom_site_fract_x
_atom_site_fract_y
_atom_site_fract_z
Si Si1 0.217154 0.648029 0.321292
Si Si2 0.500000 0.250000 0.203119
Si Si3 0.133983 0.116073 0.278721
Si Si4 0.084455 0.412764 0.742730
Si Si5 0.916236 0.355519 0.895134
Si Si6 0.710008 0.524860 0.429666
Si Si7 0.278831 0.849399 0.646666
O O1 0.240256 0.750000 0.334254
O O2 0.250000 0.619819 0.250000
O O3 0.132528 0.643666 0.307432
O O4 0.241732 0.582297 0.378964
O O5 0.563795 0.327105 0.205418
O O6 0.196657 0.127607 0.333055
O O7 0.172889 0.149605 0.212302
O O8 0.111840 0.013844 0.266394
O O9 0.096762 0.379761 0.817908
O O10 0.000000 0.406406 0.730254
O O11 0.904106 0.250000 0.904361
O O12 0.861839 0.415844 0.936539
O O13 0.000000 0.374342 0.908985
O O14 0.743334 0.500000 0.500000
O O15 0.692931 0.429864 0.397157
O O16 0.281467 0.750000 0.617472
#
# Coordination Sequence:
#
# PCOD9539337 Si02
#       7
#    16   4  16  16  16  16  16
#     4  11  21  38  64  91 120 155 201 259 309 361
#     4  12  20  30  56  96 118 150 204 256 282 362
#     4  11  19  33  55  84 120 151 192 243 294 348
#     4  11  20  32  59  95 122 152 189 251 317 363
#     4  10  21  38  61  88 125 159 199 247 302 363
#     4  12  25  39  60  88 122 161 206 246 300 364
#     4  11  21  37  54  78 116 158 190 240 297 342
#
# _framework density 17.676501999999999
#
# number of rings (size 3 to 8) (size 9 to 14) (size 15 to 20)
#    0.000    0.960    7.200    1.440    0.000    2.560 
#    0.000    0.000    0.000    0.480    0.000    0.000 
#    0.000    0.000    0.000    0.000    0.000    0.000 
#
# Total GULP energy -278536.537002 kJ/mol
# GULP energy per Si atom -5570.730740 kJ/mol
# Density = 1.763627 g / cm^3
# Si number density = 17.676502 Si / 1000 Ang^3
#
#
#
# Elastic Constant Matrix: (Units=GPa)
#
#
# Indices 1 2 3 4 5 6 
#
# 1 102.2953 20.3890 11.4081 0.0000 0.0000 0.0000
# 2 20.3890 116.7650 33.1719 0.0000 0.0000 0.0000
# 3 11.4081 33.1719 56.4464 0.0000 0.0000 0.0000
# 4 0.0000 0.0000 0.0000 0.4089 0.0000 0.0000
# 5 0.0000 0.0000 0.0000 0.0000 13.3760 0.0000
# 6 0.0000 0.0000 0.0000 0.0000 0.0000 31.9214
#
#
#
# Elastic Compliance Matrix: (Units=1/GPa)
#
#
# Indices 1 2 3 4 5 6 
#
# 1 0.010197 -0.001435 -0.001218 0.000000 0.000000 0.000000
# 2 -0.001435 0.010482 -0.005870 0.000000 0.000000 0.000000
# 3 -0.001218 -0.005870 0.021412 0.000000 0.000000 0.000000
# 4 0.000000 0.000000 0.000000 2.445780 0.000000 0.000000
# 5 0.000000 0.000000 0.000000 0.000000 0.074761 0.000000
# 6 0.000000 0.000000 0.000000 0.000000 0.000000 0.031327
#
#
# Mechanical properties :
#
#
# Convention : Reuss Voigt Hill
#
# Bulk Modulus (GPa) = 39.92632 45.04942 42.48787
# Shear Modulus (GPa) = 1.90887 23.17708 12.54298
#
# Velocity S-wave (km/s) = 1.04030 3.62495 2.66669
# Velocity P-wave (km/s) = 4.90706 6.56210 5.79398
#
# Compressibility (1/GPa) = 0.02504613
#
# Stress axis : x y z
#
# Youngs Moduli (GPa) = 98.06441 95.39796 46.70313
#
# Poissons Ratio (x) = 0.13686 0.05688
# Poissons Ratio (y) = 0.14069 0.27416
# Poissons Ratio (z) = 0.11943 0.56001
#
# Static dielectric constant tensor:
#      x y z
#    x 1.621660 0.000000 0.000000 
#    y 0.000000 1.633550 0.000000 
#    z 0.000000 0.000000 1.601310 
# 
# From -- ./inp_files/53064.got.cif
#   From: 2010.05.17/outbox.cif.g08.bks.cpg/sg74_27_cif.got.tgz:53064.got - 2010.06.03 17:57:02.
