data_PCOD9539857
_publ_section_title
;
Structure prediction by ZEFSAII (Michael W. Deem and Ramdas Pophale) SiO2 
 PCOD9539857
Probable space group: I M M A
;
_chemical_formula_sum "Si O2"
_cell_formula_units_Z 96
_cell_length_a 14.247097
_cell_length_b 20.912866
_cell_length_c 16.296412
_cell_angle_alpha 90.000000
_cell_angle_beta 90.000000
_cell_angle_gamma 90.000000
_cell_volume 4855.477340
_symmetry_space_group_name_H-M "I M M A"
_symmetry_group_IT_number 74
_symmetry_cell_setting 'orthorhombic'
loop_
_space_group_symop_operation_xyz
x,y,z
-x,1/2-y,z
x,-y,-z
-x,1/2+y,-z
-x,-y,-z
x,1/2+y,-z
-x,y,z
x,1/2-y,z
1/2+x,1/2+y,1/2+z
1/2-x,-y,1/2+z
1/2+x,1/2-y,1/2-z
1/2-x,y,1/2-z
1/2-x,1/2-y,1/2-z
1/2+x,y,1/2-z
1/2-x,1/2+y,1/2+z
1/2+x,-y,1/2+z
loop_
_atom_site_type_symbol
_atom_site_label
_atom_site_fract_x
_atom_site_fract_y
_atom_site_fract_z
Si Si1 0.212182 0.502716 0.595680
Si Si2 0.387189 0.116897 0.192464
Si Si3 0.889698 0.080333 0.120943
Si Si4 0.114423 0.750000 0.613619
Si Si5 0.609752 0.674419 0.469823
Si Si6 0.611835 0.250000 0.922361
Si Si7 0.728705 0.862709 0.154746
O O1 0.186600 0.500000 0.500000
O O2 0.158058 0.559551 0.641217
O O3 0.322038 0.521066 0.603111
O O4 0.195512 0.434762 0.637625
O O5 0.500000 0.114376 0.182671
O O6 0.367464 0.107181 0.288641
O O7 0.354054 0.185284 0.158304
O O8 0.000000 0.063591 0.118350
O O9 0.871658 0.133910 0.052005
O O10 0.141484 0.750000 0.518092
O O11 0.000000 0.750000 0.616470
O O12 0.500000 0.665532 0.448545
O O13 0.625006 0.750000 0.483204
O O14 0.678098 0.650080 0.398923
O O15 0.500000 0.250000 0.919335
O O16 0.653585 0.187975 0.878236
O O17 0.750000 0.853044 0.250000
#
# Coordination Sequence:
#
# PCOD9539857 Si02
#       7
#    16  16  16   8  16   8  16
#     4  12  24  42  65  91 128 170 212 260 315 376
#     4  10  22  40  64  96 130 164 210 258 312 378
#     4  10  22  41  64  96 133 165 203 254 315 383
#     4   9  20  39  63  91 125 164 204 254 305 366
#     4  10  22  40  66  97 130 166 205 257 320 378
#     4  11  25  45  65  90 125 167 215 261 318 374
#     4  12  25  43  65  91 126 162 213 270 314 371
#
# _framework density 19.771485999999999
#
# number of rings (size 3 to 8) (size 9 to 14) (size 15 to 20)
#    0.000    1.333    2.500    2.750    1.167    2.667 
#    0.000    0.833    0.000    0.000    0.000    0.000 
#    0.000    0.000    0.000    0.000    0.000    0.000 
#
# Total GULP energy -268526.173175 kJ/mol
# GULP energy per Si atom -5594.295274 kJ/mol
# Density = 1.972649 g / cm^3
# Si number density = 19.771486 Si / 1000 Ang^3
#
#
#
# Elastic Constant Matrix: (Units=GPa)
#
#
# Indices 1 2 3 4 5 6 
#
# 1 65.8621 45.7738 57.9236 0.0000 0.0000 0.0000
# 2 45.7738 150.8601 55.9880 0.0000 0.0000 0.0001
# 3 57.9236 55.9880 164.0020 0.0000 0.0000 0.0000
# 4 0.0000 0.0000 0.0000 21.9392 0.0000 0.0001
# 5 0.0000 0.0000 0.0000 0.0000 23.6295 0.0000
# 6 0.0000 0.0001 0.0000 0.0001 0.0000 -34.5335
#
#
#
# Elastic Compliance Matrix: (Units=1/GPa)
#
#
# Indices 1 2 3 4 5 6 
#
# 1 0.024830 -0.004900 -0.007097 0.000000 0.000000 0.000000
# 2 -0.004900 0.008557 -0.001191 0.000000 0.000000 0.000000
# 3 -0.007097 -0.001191 0.009011 0.000000 0.000000 0.000000
# 4 0.000000 0.000000 0.000000 0.045580 0.000000 0.000000
# 5 0.000000 0.000000 0.000000 0.000000 0.042320 0.000000
# 6 0.000000 0.000000 0.000000 0.000000 0.000000 -0.028957
#
#
# Mechanical properties :
#
#
# Convention : Reuss Voigt Hill
#
# Bulk Modulus (GPa) = 62.41156 77.78833 70.09995
# Shear Modulus (GPa) = 37.57768 16.94296 27.26032
#
# Velocity S-wave (km/s) = 4.36432 2.93053 3.71721
# Velocity P-wave (km/s) = 7.55191 7.13301 7.34544
#
# Compressibility (1/GPa) = 0.01602267
#
# Stress axis : x y z
#
# Youngs Moduli (GPa) = 40.27329 116.85867 110.98114
#
# Poissons Ratio (x) = 0.57262 0.78763
# Poissons Ratio (y) = 0.19734 0.13214
# Poissons Ratio (z) = 0.28582 0.13914
#
# Static dielectric constant tensor:
#      x y z
#    x 1.710050 0.000000 0.000000 
#    y 0.000000 1.661600 0.000000 
#    z 0.000000 0.000000 1.659530 
# 
# From -- ./inp_files/32438.got.cif
#   From: 2010.05.17/outbox.cif.g08.bks.cpg/sg74_17_cif.got.tgz:32438.got - 2010.06.03 17:57:02.
