data_PCOD9539067
_publ_section_title
;
Structure prediction by ZEFSAII (Michael W. Deem and Ramdas Pophale) SiO2 
 PCOD9539067
Probable space group: I M M A
;
_chemical_formula_sum "Si O2"
_cell_formula_units_Z 80
_cell_length_a 23.884417
_cell_length_b 14.311460
_cell_length_c 10.210709
_cell_angle_alpha 90.000000
_cell_angle_beta 90.000000
_cell_angle_gamma 90.000000
_cell_volume 3490.233521
_symmetry_space_group_name_H-M "I M M A"
_symmetry_group_IT_number 74
_symmetry_cell_setting 'orthorhombic'
loop_
_space_group_symop_operation_xyz
x,y,z
-x,1/2-y,z
x,-y,-z
-x,1/2+y,-z
-x,-y,-z
x,1/2+y,-z
-x,y,z
x,1/2-y,z
1/2+x,1/2+y,1/2+z
1/2-x,-y,1/2+z
1/2+x,1/2-y,1/2-z
1/2-x,y,1/2-z
1/2-x,1/2-y,1/2-z
1/2+x,y,1/2-z
1/2-x,1/2+y,1/2+z
1/2+x,-y,1/2+z
loop_
_atom_site_type_symbol
_atom_site_label
_atom_site_fract_x
_atom_site_fract_y
_atom_site_fract_z
Si Si1 0.407488 0.974174 0.144363
Si Si2 0.440112 0.637608 0.382613
Si Si3 0.700905 0.640933 0.067628
Si Si4 0.654098 0.856714 0.774889
Si Si5 0.319772 0.137373 0.510183
O O1 0.440271 0.904948 0.237266
O O2 0.346686 0.924124 0.127592
O O3 0.397040 0.072560 0.213681
O O4 0.428974 0.000000 0.000000
O O5 0.500000 0.612676 0.447082
O O6 0.437513 0.750000 0.377595
O O7 0.381179 0.605432 0.445219
O O8 0.695345 0.750000 0.111167
O O9 0.764279 0.605837 0.086301
O O10 0.687639 0.640108 0.911312
O O11 0.635003 0.750000 0.757738
O O12 0.686858 0.882596 0.643688
O O13 0.318380 0.250000 0.524399
#
# Coordination Sequence:
#
# PCOD9539067 Si02
#       5
#    16  16  16  16  16
#     4  10  21  37  55  88 116 151 193 242 290 351
#     4  10  22  41  63  85 113 152 197 246 297 345
#     4   9  17  33  57  86 119 150 187 235 293 354
#     4   9  18  35  56  83 119 156 187 228 288 350
#     4   9  18  35  58  84 116 154 191 237 293 352
#
# _framework density 22.921102000000001
#
# number of rings (size 3 to 8) (size 9 to 14) (size 15 to 20)
#    0.000    2.600    0.000    1.200    0.000    5.200 
#   18.000    5.000    0.000    3.000    0.000    5.600 
#    0.000    0.000    0.000    0.000    0.000    0.000 
#
# Total GULP energy -223333.402918 kJ/mol
# GULP energy per Si atom -5583.335073 kJ/mol
# Density = 2.286893 g / cm^3
# Si number density = 22.921102 Si / 1000 Ang^3
#
#
#
# Elastic Constant Matrix: (Units=GPa)
#
#
# Indices 1 2 3 4 5 6 
#
# 1 131.8192 23.1557 21.8910 0.0000 0.0000 0.0000
# 2 23.1557 86.8299 11.1759 0.0000 0.0000 0.0000
# 3 21.8910 11.1759 45.5015 0.0000 0.0000 0.0000
# 4 0.0000 0.0000 0.0000 26.5480 0.0000 0.0000
# 5 0.0000 0.0000 0.0000 0.0000 1.8984 0.0000
# 6 0.0000 0.0000 0.0000 0.0000 0.0000 -31.5391
#
#
#
# Elastic Compliance Matrix: (Units=1/GPa)
#
#
# Indices 1 2 3 4 5 6 
#
# 1 0.008509 -0.001799 -0.003652 0.000000 0.000000 0.000000
# 2 -0.001799 0.012273 -0.002149 0.000000 0.000000 0.000000
# 3 -0.003652 -0.002149 0.024262 0.000000 0.000000 0.000000
# 4 0.000000 0.000000 0.000000 0.037668 0.000000 0.000000
# 5 0.000000 0.000000 0.000000 0.000000 0.526752 0.000000
# 6 0.000000 0.000000 0.000000 0.000000 0.000000 -0.031707
#
#
# Mechanical properties :
#
#
# Convention : Reuss Voigt Hill
#
# Bulk Modulus (GPa) = 33.50718 41.84398 37.67558
# Shear Modulus (GPa) = 8.29320 13.24335 10.76827
#
# Velocity S-wave (km/s) = 1.90421 2.40631 2.16983
# Velocity P-wave (km/s) = 4.41417 5.10056 4.76973
#
# Compressibility (1/GPa) = 0.02984435
#
# Stress axis : x y z
#
# Youngs Moduli (GPa) = 117.52824 81.47875 41.21685
#
# Poissons Ratio (x) = 0.14658 0.15051
# Poissons Ratio (y) = 0.21144 0.08857
# Poissons Ratio (z) = 0.42917 0.17509
#
# Static dielectric constant tensor:
#      x y z
#    x 1.881940 0.000000 0.000000 
#    y 0.000000 1.857900 0.000000 
#    z 0.000000 0.000000 1.891540 
# 
# From -- ./inp_files/20482.got.cif
#   From: 2010.05.17/outbox.cif.g08.bks.cpg/sg74_11_cif.got.tgz:20482.got - 2010.06.03 17:57:02.
