data_PCOD9539164
_publ_section_title
;
Structure prediction by ZEFSAII (Michael W. Deem and Ramdas Pophale) SiO2 
 PCOD9539164
Probable space group: I M M A
;
_chemical_formula_sum "Si O2"
_cell_formula_units_Z 112
_cell_length_a 14.038269
_cell_length_b 13.766576
_cell_length_c 26.966443
_cell_angle_alpha 90.000000
_cell_angle_beta 90.000000
_cell_angle_gamma 90.000000
_cell_volume 5211.505033
_symmetry_space_group_name_H-M "I M M A"
_symmetry_group_IT_number 74
_symmetry_cell_setting 'orthorhombic'
loop_
_space_group_symop_operation_xyz
x,y,z
-x,1/2-y,z
x,-y,-z
-x,1/2+y,-z
-x,-y,-z
x,1/2+y,-z
-x,y,z
x,1/2-y,z
1/2+x,1/2+y,1/2+z
1/2-x,-y,1/2+z
1/2+x,1/2-y,1/2-z
1/2-x,y,1/2-z
1/2-x,1/2-y,1/2-z
1/2+x,y,1/2-z
1/2-x,1/2+y,1/2+z
1/2+x,-y,1/2+z
loop_
_atom_site_type_symbol
_atom_site_label
_atom_site_fract_x
_atom_site_fract_y
_atom_site_fract_z
Si Si1 0.700457 0.633691 0.022077
Si Si2 0.614334 0.862486 0.919579
Si Si3 0.612452 0.508307 0.626232
Si Si4 0.614841 0.474022 0.180234
Si Si5 0.383989 0.139257 0.279083
Si Si6 0.392208 0.364966 0.472231
Si Si7 0.218130 0.634281 0.368683
O O1 0.685722 0.750000 0.020357
O O2 0.671054 0.607691 0.077635
O O3 0.651459 0.596241 0.971918
O O4 0.812526 0.615195 0.013172
O O5 0.500000 0.863606 0.921415
O O6 0.645728 0.750000 0.915527
O O7 0.643933 0.917051 0.869813
O O8 0.500000 0.485734 0.629202
O O9 0.639464 0.576139 0.672837
O O10 0.626811 0.571749 0.576517
O O11 0.677687 0.413586 0.628762
O O12 0.500000 0.480822 0.180850
O O13 0.645163 0.414557 0.228596
O O14 0.660550 0.579782 0.174247
O O15 0.500000 0.143660 0.277727
O O16 0.349557 0.250000 0.282096
O O17 0.500000 0.383649 0.489682
O O18 0.385915 0.250000 0.459565
O O19 0.220709 0.750000 0.363877
#
# Coordination Sequence:
#
# PCOD9539164 Si02
#       7
#    16  16  16  16  16  16  16
#     4   9  19  35  53  74 107 151 192 232 278 324
#     4   9  17  31  54  85 117 145 176 221 280 344
#     4  10  21  37  59  86 114 146 184 225 276 337
#     4  10  21  37  59  86 114 146 184 225 276 337
#     4   9  18  37  65  94 123 147 168 210 278 350
#     4   9  17  31  54  85 117 145 176 221 280 344
#     4  11  25  42  56  74 107 152 200 245 278 308
#
# _framework density 21.490912999999999
#
# number of rings (size 3 to 8) (size 9 to 14) (size 15 to 20)
#    0.000    2.429    0.000    1.714    0.000    8.000 
#    0.000   10.000    0.000    2.571    0.000    0.000 
#    0.000    0.000    0.000    0.000    0.000    0.000 
#
# Total GULP energy -313061.715142 kJ/mol
# GULP energy per Si atom -5590.387770 kJ/mol
# Density = 2.144200 g / cm^3
# Si number density = 21.490913 Si / 1000 Ang^3
#
#
#
# Elastic Constant Matrix: (Units=GPa)
#
#
# Indices 1 2 3 4 5 6 
#
# 1 39.0985 14.1773 7.6003 0.0000 0.0000 0.0000
# 2 14.1773 136.3559 46.6203 0.0000 0.0000 0.0000
# 3 7.6003 46.6203 86.6175 0.0000 0.0000 0.0000
# 4 0.0000 0.0000 0.0000 31.8359 0.0000 0.0000
# 5 0.0000 0.0000 0.0000 0.0000 -68.4505 0.0000
# 6 0.0000 0.0000 0.0000 0.0000 0.0000 27.6246
#
#
#
# Elastic Compliance Matrix: (Units=1/GPa)
#
#
# Indices 1 2 3 4 5 6 
#
# 1 0.026654 -0.002416 -0.001038 0.000000 0.000000 0.000000
# 2 -0.002416 0.009207 -0.004743 0.000000 0.000000 0.000000
# 3 -0.001038 -0.004743 0.014189 0.000000 0.000000 0.000000
# 4 0.000000 0.000000 0.000000 0.031411 0.000000 0.000000
# 5 0.000000 0.000000 0.000000 0.000000 -0.014609 0.000000
# 6 0.000000 0.000000 0.000000 0.000000 0.000000 0.036200
#
#
# Mechanical properties :
#
#
# Convention : Reuss Voigt Hill
#
# Bulk Modulus (GPa) = 29.71379 44.31865 37.01622
# Shear Modulus (GPa) = 38.26553 11.11360 24.68956
#
# Velocity S-wave (km/s) = 4.22423 2.27652 3.39313
# Velocity P-wave (km/s) = 6.13583 5.25137 5.71074
#
# Compressibility (1/GPa) = 0.03365441
#
# Stress axis : x y z
#
# Youngs Moduli (GPa) = 37.51720 108.61601 70.47643
#
# Poissons Ratio (x) = 0.26246 0.07317
# Poissons Ratio (y) = 0.09066 0.33429
# Poissons Ratio (z) = 0.03895 0.51520
#
# Static dielectric constant tensor:
#      x y z
#    x 1.807610 0.000000 0.000000 
#    y 0.000000 1.787510 0.000000 
#    z 0.000000 0.000000 1.754500 
# 
# From -- ./inp_files/60108.got.cif
#   From: 2010.05.17/outbox.cif.g08.bks.cpg/sg74_31_cif.got.tgz:60108.got - 2010.06.03 17:57:02.
