data_PCOD9539916
_publ_section_title
;
Structure prediction by ZEFSAII (Michael W. Deem and Ramdas Pophale) SiO2 
 PCOD9539916
Probable space group: I M M A
;
_chemical_formula_sum "Si O2"
_cell_formula_units_Z 72
_cell_length_a 13.789966
_cell_length_b 26.984701
_cell_length_c 9.745180
_cell_angle_alpha 90.000000
_cell_angle_beta 90.000000
_cell_angle_gamma 90.000000
_cell_volume 3626.357956
_symmetry_space_group_name_H-M "I M M A"
_symmetry_group_IT_number 74
_symmetry_cell_setting 'orthorhombic'
loop_
_space_group_symop_operation_xyz
x,y,z
-x,1/2-y,z
x,-y,-z
-x,1/2+y,-z
-x,-y,-z
x,1/2+y,-z
-x,y,z
x,1/2-y,z
1/2+x,1/2+y,1/2+z
1/2-x,-y,1/2+z
1/2+x,1/2-y,1/2-z
1/2-x,y,1/2-z
1/2-x,1/2-y,1/2-z
1/2+x,y,1/2-z
1/2-x,1/2+y,1/2+z
1/2+x,-y,1/2+z
loop_
_atom_site_type_symbol
_atom_site_label
_atom_site_fract_x
_atom_site_fract_y
_atom_site_fract_z
Si Si1 0.000000 0.631977 0.281815
Si Si2 0.500000 0.058300 0.005658
Si Si3 0.327155 0.196275 0.872116
Si Si4 0.703407 0.652067 0.600909
Si Si5 0.000000 0.310277 0.009550
Si Si6 0.784364 0.049501 0.406552
O O1 0.000000 0.577147 0.346774
O O2 0.905495 0.654897 0.350521
O O3 0.000000 0.655172 0.128606
O O4 0.603371 0.069488 0.081038
O O5 0.500000 0.000000 0.000000
O O6 0.374784 0.250000 0.867675
O O7 0.250000 0.193710 0.750000
O O8 0.268164 0.187893 0.008973
O O9 0.750000 0.650819 0.750000
O O10 0.595561 0.673156 0.591257
O O11 0.716672 0.595613 0.545369
O O12 0.000000 0.250000 0.982097
O O13 0.750000 0.038331 0.250000
O O14 0.776078 0.000000 0.500000
#
# Coordination Sequence:
#
# PCOD9539916 Si02
#       6
#     8   8  16  16   8  16
#     4  12  22  39  66  96 129 171 227 277 332 389
#     4  10  22  41  66 101 131 173 218 281 340 405
#     4  11  22  38  63  94 129 170 225 278 328 391
#     4  11  25  43  65  96 138 177 220 279 342 412
#     4  12  26  44  68 101 139 180 232 286 341 406
#     4  10  23  43  69  97 135 174 226 282 344 407
#
# _framework density 19.854631000000001
#
# number of rings (size 3 to 8) (size 9 to 14) (size 15 to 20)
#    0.000    1.111    4.444    1.667    0.000   10.667 
#    0.000    1.111    0.000    0.000    0.000    0.000 
#    0.000    0.000    0.000    0.000    0.000    0.000 
#
# Total GULP energy -200623.341262 kJ/mol
# GULP energy per Si atom -5572.870591 kJ/mol
# Density = 1.980944 g / cm^3
# Si number density = 19.854631 Si / 1000 Ang^3
#
#
#
# Elastic Constant Matrix: (Units=GPa)
#
#
# Indices 1 2 3 4 5 6 
#
# 1 112.4066 31.4345 37.1450 0.0001 0.0000 0.0000
# 2 31.4345 123.7707 36.0731 0.0000 0.0000 0.0000
# 3 37.1450 36.0731 91.2585 0.0000 0.0004 0.0003
# 4 0.0001 0.0000 0.0000 39.8148 0.0001 0.0001
# 5 0.0000 0.0000 0.0004 0.0001 20.7723 0.0000
# 6 0.0000 0.0000 0.0003 0.0001 0.0000 31.6929
#
#
#
# Elastic Compliance Matrix: (Units=1/GPa)
#
#
# Indices 1 2 3 4 5 6 
#
# 1 0.010557 -0.001615 -0.003659 0.000000 0.000000 0.000000
# 2 -0.001615 0.009378 -0.003050 0.000000 0.000000 0.000000
# 3 -0.003659 -0.003050 0.013653 0.000000 0.000000 0.000000
# 4 0.000000 0.000000 0.000000 0.025116 0.000000 0.000000
# 5 0.000000 0.000000 0.000000 0.000000 0.048141 0.000000
# 6 0.000000 0.000000 0.000000 0.000000 0.000000 0.031553
#
#
# Mechanical properties :
#
#
# Convention : Reuss Voigt Hill
#
# Bulk Modulus (GPa) = 59.02753 59.63787 59.33270
# Shear Modulus (GPa) = 31.11545 33.30822 32.21184
#
# Velocity S-wave (km/s) = 3.96304 4.10030 4.03225
# Velocity P-wave (km/s) = 7.12287 7.24701 7.18521
#
# Compressibility (1/GPa) = 0.01694125
#
# Stress axis : x y z
#
# Youngs Moduli (GPa) = 94.72498 106.62717 73.24596
#
# Poissons Ratio (x) = 0.17219 0.26798
# Poissons Ratio (y) = 0.15297 0.22339
# Poissons Ratio (z) = 0.34656 0.32520
#
# Static dielectric constant tensor:
#      x y z
#    x 1.683950 0.000000 0.000000 
#    y 0.000000 1.743360 0.000000 
#    z 0.000000 0.000000 1.698610 
# 
# From -- ./inp_files/9181.got.cif
#   From: 2010.05.17/outbox.cif.g08.bks.cpg/sg74_5_cif.got.tgz:9181.got - 2010.06.03 17:57:02.
