data_PCOD9539673
_publ_section_title
;
Structure prediction by ZEFSAII (Michael W. Deem and Ramdas Pophale) SiO2 
 PCOD9539673
Probable space group: I M M A
;
_chemical_formula_sum "Si O2"
_cell_formula_units_Z 112
_cell_length_a 13.869363
_cell_length_b 25.878004
_cell_length_c 16.385058
_cell_angle_alpha 90.000000
_cell_angle_beta 90.000000
_cell_angle_gamma 90.000000
_cell_volume 5880.784617
_symmetry_space_group_name_H-M "I M M A"
_symmetry_group_IT_number 74
_symmetry_cell_setting 'orthorhombic'
loop_
_space_group_symop_operation_xyz
x,y,z
-x,1/2-y,z
x,-y,-z
-x,1/2+y,-z
-x,-y,-z
x,1/2+y,-z
-x,y,z
x,1/2-y,z
1/2+x,1/2+y,1/2+z
1/2-x,-y,1/2+z
1/2+x,1/2-y,1/2-z
1/2-x,y,1/2-z
1/2-x,1/2-y,1/2-z
1/2+x,y,1/2-z
1/2-x,1/2+y,1/2+z
1/2+x,-y,1/2+z
loop_
_atom_site_type_symbol
_atom_site_label
_atom_site_fract_x
_atom_site_fract_y
_atom_site_fract_z
Si Si1 0.799211 0.691273 0.114550
Si Si2 0.775685 0.597343 0.844504
Si Si3 0.889022 0.629466 0.378933
Si Si4 0.385280 0.189671 0.432446
Si Si5 0.384740 0.595213 0.295216
Si Si6 0.110964 0.056569 0.463996
Si Si7 0.384327 0.500448 0.405125
O O1 0.812175 0.750000 0.141396
O O2 0.687190 0.675383 0.112799
O O3 0.849336 0.650169 0.172862
O O4 0.847013 0.685235 0.025294
O O5 0.750000 0.602643 0.750000
O O6 0.823098 0.649678 0.879607
O O7 0.682651 0.578280 0.895837
O O8 0.851011 0.551263 0.860702
O O9 0.861268 0.594217 0.300632
O O10 0.884275 0.595426 0.459891
O O11 0.000000 0.646498 0.367140
O O12 0.500000 0.177682 0.429641
O O13 0.373191 0.250000 0.408068
O O14 0.500000 0.592992 0.301405
O O15 0.347442 0.549745 0.353923
O O16 0.000000 0.054182 0.434053
O O17 0.134634 0.000000 0.500000
O O18 0.353065 0.500000 0.500000
O O19 0.500000 0.502508 0.406169
#
# Coordination Sequence:
#
# PCOD9539673 Si02
#       7
#    16  16  16  16  16  16  16
#     4  11  22  38  62  89 119 158 207 255 302 363
#     4  12  25  38  65  97 124 156 201 257 305 365
#     4  10  22  40  60  83 120 166 206 250 299 359
#     4  10  22  43  68  91 121 159 198 249 313 374
#     4  10  22  37  58  90 126 162 203 248 303 366
#     4  10  23  42  62  85 123 171 209 242 294 362
#     4  10  22  40  62  90 127 163 198 249 308 363
#
# _framework density 19.045076000000002
#
# number of rings (size 3 to 8) (size 9 to 14) (size 15 to 20)
#    0.000    1.571    1.429    2.571    4.000    4.857 
#    0.000    1.429    0.000    0.429    0.000    0.000 
#    0.000    0.000    0.000    0.000    0.000    0.000 
#
# Total GULP energy -312870.289583 kJ/mol
# GULP energy per Si atom -5586.969457 kJ/mol
# Density = 1.900173 g / cm^3
# Si number density = 19.045076 Si / 1000 Ang^3
#
#
#
# Elastic Constant Matrix: (Units=GPa)
#
#
# Indices 1 2 3 4 5 6 
#
# 1 94.6640 52.5727 62.7072 0.0000 0.0000 0.0000
# 2 52.5727 84.2915 38.3891 0.0001 -0.0001 0.0000
# 3 62.7072 38.3891 103.0950 0.0001 0.0000 0.0000
# 4 0.0000 0.0001 0.0001 11.5641 -0.0001 0.0000
# 5 0.0000 -0.0001 0.0000 -0.0001 6.5941 0.0000
# 6 0.0000 0.0000 0.0000 0.0000 0.0000 34.3889
#
#
#
# Elastic Compliance Matrix: (Units=1/GPa)
#
#
# Indices 1 2 3 4 5 6 
#
# 1 0.022562 -0.009419 -0.010216 0.000000 0.000000 0.000000
# 2 -0.009419 0.018219 -0.001055 0.000000 0.000000 0.000000
# 3 -0.010216 -0.001055 0.016306 0.000000 0.000000 0.000000
# 4 0.000000 0.000000 0.000000 0.086475 0.000001 0.000000
# 5 0.000000 0.000000 0.000000 0.000001 0.151650 0.000000
# 6 0.000000 0.000000 0.000000 0.000000 0.000000 0.029079
#
#
# Mechanical properties :
#
#
# Convention : Reuss Voigt Hill
#
# Bulk Modulus (GPa) = 63.66495 65.48761 64.57628
# Shear Modulus (GPa) = 13.48049 19.06819 16.27434
#
# Velocity S-wave (km/s) = 2.66337 3.16763 2.92638
# Velocity P-wave (km/s) = 6.55433 6.91655 6.73788
#
# Compressibility (1/GPa) = 0.01570723
#
# Stress axis : x y z
#
# Youngs Moduli (GPa) = 44.32251 54.88835 61.32598
#
# Poissons Ratio (x) = 0.51701 0.62649
# Poissons Ratio (y) = 0.41749 0.06469
# Poissons Ratio (z) = 0.45279 0.05790
#
# Static dielectric constant tensor:
#      x y z
#    x 1.688940 0.000000 0.000000 
#    y 0.000000 1.631660 0.000000 
#    z 0.000000 0.000000 1.640380 
# 
# From -- ./inp_files/32710.got.cif
#   From: 2010.05.17/outbox.cif.g08.bks.cpg/sg74_17_cif.got.tgz:32710.got - 2010.06.03 17:57:02.
