data_PCOD9539295
_publ_section_title
;
Structure prediction by ZEFSAII (Michael W. Deem and Ramdas Pophale) SiO2 
 PCOD9539295
Probable space group: I M M A
;
_chemical_formula_sum "Si O2"
_cell_formula_units_Z 80
_cell_length_a 15.485320
_cell_length_b 7.812820
_cell_length_c 29.209089
_cell_angle_alpha 90.000000
_cell_angle_beta 90.000000
_cell_angle_gamma 90.000000
_cell_volume 3533.832944
_symmetry_space_group_name_H-M "I M M A"
_symmetry_group_IT_number 74
_symmetry_cell_setting 'orthorhombic'
loop_
_space_group_symop_operation_xyz
x,y,z
-x,1/2-y,z
x,-y,-z
-x,1/2+y,-z
-x,-y,-z
x,1/2+y,-z
-x,y,z
x,1/2-y,z
1/2+x,1/2+y,1/2+z
1/2-x,-y,1/2+z
1/2+x,1/2-y,1/2-z
1/2-x,y,1/2-z
1/2-x,1/2-y,1/2-z
1/2+x,y,1/2-z
1/2-x,1/2+y,1/2+z
1/2+x,-y,1/2+z
loop_
_atom_site_type_symbol
_atom_site_label
_atom_site_fract_x
_atom_site_fract_y
_atom_site_fract_z
Si Si1 0.718513 0.546879 0.548744
Si Si2 0.401981 0.551768 0.929590
Si Si3 0.399137 0.442223 0.830178
Si Si4 0.599064 0.044024 0.634766
Si Si5 0.849304 0.052211 0.764726
O O1 0.677174 0.500000 0.500000
O O2 0.728162 0.750000 0.550638
O O3 0.816096 0.468870 0.549162
O O4 0.661392 0.498679 0.592597
O O5 0.500000 0.479291 0.936654
O O6 0.408122 0.750000 0.943505
O O7 0.376723 0.543750 0.875669
O O8 0.500000 0.417207 0.835041
O O9 0.357055 0.250000 0.831111
O O10 0.388624 0.528773 0.780919
O O11 0.500000 0.984590 0.628141
O O12 0.597731 0.250000 0.637078
O O13 0.633205 0.982023 0.684711
O O14 0.882221 0.250000 0.765519
O O15 0.750000 0.055579 0.750000
#
# Coordination Sequence:
#
# PCOD9539295 Si02
#       5
#    16  16  16  16  16
#     4  11  24  41  61  83 108 141 184 237 293 346
#     4   9  19  36  56  81 115 150 182 222 278 342
#     4   9  16  27  47  76 108 142 179 215 253 307
#     4  10  21  38  60  85 115 152 192 234 280 329
#     4   9  16  27  48  79 113 146 180 221 267 316
#
# _framework density 22.638309
#
# number of rings (size 3 to 8) (size 9 to 14) (size 15 to 20)
#    0.000    2.400    0.000    2.400    0.000    6.800 
#    0.000    1.000    0.000    6.000    0.000    0.000 
#    0.000    0.000    0.000    0.000    0.000    0.000 
#
# Total GULP energy -222787.312270 kJ/mol
# GULP energy per Si atom -5569.682807 kJ/mol
# Density = 2.258678 g / cm^3
# Si number density = 22.638309 Si / 1000 Ang^3
#
#
#
# Elastic Constant Matrix: (Units=GPa)
#
#
# Indices 1 2 3 4 5 6 
#
# 1 105.5674 8.5827 56.2773 0.0000 0.0000 0.0000
# 2 8.5827 35.2476 -6.5249 0.0000 0.0000 0.0000
# 3 56.2773 -6.5249 153.7184 0.0000 0.0000 0.0000
# 4 0.0000 0.0000 0.0000 18.9286 0.0000 0.0000
# 5 0.0000 0.0000 0.0000 0.0000 10.6407 0.0000
# 6 0.0000 0.0000 0.0000 0.0000 0.0000 12.8353
#
#
#
# Elastic Compliance Matrix: (Units=1/GPa)
#
#
# Indices 1 2 3 4 5 6 
#
# 1 0.012267 -0.003848 -0.004654 0.000000 0.000000 0.000000
# 2 -0.003848 0.029803 0.002674 0.000000 0.000000 0.000000
# 3 -0.004654 0.002674 0.008323 0.000000 0.000000 0.000000
# 4 0.000000 0.000000 0.000000 0.052830 0.000000 0.000000
# 5 0.000000 0.000000 0.000000 0.000000 0.093979 0.000000
# 6 0.000000 0.000000 0.000000 0.000000 0.000000 0.077910
#
#
# Mechanical properties :
#
#
# Convention : Reuss Voigt Hill
#
# Bulk Modulus (GPa) = 25.81655 45.68929 35.75292
# Shear Modulus (GPa) = 16.68442 24.22747 20.45594
#
# Velocity S-wave (km/s) = 2.71772 3.27494 3.00925
# Velocity P-wave (km/s) = 4.61266 5.87592 5.28219
#
# Compressibility (1/GPa) = 0.03873485
#
# Stress axis : x y z
#
# Youngs Moduli (GPa) = 81.52183 33.55388 120.15111
#
# Poissons Ratio (x) = 0.12913 0.55921
# Poissons Ratio (y) = 0.31373 -0.32128
# Poissons Ratio (z) = 0.37942 -0.08972
#
# Static dielectric constant tensor:
#      x y z
#    x 1.971850 0.000000 0.000000 
#    y 0.000000 1.888740 0.000000 
#    z 0.000000 0.000000 1.908900 
# 
# From -- ./inp_files/67513.got.cif
#   From: 2010.05.17/outbox.cif.g08.bks.cpg/sg74_34_cif.got.tgz:67513.got - 2010.06.03 17:57:02.
