data_PCOD9539536
_publ_section_title
;
Structure prediction by ZEFSAII (Michael W. Deem and Ramdas Pophale) SiO2 
 PCOD9539536
Probable space group: I M M A
;
_chemical_formula_sum "Si O2"
_cell_formula_units_Z 116
_cell_length_a 25.282010
_cell_length_b 7.833063
_cell_length_c 27.851899
_cell_angle_alpha 90.000000
_cell_angle_beta 90.000000
_cell_angle_gamma 90.000000
_cell_volume 5515.666892
_symmetry_space_group_name_H-M "I M M A"
_symmetry_group_IT_number 74
_symmetry_cell_setting 'orthorhombic'
loop_
_space_group_symop_operation_xyz
x,y,z
-x,1/2-y,z
x,-y,-z
-x,1/2+y,-z
-x,-y,-z
x,1/2+y,-z
-x,y,z
x,1/2-y,z
1/2+x,1/2+y,1/2+z
1/2-x,-y,1/2+z
1/2+x,1/2-y,1/2-z
1/2-x,y,1/2-z
1/2-x,1/2-y,1/2-z
1/2+x,y,1/2-z
1/2-x,1/2+y,1/2+z
1/2+x,-y,1/2+z
loop_
_atom_site_type_symbol
_atom_site_label
_atom_site_fract_x
_atom_site_fract_y
_atom_site_fract_z
Si Si1 0.936563 0.053830 0.321791
Si Si2 0.644721 0.545017 0.354869
Si Si3 0.940727 0.453385 0.220402
Si Si4 0.801197 0.046415 0.945746
Si Si5 0.420013 0.938825 0.072206
Si Si6 0.189847 0.053872 0.400966
Si Si7 0.745364 0.455801 0.805239
Si Si8 0.500000 0.250000 0.045148
O O1 0.918505 0.250000 0.329626
O O2 0.916385 0.981615 0.270990
O O3 0.000000 0.061494 0.315367
O O4 0.927943 0.951336 0.370085
O O5 0.642710 0.750000 0.353472
O O6 0.595340 0.482899 0.325046
O O7 0.652743 0.488418 0.409508
O O8 0.698896 0.492003 0.328723
O O9 0.944228 0.250000 0.227855
O O10 0.000000 0.521794 0.213365
O O11 0.796371 0.250000 0.941045
O O12 0.745516 0.973681 0.927360
O O13 0.811478 0.000000 0.000000
O O14 0.437148 0.750000 0.054785
O O15 0.356556 0.956930 0.070557
O O16 0.453746 0.095774 0.050807
O O17 0.174688 0.250000 0.402968
O O18 0.200650 0.009341 0.344360
O O19 0.742347 0.250000 0.803825
O O20 0.750000 0.516769 0.750000
#
# Coordination Sequence:
#
# PCOD9539536 Si02
#       8
#    16  16  16  16  16  16  16   4
#     4   9  16  31  46  67 104 146 197 246 279 324
#     4   9  19  34  52  79 113 145 185 235 289 352
#     4   9  19  32  50  73 108 152 193 240 285 333
#     4  10  21  40  64  89 113 141 180 234 300 361
#     4  12  22  35  56  79 115 158 198 250 297 340
#     4  11  22  37  55  84 120 149 192 243 287 352
#     4   9  19  35  51  74 111 153 195 240 292 351
#     4  12  22  40  52  82 116 152 208 252 290 346
#
# _framework density 21.031001
#
# number of rings (size 3 to 8) (size 9 to 14) (size 15 to 20)
#    0.000    2.069    2.069    3.517    1.931    3.862 
#    0.000    1.379    0.000    0.414    0.000    0.483 
#    0.000    0.000    0.000    0.000    0.000    0.000 
#
# Total GULP energy -323185.552800 kJ/mol
# GULP energy per Si atom -5572.164703 kJ/mol
# Density = 2.098313 g / cm^3
# Si number density = 21.031001 Si / 1000 Ang^3
#
#
#
# Elastic Constant Matrix: (Units=GPa)
#
#
# Indices 1 2 3 4 5 6 
#
# 1 53.6434 13.6789 17.2507 0.0000 0.0000 0.0000
# 2 13.6789 90.5516 14.6036 0.0000 0.0000 0.0000
# 3 17.2507 14.6036 117.5690 0.0000 0.0000 0.0000
# 4 0.0000 0.0000 0.0000 27.8672 0.0000 0.0000
# 5 0.0000 0.0000 0.0000 0.0000 -5.1066 0.0000
# 6 0.0000 0.0000 0.0000 0.0000 0.0000 25.4884
#
#
#
# Elastic Compliance Matrix: (Units=1/GPa)
#
#
# Indices 1 2 3 4 5 6 
#
# 1 0.020156 -0.002620 -0.002632 0.000000 0.000000 0.000000
# 2 -0.002620 0.011610 -0.001058 0.000000 0.000000 0.000000
# 3 -0.002632 -0.001058 0.009023 0.000000 0.000000 0.000000
# 4 0.000000 0.000000 0.000000 0.035884 0.000000 0.000000
# 5 0.000000 0.000000 0.000000 0.000000 -0.195825 0.000000
# 6 0.000000 0.000000 0.000000 0.000000 0.000000 0.039233
#
#
# Mechanical properties :
#
#
# Convention : Reuss Voigt Hill
#
# Bulk Modulus (GPa) = 35.49965 39.20337 37.35151
# Shear Modulus (GPa) = -86.34386 24.06520 -31.13933
#
# Velocity S-wave (km/s) = -6.41441 3.38638 -3.85208
# Velocity P-wave (km/s) = 6.15981 5.82849 1.40924
#
# Compressibility (1/GPa) = 0.02816929
#
# Stress axis : x y z
#
# Youngs Moduli (GPa) = 49.61252 86.13396 110.82547
#
# Poissons Ratio (x) = 0.22570 0.29169
# Poissons Ratio (y) = 0.13000 0.11721
# Poissons Ratio (z) = 0.13058 0.09110
#
# Static dielectric constant tensor:
#      x y z
#    x 1.760280 0.000000 0.000000 
#    y 0.000000 1.791670 0.000000 
#    z 0.000000 0.000000 1.806730 
# 
# From -- ./inp_files/73759.got.cif
#   From: 2010.05.17/outbox.cif.g08.bks.cpg/sg74_37_cif.got.tgz:73759.got - 2010.06.03 17:57:02.
