data_PCOD9539538
_publ_section_title
;
Structure prediction by ZEFSAII (Michael W. Deem and Ramdas Pophale) SiO2 
 PCOD9539538
Probable space group: I M M A
;
_chemical_formula_sum "Si O2"
_cell_formula_units_Z 52
_cell_length_a 17.486043
_cell_length_b 7.259198
_cell_length_c 17.847123
_cell_angle_alpha 90.000000
_cell_angle_beta 90.000000
_cell_angle_gamma 90.000000
_cell_volume 2265.418282
_symmetry_space_group_name_H-M "I M M A"
_symmetry_group_IT_number 74
_symmetry_cell_setting 'orthorhombic'
loop_
_space_group_symop_operation_xyz
x,y,z
-x,1/2-y,z
x,-y,-z
-x,1/2+y,-z
-x,-y,-z
x,1/2+y,-z
-x,y,z
x,1/2-y,z
1/2+x,1/2+y,1/2+z
1/2-x,-y,1/2+z
1/2+x,1/2-y,1/2-z
1/2-x,y,1/2-z
1/2-x,1/2-y,1/2-z
1/2+x,y,1/2-z
1/2-x,1/2+y,1/2+z
1/2+x,-y,1/2+z
loop_
_atom_site_type_symbol
_atom_site_label
_atom_site_fract_x
_atom_site_fract_y
_atom_site_fract_z
Si Si1 0.696412 0.968302 0.416193
Si Si2 0.000000 0.250000 0.434149
Si Si3 0.130988 0.472207 0.613574
Si Si4 0.587486 0.527255 0.284262
O O1 0.701138 0.750000 0.404097
O O2 0.784038 0.030988 0.410241
O O3 0.641095 0.040426 0.351315
O O4 0.666868 0.000000 0.500000
O O5 0.066696 0.410251 0.426562
O O6 0.120584 0.250000 0.602761
O O7 0.120896 0.511913 0.702332
O O8 0.500000 0.461645 0.288604
O O9 0.584641 0.750000 0.289525
#
# Coordination Sequence:
#
# PCOD9539538 Si02
#       4
#    16   4  16  16
#     4  10  22  39  60  86 122 166 202 245 304 363
#     4  12  22  36  68  98 118 152 202 264 304 360
#     4  10  21  40  64  89 124 158 203 252 304 361
#     4   9  17  36  65  89 117 159 204 246 302 362
#
# _framework density 22.953817000000001
#
# number of rings (size 3 to 8) (size 9 to 14) (size 15 to 20)
#    0.000    2.154    1.538    1.385    2.154    4.308 
#    2.769    2.308    0.000    0.000    0.000    0.000 
#    0.000    0.000    0.000    0.000    0.000    0.000 
#
# Total GULP energy -144964.548085 kJ/mol
# GULP energy per Si atom -5575.559542 kJ/mol
# Density = 2.290157 g / cm^3
# Si number density = 22.953817 Si / 1000 Ang^3
#
#
#
# Elastic Constant Matrix: (Units=GPa)
#
#
# Indices 1 2 3 4 5 6 
#
# 1 62.3087 6.1280 64.6579 0.0000 0.0000 0.0000
# 2 6.1280 115.8911 23.4799 0.0000 0.0000 0.0000
# 3 64.6579 23.4799 161.4538 0.0000 0.0000 0.0000
# 4 0.0000 0.0000 0.0000 7.7908 0.0000 0.0000
# 5 0.0000 0.0000 0.0000 0.0000 -1.8947 0.0000
# 6 0.0000 0.0000 0.0000 0.0000 0.0000 -55.8564
#
#
#
# Elastic Compliance Matrix: (Units=1/GPa)
#
#
# Indices 1 2 3 4 5 6 
#
# 1 0.027533 0.000802 -0.011143 0.000000 0.000000 0.000000
# 2 0.000802 0.008914 -0.001617 0.000000 0.000000 0.000000
# 3 -0.011143 -0.001617 0.010891 0.000000 0.000000 0.000000
# 4 0.000000 0.000000 0.000000 0.128356 0.000000 0.000000
# 5 0.000000 0.000000 0.000000 0.000000 -0.527777 0.000000
# 6 0.000000 0.000000 0.000000 0.000000 0.000000 -0.017903
#
#
# Mechanical properties :
#
#
# Convention : Reuss Voigt Hill
#
# Bulk Modulus (GPa) = 42.69580 58.68723 50.69152
# Shear Modulus (GPa) = -14.78147 6.36713 -4.20717
#
# Velocity S-wave (km/s) = -2.54040 1.66731 -1.35531
# Velocity P-wave (km/s) = 3.16801 5.41568 4.43654
#
# Compressibility (1/GPa) = 0.02342150
#
# Stress axis : x y z
#
# Youngs Moduli (GPa) = 36.31962 112.18186 91.81565
#
# Poissons Ratio (x) = -0.08994 1.02310
# Poissons Ratio (y) = -0.02912 0.14850
# Poissons Ratio (z) = 0.40471 0.18145
#
# Static dielectric constant tensor:
#      x y z
#    x 1.797180 0.000000 0.000000 
#    y 0.000000 1.869440 0.000000 
#    z 0.000000 0.000000 1.870680 
# 
# From -- ./inp_files/38758.got.cif
#   From: 2010.05.17/outbox.cif.g08.bks.cpg/sg74_20_cif.got.tgz:38758.got - 2010.06.03 17:57:02.
