data_PCOD9539316
_publ_section_title
;
Structure prediction by ZEFSAII (Michael W. Deem and Ramdas Pophale) SiO2 
 PCOD9539316
Probable space group: I M M A
;
_chemical_formula_sum "Si O2"
_cell_formula_units_Z 96
_cell_length_a 20.828271
_cell_length_b 26.921242
_cell_length_c 8.368117
_cell_angle_alpha 90.000000
_cell_angle_beta 90.000000
_cell_angle_gamma 90.000000
_cell_volume 4692.195033
_symmetry_space_group_name_H-M "I M M A"
_symmetry_group_IT_number 74
_symmetry_cell_setting 'orthorhombic'
loop_
_space_group_symop_operation_xyz
x,y,z
-x,1/2-y,z
x,-y,-z
-x,1/2+y,-z
-x,-y,-z
x,1/2+y,-z
-x,y,z
x,1/2-y,z
1/2+x,1/2+y,1/2+z
1/2-x,-y,1/2+z
1/2+x,1/2-y,1/2-z
1/2-x,y,1/2-z
1/2-x,1/2-y,1/2-z
1/2+x,y,1/2-z
1/2-x,1/2+y,1/2+z
1/2+x,-y,1/2+z
loop_
_atom_site_type_symbol
_atom_site_label
_atom_site_fract_x
_atom_site_fract_y
_atom_site_fract_z
Si Si1 0.575418 0.807579 0.571938
Si Si2 0.193288 0.840119 0.135994
Si Si3 0.429121 0.614666 0.849555
Si Si4 0.101045 0.020032 0.155060
Si Si5 0.153368 0.429910 0.636338
Si Si6 0.229152 0.424271 0.068755
O O1 0.500000 0.819273 0.526454
O O2 0.576524 0.750000 0.621050
O O3 0.629232 0.813688 0.432067
O O4 0.592148 0.843339 0.722119
O O5 0.250000 0.816994 0.250000
O O6 0.169385 0.888247 0.233794
O O7 0.225364 0.866551 0.982760
O O8 0.500000 0.629132 0.907325
O O9 0.432111 0.563917 0.749777
O O10 0.385066 0.599261 0.997951
O O11 0.162297 0.047295 0.073086
O O12 0.119164 0.976441 0.279716
O O13 0.065699 0.000000 0.000000
O O14 0.219610 0.446857 0.553955
O O15 0.250000 0.427700 0.250000
#
# Coordination Sequence:
#
# PCOD9539316 Si02
#       6
#    16  16  16  16  16  16
#     4  10  21  42  69  91 117 163 217 269 326 387
#     4  10  21  38  60  94 131 160 202 258 318 373
#     4  11  24  41  58  82 118 161 209 260 310 376
#     4  12  23  34  56  84 119 162 205 247 298 363
#     4  11  23  35  56  87 125 163 200 249 310 368
#     4  11  21  33  56  85 122 157 204 245 295 359
#
# _framework density 20.459508
#
# number of rings (size 3 to 8) (size 9 to 14) (size 15 to 20)
#    0.000    1.167    5.000    0.500    2.333    2.667 
#    0.000    0.833    0.000   11.500    0.000    0.000 
#    0.000    0.000    0.000    0.000    0.000    0.000 
#
# Total GULP energy -267590.004119 kJ/mol
# GULP energy per Si atom -5574.791752 kJ/mol
# Density = 2.041294 g / cm^3
# Si number density = 20.459508 Si / 1000 Ang^3
#
#
#
# Elastic Constant Matrix: (Units=GPa)
#
#
# Indices 1 2 3 4 5 6 
#
# 1 115.4234 30.2001 45.0444 0.0000 0.0000 0.0000
# 2 30.2001 85.2422 36.5421 0.0000 0.0000 0.0000
# 3 45.0444 36.5421 98.3332 0.0000 0.0000 0.0000
# 4 0.0000 0.0000 0.0000 21.2181 0.0000 0.0000
# 5 0.0000 0.0000 0.0000 0.0000 160.6021 0.0000
# 6 0.0000 0.0000 0.0000 0.0000 0.0000 29.1636
#
#
#
# Elastic Compliance Matrix: (Units=1/GPa)
#
#
# Indices 1 2 3 4 5 6 
#
# 1 0.010839 -0.002036 -0.004208 0.000000 0.000000 0.000000
# 2 -0.002036 0.014337 -0.004395 0.000000 0.000000 0.000000
# 3 -0.004208 -0.004395 0.013731 0.000000 0.000000 0.000000
# 4 0.000000 0.000000 0.000000 0.047129 0.000000 0.000000
# 5 0.000000 0.000000 0.000000 0.000000 0.006227 0.000000
# 6 0.000000 0.000000 0.000000 0.000000 0.000000 0.034289
#
#
# Mechanical properties :
#
#
# Convention : Reuss Voigt Hill
#
# Bulk Modulus (GPa) = 56.73076 58.06354 57.39715
# Shear Modulus (GPa) = 32.52960 54.67758 43.60359
#
# Velocity S-wave (km/s) = 3.99174 5.17521 4.62152
# Velocity P-wave (km/s) = 7.00242 8.00948 7.52282
#
# Compressibility (1/GPa) = 0.01762712
#
# Stress axis : x y z
#
# Youngs Moduli (GPa) = 92.26105 69.75101 72.83003
#
# Poissons Ratio (x) = 0.14201 0.30650
# Poissons Ratio (y) = 0.18784 0.32010
# Poissons Ratio (z) = 0.38828 0.30656
#
# Static dielectric constant tensor:
#      x y z
#    x 1.871850 0.000000 0.000000 
#    y 0.000000 1.721070 0.000000 
#    z 0.000000 0.000000 1.971520 
# 
# From -- ./inp_files/12622.got.cif
#   From: 2010.05.17/outbox.cif.g08.bks.cpg/sg74_7_cif.got.tgz:12622.got - 2010.06.03 17:57:02.
