data_PCOD9539436
_publ_section_title
;
Structure prediction by ZEFSAII (Michael W. Deem and Ramdas Pophale) SiO2 
 PCOD9539436
Probable space group: I M M A
;
_chemical_formula_sum "Si O2"
_cell_formula_units_Z 72
_cell_length_a 17.357528
_cell_length_b 13.810501
_cell_length_c 14.082708
_cell_angle_alpha 90.000000
_cell_angle_beta 90.000000
_cell_angle_gamma 90.000000
_cell_volume 3375.852653
_symmetry_space_group_name_H-M "I M M A"
_symmetry_group_IT_number 74
_symmetry_cell_setting 'orthorhombic'
loop_
_space_group_symop_operation_xyz
x,y,z
-x,1/2-y,z
x,-y,-z
-x,1/2+y,-z
-x,-y,-z
x,1/2+y,-z
-x,y,z
x,1/2-y,z
1/2+x,1/2+y,1/2+z
1/2-x,-y,1/2+z
1/2+x,1/2-y,1/2-z
1/2-x,y,1/2-z
1/2-x,1/2-y,1/2-z
1/2+x,y,1/2-z
1/2-x,1/2+y,1/2+z
1/2+x,-y,1/2+z
loop_
_atom_site_type_symbol
_atom_site_label
_atom_site_fract_x
_atom_site_fract_y
_atom_site_fract_z
Si Si1 0.908661 0.644411 0.366648
Si Si2 0.811263 0.140844 0.996967
Si Si3 0.174743 0.500000 0.500000
Si Si4 0.590519 0.553753 0.326111
Si Si5 0.660934 0.143575 0.285632
O O1 0.879622 0.750000 0.399678
O O2 0.874527 0.551934 0.419837
O O3 0.895250 0.634093 0.254288
O O4 0.000000 0.642629 0.381397
O O5 0.800765 0.250000 0.960359
O O6 0.732387 0.087241 0.024783
O O7 0.857580 0.079359 0.917909
O O8 0.849358 0.149162 0.100022
O O9 0.500000 0.551653 0.351614
O O10 0.613794 0.454634 0.271436
O O11 0.636666 0.250000 0.247189
O O12 0.750000 0.130996 0.250000
#
# Coordination Sequence:
#
# PCOD9539436 Si02
#       5
#    16  16   8  16  16
#     4  10  23  42  66  95 127 168 216 270 332 392
#     4  11  23  38  61  94 127 168 215 262 321 386
#     4  12  21  40  63  92 128 160 210 268 321 388
#     4  11  23  41  64  94 132 172 217 271 330 391
#     4  10  21  39  61  88 126 172 219 265 318 383
#
# _framework density 21.327946000000001
#
# number of rings (size 3 to 8) (size 9 to 14) (size 15 to 20)
#    0.000    1.333    2.222    3.000    0.000    3.556 
#    0.000    5.556    0.000    2.667    0.000    0.000 
#    0.000    0.000    0.000    0.000    0.000    0.000 
#
# Total GULP energy -200480.886897 kJ/mol
# GULP energy per Si atom -5568.913525 kJ/mol
# Density = 2.127940 g / cm^3
# Si number density = 21.327946 Si / 1000 Ang^3
#
#
#
# Elastic Constant Matrix: (Units=GPa)
#
#
# Indices 1 2 3 4 5 6 
#
# 1 54.0450 44.3410 45.5760 0.0000 0.0000 0.0000
# 2 44.3410 159.9525 45.9434 0.0000 0.0000 0.0000
# 3 45.5760 45.9434 82.9691 0.0000 0.0000 0.0000
# 4 0.0000 0.0000 0.0000 15.2223 0.0000 0.0000
# 5 0.0000 0.0000 0.0000 0.0000 105.1916 0.0000
# 6 0.0000 0.0000 0.0000 0.0000 0.0000 12.9665
#
#
#
# Elastic Compliance Matrix: (Units=1/GPa)
#
#
# Indices 1 2 3 4 5 6 
#
# 1 0.038028 -0.005401 -0.017899 0.000000 0.000000 0.000000
# 2 -0.005401 0.008201 -0.001575 0.000000 0.000000 0.000000
# 3 -0.017899 -0.001575 0.022757 0.000000 0.000000 0.000000
# 4 0.000000 0.000000 0.000000 0.065693 0.000000 0.000000
# 5 0.000000 0.000000 0.000000 0.000000 0.009506 0.000000
# 6 0.000000 0.000000 0.000000 0.000000 0.000000 0.077122
#
#
# Mechanical properties :
#
#
# Convention : Reuss Voigt Hill
#
# Bulk Modulus (GPa) = 51.98129 63.18750 57.58440
# Shear Modulus (GPa) = 18.02007 37.41648 27.71828
#
# Velocity S-wave (km/s) = 2.90988 4.19303 3.60894
# Velocity P-wave (km/s) = 5.97621 7.28923 6.66514
#
# Compressibility (1/GPa) = 0.01923769
#
# Stress axis : x y z
#
# Youngs Moduli (GPa) = 26.29638 121.93139 43.94329
#
# Poissons Ratio (x) = 0.65853 0.78653
# Poissons Ratio (y) = 0.14202 0.06920
# Poissons Ratio (z) = 0.47067 0.19200
#
# Static dielectric constant tensor:
#      x y z
#    x 1.769810 0.000000 0.000000 
#    y 0.000000 1.882020 0.000000 
#    z 0.000000 0.000000 1.808130 
# 
# From -- ./inp_files/33805.got.cif
#   From: 2010.05.17/outbox.cif.g08.bks.cpg/sg74_17_cif.got.tgz:33805.got - 2010.06.03 17:57:02.
