data_PCOD9539722
_publ_section_title
;
Structure prediction by ZEFSAII (Michael W. Deem and Ramdas Pophale) SiO2 
 PCOD9539722
Probable space group: I M M A
;
_chemical_formula_sum "Si O2"
_cell_formula_units_Z 80
_cell_length_a 25.622571
_cell_length_b 18.288513
_cell_length_c 9.021442
_cell_angle_alpha 90.000000
_cell_angle_beta 90.000000
_cell_angle_gamma 90.000000
_cell_volume 4227.436199
_symmetry_space_group_name_H-M "I M M A"
_symmetry_group_IT_number 74
_symmetry_cell_setting 'orthorhombic'
loop_
_space_group_symop_operation_xyz
x,y,z
-x,1/2-y,z
x,-y,-z
-x,1/2+y,-z
-x,-y,-z
x,1/2+y,-z
-x,y,z
x,1/2-y,z
1/2+x,1/2+y,1/2+z
1/2-x,-y,1/2+z
1/2+x,1/2-y,1/2-z
1/2-x,y,1/2-z
1/2-x,1/2-y,1/2-z
1/2+x,y,1/2-z
1/2-x,1/2+y,1/2+z
1/2+x,-y,1/2+z
loop_
_atom_site_type_symbol
_atom_site_label
_atom_site_fract_x
_atom_site_fract_y
_atom_site_fract_z
Si Si1 0.940688 0.663650 0.931561
Si Si2 0.375474 0.835821 0.859644
Si Si3 0.393296 0.556504 0.367710
Si Si4 0.806110 0.024072 0.327076
Si Si5 0.941459 0.578052 0.428625
O O1 0.943488 0.750000 0.952819
O O2 0.919571 0.650533 0.765753
O O3 0.000000 0.634076 0.950310
O O4 0.897284 0.632008 0.043203
O O5 0.361441 0.750000 0.858146
O O6 0.330128 0.894048 0.825520
O O7 0.401597 0.861203 0.013680
O O8 0.403072 0.500000 0.500000
O O9 0.343803 0.528567 0.272092
O O10 0.437671 0.564197 0.244930
O O11 0.750000 0.022843 0.250000
O O12 0.803528 0.000000 0.500000
O O13 0.927137 0.500000 0.500000
O O14 0.000000 0.597261 0.473422
#
# Coordination Sequence:
#
# PCOD9539722 Si02
#       5
#    16  16  16  16  16
#     4  10  22  38  59  93 136 175 209 248 306 379
#     4  11  22  42  66  92 130 168 212 260 314 379
#     4  12  21  39  63  94 125 167 210 263 311 365
#     4  12  25  46  70  93 118 157 216 270 328 379
#     4  11  21  36  59  90 128 169 214 254 300 368
#
# _framework density 18.923999999999999
#
# number of rings (size 3 to 8) (size 9 to 14) (size 15 to 20)
#    0.000    0.800    6.000    1.800    0.000    5.600 
#    0.000    0.000    0.000    1.200    0.000    0.000 
#    0.000    0.000    0.000    0.000    0.000    0.000 
#
# Total GULP energy -223031.978385 kJ/mol
# GULP energy per Si atom -5575.799460 kJ/mol
# Density = 1.888093 g / cm^3
# Si number density = 18.924000 Si / 1000 Ang^3
#
#
#
# Elastic Constant Matrix: (Units=GPa)
#
#
# Indices 1 2 3 4 5 6 
#
# 1 110.0245 60.6662 34.8209 0.0000 0.0000 0.0000
# 2 60.6662 81.5205 44.8264 0.0000 0.0000 0.0000
# 3 34.8209 44.8264 128.8153 0.0000 0.0000 0.0000
# 4 0.0000 0.0000 0.0000 29.6188 0.0000 0.0000
# 5 0.0000 0.0000 0.0000 0.0000 22.2554 0.0000
# 6 0.0000 0.0000 0.0000 0.0000 0.0000 13.6253
#
#
#
# Elastic Compliance Matrix: (Units=1/GPa)
#
#
# Indices 1 2 3 4 5 6 
#
# 1 0.015418 -0.011355 -0.000216 0.000000 0.000000 0.000000
# 2 -0.011355 0.023532 -0.005120 0.000000 0.000000 0.000000
# 3 -0.000216 -0.005120 0.009603 0.000000 0.000000 0.000000
# 4 0.000000 0.000000 0.000000 0.033762 0.000000 0.000000
# 5 0.000000 0.000000 0.000000 0.000000 0.044933 0.000000
# 6 0.000000 0.000000 0.000000 0.000000 0.000000 0.073393
#
#
# Mechanical properties :
#
#
# Convention : Reuss Voigt Hill
#
# Bulk Modulus (GPa) = 65.91214 66.77636 66.34425
# Shear Modulus (GPa) = 20.91337 25.10301 23.00819
#
# Velocity S-wave (km/s) = 3.32795 3.64609 3.49064
# Velocity P-wave (km/s) = 7.04787 7.28619 7.16802
#
# Compressibility (1/GPa) = 0.01517171
#
# Stress axis : x y z
#
# Youngs Moduli (GPa) = 64.85719 42.49474 104.13322
#
# Poissons Ratio (x) = 0.48254 0.02253
# Poissons Ratio (y) = 0.73647 0.53311
# Poissons Ratio (z) = 0.01403 0.21755
#
# Static dielectric constant tensor:
#      x y z
#    x 1.649070 0.000000 0.000000 
#    y 0.000000 1.687760 0.000000 
#    z 0.000000 0.000000 1.721530 
# 
# From -- ./inp_files/14901.got.cif
#   From: 2010.05.17/outbox.cif.g08.bks.cpg/sg74_8_cif.got.tgz:14901.got - 2010.06.03 17:57:02.
