data_PCOD9539974
_publ_section_title
;
Structure prediction by ZEFSAII (Michael W. Deem and Ramdas Pophale) SiO2 
 PCOD9539974
Probable space group: I M M A
;
_chemical_formula_sum "Si O2"
_cell_formula_units_Z 64
_cell_length_a 8.984756
_cell_length_b 27.914379
_cell_length_c 11.408604
_cell_angle_alpha 90.000000
_cell_angle_beta 90.000000
_cell_angle_gamma 90.000000
_cell_volume 2861.322197
_symmetry_space_group_name_H-M "I M M A"
_symmetry_group_IT_number 74
_symmetry_cell_setting 'orthorhombic'
loop_
_space_group_symop_operation_xyz
x,y,z
-x,1/2-y,z
x,-y,-z
-x,1/2+y,-z
-x,-y,-z
x,1/2+y,-z
-x,y,z
x,1/2-y,z
1/2+x,1/2+y,1/2+z
1/2-x,-y,1/2+z
1/2+x,1/2-y,1/2-z
1/2-x,y,1/2-z
1/2-x,1/2-y,1/2-z
1/2+x,y,1/2-z
1/2-x,1/2+y,1/2+z
1/2+x,-y,1/2+z
loop_
_atom_site_type_symbol
_atom_site_label
_atom_site_fract_x
_atom_site_fract_y
_atom_site_fract_z
Si Si1 0.672346 0.069570 0.106832
Si Si2 0.676043 0.832876 0.627967
Si Si3 0.165846 0.038852 0.650734
Si Si4 0.827961 0.692213 0.374785
O O1 0.500000 0.077887 0.146906
O O2 0.788621 0.110302 0.136889
O O3 0.724523 0.015298 0.132993
O O4 0.664575 0.067671 0.967073
O O5 0.500000 0.822887 0.627462
O O6 0.750000 0.812813 0.750000
O O7 0.748061 0.819066 0.500985
O O8 0.250000 0.066030 0.750000
O O9 0.000000 0.030812 0.691347
O O10 0.832245 0.750000 0.370782
O O11 0.750000 0.677886 0.250000
O O12 0.000000 0.674549 0.378320
#
# Coordination Sequence:
#
# PCOD9539974 Si02
#       4
#    16  16  16  16
#     4   9  19  36  53  75 110 150 193 243 299 355
#     4  12  25  40  61  90 124 163 204 249 302 358
#     4   9  18  32  52  75 104 145 192 245 299 351
#     4  10  22  43  70  97 125 158 196 241 295 356
#
# _framework density 22.367284000000001
#
# number of rings (size 3 to 8) (size 9 to 14) (size 15 to 20)
#    0.000    2.000    0.000    5.250    0.000    7.000 
#    0.000    5.000    0.000    0.000    0.000    0.000 
#    0.000    0.000    0.000    0.000    0.000    0.000 
#
# Total GULP energy -178232.394327 kJ/mol
# GULP energy per Si atom -5569.762323 kJ/mol
# Density = 2.231637 g / cm^3
# Si number density = 22.367284 Si / 1000 Ang^3
#
#
#
# Elastic Constant Matrix: (Units=GPa)
#
#
# Indices 1 2 3 4 5 6 
#
# 1 128.1798 16.4055 118.3244 -0.0001 0.0000 0.0000
# 2 16.4055 61.5798 14.5776 -0.0001 0.0000 0.0000
# 3 118.3244 14.5776 208.8820 0.0002 -0.0003 -0.0002
# 4 -0.0001 -0.0001 0.0002 -48.6676 -0.0001 -0.0002
# 5 0.0000 0.0000 -0.0003 -0.0001 47.9094 0.0000
# 6 0.0000 0.0000 -0.0002 -0.0002 0.0000 25.9602
#
#
#
# Elastic Compliance Matrix: (Units=1/GPa)
#
#
# Indices 1 2 3 4 5 6 
#
# 1 0.016651 -0.002240 -0.009276 0.000000 0.000000 0.000000
# 2 -0.002240 0.016813 0.000096 0.000000 0.000000 0.000000
# 3 -0.009276 0.000096 0.010035 0.000000 0.000000 0.000000
# 4 0.000000 0.000000 0.000000 -0.020548 0.000000 0.000000
# 5 0.000000 0.000000 0.000000 0.000000 0.020873 0.000000
# 6 0.000000 0.000000 0.000000 0.000000 0.000000 0.038521
#
#
# Mechanical properties :
#
#
# Convention : Reuss Voigt Hill
#
# Bulk Modulus (GPa) = 48.40606 77.47296 62.93951
# Shear Modulus (GPa) = 44.61424 21.66268 33.13846
#
# Velocity S-wave (km/s) = 4.47096 3.11545 3.85328
# Velocity P-wave (km/s) = 6.95278 6.90313 6.92800
#
# Compressibility (1/GPa) = 0.02065857
#
# Stress axis : x y z
#
# Youngs Moduli (GPa) = 60.05696 59.47685 99.64986
#
# Poissons Ratio (x) = 0.13324 0.92433
# Poissons Ratio (y) = 0.13454 -0.00952
# Poissons Ratio (z) = 0.55708 -0.00568
#
# Static dielectric constant tensor:
#      x y z
#    x 1.819390 0.000000 0.000000 
#    y 0.000000 1.850500 0.000000 
#    z 0.000000 0.000000 1.977900 
# 
# From -- ./inp_files/17583.got.cif
#   From: 2010.05.17/outbox.cif.g08.bks.cpg/sg74_9_cif.got.tgz:17583.got - 2010.06.03 17:57:02.
