data_PCOD9539512
_publ_section_title
;
Structure prediction by ZEFSAII (Michael W. Deem and Ramdas Pophale) SiO2 
 PCOD9539512
Probable space group: I M M A
;
_chemical_formula_sum "Si O2"
_cell_formula_units_Z 72
_cell_length_a 16.163272
_cell_length_b 27.974912
_cell_length_c 7.555972
_cell_angle_alpha 90.000000
_cell_angle_beta 90.000000
_cell_angle_gamma 90.000000
_cell_volume 3416.554480
_symmetry_space_group_name_H-M "I M M A"
_symmetry_group_IT_number 74
_symmetry_cell_setting 'orthorhombic'
loop_
_space_group_symop_operation_xyz
x,y,z
-x,1/2-y,z
x,-y,-z
-x,1/2+y,-z
-x,-y,-z
x,1/2+y,-z
-x,y,z
x,1/2-y,z
1/2+x,1/2+y,1/2+z
1/2-x,-y,1/2+z
1/2+x,1/2-y,1/2-z
1/2-x,y,1/2-z
1/2-x,1/2-y,1/2-z
1/2+x,y,1/2-z
1/2-x,1/2+y,1/2+z
1/2+x,-y,1/2+z
loop_
_atom_site_type_symbol
_atom_site_label
_atom_site_fract_x
_atom_site_fract_y
_atom_site_fract_z
Si Si1 0.000000 0.002383 0.788712
Si Si2 0.682811 0.694060 0.113962
Si Si3 0.500000 0.806196 0.076026
Si Si4 0.831605 0.619485 0.665310
Si Si5 0.169025 0.543306 0.368782
Si Si6 0.500000 0.891002 0.778467
O O1 0.084871 0.028168 0.730771
O O2 0.000000 0.948890 0.702655
O O3 0.000000 0.000000 0.000000
O O4 0.699314 0.750000 0.095853
O O5 0.750000 0.673635 0.250000
O O6 0.587295 0.688599 0.175581
O O7 0.688059 0.670220 0.921459
O O8 0.500000 0.750000 0.007735
O O9 0.500000 0.849590 0.932686
O O10 0.750000 0.598493 0.750000
O O11 0.852754 0.587765 0.494164
O O12 0.908861 0.618700 0.798487
O O13 0.191040 0.500000 0.500000
O O14 0.250000 0.552679 0.250000
#
# Coordination Sequence:
#
# PCOD9539512 Si02
#       6
#     8  16   8  16  16   8
#     4  12  26  42  64  89 119 162 209 256 306 361
#     4   9  18  36  60  89 122 156 202 253 306 367
#     4   8  16  33  62  89 116 162 197 239 308 363
#     4  11  23  39  62  87 121 161 205 251 306 366
#     4  12  24  40  61  87 121 158 202 250 306 362
#     4  10  21  40  59  83 122 152 202 251 295 358
#
# _framework density 21.073862999999999
#
# number of rings (size 3 to 8) (size 9 to 14) (size 15 to 20)
#    0.000    1.556    2.222    3.000    3.111    0.444 
#    0.000    1.111    0.000    0.000    0.000    0.000 
#    0.000    0.000    0.000    0.000    0.000    0.000 
#
# Total GULP energy -200514.293750 kJ/mol
# GULP energy per Si atom -5569.841493 kJ/mol
# Density = 2.102590 g / cm^3
# Si number density = 21.073863 Si / 1000 Ang^3
#
#
#
# Elastic Constant Matrix: (Units=GPa)
#
#
# Indices 1 2 3 4 5 6 
#
# 1 154.8216 36.0036 44.6943 -0.0006 -0.0026 -0.0004
# 2 36.0036 83.1949 18.1893 -0.0012 -0.0014 -0.0007
# 3 44.6943 18.1893 50.9131 -0.0121 -0.0083 -0.0027
# 4 -0.0006 -0.0012 -0.0121 7.6933 -0.0029 -0.0013
# 5 -0.0026 -0.0014 -0.0083 -0.0029 37.7067 0.0010
# 6 -0.0004 -0.0007 -0.0027 -0.0013 0.0010 23.4964
#
#
#
# Elastic Compliance Matrix: (Units=1/GPa)
#
#
# Indices 1 2 3 4 5 6 
#
# 1 0.009062 -0.002367 -0.007109 -0.000011 -0.000001 -0.000001
# 2 -0.002367 0.013657 -0.002801 -0.000002 0.000000 0.000000
# 3 -0.007109 -0.002801 0.026883 0.000041 0.000005 0.000003
# 4 -0.000011 -0.000002 0.000041 0.129984 0.000010 0.000007
# 5 -0.000001 0.000000 0.000005 0.000010 0.026520 -0.000001
# 6 -0.000001 0.000000 0.000003 0.000007 -0.000001 0.042560
#
#
# Mechanical properties :
#
#
# Convention : Reuss Voigt Hill
#
# Bulk Modulus (GPa) = 39.92554 54.07822 47.00188
# Shear Modulus (GPa) = 17.75761 26.44878 22.10319
#
# Velocity S-wave (km/s) = 2.90597 3.54651 3.24210
# Velocity P-wave (km/s) = 5.49965 6.51823 6.03049
#
# Compressibility (1/GPa) = 0.02504663
#
# Stress axis : x y z
#
# Youngs Moduli (GPa) = 110.35232 73.22350 37.19839
#
# Poissons Ratio (x) = 0.17334 0.26445
# Poissons Ratio (y) = 0.26124 0.10419
# Poissons Ratio (z) = 0.78452 0.20509
#
# Static dielectric constant tensor:
#      x y z
#    x 2.078920 -0.000020 -0.000020 
#    y -0.000020 1.814830 0.000000 
#    z -0.000020 0.000000 1.780590 
# 
# From -- ./inp_files/9195.got.cif
#   From: 2010.05.17/outbox.cif.g08.bks.cpg/sg74_5_cif.got.tgz:9195.got - 2010.06.03 17:57:02.
