data_PCOD9539935
_publ_section_title
;
Structure prediction by ZEFSAII (Michael W. Deem and Ramdas Pophale) SiO2 
 PCOD9539935
Probable space group: I M M A
;
_chemical_formula_sum "Si O2"
_cell_formula_units_Z 56
_cell_length_a 14.731326
_cell_length_b 30.616388
_cell_length_c 5.392841
_cell_angle_alpha 90.000000
_cell_angle_beta 90.000000
_cell_angle_gamma 90.000000
_cell_volume 2432.279108
_symmetry_space_group_name_H-M "I M M A"
_symmetry_group_IT_number 74
_symmetry_cell_setting 'orthorhombic'
loop_
_space_group_symop_operation_xyz
x,y,z
-x,1/2-y,z
x,-y,-z
-x,1/2+y,-z
-x,-y,-z
x,1/2+y,-z
-x,y,z
x,1/2-y,z
1/2+x,1/2+y,1/2+z
1/2-x,-y,1/2+z
1/2+x,1/2-y,1/2-z
1/2-x,y,1/2-z
1/2-x,1/2-y,1/2-z
1/2+x,y,1/2-z
1/2-x,1/2+y,1/2+z
1/2+x,-y,1/2+z
loop_
_atom_site_type_symbol
_atom_site_label
_atom_site_fract_x
_atom_site_fract_y
_atom_site_fract_z
Si Si1 0.500000 0.624078 0.500429
Si Si2 0.700589 0.076493 0.003504
Si Si3 0.000000 0.296118 0.369650
Si Si4 0.000000 0.549019 0.610622
Si Si5 0.657107 0.667110 0.164728
O O1 0.500000 0.658500 0.723990
O O2 0.500000 0.574521 0.614532
O O3 0.590920 0.638863 0.350658
O O4 0.750000 0.059429 0.250000
O O5 0.595622 0.064679 0.006333
O O6 0.750000 0.062563 0.750000
O O7 0.698427 0.128985 0.007602
O O8 0.910769 0.299871 0.536135
O O9 0.000000 0.250000 0.227568
O O10 0.000000 0.500000 0.500000
O O11 0.750000 0.689516 0.250000
#
# Coordination Sequence:
#
# PCOD9539935 Si02
#       5
#     8  16   8   8  16
#     4  11  22  45  64  97 146 176 231 296 353 419
#     4  11  24  44  72 103 137 182 238 296 348 410
#     4  11  24  40  66  99 136 174 229 293 356 432
#     4  12  24  43  71 102 141 191 233 284 355 424
#     4  10  22  41  71  93 133 184 230 287 353 416
#
# _framework density 23.023675000000001
#
# number of rings (size 3 to 8) (size 9 to 14) (size 15 to 20)
#    0.000    1.143    2.857    4.286    0.000    5.143 
#    0.000   11.429    0.000    0.000    0.000    0.000 
#    0.000    0.000    0.000    0.000    0.000    0.000 
#
# Total GULP energy -155939.757641 kJ/mol
# GULP energy per Si atom -5569.277059 kJ/mol
# Density = 2.297127 g / cm^3
# Si number density = 23.023675 Si / 1000 Ang^3
#
#
#
# Elastic Constant Matrix: (Units=GPa)
#
#
# Indices 1 2 3 4 5 6 
#
# 1 201.0318 -15.4193 73.9073 -0.0485 0.0038 0.0164
# 2 -15.4193 57.3009 26.1491 -0.0472 0.0050 0.0403
# 3 73.9073 26.1491 119.1080 -0.1242 0.0389 -0.0529
# 4 -0.0485 -0.0472 -0.1242 -4.3519 0.0260 0.0006
# 5 0.0038 0.0050 0.0389 0.0260 22.9254 -0.0171
# 6 0.0164 0.0403 -0.0529 0.0006 -0.0171 -34.2806
#
#
#
# Elastic Compliance Matrix: (Units=1/GPa)
#
#
# Indices 1 2 3 4 5 6 
#
# 1 0.007366 0.004521 -0.005563 0.000028 0.000007 0.000017
# 2 0.004521 0.022170 -0.007673 -0.000072 0.000008 0.000040
# 3 -0.005563 -0.007673 0.013532 -0.000241 -0.000020 -0.000033
# 4 0.000028 -0.000072 -0.000241 -0.229774 0.000261 -0.000004
# 5 0.000007 0.000008 -0.000020 0.000261 0.043619 -0.000022
# 6 0.000017 0.000040 -0.000033 -0.000004 -0.000022 -0.029171
#
#
# Mechanical properties :
#
#
# Convention : Reuss Voigt Hill
#
# Bulk Modulus (GPa) = 39.00410 60.74612 49.87511
# Shear Modulus (GPa) = -34.18080 16.37882 -8.90099
#
# Velocity S-wave (km/s) = -3.85722 2.67008 -1.96835
# Velocity P-wave (km/s) = 1.69113 5.99560 4.06739
#
# Compressibility (1/GPa) = 0.02563833
#
# Stress axis : x y z
#
# Youngs Moduli (GPa) = 135.75001 45.10678 73.89827
#
# Poissons Ratio (x) = -0.20393 0.41113
# Poissons Ratio (y) = -0.61375 0.56699
# Poissons Ratio (z) = 0.75524 0.34609
#
# Static dielectric constant tensor:
#      x y z
#    x 1.854370 0.000050 0.000010 
#    y 0.000050 1.927750 -0.000050 
#    z 0.000010 -0.000050 2.014660 
# 
# From -- ./inp_files/1561.got.cif
#   From: 2010.05.17/outbox.cif.g08.bks.cpg/sg74_1_cif.got.tgz:1561.got - 2010.06.03 17:57:02.
