data_PCOD9539403
_publ_section_title
;
Structure prediction by ZEFSAII (Michael W. Deem and Ramdas Pophale) SiO2 
 PCOD9539403
Probable space group: I M M A
;
_chemical_formula_sum "Si O2"
_cell_formula_units_Z 68
_cell_length_a 17.082764
_cell_length_b 16.956271
_cell_length_c 9.715178
_cell_angle_alpha 90.000000
_cell_angle_beta 90.000000
_cell_angle_gamma 90.000000
_cell_volume 2814.098224
_symmetry_space_group_name_H-M "I M M A"
_symmetry_group_IT_number 74
_symmetry_cell_setting 'orthorhombic'
loop_
_space_group_symop_operation_xyz
x,y,z
-x,1/2-y,z
x,-y,-z
-x,1/2+y,-z
-x,-y,-z
x,1/2+y,-z
-x,y,z
x,1/2-y,z
1/2+x,1/2+y,1/2+z
1/2-x,-y,1/2+z
1/2+x,1/2-y,1/2-z
1/2-x,y,1/2-z
1/2-x,1/2-y,1/2-z
1/2+x,y,1/2-z
1/2-x,1/2+y,1/2+z
1/2+x,-y,1/2+z
loop_
_atom_site_type_symbol
_atom_site_label
_atom_site_fract_x
_atom_site_fract_y
_atom_site_fract_z
Si Si1 0.871866 0.341158 0.007204
Si Si2 0.908124 0.156064 0.324092
Si Si3 0.081091 0.907617 0.267134
Si Si4 0.500000 0.750000 0.162159
Si Si5 0.213477 0.583344 0.466756
O O1 0.896972 0.250000 0.987326
O O2 0.913494 0.395359 0.895473
O O3 0.890638 0.362016 0.164306
O O4 0.780076 0.351032 0.973725
O O5 0.892775 0.250000 0.343252
O O6 0.851823 0.106001 0.420352
O O7 0.000000 0.145023 0.355100
O O8 0.066093 0.820070 0.328452
O O9 0.163427 0.931429 0.329231
O O10 0.000000 0.953029 0.301567
O O11 0.253176 0.500000 0.500000
#
# Coordination Sequence:
#
# PCOD9539403 Si02
#       5
#    16  16  16   4  16
#     4  11  22  40  66  95 121 153 198 254 310 360
#     4  10  23  41  67  92 120 154 200 255 309 358
#     4  10  21  38  66  92 123 149 199 251 305 359
#     4   8  20  36  64  98 122 140 196 266 300 360
#     4  12  27  41  57  88 129 168 205 242 290 358
#
# _framework density 24.164047
#
# number of rings (size 3 to 8) (size 9 to 14) (size 15 to 20)
#    0.706    0.706    1.176    3.529    3.294    9.412 
#    0.000    0.000    0.000    4.235    0.000    0.000 
#    0.000    0.000    0.000    0.000    0.000    0.000 
#
# Total GULP energy -189600.051739 kJ/mol
# GULP energy per Si atom -5576.472110 kJ/mol
# Density = 2.410905 g / cm^3
# Si number density = 24.164047 Si / 1000 Ang^3
#
#
#
# Elastic Constant Matrix: (Units=GPa)
#
#
# Indices 1 2 3 4 5 6 
#
# 1 112.0860 -9.5312 16.9031 0.0000 0.0000 0.0000
# 2 -9.5312 53.9363 5.0553 0.0000 0.0000 0.0000
# 3 16.9031 5.0553 108.3933 0.0000 0.0000 0.0000
# 4 0.0000 0.0000 0.0000 13.7294 0.0000 0.0000
# 5 0.0000 0.0000 0.0000 0.0000 42.9813 0.0000
# 6 0.0000 0.0000 0.0000 0.0000 0.0000 4.9051
#
#
#
# Elastic Compliance Matrix: (Units=1/GPa)
#
#
# Indices 1 2 3 4 5 6 
#
# 1 0.009305 0.001788 -0.001534 0.000000 0.000000 0.000000
# 2 0.001788 0.018965 -0.001163 0.000000 0.000000 0.000000
# 3 -0.001534 -0.001163 0.009519 0.000000 0.000000 0.000000
# 4 0.000000 0.000000 0.000000 0.072837 0.000000 0.000000
# 5 0.000000 0.000000 0.000000 0.000000 0.023266 0.000000
# 6 0.000000 0.000000 0.000000 0.000000 0.000000 0.203869
#
#
# Mechanical properties :
#
#
# Convention : Reuss Voigt Hill
#
# Bulk Modulus (GPa) = 27.80060 33.25223 30.52641
# Shear Modulus (GPa) = 14.22190 29.78905 22.00547
#
# Velocity S-wave (km/s) = 2.42865 3.51491 3.02100
# Velocity P-wave (km/s) = 4.40390 5.50125 4.98287
#
# Compressibility (1/GPa) = 0.03597045
#
# Stress axis : x y z
#
# Youngs Moduli (GPa) = 107.46702 52.72752 105.05068
#
# Poissons Ratio (x) = -0.09429 0.16120
# Poissons Ratio (y) = -0.19217 0.12221
# Poissons Ratio (z) = 0.16491 0.06134
#
# Static dielectric constant tensor:
#      x y z
#    x 1.923550 0.000000 0.000000 
#    y 0.000000 1.888570 0.000000 
#    z 0.000000 0.000000 1.985620 
# 
# From -- ./inp_files/10434.got.cif
#   From: 2010.05.17/outbox.cif.g08.bks.cpg/sg74_6_cif.got.tgz:10434.got - 2010.06.03 17:57:02.
