data_PCOD9539377
_publ_section_title
;
Structure prediction by ZEFSAII (Michael W. Deem and Ramdas Pophale) SiO2 
 PCOD9539377
Probable space group: I M M A
;
_chemical_formula_sum "Si O2"
_cell_formula_units_Z 72
_cell_length_a 13.912639
_cell_length_b 26.527494
_cell_length_c 9.735225
_cell_angle_alpha 90.000000
_cell_angle_beta 90.000000
_cell_angle_gamma 90.000000
_cell_volume 3592.954643
_symmetry_space_group_name_H-M "I M M A"
_symmetry_group_IT_number 74
_symmetry_cell_setting 'orthorhombic'
loop_
_space_group_symop_operation_xyz
x,y,z
-x,1/2-y,z
x,-y,-z
-x,1/2+y,-z
-x,-y,-z
x,1/2+y,-z
-x,y,z
x,1/2-y,z
1/2+x,1/2+y,1/2+z
1/2-x,-y,1/2+z
1/2+x,1/2-y,1/2-z
1/2-x,y,1/2-z
1/2-x,1/2-y,1/2-z
1/2+x,y,1/2-z
1/2-x,1/2+y,1/2+z
1/2+x,-y,1/2+z
loop_
_atom_site_type_symbol
_atom_site_label
_atom_site_fract_x
_atom_site_fract_y
_atom_site_fract_z
Si Si1 0.750000 0.407409 0.750000
Si Si2 0.384226 0.647357 0.033899
Si Si3 0.115280 0.137481 0.226113
Si Si4 0.278193 0.750000 0.089919
Si Si5 0.609075 0.940120 0.481390
Si Si6 0.615751 0.750000 0.625308
O O1 0.671805 0.378161 0.841345
O O2 0.685267 0.434890 0.639029
O O3 0.500000 0.645602 0.048133
O O4 0.342377 0.703265 0.042760
O O5 0.356654 0.625710 0.883208
O O6 0.142138 0.195983 0.194344
O O7 0.000000 0.137792 0.226836
O O8 0.139735 0.095367 0.111119
O O9 0.250000 0.750000 0.250000
O O10 0.176116 0.750000 0.013660
O O11 0.500000 0.922709 0.444922
O O12 0.603070 0.000000 0.500000
O O13 0.500000 0.750000 0.607711
#
# Coordination Sequence:
#
# PCOD9539377 Si02
#       6
#     8  16  16   8  16   8
#     4  12  24  39  64  96 122 163 214 264 334 386
#     4  11  24  42  62  90 130 168 214 269 322 387
#     4   9  20  40  65  90 123 170 214 261 321 382
#     4  12  24  38  55  92 129 175 214 256 328 389
#     4  10  23  44  67  94 131 171 216 271 329 393
#     4  10  21  38  63  92 123 161 213 264 308 380
#
# _framework density 20.039216
#
# number of rings (size 3 to 8) (size 9 to 14) (size 15 to 20)
#    0.000    1.556    1.111    3.000    0.000    8.889 
#    0.000    0.000    0.000    6.667    0.000    0.000 
#    0.000    0.000    0.000    0.000    0.000    0.000 
#
# Total GULP energy -200669.150313 kJ/mol
# GULP energy per Si atom -5574.143064 kJ/mol
# Density = 1.999361 g / cm^3
# Si number density = 20.039216 Si / 1000 Ang^3
#
#
#
# Elastic Constant Matrix: (Units=GPa)
#
#
# Indices 1 2 3 4 5 6 
#
# 1 149.4614 39.7785 62.8478 -0.0001 0.0000 0.0000
# 2 39.7785 94.1673 52.2886 0.0000 0.0001 -0.0001
# 3 62.8478 52.2886 150.7833 0.0007 0.0006 -0.0003
# 4 -0.0001 0.0000 0.0007 30.8534 0.0001 -0.0002
# 5 0.0000 0.0001 0.0006 0.0001 44.1876 0.0000
# 6 0.0000 -0.0001 -0.0003 -0.0002 0.0000 9.4372
#
#
#
# Elastic Compliance Matrix: (Units=1/GPa)
#
#
# Indices 1 2 3 4 5 6 
#
# 1 0.008402 -0.001987 -0.002813 0.000000 0.000000 0.000000
# 2 -0.001987 0.013622 -0.003895 0.000000 0.000000 0.000000
# 3 -0.002813 -0.003895 0.009155 0.000000 0.000000 0.000000
# 4 0.000000 0.000000 0.000000 0.032411 0.000000 0.000001
# 5 0.000000 0.000000 0.000000 0.000000 0.022631 0.000000
# 6 0.000000 0.000000 0.000000 0.000001 0.000000 0.105964
#
#
# Mechanical properties :
#
#
# Convention : Reuss Voigt Hill
#
# Bulk Modulus (GPa) = 72.52651 78.24908 75.38779
# Shear Modulus (GPa) = 23.34554 32.86212 28.10383
#
# Velocity S-wave (km/s) = 3.41690 4.05395 3.74898
# Velocity P-wave (km/s) = 7.19985 7.81316 7.51276
#
# Compressibility (1/GPa) = 0.01378806
#
# Stress axis : x y z
#
# Youngs Moduli (GPa) = 119.01221 73.41082 109.22515
#
# Poissons Ratio (x) = 0.14590 0.30726
# Poissons Ratio (y) = 0.23653 0.42548
# Poissons Ratio (z) = 0.33479 0.28597
#
# Static dielectric constant tensor:
#      x y z
#    x 1.744620 0.000000 0.000000 
#    y 0.000000 1.012970 0.000010 
#    z 0.000000 0.000010 1.683120 
# 
# From -- ./inp_files/9179.got.cif
#   From: 2010.05.17/outbox.cif.g08.bks.cpg/sg74_5_cif.got.tgz:9179.got - 2010.06.03 17:57:02.
