data_PCOD9539664
_publ_section_title
;
Structure prediction by ZEFSAII (Michael W. Deem and Ramdas Pophale) SiO2 
 PCOD9539664
Probable space group: I M M A
;
_chemical_formula_sum "Si O2"
_cell_formula_units_Z 128
_cell_length_a 18.129844
_cell_length_b 20.629106
_cell_length_c 19.281333
_cell_angle_alpha 90.000000
_cell_angle_beta 90.000000
_cell_angle_gamma 90.000000
_cell_volume 7211.266237
_symmetry_space_group_name_H-M "I M M A"
_symmetry_group_IT_number 74
_symmetry_cell_setting 'orthorhombic'
loop_
_space_group_symop_operation_xyz
x,y,z
-x,1/2-y,z
x,-y,-z
-x,1/2+y,-z
-x,-y,-z
x,1/2+y,-z
-x,y,z
x,1/2-y,z
1/2+x,1/2+y,1/2+z
1/2-x,-y,1/2+z
1/2+x,1/2-y,1/2-z
1/2-x,y,1/2-z
1/2-x,1/2-y,1/2-z
1/2+x,y,1/2-z
1/2-x,1/2+y,1/2+z
1/2+x,-y,1/2+z
loop_
_atom_site_type_symbol
_atom_site_label
_atom_site_fract_x
_atom_site_fract_y
_atom_site_fract_z
Si Si1 0.910483 0.178406 0.368322
Si Si2 0.415542 0.823279 0.445539
Si Si3 0.830542 0.452643 0.784025
Si Si4 0.088565 0.541751 0.688547
Si Si5 0.914783 0.322781 0.776978
Si Si6 0.142318 0.044087 0.562550
Si Si7 0.088153 0.179343 0.529295
Si Si8 0.315697 0.442891 0.550680
O O1 0.885846 0.250000 0.345105
O O2 0.887862 0.169941 0.448917
O O3 0.000000 0.179069 0.368375
O O4 0.888588 0.116187 0.323977
O O5 0.500000 0.839459 0.465673
O O6 0.398976 0.750000 0.468909
O O7 0.414801 0.822030 0.361226
O O8 0.356850 0.876442 0.468638
O O9 0.750000 0.460537 0.750000
O O10 0.883496 0.510228 0.759069
O O11 0.864047 0.383603 0.758268
O O12 0.828812 0.453466 0.867323
O O13 0.127933 0.498297 0.630070
O O14 0.000000 0.536818 0.681373
O O15 0.891977 0.250000 0.754032
O O16 0.000000 0.332870 0.754637
O O17 0.108217 0.115112 0.570164
O O18 0.227344 0.058219 0.544915
O O19 0.110223 0.000000 0.500000
O O20 0.116099 0.250000 0.553654
O O21 0.000000 0.182862 0.528419
O O22 0.342405 0.500000 0.500000
#
# Coordination Sequence:
#
# PCOD9539664 Si02
#       8
#    16  16  16  16  16  16  16  16
#     4   8  15  29  50  77 105 137 179 220 259 309
#     4   8  15  31  56  81 103 132 176 227 271 314
#     4  11  21  36  52  76 108 144 178 224 269 318
#     4  11  21  33  55  81 105 143 183 223 271 320
#     4   8  15  30  52  75 101 135 176 218 258 312
#     4  11  20  32  50  77 110 146 182 217 263 312
#     4   9  17  29  46  71 107 147 184 221 257 300
#     4  10  22  37  55  79 109 143 178 218 272 324
#
# _framework density 17.750003
#
# number of rings (size 3 to 8) (size 9 to 14) (size 15 to 20)
#    0.000    2.500    2.500    2.250    0.000    2.000 
#    0.000    0.625    0.000    3.375    0.000    1.750 
#    0.000    0.000    0.000    0.000    0.000    0.000 
#
# Total GULP energy -356502.877898 kJ/mol
# GULP energy per Si atom -5570.357467 kJ/mol
# Density = 1.770960 g / cm^3
# Si number density = 17.750003 Si / 1000 Ang^3
#
#
#
# Elastic Constant Matrix: (Units=GPa)
#
#
# Indices 1 2 3 4 5 6 
#
# 1 56.0712 45.7610 3.3726 0.0000 0.0000 0.0000
# 2 45.7610 153.0314 24.7423 0.0000 0.0000 0.0000
# 3 3.3726 24.7423 31.2683 0.0000 0.0000 0.0000
# 4 0.0000 0.0000 0.0000 19.5567 0.0000 0.0000
# 5 0.0000 0.0000 0.0000 0.0000 7.9609 0.0000
# 6 0.0000 0.0000 0.0000 0.0000 0.0000 7.7628
#
#
#
# Elastic Compliance Matrix: (Units=1/GPa)
#
#
# Indices 1 2 3 4 5 6 
#
# 1 0.023928 -0.007726 0.003533 0.000000 0.000000 0.000000
# 2 -0.007726 0.009988 -0.007070 0.000000 0.000000 0.000000
# 3 0.003533 -0.007070 0.037195 0.000000 0.000000 0.000000
# 4 0.000000 0.000000 0.000000 0.051133 0.000000 0.000000
# 5 0.000000 0.000000 0.000000 0.000000 0.125613 0.000000
# 6 0.000000 0.000000 0.000000 0.000000 0.000000 0.128819
#
#
# Mechanical properties :
#
#
# Convention : Reuss Voigt Hill
#
# Bulk Modulus (GPa) = 20.58318 43.12475 31.85397
# Shear Modulus (GPa) = 12.03666 18.15576 15.09621
#
# Velocity S-wave (km/s) = 2.60690 3.20169 2.91948
# Velocity P-wave (km/s) = 4.54781 6.16572 5.41750
#
# Compressibility (1/GPa) = 0.04858337
#
# Stress axis : x y z
#
# Youngs Moduli (GPa) = 41.79286 100.11920 26.88553
#
# Poissons Ratio (x) = 0.77355 -0.09498
# Poissons Ratio (y) = 0.32290 0.19008
# Poissons Ratio (z) = -0.14765 0.70786
#
# Static dielectric constant tensor:
#      x y z
#    x 1.603200 0.000000 0.000000 
#    y 0.000000 1.633490 0.000000 
#    z 0.000000 0.000000 1.628450 
# 
# From -- ./inp_files/54170.got.cif
#   From: 2010.05.17/outbox.cif.g08.bks.cpg/sg74_28_cif.got.tgz:54170.got - 2010.06.03 17:57:02.
