data_PCOD9539462
_publ_section_title
;
Structure prediction by ZEFSAII (Michael W. Deem and Ramdas Pophale) SiO2 
 PCOD9539462
Probable space group: I M M A
;
_chemical_formula_sum "Si O2"
_cell_formula_units_Z 64
_cell_length_a 13.628613
_cell_length_b 8.881809
_cell_length_c 24.059783
_cell_angle_alpha 90.000000
_cell_angle_beta 90.000000
_cell_angle_gamma 90.000000
_cell_volume 2912.358240
_symmetry_space_group_name_H-M "I M M A"
_symmetry_group_IT_number 74
_symmetry_cell_setting 'orthorhombic'
loop_
_space_group_symop_operation_xyz
x,y,z
-x,1/2-y,z
x,-y,-z
-x,1/2+y,-z
-x,-y,-z
x,1/2+y,-z
-x,y,z
x,1/2-y,z
1/2+x,1/2+y,1/2+z
1/2-x,-y,1/2+z
1/2+x,1/2-y,1/2-z
1/2-x,y,1/2-z
1/2-x,1/2-y,1/2-z
1/2+x,y,1/2-z
1/2-x,1/2+y,1/2+z
1/2+x,-y,1/2+z
loop_
_atom_site_type_symbol
_atom_site_label
_atom_site_fract_x
_atom_site_fract_y
_atom_site_fract_z
Si Si1 0.200232 0.072155 0.442922
Si Si2 0.880777 0.421080 0.218221
Si Si3 0.381733 0.077159 0.831905
Si Si4 0.884466 0.927037 0.102137
O O1 0.187757 0.250000 0.443608
O O2 0.162668 0.000000 0.500000
O O3 0.149849 0.000504 0.388896
O O4 0.314355 0.026734 0.435795
O O5 0.846524 0.250000 0.208284
O O6 0.848156 0.485835 0.277499
O O7 0.859545 0.527100 0.165726
O O8 0.000000 0.415649 0.220750
O O9 0.500000 0.079558 0.830151
O O10 0.347390 0.250000 0.829704
O O11 0.865956 0.750000 0.093219
O O12 0.000000 0.955905 0.093516
#
# Coordination Sequence:
#
# PCOD9539462 Si02
#       4
#    16  16  16  16
#     4  12  26  43  62  85 116 154 200 248 292 346
#     4   9  17  32  57  90 124 155 191 236 289 350
#     4  10  21  39  63  90 121 156 194 240 294 349
#     4  10  21  39  63  90 121 156 194 240 294 349
#
# _framework density 21.97532
#
# number of rings (size 3 to 8) (size 9 to 14) (size 15 to 20)
#    0.000    1.750    0.000    4.500    0.000    8.000 
#    0.000    5.000    0.000    0.000    0.000    0.000 
#    0.000    0.000    0.000    0.000    0.000    0.000 
#
# Total GULP energy -179138.168798 kJ/mol
# GULP energy per Si atom -5598.067775 kJ/mol
# Density = 2.192530 g / cm^3
# Si number density = 21.975320 Si / 1000 Ang^3
#
#
#
# Elastic Constant Matrix: (Units=GPa)
#
#
# Indices 1 2 3 4 5 6 
#
# 1 41.1235 -1.3638 -7.0715 0.0000 0.0000 0.0000
# 2 -1.3638 146.9691 29.7992 0.0000 0.0000 0.0000
# 3 -7.0715 29.7992 101.7991 0.0000 0.0000 0.0000
# 4 0.0000 0.0000 0.0000 38.5920 0.0000 0.0000
# 5 0.0000 0.0000 0.0000 0.0000 22.0558 0.0000
# 6 0.0000 0.0000 0.0000 0.0000 0.0000 32.7679
#
#
#
# Elastic Compliance Matrix: (Units=1/GPa)
#
#
# Indices 1 2 3 4 5 6 
#
# 1 0.024613 -0.000126 0.001747 0.000000 0.000000 0.000000
# 2 -0.000126 0.007234 -0.002126 0.000000 0.000000 0.000000
# 3 0.001747 -0.002126 0.010567 0.000000 0.000000 0.000000
# 4 0.000000 0.000000 0.000000 0.025912 0.000000 0.000000
# 5 0.000000 0.000000 0.000000 0.000000 0.045340 0.000000
# 6 0.000000 0.000000 0.000000 0.000000 0.000000 0.030518
#
#
# Mechanical properties :
#
#
# Convention : Reuss Voigt Hill
#
# Bulk Modulus (GPa) = 24.15267 36.95770 30.55518
# Shear Modulus (GPa) = 31.44739 36.58500 34.01619
#
# Velocity S-wave (km/s) = 3.78700 4.08465 3.93864
# Velocity P-wave (km/s) = 5.48967 6.25301 5.88373
#
# Compressibility (1/GPa) = 0.04140329
#
# Stress axis : x y z
#
# Youngs Moduli (GPa) = 40.62869 138.23383 94.63393
#
# Poissons Ratio (x) = 0.01738 -0.16529
# Poissons Ratio (y) = 0.00511 0.20122
# Poissons Ratio (z) = -0.07096 0.29393
#
# Static dielectric constant tensor:
#      x y z
#    x 1.884090 0.000000 0.000000 
#    y 0.000000 1.737470 0.000000 
#    z 0.000000 0.000000 1.761650 
# 
# From -- ./inp_files/56381.got.cif
#   From: 2010.05.17/outbox.cif.g08.bks.cpg/sg74_29_cif.got.tgz:56381.got - 2010.06.03 17:57:02.
