data_PCOD9539566
_publ_section_title
;
Structure prediction by ZEFSAII (Michael W. Deem and Ramdas Pophale) SiO2 
 PCOD9539566
Probable space group: I M M A
;
_chemical_formula_sum "Si O2"
_cell_formula_units_Z 48
_cell_length_a 10.192353
_cell_length_b 10.773001
_cell_length_c 20.495804
_cell_angle_alpha 90.000000
_cell_angle_beta 90.000000
_cell_angle_gamma 90.000000
_cell_volume 2250.484966
_symmetry_space_group_name_H-M "I M M A"
_symmetry_group_IT_number 74
_symmetry_cell_setting 'orthorhombic'
loop_
_space_group_symop_operation_xyz
x,y,z
-x,1/2-y,z
x,-y,-z
-x,1/2+y,-z
-x,-y,-z
x,1/2+y,-z
-x,y,z
x,1/2-y,z
1/2+x,1/2+y,1/2+z
1/2-x,-y,1/2+z
1/2+x,1/2-y,1/2-z
1/2-x,y,1/2-z
1/2-x,1/2-y,1/2-z
1/2+x,y,1/2-z
1/2-x,1/2+y,1/2+z
1/2+x,-y,1/2+z
loop_
_atom_site_type_symbol
_atom_site_label
_atom_site_fract_x
_atom_site_fract_y
_atom_site_fract_z
Si Si1 0.000000 0.101087 0.904803
Si Si2 0.147797 0.750000 0.842953
Si Si3 0.152377 0.250000 0.459951
Si Si4 0.500000 0.106206 0.753857
Si Si5 0.250000 0.039714 0.250000
Si Si6 0.218214 0.000000 0.000000
O O1 0.000000 0.250000 0.922791
O O2 0.000000 0.096889 0.826052
O O3 0.123094 0.030803 0.938365
O O4 0.258123 0.750000 0.896463
O O5 0.173804 0.869741 0.798804
O O6 0.000000 0.750000 0.869212
O O7 0.194229 0.377335 0.494474
O O8 0.000000 0.250000 0.445040
O O9 0.500000 0.250000 0.770774
O O10 0.366311 0.043592 0.779305
#
# Coordination Sequence:
#
# PCOD9539566 Si02
#       6
#     8   8   8   8   8   8
#     4  10  21  40  68 100 128 180 232 273 320 400
#     4  11  25  43  70  98 130 178 226 277 327 398
#     4  12  27  43  70 101 140 174 219 280 344 399
#     4  11  23  40  66  96 136 179 224 271 332 399
#     4  11  23  42  64  96 135 173 228 278 328 389
#     4  11  23  42  68 100 136 174 222 278 332 396
#
# _framework density 21.328738000000001
#
# number of rings (size 3 to 8) (size 9 to 14) (size 15 to 20)
#    0.000    1.000    3.333    3.000    7.000    0.000 
#    0.000    0.000    0.000    0.000    0.000    0.000 
#    0.000    0.000    0.000    0.000    0.000    0.000 
#
# Total GULP energy -134165.936364 kJ/mol
# GULP energy per Si atom -5590.247349 kJ/mol
# Density = 2.128019 g / cm^3
# Si number density = 21.328738 Si / 1000 Ang^3
#
#
#
# Elastic Constant Matrix: (Units=GPa)
#
#
# Indices 1 2 3 4 5 6 
#
# 1 183.9484 67.2711 -0.0691 0.0000 0.0000 0.0000
# 2 67.2711 179.7691 3.9944 0.0000 0.0000 0.0000
# 3 -0.0691 3.9944 15.3304 0.0000 0.0000 0.0000
# 4 0.0000 0.0000 0.0000 -49.6803 0.0000 0.0000
# 5 0.0000 0.0000 0.0000 0.0000 16.4156 0.0000
# 6 0.0000 0.0000 0.0000 0.0000 0.0000 57.2064
#
#
#
# Elastic Compliance Matrix: (Units=1/GPa)
#
#
# Indices 1 2 3 4 5 6 
#
# 1 0.006305 -0.002374 0.000647 0.000000 0.000000 0.000000
# 2 -0.002374 0.006489 -0.001701 0.000000 0.000000 0.000000
# 3 0.000647 -0.001701 0.065676 0.000000 0.000000 0.000000
# 4 0.000000 0.000000 0.000000 -0.020129 0.000000 0.000000
# 5 0.000000 0.000000 0.000000 0.000000 0.060918 0.000000
# 6 0.000000 0.000000 0.000000 0.000000 0.000000 0.017481
#
#
# Mechanical properties :
#
#
# Convention : Reuss Voigt Hill
#
# Bulk Modulus (GPa) = 13.96390 57.93784 35.95087
# Shear Modulus (GPa) = 29.85675 25.31176 27.58425
#
# Velocity S-wave (km/s) = 3.74550 3.44865 3.60014
# Velocity P-wave (km/s) = 5.02655 6.56360 5.84581
#
# Compressibility (1/GPa) = 0.07161322
#
# Stress axis : x y z
#
# Youngs Moduli (GPa) = 158.61451 154.11365 15.22624
#
# Poissons Ratio (x) = 0.36580 -0.00985
# Poissons Ratio (y) = 0.37649 0.02591
# Poissons Ratio (z) = -0.10260 0.26220
#
# Static dielectric constant tensor:
#      x y z
#    x 1.740590 0.000000 0.000000 
#    y 0.000000 1.828570 0.000000 
#    z 0.000000 0.000000 1.813470 
# 
# From -- ./inp_files/56198.got.cif
#   From: 2010.05.17/outbox.cif.g08.bks.cpg/sg74_29_cif.got.tgz:56198.got - 2010.06.03 17:57:02.
