data_PCOD9539505
_publ_section_title
;
Structure prediction by ZEFSAII (Michael W. Deem and Ramdas Pophale) SiO2 
 PCOD9539505
Probable space group: I M M A
;
_chemical_formula_sum "Si O2"
_cell_formula_units_Z 96
_cell_length_a 15.117428
_cell_length_b 21.434393
_cell_length_c 14.102186
_cell_angle_alpha 90.000000
_cell_angle_beta 90.000000
_cell_angle_gamma 90.000000
_cell_volume 4569.572126
_symmetry_space_group_name_H-M "I M M A"
_symmetry_group_IT_number 74
_symmetry_cell_setting 'orthorhombic'
loop_
_space_group_symop_operation_xyz
x,y,z
-x,1/2-y,z
x,-y,-z
-x,1/2+y,-z
-x,-y,-z
x,1/2+y,-z
-x,y,z
x,1/2-y,z
1/2+x,1/2+y,1/2+z
1/2-x,-y,1/2+z
1/2+x,1/2-y,1/2-z
1/2-x,y,1/2-z
1/2-x,1/2-y,1/2-z
1/2+x,y,1/2-z
1/2-x,1/2+y,1/2+z
1/2+x,-y,1/2+z
loop_
_atom_site_type_symbol
_atom_site_label
_atom_site_fract_x
_atom_site_fract_y
_atom_site_fract_z
Si Si1 0.906756 0.059608 0.566604
Si Si2 0.900226 0.915323 0.857743
Si Si3 0.671701 0.816598 0.328721
Si Si4 0.756371 0.857670 0.515570
Si Si5 0.645682 0.046574 0.724737
Si Si6 0.652987 0.818442 0.796831
O O1 0.817970 0.095677 0.542914
O O2 0.902630 0.040126 0.675300
O O3 0.000000 0.094621 0.549905
O O4 0.906998 0.000000 0.500000
O O5 0.823663 0.889389 0.926355
O O6 0.892592 0.875400 0.759068
O O7 0.000000 0.906874 0.894414
O O8 0.881244 0.988128 0.839168
O O9 0.623374 0.750000 0.314504
O O10 0.750000 0.817601 0.250000
O O11 0.712767 0.816393 0.433975
O O12 0.626420 0.884253 0.316028
O O13 0.823502 0.829048 0.593176
O O14 0.750000 0.041556 0.750000
O O15 0.610935 0.750000 0.782378
O O16 0.750000 0.815814 0.750000
#
# Coordination Sequence:
#
# PCOD9539505 Si02
#       6
#    16  16  16  16  16  16
#     4  11  22  36  60  93 129 167 215 272 329 383
#     4  11  24  40  63  97 136 175 215 263 324 394
#     4  10  21  39  67  93 122 171 220 268 325 382
#     4  11  21  39  66  95 130 169 219 263 325 387
#     4  11  20  40  65  91 125 170 214 269 326 390
#     4   9  19  37  62  92 126 165 211 264 322 388
#
# _framework density 21.008531000000001
#
# number of rings (size 3 to 8) (size 9 to 14) (size 15 to 20)
#    0.000    1.500    3.333    4.500    0.000    3.000 
#    0.000    2.500    0.000    7.500    0.000    0.000 
#    0.000    0.000    0.000    0.000    0.000    0.000 
#
# Total GULP energy -267656.311515 kJ/mol
# GULP energy per Si atom -5576.173157 kJ/mol
# Density = 2.096071 g / cm^3
# Si number density = 21.008531 Si / 1000 Ang^3
#
#
#
# Elastic Constant Matrix: (Units=GPa)
#
#
# Indices 1 2 3 4 5 6 
#
# 1 100.1544 27.2029 8.5658 -0.0001 0.0000 0.0000
# 2 27.2029 147.5685 30.2013 0.0008 0.0002 -0.0001
# 3 8.5658 30.2013 100.7571 0.0022 0.0010 -0.0001
# 4 -0.0001 0.0008 0.0022 -277.2448 -0.0035 0.0006
# 5 0.0000 0.0002 0.0010 -0.0035 621.9257 0.0000
# 6 0.0000 -0.0001 -0.0001 0.0006 0.0000 13.0717
#
#
#
# Elastic Compliance Matrix: (Units=1/GPa)
#
#
# Indices 1 2 3 4 5 6 
#
# 1 0.010521 -0.001871 -0.000334 0.000000 0.000000 0.000000
# 2 -0.001871 0.007552 -0.002105 0.000000 0.000000 0.000000
# 3 -0.000334 -0.002105 0.010584 0.000000 0.000000 0.000000
# 4 0.000000 0.000000 0.000000 -0.003607 0.000000 0.000000
# 5 0.000000 0.000000 0.000000 0.000000 0.001608 0.000000
# 6 0.000000 0.000000 0.000000 0.000000 0.000000 0.076501
#
#
# Mechanical properties :
#
#
# Convention : Reuss Voigt Hill
#
# Bulk Modulus (GPa) = 49.90342 53.38000 51.64171
# Shear Modulus (GPa) = 42.20903 90.38453 66.29678
#
# Velocity S-wave (km/s) = 4.48720 6.56629 5.62366
# Velocity P-wave (km/s) = 7.11703 9.10781 8.17326
#
# Compressibility (1/GPa) = 0.02003871
#
# Stress axis : x y z
#
# Youngs Moduli (GPa) = 95.04474 132.41179 94.48165
#
# Poissons Ratio (x) = 0.24778 0.03152
# Poissons Ratio (y) = 0.17785 0.19885
# Poissons Ratio (z) = 0.03170 0.27868
#
# Static dielectric constant tensor:
#      x y z
#    x 1.833090 0.000060 0.000000 
#    y 0.000060 -34.924660 0.000170 
#    z 0.000000 0.000170 1.743660 
# 
# From -- ./inp_files/32309.got.cif
#   From: 2010.05.17/outbox.cif.g08.bks.cpg/sg74_17_cif.got.tgz:32309.got - 2010.06.03 17:57:02.
