data_PCOD9539575
_publ_section_title
;
Structure prediction by ZEFSAII (Michael W. Deem and Ramdas Pophale) SiO2 
 PCOD9539575
Probable space group: I M M A
;
_chemical_formula_sum "Si O2"
_cell_formula_units_Z 100
_cell_length_a 20.877162
_cell_length_b 18.042007
_cell_length_c 14.742292
_cell_angle_alpha 90.000000
_cell_angle_beta 90.000000
_cell_angle_gamma 90.000000
_cell_volume 5552.918728
_symmetry_space_group_name_H-M "I M M A"
_symmetry_group_IT_number 74
_symmetry_cell_setting 'orthorhombic'
loop_
_space_group_symop_operation_xyz
x,y,z
-x,1/2-y,z
x,-y,-z
-x,1/2+y,-z
-x,-y,-z
x,1/2+y,-z
-x,y,z
x,1/2-y,z
1/2+x,1/2+y,1/2+z
1/2-x,-y,1/2+z
1/2+x,1/2-y,1/2-z
1/2-x,y,1/2-z
1/2-x,1/2-y,1/2-z
1/2+x,y,1/2-z
1/2-x,1/2+y,1/2+z
1/2+x,-y,1/2+z
loop_
_atom_site_type_symbol
_atom_site_label
_atom_site_fract_x
_atom_site_fract_y
_atom_site_fract_z
Si Si1 0.926487 0.160947 0.143952
Si Si2 0.871603 0.331615 0.617724
Si Si3 0.165543 0.161372 0.983648
Si Si4 0.322950 0.919803 0.764637
Si Si5 0.708720 0.082193 0.031584
Si Si6 0.000000 0.250000 0.581888
Si Si7 0.821436 0.909078 0.213883
O O1 0.925977 0.250000 0.152620
O O2 0.878266 0.127702 0.218231
O O3 0.000000 0.135401 0.152817
O O4 0.896036 0.143490 0.045426
O O5 0.839027 0.250000 0.624466
O O6 0.834783 0.381423 0.545674
O O7 0.868836 0.370300 0.715154
O O8 0.943076 0.313168 0.586749
O O9 0.168778 0.250000 0.971314
O O10 0.167519 0.120992 0.886717
O O11 0.227648 0.131883 0.037640
O O12 0.250000 0.891809 0.750000
O O13 0.327998 0.923339 0.873361
O O14 0.326225 0.002232 0.721954
O O15 0.727835 0.000000 0.000000
O O16 0.750000 0.889959 0.250000
#
# Coordination Sequence:
#
# PCOD9539575 Si02
#       7
#    16  16  16  16  16   4  16
#     4  10  24  46  61  88 130 169 211 263 311 375
#     4  10  21  41  60  85 127 159 207 252 316 370
#     4  11  23  38  65  95 124 166 208 253 316 376
#     4  11  22  40  64  93 127 162 209 263 321 364
#     4  12  21  38  65  95 125 158 204 268 315 363
#     4   8  24  44  56  84 130 168 196 280 300 380
#     4  11  21  37  64  97 127 160 198 269 321 368
#
# _framework density 18.008547
#
# number of rings (size 3 to 8) (size 9 to 14) (size 15 to 20)
#    0.480    0.800    4.800    1.920    0.000    2.240 
#    4.320    1.200    0.000    0.000    0.000    0.000 
#    0.000    0.000    0.000    0.000    0.000    0.000 
#
# Total GULP energy -278447.777489 kJ/mol
# GULP energy per Si atom -5568.955550 kJ/mol
# Density = 1.796756 g / cm^3
# Si number density = 18.008547 Si / 1000 Ang^3
#
#
#
# Elastic Constant Matrix: (Units=GPa)
#
#
# Indices 1 2 3 4 5 6 
#
# 1 103.3683 46.0809 38.2145 0.0000 0.0000 0.0000
# 2 46.0809 49.6440 35.7493 0.0000 0.0000 0.0000
# 3 38.2145 35.7493 125.0142 0.0000 0.0000 0.0000
# 4 0.0000 0.0000 0.0000 22.4101 0.0000 0.0000
# 5 0.0000 0.0000 0.0000 0.0000 14.8454 0.0000
# 6 0.0000 0.0000 0.0000 0.0000 0.0000 2.1742
#
#
#
# Elastic Compliance Matrix: (Units=1/GPa)
#
#
# Indices 1 2 3 4 5 6 
#
# 1 0.016573 -0.014778 -0.000840 0.000000 0.000000 0.000000
# 2 -0.014778 0.038546 -0.006505 0.000000 0.000000 0.000000
# 3 -0.000840 -0.006505 0.010116 0.000000 0.000000 0.000000
# 4 0.000000 0.000000 0.000000 0.044623 0.000000 0.000000
# 5 0.000000 0.000000 0.000000 0.000000 0.067361 0.000000
# 6 0.000000 0.000000 0.000000 0.000000 0.000000 0.459936
#
#
# Mechanical properties :
#
#
# Convention : Reuss Voigt Hill
#
# Bulk Modulus (GPa) = 47.64736 57.56841 52.60788
# Shear Modulus (GPa) = 7.26326 18.41807 12.84066
#
# Velocity S-wave (km/s) = 2.01047 3.20150 2.67316
# Velocity P-wave (km/s) = 5.64845 6.76039 6.22928
#
# Compressibility (1/GPa) = 0.02098752
#
# Stress axis : x y z
#
# Youngs Moduli (GPa) = 60.33987 25.94331 98.85293
#
# Poissons Ratio (x) = 0.38340 0.08303
# Poissons Ratio (y) = 0.89173 0.64304
# Poissons Ratio (z) = 0.05068 0.16876
#
# Static dielectric constant tensor:
#      x y z
#    x 1.606790 0.000000 0.000000 
#    y 0.000000 1.633390 0.000000 
#    z 0.000000 0.000000 1.632740 
# 
# From -- ./inp_files/35487.got.cif
#   From: 2010.05.17/outbox.cif.g08.bks.cpg/sg74_18_cif.got.tgz:35487.got - 2010.06.03 17:57:02.
