data_PCOD9539696
_publ_section_title
;
Structure prediction by ZEFSAII (Michael W. Deem and Ramdas Pophale) SiO2 
 PCOD9539696
Probable space group: I M M A
;
_chemical_formula_sum "Si O2"
_cell_formula_units_Z 80
_cell_length_a 11.451882
_cell_length_b 20.695012
_cell_length_c 17.947263
_cell_angle_alpha 90.000000
_cell_angle_beta 90.000000
_cell_angle_gamma 90.000000
_cell_volume 4253.444535
_symmetry_space_group_name_H-M "I M M A"
_symmetry_group_IT_number 74
_symmetry_cell_setting 'orthorhombic'
loop_
_space_group_symop_operation_xyz
x,y,z
-x,1/2-y,z
x,-y,-z
-x,1/2+y,-z
-x,-y,-z
x,1/2+y,-z
-x,y,z
x,1/2-y,z
1/2+x,1/2+y,1/2+z
1/2-x,-y,1/2+z
1/2+x,1/2-y,1/2-z
1/2-x,y,1/2-z
1/2-x,1/2-y,1/2-z
1/2+x,y,1/2-z
1/2-x,1/2+y,1/2+z
1/2+x,-y,1/2+z
loop_
_atom_site_type_symbol
_atom_site_label
_atom_site_fract_x
_atom_site_fract_y
_atom_site_fract_z
Si Si1 0.228891 0.512056 0.661822
Si Si2 0.129884 0.569742 0.958365
Si Si3 0.127795 0.674888 0.215542
Si Si4 0.258603 0.629025 0.086541
Si Si5 0.500000 0.448254 0.070173
Si Si6 0.000000 0.675772 0.463958
O O1 0.250000 0.511427 0.750000
O O2 0.331594 0.553918 0.624617
O O3 0.233835 0.439654 0.628523
O O4 0.111037 0.540008 0.623858
O O5 0.000000 0.595930 0.963655
O O6 0.131725 0.500000 0.000000
O O7 0.220209 0.613879 0.002571
O O8 0.121339 0.750000 0.236654
O O9 0.250000 0.649945 0.250000
O O10 0.157033 0.667800 0.128386
O O11 0.000000 0.645011 0.232471
O O12 0.383749 0.663201 0.085038
O O13 0.500000 0.500000 0.000000
O O14 0.500000 0.378744 0.028871
O O15 0.000000 0.750000 0.489796
#
# Coordination Sequence:
#
# PCOD9539696 Si02
#       6
#    16  16  16  16   8   8
#     4  11  22  35  60  94 125 164 203 268 337 395
#     4   9  18  33  54  81 117 155 197 253 316 381
#     4  10  22  38  54  78 118 167 215 265 320 386
#     4  11  20  38  57  86 124 161 213 264 323 385
#     4  12  20  46  66  92 135 172 219 282 328 393
#     4  12  24  38  68  98 124 176 234 272 320 394
#
# _framework density 18.808285999999999
#
# number of rings (size 3 to 8) (size 9 to 14) (size 15 to 20)
#    0.000    1.400    4.000    2.400    2.800    0.800 
#    3.600    0.000    0.000    0.600    0.000    0.000 
#    0.000    0.000    0.000    0.000    0.000    0.000 
#
# Total GULP energy -222972.523520 kJ/mol
# GULP energy per Si atom -5574.313088 kJ/mol
# Density = 1.876548 g / cm^3
# Si number density = 18.808286 Si / 1000 Ang^3
#
#
#
# Elastic Constant Matrix: (Units=GPa)
#
#
# Indices 1 2 3 4 5 6 
#
# 1 143.6233 23.8125 37.1250 0.0000 0.0000 0.0000
# 2 23.8125 58.9175 27.7158 0.0000 0.0000 0.0000
# 3 37.1250 27.7158 119.7997 0.0000 0.0000 0.0000
# 4 0.0000 0.0000 0.0000 20.6397 0.0000 0.0000
# 5 0.0000 0.0000 0.0000 0.0000 20.7020 0.0000
# 6 0.0000 0.0000 0.0000 0.0000 0.0000 14.3191
#
#
#
# Elastic Compliance Matrix: (Units=1/GPa)
#
#
# Indices 1 2 3 4 5 6 
#
# 1 0.007831 -0.002270 -0.001901 0.000000 0.000000 0.000000
# 2 -0.002270 0.019704 -0.003855 0.000000 0.000000 0.000000
# 3 -0.001901 -0.003855 0.009828 0.000000 0.000000 0.000000
# 4 0.000000 0.000000 0.000000 0.048450 0.000000 0.000000
# 5 0.000000 0.000000 0.000000 0.000000 0.048304 0.000000
# 6 0.000000 0.000000 0.000000 0.000000 0.000000 0.069837
#
#
# Mechanical properties :
#
#
# Convention : Reuss Voigt Hill
#
# Bulk Modulus (GPa) = 46.92771 55.51637 51.22204
# Shear Modulus (GPa) = 22.01570 26.71133 24.36351
#
# Velocity S-wave (km/s) = 3.42502 3.77263 3.60302
# Velocity P-wave (km/s) = 6.37540 6.96836 6.67846
#
# Compressibility (1/GPa) = 0.02130937
#
# Stress axis : x y z
#
# Youngs Moduli (GPa) = 127.70455 50.75125 101.74664
#
# Poissons Ratio (x) = 0.11523 0.19346
# Poissons Ratio (y) = 0.28994 0.39223
# Poissons Ratio (z) = 0.24281 0.19564
#
# Static dielectric constant tensor:
#      x y z
#    x 1.724820 0.000000 0.000000 
#    y 0.000000 1.641400 0.000000 
#    z 0.000000 0.000000 1.703790 
# 
# From -- ./inp_files/41223.got.cif
#   From: 2010.05.17/outbox.cif.g08.bks.cpg/sg74_21_cif.got.tgz:41223.got - 2010.06.03 17:57:02.
