data_PCOD9539633
_publ_section_title
;
Structure prediction by ZEFSAII (Michael W. Deem and Ramdas Pophale) SiO2 
 PCOD9539633
Probable space group: I M M A
;
_chemical_formula_sum "Si O2"
_cell_formula_units_Z 64
_cell_length_a 25.481251
_cell_length_b 12.765014
_cell_length_c 10.225613
_cell_angle_alpha 90.000000
_cell_angle_beta 90.000000
_cell_angle_gamma 90.000000
_cell_volume 3326.070065
_symmetry_space_group_name_H-M "I M M A"
_symmetry_group_IT_number 74
_symmetry_cell_setting 'orthorhombic'
loop_
_space_group_symop_operation_xyz
x,y,z
-x,1/2-y,z
x,-y,-z
-x,1/2+y,-z
-x,-y,-z
x,1/2+y,-z
-x,y,z
x,1/2-y,z
1/2+x,1/2+y,1/2+z
1/2-x,-y,1/2+z
1/2+x,1/2-y,1/2-z
1/2-x,y,1/2-z
1/2-x,1/2-y,1/2-z
1/2+x,y,1/2-z
1/2-x,1/2+y,1/2+z
1/2+x,-y,1/2+z
loop_
_atom_site_type_symbol
_atom_site_label
_atom_site_fract_x
_atom_site_fract_y
_atom_site_fract_z
Si Si1 0.776808 0.374277 0.884980
Si Si2 0.793007 0.370301 0.365040
Si Si3 0.399493 0.126467 0.257178
Si Si4 0.127647 0.500000 0.000000
Si Si5 0.000000 0.120562 0.429403
O O1 0.784268 0.250000 0.877816
O O2 0.750000 0.408953 0.750000
O O3 0.832033 0.424842 0.921951
O O4 0.736380 0.397054 0.001981
O O5 0.808353 0.250000 0.387353
O O6 0.750000 0.372159 0.250000
O O7 0.847271 0.418516 0.315183
O O8 0.391624 0.250000 0.289331
O O9 0.404685 0.064229 0.392834
O O10 0.448357 0.117808 0.160581
O O11 0.000000 0.250000 0.482975
O O12 0.000000 0.000000 0.500000
#
# Coordination Sequence:
#
# PCOD9539633 Si02
#       5
#    16  16  16   8   8
#     4  10  22  35  49  82 128 162 203 264 316 374
#     4   9  16  33  58  81 117 165 211 255 323 399
#     4  10  22  40  63  90 124 169 216 271 330 400
#     4  12  22  33  60  88 120 169 212 256 310 398
#     4  10  24  49  74  98 128 167 225 278 335 402
#
# _framework density 19.241928999999999
#
# number of rings (size 3 to 8) (size 9 to 14) (size 15 to 20)
#    0.000    2.000    2.500    0.750    3.500    2.500 
#    0.000    5.000    0.000    0.000    0.000    0.000 
#    0.000    0.000    0.000    0.000    0.000    0.000 
#
# Total GULP energy -178137.663764 kJ/mol
# GULP energy per Si atom -5566.801993 kJ/mol
# Density = 1.919813 g / cm^3
# Si number density = 19.241929 Si / 1000 Ang^3
#
#
#
# Elastic Constant Matrix: (Units=GPa)
#
#
# Indices 1 2 3 4 5 6 
#
# 1 66.8268 -10.7752 11.9003 0.0000 0.0000 0.0000
# 2 -10.7752 111.6929 14.8979 0.0000 0.0000 0.0000
# 3 11.9003 14.8979 119.8712 0.0000 0.0000 0.0000
# 4 0.0000 0.0000 0.0000 53.0131 0.0000 0.0000
# 5 0.0000 0.0000 0.0000 0.0000 13.9235 0.0000
# 6 0.0000 0.0000 0.0000 0.0000 0.0000 25.3340
#
#
#
# Elastic Compliance Matrix: (Units=1/GPa)
#
#
# Indices 1 2 3 4 5 6 
#
# 1 0.015557 0.001736 -0.001760 0.000000 0.000000 0.000000
# 2 0.001736 0.009298 -0.001328 0.000000 0.000000 0.000000
# 3 -0.001760 -0.001328 0.008682 0.000000 0.000000 0.000000
# 4 0.000000 0.000000 0.000000 0.018863 0.000000 0.000000
# 5 0.000000 0.000000 0.000000 0.000000 0.071821 0.000000
# 6 0.000000 0.000000 0.000000 0.000000 0.000000 0.039473
#
#
# Mechanical properties :
#
#
# Convention : Reuss Voigt Hill
#
# Bulk Modulus (GPa) = 32.43355 36.71523 34.57439
# Shear Modulus (GPa) = 28.30037 37.27866 32.78951
#
# Velocity S-wave (km/s) = 3.83922 4.40633 4.13251
# Velocity P-wave (km/s) = 6.04525 6.70894 6.38572
#
# Compressibility (1/GPa) = 0.03083227
#
# Stress axis : x y z
#
# Youngs Moduli (GPa) = 64.27831 107.55384 115.18007
#
# Poissons Ratio (x) = -0.18667 0.20274
# Poissons Ratio (y) = -0.11156 0.15294
# Poissons Ratio (z) = 0.11314 0.14281
#
# Static dielectric constant tensor:
#      x y z
#    x 1.633730 0.000000 0.000000 
#    y 0.000000 1.819400 0.000000 
#    z 0.000000 0.000000 1.680380 
# 
# From -- ./inp_files/13299.got.cif
#   From: 2010.05.17/outbox.cif.g08.bks.cpg/sg74_7_cif.got.tgz:13299.got - 2010.06.03 17:57:02.
