data_PCOD9539598
_publ_section_title
;
Structure prediction by ZEFSAII (Michael W. Deem and Ramdas Pophale) SiO2 
 PCOD9539598
Probable space group: I M M A
;
_chemical_formula_sum "Si O2"
_cell_formula_units_Z 88
_cell_length_a 23.011658
_cell_length_b 11.059999
_cell_length_c 15.833488
_cell_angle_alpha 90.000000
_cell_angle_beta 90.000000
_cell_angle_gamma 90.000000
_cell_volume 4029.763843
_symmetry_space_group_name_H-M "I M M A"
_symmetry_group_IT_number 74
_symmetry_cell_setting 'orthorhombic'
loop_
_space_group_symop_operation_xyz
x,y,z
-x,1/2-y,z
x,-y,-z
-x,1/2+y,-z
-x,-y,-z
x,1/2+y,-z
-x,y,z
x,1/2-y,z
1/2+x,1/2+y,1/2+z
1/2-x,-y,1/2+z
1/2+x,1/2-y,1/2-z
1/2-x,y,1/2-z
1/2-x,1/2-y,1/2-z
1/2+x,y,1/2-z
1/2-x,1/2+y,1/2+z
1/2+x,-y,1/2+z
loop_
_atom_site_type_symbol
_atom_site_label
_atom_site_fract_x
_atom_site_fract_y
_atom_site_fract_z
Si Si1 0.816382 0.250000 0.373943
Si Si2 0.322655 0.495097 0.901259
Si Si3 0.209753 0.250000 0.004927
Si Si4 0.765972 0.750000 0.344406
Si Si5 0.143543 0.000000 0.000000
Si Si6 0.067592 0.110831 0.657009
Si Si7 0.931252 0.750000 0.729108
Si Si8 0.931261 0.000465 0.167952
O O1 0.801580 0.387775 0.348845
O O2 0.776626 0.250000 0.460216
O O3 0.885396 0.250000 0.349153
O O4 0.299342 0.372187 0.864157
O O5 0.391859 0.479871 0.893853
O O6 0.307302 0.500000 0.000000
O O7 0.179604 0.378391 0.025533
O O8 0.210777 0.250000 0.904377
O O9 0.750000 0.750000 0.250000
O O10 0.104674 0.022668 0.916699
O O11 0.076569 0.250000 0.631673
O O12 0.000000 0.080748 0.646810
O O13 0.081542 0.092903 0.756224
O O14 0.920622 0.868162 0.787984
O O15 0.000000 0.750000 0.704780
O O16 0.000000 0.994410 0.148469
#
# Coordination Sequence:
#
# PCOD9539598 Si02
#       8
#     8  16   8   8   8  16   8  16
#     4  12  24  44  70  99 146 184 225 299 360 404
#     4  12  23  44  71  98 136 181 225 281 351 410
#     4  12  27  48  65  99 139 184 236 295 342 413
#     4  12  28  47  72  96 129 185 238 288 347 414
#     4  12  27  44  70  98 137 182 242 288 352 424
#     4  10  22  40  66 103 138 172 225 284 346 424
#     4  10  21  41  72 104 139 181 232 286 366 443
#     4  10  22  43  69 102 138 176 224 296 362 426
#
# _framework density 21.837506999999999
#
# number of rings (size 3 to 8) (size 9 to 14) (size 15 to 20)
#    0.000    0.909    4.545    1.909    3.818    0.364 
#    0.000    3.182    0.000    0.000    0.000    0.000 
#    0.000    0.000    0.000    0.000    0.000    0.000 
#
# Total GULP energy -245130.392424 kJ/mol
# GULP energy per Si atom -5571.145282 kJ/mol
# Density = 2.178780 g / cm^3
# Si number density = 21.837507 Si / 1000 Ang^3
#
#
#
# Elastic Constant Matrix: (Units=GPa)
#
#
# Indices 1 2 3 4 5 6 
#
# 1 63.2907 27.7279 45.9344 0.0000 0.0000 0.0000
# 2 27.7279 159.1162 10.0237 0.0000 0.0000 0.0000
# 3 45.9344 10.0237 69.2631 0.0000 0.0000 0.0000
# 4 0.0000 0.0000 0.0000 21.7305 0.0000 0.0000
# 5 0.0000 0.0000 0.0000 0.0000 37.9157 0.0000
# 6 0.0000 0.0000 0.0000 0.0000 0.0000 18.3838
#
#
#
# Elastic Compliance Matrix: (Units=1/GPa)
#
#
# Indices 1 2 3 4 5 6 
#
# 1 0.033323 -0.004455 -0.021455 0.000000 0.000000 0.000000
# 2 -0.004455 0.006938 0.001951 0.000000 0.000000 0.000000
# 3 -0.021455 0.001951 0.028384 0.000000 0.000000 0.000000
# 4 0.000000 0.000000 0.000000 0.046018 0.000000 0.000000
# 5 0.000000 0.000000 0.000000 0.000000 0.026374 0.000000
# 6 0.000000 0.000000 0.000000 0.000000 0.000000 0.054396
#
#
# Mechanical properties :
#
#
# Convention : Reuss Voigt Hill
#
# Bulk Modulus (GPa) = 48.24762 51.00467 49.62614
# Shear Modulus (GPa) = 19.97912 29.47160 24.72536
#
# Velocity S-wave (km/s) = 3.02801 3.67766 3.36853
# Velocity P-wave (km/s) = 5.86234 6.43745 6.15661
#
# Compressibility (1/GPa) = 0.02072641
#
# Stress axis : x y z
#
# Youngs Moduli (GPa) = 30.00919 144.12893 35.23128
#
# Poissons Ratio (x) = 0.64215 0.75588
# Poissons Ratio (y) = 0.13370 -0.06872
# Poissons Ratio (z) = 0.64384 -0.28115
#
# Static dielectric constant tensor:
#      x y z
#    x 1.881460 0.000000 0.000000 
#    y 0.000000 1.901000 0.000000 
#    z 0.000000 0.000000 1.769750 
# 
# From -- ./inp_files/36317.got.cif
#   From: 2010.05.17/outbox.cif.g08.bks.cpg/sg74_19_cif.got.tgz:36317.got - 2010.06.03 17:57:02.
