data_PCOD9539286
_publ_section_title
;
Structure prediction by ZEFSAII (Michael W. Deem and Ramdas Pophale) SiO2 
 PCOD9539286
Probable space group: I M M A
;
_chemical_formula_sum "Si O2"
_cell_formula_units_Z 72
_cell_length_a 27.232716
_cell_length_b 16.850311
_cell_length_c 7.959606
_cell_angle_alpha 90.000000
_cell_angle_beta 90.000000
_cell_angle_gamma 90.000000
_cell_volume 3652.501884
_symmetry_space_group_name_H-M "I M M A"
_symmetry_group_IT_number 74
_symmetry_cell_setting 'orthorhombic'
loop_
_space_group_symop_operation_xyz
x,y,z
-x,1/2-y,z
x,-y,-z
-x,1/2+y,-z
-x,-y,-z
x,1/2+y,-z
-x,y,z
x,1/2-y,z
1/2+x,1/2+y,1/2+z
1/2-x,-y,1/2+z
1/2+x,1/2-y,1/2-z
1/2-x,y,1/2-z
1/2-x,1/2-y,1/2-z
1/2+x,y,1/2-z
1/2-x,1/2+y,1/2+z
1/2+x,-y,1/2+z
loop_
_atom_site_type_symbol
_atom_site_label
_atom_site_fract_x
_atom_site_fract_y
_atom_site_fract_z
Si Si1 0.320203 0.338933 0.439551
Si Si2 0.727246 0.088386 0.933006
Si Si3 0.119970 0.500000 0.000000
Si Si4 0.056754 0.952343 0.675311
Si Si5 0.863347 0.838011 0.568694
O O1 0.333501 0.250000 0.505841
O O2 0.262472 0.353046 0.463890
O O3 0.347676 0.418483 0.510178
O O4 0.333708 0.338828 0.243842
O O5 0.750000 0.092350 0.750000
O O6 0.670184 0.110587 0.944758
O O7 0.732847 0.000000 0.000000
O O8 0.086929 0.509811 0.831349
O O9 0.084412 0.872109 0.622597
O O10 0.000000 0.942438 0.723838
O O11 0.058739 0.000000 0.500000
O O12 0.867247 0.750000 0.500786
#
# Coordination Sequence:
#
# PCOD9539286 Si02
#       5
#    16  16   8  16  16
#     4  10  21  38  59  88 123 163 206 250 312 381
#     4  12  24  36  57  87 122 164 206 250 307 377
#     4  10  21  40  64  92 124 166 203 260 316 380
#     4  10  22  40  64  90 118 160 210 258 315 377
#     4  10  22  39  60  85 119 159 201 257 314 374
#
# _framework density 19.712516000000001
#
# number of rings (size 3 to 8) (size 9 to 14) (size 15 to 20)
#    0.000    1.556    1.111    3.667    6.222    4.000 
#    0.000    0.000    0.000    3.333    0.000    0.000 
#    0.000    0.000    0.000    0.000    0.000    0.000 
#
# Total GULP energy -200835.000932 kJ/mol
# GULP energy per Si atom -5578.750026 kJ/mol
# Density = 1.966765 g / cm^3
# Si number density = 19.712516 Si / 1000 Ang^3
#
#
#
# Elastic Constant Matrix: (Units=GPa)
#
#
# Indices 1 2 3 4 5 6 
#
# 1 110.0358 51.1573 26.5628 0.0000 0.0000 0.0000
# 2 51.1573 126.0821 28.3805 0.0000 0.0000 0.0000
# 3 26.5628 28.3805 51.7537 0.0000 0.0000 0.0000
# 4 0.0000 0.0000 0.0000 8.6798 0.0000 0.0000
# 5 0.0000 0.0000 0.0000 0.0000 37.8032 0.0000
# 6 0.0000 0.0000 0.0000 0.0000 0.0000 21.6721
#
#
#
# Elastic Compliance Matrix: (Units=1/GPa)
#
#
# Indices 1 2 3 4 5 6 
#
# 1 0.011864 -0.003928 -0.003935 0.000000 0.000000 0.000000
# 2 -0.003928 0.010349 -0.003659 0.000000 0.000000 0.000000
# 3 -0.003935 -0.003659 0.023349 0.000000 0.000000 0.000000
# 4 0.000000 0.000000 0.000000 0.115210 0.000000 0.000000
# 5 0.000000 0.000000 0.000000 0.000000 0.026453 0.000000
# 6 0.000000 0.000000 0.000000 0.000000 0.000000 0.046142
#
#
# Mechanical properties :
#
#
# Convention : Reuss Voigt Hill
#
# Bulk Modulus (GPa) = 44.41094 55.56365 49.98729
# Shear Modulus (GPa) = 18.94540 25.74911 22.34725
#
# Velocity S-wave (km/s) = 3.10350 3.61810 3.37064
# Velocity P-wave (km/s) = 5.95151 6.76036 6.36879
#
# Compressibility (1/GPa) = 0.02251698
#
# Stress axis : x y z
#
# Youngs Moduli (GPa) = 84.28775 96.63040 42.82916
#
# Poissons Ratio (x) = 0.37956 0.16855
# Poissons Ratio (y) = 0.33108 0.15671
# Poissons Ratio (z) = 0.33170 0.35356
#
# Static dielectric constant tensor:
#      x y z
#    x 1.683600 0.000000 0.000000 
#    y 0.000000 1.718280 0.000000 
#    z 0.000000 0.000000 1.720330 
# 
# From -- ./inp_files/13478.got.cif
#   From: 2010.05.17/outbox.cif.g08.bks.cpg/sg74_7_cif.got.tgz:13478.got - 2010.06.03 17:57:02.
