data_PCOD9539195
_publ_section_title
;
Structure prediction by ZEFSAII (Michael W. Deem and Ramdas Pophale) SiO2 
 PCOD9539195
Probable space group: I M M A
;
_chemical_formula_sum "Si O2"
_cell_formula_units_Z 116
_cell_length_a 17.612325
_cell_length_b 25.493864
_cell_length_c 14.830066
_cell_angle_alpha 90.000000
_cell_angle_beta 90.000000
_cell_angle_gamma 90.000000
_cell_volume 6658.791851
_symmetry_space_group_name_H-M "I M M A"
_symmetry_group_IT_number 74
_symmetry_cell_setting 'orthorhombic'
loop_
_space_group_symop_operation_xyz
x,y,z
-x,1/2-y,z
x,-y,-z
-x,1/2+y,-z
-x,-y,-z
x,1/2+y,-z
-x,y,z
x,1/2-y,z
1/2+x,1/2+y,1/2+z
1/2-x,-y,1/2+z
1/2+x,1/2-y,1/2-z
1/2-x,y,1/2-z
1/2-x,1/2-y,1/2-z
1/2+x,y,1/2-z
1/2-x,1/2+y,1/2+z
1/2+x,-y,1/2+z
loop_
_atom_site_type_symbol
_atom_site_label
_atom_site_fract_x
_atom_site_fract_y
_atom_site_fract_z
Si Si1 0.842752 0.440350 0.475712
Si Si2 0.000000 0.250000 0.129830
Si Si3 0.412101 0.122937 0.864194
Si Si4 0.270252 0.191659 0.854885
Si Si5 0.909101 0.957063 0.198604
Si Si6 0.840218 0.433020 0.264409
Si Si7 0.181956 0.899398 0.041575
Si Si8 0.916205 0.359595 0.125805
O O1 0.860093 0.500000 0.500000
O O2 0.893328 0.405087 0.541553
O O3 0.855974 0.429957 0.370779
O O4 0.754418 0.429392 0.499830
O O5 0.065200 0.202417 0.128930
O O6 0.500000 0.136500 0.856367
O O7 0.356609 0.172210 0.860064
O O8 0.393075 0.082283 0.782934
O O9 0.260190 0.250000 0.892291
O O10 0.250000 0.192025 0.750000
O O11 0.217933 0.149399 0.904335
O O12 0.865025 0.935100 0.111386
O O13 0.000000 0.957625 0.184512
O O14 0.878942 0.014507 0.224646
O O15 0.750000 0.437323 0.250000
O O16 0.872074 0.382822 0.211302
O O17 0.129218 0.877216 0.962549
O O18 0.000000 0.385303 0.123824
#
# Coordination Sequence:
#
# PCOD9539195 Si02
#       8
#    16   4  16  16  16  16  16  16
#     4  11  22  38  62  91 125 167 208 250 308 379
#     4   8  24  48  70  86 132 162 202 284 326 360
#     4  10  22  38  57  87 123 165 205 253 310 376
#     4  10  21  37  60  86 117 163 213 262 309 370
#     4  11  23  37  60  93 132 168 197 249 316 381
#     4  12  23  40  64  93 127 165 211 255 305 377
#     4  11  22  38  63  92 126 161 208 256 318 386
#     4  10  23  43  67  92 122 160 208 264 320 370
#
# _framework density 17.420577999999999
#
# number of rings (size 3 to 8) (size 9 to 14) (size 15 to 20)
#    0.414    0.966    4.138    1.655    2.897    1.655 
#    0.000    1.724    6.069    0.000    0.000    0.000 
#    0.000    0.000    0.000    0.000    0.000    0.000 
#
# Total GULP energy -323182.251182 kJ/mol
# GULP energy per Si atom -5572.107779 kJ/mol
# Density = 1.738093 g / cm^3
# Si number density = 17.420578 Si / 1000 Ang^3
#
#
#
# Elastic Constant Matrix: (Units=GPa)
#
#
# Indices 1 2 3 4 5 6 
#
# 1 69.2524 9.9719 28.4713 0.0000 0.0000 0.0000
# 2 9.9719 55.5535 39.6605 0.0000 0.0000 0.0000
# 3 28.4713 39.6605 126.2321 0.0000 0.0000 0.0000
# 4 0.0000 0.0000 0.0000 6.9819 0.0000 0.0000
# 5 0.0000 0.0000 0.0000 0.0000 17.1707 0.0000
# 6 0.0000 0.0000 0.0000 0.0000 0.0000 29.4287
#
#
#
# Elastic Compliance Matrix: (Units=1/GPa)
#
#
# Indices 1 2 3 4 5 6 
#
# 1 0.015922 -0.000379 -0.003472 0.000000 0.000000 0.000000
# 2 -0.000379 0.023215 -0.007208 0.000000 0.000000 0.000000
# 3 -0.003472 -0.007208 0.010970 0.000000 0.000000 0.000000
# 4 0.000000 0.000000 0.000000 0.143227 0.000000 0.000000
# 5 0.000000 0.000000 0.000000 0.000000 0.058239 0.000000
# 6 0.000000 0.000000 0.000000 0.000000 0.000000 0.033980
#
#
# Mechanical properties :
#
#
# Convention : Reuss Voigt Hill
#
# Bulk Modulus (GPa) = 35.73023 45.24946 40.48984
# Shear Modulus (GPa) = 15.77284 22.24522 19.00903
#
# Velocity S-wave (km/s) = 3.01227 3.57732 3.30689
# Velocity P-wave (km/s) = 5.71431 6.56461 6.15416
#
# Compressibility (1/GPa) = 0.02798751
#
# Stress axis : x y z
#
# Youngs Moduli (GPa) = 62.80628 43.07587 91.15971
#
# Poissons Ratio (x) = 0.01634 0.31651
# Poissons Ratio (y) = 0.02382 0.65710
# Poissons Ratio (z) = 0.21806 0.31050
#
# Static dielectric constant tensor:
#      x y z
#    x 1.590390 0.000000 0.000000 
#    y 0.000000 1.574010 0.000000 
#    z 0.000000 0.000000 1.585210 
# 
# From -- ./inp_files/22835.got.cif
#   From: 2010.05.17/outbox.cif.g08.bks.cpg/sg74_12_cif.got.tgz:22835.got - 2010.06.03 17:57:02.
