data_PCOD9539938
_publ_section_title
;
Structure prediction by ZEFSAII (Michael W. Deem and Ramdas Pophale) SiO2 
 PCOD9539938
Probable space group: I M M A
;
_chemical_formula_sum "Si O2"
_cell_formula_units_Z 64
_cell_length_a 24.052423
_cell_length_b 16.557054
_cell_length_c 6.973117
_cell_angle_alpha 90.000000
_cell_angle_beta 90.000000
_cell_angle_gamma 90.000000
_cell_volume 2776.955053
_symmetry_space_group_name_H-M "I M M A"
_symmetry_group_IT_number 74
_symmetry_cell_setting 'orthorhombic'
loop_
_space_group_symop_operation_xyz
x,y,z
-x,1/2-y,z
x,-y,-z
-x,1/2+y,-z
-x,-y,-z
x,1/2+y,-z
-x,y,z
x,1/2-y,z
1/2+x,1/2+y,1/2+z
1/2-x,-y,1/2+z
1/2+x,1/2-y,1/2-z
1/2-x,y,1/2-z
1/2-x,1/2-y,1/2-z
1/2+x,y,1/2-z
1/2-x,1/2+y,1/2+z
1/2+x,-y,1/2+z
loop_
_atom_site_type_symbol
_atom_site_label
_atom_site_fract_x
_atom_site_fract_y
_atom_site_fract_z
Si Si1 0.936874 0.660538 0.426548
Si Si2 0.632896 0.431270 0.202007
Si Si3 0.232603 0.340067 0.472815
Si Si4 0.148755 0.390361 0.880836
O O1 0.932403 0.750000 0.517672
O O2 0.920606 0.590913 0.577306
O O3 0.892835 0.658178 0.253809
O O4 0.000000 0.649749 0.358513
O O5 0.682565 0.403130 0.058480
O O6 0.629806 0.381261 0.398899
O O7 0.643495 0.519430 0.291353
O O8 0.214518 0.250000 0.533891
O O9 0.250000 0.333275 0.250000
O O10 0.286152 0.367461 0.595641
#
# Coordination Sequence:
#
# PCOD9539938 Si02
#       4
#    16  16  16  16
#     4  11  25  44  66  93 127 172 228 280 329 391
#     4  10  22  42  64  97 136 172 215 273 333 395
#     4   9  18  37  64  94 132 169 211 263 324 395
#     4  10  22  42  65  99 132 175 216 271 333 399
#
# _framework density 23.046824999999998
#
# number of rings (size 3 to 8) (size 9 to 14) (size 15 to 20)
#    0.000    2.000    0.000    2.250    0.000    7.000 
#   31.500    7.500    0.000    0.000    0.000    0.000 
#    0.000    0.000    0.000    0.000    0.000    0.000 
#
# Total GULP energy -178456.878173 kJ/mol
# GULP energy per Si atom -5576.777443 kJ/mol
# Density = 2.299437 g / cm^3
# Si number density = 23.046825 Si / 1000 Ang^3
#
#
#
# Elastic Constant Matrix: (Units=GPa)
#
#
# Indices 1 2 3 4 5 6 
#
# 1 137.9848 51.5164 75.1062 0.0000 0.0000 0.0000
# 2 51.5164 100.7187 32.2433 0.0000 0.0000 0.0000
# 3 75.1062 32.2433 135.5260 0.0000 0.0000 0.0000
# 4 0.0000 0.0000 0.0000 31.9386 0.0000 0.0000
# 5 0.0000 0.0000 0.0000 0.0000 29.3817 0.0000
# 6 0.0000 0.0000 0.0000 0.0000 0.0000 21.8042
#
#
#
# Elastic Compliance Matrix: (Units=1/GPa)
#
#
# Indices 1 2 3 4 5 6 
#
# 1 0.011877 -0.004295 -0.005560 0.000000 0.000000 0.000000
# 2 -0.004295 0.012300 -0.000546 0.000000 0.000000 0.000000
# 3 -0.005560 -0.000546 0.010590 0.000000 0.000000 0.000000
# 4 0.000000 0.000000 0.000000 0.031310 0.000000 0.000000
# 5 0.000000 0.000000 0.000000 0.000000 0.034035 0.000000
# 6 0.000000 0.000000 0.000000 0.000000 0.000000 0.045863
#
#
# Mechanical properties :
#
#
# Convention : Reuss Voigt Hill
#
# Bulk Modulus (GPa) = 71.60975 76.88456 74.24716
# Shear Modulus (GPa) = 29.16587 30.98247 30.07417
#
# Velocity S-wave (km/s) = 3.56125 3.67048 3.61628
# Velocity P-wave (km/s) = 6.93173 7.16909 7.05141
#
# Compressibility (1/GPa) = 0.01396458
#
# Stress axis : x y z
#
# Youngs Moduli (GPa) = 84.19461 81.29854 94.42840
#
# Poissons Ratio (x) = 0.34918 0.52505
# Poissons Ratio (y) = 0.36162 0.05157
# Poissons Ratio (z) = 0.46815 0.04440
#
# Static dielectric constant tensor:
#      x y z
#    x 1.840430 0.000000 0.000000 
#    y 0.000000 1.927870 0.000000 
#    z 0.000000 0.000000 1.901510 
# 
# From -- ./inp_files/13402.got.cif
#   From: 2010.05.17/outbox.cif.g08.bks.cpg/sg74_7_cif.got.tgz:13402.got - 2010.06.03 17:57:02.
