data_PCOD9539671
_publ_section_title
;
Structure prediction by ZEFSAII (Michael W. Deem and Ramdas Pophale) SiO2 
 PCOD9539671
Probable space group: I M M A
;
_chemical_formula_sum "Si O2"
_cell_formula_units_Z 64
_cell_length_a 11.760830
_cell_length_b 19.796750
_cell_length_c 14.819262
_cell_angle_alpha 90.000000
_cell_angle_beta 90.000000
_cell_angle_gamma 90.000000
_cell_volume 3450.312626
_symmetry_space_group_name_H-M "I M M A"
_symmetry_group_IT_number 74
_symmetry_cell_setting 'orthorhombic'
loop_
_space_group_symop_operation_xyz
x,y,z
-x,1/2-y,z
x,-y,-z
-x,1/2+y,-z
-x,-y,-z
x,1/2+y,-z
-x,y,z
x,1/2-y,z
1/2+x,1/2+y,1/2+z
1/2-x,-y,1/2+z
1/2+x,1/2-y,1/2-z
1/2-x,y,1/2-z
1/2-x,1/2-y,1/2-z
1/2+x,y,1/2-z
1/2-x,1/2+y,1/2+z
1/2+x,-y,1/2+z
loop_
_atom_site_type_symbol
_atom_site_label
_atom_site_fract_x
_atom_site_fract_y
_atom_site_fract_z
Si Si1 0.000000 0.549875 0.917556
Si Si2 0.372452 0.932777 0.751741
Si Si3 0.633650 0.039907 0.912762
Si Si4 0.239191 0.173112 0.857829
Si Si5 0.500000 0.826945 0.453314
O O1 0.105445 0.540435 0.849642
O O2 0.000000 0.500000 0.000000
O O3 0.000000 0.623347 0.962114
O O4 0.500000 0.901080 0.771559
O O5 0.250000 0.895283 0.750000
O O6 0.358458 0.993037 0.823637
O O7 0.500000 0.051681 0.928398
O O8 0.690871 0.112034 0.899820
O O9 0.679230 0.000000 0.000000
O O10 0.274148 0.250000 0.883573
O O11 0.250000 0.168540 0.750000
O O12 0.110466 0.163409 0.891425
O O13 0.500000 0.750000 0.485900
#
# Coordination Sequence:
#
# PCOD9539671 Si02
#       5
#     8  16  16  16   8
#     4  10  24  36  63  90 117 166 209 256 315 373
#     4   9  21  36  55  90 122 157 201 260 308 368
#     4  10  22  37  58  88 125 156 198 258 308 360
#     4  10  23  39  61  87 123 165 202 250 312 377
#     4  10  24  42  60  90 124 160 211 258 307 373
#
# _framework density 18.549043000000001
#
# number of rings (size 3 to 8) (size 9 to 14) (size 15 to 20)
#    0.750    1.500    0.000    0.750   12.250    0.500 
#    0.000    0.000    0.000    2.250    0.000    0.000 
#    0.000    0.000    0.000    0.000    0.000    0.000 
#
# Total GULP energy -178181.454093 kJ/mol
# GULP energy per Si atom -5568.170440 kJ/mol
# Density = 1.850682 g / cm^3
# Si number density = 18.549043 Si / 1000 Ang^3
#
#
#
# Elastic Constant Matrix: (Units=GPa)
#
#
# Indices 1 2 3 4 5 6 
#
# 1 114.3877 42.7227 32.4843 0.0000 0.0000 0.0000
# 2 42.7227 103.7283 66.0571 0.0000 0.0000 0.0000
# 3 32.4843 66.0571 142.8142 -0.0001 0.0000 0.0000
# 4 0.0000 0.0000 -0.0001 24.4843 0.0000 0.0000
# 5 0.0000 0.0000 0.0000 0.0000 17.1600 0.0000
# 6 0.0000 0.0000 0.0000 0.0000 0.0000 71.1794
#
#
#
# Elastic Compliance Matrix: (Units=1/GPa)
#
#
# Indices 1 2 3 4 5 6 
#
# 1 0.010361 -0.003922 -0.000543 0.000000 0.000000 0.000000
# 2 -0.003922 0.015150 -0.006116 0.000000 0.000000 0.000000
# 3 -0.000543 -0.006116 0.009954 0.000000 0.000000 0.000000
# 4 0.000000 0.000000 0.000000 0.040843 0.000000 0.000000
# 5 0.000000 0.000000 0.000000 0.000000 0.058275 0.000000
# 6 0.000000 0.000000 0.000000 0.000000 0.000000 0.014049
#
#
# Mechanical properties :
#
#
# Convention : Reuss Voigt Hill
#
# Bulk Modulus (GPa) = 69.90327 71.49539 70.69933
# Shear Modulus (GPa) = 28.64324 37.20914 32.92619
#
# Velocity S-wave (km/s) = 3.93388 4.48368 4.21775
# Velocity P-wave (km/s) = 7.64208 8.08902 7.86872
#
# Compressibility (1/GPa) = 0.01430548
#
# Stress axis : x y z
#
# Youngs Moduli (GPa) = 96.51498 66.00462 100.45943
#
# Poissons Ratio (x) = 0.25886 0.05452
# Poissons Ratio (y) = 0.37851 0.61437
# Poissons Ratio (z) = 0.05238 0.40366
#
# Static dielectric constant tensor:
#      x y z
#    x 1.708350 0.000000 0.000000 
#    y 0.000000 1.624030 0.000000 
#    z 0.000000 0.000000 1.640490 
# 
# From -- ./inp_files/30245.got.cif
#   From: 2010.05.17/outbox.cif.g08.bks.cpg/sg74_16_cif.got.tgz:30245.got - 2010.06.03 17:57:02.
