data_PCOD9539062
_publ_section_title
;
Structure prediction by ZEFSAII (Michael W. Deem and Ramdas Pophale) SiO2 
 PCOD9539062
Probable space group: I M M A
;
_chemical_formula_sum "Si O2"
_cell_formula_units_Z 64
_cell_length_a 8.788357
_cell_length_b 28.949129
_cell_length_c 14.516261
_cell_angle_alpha 90.000000
_cell_angle_beta 90.000000
_cell_angle_gamma 90.000000
_cell_volume 3693.158614
_symmetry_space_group_name_H-M "I M M A"
_symmetry_group_IT_number 74
_symmetry_cell_setting 'orthorhombic'
loop_
_space_group_symop_operation_xyz
x,y,z
-x,1/2-y,z
x,-y,-z
-x,1/2+y,-z
-x,-y,-z
x,1/2+y,-z
-x,y,z
x,1/2-y,z
1/2+x,1/2+y,1/2+z
1/2-x,-y,1/2+z
1/2+x,1/2-y,1/2-z
1/2-x,y,1/2-z
1/2-x,1/2-y,1/2-z
1/2+x,y,1/2-z
1/2-x,1/2+y,1/2+z
1/2+x,-y,1/2+z
loop_
_atom_site_type_symbol
_atom_site_label
_atom_site_fract_x
_atom_site_fract_y
_atom_site_fract_z
Si Si1 0.682904 0.500954 0.851315
Si Si2 0.316100 0.924047 0.001805
Si Si3 0.317827 0.750000 0.648615
Si Si4 0.182096 0.250000 0.647852
Si Si5 0.817328 0.677777 0.006650
O O1 0.500000 0.501022 0.846217
O O2 0.750000 0.501395 0.750000
O O3 0.726526 0.455633 0.910271
O O4 0.726806 0.545544 0.912329
O O5 0.500000 0.919044 0.001926
O O6 0.239055 0.874475 0.003358
O O7 0.500000 0.750000 0.656525
O O8 0.250000 0.750000 0.750000
O O9 0.274425 0.794377 0.586561
O O10 0.250000 0.250000 0.750000
O O11 0.242222 0.205823 0.590623
O O12 0.000000 0.250000 0.650780
O O13 0.000000 0.680126 0.015876
#
# Coordination Sequence:
#
# PCOD9539062 Si02
#       5
#    16  16   8   8  16
#     4   9  19  35  54  76 105 138 177 220 263 313
#     4   9  19  36  54  75 105 142 177 214 264 320
#     4   9  20  36  53  75 105 137 173 215 260 310
#     4  11  22  38  59  81 107 141 177 217 264 316
#     4  10  21  37  55  80 110 139 176 222 265 314
#
# _framework density 17.329339000000001
#
# number of rings (size 3 to 8) (size 9 to 14) (size 15 to 20)
#    0.000    2.500    0.000    4.125    0.000    7.000 
#    0.000   10.000    0.000    0.000    0.000    0.000 
#    0.000    0.000    0.000    0.000    0.000    0.000 
#
# Total GULP energy -178554.772864 kJ/mol
# GULP energy per Si atom -5579.836652 kJ/mol
# Density = 1.728990 g / cm^3
# Si number density = 17.329339 Si / 1000 Ang^3
#
#
#
# Elastic Constant Matrix: (Units=GPa)
#
#
# Indices 1 2 3 4 5 6 
#
# 1 62.9518 63.5110 62.7313 0.0000 0.0000 0.0000
# 2 63.5110 188.3189 105.2503 -0.0001 0.0000 -0.0001
# 3 62.7313 105.2503 200.0948 -0.0004 0.0000 -0.0005
# 4 0.0000 -0.0001 -0.0004 5.6090 0.0000 -0.0002
# 5 0.0000 0.0000 0.0000 0.0000 37.3042 0.0000
# 6 0.0000 -0.0001 -0.0005 -0.0002 0.0000 47.9627
#
#
#
# Elastic Compliance Matrix: (Units=1/GPa)
#
#
# Indices 1 2 3 4 5 6 
#
# 1 0.027562 -0.006326 -0.005314 0.000000 0.000000 0.000000
# 2 -0.006326 0.008973 -0.002737 0.000000 0.000000 0.000000
# 3 -0.005314 -0.002737 0.008103 0.000000 0.000000 0.000000
# 4 0.000000 0.000000 0.000000 0.178284 0.000000 0.000001
# 5 0.000000 0.000000 0.000000 0.000000 0.026807 0.000000
# 6 0.000000 0.000000 0.000000 0.000001 0.000000 0.020850
#
#
# Mechanical properties :
#
#
# Convention : Reuss Voigt Hill
#
# Bulk Modulus (GPa) = 62.94788 101.59452 82.27120
# Shear Modulus (GPa) = 16.41362 32.83338 24.62350
#
# Velocity S-wave (km/s) = 3.08093 4.35750 3.77359
# Velocity P-wave (km/s) = 7.00425 9.16898 8.15873
#
# Compressibility (1/GPa) = 0.01588616
#
# Stress axis : x y z
#
# Youngs Moduli (GPa) = 36.28187 111.44572 123.41110
#
# Poissons Ratio (x) = 0.70496 0.65576
# Poissons Ratio (y) = 0.22950 0.33774
# Poissons Ratio (z) = 0.19279 0.30499
#
# Static dielectric constant tensor:
#      x y z
#    x 1.583340 0.000000 0.000000 
#    y 0.000000 1.568450 0.000000 
#    z 0.000000 0.000000 1.569260 
# 
# From -- ./inp_files/29082.got.cif
#   From: 2010.05.17/outbox.cif.g08.bks.cpg/sg74_15_cif.got.tgz:29082.got - 2010.06.03 17:57:02.
