data_PCOD9539901
_publ_section_title
;
Structure prediction by ZEFSAII (Michael W. Deem and Ramdas Pophale) SiO2 
 PCOD9539901
Probable space group: I M M A
;
_chemical_formula_sum "Si O2"
_cell_formula_units_Z 100
_cell_length_a 9.295686
_cell_length_b 23.550859
_cell_length_c 22.877275
_cell_angle_alpha 90.000000
_cell_angle_beta 90.000000
_cell_angle_gamma 90.000000
_cell_volume 5008.324849
_symmetry_space_group_name_H-M "I M M A"
_symmetry_group_IT_number 74
_symmetry_cell_setting 'orthorhombic'
loop_
_space_group_symop_operation_xyz
x,y,z
-x,1/2-y,z
x,-y,-z
-x,1/2+y,-z
-x,-y,-z
x,1/2+y,-z
-x,y,z
x,1/2-y,z
1/2+x,1/2+y,1/2+z
1/2-x,-y,1/2+z
1/2+x,1/2-y,1/2-z
1/2-x,y,1/2-z
1/2-x,1/2-y,1/2-z
1/2+x,y,1/2-z
1/2-x,1/2+y,1/2+z
1/2+x,-y,1/2+z
loop_
_atom_site_type_symbol
_atom_site_label
_atom_site_fract_x
_atom_site_fract_y
_atom_site_fract_z
Si Si1 0.835945 0.578918 0.490737
Si Si2 0.329610 0.626210 0.310807
Si Si3 0.661483 0.312934 0.905502
Si Si4 0.669044 0.400957 0.188396
Si Si5 0.169184 0.523347 0.372328
Si Si6 0.342655 0.861874 0.586987
Si Si7 0.000000 0.750000 0.946711
O O1 0.834901 0.637108 0.452546
O O2 0.801818 0.531162 0.441842
O O3 0.726200 0.594047 0.541594
O O4 0.000000 0.570445 0.512922
O O5 0.500000 0.624019 0.303902
O O6 0.250000 0.635870 0.250000
O O7 0.279497 0.673608 0.356940
O O8 0.268451 0.567688 0.338122
O O9 0.500000 0.315141 0.879020
O O10 0.681894 0.250000 0.930225
O O11 0.500000 0.390797 0.196487
O O12 0.750000 0.401116 0.250000
O O13 0.686629 0.461964 0.156205
O O14 0.740381 0.357357 0.142947
O O15 0.000000 0.539507 0.365623
O O16 0.500000 0.883436 0.607062
O O17 0.377264 0.801170 0.557875
#
# Coordination Sequence:
#
# PCOD9539901 Si02
#       7
#    16  16  16  16  16  16   4
#     4   9  18  35  59  89 123 158 198 245 297 362
#     4  11  21  33  50  73 107 148 196 244 296 360
#     4   9  19  34  52  75 104 146 196 248 302 360
#     4  11  23  41  67  94 123 161 205 258 309 375
#     4   9  20  38  59  88 124 160 196 239 302 362
#     4  10  22  41  63  89 123 163 203 252 307 366
#     4   8  24  44  64  86 130 164 204 258 322 362
#
# _framework density 19.966754999999999
#
# number of rings (size 3 to 8) (size 9 to 14) (size 15 to 20)
#    0.480    1.760    0.000    3.840    1.120    6.400 
#    0.000    4.800    0.000    0.000    0.000    0.000 
#    0.000    0.000    0.000    0.000    0.000    0.000 
#
# Total GULP energy -278457.657790 kJ/mol
# GULP energy per Si atom -5569.153156 kJ/mol
# Density = 1.992131 g / cm^3
# Si number density = 19.966755 Si / 1000 Ang^3
#
#
#
# Elastic Constant Matrix: (Units=GPa)
#
#
# Indices 1 2 3 4 5 6 
#
# 1 127.3258 22.7404 53.0748 0.0000 0.0000 0.0000
# 2 22.7404 64.5943 -2.1914 0.0000 0.0000 0.0000
# 3 53.0748 -2.1914 67.8715 0.0000 0.0000 0.0000
# 4 0.0000 0.0000 0.0000 10.3305 0.0000 0.0000
# 5 0.0000 0.0000 0.0000 0.0000 35.0204 0.0000
# 6 0.0000 0.0000 0.0000 0.0000 0.0000 24.2889
#
#
#
# Elastic Compliance Matrix: (Units=1/GPa)
#
#
# Indices 1 2 3 4 5 6 
#
# 1 0.013063 -0.004951 -0.010375 0.000000 0.000000 0.000000
# 2 -0.004951 0.017375 0.004432 0.000000 0.000000 0.000000
# 3 -0.010375 0.004432 0.022990 0.000000 0.000000 0.000000
# 4 0.000000 0.000000 0.000000 0.096801 0.000000 0.000000
# 5 0.000000 0.000000 0.000000 0.000000 0.028555 0.000000
# 6 0.000000 0.000000 0.000000 0.000000 0.000000 0.041171
#
#
# Mechanical properties :
#
#
# Convention : Reuss Voigt Hill
#
# Bulk Modulus (GPa) = 31.60471 45.22658 38.41565
# Shear Modulus (GPa) = 19.81871 26.33914 23.07893
#
# Velocity S-wave (km/s) = 3.15395 3.63595 3.40349
# Velocity P-wave (km/s) = 5.39687 6.35035 5.89293
#
# Compressibility (1/GPa) = 0.03164085
#
# Stress axis : x y z
#
# Youngs Moduli (GPa) = 76.55388 57.55559 43.49761
#
# Poissons Ratio (x) = 0.28494 0.45128
# Poissons Ratio (y) = 0.37899 -0.19280
# Poissons Ratio (z) = 0.79423 -0.25511
#
# Static dielectric constant tensor:
#      x y z
#    x 1.699490 0.000000 0.000000 
#    y 0.000000 1.729690 0.000000 
#    z 0.000000 0.000000 1.713280 
# 
# From -- ./inp_files/49297.got.cif
#   From: 2010.05.17/outbox.cif.g08.bks.cpg/sg74_25_cif.got.tgz:49297.got - 2010.06.03 17:57:02.
