data_PCOD9539132
_publ_section_title
;
Structure prediction by ZEFSAII (Michael W. Deem and Ramdas Pophale) SiO2 
 PCOD9539132
Probable space group: I M M A
;
_chemical_formula_sum "Si O2"
_cell_formula_units_Z 64
_cell_length_a 14.670469
_cell_length_b 15.196006
_cell_length_c 15.231444
_cell_angle_alpha 90.000000
_cell_angle_beta 90.000000
_cell_angle_gamma 90.000000
_cell_volume 3395.584422
_symmetry_space_group_name_H-M "I M M A"
_symmetry_group_IT_number 74
_symmetry_cell_setting 'orthorhombic'
loop_
_space_group_symop_operation_xyz
x,y,z
-x,1/2-y,z
x,-y,-z
-x,1/2+y,-z
-x,-y,-z
x,1/2+y,-z
-x,y,z
x,1/2-y,z
1/2+x,1/2+y,1/2+z
1/2-x,-y,1/2+z
1/2+x,1/2-y,1/2-z
1/2-x,y,1/2-z
1/2-x,1/2-y,1/2-z
1/2+x,y,1/2-z
1/2-x,1/2+y,1/2+z
1/2+x,-y,1/2+z
loop_
_atom_site_type_symbol
_atom_site_label
_atom_site_fract_x
_atom_site_fract_y
_atom_site_fract_z
Si Si1 0.391073 0.750000 0.050083
Si Si2 0.892760 0.439831 0.276930
Si Si3 0.389344 0.250000 0.154642
Si Si4 0.099392 0.461914 0.903013
Si Si5 0.717400 0.393436 0.845013
O O1 0.500000 0.750000 0.052845
O O2 0.351151 0.833153 0.101779
O O3 0.362594 0.750000 0.947822
O O4 0.861340 0.341237 0.299252
O O5 0.888706 0.465041 0.173792
O O6 0.831745 0.512974 0.325826
O O7 0.000000 0.448249 0.302815
O O8 0.500000 0.250000 0.157804
O O9 0.188204 0.402631 0.896581
O O10 0.000000 0.419555 0.884834
O O11 0.096681 0.500000 0.000000
O O12 0.750000 0.358754 0.750000
#
# Coordination Sequence:
#
# PCOD9539132 Si02
#       5
#     8  16   8  16  16
#     4  11  23  37  57  88 121 151 193 243 294 358
#     4   9  18  36  59  85 118 152 189 239 298 354
#     4   9  20  35  55  89 121 148 182 228 299 368
#     4   9  19  36  58  81 109 151 200 242 281 338
#     4  10  21  37  58  83 111 154 197 242 294 344
#
# _framework density 18.848006999999999
#
# number of rings (size 3 to 8) (size 9 to 14) (size 15 to 20)
#    0.000    2.500    0.000    1.125    3.500    1.000 
#    0.000   11.250    0.000    3.000    0.000    0.000 
#    0.000    0.000    0.000    0.000    0.000    0.000 
#
# Total GULP energy -178352.379889 kJ/mol
# GULP energy per Si atom -5573.511872 kJ/mol
# Density = 1.880511 g / cm^3
# Si number density = 18.848007 Si / 1000 Ang^3
#
#
#
# Elastic Constant Matrix: (Units=GPa)
#
#
# Indices 1 2 3 4 5 6 
#
# 1 119.1118 38.2251 38.9127 0.0000 0.0000 0.0000
# 2 38.2251 104.7932 30.5620 0.0000 0.0000 0.0000
# 3 38.9127 30.5620 52.1049 0.0000 0.0000 0.0000
# 4 0.0000 0.0000 0.0000 13.8758 0.0000 0.0000
# 5 0.0000 0.0000 0.0000 0.0000 29.4548 0.0000
# 6 0.0000 0.0000 0.0000 0.0000 0.0000 49.2833
#
#
#
# Elastic Compliance Matrix: (Units=1/GPa)
#
#
# Indices 1 2 3 4 5 6 
#
# 1 0.011452 -0.002030 -0.007362 0.000000 0.000000 0.000000
# 2 -0.002030 0.011872 -0.005447 0.000000 0.000000 0.000000
# 3 -0.007362 -0.005447 0.027885 0.000000 0.000000 0.000000
# 4 0.000000 0.000000 0.000000 0.072068 0.000000 0.000000
# 5 0.000000 0.000000 0.000000 0.000000 0.033950 0.000000
# 6 0.000000 0.000000 0.000000 0.000000 0.000000 0.020291
#
#
# Mechanical properties :
#
#
# Convention : Reuss Voigt Hill
#
# Bulk Modulus (GPa) = 46.44576 54.60106 50.52341
# Shear Modulus (GPa) = 23.32383 29.74346 26.53364
#
# Velocity S-wave (km/s) = 3.52158 3.97680 3.75610
# Velocity P-wave (km/s) = 6.42115 7.07945 6.75832
#
# Compressibility (1/GPa) = 0.02153049
#
# Stress axis : x y z
#
# Youngs Moduli (GPa) = 87.32069 84.23325 35.86178
#
# Poissons Ratio (x) = 0.17102 0.26400
# Poissons Ratio (y) = 0.17729 0.19534
# Poissons Ratio (z) = 0.64283 0.45882
#
# Static dielectric constant tensor:
#      x y z
#    x 1.684590 0.000000 0.000000 
#    y 0.000000 1.648110 0.000000 
#    z 0.000000 0.000000 1.722740 
# 
# From -- ./inp_files/31845.got.cif
#   From: 2010.05.17/outbox.cif.g08.bks.cpg/sg74_16_cif.got.tgz:31845.got - 2010.06.03 17:57:02.
