data_PCOD9539881
_publ_section_title
;
Structure prediction by ZEFSAII (Michael W. Deem and Ramdas Pophale) SiO2 
 PCOD9539881
Probable space group: I M M A
;
_chemical_formula_sum "Si O2"
_cell_formula_units_Z 104
_cell_length_a 19.848132
_cell_length_b 27.605762
_cell_length_c 9.515652
_cell_angle_alpha 90.000000
_cell_angle_beta 90.000000
_cell_angle_gamma 90.000000
_cell_volume 5213.842765
_symmetry_space_group_name_H-M "I M M A"
_symmetry_group_IT_number 74
_symmetry_cell_setting 'orthorhombic'
loop_
_space_group_symop_operation_xyz
x,y,z
-x,1/2-y,z
x,-y,-z
-x,1/2+y,-z
-x,-y,-z
x,1/2+y,-z
-x,y,z
x,1/2-y,z
1/2+x,1/2+y,1/2+z
1/2-x,-y,1/2+z
1/2+x,1/2-y,1/2-z
1/2-x,y,1/2-z
1/2-x,1/2-y,1/2-z
1/2+x,y,1/2-z
1/2-x,1/2+y,1/2+z
1/2+x,-y,1/2+z
loop_
_atom_site_type_symbol
_atom_site_label
_atom_site_fract_x
_atom_site_fract_y
_atom_site_fract_z
Si Si1 0.500000 0.403985 0.959546
Si Si2 0.643575 0.137155 0.911372
Si Si3 0.275842 0.305985 0.104365
Si Si4 0.000000 0.460123 0.802167
Si Si5 0.751586 0.049901 0.583913
Si Si6 0.000000 0.073736 0.210720
Si Si7 0.155531 0.806911 0.123096
Si Si8 0.106716 0.902687 0.013703
O O1 0.434165 0.375414 0.910045
O O2 0.500000 0.451793 0.864062
O O3 0.500000 0.414615 0.124797
O O4 0.688174 0.088778 0.926237
O O5 0.666184 0.168780 0.776025
O O6 0.658967 0.167891 0.048797
O O7 0.290910 0.250000 0.129405
O O8 0.250000 0.327765 0.250000
O O9 0.219889 0.308812 0.981184
O O10 0.000000 0.516835 0.824377
O O11 0.063654 0.434244 0.875157
O O12 0.750000 0.038566 0.750000
O O13 0.682798 0.076313 0.528836
O O14 0.761550 0.000000 0.500000
O O15 0.067741 0.092329 0.133294
O O16 0.136785 0.750000 0.135776
O O17 0.105414 0.846016 0.054337
#
# Coordination Sequence:
#
# PCOD9539881 Si02
#       8
#     8  16  16   8  16   8  16  16
#     4  12  27  42  65  96 138 179 231 279 334 388
#     4  12  24  44  65  97 137 176 226 286 327 405
#     4  10  22  40  69 103 134 171 217 274 342 408
#     4  11  21  45  68  94 137 183 226 273 323 407
#     4  12  24  41  65  99 135 170 219 283 340 395
#     4  11  27  43  70  94 133 192 224 266 345 407
#     4  11  22  42  75 101 128 175 224 277 338 401
#     4  11  22  44  68 100 133 171 226 279 332 412
#
# _framework density 19.946899999999999
#
# number of rings (size 3 to 8) (size 9 to 14) (size 15 to 20)
#    0.000    0.769    4.615    3.000    2.154    5.538 
#    0.000    4.615    0.000    1.846    0.000    0.000 
#    0.000    0.000    0.000    0.000    0.000    0.000 
#
# Total GULP energy -290337.263582 kJ/mol
# GULP energy per Si atom -5583.408915 kJ/mol
# Density = 1.990150 g / cm^3
# Si number density = 19.946900 Si / 1000 Ang^3
#
#
#
# Elastic Constant Matrix: (Units=GPa)
#
#
# Indices 1 2 3 4 5 6 
#
# 1 111.5984 45.2201 37.2641 0.0000 0.0000 0.0000
# 2 45.2201 146.4481 32.4561 0.0000 0.0000 0.0000
# 3 37.2641 32.4561 102.6838 0.0000 0.0000 0.0000
# 4 0.0000 0.0000 0.0000 39.5902 0.0000 0.0000
# 5 0.0000 0.0000 0.0000 0.0000 17.7975 0.0000
# 6 0.0000 0.0000 0.0000 0.0000 0.0000 -847.3566
#
#
#
# Elastic Compliance Matrix: (Units=1/GPa)
#
#
# Indices 1 2 3 4 5 6 
#
# 1 0.011128 -0.002733 -0.003175 0.000000 0.000000 0.000000
# 2 -0.002733 0.008014 -0.001541 0.000000 0.000000 0.000000
# 3 -0.003175 -0.001541 0.011378 0.000000 0.000000 0.000000
# 4 0.000000 0.000000 0.000000 0.025259 0.000000 0.000000
# 5 0.000000 0.000000 0.000000 0.000000 0.056188 0.000000
# 6 0.000000 0.000000 0.000000 0.000000 0.000000 -0.001180
#
#
# Mechanical properties :
#
#
# Convention : Reuss Voigt Hill
#
# Bulk Modulus (GPa) = 64.00994 65.62343 64.81669
# Shear Modulus (GPa) = 38.19988 -141.60777 -51.70395
#
# Velocity S-wave (km/s) = 4.38091 -8.43484 -5.09677
# Velocity P-wave (km/s) = 7.59932 7.86712 1.43907
#
# Compressibility (1/GPa) = 0.01562257
#
# Stress axis : x y z
#
# Youngs Moduli (GPa) = 89.86352 124.78647 87.88968
#
# Poissons Ratio (x) = 0.34098 0.27902
# Poissons Ratio (y) = 0.24555 0.13547
# Poissons Ratio (z) = 0.28529 0.19234
#
# Static dielectric constant tensor:
#      x y z
#    x 1.713590 0.000000 0.000000 
#    y 0.000000 1.695560 0.000000 
#    z 0.000000 0.000000 1.746870 
# 
# From -- ./inp_files/12814.got.cif
#   From: 2010.05.17/outbox.cif.g08.bks.cpg/sg74_7_cif.got.tgz:12814.got - 2010.06.03 17:57:02.
