data_PCOD9539718
_publ_section_title
;
Structure prediction by ZEFSAII (Michael W. Deem and Ramdas Pophale) SiO2 
 PCOD9539718
Probable space group: I M M A
;
_chemical_formula_sum "Si O2"
_cell_formula_units_Z 40
_cell_length_a 13.752910
_cell_length_b 10.541706
_cell_length_c 14.798990
_cell_angle_alpha 90.000000
_cell_angle_beta 90.000000
_cell_angle_gamma 90.000000
_cell_volume 2145.544752
_symmetry_space_group_name_H-M "I M M A"
_symmetry_group_IT_number 74
_symmetry_cell_setting 'orthorhombic'
loop_
_space_group_symop_operation_xyz
x,y,z
-x,1/2-y,z
x,-y,-z
-x,1/2+y,-z
-x,-y,-z
x,1/2+y,-z
-x,y,z
x,1/2-y,z
1/2+x,1/2+y,1/2+z
1/2-x,-y,1/2+z
1/2+x,1/2-y,1/2-z
1/2-x,y,1/2-z
1/2-x,1/2-y,1/2-z
1/2+x,y,1/2-z
1/2-x,1/2+y,1/2+z
1/2+x,-y,1/2+z
loop_
_atom_site_type_symbol
_atom_site_label
_atom_site_fract_x
_atom_site_fract_y
_atom_site_fract_z
Si Si1 0.664544 0.500000 0.500000
Si Si2 0.000000 0.389458 0.881463
Si Si3 0.852880 0.604410 0.570912
Si Si4 0.000000 0.395079 0.268316
O O1 0.594445 0.591633 0.444224
O O2 0.737662 0.574544 0.567246
O O3 0.000000 0.501653 0.809183
O O4 0.000000 0.250000 0.839826
O O5 0.891288 0.500000 0.500000
O O6 0.869656 0.750000 0.541839
O O7 0.906692 0.589119 0.665908
O O8 0.000000 0.250000 0.233828
#
# Coordination Sequence:
#
# PCOD9539718 Si02
#       4
#     8   8  16   8
#     4   9  22  39  62  80 112 149 196 235 280 336
#     4  11  23  40  59  85 115 153 193 236 283 336
#     4   9  19  37  61  86 113 150 191 233 283 338
#     4  10  22  38  59  88 120 149 184 235 290 337
#
# _framework density 18.643284999999999
#
# number of rings (size 3 to 8) (size 9 to 14) (size 15 to 20)
#    1.200    1.200    0.000    1.800    0.000    8.000 
#    0.000    6.000    0.000    0.000    0.000    0.000 
#    0.000    0.000    0.000    0.000    0.000    0.000 
#
# Total GULP energy -111356.943998 kJ/mol
# GULP energy per Si atom -5567.847200 kJ/mol
# Density = 1.860085 g / cm^3
# Si number density = 18.643285 Si / 1000 Ang^3
#
#
#
# Elastic Constant Matrix: (Units=GPa)
#
#
# Indices 1 2 3 4 5 6 
#
# 1 131.2375 39.6544 40.5280 0.0000 0.0000 0.0000
# 2 39.6544 132.8636 49.0708 0.0000 0.0000 0.0000
# 3 40.5280 49.0708 52.0525 0.0000 0.0000 0.0000
# 4 0.0000 0.0000 0.0000 35.9082 0.0000 0.0000
# 5 0.0000 0.0000 0.0000 0.0000 -13.9187 0.0000
# 6 0.0000 0.0000 0.0000 0.0000 0.0000 -8.9220
#
#
#
# Elastic Compliance Matrix: (Units=1/GPa)
#
#
# Indices 1 2 3 4 5 6 
#
# 1 0.010034 -0.000168 -0.007655 0.000000 0.000000 0.000000
# 2 -0.000168 0.011550 -0.010757 0.000000 0.000000 0.000000
# 3 -0.007655 -0.010757 0.035312 0.000000 0.000000 0.000000
# 4 0.000000 0.000000 0.000000 0.027849 0.000000 0.000000
# 5 0.000000 0.000000 0.000000 0.000000 -0.071846 0.000000
# 6 0.000000 0.000000 0.000000 0.000000 0.000000 -0.112082
#
#
# Mechanical properties :
#
#
# Convention : Reuss Voigt Hill
#
# Bulk Modulus (GPa) = 50.66656 63.85109 57.25883
# Shear Modulus (GPa) = -90.18048 15.07352 -37.55348
#
# Velocity S-wave (km/s) = -6.96251 2.84654 -4.49298
# Velocity P-wave (km/s) = 6.11552 6.71766 1.96562
#
# Compressibility (1/GPa) = 0.01973688
#
# Stress axis : x y z
#
# Youngs Moduli (GPa) = 99.65814 86.58273 28.31865
#
# Poissons Ratio (x) = 0.01453 0.21677
# Poissons Ratio (y) = 0.01672 0.30464
# Poissons Ratio (z) = 0.76284 0.93141
#
# Static dielectric constant tensor:
#      x y z
#    x 1.684110 0.000000 0.000000 
#    y 0.000000 1.634700 0.000000 
#    z 0.000000 0.000000 1.603280 
# 
# From -- ./inp_files/33318.got.cif
#   From: 2010.05.17/outbox.cif.g08.bks.cpg/sg74_17_cif.got.tgz:33318.got - 2010.06.03 17:57:02.
