data_PCOD9539510
_publ_section_title
;
Structure prediction by ZEFSAII (Michael W. Deem and Ramdas Pophale) SiO2 
 PCOD9539510
Probable space group: I M M A
;
_chemical_formula_sum "Si O2"
_cell_formula_units_Z 116
_cell_length_a 28.338447
_cell_length_b 15.561950
_cell_length_c 13.014332
_cell_angle_alpha 90.000000
_cell_angle_beta 90.000000
_cell_angle_gamma 90.000000
_cell_volume 5739.339872
_symmetry_space_group_name_H-M "I M M A"
_symmetry_group_IT_number 74
_symmetry_cell_setting 'orthorhombic'
loop_
_space_group_symop_operation_xyz
x,y,z
-x,1/2-y,z
x,-y,-z
-x,1/2+y,-z
-x,-y,-z
x,1/2+y,-z
-x,y,z
x,1/2-y,z
1/2+x,1/2+y,1/2+z
1/2-x,-y,1/2+z
1/2+x,1/2-y,1/2-z
1/2-x,y,1/2-z
1/2-x,1/2-y,1/2-z
1/2+x,y,1/2-z
1/2-x,1/2+y,1/2+z
1/2+x,-y,1/2+z
loop_
_atom_site_type_symbol
_atom_site_label
_atom_site_fract_x
_atom_site_fract_y
_atom_site_fract_z
Si Si1 0.554217 0.350533 0.733853
Si Si2 0.425263 0.595047 0.481709
Si Si3 0.148115 0.647155 0.852526
Si Si4 0.248235 0.645250 0.581735
Si Si5 0.644619 0.912572 0.869953
Si Si6 0.500000 0.750000 0.514132
Si Si7 0.232925 0.651506 0.355321
Si Si8 0.627154 0.886287 0.095470
O O1 0.500000 0.382487 0.738801
O O2 0.551143 0.250000 0.706393
O O3 0.581892 0.395348 0.640885
O O4 0.582353 0.357781 0.839415
O O5 0.445031 0.500000 0.500000
O O6 0.379565 0.604961 0.553217
O O7 0.459445 0.673342 0.511704
O O8 0.144572 0.750000 0.861887
O O9 0.203499 0.625108 0.861100
O O10 0.128512 0.619726 0.741175
O O11 0.241759 0.750000 0.584063
O O12 0.200771 0.603702 0.624515
O O13 0.251307 0.615350 0.462929
O O14 0.633069 0.012143 0.885303
O O15 0.624490 0.868090 0.973542
O O16 0.250653 0.750000 0.353854
O O17 0.250000 0.609052 0.250000
O O18 0.176287 0.652209 0.363199
#
# Coordination Sequence:
#
# PCOD9539510 Si02
#       8
#    16  16  16  16  16   4  16  16
#     4  11  22  41  66  93 124 163 215 269 332 407
#     4  12  24  43  68 101 133 170 214 269 335 392
#     4  11  22  38  62  92 128 164 219 268 316 396
#     4   9  19  35  57  83 119 169 209 259 318 386
#     4  10  21  40  56  85 122 165 220 260 322 386
#     4  12  22  48  68  94 136 174 214 272 328 420
#     4   9  18  32  50  80 115 155 201 250 318 380
#     4  10  22  38  60  83 120 164 210 270 324 384
#
# _framework density 20.211382
#
# number of rings (size 3 to 8) (size 9 to 14) (size 15 to 20)
#    0.000    1.655    2.069    2.276    1.931    3.862 
#    4.966    1.379    1.517    0.000    0.000    0.000 
#    0.000    0.000    0.000    0.000    0.000    0.000 
#
# Total GULP energy -323234.999698 kJ/mol
# GULP energy per Si atom -5573.017236 kJ/mol
# Density = 2.016538 g / cm^3
# Si number density = 20.211382 Si / 1000 Ang^3
#
#
#
# Elastic Constant Matrix: (Units=GPa)
#
#
# Indices 1 2 3 4 5 6 
#
# 1 51.6058 12.3510 54.6563 0.0000 0.0000 0.0000
# 2 12.3510 78.3333 11.1936 0.0000 0.0000 0.0000
# 3 54.6563 11.1936 151.0401 0.0000 0.0000 0.0000
# 4 0.0000 0.0000 0.0000 22.5783 0.0000 0.0000
# 5 0.0000 0.0000 0.0000 0.0000 162.0924 0.0000
# 6 0.0000 0.0000 0.0000 0.0000 0.0000 39.6645
#
#
#
# Elastic Compliance Matrix: (Units=1/GPa)
#
#
# Indices 1 2 3 4 5 6 
#
# 1 0.032322 -0.003462 -0.011440 0.000000 0.000000 0.000000
# 2 -0.003462 0.013273 0.000269 0.000000 0.000000 0.000000
# 3 -0.011440 0.000269 0.010740 0.000000 0.000000 0.000000
# 4 0.000000 0.000000 0.000000 0.044290 0.000000 0.000000
# 5 0.000000 0.000000 0.000000 0.000000 0.006169 0.000000
# 6 0.000000 0.000000 0.000000 0.000000 0.000000 0.025211
#
#
# Mechanical properties :
#
#
# Convention : Reuss Voigt Hill
#
# Bulk Modulus (GPa) = 36.93973 48.59789 42.76881
# Shear Modulus (GPa) = 29.36074 58.38561 43.87318
#
# Velocity S-wave (km/s) = 3.81554 5.38054 4.66415
# Velocity P-wave (km/s) = 6.14227 7.91816 7.08607
#
# Compressibility (1/GPa) = 0.02707113
#
# Stress axis : x y z
#
# Youngs Moduli (GPa) = 30.93858 75.33906 93.10571
#
# Poissons Ratio (x) = 0.26079 1.06510
# Poissons Ratio (y) = 0.10710 -0.02504
# Poissons Ratio (z) = 0.35393 -0.02026
#
# Static dielectric constant tensor:
#      x y z
#    x 1.683780 0.000000 0.000000 
#    y 0.000000 1.738960 0.000000 
#    z 0.000000 0.000000 1.767270 
# 
# From -- ./inp_files/27383.got.cif
#   From: 2010.05.17/outbox.cif.g08.bks.cpg/sg74_14_cif.got.tgz:27383.got - 2010.06.03 17:57:02.
