data_PCOD9539281
_publ_section_title
;
Structure prediction by ZEFSAII (Michael W. Deem and Ramdas Pophale) SiO2 
 PCOD9539281
Probable space group: I M M A
;
_chemical_formula_sum "Si O2"
_cell_formula_units_Z 100
_cell_length_a 9.552931
_cell_length_b 22.256050
_cell_length_c 25.449769
_cell_angle_alpha 90.000000
_cell_angle_beta 90.000000
_cell_angle_gamma 90.000000
_cell_volume 5410.888366
_symmetry_space_group_name_H-M "I M M A"
_symmetry_group_IT_number 74
_symmetry_cell_setting 'orthorhombic'
loop_
_space_group_symop_operation_xyz
x,y,z
-x,1/2-y,z
x,-y,-z
-x,1/2+y,-z
-x,-y,-z
x,1/2+y,-z
-x,y,z
x,1/2-y,z
1/2+x,1/2+y,1/2+z
1/2-x,-y,1/2+z
1/2+x,1/2-y,1/2-z
1/2-x,y,1/2-z
1/2-x,1/2-y,1/2-z
1/2+x,y,1/2-z
1/2-x,1/2+y,1/2+z
1/2+x,-y,1/2+z
loop_
_atom_site_type_symbol
_atom_site_label
_atom_site_fract_x
_atom_site_fract_y
_atom_site_fract_z
Si Si1 0.251242 0.149598 0.588189
Si Si2 0.345441 0.679503 0.975778
Si Si3 0.832159 0.515061 0.058385
Si Si4 0.334085 0.179019 0.195505
Si Si5 0.500000 0.250000 0.590052
Si Si6 0.338755 0.180007 0.797777
Si Si7 0.331810 0.890190 0.604941
O O1 0.160822 0.170036 0.538143
O O2 0.290819 0.080817 0.576878
O O3 0.378833 0.196736 0.589653
O O4 0.180829 0.152135 0.645191
O O5 0.500000 0.661038 0.956004
O O6 0.327450 0.750000 0.964444
O O7 0.222159 0.642994 0.947827
O O8 0.795579 0.460267 0.097046
O O9 0.000000 0.514243 0.054719
O O10 0.775717 0.500000 0.000000
O O11 0.500000 0.164591 0.200311
O O12 0.325010 0.250000 0.181528
O O13 0.250000 0.171062 0.250000
O O14 0.254674 0.140305 0.151690
O O15 0.500000 0.178676 0.782231
O O16 0.294906 0.250000 0.803535
O O17 0.250000 0.153161 0.750000
O O18 0.500000 0.883333 0.611031
#
# Coordination Sequence:
#
# PCOD9539281 Si02
#       7
#    16  16  16  16   4  16  16
#     4  12  22  38  61  90 123 156 207 248 314 370
#     4  11  23  37  56  84 123 158 196 254 315 363
#     4  10  21  38  59  85 124 165 203 252 303 367
#     4  10  21  40  66  95 129 164 206 259 315 366
#     4  12  24  32  66 100 118 156 206 260 310 374
#     4  10  22  38  60  87 120 154 194 248 309 365
#     4  11  23  38  60  89 120 163 209 250 304 365
#
# _framework density 18.481254
#
# number of rings (size 3 to 8) (size 9 to 14) (size 15 to 20)
#    0.000    1.280    4.000    1.920    2.240    4.480 
#    0.000    4.800    0.000    0.000    0.000    0.000 
#    0.000    0.000    0.000    0.000    0.000    0.000 
#
# Total GULP energy -278498.475131 kJ/mol
# GULP energy per Si atom -5569.969503 kJ/mol
# Density = 1.843919 g / cm^3
# Si number density = 18.481254 Si / 1000 Ang^3
#
#
#
# Elastic Constant Matrix: (Units=GPa)
#
#
# Indices 1 2 3 4 5 6 
#
# 1 97.1254 50.4080 38.5248 0.0000 0.0000 0.0000
# 2 50.4080 110.6014 42.9997 0.0000 0.0000 0.0000
# 3 38.5248 42.9997 100.5797 0.0000 0.0000 0.0000
# 4 0.0000 0.0000 0.0000 8.4042 0.0000 0.0000
# 5 0.0000 0.0000 0.0000 0.0000 -0.9634 0.0000
# 6 0.0000 0.0000 0.0000 0.0000 0.0000 15.3638
#
#
#
# Elastic Compliance Matrix: (Units=1/GPa)
#
#
# Indices 1 2 3 4 5 6 
#
# 1 0.014310 -0.005266 -0.003230 0.000000 0.000000 0.000000
# 2 -0.005266 0.012782 -0.003447 0.000000 0.000000 0.000000
# 3 -0.003230 -0.003447 0.012653 0.000000 0.000000 0.000000
# 4 0.000000 0.000000 0.000000 0.118989 0.000000 0.000000
# 5 0.000000 0.000000 0.000000 0.000000 -1.038043 0.000000
# 6 0.000000 0.000000 0.000000 0.000000 0.000000 0.065088
#
#
# Mechanical properties :
#
#
# Convention : Reuss Voigt Hill
#
# Bulk Modulus (GPa) = 63.05772 63.57463 63.31617
# Shear Modulus (GPa) = -6.36904 16.31920 4.97508
#
# Velocity S-wave (km/s) = -1.85841 2.97478 1.64250
# Velocity P-wave (km/s) = 5.43957 6.80245 6.15882
#
# Compressibility (1/GPa) = 0.01585849
#
# Stress axis : x y z
#
# Youngs Moduli (GPa) = 69.87961 78.23508 79.03114
#
# Poissons Ratio (x) = 0.41202 0.25525
# Poissons Ratio (y) = 0.36802 0.27245
# Poissons Ratio (z) = 0.22569 0.26970
#
# Static dielectric constant tensor:
#      x y z
#    x 1.648270 0.000000 0.000000 
#    y 0.000000 1.627340 0.000000 
#    z 0.000000 0.000000 1.660480 
# 
# From -- ./inp_files/64512.got.cif
#   From: 2010.05.17/outbox.cif.g08.bks.cpg/sg74_33_cif.got.tgz:64512.got - 2010.06.03 17:57:02.
