data_PCOD9539445
_publ_section_title
;
Structure prediction by ZEFSAII (Michael W. Deem and Ramdas Pophale) SiO2 
 PCOD9539445
Probable space group: I M M A
;
_chemical_formula_sum "Si O2"
_cell_formula_units_Z 112
_cell_length_a 17.546713
_cell_length_b 28.993360
_cell_length_c 11.098756
_cell_angle_alpha 90.000000
_cell_angle_beta 90.000000
_cell_angle_gamma 90.000000
_cell_volume 5646.360781
_symmetry_space_group_name_H-M "I M M A"
_symmetry_group_IT_number 74
_symmetry_cell_setting 'orthorhombic'
loop_
_space_group_symop_operation_xyz
x,y,z
-x,1/2-y,z
x,-y,-z
-x,1/2+y,-z
-x,-y,-z
x,1/2+y,-z
-x,y,z
x,1/2-y,z
1/2+x,1/2+y,1/2+z
1/2-x,-y,1/2+z
1/2+x,1/2-y,1/2-z
1/2-x,y,1/2-z
1/2-x,1/2-y,1/2-z
1/2+x,y,1/2-z
1/2-x,1/2+y,1/2+z
1/2+x,-y,1/2+z
loop_
_atom_site_type_symbol
_atom_site_label
_atom_site_fract_x
_atom_site_fract_y
_atom_site_fract_z
Si Si1 0.793488 0.803631 0.622164
Si Si2 0.198025 0.199421 0.870374
Si Si3 0.914545 0.477672 0.792371
Si Si4 0.586309 0.078746 0.354923
Si Si5 0.089274 0.385927 0.415383
Si Si6 0.691502 0.954140 0.073786
Si Si7 0.843824 0.603157 0.079741
O O1 0.818184 0.750000 0.633900
O O2 0.750000 0.814510 0.750000
O O3 0.743279 0.805468 0.498197
O O4 0.862630 0.838865 0.598109
O O5 0.160288 0.250000 0.873231
O O6 0.250000 0.198849 0.750000
O O7 0.148971 0.153182 0.863201
O O8 0.900929 0.524175 0.866544
O O9 0.851703 0.472948 0.690151
O O10 0.906244 0.432305 0.872081
O O11 0.000000 0.481658 0.741335
O O12 0.500000 0.090263 0.391326
O O13 0.592804 0.090642 0.215605
O O14 0.645186 0.105835 0.436612
O O15 0.131714 0.421430 0.503895
O O16 0.000000 0.379049 0.447046
O O17 0.763081 0.921515 0.102695
O O18 0.714849 0.000000 0.000000
#
# Coordination Sequence:
#
# PCOD9539445 Si02
#       7
#    16  16  16  16  16  16  16
#     4  10  21  40  66  94 122 159 207 260 314 366
#     4  10  21  39  62  87 121 159 197 247 315 376
#     4  11  23  39  58  82 121 163 199 241 298 368
#     4  10  22  40  59  83 121 166 199 239 308 373
#     4  11  23  38  60  88 122 163 200 244 306 369
#     4  12  23  37  58  86 121 156 199 247 295 360
#     4  12  23  37  61  91 115 148 207 259 296 351
#
# _framework density 19.835785000000001
#
# number of rings (size 3 to 8) (size 9 to 14) (size 15 to 20)
#    0.000    1.143    2.857    4.286    0.000    2.000 
#    0.000    0.000    0.000    2.571    0.000    0.000 
#    0.000    0.000    0.000    0.000    0.000    0.000 
#
# Total GULP energy -312616.806825 kJ/mol
# GULP energy per Si atom -5582.442979 kJ/mol
# Density = 1.979064 g / cm^3
# Si number density = 19.835785 Si / 1000 Ang^3
#
#
#
# Elastic Constant Matrix: (Units=GPa)
#
#
# Indices 1 2 3 4 5 6 
#
# 1 58.6166 24.0540 9.2424 -0.0007 0.0003 -0.0001
# 2 24.0540 131.7369 -3.3850 -0.0008 0.0003 -0.0001
# 3 9.2424 -3.3850 65.0419 -0.0036 0.0001 -0.0006
# 4 -0.0007 -0.0008 -0.0036 25.0854 -0.0002 0.0000
# 5 0.0003 0.0003 0.0001 -0.0002 30.1013 0.0000
# 6 -0.0001 -0.0001 -0.0006 0.0000 0.0000 17.6568
#
#
#
# Elastic Compliance Matrix: (Units=1/GPa)
#
#
# Indices 1 2 3 4 5 6 
#
# 1 0.018965 -0.003537 -0.002879 0.000000 0.000000 0.000000
# 2 -0.003537 0.008261 0.000932 0.000000 0.000000 0.000000
# 3 -0.002879 0.000932 0.015832 0.000002 0.000000 0.000001
# 4 0.000000 0.000000 0.000002 0.039864 0.000000 0.000000
# 5 0.000000 0.000000 0.000000 0.000000 0.033221 0.000000
# 6 0.000000 0.000000 0.000001 0.000000 0.000000 0.056635
#
#
# Mechanical properties :
#
#
# Convention : Reuss Voigt Hill
#
# Bulk Modulus (GPa) = 31.16090 35.02427 33.09259
# Shear Modulus (GPa) = 25.71449 29.60095 27.65772
#
# Velocity S-wave (km/s) = 3.60442 3.86722 3.73813
# Velocity P-wave (km/s) = 5.75030 6.13482 5.94567
#
# Compressibility (1/GPa) = 0.03209150
#
# Stress axis : x y z
#
# Youngs Moduli (GPa) = 52.72766 121.05579 63.16183
#
# Poissons Ratio (x) = 0.42816 0.18185
# Poissons Ratio (y) = 0.18649 -0.05890
# Poissons Ratio (z) = 0.15181 -0.11288
#
# Static dielectric constant tensor:
#      x y z
#    x 1.673760 0.000000 0.000000 
#    y 0.000000 1.705930 0.000000 
#    z 0.000000 0.000000 1.759570 
# 
# From -- ./inp_files/21161.got.cif
#   From: 2010.05.17/outbox.cif.g08.bks.cpg/sg74_11_cif.got.tgz:21161.got - 2010.06.03 17:57:02.
