data_PCOD9539813
_publ_section_title
;
Structure prediction by ZEFSAII (Michael W. Deem and Ramdas Pophale) SiO2 
 PCOD9539813
Probable space group: I M M A
;
_chemical_formula_sum "Si O2"
_cell_formula_units_Z 96
_cell_length_a 27.415087
_cell_length_b 16.977965
_cell_length_c 9.964222
_cell_angle_alpha 90.000000
_cell_angle_beta 90.000000
_cell_angle_gamma 90.000000
_cell_volume 4637.870920
_symmetry_space_group_name_H-M "I M M A"
_symmetry_group_IT_number 74
_symmetry_cell_setting 'orthorhombic'
loop_
_space_group_symop_operation_xyz
x,y,z
-x,1/2-y,z
x,-y,-z
-x,1/2+y,-z
-x,-y,-z
x,1/2+y,-z
-x,y,z
x,1/2-y,z
1/2+x,1/2+y,1/2+z
1/2-x,-y,1/2+z
1/2+x,1/2-y,1/2-z
1/2-x,y,1/2-z
1/2-x,1/2-y,1/2-z
1/2+x,y,1/2-z
1/2-x,1/2+y,1/2+z
1/2+x,-y,1/2+z
loop_
_atom_site_type_symbol
_atom_site_label
_atom_site_fract_x
_atom_site_fract_y
_atom_site_fract_z
Si Si1 0.402256 0.103570 0.193303
Si Si2 0.943963 0.553308 0.182622
Si Si3 0.792880 0.408045 0.343778
Si Si4 0.441909 0.665055 0.542299
Si Si5 0.902307 0.842847 0.392742
Si Si6 0.706209 0.098564 0.848213
O O1 0.345128 0.122866 0.201717
O O2 0.430859 0.155625 0.300819
O O3 0.414019 0.015718 0.245428
O O4 0.412708 0.115244 0.035912
O O5 0.940653 0.626289 0.284679
O O6 0.000000 0.526224 0.165492
O O7 0.924073 0.589894 0.043372
O O8 0.750000 0.380507 0.250000
O O9 0.781412 0.386041 0.496467
O O10 0.797082 0.503478 0.335074
O O11 0.500000 0.664805 0.522306
O O12 0.422569 0.750000 0.495177
O O13 0.904146 0.750000 0.413768
O O14 0.848289 0.866005 0.336007
O O15 0.750000 0.125256 0.750000
#
# Coordination Sequence:
#
# PCOD9539813 Si02
#       6
#    16  16  16  16  16  16
#     4  11  21  38  62  88 116 153 198 245 287 346
#     4  11  23  40  60  84 116 154 198 248 294 346
#     4   9  18  34  56  86 113 145 190 241 287 336
#     4  10  22  40  60  86 122 158 193 240 299 355
#     4  11  23  38  58  86 120 157 195 240 298 352
#     4   9  18  35  56  80 116 151 191 234 288 341
#
# _framework density 20.699154
#
# number of rings (size 3 to 8) (size 9 to 14) (size 15 to 20)
#    0.000    1.833    1.667    2.500    0.000    6.000 
#    6.000    0.000    0.000   12.500    0.000    0.000 
#    0.000    0.000    0.000    0.000    0.000    0.000 
#
# Total GULP energy -267832.745857 kJ/mol
# GULP energy per Si atom -5579.848872 kJ/mol
# Density = 2.065204 g / cm^3
# Si number density = 20.699154 Si / 1000 Ang^3
#
#
#
# Elastic Constant Matrix: (Units=GPa)
#
#
# Indices 1 2 3 4 5 6 
#
# 1 42.7224 5.9352 34.7123 0.0000 0.0000 0.0000
# 2 5.9352 68.8574 22.3813 0.0000 0.0000 0.0000
# 3 34.7123 22.3813 69.8245 0.0000 0.0000 0.0000
# 4 0.0000 0.0000 0.0000 17.7108 0.0000 0.0000
# 5 0.0000 0.0000 0.0000 0.0000 37.7204 0.0000
# 6 0.0000 0.0000 0.0000 0.0000 0.0000 8.5141
#
#
#
# Elastic Compliance Matrix: (Units=1/GPa)
#
#
# Indices 1 2 3 4 5 6 
#
# 1 0.039954 0.003363 -0.020941 0.000000 0.000000 0.000000
# 2 0.003363 0.016495 -0.006959 0.000000 0.000000 0.000000
# 3 -0.020941 -0.006959 0.026963 0.000000 0.000000 0.000000
# 4 0.000000 0.000000 0.000000 0.056463 0.000000 0.000000
# 5 0.000000 0.000000 0.000000 0.000000 0.026511 0.000000
# 6 0.000000 0.000000 0.000000 0.000000 0.000000 0.117452
#
#
# Mechanical properties :
#
#
# Convention : Reuss Voigt Hill
#
# Bulk Modulus (GPa) = 29.12234 34.16245 31.64240
# Shear Modulus (GPa) = 14.51982 20.68076 17.60029
#
# Velocity S-wave (km/s) = 2.65140 3.16430 2.91914
# Velocity P-wave (km/s) = 4.84491 5.46722 5.16544
#
# Compressibility (1/GPa) = 0.03433790
#
# Stress axis : x y z
#
# Youngs Moduli (GPa) = 25.02868 60.62508 37.08851
#
# Poissons Ratio (x) = -0.20386 0.77665
# Poissons Ratio (y) = -0.08416 0.25809
# Poissons Ratio (z) = 0.52411 0.42188
#
# Static dielectric constant tensor:
#      x y z
#    x 1.716890 0.000000 0.000000 
#    y 0.000000 1.802260 0.000000 
#    z 0.000000 0.000000 1.742980 
# 
# From -- ./inp_files/26295.got.cif
#   From: 2010.05.17/outbox.cif.g08.bks.cpg/sg74_14_cif.got.tgz:26295.got - 2010.06.03 17:57:02.
