data_PCOD9539955
_publ_section_title
;
Structure prediction by ZEFSAII (Michael W. Deem and Ramdas Pophale) SiO2 
 PCOD9539955
Probable space group: I M M A
;
_chemical_formula_sum "Si O2"
_cell_formula_units_Z 64
_cell_length_a 26.344870
_cell_length_b 13.530644
_cell_length_c 7.958986
_cell_angle_alpha 90.000000
_cell_angle_beta 90.000000
_cell_angle_gamma 90.000000
_cell_volume 2837.084482
_symmetry_space_group_name_H-M "I M M A"
_symmetry_group_IT_number 74
_symmetry_cell_setting 'orthorhombic'
loop_
_space_group_symop_operation_xyz
x,y,z
-x,1/2-y,z
x,-y,-z
-x,1/2+y,-z
-x,-y,-z
x,1/2+y,-z
-x,y,z
x,1/2-y,z
1/2+x,1/2+y,1/2+z
1/2-x,-y,1/2+z
1/2+x,1/2-y,1/2-z
1/2-x,y,1/2-z
1/2-x,1/2-y,1/2-z
1/2+x,y,1/2-z
1/2-x,1/2+y,1/2+z
1/2+x,-y,1/2+z
loop_
_atom_site_type_symbol
_atom_site_label
_atom_site_fract_x
_atom_site_fract_y
_atom_site_fract_z
Si Si1 0.054777 0.366898 0.794939
Si Si2 0.412491 0.500000 0.000000
Si Si3 0.250000 0.497419 0.750000
Si Si4 0.834133 0.862709 0.070014
Si Si5 0.671417 0.363112 0.165969
O O1 0.057323 0.250000 0.749636
O O2 0.056519 0.437844 0.634863
O O3 0.107266 0.388997 0.890321
O O4 0.000000 0.380792 0.883621
O O5 0.376190 0.579814 0.909233
O O6 0.205377 0.431722 0.831470
O O7 0.278670 0.573981 0.874914
O O8 0.825237 0.750000 0.126215
O O9 0.830274 0.864150 0.868703
O O10 0.674327 0.250000 0.108106
#
# Coordination Sequence:
#
# PCOD9539955 Si02
#       5
#    16   8   8  16  16
#     4  10  22  42  68  97 129 169 218 270 325 386
#     4  12  23  42  66  94 136 176 213 264 324 388
#     4  12  22  40  68  96 130 168 212 272 328 382
#     4  10  23  44  69  98 131 170 219 269 324 387
#     4  11  26  43  64  97 134 173 218 269 325 390
#
# _framework density 22.558371000000001
#
# number of rings (size 3 to 8) (size 9 to 14) (size 15 to 20)
#    0.000    1.250    2.500    2.625    3.500    0.000 
#    0.000    3.750    0.000    6.000    0.000    0.000 
#    0.000    0.000    0.000    0.000    0.000    0.000 
#
# Total GULP energy -178955.089136 kJ/mol
# GULP energy per Si atom -5592.346536 kJ/mol
# Density = 2.250703 g / cm^3
# Si number density = 22.558371 Si / 1000 Ang^3
#
#
#
# Elastic Constant Matrix: (Units=GPa)
#
#
# Indices 1 2 3 4 5 6 
#
# 1 188.7863 76.0486 34.2677 0.0000 0.0000 0.0000
# 2 76.0486 165.0608 32.7731 0.0000 0.0000 0.0000
# 3 34.2677 32.7731 42.1922 0.0000 0.0000 0.0000
# 4 0.0000 0.0000 0.0000 35.6372 0.0000 0.0000
# 5 0.0000 0.0000 0.0000 0.0000 21.4336 0.0000
# 6 0.0000 0.0000 0.0000 0.0000 0.0000 4.3979
#
#
#
# Elastic Compliance Matrix: (Units=1/GPa)
#
#
# Indices 1 2 3 4 5 6 
#
# 1 0.006971 -0.002468 -0.003744 0.000000 0.000000 0.000000
# 2 -0.002468 0.008037 -0.004238 0.000000 0.000000 0.000000
# 3 -0.003744 -0.004238 0.030034 0.000000 0.000000 0.000000
# 4 0.000000 0.000000 0.000000 0.028061 0.000000 0.000000
# 5 0.000000 0.000000 0.000000 0.000000 0.046656 0.000000
# 6 0.000000 0.000000 0.000000 0.000000 0.000000 0.227382
#
#
# Mechanical properties :
#
#
# Convention : Reuss Voigt Hill
#
# Bulk Modulus (GPa) = 41.42410 75.80202 58.61306
# Shear Modulus (GPa) = 13.29473 29.15708 21.22591
#
# Velocity S-wave (km/s) = 2.43028 3.59906 3.07079
# Velocity P-wave (km/s) = 5.12620 7.13768 6.21388
#
# Compressibility (1/GPa) = 0.02414053
#
# Stress axis : x y z
#
# Youngs Moduli (GPa) = 143.45220 124.42337 33.29531
#
# Poissons Ratio (x) = 0.30711 0.12467
# Poissons Ratio (y) = 0.35408 0.14111
# Poissons Ratio (z) = 0.53715 0.52733
#
# Static dielectric constant tensor:
#      x y z
#    x 1.853850 0.000000 0.000000 
#    y 0.000000 1.853180 0.000000 
#    z 0.000000 0.000000 1.870930 
# 
# From -- ./inp_files/13328.got.cif
#   From: 2010.05.17/outbox.cif.g08.bks.cpg/sg74_7_cif.got.tgz:13328.got - 2010.06.03 17:57:02.
