data_PCOD9539396
_publ_section_title
;
Structure prediction by ZEFSAII (Michael W. Deem and Ramdas Pophale) SiO2 
 PCOD9539396
Probable space group: I M M A
;
_chemical_formula_sum "Si O2"
_cell_formula_units_Z 80
_cell_length_a 14.208757
_cell_length_b 19.020522
_cell_length_c 12.210676
_cell_angle_alpha 90.000000
_cell_angle_beta 90.000000
_cell_angle_gamma 90.000000
_cell_volume 3300.032570
_symmetry_space_group_name_H-M "I M M A"
_symmetry_group_IT_number 74
_symmetry_cell_setting 'orthorhombic'
loop_
_space_group_symop_operation_xyz
x,y,z
-x,1/2-y,z
x,-y,-z
-x,1/2+y,-z
-x,-y,-z
x,1/2+y,-z
-x,y,z
x,1/2-y,z
1/2+x,1/2+y,1/2+z
1/2-x,-y,1/2+z
1/2+x,1/2-y,1/2-z
1/2-x,y,1/2-z
1/2-x,1/2-y,1/2-z
1/2+x,y,1/2-z
1/2-x,1/2+y,1/2+z
1/2+x,-y,1/2+z
loop_
_atom_site_type_symbol
_atom_site_label
_atom_site_fract_x
_atom_site_fract_y
_atom_site_fract_z
Si Si1 0.105264 0.833930 0.530019
Si Si2 0.389195 0.672196 0.489977
Si Si3 0.685802 0.545900 0.095100
Si Si4 0.390795 0.044750 0.664876
Si Si5 0.859602 0.830074 0.771022
O O1 0.123919 0.750000 0.535021
O O2 0.180084 0.875877 0.457320
O O3 0.103495 0.860149 0.656738
O O4 0.000000 0.843635 0.484132
O O5 0.500000 0.681965 0.494987
O O6 0.344249 0.750000 0.483415
O O7 0.378637 0.622610 0.385795
O O8 0.370097 0.637114 0.609096
O O9 0.626904 0.544056 0.206031
O O10 0.790792 0.514919 0.118271
O O11 0.640417 0.500000 0.000000
O O12 0.500000 0.021587 0.639468
O O13 0.896782 0.750000 0.781555
O O14 0.750000 0.825926 0.750000
#
# Coordination Sequence:
#
# PCOD9539396 Si02
#       5
#    16  16  16  16  16
#     4  10  21  38  64  98 134 176 226 276 329 393
#     4   9  17  32  57  91 130 166 204 260 324 384
#     4  11  25  46  69  95 134 177 220 275 334 395
#     4  10  23  44  68  96 128 168 224 274 326 403
#     4   9  16  28  50  84 128 171 212 262 319 377
#
# _framework density 24.242186
#
# number of rings (size 3 to 8) (size 9 to 14) (size 15 to 20)
#    0.000    2.200    0.000    2.400    0.000    7.600 
#   10.800    4.000    0.000    0.000    0.000    0.000 
#    0.000    0.000    0.000    0.000    0.000    0.000 
#
# Total GULP energy -222987.676928 kJ/mol
# GULP energy per Si atom -5574.691923 kJ/mol
# Density = 2.418701 g / cm^3
# Si number density = 24.242186 Si / 1000 Ang^3
#
#
#
# Elastic Constant Matrix: (Units=GPa)
#
#
# Indices 1 2 3 4 5 6 
#
# 1 138.4624 11.9164 28.0740 0.0000 0.0000 0.0000
# 2 11.9164 57.5251 31.5422 0.0000 0.0000 0.0000
# 3 28.0740 31.5422 157.7008 0.0000 0.0000 0.0000
# 4 0.0000 0.0000 0.0000 37.0556 0.0000 0.0000
# 5 0.0000 0.0000 0.0000 0.0000 35.0624 0.0000
# 6 0.0000 0.0000 0.0000 0.0000 0.0000 13.9151
#
#
#
# Elastic Compliance Matrix: (Units=1/GPa)
#
#
# Indices 1 2 3 4 5 6 
#
# 1 0.007536 -0.000927 -0.001156 0.000000 0.000000 0.000000
# 2 -0.000927 0.019639 -0.003763 0.000000 0.000000 0.000000
# 3 -0.001156 -0.003763 0.007300 0.000000 0.000000 0.000000
# 4 0.000000 0.000000 0.000000 0.026986 0.000000 0.000000
# 5 0.000000 0.000000 0.000000 0.000000 0.028521 0.000000
# 6 0.000000 0.000000 0.000000 0.000000 0.000000 0.071864
#
#
# Mechanical properties :
#
#
# Convention : Reuss Voigt Hill
#
# Bulk Modulus (GPa) = 43.89374 55.19484 49.54429
# Shear Modulus (GPa) = 27.60399 36.01702 31.81051
#
# Velocity S-wave (km/s) = 3.37809 3.85868 3.62635
# Velocity P-wave (km/s) = 5.77589 6.53223 6.16567
#
# Compressibility (1/GPa) = 0.02278229
#
# Stress axis : x y z
#
# Youngs Moduli (GPa) = 132.68939 50.91878 136.99392
#
# Poissons Ratio (x) = 0.04721 0.15839
# Poissons Ratio (y) = 0.12303 0.51551
# Poissons Ratio (z) = 0.15341 0.19161
#
# Static dielectric constant tensor:
#      x y z
#    x 2.026050 0.000000 0.000000 
#    y 0.000000 2.029630 0.000000 
#    z 0.000000 0.000000 1.911610 
# 
# From -- ./inp_files/20464.got.cif
#   From: 2010.05.17/outbox.cif.g08.bks.cpg/sg74_11_cif.got.tgz:20464.got - 2010.06.03 17:57:02.
