data_PCOD9539015
_publ_section_title
;
Structure prediction by ZEFSAII (Michael W. Deem and Ramdas Pophale) SiO2 
 PCOD9539015
Probable space group: I M M A
;
_chemical_formula_sum "Si O2"
_cell_formula_units_Z 96
_cell_length_a 14.416745
_cell_length_b 14.834191
_cell_length_c 21.469253
_cell_angle_alpha 90.000000
_cell_angle_beta 90.000000
_cell_angle_gamma 90.000000
_cell_volume 4591.430526
_symmetry_space_group_name_H-M "I M M A"
_symmetry_group_IT_number 74
_symmetry_cell_setting 'orthorhombic'
loop_
_space_group_symop_operation_xyz
x,y,z
-x,1/2-y,z
x,-y,-z
-x,1/2+y,-z
-x,-y,-z
x,1/2+y,-z
-x,y,z
x,1/2-y,z
1/2+x,1/2+y,1/2+z
1/2-x,-y,1/2+z
1/2+x,1/2-y,1/2-z
1/2-x,y,1/2-z
1/2-x,1/2-y,1/2-z
1/2+x,y,1/2-z
1/2-x,1/2+y,1/2+z
1/2+x,-y,1/2+z
loop_
_atom_site_type_symbol
_atom_site_label
_atom_site_fract_x
_atom_site_fract_y
_atom_site_fract_z
Si Si1 0.389444 0.651762 0.612737
Si Si2 0.859551 0.353705 0.245892
Si Si3 0.893191 0.012936 0.358875
Si Si4 0.720851 0.145266 0.901380
Si Si5 0.888860 0.647835 0.531211
Si Si6 0.105546 0.396653 0.979389
O O1 0.500000 0.650437 0.601729
O O2 0.355720 0.750000 0.632133
O O3 0.377583 0.601235 0.677751
O O4 0.350910 0.640770 0.543641
O O5 0.897065 0.250000 0.253345
O O6 0.750000 0.347123 0.250000
O O7 0.891882 0.420016 0.300194
O O8 0.861862 0.073584 0.417988
O O9 0.000000 0.983458 0.368892
O O10 0.824820 0.927584 0.355472
O O11 0.716492 0.250000 0.881614
O O12 0.825366 0.120856 0.922832
O O13 0.660893 0.136353 0.965195
O O14 0.870329 0.750000 0.554081
O O15 0.000000 0.639940 0.522516
O O16 0.000000 0.364157 0.967122
O O17 0.098450 0.500000 0.000000
#
# Coordination Sequence:
#
# PCOD9539015 Si02
#       6
#    16  16  16  16  16  16
#     4   9  18  34  55  81 115 151 186 229 289 362
#     4  10  22  36  57  90 124 157 194 241 304 376
#     4  11  22  37  58  85 120 163 206 251 303 359
#     4  11  23  36  56  83 118 162 206 252 299 348
#     4   9  18  32  52  81 117 155 196 243 300 364
#     4  10  21  36  58  89 120 154 196 245 306 372
#
# _framework density 20.908517
#
# number of rings (size 3 to 8) (size 9 to 14) (size 15 to 20)
#    0.000    2.000    0.000    3.500    4.667    5.000 
#    0.000    0.000    0.000    0.500    0.000    0.000 
#    0.000    0.000    0.000    0.000    0.000    0.000 
#
# Total GULP energy -267605.868843 kJ/mol
# GULP energy per Si atom -5575.122268 kJ/mol
# Density = 2.086093 g / cm^3
# Si number density = 20.908517 Si / 1000 Ang^3
#
#
#
# Elastic Constant Matrix: (Units=GPa)
#
#
# Indices 1 2 3 4 5 6 
#
# 1 94.8277 29.0325 12.4708 0.0000 0.0000 0.0000
# 2 29.0325 102.9168 24.6094 0.0000 0.0000 0.0000
# 3 12.4708 24.6094 43.9564 0.0000 0.0000 0.0000
# 4 0.0000 0.0000 0.0000 21.4259 0.0000 0.0000
# 5 0.0000 0.0000 0.0000 0.0000 7.3351 0.0000
# 6 0.0000 0.0000 0.0000 0.0000 0.0000 17.6194
#
#
#
# Elastic Compliance Matrix: (Units=1/GPa)
#
#
# Indices 1 2 3 4 5 6 
#
# 1 0.011650 -0.002882 -0.001692 0.000000 0.000000 0.000000
# 2 -0.002882 0.011931 -0.005862 0.000000 0.000000 0.000000
# 3 -0.001692 -0.005862 0.026512 0.000000 0.000000 0.000000
# 4 0.000000 0.000000 0.000000 0.046672 0.000000 0.000000
# 5 0.000000 0.000000 0.000000 0.000000 0.136331 0.000000
# 6 0.000000 0.000000 0.000000 0.000000 0.000000 0.056756
#
#
# Mechanical properties :
#
#
# Convention : Reuss Voigt Hill
#
# Bulk Modulus (GPa) = 34.22143 41.54737 37.88440
# Shear Modulus (GPa) = 15.60234 20.98197 18.29215
#
# Velocity S-wave (km/s) = 2.73466 3.17126 2.96102
# Velocity P-wave (km/s) = 5.13556 5.77264 5.46339
#
# Compressibility (1/GPa) = 0.02922145
#
# Stress axis : x y z
#
# Youngs Moduli (GPa) = 85.83492 83.81277 37.71901
#
# Poissons Ratio (x) = 0.24154 0.06381
# Poissons Ratio (y) = 0.24737 0.22112
# Poissons Ratio (z) = 0.14521 0.49133
#
# Static dielectric constant tensor:
#      x y z
#    x 1.636260 0.000000 0.000000 
#    y 0.000000 1.736430 0.000000 
#    z 0.000000 0.000000 1.831360 
# 
# From -- ./inp_files/51824.got.cif
#   From: 2010.05.17/outbox.cif.g08.bks.cpg/sg74_26_cif.got.tgz:51824.got - 2010.06.03 17:57:02.
