data_PCOD9539421
_publ_section_title
;
Structure prediction by ZEFSAII (Michael W. Deem and Ramdas Pophale) SiO2 
 PCOD9539421
Probable space group: I M M A
;
_chemical_formula_sum "Si O2"
_cell_formula_units_Z 116
_cell_length_a 22.541551
_cell_length_b 9.594224
_cell_length_c 29.317582
_cell_angle_alpha 90.000000
_cell_angle_beta 90.000000
_cell_angle_gamma 90.000000
_cell_volume 6340.475041
_symmetry_space_group_name_H-M "I M M A"
_symmetry_group_IT_number 74
_symmetry_cell_setting 'orthorhombic'
loop_
_space_group_symop_operation_xyz
x,y,z
-x,1/2-y,z
x,-y,-z
-x,1/2+y,-z
-x,-y,-z
x,1/2+y,-z
-x,y,z
x,1/2-y,z
1/2+x,1/2+y,1/2+z
1/2-x,-y,1/2+z
1/2+x,1/2-y,1/2-z
1/2-x,y,1/2-z
1/2-x,1/2-y,1/2-z
1/2+x,y,1/2-z
1/2-x,1/2+y,1/2+z
1/2+x,-y,1/2+z
loop_
_atom_site_type_symbol
_atom_site_label
_atom_site_fract_x
_atom_site_fract_y
_atom_site_fract_z
Si Si1 0.711483 0.915685 0.452952
Si Si2 0.673204 0.582026 0.634500
Si Si3 0.570304 0.098519 0.109071
Si Si4 0.067894 0.417059 0.202240
Si Si5 0.500000 0.750000 0.187646
Si Si6 0.238512 0.408474 0.696006
Si Si7 0.852233 0.087769 0.545815
Si Si8 0.602410 0.980356 0.198728
O O1 0.696867 0.750000 0.456269
O O2 0.782302 0.924049 0.442956
O O3 0.701443 0.000000 0.500000
O O4 0.678718 0.997442 0.412488
O O5 0.679151 0.750000 0.628548
O O6 0.611210 0.551389 0.660198
O O7 0.724534 0.520643 0.667387
O O8 0.500000 0.076158 0.104203
O O9 0.585172 0.250000 0.088775
O O10 0.607322 0.978708 0.084684
O O11 0.587835 0.098426 0.162012
O O12 0.066092 0.250000 0.206292
O O13 0.095531 0.475256 0.248831
O O14 0.000000 0.467889 0.197092
O O15 0.551942 0.868629 0.189090
O O16 0.256237 0.250000 0.682756
O O17 0.250000 0.424884 0.750000
O O18 0.168446 0.426552 0.689529
O O19 0.865929 0.250000 0.539134
O O20 0.862728 0.000000 0.500000
#
# Coordination Sequence:
#
# PCOD9539421 Si02
#       8
#    16  16  16  16   4  16  16  16
#     4  10  21  40  64  91 119 150 188 237 293 355
#     4  11  23  38  60  91 122 157 198 243 297 355
#     4  11  24  38  56  79 110 150 198 244 292 342
#     4  10  21  39  60  83 116 157 200 242 289 348
#     4  12  24  36  56  84 114 156 216 248 296 344
#     4  11  23  37  55  81 120 159 195 246 302 350
#     4  10  22  39  62  84 111 144 186 236 295 353
#     4  12  22  38  58  81 114 158 206 248 293 345
#
# _framework density 18.295159999999999
#
# number of rings (size 3 to 8) (size 9 to 14) (size 15 to 20)
#    0.000    1.241    3.448    2.483    0.966    6.897 
#    1.241    0.000    0.000    0.414    0.000    0.000 
#    0.000    0.000    0.000    0.000    0.000    0.000 
#
# Total GULP energy -323361.960421 kJ/mol
# GULP energy per Si atom -5575.206214 kJ/mol
# Density = 1.825352 g / cm^3
# Si number density = 18.295160 Si / 1000 Ang^3
#
#
#
# Elastic Constant Matrix: (Units=GPa)
#
#
# Indices 1 2 3 4 5 6 
#
# 1 70.4190 37.6848 29.9676 0.0000 0.0000 0.0000
# 2 37.6848 125.7327 63.8776 0.0000 0.0000 0.0000
# 3 29.9676 63.8776 89.0144 0.0000 0.0000 0.0000
# 4 0.0000 0.0000 0.0000 97.9293 0.0000 0.0000
# 5 0.0000 0.0000 0.0000 0.0000 14.9254 0.0000
# 6 0.0000 0.0000 0.0000 0.0000 0.0000 24.8809
#
#
#
# Elastic Compliance Matrix: (Units=1/GPa)
#
#
# Indices 1 2 3 4 5 6 
#
# 1 0.017527 -0.003550 -0.003354 0.000000 0.000000 0.000000
# 2 -0.003550 0.013236 -0.008303 0.000000 0.000000 0.000000
# 3 -0.003354 -0.008303 0.018321 0.000000 0.000000 0.000000
# 4 0.000000 0.000000 0.000000 0.010211 0.000000 0.000000
# 5 0.000000 0.000000 0.000000 0.000000 0.067000 0.000000
# 6 0.000000 0.000000 0.000000 0.000000 0.000000 0.040191
#
#
# Mechanical properties :
#
#
# Convention : Reuss Voigt Hill
#
# Bulk Modulus (GPa) = 53.55562 60.91403 57.23482
# Shear Modulus (GPa) = 24.61560 37.78954 31.20257
#
# Velocity S-wave (km/s) = 3.67205 4.54976 4.13426
# Velocity P-wave (km/s) = 6.87861 7.80819 7.35809
#
# Compressibility (1/GPa) = 0.01867218
#
# Stress axis : x y z
#
# Youngs Moduli (GPa) = 57.05347 75.55432 54.58092
#
# Poissons Ratio (x) = 0.26819 0.18304
# Poissons Ratio (y) = 0.20252 0.45318
# Poissons Ratio (z) = 0.19133 0.62732
#
# Static dielectric constant tensor:
#      x y z
#    x 1.607710 0.000000 0.000000 
#    y 0.000000 1.568860 0.000000 
#    z 0.000000 0.000000 1.643160 
# 
# From -- ./inp_files/68739.got.cif
#   From: 2010.05.17/outbox.cif.g08.bks.cpg/sg74_35_cif.got.tgz:68739.got - 2010.06.03 17:57:02.
