data_PCOD9539122
_publ_section_title
;
Structure prediction by ZEFSAII (Michael W. Deem and Ramdas Pophale) SiO2 
 PCOD9539122
Probable space group: I M M A
;
_chemical_formula_sum "Si O2"
_cell_formula_units_Z 80
_cell_length_a 16.484287
_cell_length_b 25.867795
_cell_length_c 9.142866
_cell_angle_alpha 90.000000
_cell_angle_beta 90.000000
_cell_angle_gamma 90.000000
_cell_volume 3898.629211
_symmetry_space_group_name_H-M "I M M A"
_symmetry_group_IT_number 74
_symmetry_cell_setting 'orthorhombic'
loop_
_space_group_symop_operation_xyz
x,y,z
-x,1/2-y,z
x,-y,-z
-x,1/2+y,-z
-x,-y,-z
x,1/2+y,-z
-x,y,z
x,1/2-y,z
1/2+x,1/2+y,1/2+z
1/2-x,-y,1/2+z
1/2+x,1/2-y,1/2-z
1/2-x,y,1/2-z
1/2-x,1/2-y,1/2-z
1/2+x,y,1/2-z
1/2-x,1/2+y,1/2+z
1/2+x,-y,1/2+z
loop_
_atom_site_type_symbol
_atom_site_label
_atom_site_fract_x
_atom_site_fract_y
_atom_site_fract_z
Si Si1 0.655577 0.190772 0.792326
Si Si2 0.404956 0.598609 0.677199
Si Si3 0.405186 0.089662 0.648872
Si Si4 0.333775 0.003883 0.173093
Si Si5 0.902035 0.809346 0.621387
O O1 0.630926 0.250000 0.759509
O O2 0.750000 0.185138 0.750000
O O3 0.606252 0.147815 0.704860
O O4 0.639945 0.182464 0.964678
O O5 0.500000 0.609084 0.652353
O O6 0.370983 0.586647 0.516195
O O7 0.395020 0.549010 0.779719
O O8 0.372422 0.648958 0.760687
O O9 0.500000 0.075267 0.648516
O O10 0.360510 0.050267 0.756234
O O11 0.250000 0.019014 0.250000
O O12 0.326634 0.000000 0.000000
O O13 0.887956 0.750000 0.667495
O O14 0.000000 0.815610 0.601046
#
# Coordination Sequence:
#
# PCOD9539122 Si02
#       5
#    16  16  16  16  16
#     4  10  21  37  57  84 118 154 195 242 290 342
#     4  10  22  39  59  86 119 152 192 242 291 342
#     4  11  23  39  61  88 118 152 193 241 290 343
#     4  12  25  41  62  86 116 153 193 237 289 348
#     4   9  18  35  59  85 115 154 197 238 284 342
#
# _framework density 20.520033000000002
#
# number of rings (size 3 to 8) (size 9 to 14) (size 15 to 20)
#    0.000    1.600    0.000    4.800    0.000    8.400 
#    0.000    2.000    0.000    4.200    0.000    0.000 
#    0.000    0.000    0.000    0.000    0.000    0.000 
#
# Total GULP energy -223532.003673 kJ/mol
# GULP energy per Si atom -5588.300092 kJ/mol
# Density = 2.047333 g / cm^3
# Si number density = 20.520033 Si / 1000 Ang^3
#
#
#
# Elastic Constant Matrix: (Units=GPa)
#
#
# Indices 1 2 3 4 5 6 
#
# 1 26.2372 3.3087 17.7143 0.0000 0.0000 0.0000
# 2 3.3087 83.3282 68.0974 0.0000 0.0000 0.0000
# 3 17.7143 68.0974 170.7163 -0.0003 -0.0002 -0.0004
# 4 0.0000 0.0000 -0.0003 35.1123 0.0000 -0.0001
# 5 0.0000 0.0000 -0.0002 0.0000 22.2249 0.0000
# 6 0.0000 0.0000 -0.0004 -0.0001 0.0000 3.0555
#
#
#
# Elastic Compliance Matrix: (Units=1/GPa)
#
#
# Indices 1 2 3 4 5 6 
#
# 1 0.041412 0.002770 -0.005402 0.000000 0.000000 -0.000001
# 2 0.002770 0.017990 -0.007464 0.000000 0.000000 -0.000001
# 3 -0.005402 -0.007464 0.009395 0.000000 0.000000 0.000001
# 4 0.000000 0.000000 0.000000 0.028480 0.000000 0.000001
# 5 0.000000 0.000000 0.000000 0.000000 0.044995 0.000000
# 6 -0.000001 -0.000001 0.000001 0.000001 0.000000 0.327284
#
#
# Mechanical properties :
#
#
# Convention : Reuss Voigt Hill
#
# Bulk Modulus (GPa) = 20.57335 50.94697 35.76016
# Shear Modulus (GPa) = 9.88243 24.82261 17.35252
#
# Velocity S-wave (km/s) = 2.19692 3.48181 2.91114
# Velocity P-wave (km/s) = 4.05993 6.40670 5.36325
#
# Compressibility (1/GPa) = 0.04860658
#
# Stress axis : x y z
#
# Youngs Moduli (GPa) = 24.14772 55.58603 106.43507
#
# Poissons Ratio (x) = -0.15400 0.57498
# Poissons Ratio (y) = -0.06690 0.79439
# Poissons Ratio (z) = 0.13045 0.41487
#
# Static dielectric constant tensor:
#      x y z
#    x 1.750960 0.000000 0.000000 
#    y 0.000000 1.706990 0.000000 
#    z 0.000000 0.000000 1.710840 
# 
# From -- ./inp_files/10879.got.cif
#   From: 2010.05.17/outbox.cif.g08.bks.cpg/sg74_6_cif.got.tgz:10879.got - 2010.06.03 17:57:02.
