data_PCOD9539675
_publ_section_title
;
Structure prediction by ZEFSAII (Michael W. Deem and Ramdas Pophale) SiO2 
 PCOD9539675
Probable space group: I M M A
;
_chemical_formula_sum "Si O2"
_cell_formula_units_Z 96
_cell_length_a 18.775186
_cell_length_b 19.329353
_cell_length_c 13.896008
_cell_angle_alpha 90.000000
_cell_angle_beta 90.000000
_cell_angle_gamma 90.000000
_cell_volume 5043.030804
_symmetry_space_group_name_H-M "I M M A"
_symmetry_group_IT_number 74
_symmetry_cell_setting 'orthorhombic'
loop_
_space_group_symop_operation_xyz
x,y,z
-x,1/2-y,z
x,-y,-z
-x,1/2+y,-z
-x,-y,-z
x,1/2+y,-z
-x,y,z
x,1/2-y,z
1/2+x,1/2+y,1/2+z
1/2-x,-y,1/2+z
1/2+x,1/2-y,1/2-z
1/2-x,y,1/2-z
1/2-x,1/2-y,1/2-z
1/2+x,y,1/2-z
1/2-x,1/2+y,1/2+z
1/2+x,-y,1/2+z
loop_
_atom_site_type_symbol
_atom_site_label
_atom_site_fract_x
_atom_site_fract_y
_atom_site_fract_z
Si Si1 0.421742 0.331635 0.791174
Si Si2 0.417259 0.943377 0.915192
Si Si3 0.837467 0.166777 0.527112
Si Si4 0.204646 0.421967 0.037933
Si Si5 0.174028 0.482508 0.229965
Si Si6 0.082849 0.911340 0.106419
O O1 0.500000 0.362594 0.815934
O O2 0.426034 0.250000 0.804696
O O3 0.361571 0.355210 0.864972
O O4 0.409455 0.347573 0.679875
O O5 0.500000 0.946009 0.885950
O O6 0.364729 0.959688 0.826924
O O7 0.396260 0.868918 0.958807
O O8 0.406772 0.000000 0.000000
O O9 0.834784 0.250000 0.519814
O O10 0.763803 0.130828 0.498625
O O11 0.196934 0.423842 0.152938
O O12 0.223495 0.500000 0.000000
O O13 0.129504 0.404804 0.988457
O O14 0.250000 0.519379 0.250000
O O15 0.118385 0.528157 0.169835
O O16 0.000000 0.923557 0.086791
#
# Coordination Sequence:
#
# PCOD9539675 Si02
#       6
#    16  16  16  16  16  16
#     4   9  19  35  56  85 121 155 187 235 298 359
#     4  11  23  39  64  92 121 155 196 245 304 361
#     4  11  22  37  59  88 122 155 201 246 294 351
#     4  10  23  39  59  84 119 161 194 244 294 353
#     4  11  22  37  60  85 117 155 194 246 294 350
#     4  10  22  37  59  88 118 154 193 242 295 358
#
# _framework density 19.036171
#
# number of rings (size 3 to 8) (size 9 to 14) (size 15 to 20)
#    0.000    1.667    1.667    2.500    7.000    8.000 
#    0.000    3.333    0.000    0.000    0.000    2.333 
#    0.000    0.000    0.000    0.000    0.000    0.000 
#
# Total GULP energy -267855.010643 kJ/mol
# GULP energy per Si atom -5580.312722 kJ/mol
# Density = 1.899284 g / cm^3
# Si number density = 19.036171 Si / 1000 Ang^3
#
#
#
# Elastic Constant Matrix: (Units=GPa)
#
#
# Indices 1 2 3 4 5 6 
#
# 1 142.3337 39.2964 54.4342 0.0000 0.0000 0.0000
# 2 39.2964 65.0463 21.9344 0.0000 0.0000 0.0000
# 3 54.4342 21.9344 94.1229 0.0000 0.0000 0.0000
# 4 0.0000 0.0000 0.0000 21.2394 0.0000 0.0000
# 5 0.0000 0.0000 0.0000 0.0000 30.7389 0.0000
# 6 0.0000 0.0000 0.0000 0.0000 0.0000 20.2997
#
#
#
# Elastic Compliance Matrix: (Units=1/GPa)
#
#
# Indices 1 2 3 4 5 6 
#
# 1 0.010097 -0.004483 -0.004795 0.000000 0.000000 0.000000
# 2 -0.004483 0.018675 -0.001759 0.000000 0.000000 0.000000
# 3 -0.004795 -0.001759 0.013807 0.000000 0.000000 0.000000
# 4 0.000000 0.000000 0.000000 0.047082 0.000000 0.000000
# 5 0.000000 0.000000 0.000000 0.000000 0.032532 0.000000
# 6 0.000000 0.000000 0.000000 0.000000 0.000000 0.049262
#
#
# Mechanical properties :
#
#
# Convention : Reuss Voigt Hill
#
# Bulk Modulus (GPa) = 48.76778 59.20369 53.98573
# Shear Modulus (GPa) = 24.95437 26.84480 25.89958
#
# Velocity S-wave (km/s) = 3.62455 3.75934 3.69256
# Velocity P-wave (km/s) = 6.57196 7.07189 6.82650
#
# Compressibility (1/GPa) = 0.02050534
#
# Stress axis : x y z
#
# Youngs Moduli (GPa) = 99.03737 53.54652 72.42510
#
# Poissons Ratio (x) = 0.24006 0.34726
# Poissons Ratio (y) = 0.44400 0.12742
# Poissons Ratio (z) = 0.47486 0.09421
#
# Static dielectric constant tensor:
#      x y z
#    x 1.697060 0.000000 0.000000 
#    y 0.000000 1.671800 0.000000 
#    z 0.000000 0.000000 1.711530 
# 
# From -- ./inp_files/32411.got.cif
#   From: 2010.05.17/outbox.cif.g08.bks.cpg/sg74_17_cif.got.tgz:32411.got - 2010.06.03 17:57:02.
