data_PCOD9539142
_publ_section_title
;
Structure prediction by ZEFSAII (Michael W. Deem and Ramdas Pophale) SiO2 
 PCOD9539142
Probable space group: I M M A
;
_chemical_formula_sum "Si O2"
_cell_formula_units_Z 56
_cell_length_a 26.869712
_cell_length_b 9.323085
_cell_length_c 12.336090
_cell_angle_alpha 90.000000
_cell_angle_beta 90.000000
_cell_angle_gamma 90.000000
_cell_volume 3090.296745
_symmetry_space_group_name_H-M "I M M A"
_symmetry_group_IT_number 74
_symmetry_cell_setting 'orthorhombic'
loop_
_space_group_symop_operation_xyz
x,y,z
-x,1/2-y,z
x,-y,-z
-x,1/2+y,-z
-x,-y,-z
x,1/2+y,-z
-x,y,z
x,1/2-y,z
1/2+x,1/2+y,1/2+z
1/2-x,-y,1/2+z
1/2+x,1/2-y,1/2-z
1/2-x,y,1/2-z
1/2-x,1/2-y,1/2-z
1/2+x,y,1/2-z
1/2-x,1/2+y,1/2+z
1/2+x,-y,1/2+z
loop_
_atom_site_type_symbol
_atom_site_label
_atom_site_fract_x
_atom_site_fract_y
_atom_site_fract_z
Si Si1 0.307710 0.587566 0.397895
Si Si2 0.209879 0.500000 0.500000
Si Si3 0.557206 0.419263 0.884455
Si Si4 0.148274 0.415042 0.296886
O O1 0.330325 0.500000 0.500000
O O2 0.326004 0.750000 0.387939
O O3 0.249076 0.591041 0.428718
O O4 0.318123 0.495379 0.291605
O O5 0.175607 0.420443 0.413479
O O6 0.500000 0.431469 0.846350
O O7 0.568721 0.250000 0.897455
O O8 0.597178 0.497082 0.809109
O O9 0.559893 0.500000 0.000000
O O10 0.140227 0.250000 0.266547
#
# Coordination Sequence:
#
# PCOD9539142 Si02
#       4
#    16   8  16  16
#     4  10  23  40  57  80 116 156 199 240 284 335
#     4  10  24  36  59  82 119 156 198 236 282 342
#     4  10  21  37  58  85 116 149 188 235 289 345
#     4  12  23  37  60  87 118 153 194 238 290 344
#
# _framework density 18.121237000000001
#
# number of rings (size 3 to 8) (size 9 to 14) (size 15 to 20)
#    0.857    0.571    1.429    4.286    0.000    7.429 
#    0.000    0.000    0.000    0.857    0.000    0.000 
#    0.000    0.000    0.000    0.000    0.000    0.000 
#
# Total GULP energy -156087.351454 kJ/mol
# GULP energy per Si atom -5574.548266 kJ/mol
# Density = 1.807999 g / cm^3
# Si number density = 18.121237 Si / 1000 Ang^3
#
#
#
# Elastic Constant Matrix: (Units=GPa)
#
#
# Indices 1 2 3 4 5 6 
#
# 1 82.9237 53.0526 34.8600 0.0000 0.0000 0.0000
# 2 53.0526 181.3028 46.4764 0.0000 0.0000 0.0000
# 3 34.8600 46.4764 82.7640 0.0000 0.0000 0.0000
# 4 0.0000 0.0000 0.0000 23.5258 0.0000 0.0000
# 5 0.0000 0.0000 0.0000 0.0000 6.9011 0.0000
# 6 0.0000 0.0000 0.0000 0.0000 0.0000 0.5675
#
#
#
# Elastic Compliance Matrix: (Units=1/GPa)
#
#
# Indices 1 2 3 4 5 6 
#
# 1 0.016388 -0.003535 -0.004918 0.000000 0.000000 0.000000
# 2 -0.003535 0.007206 -0.002557 0.000000 0.000000 0.000000
# 3 -0.004918 -0.002557 0.015590 0.000000 0.000000 0.000000
# 4 0.000000 0.000000 0.000000 0.042507 0.000000 0.000000
# 5 0.000000 0.000000 0.000000 0.000000 0.144905 0.000000
# 6 0.000000 0.000000 0.000000 0.000000 0.000000 1.762188
#
#
# Mechanical properties :
#
#
# Convention : Reuss Voigt Hill
#
# Bulk Modulus (GPa) = 58.26204 68.41871 63.34038
# Shear Modulus (GPa) = 2.47951 20.37231 11.42591
#
# Velocity S-wave (km/s) = 1.17101 3.35658 2.51375
# Velocity P-wave (km/s) = 5.83519 7.27050 6.59203
#
# Compressibility (1/GPa) = 0.01716383
#
# Stress axis : x y z
#
# Youngs Moduli (GPa) = 61.01990 138.78111 64.14376
#
# Poissons Ratio (x) = 0.49057 0.31543
# Poissons Ratio (y) = 0.21570 0.16404
# Poissons Ratio (z) = 0.30007 0.35493
#
# Static dielectric constant tensor:
#      x y z
#    x 1.629170 0.000000 0.000000 
#    y 0.000000 1.626780 0.000000 
#    z 0.000000 0.000000 1.617060 
# 
# From -- ./inp_files/26762.got.cif
#   From: 2010.05.17/outbox.cif.g08.bks.cpg/sg74_14_cif.got.tgz:26762.got - 2010.06.03 17:57:02.
