data_PCOD9539129
_publ_section_title
;
Structure prediction by ZEFSAII (Michael W. Deem and Ramdas Pophale) SiO2 
 PCOD9539129
Probable space group: I M M A
;
_chemical_formula_sum "Si O2"
_cell_formula_units_Z 64
_cell_length_a 25.962219
_cell_length_b 19.740114
_cell_length_c 5.063644
_cell_angle_alpha 90.000000
_cell_angle_beta 90.000000
_cell_angle_gamma 90.000000
_cell_volume 2595.103183
_symmetry_space_group_name_H-M "I M M A"
_symmetry_group_IT_number 74
_symmetry_cell_setting 'orthorhombic'
loop_
_space_group_symop_operation_xyz
x,y,z
-x,1/2-y,z
x,-y,-z
-x,1/2+y,-z
-x,-y,-z
x,1/2+y,-z
-x,y,z
x,1/2-y,z
1/2+x,1/2+y,1/2+z
1/2-x,-y,1/2+z
1/2+x,1/2-y,1/2-z
1/2-x,y,1/2-z
1/2-x,1/2-y,1/2-z
1/2+x,y,1/2-z
1/2-x,1/2+y,1/2+z
1/2+x,-y,1/2+z
loop_
_atom_site_type_symbol
_atom_site_label
_atom_site_fract_x
_atom_site_fract_y
_atom_site_fract_z
Si Si1 0.560412 0.824844 0.668942
Si Si2 0.713535 0.826083 0.498885
Si Si3 0.559707 0.908646 0.151429
Si Si4 0.836236 0.458934 0.762183
O O1 0.500000 0.822285 0.745520
O O2 0.581641 0.750000 0.703387
O O3 0.560931 0.849183 0.369202
O O4 0.581469 0.878889 0.876454
O O5 0.692631 0.750000 0.561995
O O6 0.750000 0.817909 0.250000
O O7 0.675266 0.882285 0.371102
O O8 0.750000 0.846683 0.750000
O O9 0.500000 0.931722 0.135889
O O10 0.601547 0.961864 0.247583
O O11 0.818586 0.500000 0.500000
O O12 0.812743 0.500000 0.000000
#
# Coordination Sequence:
#
# PCOD9539129 Si02
#       4
#    16  16  16  16
#     4   9  17  31  53  82 118 165 224 285 338 385
#     4  10  23  46  74 102 132 169 218 280 352 423
#     4  10  21  37  57  87 131 182 232 279 329 393
#     4  12  26  43  66 101 140 180 228 278 339 412
#
# _framework density 24.661830999999999
#
# number of rings (size 3 to 8) (size 9 to 14) (size 15 to 20)
#    0.000    1.750    0.000    3.750    0.000    8.000 
#    0.000    2.500    0.000    0.000    0.000    0.000 
#    0.000    0.000    0.000    0.000    0.000    0.000 
#
# Total GULP energy -178235.350756 kJ/mol
# GULP energy per Si atom -5569.854711 kJ/mol
# Density = 2.460570 g / cm^3
# Si number density = 24.661831 Si / 1000 Ang^3
#
#
#
# Elastic Constant Matrix: (Units=GPa)
#
#
# Indices 1 2 3 4 5 6 
#
# 1 102.1856 34.4847 29.7110 0.0000 0.0000 0.0000
# 2 34.4847 136.5013 52.0892 0.0000 0.0000 0.0000
# 3 29.7110 52.0892 162.0400 0.0000 0.0000 0.0000
# 4 0.0000 0.0000 0.0000 37.1630 0.0000 0.0000
# 5 0.0000 0.0000 0.0000 0.0000 8.6086 0.0000
# 6 0.0000 0.0000 0.0000 0.0000 0.0000 18.0078
#
#
#
# Elastic Compliance Matrix: (Units=1/GPa)
#
#
# Indices 1 2 3 4 5 6 
#
# 1 0.010923 -0.002274 -0.001272 0.000000 0.000000 0.000000
# 2 -0.002274 0.008824 -0.002419 0.000000 0.000000 0.000000
# 3 -0.001272 -0.002419 0.007182 0.000000 0.000000 0.000000
# 4 0.000000 0.000000 0.000000 0.026908 0.000000 0.000000
# 5 0.000000 0.000000 0.000000 0.000000 0.116163 0.000000
# 6 0.000000 0.000000 0.000000 0.000000 0.000000 0.055531
#
#
# Mechanical properties :
#
#
# Convention : Reuss Voigt Hill
#
# Bulk Modulus (GPa) = 66.67403 70.36629 68.52016
# Shear Modulus (GPa) = 20.62173 31.71869 26.17021
#
# Velocity S-wave (km/s) = 2.89481 3.59018 3.26108
# Velocity P-wave (km/s) = 6.18605 6.76611 6.48257
#
# Compressibility (1/GPa) = 0.01499834
#
# Stress axis : x y z
#
# Youngs Moduli (GPa) = 91.54664 113.33017 139.23181
#
# Poissons Ratio (x) = 0.25775 0.17707
# Poissons Ratio (y) = 0.20820 0.33687
# Poissons Ratio (z) = 0.11643 0.27420
#
# Static dielectric constant tensor:
#      x y z
#    x 2.078850 0.000000 0.000000 
#    y 0.000000 2.264680 0.000000 
#    z 0.000000 0.000000 -19.092120 
# 
# From -- ./inp_files/4335.got.cif
#   From: 2010.05.17/outbox.cif.g08.bks.cpg/sg74_3_cif.got.tgz:4335.got - 2010.06.03 17:57:02.
