data_PCOD9539781
_publ_section_title
;
Structure prediction by ZEFSAII (Michael W. Deem and Ramdas Pophale) SiO2 
 PCOD9539781
Probable space group: I M M A
;
_chemical_formula_sum "Si O2"
_cell_formula_units_Z 116
_cell_length_a 25.771707
_cell_length_b 27.380548
_cell_length_c 7.676820
_cell_angle_alpha 90.000000
_cell_angle_beta 90.000000
_cell_angle_gamma 90.000000
_cell_volume 5417.097831
_symmetry_space_group_name_H-M "I M M A"
_symmetry_group_IT_number 74
_symmetry_cell_setting 'orthorhombic'
loop_
_space_group_symop_operation_xyz
x,y,z
-x,1/2-y,z
x,-y,-z
-x,1/2+y,-z
-x,-y,-z
x,1/2+y,-z
-x,y,z
x,1/2-y,z
1/2+x,1/2+y,1/2+z
1/2-x,-y,1/2+z
1/2+x,1/2-y,1/2-z
1/2-x,y,1/2-z
1/2-x,1/2-y,1/2-z
1/2+x,y,1/2-z
1/2-x,1/2+y,1/2+z
1/2+x,-y,1/2+z
loop_
_atom_site_type_symbol
_atom_site_label
_atom_site_fract_x
_atom_site_fract_y
_atom_site_fract_z
Si Si1 0.251133 0.663881 0.964516
Si Si2 0.656955 0.395112 0.140757
Si Si3 0.559987 0.194904 0.731353
Si Si4 0.406793 0.456235 0.616872
Si Si5 0.056348 0.904291 0.442567
Si Si6 0.192038 0.503987 0.706596
Si Si7 0.133356 0.855851 0.972933
Si Si8 0.750000 0.250000 0.750000
O O1 0.250000 0.673922 0.750000
O O2 0.298976 0.626367 0.983589
O O3 0.194283 0.643978 0.017173
O O4 0.259144 0.708043 0.096825
O O5 0.684325 0.438524 0.248225
O O6 0.635369 0.352275 0.264647
O O7 0.606073 0.417229 0.054739
O O8 0.500000 0.191557 0.667741
O O9 0.567609 0.250000 0.799531
O O10 0.565323 0.150902 0.869622
O O11 0.601740 0.184310 0.580270
O O12 0.427893 0.500000 0.500000
O O13 0.441918 0.440108 0.777665
O O14 0.351754 0.474582 0.692802
O O15 0.395361 0.406574 0.513495
O O16 0.000000 0.906586 0.528738
O O17 0.185020 0.500000 0.500000
O O18 0.250000 0.488192 0.750000
#
# Coordination Sequence:
#
# PCOD9539781 Si02
#       8
#    16  16  16  16  16  16  16   4
#     4  10  25  42  61  98 135 166 219 272 325 400
#     4  11  23  43  58  89 132 166 207 269 321 380
#     4   9  20  40  66  94 122 160 215 268 313 378
#     4  11  22  38  63  92 126 163 215 259 316 385
#     4  10  23  42  64  92 126 166 214 270 324 386
#     4  12  24  37  62  92 125 167 210 256 307 370
#     4  10  22  39  64  89 132 166 206 268 324 380
#     4  12  26  40  72  90 126 192 214 252 352 400
#
# _framework density 21.413681
#
# number of rings (size 3 to 8) (size 9 to 14) (size 15 to 20)
#    0.000    1.517    2.759    1.862    6.759    0.828 
#    1.241    1.379    0.000    1.655    0.000    0.000 
#    0.000    0.000    0.000    0.000    0.000    0.000 
#
# Total GULP energy -323079.882894 kJ/mol
# GULP energy per Si atom -5570.342809 kJ/mol
# Density = 2.136494 g / cm^3
# Si number density = 21.413681 Si / 1000 Ang^3
#
#
#
# Elastic Constant Matrix: (Units=GPa)
#
#
# Indices 1 2 3 4 5 6 
#
# 1 106.0289 4.0041 6.5408 0.0000 0.0000 0.0000
# 2 4.0041 71.6877 -10.4487 0.0000 0.0000 0.0000
# 3 6.5408 -10.4487 32.4653 0.0000 0.0000 0.0000
# 4 0.0000 0.0000 0.0000 21.0567 0.0000 0.0000
# 5 0.0000 0.0000 0.0000 0.0000 19.4717 0.0000
# 6 0.0000 0.0000 0.0000 0.0000 0.0000 31.7765
#
#
#
# Elastic Compliance Matrix: (Units=1/GPa)
#
#
# Indices 1 2 3 4 5 6 
#
# 1 0.009600 -0.000858 -0.002210 0.000000 0.000000 0.000000
# 2 -0.000858 0.014713 0.004908 0.000000 0.000000 0.000000
# 3 -0.002210 0.004908 0.032827 0.000000 0.000000 0.000000
# 4 0.000000 0.000000 0.000000 0.047491 0.000000 0.000000
# 5 0.000000 0.000000 0.000000 0.000000 0.051357 0.000000
# 6 0.000000 0.000000 0.000000 0.000000 0.000000 0.031470
#
#
# Mechanical properties :
#
#
# Convention : Reuss Voigt Hill
#
# Bulk Modulus (GPa) = 16.44231 23.37491 19.90861
# Shear Modulus (GPa) = 24.50360 28.46667 26.48514
#
# Velocity S-wave (km/s) = 3.38642 3.65001 3.52068
# Velocity P-wave (km/s) = 4.79432 5.35751 5.08372
#
# Compressibility (1/GPa) = 0.06081869
#
# Stress axis : x y z
#
# Youngs Moduli (GPa) = 104.16482 67.96838 30.46258
#
# Poissons Ratio (x) = 0.05834 0.06734
# Poissons Ratio (y) = 0.08941 -0.14951
# Poissons Ratio (z) = 0.23025 -0.33360
#
# Static dielectric constant tensor:
#      x y z
#    x 1.771660 0.000000 0.000000 
#    y 0.000000 1.791060 0.000000 
#    z 0.000000 0.000000 1.834210 
# 
# From -- ./inp_files/14311.got.cif
#   From: 2010.05.17/outbox.cif.g08.bks.cpg/sg74_8_cif.got.tgz:14311.got - 2010.06.03 17:57:02.
