data_PCOD9539314
_publ_section_title
;
Structure prediction by ZEFSAII (Michael W. Deem and Ramdas Pophale) SiO2 
 PCOD9539314
Probable space group: I M M A
;
_chemical_formula_sum "Si O2"
_cell_formula_units_Z 56
_cell_length_a 9.695463
_cell_length_b 11.634028
_cell_length_c 25.583750
_cell_angle_alpha 90.000000
_cell_angle_beta 90.000000
_cell_angle_gamma 90.000000
_cell_volume 2885.777617
_symmetry_space_group_name_H-M "I M M A"
_symmetry_group_IT_number 74
_symmetry_cell_setting 'orthorhombic'
loop_
_space_group_symop_operation_xyz
x,y,z
-x,1/2-y,z
x,-y,-z
-x,1/2+y,-z
-x,-y,-z
x,1/2+y,-z
-x,y,z
x,1/2-y,z
1/2+x,1/2+y,1/2+z
1/2-x,-y,1/2+z
1/2+x,1/2-y,1/2-z
1/2-x,y,1/2-z
1/2-x,1/2-y,1/2-z
1/2+x,y,1/2-z
1/2-x,1/2+y,1/2+z
1/2+x,-y,1/2+z
loop_
_atom_site_type_symbol
_atom_site_label
_atom_site_fract_x
_atom_site_fract_y
_atom_site_fract_z
Si Si1 0.664883 0.750000 0.601385
Si Si2 0.859960 0.750000 0.696807
Si Si3 0.160535 0.959174 0.559033
Si Si4 0.162931 0.385174 0.659413
Si Si5 0.750000 0.460405 0.250000
O O1 0.500000 0.750000 0.600834
O O2 0.727470 0.750000 0.659933
O O3 0.732411 0.639386 0.574137
O O4 0.859343 0.634956 0.730993
O O5 0.000000 0.750000 0.663785
O O6 0.000000 0.920166 0.562470
O O7 0.183210 0.000000 0.500000
O O8 0.176478 0.059935 0.602001
O O9 0.194200 0.250000 0.659813
O O10 0.257216 0.455763 0.700142
O O11 0.000000 0.398533 0.674683
#
# Coordination Sequence:
#
# PCOD9539314 Si02
#       5
#     8   8  16  16   8
#     4  12  25  41  66  97 136 171 207 261 328 384
#     4  11  23  41  66  94 128 166 219 266 310 380
#     4  10  22  42  70  98 125 164 218 270 317 375
#     4  10  21  38  60  91 127 163 209 264 318 382
#     4  11  21  36  60  90 131 159 206 268 328 365
#
# _framework density 19.405512999999999
#
# number of rings (size 3 to 8) (size 9 to 14) (size 15 to 20)
#    0.000    1.429    2.857    2.571    2.000    4.000 
#    0.000    0.000    0.000    1.714    0.000    0.000 
#    0.000    0.000    0.000    0.000    0.000    0.000 
#
# Total GULP energy -156033.841969 kJ/mol
# GULP energy per Si atom -5572.637213 kJ/mol
# Density = 1.936135 g / cm^3
# Si number density = 19.405513 Si / 1000 Ang^3
#
#
#
# Elastic Constant Matrix: (Units=GPa)
#
#
# Indices 1 2 3 4 5 6 
#
# 1 125.4797 68.9817 58.8445 0.0000 0.0000 0.0000
# 2 68.9817 174.1124 76.1928 0.0000 0.0000 0.0000
# 3 58.8445 76.1928 160.5779 0.0000 0.0000 0.0000
# 4 0.0000 0.0000 0.0000 -67.5364 0.0000 0.0000
# 5 0.0000 0.0000 0.0000 0.0000 -0.4956 0.0000
# 6 0.0000 0.0000 0.0000 0.0000 0.0000 -13.4939
#
#
#
# Elastic Compliance Matrix: (Units=1/GPa)
#
#
# Indices 1 2 3 4 5 6 
#
# 1 0.010906 -0.003246 -0.002456 0.000000 0.000000 0.000000
# 2 -0.003246 0.008215 -0.002708 0.000000 0.000000 0.000000
# 3 -0.002456 -0.002708 0.008413 0.000000 0.000000 0.000000
# 4 0.000000 0.000000 0.000000 -0.014807 0.000000 0.000000
# 5 0.000000 0.000000 0.000000 0.000000 -2.017699 0.000000
# 6 0.000000 0.000000 0.000000 0.000000 0.000000 -0.074108
#
#
# Mechanical properties :
#
#
# Convention : Reuss Voigt Hill
#
# Bulk Modulus (GPa) = 93.35267 96.46757 94.91012
# Shear Modulus (GPa) = -2.42873 0.77156 -0.82858
#
# Velocity S-wave (km/s) = -1.11995 0.63124 -0.65415
# Velocity P-wave (km/s) = 6.82190 7.09582 6.96021
#
# Compressibility (1/GPa) = 0.01071207
#
# Stress axis : x y z
#
# Youngs Moduli (GPa) = 91.69516 121.73520 118.86800
#
# Poissons Ratio (x) = 0.39513 0.29198
# Poissons Ratio (y) = 0.29763 0.32193
# Poissons Ratio (z) = 0.22523 0.32969
#
# Static dielectric constant tensor:
#      x y z
#    x 1.682520 0.000000 0.000000 
#    y 0.000000 1.675580 0.000000 
#    z 0.000000 0.000000 1.684140 
# 
# From -- ./inp_files/63316.got.cif
#   From: 2010.05.17/outbox.cif.g08.bks.cpg/sg74_32_cif.got.tgz:63316.got - 2010.06.03 17:57:02.
