data_PCOD9539324
_publ_section_title
;
Structure prediction by ZEFSAII (Michael W. Deem and Ramdas Pophale) SiO2 
 PCOD9539324
Probable space group: I M M A
;
_chemical_formula_sum "Si O2"
_cell_formula_units_Z 96
_cell_length_a 14.274323
_cell_length_b 19.392705
_cell_length_c 15.184984
_cell_angle_alpha 90.000000
_cell_angle_beta 90.000000
_cell_angle_gamma 90.000000
_cell_volume 4203.472877
_symmetry_space_group_name_H-M "I M M A"
_symmetry_group_IT_number 74
_symmetry_cell_setting 'orthorhombic'
loop_
_space_group_symop_operation_xyz
x,y,z
-x,1/2-y,z
x,-y,-z
-x,1/2+y,-z
-x,-y,-z
x,1/2+y,-z
-x,y,z
x,1/2-y,z
1/2+x,1/2+y,1/2+z
1/2-x,-y,1/2+z
1/2+x,1/2-y,1/2-z
1/2-x,y,1/2-z
1/2-x,1/2-y,1/2-z
1/2+x,y,1/2-z
1/2-x,1/2+y,1/2+z
1/2+x,-y,1/2+z
loop_
_atom_site_type_symbol
_atom_site_label
_atom_site_fract_x
_atom_site_fract_y
_atom_site_fract_z
Si Si1 0.605905 0.668646 0.225377
Si Si2 0.722270 0.459823 0.347820
Si Si3 0.393583 0.388819 0.092488
Si Si4 0.606539 0.914787 0.408547
Si Si5 0.108717 0.329037 0.210857
Si Si6 0.224530 0.669972 0.442251
O O1 0.500000 0.662382 0.188623
O O2 0.620670 0.750000 0.245833
O O3 0.608059 0.624611 0.314071
O O4 0.680950 0.647993 0.151877
O O5 0.750000 0.485563 0.250000
O O6 0.819843 0.451077 0.398460
O O7 0.647866 0.509768 0.392155
O O8 0.675180 0.385057 0.333579
O O9 0.500000 0.411114 0.078804
O O10 0.389468 0.347510 0.185024
O O11 0.355126 0.342224 0.014209
O O12 0.500000 0.914747 0.441046
O O13 0.683054 0.873281 0.464079
O O14 0.137737 0.250000 0.196174
O O15 0.000000 0.336696 0.182736
O O16 0.248562 0.750000 0.437102
#
# Coordination Sequence:
#
# PCOD9539324 Si02
#       6
#    16  16  16  16  16  16
#     4   9  18  34  59  89 118 151 193 241 291 345
#     4  10  21  38  61  87 117 153 194 238 288 346
#     4  10  22  39  60  87 119 153 189 237 296 354
#     4  11  23  40  60  82 114 155 200 246 291 341
#     4   9  18  35  61  91 120 151 190 236 286 343
#     4  11  22  37  59  88 121 155 193 238 291 351
#
# _framework density 22.838256999999999
#
# number of rings (size 3 to 8) (size 9 to 14) (size 15 to 20)
#    0.000    2.000    0.000    3.500    0.000    9.000 
#    0.000    5.000    0.000    1.000    0.000    0.000 
#    0.000    0.000    0.000    0.000    0.000    0.000 
#
# Total GULP energy -268671.801442 kJ/mol
# GULP energy per Si atom -5597.329197 kJ/mol
# Density = 2.278628 g / cm^3
# Si number density = 22.838257 Si / 1000 Ang^3
#
#
#
# Elastic Constant Matrix: (Units=GPa)
#
#
# Indices 1 2 3 4 5 6 
#
# 1 189.3728 55.2090 31.9670 -0.0001 0.0000 0.0000
# 2 55.2090 66.3366 15.6587 -0.0001 0.0000 0.0000
# 3 31.9670 15.6587 64.9722 0.0000 0.0000 0.0001
# 4 -0.0001 -0.0001 0.0000 -15.6488 0.0000 0.0000
# 5 0.0000 0.0000 0.0000 0.0000 27.7501 0.0000
# 6 0.0000 0.0000 0.0001 0.0000 0.0000 30.4637
#
#
#
# Elastic Compliance Matrix: (Units=1/GPa)
#
#
# Indices 1 2 3 4 5 6 
#
# 1 0.007269 -0.005519 -0.002246 0.000000 0.000000 0.000000
# 2 -0.005519 0.020175 -0.002147 0.000000 0.000000 0.000000
# 3 -0.002246 -0.002147 0.017014 0.000000 0.000000 0.000000
# 4 0.000000 0.000000 0.000000 -0.063902 0.000000 0.000000
# 5 0.000000 0.000000 0.000000 0.000000 0.036036 0.000000
# 6 0.000000 0.000000 0.000000 0.000000 0.000000 0.032826
#
#
# Mechanical properties :
#
#
# Convention : Reuss Voigt Hill
#
# Bulk Modulus (GPa) = 40.59586 58.48344 49.53965
# Shear Modulus (GPa) = 64.55605 23.03612 43.79608
#
# Velocity S-wave (km/s) = 5.32240 3.17939 4.38386
# Velocity P-wave (km/s) = 7.45551 6.25630 6.88208
#
# Compressibility (1/GPa) = 0.02463305
#
# Stress axis : x y z
#
# Youngs Moduli (GPa) = 137.57359 49.56666 58.77614
#
# Poissons Ratio (x) = 0.27357 0.13202
# Poissons Ratio (y) = 0.75931 0.12617
# Poissons Ratio (z) = 0.30901 0.10640
#
# Static dielectric constant tensor:
#      x y z
#    x 1.857310 0.000000 0.000000 
#    y 0.000000 1.818910 0.000000 
#    z 0.000000 0.000000 1.870010 
# 
# From -- ./inp_files/32371.got.cif
#   From: 2010.05.17/outbox.cif.g08.bks.cpg/sg74_17_cif.got.tgz:32371.got - 2010.06.03 17:57:02.
