data_PCOD9539775
_publ_section_title
;
Structure prediction by ZEFSAII (Michael W. Deem and Ramdas Pophale) SiO2 
 PCOD9539775
Probable space group: I M M A
;
_chemical_formula_sum "Si O2"
_cell_formula_units_Z 72
_cell_length_a 14.406414
_cell_length_b 25.091927
_cell_length_c 9.272639
_cell_angle_alpha 90.000000
_cell_angle_beta 90.000000
_cell_angle_gamma 90.000000
_cell_volume 3351.917020
_symmetry_space_group_name_H-M "I M M A"
_symmetry_group_IT_number 74
_symmetry_cell_setting 'orthorhombic'
loop_
_space_group_symop_operation_xyz
x,y,z
-x,1/2-y,z
x,-y,-z
-x,1/2+y,-z
-x,-y,-z
x,1/2+y,-z
-x,y,z
x,1/2-y,z
1/2+x,1/2+y,1/2+z
1/2-x,-y,1/2+z
1/2+x,1/2-y,1/2-z
1/2-x,y,1/2-z
1/2-x,1/2-y,1/2-z
1/2+x,y,1/2-z
1/2-x,1/2+y,1/2+z
1/2+x,-y,1/2+z
loop_
_atom_site_type_symbol
_atom_site_label
_atom_site_fract_x
_atom_site_fract_y
_atom_site_fract_z
Si Si1 0.500000 0.315543 0.030161
Si Si2 0.000000 0.982454 0.333683
Si Si3 0.691818 0.545910 0.115981
Si Si4 0.500000 0.101647 0.302131
Si Si5 0.297145 0.625938 0.594497
Si Si6 0.801309 0.188506 0.607135
O O1 0.500000 0.250000 0.061505
O O2 0.500000 0.355489 0.169143
O O3 0.404724 0.328860 0.944333
O O4 0.000000 0.039175 0.248802
O O5 0.000000 0.000000 0.500000
O O6 0.909392 0.946546 0.316066
O O7 0.750000 0.526278 0.250000
O O8 0.683714 0.500000 0.000000
O O9 0.743375 0.591055 0.025674
O O10 0.595026 0.112360 0.389165
O O11 0.250000 0.618220 0.750000
O O12 0.269318 0.682797 0.528097
O O13 0.817018 0.250000 0.641631
O O14 0.750000 0.165377 0.750000
#
# Coordination Sequence:
#
# PCOD9539775 Si02
#       6
#     8   8  16   8  16  16
#     4  10  22  41  71 102 138 184 221 271 346 418
#     4  10  22  39  62  89 123 176 218 274 338 407
#     4  11  23  40  63  92 126 173 226 282 345 405
#     4  12  24  42  67 103 138 178 230 284 345 411
#     4  12  24  41  66  97 135 177 227 285 338 406
#     4  10  23  43  68 101 138 180 228 280 339 409
#
# _framework density 21.480243999999999
#
# number of rings (size 3 to 8) (size 9 to 14) (size 15 to 20)
#    0.000    1.111    2.222    5.333    0.000    3.111 
#    0.000    3.333    0.000    0.000    0.000    0.000 
#    0.000    0.000    0.000    0.000    0.000    0.000 
#
# Total GULP energy -200590.267021 kJ/mol
# GULP energy per Si atom -5571.951862 kJ/mol
# Density = 2.143135 g / cm^3
# Si number density = 21.480244 Si / 1000 Ang^3
#
#
#
# Elastic Constant Matrix: (Units=GPa)
#
#
# Indices 1 2 3 4 5 6 
#
# 1 230.7684 32.6349 82.6293 -0.0001 0.0001 0.0000
# 2 32.6349 70.6529 27.3330 0.0000 0.0000 0.0000
# 3 82.6293 27.3330 109.6101 0.0001 0.0005 0.0000
# 4 -0.0001 0.0000 0.0001 33.7155 0.0000 0.0000
# 5 0.0001 0.0000 0.0005 0.0000 0.3071 0.0002
# 6 0.0000 0.0000 0.0000 0.0000 0.0002 34.6958
#
#
#
# Elastic Compliance Matrix: (Units=1/GPa)
#
#
# Indices 1 2 3 4 5 6 
#
# 1 0.006016 -0.001134 -0.004253 0.000000 0.000005 0.000000
# 2 -0.001134 0.015879 -0.003105 0.000000 0.000003 0.000000
# 3 -0.004253 -0.003105 0.013103 0.000000 -0.000018 0.000000
# 4 0.000000 0.000000 0.000000 0.029660 -0.000001 0.000000
# 5 0.000005 0.000003 -0.000018 -0.000001 3.256461 -0.000015
# 6 0.000000 0.000000 0.000000 0.000000 -0.000015 0.028822
#
#
# Mechanical properties :
#
#
# Convention : Reuss Voigt Hill
#
# Bulk Modulus (GPa) = 55.50740 77.35842 66.43291
# Shear Modulus (GPa) = 1.48239 31.63928 16.56084
#
# Velocity S-wave (km/s) = 0.83163 3.84206 2.77966
# Velocity P-wave (km/s) = 5.17874 7.46819 6.42625
#
# Compressibility (1/GPa) = 0.01801562
#
# Stress axis : x y z
#
# Youngs Moduli (GPa) = 166.21155 62.97797 76.31601
#
# Poissons Ratio (x) = 0.07140 0.32455
# Poissons Ratio (y) = 0.18845 0.23695
# Poissons Ratio (z) = 0.70685 0.19554
#
# Static dielectric constant tensor:
#      x y z
#    x 1.956360 0.000000 0.000000 
#    y 0.000000 2.049500 0.000000 
#    z 0.000000 0.000000 1.729900 
# 
# From -- ./inp_files/9207.got.cif
#   From: 2010.05.17/outbox.cif.g08.bks.cpg/sg74_5_cif.got.tgz:9207.got - 2010.06.03 17:57:02.
