data_PCOD9539871
_publ_section_title
;
Structure prediction by ZEFSAII (Michael W. Deem and Ramdas Pophale) SiO2 
 PCOD9539871
Probable space group: I M M A
;
_chemical_formula_sum "Si O2"
_cell_formula_units_Z 116
_cell_length_a 7.901261
_cell_length_b 26.506170
_cell_length_c 23.444037
_cell_angle_alpha 90.000000
_cell_angle_beta 90.000000
_cell_angle_gamma 90.000000
_cell_volume 4909.935479
_symmetry_space_group_name_H-M "I M M A"
_symmetry_group_IT_number 74
_symmetry_cell_setting 'orthorhombic'
loop_
_space_group_symop_operation_xyz
x,y,z
-x,1/2-y,z
x,-y,-z
-x,1/2+y,-z
-x,-y,-z
x,1/2+y,-z
-x,y,z
x,1/2-y,z
1/2+x,1/2+y,1/2+z
1/2-x,-y,1/2+z
1/2+x,1/2-y,1/2-z
1/2-x,y,1/2-z
1/2-x,1/2-y,1/2-z
1/2+x,y,1/2-z
1/2-x,1/2+y,1/2+z
1/2+x,-y,1/2+z
loop_
_atom_site_type_symbol
_atom_site_label
_atom_site_fract_x
_atom_site_fract_y
_atom_site_fract_z
Si Si1 0.307182 0.376170 0.309600
Si Si2 0.000000 0.750000 0.199989
Si Si3 0.304012 0.160714 0.964716
Si Si4 0.300858 0.063097 0.686800
Si Si5 0.191907 0.035541 0.376110
Si Si6 0.804665 0.556486 0.994928
Si Si7 0.302356 0.809352 0.913091
Si Si8 0.299474 0.824057 0.163401
O O1 0.500000 0.392138 0.305592
O O2 0.250000 0.352947 0.250000
O O3 0.202432 0.426471 0.323257
O O4 0.283820 0.337734 0.361361
O O5 0.846809 0.706351 0.196064
O O6 0.500000 0.175640 0.965982
O O7 0.286997 0.100325 0.970745
O O8 0.226717 0.180286 0.023946
O O9 0.245326 0.180374 0.903640
O O10 0.500000 0.072738 0.684304
O O11 0.250000 0.045101 0.750000
O O12 0.209011 0.116373 0.676613
O O13 0.257711 0.019182 0.641895
O O14 0.293548 0.063122 0.426790
O O15 0.000000 0.031334 0.395569
O O16 0.000000 0.556640 0.013601
O O17 0.735133 0.500000 0.000000
O O18 0.500000 0.826865 0.913851
O O19 0.300112 0.750000 0.903639
O O20 0.500000 0.808254 0.170872
#
# Coordination Sequence:
#
# PCOD9539871 Si02
#       8
#    16   4  16  16  16  16  16  16
#     4  12  25  43  65  93 129 171 223 281 337 401
#     4  12  26  48  74 110 140 192 234 304 346 434
#     4  10  22  40  66  98 136 180 224 283 342 411
#     4  12  25  46  73 104 142 182 233 290 350 424
#     4  12  24  41  65  98 135 181 227 277 343 413
#     4  11  23  37  59  93 137 178 223 274 333 405
#     4  10  22  42  66  95 129 173 221 277 339 401
#     4  11  25  47  74 107 145 186 237 291 359 422
#
# _framework density 23.625565999999999
#
# number of rings (size 3 to 8) (size 9 to 14) (size 15 to 20)
#    0.000    0.828    2.069    5.586    1.931    3.862 
#    0.000    0.345    0.000    0.000    0.000    0.000 
#    0.000    0.000    0.000    0.000    0.000    0.000 
#
# Total GULP energy -324030.154344 kJ/mol
# GULP energy per Si atom -5586.726799 kJ/mol
# Density = 2.357179 g / cm^3
# Si number density = 23.625566 Si / 1000 Ang^3
#
#
#
# Elastic Constant Matrix: (Units=GPa)
#
#
# Indices 1 2 3 4 5 6 
#
# 1 117.9323 19.4600 19.5206 0.0000 0.0000 0.0000
# 2 19.4600 70.4621 14.4370 0.0000 0.0000 0.0000
# 3 19.5206 14.4370 101.2244 -0.0001 0.0000 0.0000
# 4 0.0000 0.0000 -0.0001 0.1304 0.0000 0.0000
# 5 0.0000 0.0000 0.0000 0.0000 19.3576 0.0000
# 6 0.0000 0.0000 0.0000 0.0000 0.0000 23.3509
#
#
#
# Elastic Compliance Matrix: (Units=1/GPa)
#
#
# Indices 1 2 3 4 5 6 
#
# 1 0.009082 -0.002214 -0.001436 -0.000001 0.000000 0.000000
# 2 -0.002214 0.015159 -0.001735 0.000001 0.000000 0.000000
# 3 -0.001436 -0.001735 0.010403 0.000005 0.000000 0.000000
# 4 -0.000001 0.000001 0.000005 7.666019 0.000000 -0.000001
# 5 0.000000 0.000000 0.000000 0.000000 0.051659 0.000000
# 6 0.000000 0.000000 0.000000 -0.000001 0.000000 0.042825
#
#
# Mechanical properties :
#
#
# Convention : Reuss Voigt Hill
#
# Bulk Modulus (GPa) = 41.88489 44.05043 42.96766
# Shear Modulus (GPa) = 0.63989 24.31453 12.47721
#
# Velocity S-wave (km/s) = 0.52099 3.21154 2.30059
# Velocity P-wave (km/s) = 4.25782 5.69541 5.02825
#
# Compressibility (1/GPa) = 0.02387496
#
# Stress axis : x y z
#
# Youngs Moduli (GPa) = 110.10244 65.96729 96.12269
#
# Poissons Ratio (x) = 0.14606 0.13800
# Poissons Ratio (y) = 0.24379 0.16678
# Poissons Ratio (z) = 0.15807 0.11446
#
# Static dielectric constant tensor:
#      x y z
#    x 1.860880 0.000000 0.000000 
#    y 0.000000 1.870500 0.000000 
#    z 0.000000 0.000000 1.984970 
# 
# From -- ./inp_files/57718.got.cif
#   From: 2010.05.17/outbox.cif.g08.bks.cpg/sg74_29_cif.got.tgz:57718.got - 2010.06.03 17:57:02.
