data_PCOD9539097
_publ_section_title
;
Structure prediction by ZEFSAII (Michael W. Deem and Ramdas Pophale) SiO2 
 PCOD9539097
Probable space group: I M M A
;
_chemical_formula_sum "Si O2"
_cell_formula_units_Z 96
_cell_length_a 29.194938
_cell_length_b 8.954661
_cell_length_c 20.548806
_cell_angle_alpha 90.000000
_cell_angle_beta 90.000000
_cell_angle_gamma 90.000000
_cell_volume 5372.090231
_symmetry_space_group_name_H-M "I M M A"
_symmetry_group_IT_number 74
_symmetry_cell_setting 'orthorhombic'
loop_
_space_group_symop_operation_xyz
x,y,z
-x,1/2-y,z
x,-y,-z
-x,1/2+y,-z
-x,-y,-z
x,1/2+y,-z
-x,y,z
x,1/2-y,z
1/2+x,1/2+y,1/2+z
1/2-x,-y,1/2+z
1/2+x,1/2-y,1/2-z
1/2-x,y,1/2-z
1/2-x,1/2-y,1/2-z
1/2+x,y,1/2-z
1/2-x,1/2+y,1/2+z
1/2+x,-y,1/2+z
loop_
_atom_site_type_symbol
_atom_site_label
_atom_site_fract_x
_atom_site_fract_y
_atom_site_fract_z
Si Si1 0.554341 0.583358 0.936772
Si Si2 0.688921 0.930109 0.807094
Si Si3 0.126783 0.069294 0.071603
Si Si4 0.212986 0.569900 0.842876
Si Si5 0.554017 0.069723 0.670118
Si Si6 0.908547 0.928039 0.312864
O O1 0.500000 0.596497 0.946731
O O2 0.573744 0.750000 0.930452
O O3 0.561673 0.492441 0.871198
O O4 0.573794 0.500000 0.000000
O O5 0.684584 0.750000 0.812242
O O6 0.734064 0.979179 0.847136
O O7 0.697664 0.965501 0.730822
O O8 0.642144 0.009272 0.824685
O O9 0.125798 0.250000 0.068858
O O10 0.174560 0.019736 0.106300
O O11 0.085329 0.010585 0.116595
O O12 0.123618 0.000000 0.000000
O O13 0.213992 0.750000 0.846812
O O14 0.500000 0.034488 0.664232
O O15 0.558882 0.250000 0.663774
O O16 0.572361 0.026207 0.741932
O O17 0.908703 0.750000 0.314477
#
# Coordination Sequence:
#
# PCOD9539097 Si02
#       6
#    16  16  16  16  16  16
#     4  10  21  37  57  80 108 146 189 229 274 332
#     4   9  16  32  57  82 108 141 182 226 272 327
#     4  11  22  38  59  83 111 147 189 235 289 346
#     4   8  16  32  56  81 106 140 182 226 275 327
#     4  10  22  39  57  80 112 149 191 239 286 333
#     4  11  21  34  55  86 119 150 183 229 284 333
#
# _framework density 17.870138000000001
#
# number of rings (size 3 to 8) (size 9 to 14) (size 15 to 20)
#    0.000    2.167    1.667    3.000    0.000    3.000 
#    0.000    4.167    0.000    2.000    0.000    0.000 
#    0.000    0.000    0.000    0.000    0.000    0.000 
#
# Total GULP energy -267652.891654 kJ/mol
# GULP energy per Si atom -5576.101909 kJ/mol
# Density = 1.782947 g / cm^3
# Si number density = 17.870138 Si / 1000 Ang^3
#
#
#
# Elastic Constant Matrix: (Units=GPa)
#
#
# Indices 1 2 3 4 5 6 
#
# 1 106.5197 39.7276 57.8809 0.0000 0.0000 0.0000
# 2 39.7276 52.0800 45.7743 0.0000 0.0000 0.0000
# 3 57.8809 45.7743 126.0807 0.0000 0.0000 0.0000
# 4 0.0000 0.0000 0.0000 13.7406 0.0000 0.0000
# 5 0.0000 0.0000 0.0000 0.0000 21.7058 0.0000
# 6 0.0000 0.0000 0.0000 0.0000 0.0000 21.9769
#
#
#
# Elastic Compliance Matrix: (Units=1/GPa)
#
#
# Indices 1 2 3 4 5 6 
#
# 1 0.014271 -0.007531 -0.003817 0.000000 0.000000 0.000000
# 2 -0.007531 0.032174 -0.008224 0.000000 0.000000 0.000000
# 3 -0.003817 -0.008224 0.012669 0.000000 0.000000 0.000000
# 4 0.000000 0.000000 0.000000 0.072777 0.000000 0.000000
# 5 0.000000 0.000000 0.000000 0.000000 0.046071 0.000000
# 6 0.000000 0.000000 0.000000 0.000000 0.000000 0.045502
#
#
# Mechanical properties :
#
#
# Convention : Reuss Voigt Hill
#
# Bulk Modulus (GPa) = 50.07376 63.49399 56.78388
# Shear Modulus (GPa) = 18.56905 20.90450 19.73677
#
# Velocity S-wave (km/s) = 3.22702 3.42395 3.32694
# Velocity P-wave (km/s) = 6.47817 7.15815 6.82663
#
# Compressibility (1/GPa) = 0.01997054
#
# Stress axis : x y z
#
# Youngs Moduli (GPa) = 70.07227 31.08101 78.92983
#
# Poissons Ratio (x) = 0.23407 0.30130
# Poissons Ratio (y) = 0.52772 0.64909
# Poissons Ratio (z) = 0.26749 0.25560
#
# Static dielectric constant tensor:
#      x y z
#    x 1.632770 0.000000 0.000000 
#    y 0.000000 1.611320 0.000000 
#    z 0.000000 0.000000 1.596470 
# 
# From -- ./inp_files/55087.got.cif
#   From: 2010.05.17/outbox.cif.g08.bks.cpg/sg74_28_cif.got.tgz:55087.got - 2010.06.03 17:57:02.
