data_PCOD9539563
_publ_section_title
;
Structure prediction by ZEFSAII (Michael W. Deem and Ramdas Pophale) SiO2 
 PCOD9539563
Probable space group: I M M A
;
_chemical_formula_sum "Si O2"
_cell_formula_units_Z 24
_cell_length_a 17.510695
_cell_length_b 10.554024
_cell_length_c 5.101742
_cell_angle_alpha 90.000000
_cell_angle_beta 90.000000
_cell_angle_gamma 90.000000
_cell_volume 942.844242
_symmetry_space_group_name_H-M "I M M A"
_symmetry_group_IT_number 74
_symmetry_cell_setting 'orthorhombic'
loop_
_space_group_symop_operation_xyz
x,y,z
-x,1/2-y,z
x,-y,-z
-x,1/2+y,-z
-x,-y,-z
x,1/2+y,-z
-x,y,z
x,1/2-y,z
1/2+x,1/2+y,1/2+z
1/2-x,-y,1/2+z
1/2+x,1/2-y,1/2-z
1/2-x,y,1/2-z
1/2-x,1/2-y,1/2-z
1/2+x,y,1/2-z
1/2-x,1/2+y,1/2+z
1/2+x,-y,1/2+z
loop_
_atom_site_type_symbol
_atom_site_label
_atom_site_fract_x
_atom_site_fract_y
_atom_site_fract_z
Si Si1 0.195617 0.250000 0.003872
Si Si2 0.911187 0.107106 0.697008
O O1 0.250000 0.250000 0.750000
O O2 0.138827 0.367885 0.955941
O O3 0.250000 0.250000 0.250000
O O4 0.909101 0.250000 0.570871
O O5 0.000000 0.081775 0.755123
O O6 0.882540 0.000000 0.500000
#
# Coordination Sequence:
#
# PCOD9539563 Si02
#       2
#     8  16
#     4  10  21  40  67 102 152 206 249 308 386 480
#     4   8  16  36  70 109 149 197 257 324 397 470
#
# _framework density 25.454896000000002
#
# number of rings (size 3 to 8) (size 9 to 14) (size 15 to 20)
#    2.000    1.333    0.000    0.000    0.000    0.000 
#    0.000   13.333    0.000   10.000    0.000    0.000 
#    0.000   32.000    0.000    0.000    0.000    0.000 
#
# Total GULP energy -66976.353819 kJ/mol
# GULP energy per Si atom -5581.362818 kJ/mol
# Density = 2.539696 g / cm^3
# Si number density = 25.454896 Si / 1000 Ang^3
#
#
#
# Elastic Constant Matrix: (Units=GPa)
#
#
# Indices 1 2 3 4 5 6 
#
# 1 147.7206 6.6869 89.2719 0.0000 0.0000 0.0000
# 2 6.6869 176.9948 82.8387 0.0000 0.0000 0.0000
# 3 89.2719 82.8387 203.8699 0.0000 0.0000 0.0000
# 4 0.0000 0.0000 0.0000 53.2462 0.0000 0.0000
# 5 0.0000 0.0000 0.0000 0.0000 52.9444 0.0000
# 6 0.0000 0.0000 0.0000 0.0000 0.0000 0.5833
#
#
#
# Elastic Compliance Matrix: (Units=1/GPa)
#
#
# Indices 1 2 3 4 5 6 
#
# 1 0.009754 0.002013 -0.005089 0.000000 0.000000 0.000000
# 2 0.002013 0.007392 -0.003885 0.000000 0.000000 0.000000
# 3 -0.005089 -0.003885 0.008712 0.000000 0.000000 0.000000
# 4 0.000000 0.000000 0.000000 0.018781 0.000000 0.000000
# 5 0.000000 0.000000 0.000000 0.000000 0.018888 0.000000
# 6 0.000000 0.000000 0.000000 0.000000 0.000000 1.714246
#
#
# Mechanical properties :
#
#
# Convention : Reuss Voigt Hill
#
# Bulk Modulus (GPa) = 83.77872 98.46448 91.12160
# Shear Modulus (GPa) = 2.78447 44.67397 23.72922
#
# Velocity S-wave (km/s) = 1.04702 4.19385 3.05652
# Velocity P-wave (km/s) = 5.86905 7.88778 6.95208
#
# Compressibility (1/GPa) = 0.01193621
#
# Stress axis : x y z
#
# Youngs Moduli (GPa) = 102.52231 135.27633 114.77969
#
# Poissons Ratio (x) = -0.27237 0.58414
# Poissons Ratio (y) = -0.20642 0.44596
# Poissons Ratio (z) = 0.52176 0.52560
#
# Static dielectric constant tensor:
#      x y z
#    x 2.017620 0.000000 0.000000 
#    y 0.000000 2.286420 0.000000 
#    z 0.000000 0.000000 2.056860 
# 
# From -- ./inp_files/309.got.cif
#   From: 2010.05.17/outbox.cif.g08.bks.cpg/sg74_1_cif.got.tgz:309.got - 2010.06.03 17:57:02.
