data_PCOD9539685
_publ_section_title
;
Structure prediction by ZEFSAII (Michael W. Deem and Ramdas Pophale) SiO2 
 PCOD9539685
Probable space group: I M M A
;
_chemical_formula_sum "Si O2"
_cell_formula_units_Z 64
_cell_length_a 17.889520
_cell_length_b 10.914624
_cell_length_c 15.589450
_cell_angle_alpha 90.000000
_cell_angle_beta 90.000000
_cell_angle_gamma 90.000000
_cell_volume 3043.955230
_symmetry_space_group_name_H-M "I M M A"
_symmetry_group_IT_number 74
_symmetry_cell_setting 'orthorhombic'
loop_
_space_group_symop_operation_xyz
x,y,z
-x,1/2-y,z
x,-y,-z
-x,1/2+y,-z
-x,-y,-z
x,1/2+y,-z
-x,y,z
x,1/2-y,z
1/2+x,1/2+y,1/2+z
1/2-x,-y,1/2+z
1/2+x,1/2-y,1/2-z
1/2-x,y,1/2-z
1/2-x,1/2-y,1/2-z
1/2+x,y,1/2-z
1/2-x,1/2+y,1/2+z
1/2+x,-y,1/2+z
loop_
_atom_site_type_symbol
_atom_site_label
_atom_site_fract_x
_atom_site_fract_y
_atom_site_fract_z
Si Si1 0.354542 0.992202 0.408835
Si Si2 0.917036 0.980082 0.281897
Si Si3 0.871464 0.750000 0.692158
Si Si4 0.285991 0.250000 0.372263
Si Si5 0.307005 0.107890 0.929155
O O1 0.281778 0.904875 0.410251
O O2 0.397657 0.000000 0.500000
O O3 0.397666 0.972008 0.319727
O O4 0.316688 0.125834 0.409411
O O5 0.915861 0.124256 0.307034
O O6 0.000000 0.929627 0.297357
O O7 0.854124 0.922141 0.342963
O O8 0.802972 0.750000 0.626536
O O9 0.823330 0.750000 0.779106
O O10 0.323295 0.250000 0.950908
O O11 0.324596 0.000000 0.000000
#
# Coordination Sequence:
#
# PCOD9539685 Si02
#       5
#    16  16   8   8  16
#     4  10  22  37  65  97 130 169 214 266 316 382
#     4  11  23  40  63  94 135 176 214 261 320 388
#     4   9  17  34  62  92 123 167 214 262 310 368
#     4   9  16  34  60  92 124 158 215 269 307 361
#     4  11  26  44  69  98 125 164 218 275 330 387
#
# _framework density 21.025276999999999
#
# number of rings (size 3 to 8) (size 9 to 14) (size 15 to 20)
#    0.000    1.750    2.500    1.125    8.750    3.500 
#    0.000    0.000    0.000    0.000    0.000    0.000 
#    0.000    0.000    0.000    0.000    0.000    0.000 
#
# Total GULP energy -178289.248109 kJ/mol
# GULP energy per Si atom -5571.539003 kJ/mol
# Density = 2.097742 g / cm^3
# Si number density = 21.025277 Si / 1000 Ang^3
#
#
#
# Elastic Constant Matrix: (Units=GPa)
#
#
# Indices 1 2 3 4 5 6 
#
# 1 57.8711 1.6069 4.8029 0.0000 0.0000 0.0000
# 2 1.6069 110.1948 34.4634 0.0000 0.0000 0.0000
# 3 4.8029 34.4634 87.7408 0.0000 0.0000 0.0000
# 4 0.0000 0.0000 0.0000 38.3760 0.0000 0.0000
# 5 0.0000 0.0000 0.0000 0.0000 7.0373 0.0000
# 6 0.0000 0.0000 0.0000 0.0000 0.0000 -1.6951
#
#
#
# Elastic Compliance Matrix: (Units=1/GPa)
#
#
# Indices 1 2 3 4 5 6 
#
# 1 0.017359 0.000050 -0.000970 0.000000 0.000000 0.000000
# 2 0.000050 0.010346 -0.004066 0.000000 0.000000 0.000000
# 3 -0.000970 -0.004066 0.013048 0.000000 0.000000 0.000000
# 4 0.000000 0.000000 0.000000 0.026058 0.000000 0.000000
# 5 0.000000 0.000000 0.000000 0.000000 0.142100 0.000000
# 6 0.000000 0.000000 0.000000 0.000000 0.000000 -0.589939
#
#
# Mechanical properties :
#
#
# Convention : Reuss Voigt Hill
#
# Bulk Modulus (GPa) = 32.48868 37.50589 34.99729
# Shear Modulus (GPa) = -13.85824 23.07254 4.60715
#
# Velocity S-wave (km/s) = -2.57012 3.31625 1.48189
# Velocity P-wave (km/s) = 2.58425 5.70444 4.42826
#
# Compressibility (1/GPa) = 0.03077995
#
# Stress axis : x y z
#
# Youngs Moduli (GPa) = 57.60734 96.65664 76.64266
#
# Poissons Ratio (x) = -0.00485 0.07434
# Poissons Ratio (y) = -0.00289 0.31167
# Poissons Ratio (z) = 0.05588 0.39305
#
# Static dielectric constant tensor:
#      x y z
#    x 1.711230 0.000000 0.000000 
#    y 0.000000 1.788630 0.000000 
#    z 0.000000 0.000000 1.886450 
# 
# From -- ./inp_files/33613.got.cif
#   From: 2010.05.17/outbox.cif.g08.bks.cpg/sg74_17_cif.got.tgz:33613.got - 2010.06.03 17:57:02.
