data_PCOD9539460
_publ_section_title
;
Structure prediction by ZEFSAII (Michael W. Deem and Ramdas Pophale) SiO2 
 PCOD9539460
Probable space group: I M M A
;
_chemical_formula_sum "Si O2"
_cell_formula_units_Z 112
_cell_length_a 14.461637
_cell_length_b 13.961364
_cell_length_c 25.406459
_cell_angle_alpha 90.000000
_cell_angle_beta 90.000000
_cell_angle_gamma 90.000000
_cell_volume 5129.670225
_symmetry_space_group_name_H-M "I M M A"
_symmetry_group_IT_number 74
_symmetry_cell_setting 'orthorhombic'
loop_
_space_group_symop_operation_xyz
x,y,z
-x,1/2-y,z
x,-y,-z
-x,1/2+y,-z
-x,-y,-z
x,1/2+y,-z
-x,y,z
x,1/2-y,z
1/2+x,1/2+y,1/2+z
1/2-x,-y,1/2+z
1/2+x,1/2-y,1/2-z
1/2-x,y,1/2-z
1/2-x,1/2-y,1/2-z
1/2+x,y,1/2-z
1/2-x,1/2+y,1/2+z
1/2+x,-y,1/2+z
loop_
_atom_site_type_symbol
_atom_site_label
_atom_site_fract_x
_atom_site_fract_y
_atom_site_fract_z
Si Si1 0.700665 0.139932 0.066722
Si Si2 0.893881 0.365314 0.541429
Si Si3 0.295820 0.361805 0.846825
Si Si4 0.103163 0.460108 0.838472
Si Si5 0.102478 0.041928 0.337290
Si Si6 0.601461 0.935190 0.551504
Si Si7 0.642521 0.356897 0.265542
O O1 0.674255 0.250000 0.075376
O O2 0.669783 0.082256 0.117990
O O3 0.809922 0.131520 0.057452
O O4 0.649642 0.103477 0.014082
O O5 0.898391 0.250000 0.537988
O O6 0.828172 0.381342 0.592239
O O7 0.000000 0.398973 0.547767
O O8 0.313975 0.250000 0.835923
O O9 0.189682 0.388385 0.834528
O O10 0.357791 0.440510 0.816689
O O11 0.102150 0.494119 0.898812
O O12 0.121043 0.557695 0.805637
O O13 0.000000 0.423470 0.824719
O O14 0.097519 0.115941 0.289733
O O15 0.000000 0.028879 0.358974
O O16 0.500000 0.887587 0.549808
O O17 0.611997 0.000000 0.500000
O O18 0.617934 0.250000 0.284575
O O19 0.750000 0.357554 0.250000
#
# Coordination Sequence:
#
# PCOD9539460 Si02
#       7
#    16  16  16  16  16  16  16
#     4  11  22  37  61  96 137 176 220 273 331 395
#     4   9  19  36  60  91 127 171 217 263 323 392
#     4  11  23  43  66  91 128 169 218 275 329 385
#     4  11  23  42  67  96 127 166 220 270 326 393
#     4  12  25  41  65  99 135 174 221 268 327 397
#     4  10  21  39  63  89 127 173 220 272 325 384
#     4  11  23  44  72  99 135 177 215 264 328 394
#
# _framework density 21.833762
#
# number of rings (size 3 to 8) (size 9 to 14) (size 15 to 20)
#    0.000    1.286    2.857    2.571    0.000    5.714 
#    0.000    4.286    0.000    6.857    0.000    0.000 
#    0.000    0.000    0.000    0.000    0.000    0.000 
#
# Total GULP energy -312890.783719 kJ/mol
# GULP energy per Si atom -5587.335424 kJ/mol
# Density = 2.178407 g / cm^3
# Si number density = 21.833762 Si / 1000 Ang^3
#
#
#
# Elastic Constant Matrix: (Units=GPa)
#
#
# Indices 1 2 3 4 5 6 
#
# 1 155.0900 31.8863 25.2325 0.0000 0.0000 0.0000
# 2 31.8863 101.9707 18.8952 0.0000 0.0000 0.0000
# 3 25.2325 18.8952 32.8277 0.0000 0.0000 0.0000
# 4 0.0000 0.0000 0.0000 17.5379 0.0000 0.0000
# 5 0.0000 0.0000 0.0000 0.0000 33.7470 0.0000
# 6 0.0000 0.0000 0.0000 0.0000 0.0000 -31.9367
#
#
#
# Elastic Compliance Matrix: (Units=1/GPa)
#
#
# Indices 1 2 3 4 5 6 
#
# 1 0.007554 -0.001440 -0.004977 0.000000 0.000000 0.000000
# 2 -0.001440 0.011252 -0.005370 0.000000 0.000000 0.000000
# 3 -0.004977 -0.005370 0.037379 0.000000 0.000000 0.000000
# 4 0.000000 0.000000 0.000000 0.057020 0.000000 0.000000
# 5 0.000000 0.000000 0.000000 0.000000 0.029632 0.000000
# 6 0.000000 0.000000 0.000000 0.000000 0.000000 -0.031312
#
#
# Mechanical properties :
#
#
# Convention : Reuss Voigt Hill
#
# Bulk Modulus (GPa) = 30.66500 49.10184 39.88342
# Shear Modulus (GPa) = 34.25402 18.12792 26.19097
#
# Velocity S-wave (km/s) = 3.96518 2.88457 3.46723
# Velocity P-wave (km/s) = 5.91935 5.79932 5.85964
#
# Compressibility (1/GPa) = 0.03261046
#
# Stress axis : x y z
#
# Youngs Moduli (GPa) = 132.38604 88.87318 26.75321
#
# Poissons Ratio (x) = 0.12795 0.13316
# Poissons Ratio (y) = 0.19060 0.14366
# Poissons Ratio (z) = 0.65893 0.47724
#
# Static dielectric constant tensor:
#      x y z
#    x 2.652020 0.000000 0.000000 
#    y 0.000000 1.802200 0.000000 
#    z 0.000000 0.000000 1.792380 
# 
# From -- ./inp_files/60165.got.cif
#   From: 2010.05.17/outbox.cif.g08.bks.cpg/sg74_31_cif.got.tgz:60165.got - 2010.06.03 17:57:02.
