data_PCOD9539053
_publ_section_title
;
Structure prediction by ZEFSAII (Michael W. Deem and Ramdas Pophale) SiO2 
 PCOD9539053
Probable space group: I M M A
;
_chemical_formula_sum "Si O2"
_cell_formula_units_Z 72
_cell_length_a 21.728206
_cell_length_b 9.218224
_cell_length_c 19.641913
_cell_angle_alpha 90.000000
_cell_angle_beta 90.000000
_cell_angle_gamma 90.000000
_cell_volume 3934.186197
_symmetry_space_group_name_H-M "I M M A"
_symmetry_group_IT_number 74
_symmetry_cell_setting 'orthorhombic'
loop_
_space_group_symop_operation_xyz
x,y,z
-x,1/2-y,z
x,-y,-z
-x,1/2+y,-z
-x,-y,-z
x,1/2+y,-z
-x,y,z
x,1/2-y,z
1/2+x,1/2+y,1/2+z
1/2-x,-y,1/2+z
1/2+x,1/2-y,1/2-z
1/2-x,y,1/2-z
1/2-x,1/2-y,1/2-z
1/2+x,y,1/2-z
1/2-x,1/2+y,1/2+z
1/2+x,-y,1/2+z
loop_
_atom_site_type_symbol
_atom_site_label
_atom_site_fract_x
_atom_site_fract_y
_atom_site_fract_z
Si Si1 0.253875 0.086168 0.332394
Si Si2 0.000000 0.924503 0.573574
Si Si3 0.427658 0.912500 0.563244
Si Si4 0.883877 0.575761 0.669473
Si Si5 0.124536 0.077753 0.815060
O O1 0.268985 0.250000 0.355575
O O2 0.250000 0.093127 0.250000
O O3 0.185492 0.046910 0.357685
O O4 0.308418 0.973188 0.342919
O O5 0.939025 0.961466 0.618028
O O6 0.000000 0.750000 0.564485
O O7 0.000000 0.000000 0.500000
O O8 0.500000 0.897139 0.549614
O O9 0.402166 0.750000 0.570617
O O10 0.399460 0.000000 0.500000
O O11 0.420648 0.005031 0.631173
O O12 0.886841 0.750000 0.682931
O O13 0.887800 0.491072 0.740854
O O14 0.120170 0.250000 0.812227
#
# Coordination Sequence:
#
# PCOD9539053 Si02
#       5
#    16   8  16  16  16
#     4   8  15  31  53  76 106 142 180 224 274 322
#     4  10  22  40  60  82 111 144 183 230 284 336
#     4  10  21  37  55  75 106 145 180 217 264 317
#     4   9  19  36  57  80 107 144 185 226 274 328
#     4  11  21  32  53  84 114 141 180 228 271 322
#
# _framework density 18.301116
#
# number of rings (size 3 to 8) (size 9 to 14) (size 15 to 20)
#    0.000    2.444    0.000    4.000    1.556    6.222 
#    0.000    1.111    0.000    2.667    0.000    0.000 
#    0.000    0.000    0.000    0.000    0.000    0.000 
#
# Total GULP energy -200559.149298 kJ/mol
# GULP energy per Si atom -5571.087480 kJ/mol
# Density = 1.825946 g / cm^3
# Si number density = 18.301116 Si / 1000 Ang^3
#
#
#
# Elastic Constant Matrix: (Units=GPa)
#
#
# Indices 1 2 3 4 5 6 
#
# 1 98.8649 34.2667 43.1127 0.0000 0.0000 0.0000
# 2 34.2667 112.8034 56.1613 0.0000 0.0000 0.0000
# 3 43.1127 56.1613 86.2181 0.0000 0.0000 0.0000
# 4 0.0000 0.0000 0.0000 -62.1442 0.0000 0.0000
# 5 0.0000 0.0000 0.0000 0.0000 -8.2620 0.0000
# 6 0.0000 0.0000 0.0000 0.0000 0.0000 10.8031
#
#
#
# Elastic Compliance Matrix: (Units=1/GPa)
#
#
# Indices 1 2 3 4 5 6 
#
# 1 0.013020 -0.001056 -0.005822 0.000000 0.000000 0.000000
# 2 -0.001056 0.013206 -0.008074 0.000000 0.000000 0.000000
# 3 -0.005822 -0.008074 0.019769 0.000000 0.000000 0.000000
# 4 0.000000 0.000000 0.000000 -0.016092 0.000000 0.000000
# 5 0.000000 0.000000 0.000000 0.000000 -0.121036 0.000000
# 6 0.000000 0.000000 0.000000 0.000000 0.000000 0.092566
#
#
# Mechanical properties :
#
#
# Convention : Reuss Voigt Hill
#
# Bulk Modulus (GPa) = 62.15192 62.77422 62.46307
# Shear Modulus (GPa) = 136.23509 -0.96424 67.63543
#
# Velocity S-wave (km/s) = 8.63727 -0.72665 6.08582
# Velocity P-wave (km/s) = 11.55441 5.80269 9.14264
#
# Compressibility (1/GPa) = 0.01608961
#
# Stress axis : x y z
#
# Youngs Moduli (GPa) = 76.80502 75.72600 50.58403
#
# Poissons Ratio (x) = 0.07999 0.29452
# Poissons Ratio (y) = 0.08113 0.40840
# Poissons Ratio (z) = 0.44720 0.61139
#
# Static dielectric constant tensor:
#      x y z
#    x 1.697170 0.000000 0.000000 
#    y 0.000000 1.635000 0.000000 
#    z 0.000000 0.000000 1.605830 
# 
# From -- ./inp_files/45800.got.cif
#   From: 2010.05.17/outbox.cif.g08.bks.cpg/sg74_23_cif.got.tgz:45800.got - 2010.06.03 17:57:02.
