data_PCOD9539233
_publ_section_title
;
Structure prediction by ZEFSAII (Michael W. Deem and Ramdas Pophale) SiO2 
 PCOD9539233
Probable space group: I M M A
;
_chemical_formula_sum "Si O2"
_cell_formula_units_Z 64
_cell_length_a 18.565092
_cell_length_b 25.872201
_cell_length_c 7.494584
_cell_angle_alpha 90.000000
_cell_angle_beta 90.000000
_cell_angle_gamma 90.000000
_cell_volume 3599.797027
_symmetry_space_group_name_H-M "I M M A"
_symmetry_group_IT_number 74
_symmetry_cell_setting 'orthorhombic'
loop_
_space_group_symop_operation_xyz
x,y,z
-x,1/2-y,z
x,-y,-z
-x,1/2+y,-z
-x,-y,-z
x,1/2+y,-z
-x,y,z
x,1/2-y,z
1/2+x,1/2+y,1/2+z
1/2-x,-y,1/2+z
1/2+x,1/2-y,1/2-z
1/2-x,y,1/2-z
1/2-x,1/2-y,1/2-z
1/2+x,y,1/2-z
1/2-x,1/2+y,1/2+z
1/2+x,-y,1/2+z
loop_
_atom_site_type_symbol
_atom_site_label
_atom_site_fract_x
_atom_site_fract_y
_atom_site_fract_z
Si Si1 0.347366 0.691200 0.427252
Si Si2 0.811165 0.659545 0.471331
Si Si3 0.584356 0.868307 0.735360
Si Si4 0.815891 0.950066 0.615491
O O1 0.372722 0.750000 0.443216
O O2 0.265118 0.687034 0.499279
O O3 0.341190 0.675371 0.220365
O O4 0.395805 0.652475 0.540808
O O5 0.870112 0.667230 0.625719
O O6 0.794993 0.598041 0.486318
O O7 0.500000 0.866995 0.769019
O O8 0.618144 0.924964 0.773350
O O9 0.750000 0.960061 0.750000
O O10 0.833530 0.000000 0.500000
#
# Coordination Sequence:
#
# PCOD9539233 Si02
#       4
#    16  16  16  16
#     4  11  21  37  63  88 115 157 210 258 298 351
#     4   9  20  39  58  89 116 155 203 255 301 349
#     4  10  22  40  57  86 129 161 193 243 301 367
#     4  10  21  37  64  90 116 155 201 252 299 354
#
# _framework density 17.778780000000001
#
# number of rings (size 3 to 8) (size 9 to 14) (size 15 to 20)
#    1.500    0.500    2.500    2.250    3.500    5.000 
#    0.000    0.000    0.000    2.250    0.000    0.000 
#    0.000    0.000    0.000    0.000    0.000    0.000 
#
# Total GULP energy -178162.026942 kJ/mol
# GULP energy per Si atom -5567.563342 kJ/mol
# Density = 1.773831 g / cm^3
# Si number density = 17.778780 Si / 1000 Ang^3
#
#
#
# Elastic Constant Matrix: (Units=GPa)
#
#
# Indices 1 2 3 4 5 6 
#
# 1 59.1913 -13.6113 26.3168 0.0000 0.0000 0.0000
# 2 -13.6113 92.2257 20.0774 0.0000 0.0000 0.0000
# 3 26.3168 20.0774 52.1446 0.0000 0.0000 0.0000
# 4 0.0000 0.0000 0.0000 42.1053 0.0000 0.0000
# 5 0.0000 0.0000 0.0000 0.0000 13.4831 0.0000
# 6 0.0000 0.0000 0.0000 0.0000 0.0000 3.4401
#
#
#
# Elastic Compliance Matrix: (Units=1/GPa)
#
#
# Indices 1 2 3 4 5 6 
#
# 1 0.025486 0.007162 -0.015620 0.000000 0.000000 0.000000
# 2 0.007162 0.013848 -0.008946 0.000000 0.000000 0.000000
# 3 -0.015620 -0.008946 0.030505 0.000000 0.000000 0.000000
# 4 0.000000 0.000000 0.000000 0.023750 0.000000 0.000000
# 5 0.000000 0.000000 0.000000 0.000000 0.074167 0.000000
# 6 0.000000 0.000000 0.000000 0.000000 0.000000 0.290690
#
#
# Mechanical properties :
#
#
# Convention : Reuss Voigt Hill
#
# Bulk Modulus (GPa) = 28.54698 29.90304 29.22501
# Shear Modulus (GPa) = 9.90233 23.19095 16.54664
#
# Velocity S-wave (km/s) = 2.36259 3.61559 3.05404
# Velocity P-wave (km/s) = 4.85119 5.85543 5.37681
#
# Compressibility (1/GPa) = 0.03502997
#
# Stress axis : x y z
#
# Youngs Moduli (GPa) = 39.23708 72.21487 32.78109
#
# Poissons Ratio (x) = -0.51720 0.51204
# Poissons Ratio (y) = -0.28101 0.29327
# Poissons Ratio (z) = 0.61289 0.64606
#
# Static dielectric constant tensor:
#      x y z
#    x 1.590460 0.000000 0.000000 
#    y 0.000000 1.620710 0.000000 
#    z 0.000000 0.000000 1.608430 
# 
# From -- ./inp_files/10584.got.cif
#   From: 2010.05.17/outbox.cif.g08.bks.cpg/sg74_6_cif.got.tgz:10584.got - 2010.06.03 17:57:02.
