data_PCOD9539265
_publ_section_title
;
Structure prediction by ZEFSAII (Michael W. Deem and Ramdas Pophale) SiO2 
 PCOD9539265
Probable space group: I M M A
;
_chemical_formula_sum "Si O2"
_cell_formula_units_Z 96
_cell_length_a 17.262294
_cell_length_b 22.502225
_cell_length_c 13.148553
_cell_angle_alpha 90.000000
_cell_angle_beta 90.000000
_cell_angle_gamma 90.000000
_cell_volume 5107.424238
_symmetry_space_group_name_H-M "I M M A"
_symmetry_group_IT_number 74
_symmetry_cell_setting 'orthorhombic'
loop_
_space_group_symop_operation_xyz
x,y,z
-x,1/2-y,z
x,-y,-z
-x,1/2+y,-z
-x,-y,-z
x,1/2+y,-z
-x,y,z
x,1/2-y,z
1/2+x,1/2+y,1/2+z
1/2-x,-y,1/2+z
1/2+x,1/2-y,1/2-z
1/2-x,y,1/2-z
1/2-x,1/2-y,1/2-z
1/2+x,y,1/2-z
1/2-x,1/2+y,1/2+z
1/2+x,-y,1/2+z
loop_
_atom_site_type_symbol
_atom_site_label
_atom_site_fract_x
_atom_site_fract_y
_atom_site_fract_z
Si Si1 0.282275 0.820711 0.135460
Si Si2 0.583526 0.448926 0.604044
Si Si3 0.589564 0.596465 0.182916
Si Si4 0.085722 0.581504 0.802201
Si Si5 0.640081 0.976358 0.895523
Si Si6 0.710542 0.900924 0.540567
O O1 0.279088 0.750000 0.127986
O O2 0.250000 0.836894 0.250000
O O3 0.369362 0.846964 0.135507
O O4 0.240973 0.849946 0.036570
O O5 0.500000 0.440985 0.552329
O O6 0.587177 0.401906 0.695427
O O7 0.585178 0.514225 0.652747
O O8 0.653422 0.437648 0.531143
O O9 0.500000 0.586116 0.150877
O O10 0.645301 0.540009 0.160180
O O11 0.098453 0.568383 0.682300
O O12 0.156315 0.613875 0.861036
O O13 0.000000 0.607667 0.818006
O O14 0.719095 0.942904 0.923990
O O15 0.601646 0.000000 0.000000
#
# Coordination Sequence:
#
# PCOD9539265 Si02
#       6
#    16  16  16  16  16  16
#     4  11  24  41  60  87 118 155 207 256 299 356
#     4   9  18  32  53  83 119 155 191 235 296 366
#     4  10  21  38  58  84 122 159 195 242 298 366
#     4  10  22  35  52  83 125 158 195 240 296 375
#     4  11  21  34  57  90 122 155 189 244 303 378
#     4  12  21  34  58  85 119 158 197 247 307 360
#
# _framework density 18.796167000000001
#
# number of rings (size 3 to 8) (size 9 to 14) (size 15 to 20)
#    0.000    1.500    3.333    4.000    0.000    4.333 
#    0.000    0.000    0.000    4.000    0.000    0.000 
#    0.000    0.000    0.000    0.000    0.000    0.000 
#
# Total GULP energy -267231.317887 kJ/mol
# GULP energy per Si atom -5567.319123 kJ/mol
# Density = 1.875339 g / cm^3
# Si number density = 18.796167 Si / 1000 Ang^3
#
#
#
# Elastic Constant Matrix: (Units=GPa)
#
#
# Indices 1 2 3 4 5 6 
#
# 1 113.2179 47.4708 53.2558 0.0000 0.0000 0.0000
# 2 47.4708 61.0088 27.8288 0.0000 0.0000 0.0000
# 3 53.2558 27.8288 113.6907 0.0000 0.0000 0.0000
# 4 0.0000 0.0000 0.0000 24.8382 0.0000 0.0000
# 5 0.0000 0.0000 0.0000 0.0000 30.1562 0.0000
# 6 0.0000 0.0000 0.0000 0.0000 0.0000 12.6256
#
#
#
# Elastic Compliance Matrix: (Units=1/GPa)
#
#
# Indices 1 2 3 4 5 6 
#
# 1 0.015062 -0.009570 -0.004713 0.000000 0.000000 0.000000
# 2 -0.009570 0.024532 -0.001522 0.000000 0.000000 0.000000
# 3 -0.004713 -0.001522 0.011376 0.000000 0.000000 0.000000
# 4 0.000000 0.000000 0.000000 0.040261 0.000000 0.000000
# 5 0.000000 0.000000 0.000000 0.000000 0.033161 0.000000
# 6 0.000000 0.000000 0.000000 0.000000 0.000000 0.079204
#
#
# Mechanical properties :
#
#
# Convention : Reuss Voigt Hill
#
# Bulk Modulus (GPa) = 51.65295 60.55869 56.10582
# Shear Modulus (GPa) = 20.69039 24.14812 22.41926
#
# Velocity S-wave (km/s) = 3.32140 3.58821 3.45738
# Velocity P-wave (km/s) = 6.49993 7.03247 6.77144
#
# Compressibility (1/GPa) = 0.01935998
#
# Stress axis : x y z
#
# Youngs Moduli (GPa) = 66.39241 40.76370 87.90428
#
# Poissons Ratio (x) = 0.39010 0.41429
# Poissons Ratio (y) = 0.63537 0.13379
# Poissons Ratio (z) = 0.31290 0.06204
#
# Static dielectric constant tensor:
#      x y z
#    x 1.698790 0.000000 0.000000 
#    y 0.000000 1.625840 0.000000 
#    z 0.000000 0.000000 1.793450 
# 
# From -- ./inp_files/32393.got.cif
#   From: 2010.05.17/outbox.cif.g08.bks.cpg/sg74_17_cif.got.tgz:32393.got - 2010.06.03 17:57:02.
