data_PCOD9539961
_publ_section_title
;
Structure prediction by ZEFSAII (Michael W. Deem and Ramdas Pophale) SiO2 
 PCOD9539961
Probable space group: I M M A
;
_chemical_formula_sum "Si O2"
_cell_formula_units_Z 68
_cell_length_a 23.447850
_cell_length_b 9.220513
_cell_length_c 16.177069
_cell_angle_alpha 90.000000
_cell_angle_beta 90.000000
_cell_angle_gamma 90.000000
_cell_volume 3497.501823
_symmetry_space_group_name_H-M "I M M A"
_symmetry_group_IT_number 74
_symmetry_cell_setting 'orthorhombic'
loop_
_space_group_symop_operation_xyz
x,y,z
-x,1/2-y,z
x,-y,-z
-x,1/2+y,-z
-x,-y,-z
x,1/2+y,-z
-x,y,z
x,1/2-y,z
1/2+x,1/2+y,1/2+z
1/2-x,-y,1/2+z
1/2+x,1/2-y,1/2-z
1/2-x,y,1/2-z
1/2-x,1/2-y,1/2-z
1/2+x,y,1/2-z
1/2-x,1/2+y,1/2+z
1/2+x,-y,1/2+z
loop_
_atom_site_type_symbol
_atom_site_label
_atom_site_fract_x
_atom_site_fract_y
_atom_site_fract_z
Si Si1 0.121138 0.578590 0.833441
Si Si2 0.772420 0.422455 0.912770
Si Si3 0.409914 0.000000 0.000000
Si Si4 0.500000 0.750000 0.041689
Si Si5 0.668886 0.916174 0.846784
Si Si6 0.500000 0.576338 0.588610
O O1 0.130269 0.750000 0.853002
O O2 0.167371 0.482381 0.880652
O O3 0.132287 0.560955 0.736001
O O4 0.057356 0.539639 0.861231
O O5 0.772498 0.250000 0.921343
O O6 0.722255 0.476327 0.852371
O O7 0.760638 0.500000 0.000000
O O8 0.370421 0.939084 0.926656
O O9 0.450179 0.124166 0.963472
O O10 0.690431 0.750000 0.845451
O O11 0.500000 0.750000 0.576584
O O12 0.500000 0.500000 0.500000
#
# Coordination Sequence:
#
# PCOD9539961 Si02
#       6
#    16  16   8   4  16   8
#     4  10  23  43  66  96 128 169 215 267 326 385
#     4  12  25  41  66  95 130 170 216 268 327 387
#     4  11  22  42  62  96 126 179 214 270 312 381
#     4  10  24  38  62  88 128 166 226 252 308 370
#     4  11  23  41  67  95 133 169 217 266 325 383
#     4  10  22  42  69  94 126 166 211 262 315 385
#
# _framework density 19.442447999999999
#
# number of rings (size 3 to 8) (size 9 to 14) (size 15 to 20)
#    0.000    1.176    2.353    3.529    1.647    8.471 
#    2.118    0.000    2.588    0.000    0.000    0.000 
#    0.000    0.000    0.000    0.000    0.000    0.000 
#
# Total GULP energy -189562.836601 kJ/mol
# GULP energy per Si atom -5575.377547 kJ/mol
# Density = 1.939820 g / cm^3
# Si number density = 19.442448 Si / 1000 Ang^3
#
#
#
# Elastic Constant Matrix: (Units=GPa)
#
#
# Indices 1 2 3 4 5 6 
#
# 1 159.7343 65.4458 51.8321 0.0000 0.0000 0.0000
# 2 65.4458 116.1716 49.3621 0.0000 0.0000 0.0000
# 3 51.8321 49.3621 97.1329 0.0000 0.0000 0.0000
# 4 0.0000 0.0000 0.0000 26.8380 0.0000 0.0000
# 5 0.0000 0.0000 0.0000 0.0000 -6.1764 0.0000
# 6 0.0000 0.0000 0.0000 0.0000 0.0000 38.4200
#
#
#
# Elastic Compliance Matrix: (Units=1/GPa)
#
#
# Indices 1 2 3 4 5 6 
#
# 1 0.008674 -0.003724 -0.002736 0.000000 0.000000 0.000000
# 2 -0.003724 0.012577 -0.004405 0.000000 0.000000 0.000000
# 3 -0.002736 -0.004405 0.013994 0.000000 0.000000 0.000000
# 4 0.000000 0.000000 0.000000 0.037261 0.000000 0.000000
# 5 0.000000 0.000000 0.000000 0.000000 -0.161906 0.000000
# 6 0.000000 0.000000 0.000000 0.000000 0.000000 0.026028
#
#
# Mechanical properties :
#
#
# Convention : Reuss Voigt Hill
#
# Bulk Modulus (GPa) = 73.98801 78.47987 76.23394
# Shear Modulus (GPa) = -134.63196 25.57626 -54.52785
#
# Velocity S-wave (km/s) = -8.33047 3.63090 -5.30157
# Velocity P-wave (km/s) = 7.37506 7.61779 1.34894
#
# Compressibility (1/GPa) = 0.01351570
#
# Stress axis : x y z
#
# Youngs Moduli (GPa) = 115.28693 79.50793 71.46132
#
# Poissons Ratio (x) = 0.29608 0.19553
# Poissons Ratio (y) = 0.42932 0.31475
# Poissons Ratio (z) = 0.31544 0.35020
#
# Static dielectric constant tensor:
#      x y z
#    x 1.662000 0.000000 0.000000 
#    y 0.000000 1.658930 0.000000 
#    z 0.000000 0.000000 1.680530 
# 
# From -- ./inp_files/44869.got.cif
#   From: 2010.05.17/outbox.cif.g08.bks.cpg/sg74_23_cif.got.tgz:44869.got - 2010.06.03 17:57:02.
