data_PCOD9539517
_publ_section_title
;
Structure prediction by ZEFSAII (Michael W. Deem and Ramdas Pophale) SiO2 
 PCOD9539517
Probable space group: I M M A
;
_chemical_formula_sum "Si O2"
_cell_formula_units_Z 76
_cell_length_a 25.366058
_cell_length_b 15.038349
_cell_length_c 11.283843
_cell_angle_alpha 90.000000
_cell_angle_beta 90.000000
_cell_angle_gamma 90.000000
_cell_volume 4304.375745
_symmetry_space_group_name_H-M "I M M A"
_symmetry_group_IT_number 74
_symmetry_cell_setting 'orthorhombic'
loop_
_space_group_symop_operation_xyz
x,y,z
-x,1/2-y,z
x,-y,-z
-x,1/2+y,-z
-x,-y,-z
x,1/2+y,-z
-x,y,z
x,1/2-y,z
1/2+x,1/2+y,1/2+z
1/2-x,-y,1/2+z
1/2+x,1/2-y,1/2-z
1/2-x,y,1/2-z
1/2-x,1/2-y,1/2-z
1/2+x,y,1/2-z
1/2-x,1/2+y,1/2+z
1/2+x,-y,1/2+z
loop_
_atom_site_type_symbol
_atom_site_label
_atom_site_fract_x
_atom_site_fract_y
_atom_site_fract_z
Si Si1 0.384765 0.855152 0.370167
Si Si2 0.000000 0.000000 0.500000
Si Si3 0.062508 0.354635 0.117937
Si Si4 0.738091 0.146268 0.610591
Si Si5 0.596972 0.008432 0.188126
Si Si6 0.811786 0.000000 0.500000
O O1 0.389980 0.750000 0.342762
O O2 0.420083 0.876662 0.484259
O O3 0.323940 0.871723 0.404976
O O4 0.399721 0.915375 0.258834
O O5 0.953411 0.990257 0.602329
O O6 0.074234 0.250000 0.136370
O O7 0.091450 0.415299 0.213353
O O8 0.000000 0.367575 0.130236
O O9 0.748192 0.250000 0.583598
O O10 0.750000 0.132782 0.750000
O O11 0.774756 0.082331 0.534557
O O12 0.649442 0.019695 0.109866
#
# Coordination Sequence:
#
# PCOD9539517 Si02
#       6
#    16   4  16  16  16   8
#     4  10  22  39  63  91 117 154 201 247 296 353
#     4  10  24  40  56  84 120 158 198 234 300 352
#     4  10  22  40  62  88 118 155 196 244 303 356
#     4  10  21  40  60  85 123 160 199 244 293 349
#     4  11  22  40  59  86 123 156 197 246 292 357
#     4  11  24  35  62  94 117 162 205 240 296 366
#
# _framework density 17.656452000000002
#
# number of rings (size 3 to 8) (size 9 to 14) (size 15 to 20)
#    0.000    1.684    3.158    0.632    4.421    1.684 
#    0.000    4.211    0.000    4.421    0.000    0.000 
#    0.000    0.000    0.000    0.000    0.000    0.000 
#
# Total GULP energy -211672.531158 kJ/mol
# GULP energy per Si atom -5570.329767 kJ/mol
# Density = 1.761627 g / cm^3
# Si number density = 17.656452 Si / 1000 Ang^3
#
#
#
# Elastic Constant Matrix: (Units=GPa)
#
#
# Indices 1 2 3 4 5 6 
#
# 1 34.9456 30.8200 13.5660 0.0000 0.0000 0.0000
# 2 30.8200 60.5540 40.6122 0.0000 0.0000 0.0000
# 3 13.5660 40.6122 77.7758 0.0000 0.0000 0.0000
# 4 0.0000 0.0000 0.0000 18.3700 0.0000 0.0000
# 5 0.0000 0.0000 0.0000 0.0000 24.1855 0.0000
# 6 0.0000 0.0000 0.0000 0.0000 0.0000 9.8014
#
#
#
# Elastic Compliance Matrix: (Units=1/GPa)
#
#
# Indices 1 2 3 4 5 6 
#
# 1 0.054763 -0.033035 0.007698 0.000000 0.000000 0.000000
# 2 -0.033035 0.045343 -0.017915 0.000000 0.000000 0.000000
# 3 0.007698 -0.017915 0.020869 0.000000 0.000000 0.000000
# 4 0.000000 0.000000 0.000000 0.054437 0.000000 0.000000
# 5 0.000000 0.000000 0.000000 0.000000 0.041347 0.000000
# 6 0.000000 0.000000 0.000000 0.000000 0.000000 0.102026
#
#
# Mechanical properties :
#
#
# Convention : Reuss Voigt Hill
#
# Bulk Modulus (GPa) = 29.00971 38.14133 33.57552
# Shear Modulus (GPa) = 11.99677 16.35653 14.17665
#
# Velocity S-wave (km/s) = 2.60946 3.04695 2.83665
# Velocity P-wave (km/s) = 5.05419 5.83329 5.45766
#
# Compressibility (1/GPa) = 0.03447122
#
# Stress axis : x y z
#
# Youngs Moduli (GPa) = 18.26061 22.05413 47.91757
#
# Poissons Ratio (x) = 0.72857 -0.36887
# Poissons Ratio (y) = 0.60325 0.85842
# Poissons Ratio (z) = -0.14057 0.39509
#
# Static dielectric constant tensor:
#      x y z
#    x 1.588540 0.000000 0.000000 
#    y 0.000000 1.599500 0.000000 
#    z 0.000000 0.000000 1.579700 
# 
# From -- ./inp_files/26112.got.cif
#   From: 2010.05.17/outbox.cif.g08.bks.cpg/sg74_14_cif.got.tgz:26112.got - 2010.06.03 17:57:02.
