data_PCOD9539680
_publ_section_title
;
Structure prediction by ZEFSAII (Michael W. Deem and Ramdas Pophale) SiO2 
 PCOD9539680
Probable space group: I M M A
;
_chemical_formula_sum "Si O2"
_cell_formula_units_Z 116
_cell_length_a 14.747343
_cell_length_b 16.811856
_cell_length_c 24.737022
_cell_angle_alpha 90.000000
_cell_angle_beta 90.000000
_cell_angle_gamma 90.000000
_cell_volume 6133.054983
_symmetry_space_group_name_H-M "I M M A"
_symmetry_group_IT_number 74
_symmetry_cell_setting 'orthorhombic'
loop_
_space_group_symop_operation_xyz
x,y,z
-x,1/2-y,z
x,-y,-z
-x,1/2+y,-z
-x,-y,-z
x,1/2+y,-z
-x,y,z
x,1/2-y,z
1/2+x,1/2+y,1/2+z
1/2-x,-y,1/2+z
1/2+x,1/2-y,1/2-z
1/2-x,y,1/2-z
1/2-x,1/2-y,1/2-z
1/2+x,y,1/2-z
1/2-x,1/2+y,1/2+z
1/2+x,-y,1/2+z
loop_
_atom_site_type_symbol
_atom_site_label
_atom_site_fract_x
_atom_site_fract_y
_atom_site_fract_z
Si Si1 0.104333 0.843844 0.486505
Si Si2 0.097737 0.836462 0.666923
Si Si3 0.105132 0.061818 0.620564
Si Si4 0.105795 0.154792 0.121751
Si Si5 0.644866 0.934533 0.733219
Si Si6 0.356586 0.110910 0.756070
Si Si7 0.282291 0.411809 0.080718
Si Si8 0.000000 0.250000 0.766475
O O1 0.119594 0.750000 0.493639
O O2 0.112806 0.869032 0.424085
O O3 0.173158 0.893492 0.523186
O O4 0.000000 0.862049 0.502416
O O5 0.109126 0.750000 0.693199
O O6 0.097690 0.901413 0.713334
O O7 0.174512 0.849865 0.623387
O O8 0.000000 0.837868 0.638805
O O9 0.123492 0.092764 0.680660
O O10 0.000000 0.032191 0.617696
O O11 0.177683 0.994640 0.603449
O O12 0.124015 0.250000 0.120489
O O13 0.121936 0.118848 0.181741
O O14 0.175760 0.105597 0.084245
O O15 0.000000 0.143584 0.107791
O O16 0.750000 0.928402 0.750000
O O17 0.624819 0.027376 0.725298
O O18 0.250000 0.129216 0.750000
O O19 0.420984 0.180395 0.736445
#
# Coordination Sequence:
#
# PCOD9539680 Si02
#       8
#    16  16  16  16  16  16  16   4
#     4  10  22  37  60  91 124 156 197 249 304 367
#     4  11  21  30  49  80 119 158 190 232 288 351
#     4  11  22  39  65  91 125 161 199 241 310 376
#     4  11  24  39  59  86 121 168 213 247 292 357
#     4  11  21  37  57  82 120 159 199 245 296 356
#     4  11  24  42  62  94 121 160 203 251 311 366
#     4  12  21  37  58  88 121 160 201 250 294 355
#     4  12  26  40  68  86 120 164 204 268 296 366
#
# _framework density 18.913902
#
# number of rings (size 3 to 8) (size 9 to 14) (size 15 to 20)
#    0.000    0.966    3.448    4.759    2.897    3.862 
#    0.000    0.000    0.000    1.655    0.000    0.000 
#    0.000    0.000    0.000    0.000    0.000    0.000 
#
# Total GULP energy -323428.965697 kJ/mol
# GULP energy per Si atom -5576.361478 kJ/mol
# Density = 1.887085 g / cm^3
# Si number density = 18.913902 Si / 1000 Ang^3
#
#
#
# Elastic Constant Matrix: (Units=GPa)
#
#
# Indices 1 2 3 4 5 6 
#
# 1 114.1290 37.0091 7.3591 0.0000 0.0000 0.0000
# 2 37.0091 63.6963 -12.3215 0.0000 0.0000 0.0000
# 3 7.3591 -12.3215 43.3014 0.0000 0.0000 0.0000
# 4 0.0000 0.0000 0.0000 16.7083 0.0000 0.0000
# 5 0.0000 0.0000 0.0000 0.0000 38.7287 0.0000
# 6 0.0000 0.0000 0.0000 0.0000 0.0000 32.7248
#
#
#
# Elastic Compliance Matrix: (Units=1/GPa)
#
#
# Indices 1 2 3 4 5 6 
#
# 1 0.011432 -0.007427 -0.004056 0.000000 0.000000 0.000000
# 2 -0.007427 0.021439 0.007363 0.000000 0.000000 0.000000
# 3 -0.004056 0.007363 0.025878 0.000000 0.000000 0.000000
# 4 0.000000 0.000000 0.000000 0.059850 0.000000 0.000000
# 5 0.000000 0.000000 0.000000 0.000000 0.025821 0.000000
# 6 0.000000 0.000000 0.000000 0.000000 0.000000 0.030558
#
#
# Mechanical properties :
#
#
# Convention : Reuss Voigt Hill
#
# Bulk Modulus (GPa) = 19.79865 31.69113 25.74489
# Shear Modulus (GPa) = 24.99313 30.23770 27.61541
#
# Velocity S-wave (km/s) = 3.63907 4.00272 3.82522
# Velocity P-wave (km/s) = 5.30543 6.17690 5.75768
#
# Compressibility (1/GPa) = 0.05050851
#
# Stress axis : x y z
#
# Youngs Moduli (GPa) = 87.47450 46.64413 38.64231
#
# Poissons Ratio (x) = 0.34642 0.15674
# Poissons Ratio (y) = 0.64966 -0.28451
# Poissons Ratio (z) = 0.35481 -0.34343
#
# Static dielectric constant tensor:
#      x y z
#    x 1.824590 0.000000 0.000000 
#    y 0.000000 1.675700 0.000000 
#    z 0.000000 0.000000 1.635440 
# 
# From -- ./inp_files/60361.got.cif
#   From: 2010.05.17/outbox.cif.g08.bks.cpg/sg74_31_cif.got.tgz:60361.got - 2010.06.03 17:57:02.
