data_PCOD9539215
_publ_section_title
;
Structure prediction by ZEFSAII (Michael W. Deem and Ramdas Pophale) SiO2 
 PCOD9539215
Probable space group: I M M A
;
_chemical_formula_sum "Si O2"
_cell_formula_units_Z 112
_cell_length_a 15.735217
_cell_length_b 22.607981
_cell_length_c 15.365447
_cell_angle_alpha 90.000000
_cell_angle_beta 90.000000
_cell_angle_gamma 90.000000
_cell_volume 5466.126964
_symmetry_space_group_name_H-M "I M M A"
_symmetry_group_IT_number 74
_symmetry_cell_setting 'orthorhombic'
loop_
_space_group_symop_operation_xyz
x,y,z
-x,1/2-y,z
x,-y,-z
-x,1/2+y,-z
-x,-y,-z
x,1/2+y,-z
-x,y,z
x,1/2-y,z
1/2+x,1/2+y,1/2+z
1/2-x,-y,1/2+z
1/2+x,1/2-y,1/2-z
1/2-x,y,1/2-z
1/2-x,1/2-y,1/2-z
1/2+x,y,1/2-z
1/2-x,1/2+y,1/2+z
1/2+x,-y,1/2+z
loop_
_atom_site_type_symbol
_atom_site_label
_atom_site_fract_x
_atom_site_fract_y
_atom_site_fract_z
Si Si1 0.254607 0.683419 0.145183
Si Si2 0.862981 0.029783 0.833889
Si Si3 0.599001 0.413340 0.226096
Si Si4 0.603029 0.318151 0.360396
Si Si5 0.184068 0.494545 0.400933
Si Si6 0.093998 0.598940 0.338890
Si Si7 0.402255 0.873153 0.454500
O O1 0.269253 0.750000 0.115135
O O2 0.250000 0.683487 0.250000
O O3 0.334214 0.641896 0.125008
O O4 0.167721 0.660011 0.103721
O O5 0.762475 0.021097 0.846360
O O6 0.887020 0.077495 0.759649
O O7 0.896866 0.058627 0.923101
O O8 0.896533 0.967539 0.796616
O O9 0.500000 0.406665 0.201165
O O10 0.630475 0.354907 0.275650
O O11 0.656093 0.433829 0.144552
O O12 0.500000 0.316152 0.355936
O O13 0.632886 0.250000 0.366608
O O14 0.621740 0.356858 0.446609
O O15 0.210847 0.500000 0.500000
O O16 0.103765 0.537769 0.390638
O O17 0.000000 0.624050 0.343597
O O18 0.500000 0.853309 0.440778
#
# Coordination Sequence:
#
# PCOD9539215 Si02
#       7
#    16  16  16  16  16  16  16
#     4  11  22  35  53  83 120 162 213 257 305 370
#     4  11  21  36  56  88 120 157 200 256 319 379
#     4  10  21  37  61  90 122 162 207 257 319 387
#     4   9  20  38  60  90 127 165 207 258 315 384
#     4  11  23  38  61  90 122 157 203 263 322 384
#     4  11  21  39  60  81 121 166 207 256 313 373
#     4  11  21  36  60  89 127 169 212 262 325 389
#
# _framework density 20.489827999999999
#
# number of rings (size 3 to 8) (size 9 to 14) (size 15 to 20)
#    0.000    1.429    2.857    4.714    2.000    2.286 
#    0.000    3.571    0.000    2.571    0.000    2.000 
#    0.000    0.000    0.000    0.000    0.000    0.000 
#
# Total GULP energy -312439.968334 kJ/mol
# GULP energy per Si atom -5579.285149 kJ/mol
# Density = 2.044319 g / cm^3
# Si number density = 20.489828 Si / 1000 Ang^3
#
#
#
# Elastic Constant Matrix: (Units=GPa)
#
#
# Indices 1 2 3 4 5 6 
#
# 1 111.8605 0.1184 24.1715 0.0001 0.0000 0.0000
# 2 0.1184 38.7126 16.4565 0.0000 0.0000 0.0000
# 3 24.1715 16.4565 81.9367 -0.0004 0.0001 0.0000
# 4 0.0001 0.0000 -0.0004 18.4240 0.0000 0.0000
# 5 0.0000 0.0000 0.0001 0.0000 9.5525 0.0000
# 6 0.0000 0.0000 0.0000 0.0000 0.0000 17.0412
#
#
#
# Elastic Compliance Matrix: (Units=1/GPa)
#
#
# Indices 1 2 3 4 5 6 
#
# 1 0.009606 0.001285 -0.003092 0.000000 0.000000 0.000000
# 2 0.001285 0.028415 -0.006086 0.000000 0.000000 0.000000
# 3 -0.003092 -0.006086 0.014339 0.000000 0.000000 0.000000
# 4 0.000000 0.000000 0.000000 0.054277 0.000000 0.000000
# 5 0.000000 0.000000 0.000000 0.000000 0.104685 0.000000
# 6 0.000000 0.000000 0.000000 0.000000 0.000000 0.058681
#
#
# Mechanical properties :
#
#
# Convention : Reuss Voigt Hill
#
# Bulk Modulus (GPa) = 27.34175 34.88917 31.11546
# Shear Modulus (GPa) = 16.77961 21.78777 19.28369
#
# Velocity S-wave (km/s) = 2.86479 3.26444 3.07112
# Velocity P-wave (km/s) = 4.93110 5.59225 5.27205
#
# Compressibility (1/GPa) = 0.03657411
#
# Stress axis : x y z
#
# Youngs Moduli (GPa) = 104.09629 35.19326 69.73976
#
# Poissons Ratio (x) = -0.04522 0.21564
# Poissons Ratio (y) = -0.13376 0.42443
# Poissons Ratio (z) = 0.32187 0.21418
#
# Static dielectric constant tensor:
#      x y z
#    x 1.738040 0.000000 0.000000 
#    y 0.000000 1.760020 0.000000 
#    z 0.000000 0.000000 1.794110 
# 
# From -- ./inp_files/32730.got.cif
#   From: 2010.05.17/outbox.cif.g08.bks.cpg/sg74_17_cif.got.tgz:32730.got - 2010.06.03 17:57:02.
