data_PCOD9539557
_publ_section_title
;
Structure prediction by ZEFSAII (Michael W. Deem and Ramdas Pophale) SiO2 
 PCOD9539557
Probable space group: I M M A
;
_chemical_formula_sum "Si O2"
_cell_formula_units_Z 72
_cell_length_a 27.062912
_cell_length_b 22.644547
_cell_length_c 5.139514
_cell_angle_alpha 90.000000
_cell_angle_beta 90.000000
_cell_angle_gamma 90.000000
_cell_volume 3149.634913
_symmetry_space_group_name_H-M "I M M A"
_symmetry_group_IT_number 74
_symmetry_cell_setting 'orthorhombic'
loop_
_space_group_symop_operation_xyz
x,y,z
-x,1/2-y,z
x,-y,-z
-x,1/2+y,-z
-x,-y,-z
x,1/2+y,-z
-x,y,z
x,1/2-y,z
1/2+x,1/2+y,1/2+z
1/2-x,-y,1/2+z
1/2+x,1/2-y,1/2-z
1/2-x,y,1/2-z
1/2-x,1/2-y,1/2-z
1/2+x,y,1/2-z
1/2-x,1/2+y,1/2+z
1/2+x,-y,1/2+z
loop_
_atom_site_type_symbol
_atom_site_label
_atom_site_fract_x
_atom_site_fract_y
_atom_site_fract_z
Si Si1 0.941295 0.560927 0.126379
Si Si2 0.836162 0.250000 0.900920
Si Si3 0.784961 0.500000 0.000000
Si Si4 0.804176 0.371652 0.126383
Si Si5 0.098096 0.250000 0.408538
Si Si6 0.907149 0.624706 0.624374
O O1 0.918390 0.577753 0.402029
O O2 0.000000 0.556476 0.165289
O O3 0.923313 0.500000 0.000000
O O4 0.928860 0.608166 0.904277
O O5 0.856802 0.250000 0.612076
O O6 0.808711 0.312053 0.955771
O O7 0.880822 0.250000 0.113771
O O8 0.750000 0.500498 0.750000
O O9 0.811946 0.563739 0.005613
O O10 0.750000 0.371520 0.250000
O O11 0.848381 0.368705 0.335377
O O12 0.071388 0.188275 0.455943
#
# Coordination Sequence:
#
# PCOD9539557 Si02
#       6
#    16   8   8  16   8  16
#     4  11  25  47  71 100 131 170 228 284 336 410
#     4  10  21  40  66  92 130 188 234 276 320 386
#     4  10  24  42  60  88 137 178 227 288 334 390
#     4  10  23  43  66  98 140 182 235 277 335 407
#     4  10  22  42  64 100 137 166 225 284 322 406
#     4  11  23  43  71  99 135 178 221 276 348 395
#
# _framework density 22.859791000000001
#
# number of rings (size 3 to 8) (size 9 to 14) (size 15 to 20)
#    0.000    1.556    0.000    4.333    1.556   12.444 
#   12.000    8.333    0.000    0.000    0.000    0.000 
#    0.000    0.000    0.000    0.000    0.000    0.000 
#
# Total GULP energy -201249.712701 kJ/mol
# GULP energy per Si atom -5590.269797 kJ/mol
# Density = 2.280776 g / cm^3
# Si number density = 22.859791 Si / 1000 Ang^3
#
#
#
# Elastic Constant Matrix: (Units=GPa)
#
#
# Indices 1 2 3 4 5 6 
#
# 1 43.6124 13.3460 13.7181 0.0000 0.0000 0.0000
# 2 13.3460 158.0298 11.6348 0.0000 0.0000 0.0000
# 3 13.7181 11.6348 92.4829 0.0000 0.0000 0.0000
# 4 0.0000 0.0000 0.0000 34.6284 0.0000 0.0000
# 5 0.0000 0.0000 0.0000 0.0000 22.4059 0.0000
# 6 0.0000 0.0000 0.0000 0.0000 0.0000 66.7968
#
#
#
# Elastic Compliance Matrix: (Units=1/GPa)
#
#
# Indices 1 2 3 4 5 6 
#
# 1 0.024561 -0.001823 -0.003414 0.000000 0.000000 0.000000
# 2 -0.001823 0.006522 -0.000550 0.000000 0.000000 0.000000
# 3 -0.003414 -0.000550 0.011388 0.000000 0.000000 0.000000
# 4 0.000000 0.000000 0.000000 0.028878 0.000000 0.000000
# 5 0.000000 0.000000 0.000000 0.000000 0.044631 0.000000
# 6 0.000000 0.000000 0.000000 0.000000 0.000000 0.014971
#
#
# Mechanical properties :
#
#
# Convention : Reuss Voigt Hill
#
# Bulk Modulus (GPa) = 32.36463 41.28033 36.82248
# Shear Modulus (GPa) = 32.71725 41.79464 37.25594
#
# Velocity S-wave (km/s) = 3.78724 4.28051 4.04141
# Velocity P-wave (km/s) = 5.77173 6.52132 6.15794
#
# Compressibility (1/GPa) = 0.03089793
#
# Stress axis : x y z
#
# Youngs Moduli (GPa) = 40.71516 153.31852 87.80867
#
# Poissons Ratio (x) = 0.27948 0.29976
# Poissons Ratio (y) = 0.07422 0.04831
# Poissons Ratio (z) = 0.13899 0.08435
#
# Static dielectric constant tensor:
#      x y z
#    x 1.843360 0.000000 0.000000 
#    y 0.000000 1.954330 0.000000 
#    z 0.000000 0.000000 1.792230 
# 
# From -- ./inp_files/4467.got.cif
#   From: 2010.05.17/outbox.cif.g08.bks.cpg/sg74_3_cif.got.tgz:4467.got - 2010.06.03 17:57:02.
