data_PCOD9539883
_publ_section_title
;
Structure prediction by ZEFSAII (Michael W. Deem and Ramdas Pophale) SiO2 
 PCOD9539883
Probable space group: I M M A
;
_chemical_formula_sum "Si O2"
_cell_formula_units_Z 40
_cell_length_a 10.591748
_cell_length_b 10.276058
_cell_length_c 16.918600
_cell_angle_alpha 90.000000
_cell_angle_beta 90.000000
_cell_angle_gamma 90.000000
_cell_volume 1841.444394
_symmetry_space_group_name_H-M "I M M A"
_symmetry_group_IT_number 74
_symmetry_cell_setting 'orthorhombic'
loop_
_space_group_symop_operation_xyz
x,y,z
-x,1/2-y,z
x,-y,-z
-x,1/2+y,-z
-x,-y,-z
x,1/2+y,-z
-x,y,z
x,1/2-y,z
1/2+x,1/2+y,1/2+z
1/2-x,-y,1/2+z
1/2+x,1/2-y,1/2-z
1/2-x,y,1/2-z
1/2-x,1/2-y,1/2-z
1/2+x,y,1/2-z
1/2-x,1/2+y,1/2+z
1/2+x,-y,1/2+z
loop_
_atom_site_type_symbol
_atom_site_label
_atom_site_fract_x
_atom_site_fract_y
_atom_site_fract_z
Si Si1 0.000000 0.091652 0.578441
Si Si2 0.775774 0.489133 0.905277
Si Si3 0.134486 0.750000 0.189602
Si Si4 0.353482 0.750000 0.681409
O O1 0.130986 0.048065 0.618108
O O2 0.000000 0.250000 0.563779
O O3 0.000000 0.000000 0.500000
O O4 0.855272 0.373873 0.867209
O O5 0.823874 0.623040 0.869821
O O6 0.782781 0.500000 0.000000
O O7 0.250000 0.750000 0.250000
O O8 0.000000 0.750000 0.232925
O O9 0.500000 0.750000 0.707713
O O10 0.250000 0.750000 0.750000
#
# Coordination Sequence:
#
# PCOD9539883 Si02
#       4
#     8  16   8   8
#     4  10  22  40  72 114 146 184 233 296 370 428
#     4  11  25  45  75 106 144 185 245 302 361 429
#     4  12  27  45  72 102 142 191 234 295 367 433
#     4  12  29  49  72 106 148 195 242 303 377 439
#
# _framework density 21.722079999999998
#
# number of rings (size 3 to 8) (size 9 to 14) (size 15 to 20)
#    0.000    0.800    2.000    3.600   14.000    4.800 
#    0.000    0.000    0.000    0.000    0.000    0.000 
#    0.000    0.000    0.000    0.000    0.000    0.000 
#
# Total GULP energy -111849.585507 kJ/mol
# GULP energy per Si atom -5592.479275 kJ/mol
# Density = 2.167264 g / cm^3
# Si number density = 21.722080 Si / 1000 Ang^3
#
#
#
# Elastic Constant Matrix: (Units=GPa)
#
#
# Indices 1 2 3 4 5 6 
#
# 1 214.7263 56.3393 53.6501 0.0000 0.0000 0.0000
# 2 56.3393 215.6039 51.8877 0.0000 0.0000 0.0000
# 3 53.6501 51.8877 108.7724 0.0000 0.0000 0.0000
# 4 0.0000 0.0000 0.0000 27.8659 0.0000 0.0000
# 5 0.0000 0.0000 0.0000 0.0000 36.5800 0.0000
# 6 0.0000 0.0000 0.0000 0.0000 0.0000 55.6403
#
#
#
# Elastic Compliance Matrix: (Units=1/GPa)
#
#
# Indices 1 2 3 4 5 6 
#
# 1 0.005455 -0.000879 -0.002271 0.000000 0.000000 0.000000
# 2 -0.000879 0.005381 -0.002134 0.000000 0.000000 0.000000
# 3 -0.002271 -0.002134 0.011332 0.000000 0.000000 0.000000
# 4 0.000000 0.000000 0.000000 0.035886 0.000000 0.000000
# 5 0.000000 0.000000 0.000000 0.000000 0.027337 0.000000
# 6 0.000000 0.000000 0.000000 0.000000 0.000000 0.017973
#
#
# Mechanical properties :
#
#
# Convention : Reuss Voigt Hill
#
# Bulk Modulus (GPa) = 86.20388 95.87299 91.03844
# Shear Modulus (GPa) = 42.44528 49.16560 45.80544
#
# Velocity S-wave (km/s) = 4.42522 4.76267 4.59704
# Velocity P-wave (km/s) = 8.11672 8.62995 8.37727
#
# Compressibility (1/GPa) = 0.01160041
#
# Stress axis : x y z
#
# Youngs Moduli (GPa) = 183.31103 185.83050 88.24855
#
# Poissons Ratio (x) = 0.16332 0.20045
# Poissons Ratio (y) = 0.16110 0.18828
# Poissons Ratio (z) = 0.41638 0.39648
#
# Static dielectric constant tensor:
#      x y z
#    x 1.849720 0.000000 0.000000 
#    y 0.000000 1.787900 0.000000 
#    z 0.000000 0.000000 1.798510 
# 
# From -- ./inp_files/40292.got.cif
#   From: 2010.05.17/outbox.cif.g08.bks.cpg/sg74_21_cif.got.tgz:40292.got - 2010.06.03 17:57:02.
