data_PCOD9539992
_publ_section_title
;
Structure prediction by ZEFSAII (Michael W. Deem and Ramdas Pophale) SiO2 
 PCOD9539992
Probable space group: I M M A
;
_chemical_formula_sum "Si O2"
_cell_formula_units_Z 96
_cell_length_a 27.010032
_cell_length_b 8.538266
_cell_length_c 21.153624
_cell_angle_alpha 90.000000
_cell_angle_beta 90.000000
_cell_angle_gamma 90.000000
_cell_volume 4878.424184
_symmetry_space_group_name_H-M "I M M A"
_symmetry_group_IT_number 74
_symmetry_cell_setting 'orthorhombic'
loop_
_space_group_symop_operation_xyz
x,y,z
-x,1/2-y,z
x,-y,-z
-x,1/2+y,-z
-x,-y,-z
x,1/2+y,-z
-x,y,z
x,1/2-y,z
1/2+x,1/2+y,1/2+z
1/2-x,-y,1/2+z
1/2+x,1/2-y,1/2-z
1/2-x,y,1/2-z
1/2-x,1/2-y,1/2-z
1/2+x,y,1/2-z
1/2-x,1/2+y,1/2+z
1/2+x,-y,1/2+z
loop_
_atom_site_type_symbol
_atom_site_label
_atom_site_fract_x
_atom_site_fract_y
_atom_site_fract_z
Si Si1 0.777721 0.429272 0.585936
Si Si2 0.617933 0.562397 0.299416
Si Si3 0.336066 0.938857 0.432495
Si Si4 0.798909 0.577044 0.710418
Si Si5 0.115933 0.434413 0.434394
Si Si6 0.556966 0.061926 0.190956
O O1 0.780668 0.250000 0.563738
O O2 0.721963 0.491243 0.573974
O O3 0.786353 0.443787 0.660468
O O4 0.825642 0.524584 0.563819
O O5 0.623022 0.750000 0.296986
O O6 0.630334 0.514927 0.372001
O O7 0.658863 0.476952 0.257120
O O8 0.569710 0.513801 0.259083
O O9 0.334562 0.750000 0.433207
O O10 0.354469 0.000000 0.500000
O O11 0.810885 0.750000 0.682032
O O12 0.750000 0.595537 0.750000
O O13 0.094051 0.500000 0.500000
O O14 0.108789 0.250000 0.435344
O O15 0.091807 0.492561 0.367986
O O16 0.500000 0.030482 0.174237
O O17 0.563291 0.250000 0.197139
#
# Coordination Sequence:
#
# PCOD9539992 Si02
#       6
#    16  16  16  16  16  16
#     4  11  21  35  55  82 119 160 198 239 279 330
#     4  11  22  38  60  86 116 150 193 243 294 348
#     4  10  23  38  55  84 120 158 195 235 283 340
#     4  11  21  32  52  83 115 154 197 235 281 340
#     4  11  23  38  57  84 118 158 200 241 287 341
#     4  10  23  43  64  87 114 146 191 245 298 354
#
# _framework density 19.678484000000001
#
# number of rings (size 3 to 8) (size 9 to 14) (size 15 to 20)
#    0.000    1.333    3.333    2.500    0.000    6.000 
#    0.000    0.000    0.000    0.500    0.000    0.000 
#    0.000    0.000    0.000    0.000    0.000    0.000 
#
# Total GULP energy -267531.696955 kJ/mol
# GULP energy per Si atom -5573.577020 kJ/mol
# Density = 1.963370 g / cm^3
# Si number density = 19.678484 Si / 1000 Ang^3
#
#
#
# Elastic Constant Matrix: (Units=GPa)
#
#
# Indices 1 2 3 4 5 6 
#
# 1 62.5490 15.8838 38.8129 0.0000 0.0000 0.0000
# 2 15.8838 40.2282 23.9884 0.0000 0.0000 0.0000
# 3 38.8129 23.9884 151.8978 0.0000 0.0000 0.0000
# 4 0.0000 0.0000 0.0000 33.4335 0.0000 0.0000
# 5 0.0000 0.0000 0.0000 0.0000 4.3110 0.0000
# 6 0.0000 0.0000 0.0000 0.0000 0.0000 21.3745
#
#
#
# Elastic Compliance Matrix: (Units=1/GPa)
#
#
# Indices 1 2 3 4 5 6 
#
# 1 0.019992 -0.005351 -0.004263 0.000000 0.000000 0.000000
# 2 -0.005351 0.028875 -0.003193 0.000000 0.000000 0.000000
# 3 -0.004263 -0.003193 0.008177 0.000000 0.000000 0.000000
# 4 0.000000 0.000000 0.000000 0.029910 0.000000 0.000000
# 5 0.000000 0.000000 0.000000 0.000000 0.231967 0.000000
# 6 0.000000 0.000000 0.000000 0.000000 0.000000 0.046785
#
#
# Mechanical properties :
#
#
# Convention : Reuss Voigt Hill
#
# Bulk Modulus (GPa) = 31.81764 45.78280 38.80022
# Shear Modulus (GPa) = 12.44412 23.55645 18.00028
#
# Velocity S-wave (km/s) = 2.51743 3.46362 3.02771
# Velocity P-wave (km/s) = 4.96526 6.26988 5.65532
#
# Compressibility (1/GPa) = 0.03142911
#
# Stress axis : x y z
#
# Youngs Moduli (GPa) = 50.02043 34.63200 122.29571
#
# Poissons Ratio (x) = 0.18533 0.52137
# Poissons Ratio (y) = 0.26768 0.39045
# Poissons Ratio (z) = 0.21325 0.11057
#
# Static dielectric constant tensor:
#      x y z
#    x 1.780050 0.000000 0.000000 
#    y 0.000000 1.727750 0.000000 
#    z 0.000000 0.000000 1.753440 
# 
# From -- ./inp_files/55029.got.cif
#   From: 2010.05.17/outbox.cif.g08.bks.cpg/sg74_28_cif.got.tgz:55029.got - 2010.06.03 17:57:02.
