data_PCOD9539433
_publ_section_title
;
Structure prediction by ZEFSAII (Michael W. Deem and Ramdas Pophale) SiO2 
 PCOD9539433
Probable space group: I M M A
;
_chemical_formula_sum "Si O2"
_cell_formula_units_Z 72
_cell_length_a 17.793399
_cell_length_b 9.037740
_cell_length_c 23.878994
_cell_angle_alpha 90.000000
_cell_angle_beta 90.000000
_cell_angle_gamma 90.000000
_cell_volume 3840.031502
_symmetry_space_group_name_H-M "I M M A"
_symmetry_group_IT_number 74
_symmetry_cell_setting 'orthorhombic'
loop_
_space_group_symop_operation_xyz
x,y,z
-x,1/2-y,z
x,-y,-z
-x,1/2+y,-z
-x,-y,-z
x,1/2+y,-z
-x,y,z
x,1/2-y,z
1/2+x,1/2+y,1/2+z
1/2-x,-y,1/2+z
1/2+x,1/2-y,1/2-z
1/2-x,y,1/2-z
1/2-x,1/2-y,1/2-z
1/2+x,y,1/2-z
1/2-x,1/2+y,1/2+z
1/2+x,-y,1/2+z
loop_
_atom_site_type_symbol
_atom_site_label
_atom_site_fract_x
_atom_site_fract_y
_atom_site_fract_z
Si Si1 0.411765 0.425913 0.631499
Si Si2 0.500000 0.073054 0.938713
Si Si3 0.864727 0.926646 0.628962
Si Si4 0.910149 0.576656 0.751922
Si Si5 0.785484 0.574473 0.940531
O O1 0.500000 0.461773 0.623512
O O2 0.402672 0.250000 0.627632
O O3 0.390774 0.482193 0.693656
O O4 0.359892 0.506171 0.586613
O O5 0.500000 0.250000 0.943266
O O6 0.572584 0.015913 0.904943
O O7 0.500000 0.000000 0.000000
O O8 0.881870 0.750000 0.625037
O O9 0.868936 0.965421 0.694590
O O10 0.784049 0.952387 0.601376
O O11 0.895088 0.750000 0.763858
O O12 0.000000 0.561924 0.741624
O O13 0.793733 0.750000 0.947661
O O14 0.769386 0.500000 0.000000
#
# Coordination Sequence:
#
# PCOD9539433 Si02
#       5
#    16   8  16  16  16
#     4  10  22  40  62  88 119 153 194 244 298 357
#     4  12  24  36  56  84 118 162 207 246 289 344
#     4  10  21  39  61  87 120 158 199 243 292 349
#     4   9  17  34  61  88 119 156 195 239 287 345
#     4  11  24  41  62  86 117 155 198 248 300 354
#
# _framework density 18.749846000000002
#
# number of rings (size 3 to 8) (size 9 to 14) (size 15 to 20)
#    0.000    1.778    1.111    3.000    0.000    7.111 
#    0.000    4.444    0.000    0.000    0.000    0.000 
#    0.000    0.000    0.000    0.000    0.000    0.000 
#
# Total GULP energy -201198.610533 kJ/mol
# GULP energy per Si atom -5588.850293 kJ/mol
# Density = 1.870717 g / cm^3
# Si number density = 18.749846 Si / 1000 Ang^3
#
#
#
# Elastic Constant Matrix: (Units=GPa)
#
#
# Indices 1 2 3 4 5 6 
#
# 1 53.3504 37.4824 9.4315 0.0000 0.0000 0.0000
# 2 37.4824 48.0090 5.3613 0.0000 0.0000 0.0000
# 3 9.4315 5.3613 21.0912 0.0000 0.0000 0.0000
# 4 0.0000 0.0000 0.0000 37.2102 0.0000 0.0000
# 5 0.0000 0.0000 0.0000 0.0000 -15.0449 0.0000
# 6 0.0000 0.0000 0.0000 0.0000 0.0000 13.2561
#
#
#
# Elastic Compliance Matrix: (Units=1/GPa)
#
#
# Indices 1 2 3 4 5 6 
#
# 1 0.043968 -0.033071 -0.011255 0.000000 0.000000 0.000000
# 2 -0.033071 0.046312 0.003016 0.000000 0.000000 0.000000
# 3 -0.011255 0.003016 0.051679 0.000000 0.000000 0.000000
# 4 0.000000 0.000000 0.000000 0.026874 0.000000 0.000000
# 5 0.000000 0.000000 0.000000 0.000000 -0.066468 0.000000
# 6 0.000000 0.000000 0.000000 0.000000 0.000000 0.075437
#
#
# Mechanical properties :
#
#
# Convention : Reuss Voigt Hill
#
# Bulk Modulus (GPa) = 16.85196 25.22236 21.03716
# Shear Modulus (GPa) = 17.84414 11.76262 14.80338
#
# Velocity S-wave (km/s) = 3.08830 2.50740 2.81289
# Velocity P-wave (km/s) = 4.66091 4.67590 4.66841
#
# Compressibility (1/GPa) = 0.05934028
#
# Stress axis : x y z
#
# Youngs Moduli (GPa) = 22.74363 21.59253 19.35004
#
# Poissons Ratio (x) = 0.71408 0.21779
# Poissons Ratio (y) = 0.75215 -0.05836
# Poissons Ratio (z) = 0.25598 -0.06513
#
# Static dielectric constant tensor:
#      x y z
#    x 1.633930 0.000000 0.000000 
#    y 0.000000 1.624960 0.000000 
#    z 0.000000 0.000000 1.624170 
# 
# From -- ./inp_files/60611.got.cif
#   From: 2010.05.17/outbox.cif.g08.bks.cpg/sg74_31_cif.got.tgz:60611.got - 2010.06.03 17:57:02.
