data_PCOD9539071
_publ_section_title
;
Structure prediction by ZEFSAII (Michael W. Deem and Ramdas Pophale) SiO2 
 PCOD9539071
Probable space group: I M M A
;
_chemical_formula_sum "Si O2"
_cell_formula_units_Z 112
_cell_length_a 19.494977
_cell_length_b 10.394466
_cell_length_c 28.428817
_cell_angle_alpha 90.000000
_cell_angle_beta 90.000000
_cell_angle_gamma 90.000000
_cell_volume 5760.811940
_symmetry_space_group_name_H-M "I M M A"
_symmetry_group_IT_number 74
_symmetry_cell_setting 'orthorhombic'
loop_
_space_group_symop_operation_xyz
x,y,z
-x,1/2-y,z
x,-y,-z
-x,1/2+y,-z
-x,-y,-z
x,1/2+y,-z
-x,y,z
x,1/2-y,z
1/2+x,1/2+y,1/2+z
1/2-x,-y,1/2+z
1/2+x,1/2-y,1/2-z
1/2-x,y,1/2-z
1/2-x,1/2-y,1/2-z
1/2+x,y,1/2-z
1/2-x,1/2+y,1/2+z
1/2+x,-y,1/2+z
loop_
_atom_site_type_symbol
_atom_site_label
_atom_site_fract_x
_atom_site_fract_y
_atom_site_fract_z
Si Si1 0.779615 0.398143 0.360845
Si Si2 0.576503 0.903854 0.601740
Si Si3 0.791209 0.906921 0.956665
Si Si4 0.417560 0.610476 0.033955
Si Si5 0.923056 0.492255 0.638183
Si Si6 0.079567 0.393600 0.740195
Si Si7 0.842733 0.903689 0.800693
O O1 0.758668 0.250000 0.361984
O O2 0.756618 0.445121 0.412218
O O3 0.860157 0.411860 0.355234
O O4 0.732884 0.448286 0.318037
O O5 0.500000 0.959549 0.597433
O O6 0.570995 0.750000 0.598367
O O7 0.631944 0.938609 0.562218
O O8 0.609860 0.925632 0.653029
O O9 0.786031 0.750000 0.965100
O O10 0.776084 0.000000 0.000000
O O11 0.500000 0.616440 0.025790
O O12 0.387945 0.750000 0.022448
O O13 0.410664 0.579052 0.088877
O O14 0.390250 0.500000 0.000000
O O15 0.920245 0.401636 0.683583
O O16 0.000000 0.549222 0.636132
O O17 0.100420 0.250000 0.755241
O O18 0.126276 0.506255 0.760764
O O19 0.000000 0.414476 0.754685
O O20 0.843626 0.750000 0.788526
#
# Coordination Sequence:
#
# PCOD9539071 Si02
#       7
#    16  16  16  16  16  16  16
#     4   9  20  38  56  77 108 144 182 228 277 321
#     4   8  14  27  50  78 107 141 179 217 259 311
#     4   9  18  34  54  76 106 141 176 218 268 320
#     4   9  18  34  55  77 102 133 170 214 266 324
#     4  10  21  37  56  78 107 143 180 220 274 336
#     4  10  21  37  57  83 116 147 175 217 270 320
#     4   9  18  35  58  81 108 145 188 227 264 317
#
# _framework density 19.441704000000001
#
# number of rings (size 3 to 8) (size 9 to 14) (size 15 to 20)
#    0.000    2.857    0.000    2.571    0.000    5.429 
#    0.000   12.143    0.000    0.857    0.000    0.000 
#    0.000    0.000    0.000    0.000    0.000    0.000 
#
# Total GULP energy -311942.105329 kJ/mol
# GULP energy per Si atom -5570.394738 kJ/mol
# Density = 1.939745 g / cm^3
# Si number density = 19.441704 Si / 1000 Ang^3
#
#
#
# Elastic Constant Matrix: (Units=GPa)
#
#
# Indices 1 2 3 4 5 6 
#
# 1 109.7111 29.6875 35.0627 0.0000 0.0000 0.0000
# 2 29.6875 79.8376 62.3098 0.0000 0.0000 0.0000
# 3 35.0627 62.3098 97.0515 0.0000 0.0000 0.0000
# 4 0.0000 0.0000 0.0000 17.3222 0.0000 0.0000
# 5 0.0000 0.0000 0.0000 0.0000 17.0480 0.0000
# 6 0.0000 0.0000 0.0000 0.0000 0.0000 13.3044
#
#
#
# Elastic Compliance Matrix: (Units=1/GPa)
#
#
# Indices 1 2 3 4 5 6 
#
# 1 0.010444 -0.001882 -0.002565 0.000000 0.000000 0.000000
# 2 -0.001882 0.025444 -0.015656 0.000000 0.000000 0.000000
# 3 -0.002565 -0.015656 0.021282 0.000000 0.000000 0.000000
# 4 0.000000 0.000000 0.000000 0.057729 0.000000 0.000000
# 5 0.000000 0.000000 0.000000 0.000000 0.058658 0.000000
# 6 0.000000 0.000000 0.000000 0.000000 0.000000 0.075163
#
#
# Mechanical properties :
#
#
# Convention : Reuss Voigt Hill
#
# Bulk Modulus (GPa) = 58.94644 60.08004 59.51324
# Shear Modulus (GPa) = 16.97332 20.17094 18.57213
#
# Velocity S-wave (km/s) = 2.95793 3.22453 3.09410
# Velocity P-wave (km/s) = 6.48469 6.69576 6.59107
#
# Compressibility (1/GPa) = 0.01696455
#
# Stress axis : x y z
#
# Youngs Moduli (GPa) = 95.75083 39.30229 46.98792
#
# Poissons Ratio (x) = 0.07395 0.12053
# Poissons Ratio (y) = 0.18016 0.73564
# Poissons Ratio (z) = 0.24561 0.61531
#
# Static dielectric constant tensor:
#      x y z
#    x 1.724030 0.000000 0.000000 
#    y 0.000000 1.692210 0.000000 
#    z 0.000000 0.000000 1.695750 
# 
# From -- ./inp_files/61629.got.cif
#   From: 2010.05.17/outbox.cif.g08.bks.cpg/sg74_31_cif.got.tgz:61629.got - 2010.06.03 17:57:02.
