data_PCOD9539663
_publ_section_title
;
Structure prediction by ZEFSAII (Michael W. Deem and Ramdas Pophale) SiO2 
 PCOD9539663
Probable space group: I M M A
;
_chemical_formula_sum "Si O2"
_cell_formula_units_Z 88
_cell_length_a 8.647536
_cell_length_b 17.085919
_cell_length_c 31.171828
_cell_angle_alpha 90.000000
_cell_angle_beta 90.000000
_cell_angle_gamma 90.000000
_cell_volume 4605.671865
_symmetry_space_group_name_H-M "I M M A"
_symmetry_group_IT_number 74
_symmetry_cell_setting 'orthorhombic'
loop_
_space_group_symop_operation_xyz
x,y,z
-x,1/2-y,z
x,-y,-z
-x,1/2+y,-z
-x,-y,-z
x,1/2+y,-z
-x,y,z
x,1/2-y,z
1/2+x,1/2+y,1/2+z
1/2-x,-y,1/2+z
1/2+x,1/2-y,1/2-z
1/2-x,y,1/2-z
1/2-x,1/2-y,1/2-z
1/2+x,y,1/2-z
1/2-x,1/2+y,1/2+z
1/2+x,-y,1/2+z
loop_
_atom_site_type_symbol
_atom_site_label
_atom_site_fract_x
_atom_site_fract_y
_atom_site_fract_z
Si Si1 0.687056 0.439489 0.624824
Si Si2 0.184402 0.250000 0.298726
Si Si3 0.812932 0.341393 0.546149
Si Si4 0.683491 0.382231 0.361682
Si Si5 0.325349 0.656842 0.951790
Si Si6 0.185935 0.660186 0.206053
O O1 0.500000 0.439318 0.621398
O O2 0.753207 0.401219 0.581754
O O3 0.734293 0.527233 0.637605
O O4 0.735948 0.384669 0.664000
O O5 0.250000 0.250000 0.250000
O O6 0.238344 0.174563 0.326763
O O7 0.000000 0.250000 0.296312
O O8 0.763237 0.250000 0.553824
O O9 0.764446 0.368963 0.498315
O O10 0.000000 0.340894 0.546083
O O11 0.500000 0.378125 0.354347
O O12 0.723259 0.356428 0.410128
O O13 0.500000 0.625203 0.944589
O O14 0.339489 0.750000 0.956805
O O15 0.239137 0.750000 0.203429
O O16 0.250000 0.625254 0.250000
O O17 0.000000 0.659445 0.207657
#
# Coordination Sequence:
#
# PCOD9539663 Si02
#       6
#    16   8  16  16  16  16
#     4  10  22  37  54  82 120 154 188 236 291 350
#     4  12  26  46  70  92 116 150 194 246 305 364
#     4   9  19  35  56  84 117 156 202 245 284 338
#     4  11  23  39  60  88 118 149 192 242 293 352
#     4   9  18  35  58  82 112 153 199 241 288 348
#     4   9  18  34  55  77 104 142 184 224 272 330
#
# _framework density 19.106874999999999
#
# number of rings (size 3 to 8) (size 9 to 14) (size 15 to 20)
#    0.000    2.182    0.909    3.000    0.000    5.455 
#    0.000    9.091    0.000    0.000    0.000    0.000 
#    0.000    0.000    0.000    0.000    0.000    0.000 
#
# Total GULP energy -245375.054406 kJ/mol
# GULP energy per Si atom -5576.705782 kJ/mol
# Density = 1.906339 g / cm^3
# Si number density = 19.106875 Si / 1000 Ang^3
#
#
#
# Elastic Constant Matrix: (Units=GPa)
#
#
# Indices 1 2 3 4 5 6 
#
# 1 38.1767 32.6619 40.3517 0.0000 0.0000 0.0000
# 2 32.6619 93.0122 76.9744 0.0000 0.0000 0.0000
# 3 40.3517 76.9744 180.1042 0.0000 0.0000 0.0000
# 4 0.0000 0.0000 0.0000 2.9878 0.0000 0.0000
# 5 0.0000 0.0000 0.0000 0.0000 30.2290 0.0000
# 6 0.0000 0.0000 0.0000 0.0000 0.0000 21.7825
#
#
#
# Elastic Compliance Matrix: (Units=1/GPa)
#
#
# Indices 1 2 3 4 5 6 
#
# 1 0.039710 -0.010183 -0.004545 0.000000 0.000000 0.000000
# 2 -0.010183 0.019246 -0.005944 0.000000 0.000000 0.000000
# 3 -0.004545 -0.005944 0.009111 0.000000 0.000000 0.000000
# 4 0.000000 0.000000 0.000000 0.334699 0.000000 0.000000
# 5 0.000000 0.000000 0.000000 0.000000 0.033081 0.000000
# 6 0.000000 0.000000 0.000000 0.000000 0.000000 0.045908
#
#
# Mechanical properties :
#
#
# Convention : Reuss Voigt Hill
#
# Bulk Modulus (GPa) = 37.42092 67.91880 52.66986
# Shear Modulus (GPa) = 9.39836 21.75353 15.57594
#
# Velocity S-wave (km/s) = 2.22025 3.37785 2.85827
# Velocity P-wave (km/s) = 5.11862 7.13002 6.20634
#
# Compressibility (1/GPa) = 0.02672302
#
# Stress axis : x y z
#
# Youngs Moduli (GPa) = 25.18265 51.95755 109.75744
#
# Poissons Ratio (x) = 0.52911 0.49880
# Poissons Ratio (y) = 0.25645 0.65242
# Poissons Ratio (z) = 0.11444 0.30884
#
# Static dielectric constant tensor:
#      x y z
#    x 1.679440 0.000000 0.000000 
#    y 0.000000 1.690820 0.000000 
#    z 0.000000 0.000000 1.668880 
# 
# From -- ./inp_files/70253.got.cif
#   From: 2010.05.17/outbox.cif.g08.bks.cpg/sg74_36_cif.got.tgz:70253.got - 2010.06.03 17:57:02.
