data_PCOD9539285
_publ_section_title
;
Structure prediction by ZEFSAII (Michael W. Deem and Ramdas Pophale) SiO2 
 PCOD9539285
Probable space group: I M M A
;
_chemical_formula_sum "Si O2"
_cell_formula_units_Z 72
_cell_length_a 8.761800
_cell_length_b 22.312181
_cell_length_c 19.971888
_cell_angle_alpha 90.000000
_cell_angle_beta 90.000000
_cell_angle_gamma 90.000000
_cell_volume 3904.401598
_symmetry_space_group_name_H-M "I M M A"
_symmetry_group_IT_number 74
_symmetry_cell_setting 'orthorhombic'
loop_
_space_group_symop_operation_xyz
x,y,z
-x,1/2-y,z
x,-y,-z
-x,1/2+y,-z
-x,-y,-z
x,1/2+y,-z
-x,y,z
x,1/2-y,z
1/2+x,1/2+y,1/2+z
1/2-x,-y,1/2+z
1/2+x,1/2-y,1/2-z
1/2-x,y,1/2-z
1/2-x,1/2-y,1/2-z
1/2+x,y,1/2-z
1/2-x,1/2+y,1/2+z
1/2+x,-y,1/2+z
loop_
_atom_site_type_symbol
_atom_site_label
_atom_site_fract_x
_atom_site_fract_y
_atom_site_fract_z
Si Si1 0.683540 0.861235 0.407623
Si Si2 0.682929 0.250000 0.824598
Si Si3 0.318000 0.606073 0.821989
Si Si4 0.317021 0.965817 0.177363
Si Si5 0.683790 0.819758 0.555627
O O1 0.500000 0.858216 0.401965
O O2 0.756360 0.808176 0.363773
O O3 0.744464 0.923497 0.378456
O O4 0.725594 0.850161 0.484993
O O5 0.500000 0.250000 0.822416
O O6 0.750000 0.250000 0.750000
O O7 0.500000 0.610783 0.819104
O O8 0.250000 0.623681 0.750000
O O9 0.278867 0.535854 0.833293
O O10 0.254300 0.645984 0.881764
O O11 0.500000 0.959223 0.178214
O O12 0.250000 0.948381 0.250000
O O13 0.500000 0.821653 0.560971
O O14 0.730177 0.750000 0.554109
#
# Coordination Sequence:
#
# PCOD9539285 Si02
#       5
#    16   8  16  16  16
#     4  11  22  39  60  85 119 157 198 241 291 349
#     4  12  24  38  58  84 117 158 201 244 290 342
#     4  10  22  40  63  89 118 152 195 245 296 354
#     4  10  21  38  59  87 120 155 197 244 294 348
#     4  10  22  41  62  85 118 156 196 243 293 351
#
# _framework density 18.440725
#
# number of rings (size 3 to 8) (size 9 to 14) (size 15 to 20)
#    0.000    1.556    1.111    3.667    0.000    6.222 
#    0.000    4.444    0.000    0.000    0.000    0.000 
#    0.000    0.000    0.000    0.000    0.000    0.000 
#
# Total GULP energy -201252.896158 kJ/mol
# GULP energy per Si atom -5590.358227 kJ/mol
# Density = 1.839875 g / cm^3
# Si number density = 18.440725 Si / 1000 Ang^3
#
#
#
# Elastic Constant Matrix: (Units=GPa)
#
#
# Indices 1 2 3 4 5 6 
#
# 1 65.7546 44.4633 67.1352 0.0000 0.0000 0.0000
# 2 44.4633 93.3251 104.1006 0.0000 0.0000 0.0000
# 3 67.1352 104.1006 204.0904 0.0000 0.0000 0.0000
# 4 0.0000 0.0000 0.0000 54.8122 0.0000 0.0000
# 5 0.0000 0.0000 0.0000 0.0000 36.9792 0.0000
# 6 0.0000 0.0000 0.0000 0.0000 0.0000 33.5177
#
#
#
# Elastic Compliance Matrix: (Units=1/GPa)
#
#
# Indices 1 2 3 4 5 6 
#
# 1 0.024346 -0.006185 -0.004854 0.000000 0.000000 0.000000
# 2 -0.006185 0.026431 -0.011447 0.000000 0.000000 0.000000
# 3 -0.004854 -0.011447 0.012335 0.000000 0.000000 0.000000
# 4 0.000000 0.000000 0.000000 0.018244 0.000000 0.000000
# 5 0.000000 0.000000 0.000000 0.000000 0.027042 0.000000
# 6 0.000000 0.000000 0.000000 0.000000 0.000000 0.029835
#
#
# Mechanical properties :
#
#
# Convention : Reuss Voigt Hill
#
# Bulk Modulus (GPa) = 55.12589 88.28537 71.70563
# Shear Modulus (GPa) = 26.41985 34.89321 30.65653
#
# Velocity S-wave (km/s) = 3.78920 4.35464 4.08172
# Velocity P-wave (km/s) = 7.00731 8.55938 7.82194
#
# Compressibility (1/GPa) = 0.01814030
#
# Stress axis : x y z
#
# Youngs Moduli (GPa) = 41.07430 37.83489 81.06906
#
# Poissons Ratio (x) = 0.23401 0.39349
# Poissons Ratio (y) = 0.25405 0.92799
# Poissons Ratio (z) = 0.19936 0.43309
#
# Static dielectric constant tensor:
#      x y z
#    x 1.616910 0.000000 0.000000 
#    y 0.000000 1.626030 0.000000 
#    z 0.000000 0.000000 1.597700 
# 
# From -- ./inp_files/39442.got.cif
#   From: 2010.05.17/outbox.cif.g08.bks.cpg/sg74_20_cif.got.tgz:39442.got - 2010.06.03 17:57:02.
