data_PCOD9539705
_publ_section_title
;
Structure prediction by ZEFSAII (Michael W. Deem and Ramdas Pophale) SiO2 
 PCOD9539705
Probable space group: I M M A
;
_chemical_formula_sum "Si O2"
_cell_formula_units_Z 56
_cell_length_a 7.545775
_cell_length_b 10.325457
_cell_length_c 30.138014
_cell_angle_alpha 90.000000
_cell_angle_beta 90.000000
_cell_angle_gamma 90.000000
_cell_volume 2348.160423
_symmetry_space_group_name_H-M "I M M A"
_symmetry_group_IT_number 74
_symmetry_cell_setting 'orthorhombic'
loop_
_space_group_symop_operation_xyz
x,y,z
-x,1/2-y,z
x,-y,-z
-x,1/2+y,-z
-x,-y,-z
x,1/2+y,-z
-x,y,z
x,1/2-y,z
1/2+x,1/2+y,1/2+z
1/2-x,-y,1/2+z
1/2+x,1/2-y,1/2-z
1/2-x,y,1/2-z
1/2-x,1/2-y,1/2-z
1/2+x,y,1/2-z
1/2-x,1/2+y,1/2+z
1/2+x,-y,1/2+z
loop_
_atom_site_type_symbol
_atom_site_label
_atom_site_fract_x
_atom_site_fract_y
_atom_site_fract_z
Si Si1 0.289145 0.250000 0.302041
Si Si2 0.214264 0.612543 0.104871
Si Si3 0.712813 0.032663 0.698459
Si Si4 0.291172 0.101599 0.036080
O O1 0.500000 0.250000 0.311167
O O2 0.250000 0.250000 0.250000
O O3 0.217896 0.389463 0.314602
O O4 0.272867 0.750000 0.083566
O O5 0.270204 0.614836 0.156418
O O6 0.273507 0.481477 0.081067
O O7 0.000000 0.610688 0.103404
O O8 0.500000 0.028892 0.697300
O O9 0.750000 0.066031 0.750000
O O10 0.500000 0.113879 0.026400
O O11 0.220322 0.250000 0.037549
O O12 0.213515 0.000000 0.000000
#
# Coordination Sequence:
#
# PCOD9539705 Si02
#       4
#     8  16  16  16
#     4   8  14  26  44  66  94 134 178 224 276 322
#     4  10  22  38  57  85 121 158 197 240 288 344
#     4   9  18  32  51  76 110 151 195 240 286 336
#     4  10  22  41  65  91 117 148 188 236 291 351
#
# _framework density 23.848454
#
# number of rings (size 3 to 8) (size 9 to 14) (size 15 to 20)
#    0.000    2.571    0.000    0.857    2.000    4.571 
#    0.000    0.000    0.000    0.000    0.000    0.000 
#    0.000    0.000    0.000    0.000    0.000    0.000 
#
# Total GULP energy -155933.292535 kJ/mol
# GULP energy per Si atom -5569.046162 kJ/mol
# Density = 2.379417 g / cm^3
# Si number density = 23.848454 Si / 1000 Ang^3
#
#
#
# Elastic Constant Matrix: (Units=GPa)
#
#
# Indices 1 2 3 4 5 6 
#
# 1 60.9983 9.8975 -6.8525 0.0000 0.0000 0.0000
# 2 9.8975 243.5585 77.3451 0.0000 0.0000 0.0000
# 3 -6.8525 77.3451 130.6716 0.0000 0.0000 0.0000
# 4 0.0000 0.0000 0.0000 33.1737 0.0000 0.0000
# 5 0.0000 0.0000 0.0000 0.0000 18.3454 0.0000
# 6 0.0000 0.0000 0.0000 0.0000 0.0000 38.3874
#
#
#
# Elastic Compliance Matrix: (Units=1/GPa)
#
#
# Indices 1 2 3 4 5 6 
#
# 1 0.016763 -0.001183 0.001579 0.000000 0.000000 0.000000
# 2 -0.001183 0.005140 -0.003104 0.000000 0.000000 0.000000
# 3 0.001579 -0.003104 0.009573 0.000000 0.000000 0.000000
# 4 0.000000 0.000000 0.000000 0.030144 0.000000 0.000000
# 5 0.000000 0.000000 0.000000 0.000000 0.054510 0.000000
# 6 0.000000 0.000000 0.000000 0.000000 0.000000 0.026050
#
#
# Mechanical properties :
#
#
# Convention : Reuss Voigt Hill
#
# Bulk Modulus (GPa) = 38.37258 66.22318 52.29788
# Shear Modulus (GPa) = 31.99342 41.63719 36.81531
#
# Velocity S-wave (km/s) = 3.66666 4.18294 3.93328
# Velocity P-wave (km/s) = 5.83532 7.15248 6.52721
#
# Compressibility (1/GPa) = 0.02606027
#
# Stress axis : x y z
#
# Youngs Moduli (GPa) = 59.65450 194.56675 104.46085
#
# Poissons Ratio (x) = 0.23011 -0.16495
# Poissons Ratio (y) = 0.07055 0.32427
# Poissons Ratio (z) = -0.09420 0.60397
#
# Static dielectric constant tensor:
#      x y z
#    x 1.855860 0.000000 0.000000 
#    y 0.000000 2.046080 0.000000 
#    z 0.000000 0.000000 1.928090 
# 
# From -- ./inp_files/63262.got.cif
#   From: 2010.05.17/outbox.cif.g08.bks.cpg/sg74_32_cif.got.tgz:63262.got - 2010.06.03 17:57:02.
