data_PCOD9539026
_publ_section_title
;
Structure prediction by ZEFSAII (Michael W. Deem and Ramdas Pophale) SiO2 
 PCOD9539026
Probable space group: I M M A
;
_chemical_formula_sum "Si O2"
_cell_formula_units_Z 56
_cell_length_a 27.239147
_cell_length_b 18.014160
_cell_length_c 4.950898
_cell_angle_alpha 90.000000
_cell_angle_beta 90.000000
_cell_angle_gamma 90.000000
_cell_volume 2429.357884
_symmetry_space_group_name_H-M "I M M A"
_symmetry_group_IT_number 74
_symmetry_cell_setting 'orthorhombic'
loop_
_space_group_symop_operation_xyz
x,y,z
-x,1/2-y,z
x,-y,-z
-x,1/2+y,-z
-x,-y,-z
x,1/2+y,-z
-x,y,z
x,1/2-y,z
1/2+x,1/2+y,1/2+z
1/2-x,-y,1/2+z
1/2+x,1/2-y,1/2-z
1/2-x,y,1/2-z
1/2-x,1/2-y,1/2-z
1/2+x,y,1/2-z
1/2-x,1/2+y,1/2+z
1/2+x,-y,1/2+z
loop_
_atom_site_type_symbol
_atom_site_label
_atom_site_fract_x
_atom_site_fract_y
_atom_site_fract_z
Si Si1 0.159987 0.836906 0.349849
Si Si2 0.195657 0.075760 0.136135
Si Si3 0.000000 0.054416 0.247193
Si Si4 0.946486 0.334090 0.542711
O O1 0.169084 0.750000 0.408784
O O2 0.168387 0.888359 0.609865
O O3 0.102020 0.846409 0.285294
O O4 0.193125 0.864505 0.103996
O O5 0.250000 0.060079 0.250000
O O6 0.176174 0.000000 0.000000
O O7 0.953565 0.108321 0.298100
O O8 0.000000 0.000000 0.500000
O O9 0.000000 0.000000 0.000000
O O10 0.942821 0.250000 0.437082
O O11 0.000000 0.339636 0.687482
#
# Coordination Sequence:
#
# PCOD9539026 Si02
#       4
#    16  16   8  16
#     4  11  24  43  71 104 136 181 236 291 346 408
#     4  12  26  46  70  98 138 182 227 285 364 436
#     4  10  21  36  59  92 128 174 232 280 319 374
#     4   8  19  43  65  93 139 187 226 273 337 406
#
# _framework density 23.051361
#
# number of rings (size 3 to 8) (size 9 to 14) (size 15 to 20)
#    0.857    0.857    0.000    4.286    0.000    9.143 
#    0.000    5.714    0.000    0.000    0.000    0.000 
#    0.000    0.000    0.000    0.000    0.000    0.000 
#
# Total GULP energy -156243.785907 kJ/mol
# GULP energy per Si atom -5580.135211 kJ/mol
# Density = 2.299889 g / cm^3
# Si number density = 23.051361 Si / 1000 Ang^3
#
#
#
# Elastic Constant Matrix: (Units=GPa)
#
#
# Indices 1 2 3 4 5 6 
#
# 1 42.1298 26.2888 27.2390 0.0000 0.0000 0.0000
# 2 26.2888 117.6793 42.4733 0.0000 0.0000 0.0000
# 3 27.2390 42.4733 125.0291 0.0000 0.0000 0.0000
# 4 0.0000 0.0000 0.0000 27.9216 0.0000 0.0000
# 5 0.0000 0.0000 0.0000 0.0000 24.0447 0.0000
# 6 0.0000 0.0000 0.0000 0.0000 0.0000 1050.1604
#
#
#
# Elastic Compliance Matrix: (Units=1/GPa)
#
#
# Indices 1 2 3 4 5 6 
#
# 1 0.029954 -0.004942 -0.004847 0.000000 0.000000 0.000000
# 2 -0.004942 0.010501 -0.002490 0.000000 0.000000 0.000000
# 3 -0.004847 -0.002490 0.009900 0.000000 0.000000 0.000000
# 4 0.000000 0.000000 0.000000 0.035815 0.000000 0.000000
# 5 0.000000 0.000000 0.000000 0.000000 0.041589 0.000000
# 6 0.000000 0.000000 0.000000 0.000000 0.000000 0.000952
#
#
# Mechanical properties :
#
#
# Convention : Reuss Voigt Hill
#
# Bulk Modulus (GPa) = 38.76632 52.98227 45.87430
# Shear Modulus (GPa) = 30.88939 233.01449 131.95194
#
# Velocity S-wave (km/s) = 3.66461 10.06501 7.57409
# Velocity P-wave (km/s) = 5.89573 12.57405 9.82004
#
# Compressibility (1/GPa) = 0.02579558
#
# Stress axis : x y z
#
# Youngs Moduli (GPa) = 33.38473 95.23306 101.00905
#
# Poissons Ratio (x) = 0.47065 0.48958
# Poissons Ratio (y) = 0.16499 0.25155
# Poissons Ratio (z) = 0.16181 0.23717
#
# Static dielectric constant tensor:
#      x y z
#    x 1.919300 0.000000 0.000000 
#    y 0.000000 1.918980 0.000000 
#    z 0.000000 0.000000 1.842240 
# 
# From -- ./inp_files/4261.got.cif
#   From: 2010.05.17/outbox.cif.g08.bks.cpg/sg74_3_cif.got.tgz:4261.got - 2010.06.03 17:57:02.
