data_PCOD9539077
_publ_section_title
;
Structure prediction by ZEFSAII (Michael W. Deem and Ramdas Pophale) SiO2 
 PCOD9539077
Probable space group: I M M A
;
_chemical_formula_sum "Si O2"
_cell_formula_units_Z 64
_cell_length_a 18.388931
_cell_length_b 18.083124
_cell_length_c 10.542285
_cell_angle_alpha 90.000000
_cell_angle_beta 90.000000
_cell_angle_gamma 90.000000
_cell_volume 3505.618857
_symmetry_space_group_name_H-M "I M M A"
_symmetry_group_IT_number 74
_symmetry_cell_setting 'orthorhombic'
loop_
_space_group_symop_operation_xyz
x,y,z
-x,1/2-y,z
x,-y,-z
-x,1/2+y,-z
-x,-y,-z
x,1/2+y,-z
-x,y,z
x,1/2-y,z
1/2+x,1/2+y,1/2+z
1/2-x,-y,1/2+z
1/2+x,1/2-y,1/2-z
1/2-x,y,1/2-z
1/2-x,1/2-y,1/2-z
1/2+x,y,1/2-z
1/2-x,1/2+y,1/2+z
1/2+x,-y,1/2+z
loop_
_atom_site_type_symbol
_atom_site_label
_atom_site_fract_x
_atom_site_fract_y
_atom_site_fract_z
Si Si1 0.083171 0.409955 0.504239
Si Si2 0.663585 0.905378 0.751946
Si Si3 0.085304 0.335147 0.020644
Si Si4 0.912589 0.563443 0.219346
O O1 0.083806 0.500000 0.500000
O O2 0.134361 0.383676 0.391357
O O3 0.103941 0.393363 0.649405
O O4 0.000000 0.386171 0.480772
O O5 0.750000 0.908595 0.750000
O O6 0.632617 0.852387 0.643600
O O7 0.629730 0.986220 0.721221
O O8 0.092974 0.250000 0.981582
O O9 0.000000 0.348212 0.051484
O O10 0.104357 0.389237 0.904743
O O11 0.000000 0.548688 0.221548
#
# Coordination Sequence:
#
# PCOD9539077 Si02
#       4
#    16  16  16  16
#     4   8  15  30  51  74 100 130 169 218 267 312
#     4  11  21  32  53  81 110 140 176 221 270 322
#     4  10  21  37  56  79 109 145 183 222 266 318
#     4   9  18  34  56  79 103 135 180 231 275 316
#
# _framework density 18.256405000000001
#
# number of rings (size 3 to 8) (size 9 to 14) (size 15 to 20)
#    0.000    2.500    0.000    4.500    0.000    8.500 
#    0.000    1.250    0.000    9.750    0.000    0.000 
#    0.000    0.000    0.000    0.000    0.000    0.000 
#
# Total GULP energy -178507.443692 kJ/mol
# GULP energy per Si atom -5578.357615 kJ/mol
# Density = 1.821485 g / cm^3
# Si number density = 18.256405 Si / 1000 Ang^3
#
#
#
# Elastic Constant Matrix: (Units=GPa)
#
#
# Indices 1 2 3 4 5 6 
#
# 1 50.1739 8.4763 24.6472 0.0000 0.0000 0.0000
# 2 8.4763 22.0793 0.1833 0.0000 0.0000 0.0000
# 3 24.6472 0.1833 70.2266 0.0000 0.0000 0.0000
# 4 0.0000 0.0000 0.0000 5.0385 0.0000 0.0000
# 5 0.0000 0.0000 0.0000 0.0000 36.6374 0.0000
# 6 0.0000 0.0000 0.0000 0.0000 0.0000 56.9116
#
#
#
# Elastic Compliance Matrix: (Units=1/GPa)
#
#
# Indices 1 2 3 4 5 6 
#
# 1 0.026097 -0.009943 -0.009133 0.000000 0.000000 0.000000
# 2 -0.009943 0.049080 0.003362 0.000000 0.000000 0.000000
# 3 -0.009133 0.003362 0.017436 0.000000 0.000000 0.000000
# 4 0.000000 0.000000 0.000000 0.198471 0.000000 0.000000
# 5 0.000000 0.000000 0.000000 0.000000 0.027294 0.000000
# 6 0.000000 0.000000 0.000000 0.000000 0.000000 0.017571
#
#
# Mechanical properties :
#
#
# Convention : Reuss Voigt Hill
#
# Bulk Modulus (GPa) = 16.34396 23.23258 19.78827
# Shear Modulus (GPa) = 12.89410 26.99571 19.94490
#
# Velocity S-wave (km/s) = 2.66047 3.84956 3.30887
# Velocity P-wave (km/s) = 4.29061 5.70194 5.04586
#
# Compressibility (1/GPa) = 0.06118467
#
# Stress axis : x y z
#
# Youngs Moduli (GPa) = 38.31861 20.37470 57.35154
#
# Poissons Ratio (x) = 0.20258 0.52381
# Poissons Ratio (y) = 0.38100 -0.19279
# Poissons Ratio (z) = 0.34997 -0.06849
#
# Static dielectric constant tensor:
#      x y z
#    x 1.607890 0.000000 0.000000 
#    y 0.000000 1.613340 0.000000 
#    z 0.000000 0.000000 1.654770 
# 
# From -- ./inp_files/10220.got.cif
#   From: 2010.05.17/outbox.cif.g08.bks.cpg/sg74_6_cif.got.tgz:10220.got - 2010.06.03 17:57:02.
