data_PCOD9539427
_publ_section_title
;
Structure prediction by ZEFSAII (Michael W. Deem and Ramdas Pophale) SiO2 
 PCOD9539427
Probable space group: I M M A
;
_chemical_formula_sum "Si O2"
_cell_formula_units_Z 104
_cell_length_a 14.145668
_cell_length_b 21.941865
_cell_length_c 15.795517
_cell_angle_alpha 90.000000
_cell_angle_beta 90.000000
_cell_angle_gamma 90.000000
_cell_volume 4902.649490
_symmetry_space_group_name_H-M "I M M A"
_symmetry_group_IT_number 74
_symmetry_cell_setting 'orthorhombic'
loop_
_space_group_symop_operation_xyz
x,y,z
-x,1/2-y,z
x,-y,-z
-x,1/2+y,-z
-x,-y,-z
x,1/2+y,-z
-x,y,z
x,1/2-y,z
1/2+x,1/2+y,1/2+z
1/2-x,-y,1/2+z
1/2+x,1/2-y,1/2-z
1/2-x,y,1/2-z
1/2-x,1/2-y,1/2-z
1/2+x,y,1/2-z
1/2-x,1/2+y,1/2+z
1/2+x,-y,1/2+z
loop_
_atom_site_type_symbol
_atom_site_label
_atom_site_fract_x
_atom_site_fract_y
_atom_site_fract_z
Si Si1 0.607774 0.884253 0.158285
Si Si2 0.262720 0.050289 0.557113
Si Si3 0.111365 0.869886 0.759648
Si Si4 0.609844 0.750000 0.151201
Si Si5 0.888974 0.504823 0.211014
Si Si6 0.886557 0.138504 0.045678
Si Si7 0.823160 0.750000 0.673634
Si Si8 0.270544 0.750000 0.490902
O O1 0.500000 0.886861 0.124119
O O2 0.687702 0.900112 0.089877
O O3 0.620809 0.815933 0.195549
O O4 0.615706 0.937717 0.226726
O O5 0.317674 0.020129 0.635600
O O6 0.342267 0.079085 0.496468
O O7 0.211046 0.000000 0.500000
O O8 0.145297 0.855257 0.855781
O O9 0.129886 0.815950 0.693261
O O10 0.000000 0.870613 0.767547
O O11 0.137992 0.940551 0.744206
O O12 0.500000 0.750000 0.119543
O O13 0.690487 0.750000 0.080047
O O14 0.000000 0.499558 0.182798
O O15 0.840294 0.192681 0.992522
O O16 0.000000 0.139215 0.042154
O O17 0.750000 0.750000 0.750000
O O18 0.784202 0.750000 0.580020
#
# Coordination Sequence:
#
# PCOD9539427 Si02
#       8
#    16  16  16   8  16  16   8   8
#     4  10  23  44  67  92 126 169 216 270 327 384
#     4  12  23  38  65  98 129 168 213 263 321 389
#     4  10  21  39  60  88 128 171 212 258 314 376
#     4  10  22  45  70  88 119 163 217 272 322 375
#     4  10  22  41  65  96 130 167 213 266 322 384
#     4  11  22  38  62  93 130 167 205 258 319 387
#     4  12  23  34  58  88 122 169 218 257 302 378
#     4  12  23  41  62  91 127 167 215 261 326 375
#
# _framework density 21.213021000000001
#
# number of rings (size 3 to 8) (size 9 to 14) (size 15 to 20)
#    0.000    1.231    4.615    1.385    0.000    5.231 
#    0.000    2.308    0.000    1.846    0.000    0.000 
#    0.000    0.000    0.000    0.000    0.000    0.000 
#
# Total GULP energy -289997.863185 kJ/mol
# GULP energy per Si atom -5576.881984 kJ/mol
# Density = 2.116474 g / cm^3
# Si number density = 21.213021 Si / 1000 Ang^3
#
#
#
# Elastic Constant Matrix: (Units=GPa)
#
#
# Indices 1 2 3 4 5 6 
#
# 1 80.4732 36.9645 20.3010 -0.0001 0.0000 -0.0001
# 2 36.9645 160.4165 16.5319 0.0001 0.0000 0.0002
# 3 20.3010 16.5319 24.0447 0.0003 -0.0001 0.0005
# 4 -0.0001 0.0001 0.0003 28.7217 -0.0001 0.0003
# 5 0.0000 0.0000 -0.0001 -0.0001 22.9223 -0.0001
# 6 -0.0001 0.0002 0.0005 0.0003 -0.0001 -40.5237
#
#
#
# Elastic Compliance Matrix: (Units=1/GPa)
#
#
# Indices 1 2 3 4 5 6 
#
# 1 0.016728 -0.002582 -0.012348 0.000000 0.000000 0.000000
# 2 -0.002582 0.007108 -0.002707 0.000000 0.000000 0.000000
# 3 -0.012348 -0.002707 0.053876 -0.000001 0.000000 0.000001
# 4 0.000000 0.000000 -0.000001 0.034817 0.000000 0.000000
# 5 0.000000 0.000000 0.000000 0.000000 0.043626 0.000000
# 6 0.000000 0.000000 0.000001 0.000000 0.000000 -0.024677
#
#
# Mechanical properties :
#
#
# Convention : Reuss Voigt Hill
#
# Bulk Modulus (GPa) = 23.56411 45.83657 34.70034
# Shear Modulus (GPa) = 27.64018 14.96651 21.30335
#
# Velocity S-wave (km/s) = 3.61360 2.65907 3.17244
# Velocity P-wave (km/s) = 5.34259 5.57514 5.46010
#
# Compressibility (1/GPa) = 0.04243742
#
# Stress axis : x y z
#
# Youngs Moduli (GPa) = 59.78177 140.69259 18.56122
#
# Poissons Ratio (x) = 0.36326 0.22919
# Poissons Ratio (y) = 0.15435 0.05024
# Poissons Ratio (z) = 0.73818 0.38085
#
# Static dielectric constant tensor:
#      x y z
#    x 1.775750 0.000000 0.000000 
#    y 0.000000 1.881910 0.000000 
#    z 0.000000 0.000000 1.748810 
# 
# From -- ./inp_files/43040.got.cif
#   From: 2010.05.17/outbox.cif.g08.bks.cpg/sg74_22_cif.got.tgz:43040.got - 2010.06.03 17:57:02.
