data_PCOD9539753
_publ_section_title
;
Structure prediction by ZEFSAII (Michael W. Deem and Ramdas Pophale) SiO2 
 PCOD9539753
Probable space group: I M M A
;
_chemical_formula_sum "Si O2"
_cell_formula_units_Z 96
_cell_length_a 15.334609
_cell_length_b 13.826439
_cell_length_c 24.058137
_cell_angle_alpha 90.000000
_cell_angle_beta 90.000000
_cell_angle_gamma 90.000000
_cell_volume 5100.879245
_symmetry_space_group_name_H-M "I M M A"
_symmetry_group_IT_number 74
_symmetry_cell_setting 'orthorhombic'
loop_
_space_group_symop_operation_xyz
x,y,z
-x,1/2-y,z
x,-y,-z
-x,1/2+y,-z
-x,-y,-z
x,1/2+y,-z
-x,y,z
x,1/2-y,z
1/2+x,1/2+y,1/2+z
1/2-x,-y,1/2+z
1/2+x,1/2-y,1/2-z
1/2-x,y,1/2-z
1/2-x,1/2-y,1/2-z
1/2+x,y,1/2-z
1/2-x,1/2+y,1/2+z
1/2+x,-y,1/2+z
loop_
_atom_site_type_symbol
_atom_site_label
_atom_site_fract_x
_atom_site_fract_y
_atom_site_fract_z
Si Si1 0.103093 0.639846 0.877599
Si Si2 0.896875 0.640626 0.744098
Si Si3 0.181354 0.864936 0.506506
Si Si4 0.256477 0.491350 0.584873
Si Si5 0.500000 0.865290 0.179128
Si Si6 0.000000 0.133776 0.553101
Si Si7 0.183221 0.549388 0.297143
O O1 0.131636 0.750000 0.893339
O O2 0.114023 0.631642 0.810741
O O3 0.155390 0.551917 0.905081
O O4 0.000000 0.633420 0.889091
O O5 0.874943 0.750000 0.728035
O O6 0.837945 0.563020 0.713879
O O7 0.000000 0.624613 0.732439
O O8 0.189731 0.750000 0.512197
O O9 0.192012 0.923707 0.563318
O O10 0.087860 0.889074 0.479555
O O11 0.251899 0.910672 0.463519
O O12 0.224189 0.443152 0.641787
O O13 0.500000 0.750000 0.177584
O O14 0.500000 0.905438 0.115732
O O15 0.589661 0.899420 0.206581
O O16 0.000000 0.250000 0.558500
O O17 0.250000 0.583512 0.250000
#
# Coordination Sequence:
#
# PCOD9539753 Si02
#       7
#    16  16  16  16   8   8  16
#     4   9  18  35  58  82 115 158 197 236 297 372
#     4   9  18  33  53  80 119 159 190 231 293 363
#     4  10  22  39  58  84 119 155 201 252 300 362
#     4  11  22  35  60  90 113 155 202 251 308 363
#     4  11  24  43  64  88 124 170 213 254 307 367
#     4   9  18  38  62  79 111 163 202 244 305 359
#     4  12  23  37  61  92 125 159 203 256 303 367
#
# _framework density 18.820284000000001
#
# number of rings (size 3 to 8) (size 9 to 14) (size 15 to 20)
#    0.000    1.833    4.167    1.500    0.000    4.000 
#    0.000    1.667    0.000    1.500    0.000    0.000 
#    0.000    0.000    0.000    0.000    0.000    0.000 
#
# Total GULP energy -267823.707482 kJ/mol
# GULP energy per Si atom -5579.660573 kJ/mol
# Density = 1.877745 g / cm^3
# Si number density = 18.820284 Si / 1000 Ang^3
#
#
#
# Elastic Constant Matrix: (Units=GPa)
#
#
# Indices 1 2 3 4 5 6 
#
# 1 71.5749 10.1843 20.9156 0.0000 0.0000 0.0000
# 2 10.1843 59.1474 1.2591 0.0000 0.0000 0.0000
# 3 20.9156 1.2591 64.9902 0.0000 0.0000 0.0000
# 4 0.0000 0.0000 0.0000 26.1794 0.0000 0.0000
# 5 0.0000 0.0000 0.0000 0.0000 19.5892 0.0000
# 6 0.0000 0.0000 0.0000 0.0000 0.0000 21.7549
#
#
#
# Elastic Compliance Matrix: (Units=1/GPa)
#
#
# Indices 1 2 3 4 5 6 
#
# 1 0.015816 -0.002616 -0.005039 0.000000 0.000000 0.000000
# 2 -0.002616 0.017347 0.000506 0.000000 0.000000 0.000000
# 3 -0.005039 0.000506 0.016999 0.000000 0.000000 0.000000
# 4 0.000000 0.000000 0.000000 0.038198 0.000000 0.000000
# 5 0.000000 0.000000 0.000000 0.000000 0.051049 0.000000
# 6 0.000000 0.000000 0.000000 0.000000 0.000000 0.045967
#
#
# Mechanical properties :
#
#
# Convention : Reuss Voigt Hill
#
# Bulk Modulus (GPa) = 27.88426 28.93674 28.41050
# Shear Modulus (GPa) = 23.62633 24.39493 24.01063
#
# Velocity S-wave (km/s) = 3.54696 3.60419 3.57569
# Velocity P-wave (km/s) = 5.62341 5.72092 5.67238
#
# Compressibility (1/GPa) = 0.03586253
#
# Stress axis : x y z
#
# Youngs Moduli (GPa) = 63.22618 57.64821 58.82716
#
# Poissons Ratio (x) = 0.15081 0.29645
# Poissons Ratio (y) = 0.16540 -0.02976
# Poissons Ratio (z) = 0.31862 -0.02916
#
# Static dielectric constant tensor:
#      x y z
#    x 1.677680 0.000000 0.000000 
#    y 0.000000 1.654990 0.000000 
#    z 0.000000 0.000000 1.659370 
# 
# From -- ./inp_files/60016.got.cif
#   From: 2010.05.17/outbox.cif.g08.bks.cpg/sg74_31_cif.got.tgz:60016.got - 2010.06.03 17:57:02.
