data_PCOD9539493
_publ_section_title
;
Structure prediction by ZEFSAII (Michael W. Deem and Ramdas Pophale) SiO2 
 PCOD9539493
Probable space group: I M M A
;
_chemical_formula_sum "Si O2"
_cell_formula_units_Z 112
_cell_length_a 29.568888
_cell_length_b 15.473678
_cell_length_c 11.660716
_cell_angle_alpha 90.000000
_cell_angle_beta 90.000000
_cell_angle_gamma 90.000000
_cell_volume 5335.237605
_symmetry_space_group_name_H-M "I M M A"
_symmetry_group_IT_number 74
_symmetry_cell_setting 'orthorhombic'
loop_
_space_group_symop_operation_xyz
x,y,z
-x,1/2-y,z
x,-y,-z
-x,1/2+y,-z
-x,-y,-z
x,1/2+y,-z
-x,y,z
x,1/2-y,z
1/2+x,1/2+y,1/2+z
1/2-x,-y,1/2+z
1/2+x,1/2-y,1/2-z
1/2-x,y,1/2-z
1/2-x,1/2-y,1/2-z
1/2+x,y,1/2-z
1/2-x,1/2+y,1/2+z
1/2+x,-y,1/2+z
loop_
_atom_site_type_symbol
_atom_site_label
_atom_site_fract_x
_atom_site_fract_y
_atom_site_fract_z
Si Si1 0.238948 0.905805 0.029128
Si Si2 0.081206 0.645142 0.061588
Si Si3 0.166615 0.393965 0.786497
Si Si4 0.369496 0.929602 0.821077
Si Si5 0.335911 0.341409 0.970795
Si Si6 0.052816 0.960732 0.838757
Si Si7 0.795209 0.651146 0.811150
O O1 0.214891 0.893257 0.150355
O O2 0.282150 0.846864 0.007430
O O3 0.200691 0.894260 0.933055
O O4 0.257832 0.000000 0.000000
O O5 0.067981 0.750000 0.062624
O O6 0.130265 0.639999 0.121547
O O7 0.056787 0.564408 0.131785
O O8 0.076367 0.601588 0.935212
O O9 0.155427 0.489916 0.741084
O O10 0.161641 0.345868 0.666290
O O11 0.420420 0.939579 0.777817
O O12 0.339766 0.854217 0.763747
O O13 0.361369 0.913545 0.955052
O O14 0.354994 0.250000 0.008258
O O15 0.000000 0.939583 0.837073
O O16 0.785296 0.750000 0.836859
O O17 0.750000 0.614316 0.750000
#
# Coordination Sequence:
#
# PCOD9539493 Si02
#       7
#    16  16  16  16  16  16  16
#     4  12  23  37  59  86 125 169 216 267 319 378
#     4  10  21  39  65  96 135 171 205 266 341 402
#     4  11  24  39  61  90 124 169 218 266 319 394
#     4  11  22  42  63  87 126 168 211 267 325 386
#     4  12  26  40  57  85 124 172 221 267 322 384
#     4  10  23  41  68 103 130 162 218 274 329 402
#     4  11  22  37  60  89 122 165 215 261 314 384
#
# _framework density 20.992505999999999
#
# number of rings (size 3 to 8) (size 9 to 14) (size 15 to 20)
#    0.000    1.000    2.857    4.714    2.000    6.286 
#    0.000    0.000    0.000    7.714    0.000    0.000 
#    0.000    0.000    0.000    0.000    0.000    0.000 
#
# Total GULP energy -311893.977328 kJ/mol
# GULP energy per Si atom -5569.535309 kJ/mol
# Density = 2.094473 g / cm^3
# Si number density = 20.992506 Si / 1000 Ang^3
#
#
#
# Elastic Constant Matrix: (Units=GPa)
#
#
# Indices 1 2 3 4 5 6 
#
# 1 73.0770 27.2068 41.8695 0.0000 0.0000 0.0000
# 2 27.2068 123.8656 46.6976 0.0000 0.0000 0.0000
# 3 41.8695 46.6976 111.2136 0.0000 0.0000 0.0000
# 4 0.0000 0.0000 0.0000 32.9139 0.0000 0.0000
# 5 0.0000 0.0000 0.0000 0.0000 9.9242 0.0000
# 6 0.0000 0.0000 0.0000 0.0000 0.0000 12.0254
#
#
#
# Elastic Compliance Matrix: (Units=1/GPa)
#
#
# Indices 1 2 3 4 5 6 
#
# 1 0.017723 -0.001636 -0.005985 0.000000 0.000000 0.000000
# 2 -0.001636 0.009743 -0.003475 0.000000 0.000000 0.000000
# 3 -0.005985 -0.003475 0.012704 0.000000 0.000000 0.000000
# 4 0.000000 0.000000 0.000000 0.030382 0.000000 0.000000
# 5 0.000000 0.000000 0.000000 0.000000 0.100764 0.000000
# 6 0.000000 0.000000 0.000000 0.000000 0.000000 0.083158
#
#
# Mechanical properties :
#
#
# Convention : Reuss Voigt Hill
#
# Bulk Modulus (GPa) = 55.62730 59.96712 57.79721
# Shear Modulus (GPa) = 17.68923 23.79817 20.74370
#
# Velocity S-wave (km/s) = 2.90598 3.37063 3.14689
# Velocity P-wave (km/s) = 6.14946 6.61635 6.38717
#
# Compressibility (1/GPa) = 0.01797679
#
# Stress axis : x y z
#
# Youngs Moduli (GPa) = 56.42524 102.64093 78.71537
#
# Poissons Ratio (x) = 0.16796 0.47112
# Poissons Ratio (y) = 0.09233 0.27352
# Poissons Ratio (z) = 0.33771 0.35666
#
# Static dielectric constant tensor:
#      x y z
#    x 1.715510 0.000000 0.000000 
#    y 0.000000 1.876910 0.000000 
#    z 0.000000 0.000000 1.845420 
# 
# From -- ./inp_files/27218.got.cif
#   From: 2010.05.17/outbox.cif.g08.bks.cpg/sg74_14_cif.got.tgz:27218.got - 2010.06.03 17:57:02.
