data_PCOD9539749
_publ_section_title
;
Structure prediction by ZEFSAII (Michael W. Deem and Ramdas Pophale) SiO2 
 PCOD9539749
Probable space group: I M M A
;
_chemical_formula_sum "Si O2"
_cell_formula_units_Z 96
_cell_length_a 9.034820
_cell_length_b 29.908623
_cell_length_c 16.932888
_cell_angle_alpha 90.000000
_cell_angle_beta 90.000000
_cell_angle_gamma 90.000000
_cell_volume 4575.588490
_symmetry_space_group_name_H-M "I M M A"
_symmetry_group_IT_number 74
_symmetry_cell_setting 'orthorhombic'
loop_
_space_group_symop_operation_xyz
x,y,z
-x,1/2-y,z
x,-y,-z
-x,1/2+y,-z
-x,-y,-z
x,1/2+y,-z
-x,y,z
x,1/2-y,z
1/2+x,1/2+y,1/2+z
1/2-x,-y,1/2+z
1/2+x,1/2-y,1/2-z
1/2-x,y,1/2-z
1/2-x,1/2-y,1/2-z
1/2+x,y,1/2-z
1/2-x,1/2+y,1/2+z
1/2+x,-y,1/2+z
loop_
_atom_site_type_symbol
_atom_site_label
_atom_site_fract_x
_atom_site_fract_y
_atom_site_fract_z
Si Si1 0.160925 0.300743 0.935000
Si Si2 0.178223 0.487430 0.329584
Si Si3 0.672502 0.799354 0.624777
Si Si4 0.830034 0.135566 0.668999
Si Si5 0.179884 0.899570 0.889173
Si Si6 0.322801 0.939839 0.047377
O O1 0.160585 0.250000 0.906582
O O2 0.289921 0.326997 0.894242
O O3 0.000000 0.321513 0.916047
O O4 0.173511 0.299324 0.029229
O O5 0.250000 0.507954 0.250000
O O6 0.248684 0.438373 0.336959
O O7 0.212237 0.511689 0.414121
O O8 0.000000 0.486968 0.322187
O O9 0.500000 0.799033 0.650231
O O10 0.735771 0.750000 0.649304
O O11 0.730612 0.849816 0.639853
O O12 0.750000 0.143399 0.750000
O O13 0.793582 0.089903 0.624959
O O14 0.000000 0.135098 0.686930
O O15 0.000000 0.900073 0.888347
O O16 0.236212 0.914815 0.976811
O O17 0.500000 0.938956 0.028403
#
# Coordination Sequence:
#
# PCOD9539749 Si02
#       6
#    16  16  16  16  16  16
#     4   9  17  32  52  72  99 138 183 230 281 333
#     4  11  24  42  61  83 117 154 191 236 287 341
#     4   8  15  30  54  84 115 146 182 227 278 331
#     4  11  22  34  50  72 103 142 188 235 284 333
#     4  11  21  35  62  93 118 149 190 233 279 338
#     4  10  22  39  57  81 113 151 190 235 283 329
#
# _framework density 20.980906999999998
#
# number of rings (size 3 to 8) (size 9 to 14) (size 15 to 20)
#    0.000    2.000    1.667    3.500    0.000    4.667 
#    0.000    0.000    0.000    2.500    0.000    0.000 
#    0.000    0.000    0.000    0.000    0.000    0.000 
#
# Total GULP energy -267392.837281 kJ/mol
# GULP energy per Si atom -5570.684110 kJ/mol
# Density = 2.093315 g / cm^3
# Si number density = 20.980907 Si / 1000 Ang^3
#
#
#
# Elastic Constant Matrix: (Units=GPa)
#
#
# Indices 1 2 3 4 5 6 
#
# 1 -2126.8041 133.0394 -19.7607 0.0010 0.0001 0.0000
# 2 133.0394 112.0917 4.8286 -0.0003 0.0000 0.0000
# 3 -19.7607 4.8286 58.0153 -0.0021 -0.0001 0.0001
# 4 0.0010 -0.0003 -0.0021 -34.9713 -0.0001 0.0002
# 5 0.0001 0.0000 -0.0001 -0.0001 22.0200 -0.0001
# 6 0.0000 0.0000 0.0001 0.0002 -0.0001 22.8488
#
#
#
# Elastic Compliance Matrix: (Units=1/GPa)
#
#
# Indices 1 2 3 4 5 6 
#
# 1 -0.000436 0.000525 -0.000192 0.000000 0.000000 0.000000
# 2 0.000525 0.008320 -0.000514 0.000000 0.000000 0.000000
# 3 -0.000192 -0.000514 0.017214 -0.000001 0.000000 0.000000
# 4 0.000000 0.000000 -0.000001 -0.028595 0.000000 0.000000
# 5 0.000000 0.000000 0.000000 0.000000 0.045413 0.000000
# 6 0.000000 0.000000 0.000000 0.000000 0.000000 0.043766
#
#
# Mechanical properties :
#
#
# Convention : Reuss Voigt Hill
#
# Bulk Modulus (GPa) = 40.42401 -191.16471 -75.37035
# Shear Modulus (GPa) = 53.02797 -136.34081 -41.65642
#
# Velocity S-wave (km/s) = 5.03282 -8.06997 -4.46067
# Velocity P-wave (km/s) = 7.28569 13.34706 7.90768
#
# Compressibility (1/GPa) = 0.02473777
#
# Stress axis : x y z
#
# Youngs Moduli (GPa) = -2295.94729 120.19205 58.09170
#
# Poissons Ratio (x) = -0.06313 0.01116
# Poissons Ratio (y) = 1.20588 0.02983
# Poissons Ratio (z) = -0.44098 0.06173
#
# Static dielectric constant tensor:
#      x y z
#    x 1.738240 0.000000 0.000000 
#    y 0.000000 1.877900 0.000000 
#    z 0.000000 0.000000 1.743810 
# 
# From -- ./inp_files/49107.got.cif
#   From: 2010.05.17/outbox.cif.g08.bks.cpg/sg74_25_cif.got.tgz:49107.got - 2010.06.03 17:57:02.
