data_PCOD9539945
_publ_section_title
;
Structure prediction by ZEFSAII (Michael W. Deem and Ramdas Pophale) SiO2 
 PCOD9539945
Probable space group: I M M A
;
_chemical_formula_sum "Si O2"
_cell_formula_units_Z 56
_cell_length_a 10.045432
_cell_length_b 10.953527
_cell_length_c 26.670005
_cell_angle_alpha 90.000000
_cell_angle_beta 90.000000
_cell_angle_gamma 90.000000
_cell_volume 2934.578277
_symmetry_space_group_name_H-M "I M M A"
_symmetry_group_IT_number 74
_symmetry_cell_setting 'orthorhombic'
loop_
_space_group_symop_operation_xyz
x,y,z
-x,1/2-y,z
x,-y,-z
-x,1/2+y,-z
-x,-y,-z
x,1/2+y,-z
-x,y,z
x,1/2-y,z
1/2+x,1/2+y,1/2+z
1/2-x,-y,1/2+z
1/2+x,1/2-y,1/2-z
1/2-x,y,1/2-z
1/2-x,1/2-y,1/2-z
1/2+x,y,1/2-z
1/2-x,1/2+y,1/2+z
1/2+x,-y,1/2+z
loop_
_atom_site_type_symbol
_atom_site_label
_atom_site_fract_x
_atom_site_fract_y
_atom_site_fract_z
Si Si1 0.000000 0.608070 0.826040
Si Si2 0.000000 0.398726 0.290578
Si Si3 0.159151 0.108235 0.536685
Si Si4 0.844316 0.250000 0.797278
Si Si5 0.240897 0.485591 0.645735
O O1 0.000000 0.559578 0.767953
O O2 0.132248 0.573536 0.856024
O O3 0.000000 0.750000 0.817994
O O4 0.128093 0.453037 0.319446
O O5 0.000000 0.250000 0.293516
O O6 0.208717 0.250000 0.530653
O O7 0.184935 0.058435 0.592633
O O8 0.000000 0.115194 0.528883
O O9 0.210765 0.000000 0.500000
O O10 0.750000 0.250000 0.750000
O O11 0.803791 0.132499 0.828522
O O12 0.000000 0.250000 0.784877
#
# Coordination Sequence:
#
# PCOD9539945 Si02
#       5
#     8   8  16   8  16
#     4  11  24  41  60  91 136 176 216 265 321 396
#     4  11  24  41  64  95 132 180 224 265 321 402
#     4  10  22  42  66  95 128 166 218 281 335 396
#     4  12  26  40  66 100 138 178 220 266 325 398
#     4  12  23  41  65  94 132 171 218 270 333 394
#
# _framework density 19.082811
#
# number of rings (size 3 to 8) (size 9 to 14) (size 15 to 20)
#    0.000    0.857    4.286    3.429    2.000    4.571 
#    0.000    0.714    0.000    0.000    0.000    0.000 
#    0.000    0.000    0.000    0.000    0.000    0.000 
#
# Total GULP energy -156239.644855 kJ/mol
# GULP energy per Si atom -5579.987316 kJ/mol
# Density = 1.903938 g / cm^3
# Si number density = 19.082811 Si / 1000 Ang^3
#
#
#
# Elastic Constant Matrix: (Units=GPa)
#
#
# Indices 1 2 3 4 5 6 
#
# 1 82.0220 27.7122 -13.3342 0.0000 0.0000 0.0000
# 2 27.7122 124.8150 41.4914 0.0000 0.0000 0.0000
# 3 -13.3342 41.4914 58.5823 0.0000 0.0000 0.0000
# 4 0.0000 0.0000 0.0000 -2.7337 0.0000 0.0000
# 5 0.0000 0.0000 0.0000 0.0000 6.4544 0.0000
# 6 0.0000 0.0000 0.0000 0.0000 0.0000 28.8676
#
#
#
# Elastic Compliance Matrix: (Units=1/GPa)
#
#
# Indices 1 2 3 4 5 6 
#
# 1 0.015499 -0.006035 0.007802 0.000000 0.000000 0.000000
# 2 -0.006035 0.012829 -0.010460 0.000000 0.000000 0.000000
# 3 0.007802 -0.010460 0.026254 0.000000 0.000000 0.000000
# 4 0.000000 0.000000 0.000000 -0.365801 0.000000 0.000000
# 5 0.000000 0.000000 0.000000 0.000000 0.154933 0.000000
# 6 0.000000 0.000000 0.000000 0.000000 0.000000 0.034641
#
#
# Mechanical properties :
#
#
# Convention : Reuss Voigt Hill
#
# Bulk Modulus (GPa) = 26.88389 41.90645 34.39517
# Shear Modulus (GPa) = -54.42959 20.48765 -16.97097
#
# Velocity S-wave (km/s) = -5.34647 3.28017 -2.98540
# Velocity P-wave (km/s) = 4.89841 6.02943 2.48592
#
# Compressibility (1/GPa) = 0.03719700
#
# Stress axis : x y z
#
# Youngs Moduli (GPa) = 64.51971 77.94971 38.08942
#
# Poissons Ratio (x) = 0.47041 -0.29717
# Poissons Ratio (y) = 0.38936 0.39840
# Poissons Ratio (z) = -0.50338 0.81533
#
# Static dielectric constant tensor:
#      x y z
#    x 1.640210 0.000000 0.000000 
#    y 0.000000 1.788350 0.000000 
#    z 0.000000 0.000000 1.649520 
# 
# From -- ./inp_files/63296.got.cif
#   From: 2010.05.17/outbox.cif.g08.bks.cpg/sg74_32_cif.got.tgz:63296.got - 2010.06.03 17:57:02.
