data_PCOD9539831
_publ_section_title
;
Structure prediction by ZEFSAII (Michael W. Deem and Ramdas Pophale) SiO2 
 PCOD9539831
Probable space group: I M M A
;
_chemical_formula_sum "Si O2"
_cell_formula_units_Z 64
_cell_length_a 18.219990
_cell_length_b 25.050679
_cell_length_c 7.314519
_cell_angle_alpha 90.000000
_cell_angle_beta 90.000000
_cell_angle_gamma 90.000000
_cell_volume 3338.515590
_symmetry_space_group_name_H-M "I M M A"
_symmetry_group_IT_number 74
_symmetry_cell_setting 'orthorhombic'
loop_
_space_group_symop_operation_xyz
x,y,z
-x,1/2-y,z
x,-y,-z
-x,1/2+y,-z
-x,-y,-z
x,1/2+y,-z
-x,y,z
x,1/2-y,z
1/2+x,1/2+y,1/2+z
1/2-x,-y,1/2+z
1/2+x,1/2-y,1/2-z
1/2-x,y,1/2-z
1/2-x,1/2-y,1/2-z
1/2+x,y,1/2-z
1/2-x,1/2+y,1/2+z
1/2+x,-y,1/2+z
loop_
_atom_site_type_symbol
_atom_site_label
_atom_site_fract_x
_atom_site_fract_y
_atom_site_fract_z
Si Si1 0.583867 0.498186 0.777783
Si Si2 0.912318 0.117591 0.648121
Si Si3 0.162824 0.105590 0.257363
Si Si4 0.412252 0.188243 0.514973
O O1 0.500000 0.507892 0.718955
O O2 0.604856 0.437034 0.740392
O O3 0.634179 0.545960 0.709832
O O4 0.584750 0.500000 0.000000
O O5 0.867468 0.117724 0.461174
O O6 0.898153 0.167208 0.779814
O O7 0.000000 0.115052 0.606004
O O8 0.250000 0.106866 0.250000
O O9 0.128827 0.149395 0.123377
O O10 0.500000 0.183181 0.484638
O O11 0.391845 0.250000 0.492730
#
# Coordination Sequence:
#
# PCOD9539831 Si02
#       4
#    16  16  16  16
#     4   8  15  33  58  81 109 147 191 233 280 340
#     4   9  19  39  62  82 112 153 196 244 291 332
#     4  11  22  36  55  89 122 155 180 230 297 358
#     4  10  22  40  62  86 109 147 208 252 277 331
#
# _framework density 19.170196000000001
#
# number of rings (size 3 to 8) (size 9 to 14) (size 15 to 20)
#    0.000    2.500    0.000    3.750    0.000    3.500 
#   13.500    7.500    0.000    0.000    0.000    0.000 
#    0.000    0.000    0.000    0.000    0.000    0.000 
#
# Total GULP energy -178660.744576 kJ/mol
# GULP energy per Si atom -5583.148268 kJ/mol
# Density = 1.912656 g / cm^3
# Si number density = 19.170196 Si / 1000 Ang^3
#
#
#
# Elastic Constant Matrix: (Units=GPa)
#
#
# Indices 1 2 3 4 5 6 
#
# 1 81.6898 56.9101 59.2284 0.0000 0.0000 0.0000
# 2 56.9101 106.6701 38.7546 0.0000 0.0000 0.0000
# 3 59.2284 38.7546 87.2433 0.0000 0.0000 0.0000
# 4 0.0000 0.0000 0.0000 28.1517 0.0000 0.0000
# 5 0.0000 0.0000 0.0000 0.0000 10.8103 0.0000
# 6 0.0000 0.0000 0.0000 0.0000 0.0000 -1.1908
#
#
#
# Elastic Compliance Matrix: (Units=1/GPa)
#
#
# Indices 1 2 3 4 5 6 
#
# 1 0.032245 -0.011030 -0.016991 0.000000 0.000000 0.000000
# 2 -0.011030 0.014952 0.000846 0.000000 0.000000 0.000000
# 3 -0.016991 0.000846 0.022621 0.000000 0.000000 0.000000
# 4 0.000000 0.000000 0.000000 0.035522 0.000000 0.000000
# 5 0.000000 0.000000 0.000000 0.000000 0.092504 0.000000
# 6 0.000000 0.000000 0.000000 0.000000 0.000000 -0.839787
#
#
# Mechanical properties :
#
#
# Convention : Reuss Voigt Hill
#
# Bulk Modulus (GPa) = 64.64700 65.04324 64.84512
# Shear Modulus (GPa) = -8.58460 15.60159 3.50849
#
# Velocity S-wave (km/s) = -2.11845 2.85589 1.35431
# Velocity P-wave (km/s) = 5.27372 6.69909 6.02868
#
# Compressibility (1/GPa) = 0.01546862
#
# Stress axis : x y z
#
# Youngs Moduli (GPa) = 31.01298 66.88119 44.20661
#
# Poissons Ratio (x) = 0.73770 0.75110
# Poissons Ratio (y) = 0.34207 -0.03741
# Poissons Ratio (z) = 0.52693 -0.05660
#
# Static dielectric constant tensor:
#      x y z
#    x 1.634450 0.000000 0.000000 
#    y 0.000000 1.680070 0.000000 
#    z 0.000000 0.000000 1.684890 
# 
# From -- ./inp_files/8798.got.cif
#   From: 2010.05.17/outbox.cif.g08.bks.cpg/sg74_5_cif.got.tgz:8798.got - 2010.06.03 17:57:02.
