data_PCOD9539398
_publ_section_title
;
Structure prediction by ZEFSAII (Michael W. Deem and Ramdas Pophale) SiO2 
 PCOD9539398
Probable space group: I M M A
;
_chemical_formula_sum "Si O2"
_cell_formula_units_Z 116
_cell_length_a 24.449340
_cell_length_b 18.700145
_cell_length_c 14.181312
_cell_angle_alpha 90.000000
_cell_angle_beta 90.000000
_cell_angle_gamma 90.000000
_cell_volume 6483.783815
_symmetry_space_group_name_H-M "I M M A"
_symmetry_group_IT_number 74
_symmetry_cell_setting 'orthorhombic'
loop_
_space_group_symop_operation_xyz
x,y,z
-x,1/2-y,z
x,-y,-z
-x,1/2+y,-z
-x,-y,-z
x,1/2+y,-z
-x,y,z
x,1/2-y,z
1/2+x,1/2+y,1/2+z
1/2-x,-y,1/2+z
1/2+x,1/2-y,1/2-z
1/2-x,y,1/2-z
1/2-x,1/2-y,1/2-z
1/2+x,y,1/2-z
1/2-x,1/2+y,1/2+z
1/2+x,-y,1/2+z
loop_
_atom_site_type_symbol
_atom_site_label
_atom_site_fract_x
_atom_site_fract_y
_atom_site_fract_z
Si Si1 0.436626 0.421512 0.046536
Si Si2 0.185048 0.424086 0.757677
Si Si3 0.890640 0.829173 0.880199
Si Si4 0.664089 0.083715 0.524155
Si Si5 0.500000 0.250000 0.341984
Si Si6 0.731909 0.833367 0.940133
Si Si7 0.842631 0.913156 0.704870
Si Si8 0.366080 0.332389 0.907639
O O1 0.500000 0.408778 0.072329
O O2 0.395075 0.416269 0.134493
O O3 0.431965 0.500000 0.000000
O O4 0.415594 0.366590 0.966893
O O5 0.250000 0.408975 0.750000
O O6 0.166156 0.408644 0.863850
O O7 0.174890 0.507147 0.733022
O O8 0.150944 0.377477 0.683380
O O9 0.866971 0.750000 0.901026
O O10 0.858640 0.868272 0.796665
O O11 0.951603 0.811311 0.846842
O O12 0.886571 0.878220 0.972489
O O13 0.716025 0.124298 0.478820
O O14 0.666499 0.000000 0.500000
O O15 0.741788 0.750000 0.919193
O O16 0.705767 0.874131 0.851567
O O17 0.685799 0.835854 0.021759
O O18 0.376761 0.250000 0.884272
#
# Coordination Sequence:
#
# PCOD9539398 Si02
#       8
#    16  16  16  16   4  16  16  16
#     4  10  21  38  65  91 123 163 206 260 326 381
#     4  12  23  39  63  90 132 177 213 253 313 376
#     4  10  23  43  66  90 121 157 210 267 327 374
#     4  12  23  39  63  93 126 170 214 257 310 378
#     4   8  24  48  70  82 128 162 198 288 342 364
#     4  10  22  37  59  93 131 167 203 252 317 381
#     4  11  22  38  65  97 127 164 210 262 316 388
#     4  10  22  39  57  90 129 167 213 259 305 377
#
# _framework density 17.890788000000001
#
# number of rings (size 3 to 8) (size 9 to 14) (size 15 to 20)
#    0.414    0.966    4.138    1.655    0.966    2.207 
#    0.000    1.724    3.034    0.000    0.000    0.000 
#    0.000    0.000    0.000    0.000    0.000    0.000 
#
# Total GULP energy -323294.259760 kJ/mol
# GULP energy per Si atom -5574.038961 kJ/mol
# Density = 1.785007 g / cm^3
# Si number density = 17.890788 Si / 1000 Ang^3
#
#
#
# Elastic Constant Matrix: (Units=GPa)
#
#
# Indices 1 2 3 4 5 6 
#
# 1 38.2126 9.5510 5.0111 0.0000 0.0000 0.0000
# 2 9.5510 129.8534 38.7499 0.0000 0.0000 0.0000
# 3 5.0111 38.7499 110.3317 0.0000 0.0000 0.0000
# 4 0.0000 0.0000 0.0000 12.1533 0.0000 0.0000
# 5 0.0000 0.0000 0.0000 0.0000 9.4193 0.0000
# 6 0.0000 0.0000 0.0000 0.0000 0.0000 25.7094
#
#
#
# Elastic Compliance Matrix: (Units=1/GPa)
#
#
# Indices 1 2 3 4 5 6 
#
# 1 0.026693 -0.001789 -0.000584 0.000000 0.000000 0.000000
# 2 -0.001789 0.008723 -0.002982 0.000000 0.000000 0.000000
# 3 -0.000584 -0.002982 0.010137 0.000000 0.000000 0.000000
# 4 0.000000 0.000000 0.000000 0.082282 0.000000 0.000000
# 5 0.000000 0.000000 0.000000 0.000000 0.106165 0.000000
# 6 0.000000 0.000000 0.000000 0.000000 0.000000 0.038896
#
#
# Mechanical properties :
#
#
# Convention : Reuss Voigt Hill
#
# Bulk Modulus (GPa) = 28.70053 42.78018 35.74035
# Shear Modulus (GPa) = 16.93647 24.46212 20.69930
#
# Velocity S-wave (km/s) = 3.08012 3.70172 3.40513
# Velocity P-wave (km/s) = 5.35970 6.49877 5.95653
#
# Compressibility (1/GPa) = 0.03484257
#
# Stress axis : x y z
#
# Youngs Moduli (GPa) = 37.46285 114.64596 98.64370
#
# Poissons Ratio (x) = 0.20511 0.05761
# Poissons Ratio (y) = 0.06702 0.29418
# Poissons Ratio (z) = 0.02188 0.34190
#
# Static dielectric constant tensor:
#      x y z
#    x 1.610020 0.000000 0.000000 
#    y 0.000000 1.601130 0.000000 
#    z 0.000000 0.000000 1.602570 
# 
# From -- ./inp_files/26421.got.cif
#   From: 2010.05.17/outbox.cif.g08.bks.cpg/sg74_14_cif.got.tgz:26421.got - 2010.06.03 17:57:02.
