data_PCOD9539171
_publ_section_title
;
Structure prediction by ZEFSAII (Michael W. Deem and Ramdas Pophale) SiO2 
 PCOD9539171
Probable space group: I M M A
;
_chemical_formula_sum "Si O2"
_cell_formula_units_Z 100
_cell_length_a 15.720205
_cell_length_b 22.652958
_cell_length_c 13.053805
_cell_angle_alpha 90.000000
_cell_angle_beta 90.000000
_cell_angle_gamma 90.000000
_cell_volume 4648.579319
_symmetry_space_group_name_H-M "I M M A"
_symmetry_group_IT_number 74
_symmetry_cell_setting 'orthorhombic'
loop_
_space_group_symop_operation_xyz
x,y,z
-x,1/2-y,z
x,-y,-z
-x,1/2+y,-z
-x,-y,-z
x,1/2+y,-z
-x,y,z
x,1/2-y,z
1/2+x,1/2+y,1/2+z
1/2-x,-y,1/2+z
1/2+x,1/2-y,1/2-z
1/2-x,y,1/2-z
1/2-x,1/2-y,1/2-z
1/2+x,y,1/2-z
1/2-x,1/2+y,1/2+z
1/2+x,-y,1/2+z
loop_
_atom_site_type_symbol
_atom_site_label
_atom_site_fract_x
_atom_site_fract_y
_atom_site_fract_z
Si Si1 0.671351 0.184659 0.328817
Si Si2 0.000000 0.000000 0.000000
Si Si3 0.146380 0.933590 0.133200
Si Si4 0.405802 0.867301 0.035706
Si Si5 0.663022 0.526027 0.138420
Si Si6 0.724020 0.317502 0.565110
Si Si7 0.094472 0.403261 0.314807
O O1 0.630978 0.250000 0.321405
O O2 0.750000 0.183501 0.250000
O O3 0.704774 0.177190 0.443497
O O4 0.613398 0.131632 0.288843
O O5 0.074658 0.963466 0.064763
O O6 0.239798 0.960522 0.109846
O O7 0.135407 0.945886 0.253226
O O8 0.160941 0.864004 0.116705
O O9 0.500000 0.848993 0.070821
O O10 0.393470 0.937468 0.057769
O O11 0.322785 0.835861 0.081546
O O12 0.402644 0.859970 0.912488
O O13 0.655957 0.456805 0.159515
O O14 0.711086 0.250000 0.596129
O O15 0.000000 0.429273 0.309193
#
# Coordination Sequence:
#
# PCOD9539171 Si02
#       7
#    16   4  16  16  16  16  16
#     4  10  21  37  59  86 120 164 208 254 315 388
#     4  12  28  40  70 104 132 168 220 294 324 392
#     4  10  26  42  64  97 127 169 216 271 326 384
#     4  10  21  37  61  95 131 162 208 263 317 386
#     4  10  23  42  63  93 133 173 208 261 332 401
#     4  10  22  43  66  88 126 173 215 261 324 392
#     4  11  23  35  61  96 127 165 207 257 319 391
#
# _framework density 21.511948
#
# number of rings (size 3 to 8) (size 9 to 14) (size 15 to 20)
#    0.000    1.760    1.600    0.960   11.200    1.920 
#    0.000    8.400    0.000    0.000    0.000    0.000 
#    0.000    0.000    0.000    0.000    0.000    0.000 
#
# Total GULP energy -278636.291117 kJ/mol
# GULP energy per Si atom -5572.725822 kJ/mol
# Density = 2.146299 g / cm^3
# Si number density = 21.511948 Si / 1000 Ang^3
#
#
#
# Elastic Constant Matrix: (Units=GPa)
#
#
# Indices 1 2 3 4 5 6 
#
# 1 107.5086 42.0864 17.6438 0.0000 0.0000 0.0000
# 2 42.0864 97.0687 28.5667 0.0000 0.0000 0.0000
# 3 17.6438 28.5667 57.4349 0.0000 0.0000 0.0000
# 4 0.0000 0.0000 0.0000 30.6355 0.0000 0.0000
# 5 0.0000 0.0000 0.0000 0.0000 12.9742 0.0000
# 6 0.0000 0.0000 0.0000 0.0000 0.0000 14.1101
#
#
#
# Elastic Compliance Matrix: (Units=1/GPa)
#
#
# Indices 1 2 3 4 5 6 
#
# 1 0.011274 -0.004532 -0.001209 0.000000 0.000000 0.000000
# 2 -0.004532 0.013891 -0.005516 0.000000 0.000000 0.000000
# 3 -0.001209 -0.005516 0.020526 0.000000 0.000000 0.000000
# 4 0.000000 0.000000 0.000000 0.032642 0.000000 0.000000
# 5 0.000000 0.000000 0.000000 0.000000 0.077076 0.000000
# 6 0.000000 0.000000 0.000000 0.000000 0.000000 0.070871
#
#
# Mechanical properties :
#
#
# Convention : Reuss Voigt Hill
#
# Bulk Modulus (GPa) = 43.14982 48.73401 45.94192
# Shear Modulus (GPa) = 19.49156 23.12497 21.30826
#
# Velocity S-wave (km/s) = 3.01338 3.28225 3.15069
# Velocity P-wave (km/s) = 5.67533 6.08833 5.88546
#
# Compressibility (1/GPa) = 0.02317507
#
# Stress axis : x y z
#
# Youngs Moduli (GPa) = 88.69718 71.99127 48.71816
#
# Poissons Ratio (x) = 0.32629 0.05891
# Poissons Ratio (y) = 0.40201 0.26875
# Poissons Ratio (z) = 0.10725 0.39714
#
# Static dielectric constant tensor:
#      x y z
#    x 1.780360 0.000000 0.000000 
#    y 0.000000 1.814420 0.000000 
#    z 0.000000 0.000000 1.808820 
# 
# From -- ./inp_files/34316.got.cif
#   From: 2010.05.17/outbox.cif.g08.bks.cpg/sg74_18_cif.got.tgz:34316.got - 2010.06.03 17:57:02.
