data_PCOD9539058
_publ_section_title
;
Structure prediction by ZEFSAII (Michael W. Deem and Ramdas Pophale) SiO2 
 PCOD9539058
Probable space group: I M M A
;
_chemical_formula_sum "Si O2"
_cell_formula_units_Z 112
_cell_length_a 27.274641
_cell_length_b 14.410399
_cell_length_c 15.478739
_cell_angle_alpha 90.000000
_cell_angle_beta 90.000000
_cell_angle_gamma 90.000000
_cell_volume 6083.739730
_symmetry_space_group_name_H-M "I M M A"
_symmetry_group_IT_number 74
_symmetry_cell_setting 'orthorhombic'
loop_
_space_group_symop_operation_xyz
x,y,z
-x,1/2-y,z
x,-y,-z
-x,1/2+y,-z
-x,-y,-z
x,1/2+y,-z
-x,y,z
x,1/2-y,z
1/2+x,1/2+y,1/2+z
1/2-x,-y,1/2+z
1/2+x,1/2-y,1/2-z
1/2-x,y,1/2-z
1/2-x,1/2-y,1/2-z
1/2+x,y,1/2-z
1/2-x,1/2+y,1/2+z
1/2+x,-y,1/2+z
loop_
_atom_site_type_symbol
_atom_site_label
_atom_site_fract_x
_atom_site_fract_y
_atom_site_fract_z
Si Si1 0.650065 0.049521 0.089790
Si Si2 0.941762 0.142014 0.671318
Si Si3 0.944569 0.361486 0.467431
Si Si4 0.754091 0.140275 0.472986
Si Si5 0.278152 0.138050 0.660593
Si Si6 0.699761 0.139709 0.304660
Si Si7 0.638552 0.970347 0.258583
O O1 0.597357 0.099608 0.095298
O O2 0.695445 0.117493 0.076035
O O3 0.659846 0.972301 0.161299
O O4 0.647719 0.000000 0.000000
O O5 0.925070 0.250000 0.681861
O O6 0.934130 0.117161 0.569318
O O7 0.000000 0.139605 0.684527
O O8 0.914125 0.074011 0.737683
O O9 0.944380 0.250000 0.462343
O O10 0.000000 0.394459 0.447724
O O11 0.753537 0.250000 0.483106
O O12 0.745318 0.103019 0.570030
O O13 0.712237 0.116716 0.404026
O O14 0.281348 0.250000 0.657563
O O15 0.250000 0.114861 0.750000
O O16 0.331159 0.092557 0.675823
O O17 0.691427 0.250000 0.294174
O O18 0.750000 0.117756 0.250000
O O19 0.652909 0.077104 0.280136
#
# Coordination Sequence:
#
# PCOD9539058 Si02
#       7
#    16  16  16  16  16  16  16
#     4  12  22  30  48  78 107 148 190 226 267 331
#     4   9  19  37  58  80 110 147 187 233 291 352
#     4   9  19  35  52  72 103 144 191 237 274 323
#     4  10  22  39  56  74 107 154 194 231 279 334
#     4  10  22  37  54  81 113 142 183 238 292 339
#     4  10  21  37  55  78 111 154 201 237 268 326
#     4  12  22  34  55  81 111 147 184 237 280 329
#
# _framework density 18.409728999999999
#
# number of rings (size 3 to 8) (size 9 to 14) (size 15 to 20)
#    0.000    1.714    2.857    3.000    2.000    1.429 
#    0.000    0.000    0.000    0.429    0.000    2.000 
#    0.000    3.429    0.000    3.143    0.000    0.000 
#
# Total GULP energy -311878.276135 kJ/mol
# GULP energy per Si atom -5569.254931 kJ/mol
# Density = 1.836783 g / cm^3
# Si number density = 18.409729 Si / 1000 Ang^3
#
#
#
# Elastic Constant Matrix: (Units=GPa)
#
#
# Indices 1 2 3 4 5 6 
#
# 1 80.7676 26.4286 22.9278 0.0000 0.0000 0.0000
# 2 26.4286 49.4226 3.1453 0.0000 0.0000 0.0000
# 3 22.9278 3.1453 45.5331 0.0000 0.0000 0.0000
# 4 0.0000 0.0000 0.0000 26.7950 0.0000 0.0000
# 5 0.0000 0.0000 0.0000 0.0000 14.8972 0.0000
# 6 0.0000 0.0000 0.0000 0.0000 0.0000 29.9570
#
#
#
# Elastic Compliance Matrix: (Units=1/GPa)
#
#
# Indices 1 2 3 4 5 6 
#
# 1 0.017644 -0.008909 -0.008269 0.000000 0.000000 0.000000
# 2 -0.008909 0.024821 0.002771 0.000000 0.000000 0.000000
# 3 -0.008269 0.002771 0.025934 0.000000 0.000000 0.000000
# 4 0.000000 0.000000 0.000000 0.037320 0.000000 0.000000
# 5 0.000000 0.000000 0.000000 0.000000 0.067127 0.000000
# 6 0.000000 0.000000 0.000000 0.000000 0.000000 0.033381
#
#
# Mechanical properties :
#
#
# Convention : Reuss Voigt Hill
#
# Bulk Modulus (GPa) = 25.26105 31.19185 28.22645
# Shear Modulus (GPa) = 20.14217 22.54460 21.34339
#
# Velocity S-wave (km/s) = 3.31131 3.50323 3.40862
# Velocity P-wave (km/s) = 5.32645 5.77437 5.55493
#
# Compressibility (1/GPa) = 0.03958663
#
# Stress axis : x y z
#
# Youngs Moduli (GPa) = 56.67782 40.28820 38.55895
#
# Poissons Ratio (x) = 0.35891 0.31884
# Poissons Ratio (y) = 0.50492 -0.10686
# Poissons Ratio (z) = 0.46866 -0.11165
#
# Static dielectric constant tensor:
#      x y z
#    x 1.760380 0.000000 0.000000 
#    y 0.000000 1.715920 0.000000 
#    z 0.000000 0.000000 1.495660 
# 
# From -- ./inp_files/32926.got.cif
#   From: 2010.05.17/outbox.cif.g08.bks.cpg/sg74_17_cif.got.tgz:32926.got - 2010.06.03 17:57:02.
