data_PCOD9539739
_publ_section_title
;
Structure prediction by ZEFSAII (Michael W. Deem and Ramdas Pophale) SiO2 
 PCOD9539739
Probable space group: I M M A
;
_chemical_formula_sum "Si O2"
_cell_formula_units_Z 84
_cell_length_a 13.400615
_cell_length_b 20.413681
_cell_length_c 14.626966
_cell_angle_alpha 90.000000
_cell_angle_beta 90.000000
_cell_angle_gamma 90.000000
_cell_volume 4001.292553
_symmetry_space_group_name_H-M "I M M A"
_symmetry_group_IT_number 74
_symmetry_cell_setting 'orthorhombic'
loop_
_space_group_symop_operation_xyz
x,y,z
-x,1/2-y,z
x,-y,-z
-x,1/2+y,-z
-x,-y,-z
x,1/2+y,-z
-x,y,z
x,1/2-y,z
1/2+x,1/2+y,1/2+z
1/2-x,-y,1/2+z
1/2+x,1/2-y,1/2-z
1/2-x,y,1/2-z
1/2-x,1/2-y,1/2-z
1/2+x,y,1/2-z
1/2-x,1/2+y,1/2+z
1/2+x,-y,1/2+z
loop_
_atom_site_type_symbol
_atom_site_label
_atom_site_fract_x
_atom_site_fract_y
_atom_site_fract_z
Si Si1 0.292087 0.322113 0.468427
Si Si2 0.301921 0.001241 0.890944
Si Si3 0.387467 0.577926 0.650902
Si Si4 0.686183 0.850894 0.158356
Si Si5 0.000000 0.750000 0.340130
Si Si6 0.889117 0.866490 0.656145
O O1 0.335360 0.250000 0.456293
O O2 0.366408 0.379620 0.439375
O O3 0.252212 0.330983 0.570420
O O4 0.196135 0.330778 0.401174
O O5 0.334453 0.071788 0.856226
O O6 0.196949 0.977575 0.846678
O O7 0.379039 0.943108 0.870221
O O8 0.287478 0.000000 0.000000
O O9 0.500000 0.552912 0.655010
O O10 0.373469 0.629032 0.734944
O O11 0.750000 0.841469 0.250000
O O12 0.587901 0.807075 0.159398
O O13 0.000000 0.841543 0.635702
#
# Coordination Sequence:
#
# PCOD9539739 Si02
#       6
#    16  16  16  16   4  16
#     4  11  23  41  65  92 135 178 225 284 337 393
#     4  11  21  41  69  98 132 169 218 286 349 406
#     4  10  22  43  65  97 137 175 221 277 340 425
#     4  12  26  48  69  97 136 183 231 286 344 399
#     4  12  30  48  74  94 136 186 246 288 324 420
#     4  10  22  38  65  98 134 168 216 276 341 423
#
# _framework density 20.993217000000001
#
# number of rings (size 3 to 8) (size 9 to 14) (size 15 to 20)
#    0.000    1.143    4.762    3.714    2.667    3.048 
#    3.429    1.905    0.000    0.000    0.000    0.000 
#    0.000    0.000    0.000    0.000    0.000    0.000 
#
# Total GULP energy -234172.077377 kJ/mol
# GULP energy per Si atom -5575.525652 kJ/mol
# Density = 2.094544 g / cm^3
# Si number density = 20.993217 Si / 1000 Ang^3
#
#
#
# Elastic Constant Matrix: (Units=GPa)
#
#
# Indices 1 2 3 4 5 6 
#
# 1 83.4551 8.2714 34.4917 0.0000 0.0000 0.0000
# 2 8.2714 123.9779 4.3918 0.0000 0.0000 0.0000
# 3 34.4917 4.3918 115.0154 0.0000 0.0000 0.0000
# 4 0.0000 0.0000 0.0000 -39.5804 0.0000 0.0001
# 5 0.0000 0.0000 0.0000 0.0000 5.3512 0.0000
# 6 0.0000 0.0000 0.0000 0.0001 0.0000 7.1195
#
#
#
# Elastic Compliance Matrix: (Units=1/GPa)
#
#
# Indices 1 2 3 4 5 6 
#
# 1 0.013751 -0.000772 -0.004094 0.000000 0.000000 0.000000
# 2 -0.000772 0.008120 -0.000078 0.000000 0.000000 0.000000
# 3 -0.004094 -0.000078 0.009925 0.000000 0.000000 0.000000
# 4 0.000000 0.000000 0.000000 -0.025265 0.000000 0.000000
# 5 0.000000 0.000000 0.000000 0.000000 0.186875 0.000000
# 6 0.000000 0.000000 0.000000 0.000000 0.000000 0.140460
#
#
# Mechanical properties :
#
#
# Convention : Reuss Voigt Hill
#
# Bulk Modulus (GPa) = 45.64858 46.30645 45.97752
# Shear Modulus (GPa) = 14.24259 12.93094 13.58677
#
# Velocity S-wave (km/s) = 2.60751 2.48454 2.54677
# Velocity P-wave (km/s) = 5.55492 5.50784 5.53143
#
# Compressibility (1/GPa) = 0.02190649
#
# Stress axis : x y z
#
# Youngs Moduli (GPa) = 72.72089 123.14867 100.75240
#
# Poissons Ratio (x) = 0.09512 0.41251
# Poissons Ratio (y) = 0.05617 0.00790
# Poissons Ratio (z) = 0.29774 0.00966
#
# Static dielectric constant tensor:
#      x y z
#    x 1.717460 0.000000 0.000000 
#    y 0.000000 1.754540 0.000000 
#    z 0.000000 0.000000 1.831560 
# 
# From -- ./inp_files/32182.got.cif
#   From: 2010.05.17/outbox.cif.g08.bks.cpg/sg74_17_cif.got.tgz:32182.got - 2010.06.03 17:57:02.
