data_PCOD9539847
_publ_section_title
;
Structure prediction by ZEFSAII (Michael W. Deem and Ramdas Pophale) SiO2 
 PCOD9539847
Probable space group: I M M A
;
_chemical_formula_sum "Si O2"
_cell_formula_units_Z 48
_cell_length_a 12.562977
_cell_length_b 13.571129
_cell_length_c 12.624798
_cell_angle_alpha 90.000000
_cell_angle_beta 90.000000
_cell_angle_gamma 90.000000
_cell_volume 2152.449552
_symmetry_space_group_name_H-M "I M M A"
_symmetry_group_IT_number 74
_symmetry_cell_setting 'orthorhombic'
loop_
_space_group_symop_operation_xyz
x,y,z
-x,1/2-y,z
x,-y,-z
-x,1/2+y,-z
-x,-y,-z
x,1/2+y,-z
-x,y,z
x,1/2-y,z
1/2+x,1/2+y,1/2+z
1/2-x,-y,1/2+z
1/2+x,1/2-y,1/2-z
1/2-x,y,1/2-z
1/2-x,1/2-y,1/2-z
1/2+x,y,1/2-z
1/2-x,1/2+y,1/2+z
1/2+x,-y,1/2+z
loop_
_atom_site_type_symbol
_atom_site_label
_atom_site_fract_x
_atom_site_fract_y
_atom_site_fract_z
Si Si1 0.303384 0.750000 0.135276
Si Si2 0.842178 0.035501 0.613755
Si Si3 0.117280 0.959333 0.840464
Si Si4 0.622920 0.250000 0.453281
O O1 0.250000 0.750000 0.250000
O O2 0.368619 0.649388 0.127616
O O3 0.212651 0.750000 0.043757
O O4 0.878186 0.000000 0.500000
O O5 0.878299 0.970154 0.713100
O O6 0.713004 0.026566 0.618046
O O7 0.134953 0.848464 0.881849
O O8 0.000000 0.992249 0.875064
O O9 0.500000 0.250000 0.493639
#
# Coordination Sequence:
#
# PCOD9539847 Si02
#       4
#     8  16  16   8
#     4  12  22  39  57  94 126 156 208 254 324 385
#     4  11  23  40  62  92 127 170 205 263 323 380
#     4  10  22  40  63  92 125 165 214 260 312 372
#     4  10  22  40  68  95 119 165 222 272 308 369
#
# _framework density 22.300174999999999
#
# number of rings (size 3 to 8) (size 9 to 14) (size 15 to 20)
#    0.000    1.333    6.667    0.000    0.000    6.667 
#    0.000    0.833    0.000    0.000    0.000    0.000 
#    0.000    0.000    0.000    0.000    0.000    0.000 
#
# Total GULP energy -134214.899020 kJ/mol
# GULP energy per Si atom -5592.287459 kJ/mol
# Density = 2.224942 g / cm^3
# Si number density = 22.300175 Si / 1000 Ang^3
#
#
#
# Elastic Constant Matrix: (Units=GPa)
#
#
# Indices 1 2 3 4 5 6 
#
# 1 116.7650 17.1934 9.5769 0.0000 0.0000 0.0000
# 2 17.1934 112.9760 41.8583 0.0000 0.0000 0.0000
# 3 9.5769 41.8583 185.6903 0.0000 0.0000 0.0000
# 4 0.0000 0.0000 0.0000 43.4213 0.0000 0.0000
# 5 0.0000 0.0000 0.0000 0.0000 -4.6686 0.0000
# 6 0.0000 0.0000 0.0000 0.0000 0.0000 -1.3131
#
#
#
# Elastic Compliance Matrix: (Units=1/GPa)
#
#
# Indices 1 2 3 4 5 6 
#
# 1 0.008765 -0.001273 -0.000165 0.000000 0.000000 0.000000
# 2 -0.001273 0.009843 -0.002153 0.000000 0.000000 0.000000
# 3 -0.000165 -0.002153 0.005879 0.000000 0.000000 0.000000
# 4 0.000000 0.000000 0.000000 0.023030 0.000000 0.000000
# 5 0.000000 0.000000 0.000000 0.000000 -0.214197 0.000000
# 6 0.000000 0.000000 0.000000 0.000000 0.000000 -0.761581
#
#
# Mechanical properties :
#
#
# Convention : Reuss Voigt Hill
#
# Bulk Modulus (GPa) = 57.78626 61.40983 59.59804
# Shear Modulus (GPa) = -5.46263 30.60811 12.57274
#
# Velocity S-wave (km/s) = -1.56682 3.70881 2.37701
# Velocity P-wave (km/s) = 4.76403 6.77776 5.85807
#
# Compressibility (1/GPa) = 0.01730515
#
# Stress axis : x y z
#
# Youngs Moduli (GPa) = 114.08801 101.59622 170.09146
#
# Poissons Ratio (x) = 0.12931 0.02809
# Poissons Ratio (y) = 0.14520 0.36623
# Poissons Ratio (z) = 0.01884 0.21875
#
# Static dielectric constant tensor:
#      x y z
#    x 1.904750 0.000000 0.000000 
#    y 0.000000 1.796220 0.000000 
#    z 0.000000 0.000000 1.809920 
# 
# From -- ./inp_files/19491.got.cif
#   From: 2010.05.17/outbox.cif.g08.bks.cpg/sg74_10_cif.got.tgz:19491.got - 2010.06.03 17:57:02.
