data_PCOD9539096
_publ_section_title
;
Structure prediction by ZEFSAII (Michael W. Deem and Ramdas Pophale) SiO2 
 PCOD9539096
Probable space group: I M M A
;
_chemical_formula_sum "Si O2"
_cell_formula_units_Z 96
_cell_length_a 27.892114
_cell_length_b 7.916874
_cell_length_c 20.931425
_cell_angle_alpha 90.000000
_cell_angle_beta 90.000000
_cell_angle_gamma 90.000000
_cell_volume 4622.042776
_symmetry_space_group_name_H-M "I M M A"
_symmetry_group_IT_number 74
_symmetry_cell_setting 'orthorhombic'
loop_
_space_group_symop_operation_xyz
x,y,z
-x,1/2-y,z
x,-y,-z
-x,1/2+y,-z
-x,-y,-z
x,1/2+y,-z
-x,y,z
x,1/2-y,z
1/2+x,1/2+y,1/2+z
1/2-x,-y,1/2+z
1/2+x,1/2-y,1/2-z
1/2-x,y,1/2-z
1/2-x,1/2-y,1/2-z
1/2+x,y,1/2-z
1/2-x,1/2+y,1/2+z
1/2+x,-y,1/2+z
loop_
_atom_site_type_symbol
_atom_site_label
_atom_site_fract_x
_atom_site_fract_y
_atom_site_fract_z
Si Si1 0.290423 0.045498 0.800294
Si Si2 0.555316 0.953197 0.929745
Si Si3 0.367339 0.546231 0.428089
Si Si4 0.446920 0.950933 0.330429
Si Si5 0.399183 0.049442 0.201271
Si Si6 0.242141 0.953253 0.071336
O O1 0.290347 0.250000 0.799348
O O2 0.250000 0.989349 0.750000
O O3 0.275294 0.986290 0.871020
O O4 0.343859 0.989258 0.784614
O O5 0.500000 0.014016 0.924971
O O6 0.554300 0.750000 0.927030
O O7 0.585439 0.014973 0.868942
O O8 0.574005 0.000000 0.000000
O O9 0.381958 0.500000 0.500000
O O10 0.365432 0.750000 0.422921
O O11 0.405234 0.480461 0.376549
O O12 0.312648 0.484495 0.418940
O O13 0.500000 0.021555 0.342428
O O14 0.448928 0.750000 0.342210
O O15 0.431778 0.976332 0.257347
O O16 0.406064 0.250000 0.201751
O O17 0.240947 0.750000 0.074773
O O18 0.257743 0.000000 0.000000
#
# Coordination Sequence:
#
# PCOD9539096 Si02
#       6
#    16  16  16  16  16  16
#     4  10  21  38  58  78 104 141 183 224 266 317
#     4   9  19  36  56  78 106 140 177 218 265 317
#     4   9  18  34  55  80 109 141 179 221 266 316
#     4  10  21  37  57  80 108 145 187 226 265 318
#     4  11  23  37  55  81 112 142 176 225 277 322
#     4   9  18  33  54  77 104 139 175 216 265 316
#
# _framework density 20.770036999999999
#
# number of rings (size 3 to 8) (size 9 to 14) (size 15 to 20)
#    0.000    2.333    0.000    2.000    0.000    7.667 
#    0.000    8.333    0.000    0.000    0.000    0.000 
#    0.000    0.000    0.000    0.000    0.000    0.000 
#
# Total GULP energy -268030.482744 kJ/mol
# GULP energy per Si atom -5583.968390 kJ/mol
# Density = 2.072276 g / cm^3
# Si number density = 20.770037 Si / 1000 Ang^3
#
#
#
# Elastic Constant Matrix: (Units=GPa)
#
#
# Indices 1 2 3 4 5 6 
#
# 1 31.0985 -4.7022 -10.5348 0.0000 0.0000 0.0000
# 2 -4.7022 13.9160 -8.8252 0.0000 0.0000 0.0000
# 3 -10.5348 -8.8252 34.7091 0.0000 0.0000 0.0000
# 4 0.0000 0.0000 0.0000 28.4212 0.0000 0.0000
# 5 0.0000 0.0000 0.0000 0.0000 36.0697 0.0000
# 6 0.0000 0.0000 0.0000 0.0000 0.0000 -130.0006
#
#
#
# Elastic Compliance Matrix: (Units=1/GPa)
#
#
# Indices 1 2 3 4 5 6 
#
# 1 0.043041 0.027217 0.019984 0.000000 0.000000 0.000000
# 2 0.027217 0.102885 0.034420 0.000000 0.000000 0.000000
# 3 0.019984 0.034420 0.043628 0.000000 0.000000 0.000000
# 4 0.000000 0.000000 0.000000 0.035185 0.000000 0.000000
# 5 0.000000 0.000000 0.000000 0.000000 0.027724 0.000000
# 6 0.000000 0.000000 0.000000 0.000000 0.000000 -0.007692
#
#
# Mechanical properties :
#
#
# Convention : Reuss Voigt Hill
#
# Bulk Modulus (GPa) = 2.83450 3.51102 3.17276
# Shear Modulus (GPa) = 25.10960 -6.18286 9.46337
#
# Velocity S-wave (km/s) = 3.48074 -1.72722 2.13686
# Velocity P-wave (km/s) = 4.18590 1.51116 2.76027
#
# Compressibility (1/GPa) = 0.35279551
#
# Stress axis : x y z
#
# Youngs Moduli (GPa) = 23.23379 9.71961 22.92100
#
# Poissons Ratio (x) = -0.26454 -0.45805
# Poissons Ratio (y) = -0.63235 -0.78895
# Poissons Ratio (z) = -0.46430 -0.33455
#
# Static dielectric constant tensor:
#      x y z
#    x 1.733350 0.000000 0.000000 
#    y 0.000000 1.741900 0.000000 
#    z 0.000000 0.000000 1.733050 
# 
# From -- ./inp_files/49040.got.cif
#   From: 2010.05.17/outbox.cif.g08.bks.cpg/sg74_25_cif.got.tgz:49040.got - 2010.06.03 17:57:02.
