data_PCOD9539182
_publ_section_title
;
Structure prediction by ZEFSAII (Michael W. Deem and Ramdas Pophale) SiO2 
 PCOD9539182
Probable space group: I M M A
;
_chemical_formula_sum "Si O2"
_cell_formula_units_Z 100
_cell_length_a 9.468393
_cell_length_b 21.183811
_cell_length_c 26.698860
_cell_angle_alpha 90.000000
_cell_angle_beta 90.000000
_cell_angle_gamma 90.000000
_cell_volume 5355.167839
_symmetry_space_group_name_H-M "I M M A"
_symmetry_group_IT_number 74
_symmetry_cell_setting 'orthorhombic'
loop_
_space_group_symop_operation_xyz
x,y,z
-x,1/2-y,z
x,-y,-z
-x,1/2+y,-z
-x,-y,-z
x,1/2+y,-z
-x,y,z
x,1/2-y,z
1/2+x,1/2+y,1/2+z
1/2-x,-y,1/2+z
1/2+x,1/2-y,1/2-z
1/2-x,y,1/2-z
1/2-x,1/2-y,1/2-z
1/2+x,y,1/2-z
1/2-x,1/2+y,1/2+z
1/2+x,-y,1/2+z
loop_
_atom_site_type_symbol
_atom_site_label
_atom_site_fract_x
_atom_site_fract_y
_atom_site_fract_z
Si Si1 0.165599 0.642134 0.169249
Si Si2 0.159957 0.674141 0.798281
Si Si3 0.168212 0.822021 0.053668
Si Si4 0.337212 0.099700 0.126250
Si Si5 0.165771 0.481642 0.699918
Si Si6 0.331605 0.572644 0.990390
Si Si7 0.750000 0.250000 0.750000
O O1 0.189658 0.667415 0.113050
O O2 0.263828 0.582249 0.179803
O O3 0.200748 0.695201 0.209808
O O4 0.000000 0.624854 0.173621
O O5 0.158132 0.750000 0.798822
O O6 0.250000 0.654021 0.750000
O O7 0.233135 0.648850 0.848024
O O8 0.000000 0.650763 0.793667
O O9 0.211601 0.750000 0.040685
O O10 0.000000 0.827449 0.044177
O O11 0.250526 0.875993 0.023616
O O12 0.500000 0.121090 0.131879
O O13 0.309485 0.087879 0.068070
O O14 0.322201 0.035268 0.157755
O O15 0.250000 0.499891 0.750000
O O16 0.000000 0.472234 0.711008
O O17 0.500000 0.576408 0.000948
O O18 0.287597 0.500000 0.000000
#
# Coordination Sequence:
#
# PCOD9539182 Si02
#       7
#    16  16  16  16  16  16   4
#     4  11  23  40  61  88 123 160 198 241 290 342
#     4  10  21  37  59  88 121 156 194 238 291 353
#     4  10  22  41  63  88 121 157 196 247 299 350
#     4  10  22  39  60  86 117 154 195 245 298 348
#     4  11  23  38  58  86 120 156 196 241 291 347
#     4  10  22  42  64  87 118 154 199 252 301 352
#     4  12  22  36  64  90 122 160 200 236 288 344
#
# _framework density 18.673551
#
# number of rings (size 3 to 8) (size 9 to 14) (size 15 to 20)
#    0.000    1.600    1.600    2.640    0.000    8.000 
#    0.000    3.200    0.000    0.000    0.000    0.000 
#    0.000    0.000    0.000    0.000    0.000    0.000 
#
# Total GULP energy -278856.530354 kJ/mol
# GULP energy per Si atom -5577.130607 kJ/mol
# Density = 1.863105 g / cm^3
# Si number density = 18.673551 Si / 1000 Ang^3
#
#
#
# Elastic Constant Matrix: (Units=GPa)
#
#
# Indices 1 2 3 4 5 6 
#
# 1 109.3423 63.4442 80.1825 0.0000 0.0000 0.0000
# 2 63.4442 96.3828 51.9485 0.0000 0.0000 0.0000
# 3 80.1825 51.9485 110.8686 0.0000 0.0000 0.0000
# 4 0.0000 0.0000 0.0000 44.9573 0.0000 0.0000
# 5 0.0000 0.0000 0.0000 0.0000 31.0386 0.0000
# 6 0.0000 0.0000 0.0000 0.0000 0.0000 9.8374
#
#
#
# Elastic Compliance Matrix: (Units=1/GPa)
#
#
# Indices 1 2 3 4 5 6 
#
# 1 0.023776 -0.008539 -0.013194 0.000000 0.000000 0.000000
# 2 -0.008539 0.016948 -0.001765 0.000000 0.000000 0.000000
# 3 -0.013194 -0.001765 0.019389 0.000000 0.000000 0.000000
# 4 0.000000 0.000000 0.000000 0.022243 0.000000 0.000000
# 5 0.000000 0.000000 0.000000 0.000000 0.032218 0.000000
# 6 0.000000 0.000000 0.000000 0.000000 0.000000 0.101653
#
#
# Mechanical properties :
#
#
# Convention : Reuss Voigt Hill
#
# Bulk Modulus (GPa) = 76.24555 78.63824 77.44190
# Shear Modulus (GPa) = 18.68493 25.23454 21.95973
#
# Velocity S-wave (km/s) = 3.16667 3.68006 3.43298
# Velocity P-wave (km/s) = 7.36816 7.76277 7.56804
#
# Compressibility (1/GPa) = 0.01311552
#
# Stress axis : x y z
#
# Youngs Moduli (GPa) = 42.05988 59.00528 51.57560
#
# Poissons Ratio (x) = 0.50385 0.68049
# Poissons Ratio (y) = 0.35915 0.09105
# Poissons Ratio (z) = 0.55494 0.10416
#
# Static dielectric constant tensor:
#      x y z
#    x 1.639150 0.000000 0.000000 
#    y 0.000000 1.634810 0.000000 
#    z 0.000000 0.000000 1.628880 
# 
# From -- ./inp_files/64483.got.cif
#   From: 2010.05.17/outbox.cif.g08.bks.cpg/sg74_33_cif.got.tgz:64483.got - 2010.06.03 17:57:02.
