data_PCOD9539406
_publ_section_title
;
Structure prediction by ZEFSAII (Michael W. Deem and Ramdas Pophale) SiO2 
 PCOD9539406
Probable space group: I M M A
;
_chemical_formula_sum "Si O2"
_cell_formula_units_Z 64
_cell_length_a 10.955542
_cell_length_b 10.294697
_cell_length_c 30.436200
_cell_angle_alpha 90.000000
_cell_angle_beta 90.000000
_cell_angle_gamma 90.000000
_cell_volume 3432.715935
_symmetry_space_group_name_H-M "I M M A"
_symmetry_group_IT_number 74
_symmetry_cell_setting 'orthorhombic'
loop_
_space_group_symop_operation_xyz
x,y,z
-x,1/2-y,z
x,-y,-z
-x,1/2+y,-z
-x,-y,-z
x,1/2+y,-z
-x,y,z
x,1/2-y,z
1/2+x,1/2+y,1/2+z
1/2-x,-y,1/2+z
1/2+x,1/2-y,1/2-z
1/2-x,y,1/2-z
1/2-x,1/2-y,1/2-z
1/2+x,y,1/2-z
1/2-x,1/2+y,1/2+z
1/2+x,-y,1/2+z
loop_
_atom_site_type_symbol
_atom_site_label
_atom_site_fract_x
_atom_site_fract_y
_atom_site_fract_z
Si Si1 0.363424 0.250000 0.216229
Si Si2 0.646475 0.250000 0.857864
Si Si3 0.245188 0.010990 0.698226
Si Si4 0.000000 0.093977 0.164284
Si Si5 0.713971 0.500000 0.500000
Si Si6 0.853426 0.750000 0.462368
Si Si7 0.500000 0.094417 0.437858
O O1 0.500000 0.250000 0.234961
O O2 0.250000 0.250000 0.250000
O O3 0.342251 0.385448 0.191591
O O4 0.500000 0.250000 0.852971
O O5 0.701377 0.374239 0.832882
O O6 0.673936 0.250000 0.909955
O O7 0.250000 0.047561 0.750000
O O8 0.380001 0.963535 0.686209
O O9 0.000000 0.058877 0.113022
O O10 0.000000 0.250000 0.166775
O O11 0.794607 0.622004 0.484440
O O12 0.621257 0.459019 0.461196
O O13 0.000000 0.750000 0.467725
O O14 0.500000 0.250000 0.442399
#
# Coordination Sequence:
#
# PCOD9539406 Si02
#       7
#     8   8  16   8   8   8   8
#     4  10  22  36  62  89 117 162 222 277 322 376
#     4  11  25  44  60  90 131 173 212 273 322 385
#     4  11  24  39  65  88 129 172 223 271 322 383
#     4  11  23  40  62 100 128 164 218 278 325 372
#     4  11  21  42  68  96 125 165 214 258 332 399
#     4  11  24  42  66  93 130 167 212 259 323 394
#     4  10  21  38  66  96 130 164 206 274 324 385
#
# _framework density 18.644129
#
# number of rings (size 3 to 8) (size 9 to 14) (size 15 to 20)
#    0.000    1.250    2.500    3.000    8.750    0.500 
#    0.000    2.500    0.000    6.000    0.000    0.000 
#    0.000    0.000    0.000    0.000    0.000    0.000 
#
# Total GULP energy -178788.668371 kJ/mol
# GULP energy per Si atom -5587.145887 kJ/mol
# Density = 1.860169 g / cm^3
# Si number density = 18.644129 Si / 1000 Ang^3
#
#
#
# Elastic Constant Matrix: (Units=GPa)
#
#
# Indices 1 2 3 4 5 6 
#
# 1 161.1612 71.4633 84.8448 0.0000 0.0000 0.0000
# 2 71.4633 149.4196 73.3232 0.0000 0.0000 0.0000
# 3 84.8448 73.3232 153.8251 0.0000 0.0000 0.0000
# 4 0.0000 0.0000 0.0000 6.5183 0.0000 0.0000
# 5 0.0000 0.0000 0.0000 0.0000 15.1633 0.0000
# 6 0.0000 0.0000 0.0000 0.0000 0.0000 -12.2626
#
#
#
# Elastic Compliance Matrix: (Units=1/GPa)
#
#
# Indices 1 2 3 4 5 6 
#
# 1 0.009438 -0.002558 -0.003986 0.000000 0.000000 0.000000
# 2 -0.002558 0.009429 -0.003084 0.000000 0.000000 0.000000
# 3 -0.003986 -0.003084 0.010170 0.000000 0.000000 0.000000
# 4 0.000000 0.000000 0.000000 0.153415 0.000000 0.000000
# 5 0.000000 0.000000 0.000000 0.000000 0.065949 0.000000
# 6 0.000000 0.000000 0.000000 0.000000 0.000000 -0.081549
#
#
# Mechanical properties :
#
#
# Convention : Reuss Voigt Hill
#
# Bulk Modulus (GPa) = 102.24172 102.62983 102.43577
# Shear Modulus (GPa) = 26.40369 17.53544 21.96956
#
# Velocity S-wave (km/s) = 3.76732 3.07014 3.43645
# Velocity P-wave (km/s) = 8.59542 8.23006 8.41472
#
# Compressibility (1/GPa) = 0.00978074
#
# Stress axis : x y z
#
# Youngs Moduli (GPa) = 105.95721 106.05472 98.33188
#
# Poissons Ratio (x) = 0.27125 0.39199
# Poissons Ratio (y) = 0.27100 0.30324
# Poissons Ratio (z) = 0.42239 0.32706
#
# Static dielectric constant tensor:
#      x y z
#    x 1.613180 0.000000 0.000000 
#    y 0.000000 1.656310 0.000000 
#    z 0.000000 0.000000 1.642560 
# 
# From -- ./inp_files/71370.got.cif
#   From: 2010.05.17/outbox.cif.g08.bks.cpg/sg74_36_cif.got.tgz:71370.got - 2010.06.03 17:57:02.
