data_PCOD9539021
_publ_section_title
;
Structure prediction by ZEFSAII (Michael W. Deem and Ramdas Pophale) SiO2 
 PCOD9539021
Probable space group: I M M A
;
_chemical_formula_sum "Si O2"
_cell_formula_units_Z 88
_cell_length_a 16.241795
_cell_length_b 17.290406
_cell_length_c 16.036831
_cell_angle_alpha 90.000000
_cell_angle_beta 90.000000
_cell_angle_gamma 90.000000
_cell_volume 4503.578823
_symmetry_space_group_name_H-M "I M M A"
_symmetry_group_IT_number 74
_symmetry_cell_setting 'orthorhombic'
loop_
_space_group_symop_operation_xyz
x,y,z
-x,1/2-y,z
x,-y,-z
-x,1/2+y,-z
-x,-y,-z
x,1/2+y,-z
-x,y,z
x,1/2-y,z
1/2+x,1/2+y,1/2+z
1/2-x,-y,1/2+z
1/2+x,1/2-y,1/2-z
1/2-x,y,1/2-z
1/2-x,1/2-y,1/2-z
1/2+x,y,1/2-z
1/2-x,1/2+y,1/2+z
1/2+x,-y,1/2+z
loop_
_atom_site_type_symbol
_atom_site_label
_atom_site_fract_x
_atom_site_fract_y
_atom_site_fract_z
Si Si1 0.205795 0.250000 0.588565
Si Si2 0.308764 0.378675 0.668240
Si Si3 0.776899 0.967874 0.911595
Si Si4 0.597867 0.750000 0.923474
Si Si5 0.905712 0.343023 0.124861
Si Si6 0.667502 0.627147 0.796521
Si Si7 0.092484 0.250000 0.751254
O O1 0.260906 0.326496 0.599962
O O2 0.149822 0.250000 0.507888
O O3 0.150100 0.250000 0.671047
O O4 0.250000 0.385688 0.750000
O O5 0.326566 0.462422 0.631897
O O6 0.384798 0.326023 0.696101
O O7 0.836447 0.893541 0.921941
O O8 0.704398 0.945907 0.846596
O O9 0.746707 0.000000 0.000000
O O10 0.500000 0.750000 0.937216
O O11 0.626931 0.678478 0.867359
O O12 0.889592 0.250000 0.123490
O O13 0.895627 0.374492 0.219881
O O14 0.000000 0.354613 0.096536
O O15 0.750000 0.659520 0.750000
O O16 0.000000 0.250000 0.724105
#
# Coordination Sequence:
#
# PCOD9539021 Si02
#       7
#     8  16  16   8  16  16   8
#     4   9  19  34  57  80 116 153 191 232 294 349
#     4   9  18  37  56  79 109 153 197 241 281 346
#     4  11  23  37  58  86 119 150 196 245 298 351
#     4  12  21  32  56  90 120 142 181 233 290 343
#     4  10  21  39  61  87 119 157 200 245 293 353
#     4  10  21  36  59  84 114 152 197 233 279 350
#     4   9  18  34  58  82 108 145 201 243 285 346
#
# _framework density 19.540015
#
# number of rings (size 3 to 8) (size 9 to 14) (size 15 to 20)
#    0.000    2.000    0.909    4.909    3.818    1.091 
#    3.273    0.000    0.000   13.091    0.000    0.000 
#    0.000    0.000    0.000    0.000    0.000    0.000 
#
# Total GULP energy -245258.589347 kJ/mol
# GULP energy per Si atom -5574.058849 kJ/mol
# Density = 1.949554 g / cm^3
# Si number density = 19.540015 Si / 1000 Ang^3
#
#
#
# Elastic Constant Matrix: (Units=GPa)
#
#
# Indices 1 2 3 4 5 6 
#
# 1 46.6013 13.5030 4.0871 0.0000 0.0000 0.0000
# 2 13.5030 98.1204 25.5371 0.0000 0.0000 0.0000
# 3 4.0871 25.5371 82.5447 0.0000 0.0000 0.0000
# 4 0.0000 0.0000 0.0000 54.2497 0.0000 0.0000
# 5 0.0000 0.0000 0.0000 0.0000 17.0878 0.0000
# 6 0.0000 0.0000 0.0000 0.0000 0.0000 -19.7723
#
#
#
# Elastic Compliance Matrix: (Units=1/GPa)
#
#
# Indices 1 2 3 4 5 6 
#
# 1 0.022352 -0.003032 -0.000169 0.000000 0.000000 0.000000
# 2 -0.003032 0.011495 -0.003406 0.000000 0.000000 0.000000
# 3 -0.000169 -0.003406 0.013177 0.000000 0.000000 0.000000
# 4 0.000000 0.000000 0.000000 0.018433 0.000000 0.000000
# 5 0.000000 0.000000 0.000000 0.000000 0.058521 0.000000
# 6 0.000000 0.000000 0.000000 0.000000 0.000000 -0.050576
#
#
# Mechanical properties :
#
#
# Convention : Reuss Voigt Hill
#
# Bulk Modulus (GPa) = 29.57698 34.83566 32.20632
# Shear Modulus (GPa) = 51.07939 22.58899 36.83419
#
# Velocity S-wave (km/s) = 5.11837 3.40374 4.34644
# Velocity P-wave (km/s) = 7.07811 5.77182 6.45808
#
# Compressibility (1/GPa) = 0.03381008
#
# Stress axis : x y z
#
# Youngs Moduli (GPa) = 44.73879 86.99178 75.89103
#
# Poissons Ratio (x) = 0.26377 0.01280
# Poissons Ratio (y) = 0.13565 0.25850
# Poissons Ratio (z) = 0.00755 0.29631
#
# Static dielectric constant tensor:
#      x y z
#    x 1.660780 0.000000 0.000000 
#    y 0.000000 1.722760 0.000000 
#    z 0.000000 0.000000 1.705080 
# 
# From -- ./inp_files/34130.got.cif
#   From: 2010.05.17/outbox.cif.g08.bks.cpg/sg74_18_cif.got.tgz:34130.got - 2010.06.03 17:57:02.
