data_PCOD9539162
_publ_section_title
;
Structure prediction by ZEFSAII (Michael W. Deem and Ramdas Pophale) SiO2 
 PCOD9539162
Probable space group: I M M A
;
_chemical_formula_sum "Si O2"
_cell_formula_units_Z 88
_cell_length_a 17.453513
_cell_length_b 9.251835
_cell_length_c 27.464453
_cell_angle_alpha 90.000000
_cell_angle_beta 90.000000
_cell_angle_gamma 90.000000
_cell_volume 4434.878094
_symmetry_space_group_name_H-M "I M M A"
_symmetry_group_IT_number 74
_symmetry_cell_setting 'orthorhombic'
loop_
_space_group_symop_operation_xyz
x,y,z
-x,1/2-y,z
x,-y,-z
-x,1/2+y,-z
-x,-y,-z
x,1/2+y,-z
-x,y,z
x,1/2-y,z
1/2+x,1/2+y,1/2+z
1/2-x,-y,1/2+z
1/2+x,1/2-y,1/2-z
1/2-x,y,1/2-z
1/2-x,1/2-y,1/2-z
1/2+x,y,1/2-z
1/2-x,1/2+y,1/2+z
1/2+x,-y,1/2+z
loop_
_atom_site_type_symbol
_atom_site_label
_atom_site_fract_x
_atom_site_fract_y
_atom_site_fract_z
Si Si1 0.090685 0.421052 0.906936
Si Si2 0.333534 0.079909 0.775491
Si Si3 0.644628 0.418275 0.122993
Si Si4 0.408764 0.412207 0.309649
Si Si5 0.276287 0.083428 0.455519
Si Si6 0.000000 0.424443 0.446610
O O1 0.103916 0.250000 0.908448
O O2 0.113654 0.485388 0.854371
O O3 0.144195 0.504431 0.944277
O O4 0.000000 0.447030 0.914641
O O5 0.352396 0.250000 0.775459
O O6 0.250000 0.064460 0.750000
O O7 0.342321 0.015700 0.829521
O O8 0.387397 0.987089 0.740441
O O9 0.631865 0.250000 0.137699
O O10 0.721143 0.424542 0.090720
O O11 0.574182 0.459798 0.087136
O O12 0.500000 0.400315 0.312460
O O13 0.375641 0.250000 0.314321
O O14 0.289052 0.250000 0.467888
O O15 0.237605 0.000000 0.500000
O O16 0.000000 0.500000 0.500000
O O17 0.000000 0.250000 0.454265
#
# Coordination Sequence:
#
# PCOD9539162 Si02
#       6
#    16  16  16  16  16   8
#     4  10  21  38  60  87 120 157 198 246 298 357
#     4  11  24  39  58  87 122 159 200 248 299 357
#     4  10  23  41  62  89 122 160 204 254 308 369
#     4  10  21  37  59  85 116 154 193 236 288 347
#     4  11  23  39  61  87 117 155 199 249 304 361
#     4  10  22  42  66  92 124 160 206 262 319 374
#
# _framework density 19.842711000000001
#
# number of rings (size 3 to 8) (size 9 to 14) (size 15 to 20)
#    0.000    1.636    0.000    3.818    1.273    9.091 
#    0.000    0.000    0.000    0.000    0.000    0.000 
#    0.000    0.000    0.000    0.000    0.000    0.000 
#
# Total GULP energy -245768.352249 kJ/mol
# GULP energy per Si atom -5585.644369 kJ/mol
# Density = 1.979755 g / cm^3
# Si number density = 19.842711 Si / 1000 Ang^3
#
#
#
# Elastic Constant Matrix: (Units=GPa)
#
#
# Indices 1 2 3 4 5 6 
#
# 1 56.6317 55.6170 33.5989 0.0000 0.0000 0.0000
# 2 55.6170 110.5760 45.5689 0.0000 0.0000 0.0000
# 3 33.5989 45.5689 101.4323 0.0000 0.0000 0.0000
# 4 0.0000 0.0000 0.0000 41.5493 0.0000 0.0000
# 5 0.0000 0.0000 0.0000 0.0000 27.1566 0.0000
# 6 0.0000 0.0000 0.0000 0.0000 0.0000 -1.9212
#
#
#
# Elastic Compliance Matrix: (Units=1/GPa)
#
#
# Indices 1 2 3 4 5 6 
#
# 1 0.036660 -0.016487 -0.004736 0.000000 0.000000 0.000000
# 2 -0.016487 0.018513 -0.002856 0.000000 0.000000 0.000000
# 3 -0.004736 -0.002856 0.012711 0.000000 0.000000 0.000000
# 4 0.000000 0.000000 0.000000 0.024068 0.000000 0.000000
# 5 0.000000 0.000000 0.000000 0.000000 0.036823 0.000000
# 6 0.000000 0.000000 0.000000 0.000000 0.000000 -0.520503
#
#
# Mechanical properties :
#
#
# Convention : Reuss Voigt Hill
#
# Bulk Modulus (GPa) = 50.69757 59.80106 55.24932
# Shear Modulus (GPa) = -14.83700 22.28062 3.72181
#
# Velocity S-wave (km/s) = -2.73743 3.35455 1.37103
# Velocity P-wave (km/s) = 3.95143 6.72361 5.51456
#
# Compressibility (1/GPa) = 0.01972481
#
# Stress axis : x y z
#
# Youngs Moduli (GPa) = 27.27803 54.01612 78.67385
#
# Poissons Ratio (x) = 0.89056 0.37263
# Poissons Ratio (y) = 0.44973 0.22468
# Poissons Ratio (z) = 0.12920 0.15426
#
# Static dielectric constant tensor:
#      x y z
#    x 1.729730 0.000000 0.000000 
#    y 0.000000 1.677980 0.000000 
#    z 0.000000 0.000000 1.734290 
# 
# From -- ./inp_files/61451.got.cif
#   From: 2010.05.17/outbox.cif.g08.bks.cpg/sg74_31_cif.got.tgz:61451.got - 2010.06.03 17:57:02.
