data_PCOD9539222
_publ_section_title
;
Structure prediction by ZEFSAII (Michael W. Deem and Ramdas Pophale) SiO2 
 PCOD9539222
Probable space group: I M M A
;
_chemical_formula_sum "Si O2"
_cell_formula_units_Z 112
_cell_length_a 14.732841
_cell_length_b 28.475193
_cell_length_c 12.568453
_cell_angle_alpha 90.000000
_cell_angle_beta 90.000000
_cell_angle_gamma 90.000000
_cell_volume 5272.723573
_symmetry_space_group_name_H-M "I M M A"
_symmetry_group_IT_number 74
_symmetry_cell_setting 'orthorhombic'
loop_
_space_group_symop_operation_xyz
x,y,z
-x,1/2-y,z
x,-y,-z
-x,1/2+y,-z
-x,-y,-z
x,1/2+y,-z
-x,y,z
x,1/2-y,z
1/2+x,1/2+y,1/2+z
1/2-x,-y,1/2+z
1/2+x,1/2-y,1/2-z
1/2-x,y,1/2-z
1/2-x,1/2-y,1/2-z
1/2+x,y,1/2-z
1/2-x,1/2+y,1/2+z
1/2+x,-y,1/2+z
loop_
_atom_site_type_symbol
_atom_site_label
_atom_site_fract_x
_atom_site_fract_y
_atom_site_fract_z
Si Si1 0.891733 0.568780 0.460860
Si Si2 0.144073 0.800730 0.767841
Si Si3 0.603086 0.303890 0.519816
Si Si4 0.390280 0.555064 0.479686
Si Si5 0.734925 0.622631 0.372990
Si Si6 0.099849 0.100451 0.194399
Si Si7 0.339035 0.516705 0.825747
O O1 0.831598 0.613563 0.429670
O O2 0.840320 0.544644 0.561162
O O3 0.879873 0.532881 0.361283
O O4 0.000000 0.574769 0.481858
O O5 0.104981 0.750000 0.728156
O O6 0.250000 0.796450 0.750000
O O7 0.127533 0.855030 0.733780
O O8 0.118851 0.803417 0.892520
O O9 0.500000 0.320084 0.541768
O O10 0.610695 0.250000 0.555267
O O11 0.677195 0.335943 0.574709
O O12 0.373155 0.500000 0.500000
O O13 0.500000 0.559657 0.463872
O O14 0.328215 0.576030 0.387186
O O15 0.356951 0.585932 0.581802
O O16 0.750000 0.631811 0.250000
O O17 0.100184 0.051953 0.257113
O O18 0.000000 0.113655 0.161946
O O19 0.250000 0.513013 0.750000
#
# Coordination Sequence:
#
# PCOD9539222 Si02
#       7
#    16  16  16  16  16  16  16
#     4  11  26  45  62  91 137 184 225 272 331 406
#     4  10  21  37  61  97 135 168 207 264 332 404
#     4  10  22  45  75 103 133 172 224 283 342 407
#     4  10  23  41  62  95 135 170 221 284 336 391
#     4  12  26  41  66 100 134 175 225 284 339 404
#     4  11  21  35  62  94 126 169 217 267 323 390
#     4  11  23  41  63  88 123 172 229 273 322 387
#
# _framework density 21.241395000000001
#
# number of rings (size 3 to 8) (size 9 to 14) (size 15 to 20)
#    0.000    1.286    1.429    4.286    8.000    2.286 
#    0.000    0.000    0.000    0.429    0.000    0.000 
#    0.000    0.000    0.000    0.000    0.000    0.000 
#
# Total GULP energy -312070.896120 kJ/mol
# GULP energy per Si atom -5572.694574 kJ/mol
# Density = 2.119305 g / cm^3
# Si number density = 21.241395 Si / 1000 Ang^3
#
#
#
# Elastic Constant Matrix: (Units=GPa)
#
#
# Indices 1 2 3 4 5 6 
#
# 1 142.6713 50.3909 26.7234 0.0000 0.0000 0.0000
# 2 50.3909 99.6484 6.6397 0.0001 0.0000 0.0003
# 3 26.7234 6.6397 64.0551 0.0001 0.0000 0.0007
# 4 0.0000 0.0001 0.0001 18.7590 0.0000 0.0004
# 5 0.0000 0.0000 0.0000 0.0000 20.3068 0.0000
# 6 0.0000 0.0003 0.0007 0.0004 0.0000 134.8619
#
#
#
# Elastic Compliance Matrix: (Units=1/GPa)
#
#
# Indices 1 2 3 4 5 6 
#
# 1 0.009208 -0.004431 -0.003382 0.000000 0.000000 0.000000
# 2 -0.004431 0.012237 0.000580 0.000000 0.000000 0.000000
# 3 -0.003382 0.000580 0.016962 0.000000 0.000000 0.000000
# 4 0.000000 0.000000 0.000000 0.053308 0.000000 0.000000
# 5 0.000000 0.000000 0.000000 0.000000 0.049245 0.000000
# 6 0.000000 0.000000 0.000000 0.000000 0.000000 0.007415
#
#
# Mechanical properties :
#
#
# Convention : Reuss Voigt Hill
#
# Bulk Modulus (GPa) = 41.76836 52.65364 47.21100
# Shear Modulus (GPa) = 29.27045 49.62690 39.44867
#
# Velocity S-wave (km/s) = 3.71616 4.83880 4.31415
# Velocity P-wave (km/s) = 6.17409 7.48737 6.86222
#
# Compressibility (1/GPa) = 0.02394157
#
# Stress axis : x y z
#
# Youngs Moduli (GPa) = 108.60667 81.71786 58.95389
#
# Poissons Ratio (x) = 0.36207 0.19938
# Poissons Ratio (y) = 0.48121 -0.03419
# Poissons Ratio (z) = 0.36731 -0.04740
#
# Static dielectric constant tensor:
#      x y z
#    x 1.796500 0.000000 0.000000 
#    y 0.000000 1.913880 0.000000 
#    z 0.000000 0.000000 1.830810 
# 
# From -- ./inp_files/21185.got.cif
#   From: 2010.05.17/outbox.cif.g08.bks.cpg/sg74_11_cif.got.tgz:21185.got - 2010.06.03 17:57:02.
