data_PCOD9539808
_publ_section_title
;
Structure prediction by ZEFSAII (Michael W. Deem and Ramdas Pophale) SiO2 
 PCOD9539808
Probable space group: I M M A
;
_chemical_formula_sum "Si O2"
_cell_formula_units_Z 96
_cell_length_a 19.691989
_cell_length_b 28.384778
_cell_length_c 9.391330
_cell_angle_alpha 90.000000
_cell_angle_beta 90.000000
_cell_angle_gamma 90.000000
_cell_volume 5249.309600
_symmetry_space_group_name_H-M "I M M A"
_symmetry_group_IT_number 74
_symmetry_cell_setting 'orthorhombic'
loop_
_space_group_symop_operation_xyz
x,y,z
-x,1/2-y,z
x,-y,-z
-x,1/2+y,-z
-x,-y,-z
x,1/2+y,-z
-x,y,z
x,1/2-y,z
1/2+x,1/2+y,1/2+z
1/2-x,-y,1/2+z
1/2+x,1/2-y,1/2-z
1/2-x,y,1/2-z
1/2-x,1/2-y,1/2-z
1/2+x,y,1/2-z
1/2-x,1/2+y,1/2+z
1/2+x,-y,1/2+z
loop_
_atom_site_type_symbol
_atom_site_label
_atom_site_fract_x
_atom_site_fract_y
_atom_site_fract_z
Si Si1 0.795681 0.398045 0.616575
Si Si2 0.076496 0.403893 0.207131
Si Si3 0.577403 0.445519 0.975419
Si Si4 0.639548 0.696366 0.689763
Si Si5 0.788922 0.044159 0.104269
Si Si6 0.724246 0.197246 0.015704
O O1 0.750000 0.410253 0.750000
O O2 0.869147 0.421233 0.627423
O O3 0.759618 0.418625 0.475690
O O4 0.798080 0.342354 0.593534
O O5 0.079938 0.417957 0.374348
O O6 0.090057 0.348229 0.185493
O O7 0.138293 0.432358 0.135756
O O8 0.000000 0.416119 0.158505
O O9 0.500000 0.445065 0.923108
O O10 0.596992 0.500000 0.000000
O O11 0.611865 0.750000 0.677188
O O12 0.678307 0.693692 0.841869
O O13 0.698537 0.690629 0.571034
O O14 0.750000 0.031266 0.250000
O O15 0.795790 0.000000 0.000000
O O16 0.717486 0.250000 0.958981
#
# Coordination Sequence:
#
# PCOD9539808 Si02
#       6
#    16  16  16  16  16  16
#     4  12  23  36  62  92 114 153 204 247 295 353
#     4  11  22  37  60  88 121 159 194 245 305 353
#     4  10  22  40  59  81 118 162 198 236 296 360
#     4   9  16  32  59  87 115 154 196 242 299 354
#     4  12  24  40  61  86 121 154 201 255 293 348
#     4   9  17  32  56  86 119 149 189 248 300 346
#
# _framework density 18.288118000000001
#
# number of rings (size 3 to 8) (size 9 to 14) (size 15 to 20)
#    0.000    1.500    5.000    2.000    2.333    1.000 
#    0.000    0.833    0.000    0.500    0.000    0.000 
#    0.000    0.000    0.000    0.000    0.000    0.000 
#
# Total GULP energy -267999.290751 kJ/mol
# GULP energy per Si atom -5583.318557 kJ/mol
# Density = 1.824649 g / cm^3
# Si number density = 18.288118 Si / 1000 Ang^3
#
#
#
# Elastic Constant Matrix: (Units=GPa)
#
#
# Indices 1 2 3 4 5 6 
#
# 1 97.5455 55.9025 25.4534 0.0000 0.0000 0.0000
# 2 55.9025 134.2650 29.7078 0.0000 0.0000 0.0000
# 3 25.4534 29.7078 50.6092 0.0000 0.0000 0.0000
# 4 0.0000 0.0000 0.0000 22.8464 0.0000 0.0000
# 5 0.0000 0.0000 0.0000 0.0000 23.0678 0.0000
# 6 0.0000 0.0000 0.0000 0.0000 0.0000 -19.7986
#
#
#
# Elastic Compliance Matrix: (Units=1/GPa)
#
#
# Indices 1 2 3 4 5 6 
#
# 1 0.014208 -0.004982 -0.004222 0.000000 0.000000 0.000000
# 2 -0.004982 0.010306 -0.003544 0.000000 0.000000 0.000000
# 3 -0.004222 -0.003544 0.023963 0.000000 0.000000 0.000000
# 4 0.000000 0.000000 0.000000 0.043771 0.000000 0.000000
# 5 0.000000 0.000000 0.000000 0.000000 0.043350 0.000000
# 6 0.000000 0.000000 0.000000 0.000000 0.000000 -0.050509
#
#
# Mechanical properties :
#
#
# Convention : Reuss Voigt Hill
#
# Bulk Modulus (GPa) = 43.51183 56.06078 49.78631
# Shear Modulus (GPa) = 42.28483 16.64688 29.46585
#
# Velocity S-wave (km/s) = 4.81370 3.02032 4.01833
# Velocity P-wave (km/s) = 7.39862 6.54858 6.98654
#
# Compressibility (1/GPa) = 0.02298225
#
# Stress axis : x y z
#
# Youngs Moduli (GPa) = 70.38225 97.02773 41.73092
#
# Poissons Ratio (x) = 0.48335 0.17617
# Poissons Ratio (y) = 0.35062 0.14791
# Poissons Ratio (z) = 0.29713 0.34391
#
# Static dielectric constant tensor:
#      x y z
#    x 1.626040 0.000000 0.000000 
#    y 0.000000 1.653720 0.000000 
#    z 0.000000 0.000000 1.615010 
# 
# From -- ./inp_files/22434.got.cif
#   From: 2010.05.17/outbox.cif.g08.bks.cpg/sg74_12_cif.got.tgz:22434.got - 2010.06.03 17:57:02.
