data_PCOD9539825
_publ_section_title
;
Structure prediction by ZEFSAII (Michael W. Deem and Ramdas Pophale) SiO2 
 PCOD9539825
Probable space group: I M M A
;
_chemical_formula_sum "Si O2"
_cell_formula_units_Z 72
_cell_length_a 17.811256
_cell_length_b 13.758159
_cell_length_c 14.756678
_cell_angle_alpha 90.000000
_cell_angle_beta 90.000000
_cell_angle_gamma 90.000000
_cell_volume 3616.125302
_symmetry_space_group_name_H-M "I M M A"
_symmetry_group_IT_number 74
_symmetry_cell_setting 'orthorhombic'
loop_
_space_group_symop_operation_xyz
x,y,z
-x,1/2-y,z
x,-y,-z
-x,1/2+y,-z
-x,-y,-z
x,1/2+y,-z
-x,y,z
x,1/2-y,z
1/2+x,1/2+y,1/2+z
1/2-x,-y,1/2+z
1/2+x,1/2-y,1/2-z
1/2-x,y,1/2-z
1/2-x,1/2-y,1/2-z
1/2+x,y,1/2-z
1/2-x,1/2+y,1/2+z
1/2+x,-y,1/2+z
loop_
_atom_site_type_symbol
_atom_site_label
_atom_site_fract_x
_atom_site_fract_y
_atom_site_fract_z
Si Si1 0.187674 0.637897 0.008261
Si Si2 0.666898 0.054120 0.708542
Si Si3 0.410833 0.360433 0.336013
Si Si4 0.410987 0.139446 0.871791
Si Si5 0.816471 0.000000 0.500000
O O1 0.206675 0.750000 0.023159
O O2 0.170380 0.589273 0.104743
O O3 0.118190 0.632595 0.939596
O O4 0.258440 0.581851 0.964040
O O5 0.750000 0.057416 0.750000
O O6 0.615017 0.124022 0.768669
O O7 0.632405 0.946234 0.714645
O O8 0.500000 0.374806 0.330272
O O9 0.393513 0.250000 0.305019
O O10 0.500000 0.126677 0.880864
O O11 0.392031 0.250000 0.900435
O O12 0.367095 0.057794 0.928749
#
# Coordination Sequence:
#
# PCOD9539825 Si02
#       5
#    16  16  16  16   8
#     4  11  22  38  63  94 124 160 203 247 300 365
#     4  12  22  39  62  93 123 160 199 251 306 359
#     4  10  22  40  61  89 125 163 203 248 301 363
#     4  11  25  42  63  91 122 158 203 254 305 359
#     4  12  21  42  61  86 120 162 200 250 297 358
#
# _framework density 19.910814999999999
#
# number of rings (size 3 to 8) (size 9 to 14) (size 15 to 20)
#    0.000    0.889    4.444    2.333    0.000    4.000 
#    0.000    4.444    0.000    5.333    0.000    0.000 
#    0.000    0.000    0.000    0.000    0.000    0.000 
#
# Total GULP energy -201083.326127 kJ/mol
# GULP energy per Si atom -5585.647948 kJ/mol
# Density = 1.986550 g / cm^3
# Si number density = 19.910815 Si / 1000 Ang^3
#
#
#
# Elastic Constant Matrix: (Units=GPa)
#
#
# Indices 1 2 3 4 5 6 
#
# 1 56.4497 33.6724 -2.6657 0.0000 0.0000 0.0000
# 2 33.6724 138.6369 12.9402 0.0000 0.0000 0.0000
# 3 -2.6657 12.9402 30.7460 0.0000 0.0000 0.0000
# 4 0.0000 0.0000 0.0000 30.6926 0.0000 0.0000
# 5 0.0000 0.0000 0.0000 0.0000 6.7652 0.0000
# 6 0.0000 0.0000 0.0000 0.0000 0.0000 37.5138
#
#
#
# Elastic Compliance Matrix: (Units=1/GPa)
#
#
# Indices 1 2 3 4 5 6 
#
# 1 0.021218 -0.005543 0.004173 0.000000 0.000000 0.000000
# 2 -0.005543 0.008956 -0.004250 0.000000 0.000000 0.000000
# 3 0.004173 -0.004250 0.034675 0.000000 0.000000 0.000000
# 4 0.000000 0.000000 0.000000 0.032581 0.000000 0.000000
# 5 0.000000 0.000000 0.000000 0.000000 0.147816 0.000000
# 6 0.000000 0.000000 0.000000 0.000000 0.000000 0.026657
#
#
# Mechanical properties :
#
#
# Convention : Reuss Voigt Hill
#
# Bulk Modulus (GPa) = 18.65374 34.85850 26.75612
# Shear Modulus (GPa) = 16.61055 27.12002 21.86528
#
# Velocity S-wave (km/s) = 2.89147 3.69463 3.31745
# Velocity P-wave (km/s) = 4.53171 5.97878 5.30482
#
# Compressibility (1/GPa) = 0.05360854
#
# Stress axis : x y z
#
# Youngs Moduli (GPa) = 47.12906 111.65613 28.83923
#
# Poissons Ratio (x) = 0.61891 -0.12033
# Poissons Ratio (y) = 0.26124 0.12257
# Poissons Ratio (z) = -0.19665 0.47454
#
# Static dielectric constant tensor:
#      x y z
#    x 1.677000 0.000000 0.000000 
#    y 0.000000 1.725070 0.000000 
#    z 0.000000 0.000000 1.709680 
# 
# From -- ./inp_files/33833.got.cif
#   From: 2010.05.17/outbox.cif.g08.bks.cpg/sg74_17_cif.got.tgz:33833.got - 2010.06.03 17:57:02.
