data_PCOD9539471
_publ_section_title
;
Structure prediction by ZEFSAII (Michael W. Deem and Ramdas Pophale) SiO2 
 PCOD9539471
Probable space group: I M M A
;
_chemical_formula_sum "Si O2"
_cell_formula_units_Z 64
_cell_length_a 18.058725
_cell_length_b 20.578856
_cell_length_c 7.381777
_cell_angle_alpha 90.000000
_cell_angle_beta 90.000000
_cell_angle_gamma 90.000000
_cell_volume 2743.274295
_symmetry_space_group_name_H-M "I M M A"
_symmetry_group_IT_number 74
_symmetry_cell_setting 'orthorhombic'
loop_
_space_group_symop_operation_xyz
x,y,z
-x,1/2-y,z
x,-y,-z
-x,1/2+y,-z
-x,-y,-z
x,1/2+y,-z
-x,y,z
x,1/2-y,z
1/2+x,1/2+y,1/2+z
1/2-x,-y,1/2+z
1/2+x,1/2-y,1/2-z
1/2-x,y,1/2-z
1/2-x,1/2-y,1/2-z
1/2+x,y,1/2-z
1/2-x,1/2+y,1/2+z
1/2+x,-y,1/2+z
loop_
_atom_site_type_symbol
_atom_site_label
_atom_site_fract_x
_atom_site_fract_y
_atom_site_fract_z
Si Si1 0.356733 0.066173 0.400214
Si Si2 0.192279 0.605555 0.512727
Si Si3 0.920232 0.611058 0.231509
Si Si4 0.417698 0.750000 0.343669
Si Si5 0.754968 0.250000 0.033119
O O1 0.271093 0.072579 0.456311
O O2 0.356118 0.086752 0.190466
O O3 0.404809 0.115745 0.517972
O O4 0.383468 0.000000 0.500000
O O5 0.147406 0.580042 0.339781
O O6 0.215545 0.681441 0.484711
O O7 0.919640 0.686434 0.282365
O O8 0.000000 0.581234 0.270203
O O9 0.500000 0.750000 0.438486
O O10 0.339102 0.750000 0.453427
O O11 0.750000 0.250000 0.250000
#
# Coordination Sequence:
#
# PCOD9539471 Si02
#       5
#    16  16  16   8   8
#     4  11  25  42  65  94 129 169 223 275 318 377
#     4  11  24  40  69 100 124 169 223 272 322 388
#     4  11  24  42  65  95 134 174 211 265 335 394
#     4  10  21  39  63  99 137 172 210 272 345 392
#     4  12  19  41  69 102 128 167 225 272 326 390
#
# _framework density 23.329787
#
# number of rings (size 3 to 8) (size 9 to 14) (size 15 to 20)
#    0.000    1.000    5.000    1.500    7.000    2.500 
#    0.000    2.500    0.000    4.500    0.000    0.000 
#    0.000    0.000    0.000    0.000    0.000    0.000 
#
# Total GULP energy -178235.059893 kJ/mol
# GULP energy per Si atom -5569.845622 kJ/mol
# Density = 2.327669 g / cm^3
# Si number density = 23.329787 Si / 1000 Ang^3
#
#
#
# Elastic Constant Matrix: (Units=GPa)
#
#
# Indices 1 2 3 4 5 6 
#
# 1 98.4759 -17.1223 48.2423 0.0000 0.0000 0.0000
# 2 -17.1223 78.5307 -18.0039 0.0000 0.0000 0.0000
# 3 48.2423 -18.0039 96.6637 0.0000 0.0000 0.0000
# 4 0.0000 0.0000 0.0000 17.0081 0.0000 0.0000
# 5 0.0000 0.0000 0.0000 0.0000 14.8136 0.0000
# 6 0.0000 0.0000 0.0000 0.0000 0.0000 -2.2542
#
#
#
# Elastic Compliance Matrix: (Units=1/GPa)
#
#
# Indices 1 2 3 4 5 6 
#
# 1 0.013602 0.001472 -0.006514 0.000000 0.000000 0.000000
# 2 0.001472 0.013461 0.001772 0.000000 0.000000 0.000000
# 3 -0.006514 0.001772 0.013926 0.000000 0.000000 0.000000
# 4 0.000000 0.000000 0.000000 0.058795 0.000000 0.000000
# 5 0.000000 0.000000 0.000000 0.000000 0.067506 0.000000
# 6 0.000000 0.000000 0.000000 0.000000 0.000000 -0.443611
#
#
# Mechanical properties :
#
#
# Convention : Reuss Voigt Hill
#
# Bulk Modulus (GPa) = 29.02714 33.32249 31.17481
# Shear Modulus (GPa) = -19.35747 23.28378 1.96316
#
# Velocity S-wave (km/s) = -2.88363 3.16259 0.91832
# Velocity P-wave (km/s) = 1.17558 5.25834 3.81000
#
# Compressibility (1/GPa) = 0.03445052
#
# Stress axis : x y z
#
# Youngs Moduli (GPa) = 73.51876 74.28749 71.80646
#
# Poissons Ratio (x) = -0.10937 0.46776
# Poissons Ratio (y) = -0.10824 -0.12727
# Poissons Ratio (z) = 0.47891 -0.13167
#
# Static dielectric constant tensor:
#      x y z
#    x 1.902500 0.000000 0.000000 
#    y 0.000000 2.178820 0.000000 
#    z 0.000000 0.000000 1.885840 
# 
# From -- ./inp_files/8866.got.cif
#   From: 2010.05.17/outbox.cif.g08.bks.cpg/sg74_5_cif.got.tgz:8866.got - 2010.06.03 17:57:02.
