data_PCOD9539645
_publ_section_title
;
Structure prediction by ZEFSAII (Michael W. Deem and Ramdas Pophale) SiO2 
 PCOD9539645
Probable space group: I M M A
;
_chemical_formula_sum "Si O2"
_cell_formula_units_Z 104
_cell_length_a 15.764190
_cell_length_b 14.203769
_cell_length_c 20.137985
_cell_angle_alpha 90.000000
_cell_angle_beta 90.000000
_cell_angle_gamma 90.000000
_cell_volume 4509.114612
_symmetry_space_group_name_H-M "I M M A"
_symmetry_group_IT_number 74
_symmetry_cell_setting 'orthorhombic'
loop_
_space_group_symop_operation_xyz
x,y,z
-x,1/2-y,z
x,-y,-z
-x,1/2+y,-z
-x,-y,-z
x,1/2+y,-z
-x,y,z
x,1/2-y,z
1/2+x,1/2+y,1/2+z
1/2-x,-y,1/2+z
1/2+x,1/2-y,1/2-z
1/2-x,y,1/2-z
1/2-x,1/2-y,1/2-z
1/2+x,y,1/2-z
1/2-x,1/2+y,1/2+z
1/2+x,-y,1/2+z
loop_
_atom_site_type_symbol
_atom_site_label
_atom_site_fract_x
_atom_site_fract_y
_atom_site_fract_z
Si Si1 0.340878 0.389298 0.016547
Si Si2 0.598625 0.853407 0.124901
Si Si3 0.163788 0.060677 0.341383
Si Si4 0.602143 0.147349 0.661125
Si Si5 0.141547 0.557014 0.804344
Si Si6 0.150239 0.613264 0.008923
Si Si7 0.000000 0.373610 0.090942
O O1 0.368706 0.385399 0.093097
O O2 0.244046 0.355080 0.010547
O O3 0.336842 0.500000 0.000000
O O4 0.394795 0.350798 0.955552
O O5 0.500000 0.862985 0.144727
O O6 0.629751 0.750000 0.148192
O O7 0.646671 0.948472 0.147093
O O8 0.127243 0.091569 0.270568
O O9 0.264599 0.076395 0.332484
O O10 0.500000 0.142281 0.660186
O O11 0.627311 0.250000 0.686752
O O12 0.634581 0.056398 0.699044
O O13 0.633623 0.136598 0.585512
O O14 0.073404 0.596710 0.854874
O O15 0.074308 0.648188 0.963795
O O16 0.145791 0.500000 0.000000
#
# Coordination Sequence:
#
# PCOD9539645 Si02
#       7
#    16  16  16  16  16  16   8
#     4   9  18  34  55  79 105 132 179 238 270 310
#     4  10  22  39  58  79 106 144 186 229 279 325
#     4  10  22  36  54  81 113 141 184 227 271 318
#     4  11  21  31  46  77 113 143 178 216 259 319
#     4  11  21  35  52  79 115 149 181 216 269 329
#     4  11  17  31  55  77 104 142 181 224 268 310
#     4  12  19  32  56  80 105 148 186 220 262 318
#
# _framework density 23.064395000000001
#
# number of rings (size 3 to 8) (size 9 to 14) (size 15 to 20)
#    0.000    1.538    4.615    2.077    1.077    5.846 
#    0.000    3.077    0.000    0.000    0.000    4.308 
#    0.000    0.000    0.000    0.000    0.000    0.000 
#
# Total GULP energy -289530.774337 kJ/mol
# GULP energy per Si atom -5567.899506 kJ/mol
# Density = 2.301190 g / cm^3
# Si number density = 23.064395 Si / 1000 Ang^3
#
#
#
# Elastic Constant Matrix: (Units=GPa)
#
#
# Indices 1 2 3 4 5 6 
#
# 1 52.1204 -1.7620 5.0594 0.0000 0.0000 0.0000
# 2 -1.7620 43.3016 -1.3656 0.0000 0.0000 0.0000
# 3 5.0594 -1.3656 133.3296 0.0000 0.0000 0.0000
# 4 0.0000 0.0000 0.0000 -5.6227 0.0000 0.0000
# 5 0.0000 0.0000 0.0000 0.0000 -30.2961 0.0000
# 6 0.0000 0.0000 0.0000 0.0000 0.0000 -18.2587
#
#
#
# Elastic Compliance Matrix: (Units=1/GPa)
#
#
# Indices 1 2 3 4 5 6 
#
# 1 0.019282 0.000762 -0.000724 0.000000 0.000000 0.000000
# 2 0.000762 0.023131 0.000208 0.000000 0.000000 0.000000
# 3 -0.000724 0.000208 0.007530 0.000000 0.000000 0.000000
# 4 0.000000 0.000000 0.000000 -0.177849 0.000000 0.000000
# 5 0.000000 0.000000 0.000000 0.000000 -0.033008 0.000000
# 6 0.000000 0.000000 0.000000 0.000000 0.000000 -0.054768
#
#
# Mechanical properties :
#
#
# Convention : Reuss Voigt Hill
#
# Bulk Modulus (GPa) = 19.82736 25.84614 22.83675
# Shear Modulus (GPa) = -25.08001 4.28582 -10.39710
#
# Velocity S-wave (km/s) = -3.30114 1.36464 -2.12547
# Velocity P-wave (km/s) = 2.43204 3.70316 1.97466
#
# Compressibility (1/GPa) = 0.05043535
#
# Stress axis : x y z
#
# Youngs Moduli (GPa) = 51.86085 43.23131 132.80550
#
# Poissons Ratio (x) = -0.03293 0.09614
# Poissons Ratio (y) = -0.03951 -0.02763
# Poissons Ratio (z) = 0.03754 -0.00899
#
# Static dielectric constant tensor:
#      x y z
#    x 1.810010 0.000000 0.000000 
#    y 0.000000 1.901440 0.000000 
#    z 0.000000 0.000000 1.868690 
# 
# From -- ./inp_files/52129.got.cif
#   From: 2010.05.17/outbox.cif.g08.bks.cpg/sg74_27_cif.got.tgz:52129.got - 2010.06.03 17:57:02.
