data_PCOD9539402
_publ_section_title
;
Structure prediction by ZEFSAII (Michael W. Deem and Ramdas Pophale) SiO2 
 PCOD9539402
Probable space group: I M M A
;
_chemical_formula_sum "Si O2"
_cell_formula_units_Z 100
_cell_length_a 30.273603
_cell_length_b 18.822081
_cell_length_c 9.822244
_cell_angle_alpha 90.000000
_cell_angle_beta 90.000000
_cell_angle_gamma 90.000000
_cell_volume 5596.834539
_symmetry_space_group_name_H-M "I M M A"
_symmetry_group_IT_number 74
_symmetry_cell_setting 'orthorhombic'
loop_
_space_group_symop_operation_xyz
x,y,z
-x,1/2-y,z
x,-y,-z
-x,1/2+y,-z
-x,-y,-z
x,1/2+y,-z
-x,y,z
x,1/2-y,z
1/2+x,1/2+y,1/2+z
1/2-x,-y,1/2+z
1/2+x,1/2-y,1/2-z
1/2-x,y,1/2-z
1/2-x,1/2-y,1/2-z
1/2+x,y,1/2-z
1/2-x,1/2+y,1/2+z
1/2+x,-y,1/2+z
loop_
_atom_site_type_symbol
_atom_site_label
_atom_site_fract_x
_atom_site_fract_y
_atom_site_fract_z
Si Si1 0.549666 0.519053 0.840232
Si Si2 0.577857 0.366650 0.737841
Si Si3 0.199845 0.048374 0.737142
Si Si4 0.500000 0.750000 0.263127
Si Si5 0.159664 0.832784 0.436041
Si Si6 0.641105 0.410656 0.208913
Si Si7 0.639619 0.581799 0.484807
O O1 0.500000 0.544852 0.810548
O O2 0.559486 0.445446 0.764394
O O3 0.589050 0.572390 0.805002
O O4 0.552176 0.500000 0.000000
O O5 0.538692 0.311433 0.738241
O O6 0.613816 0.348523 0.855009
O O7 0.604545 0.370939 0.596173
O O8 0.250000 0.024186 0.750000
O O9 0.194422 0.114550 0.635706
O O10 0.181173 0.072919 0.883902
O O11 0.167781 0.984782 0.687809
O O12 0.170321 0.750000 0.422347
O O13 0.154347 0.855968 0.592423
O O14 0.650178 0.390423 0.365292
O O15 0.622659 0.500000 0.500000
#
# Coordination Sequence:
#
# PCOD9539402 Si02
#       7
#    16  16  16   4  16  16  16
#     4  11  19  31  57  85 112 147 199 248 297 330
#     4  11  20  36  56  82 110 158 197 248 283 346
#     4  10  21  38  66  92 114 153 199 246 291 352
#     4  12  24  36  56  82 114 156 218 238 292 360
#     4  11  22  38  59  84 123 160 194 233 297 354
#     4  11  20  38  58  89 121 148 195 250 303 348
#     4   9  19  36  59  83 117 143 192 244 305 343
#
# _framework density 17.867242000000001
#
# number of rings (size 3 to 8) (size 9 to 14) (size 15 to 20)
#    0.000    1.440    8.000    0.480    0.000    4.160 
#    2.880    1.200    0.000    4.320    0.000    0.000 
#    0.000    0.000    0.000    0.000    0.000    0.000 
#
# Total GULP energy -278433.143531 kJ/mol
# GULP energy per Si atom -5568.662871 kJ/mol
# Density = 1.782657 g / cm^3
# Si number density = 17.867242 Si / 1000 Ang^3
#
#
#
# Elastic Constant Matrix: (Units=GPa)
#
#
# Indices 1 2 3 4 5 6 
#
# 1 73.3892 2.0548 -1.1766 0.0000 0.0000 0.0000
# 2 2.0548 37.3636 17.4250 0.0000 0.0000 0.0000
# 3 -1.1766 17.4250 101.4862 0.0000 0.0000 0.0000
# 4 0.0000 0.0000 0.0000 3.1538 0.0000 0.0000
# 5 0.0000 0.0000 0.0000 0.0000 283.5645 0.0000
# 6 0.0000 0.0000 0.0000 0.0000 0.0000 13.2235
#
#
#
# Elastic Compliance Matrix: (Units=1/GPa)
#
#
# Indices 1 2 3 4 5 6 
#
# 1 0.013656 -0.000897 0.000312 0.000000 0.000000 0.000000
# 2 -0.000897 0.029152 -0.005016 0.000000 0.000000 0.000000
# 3 0.000312 -0.005016 0.010718 0.000000 0.000000 0.000000
# 4 0.000000 0.000000 0.000000 0.317076 0.000000 0.000000
# 5 0.000000 0.000000 0.000000 0.000000 0.003527 0.000000
# 6 0.000000 0.000000 0.000000 0.000000 0.000000 0.075623
#
#
# Mechanical properties :
#
#
# Convention : Reuss Voigt Hill
#
# Bulk Modulus (GPa) = 23.62582 27.64950 25.63766
# Shear Modulus (GPa) = 10.52495 72.91742 41.72119
#
# Velocity S-wave (km/s) = 2.42970 6.39525 4.83749
# Velocity P-wave (km/s) = 4.59597 8.36905 6.75144
#
# Compressibility (1/GPa) = 0.04232657
#
# Stress axis : x y z
#
# Youngs Moduli (GPa) = 73.22734 34.30238 93.29761
#
# Poissons Ratio (x) = 0.03076 -0.02913
# Poissons Ratio (y) = 0.06566 0.46796
# Poissons Ratio (z) = -0.02287 0.17205
#
# Static dielectric constant tensor:
#      x y z
#    x 1.608440 0.000000 0.000000 
#    y 0.000000 1.589770 0.000000 
#    z 0.000000 0.000000 1.637610 
# 
# From -- ./inp_files/16225.got.cif
#   From: 2010.05.17/outbox.cif.g08.bks.cpg/sg74_9_cif.got.tgz:16225.got - 2010.06.03 17:57:02.
