data_PCOD9539219
_publ_section_title
;
Structure prediction by ZEFSAII (Michael W. Deem and Ramdas Pophale) SiO2 
 PCOD9539219
Probable space group: I M M A
;
_chemical_formula_sum "Si O2"
_cell_formula_units_Z 72
_cell_length_a 14.962820
_cell_length_b 29.845905
_cell_length_c 7.655902
_cell_angle_alpha 90.000000
_cell_angle_beta 90.000000
_cell_angle_gamma 90.000000
_cell_volume 3418.964326
_symmetry_space_group_name_H-M "I M M A"
_symmetry_group_IT_number 74
_symmetry_cell_setting 'orthorhombic'
loop_
_space_group_symop_operation_xyz
x,y,z
-x,1/2-y,z
x,-y,-z
-x,1/2+y,-z
-x,-y,-z
x,1/2+y,-z
-x,y,z
x,1/2-y,z
1/2+x,1/2+y,1/2+z
1/2-x,-y,1/2+z
1/2+x,1/2-y,1/2-z
1/2-x,y,1/2-z
1/2-x,1/2-y,1/2-z
1/2+x,y,1/2-z
1/2-x,1/2+y,1/2+z
1/2+x,-y,1/2+z
loop_
_atom_site_type_symbol
_atom_site_label
_atom_site_fract_x
_atom_site_fract_y
_atom_site_fract_z
Si Si1 0.693890 0.798393 0.073256
Si Si2 0.000000 0.092635 0.868721
Si Si3 0.000000 0.175067 0.595440
Si Si4 0.820132 0.462306 0.869034
Si Si5 0.193998 0.602466 0.578697
Si Si6 0.000000 0.107658 0.294721
O O1 0.717090 0.750000 0.989629
O O2 0.750000 0.802415 0.250000
O O3 0.589938 0.798250 0.121506
O O4 0.702260 0.844936 0.969674
O O5 0.000000 0.135031 0.738384
O O6 0.090375 0.065186 0.823814
O O7 0.000000 0.104673 0.080856
O O8 0.000000 0.156101 0.394220
O O9 0.750000 0.489954 0.750000
O O10 0.854669 0.500000 0.000000
O O11 0.746595 0.426574 0.937900
O O12 0.250000 0.596131 0.750000
O O13 0.092307 0.588374 0.625244
#
# Coordination Sequence:
#
# PCOD9539219 Si02
#       6
#    16   8   8  16  16   8
#     4  10  21  37  61  92 127 169 215 264 327 396
#     4  12  23  43  70  95 128 173 224 268 332 400
#     4  10  21  39  65  95 126 171 212 269 332 390
#     4  12  26  44  65  97 131 173 219 279 329 399
#     4  11  21  40  64  91 128 167 217 273 331 389
#     4  10  22  38  67  96 121 170 218 269 326 398
#
# _framework density 21.059009
#
# number of rings (size 3 to 8) (size 9 to 14) (size 15 to 20)
#    0.000    1.111    2.222    6.000    0.000    0.444 
#    0.000    1.111    0.000    1.333    0.000    0.000 
#    0.000    0.000    0.000    0.000    0.000    0.000 
#
# Total GULP energy -200438.372436 kJ/mol
# GULP energy per Si atom -5567.732568 kJ/mol
# Density = 2.101108 g / cm^3
# Si number density = 21.059009 Si / 1000 Ang^3
#
#
#
# Elastic Constant Matrix: (Units=GPa)
#
#
# Indices 1 2 3 4 5 6 
#
# 1 155.0714 16.5476 21.6930 -0.0010 -0.0009 0.0008
# 2 16.5476 100.6316 11.7940 -0.0033 -0.0005 0.0003
# 3 21.6930 11.7940 66.7962 -0.0089 -0.0002 0.0031
# 4 -0.0010 -0.0033 -0.0089 2.9518 0.0001 -0.0015
# 5 -0.0009 -0.0005 -0.0002 0.0001 30.6119 -0.0008
# 6 0.0008 0.0003 0.0031 -0.0015 -0.0008 46.0074
#
#
#
# Elastic Compliance Matrix: (Units=1/GPa)
#
#
# Indices 1 2 3 4 5 6 
#
# 1 0.006831 -0.000882 -0.002063 -0.000005 0.000000 0.000000
# 2 -0.000882 0.010261 -0.001525 0.000007 0.000000 0.000000
# 3 -0.002063 -0.001525 0.015910 0.000045 0.000000 -0.000001
# 4 -0.000005 0.000007 0.000045 0.338778 -0.000001 0.000011
# 5 0.000000 0.000000 0.000000 -0.000001 0.032667 0.000001
# 6 0.000000 0.000000 -0.000001 0.000011 0.000001 0.021736
#
#
# Mechanical properties :
#
#
# Convention : Reuss Voigt Hill
#
# Bulk Modulus (GPa) = 41.55814 46.95205 44.25510
# Shear Modulus (GPa) = 11.28301 34.07852 22.68076
#
# Velocity S-wave (km/s) = 2.31721 4.02710 3.28534
# Velocity P-wave (km/s) = 5.19001 6.63078 5.95414
#
# Compressibility (1/GPa) = 0.02406267
#
# Stress axis : x y z
#
# Youngs Moduli (GPa) = 146.38511 97.45665 62.85270
#
# Poissons Ratio (x) = 0.08591 0.12966
# Poissons Ratio (y) = 0.12905 0.09588
# Poissons Ratio (z) = 0.30198 0.14866
#
# Static dielectric constant tensor:
#      x y z
#    x 1.759530 0.000000 0.000010 
#    y 0.000000 1.765430 0.000000 
#    z 0.000010 0.000000 0.448080 
# 
# From -- ./inp_files/9201.got.cif
#   From: 2010.05.17/outbox.cif.g08.bks.cpg/sg74_5_cif.got.tgz:9201.got - 2010.06.03 17:57:02.
