data_PCOD9539734
_publ_section_title
;
Structure prediction by ZEFSAII (Michael W. Deem and Ramdas Pophale) SiO2 
 PCOD9539734
Probable space group: I M M A
;
_chemical_formula_sum "Si O2"
_cell_formula_units_Z 72
_cell_length_a 27.706374
_cell_length_b 9.140243
_cell_length_c 13.002780
_cell_angle_alpha 90.000000
_cell_angle_beta 90.000000
_cell_angle_gamma 90.000000
_cell_volume 3292.862899
_symmetry_space_group_name_H-M "I M M A"
_symmetry_group_IT_number 74
_symmetry_cell_setting 'orthorhombic'
loop_
_space_group_symop_operation_xyz
x,y,z
-x,1/2-y,z
x,-y,-z
-x,1/2+y,-z
-x,-y,-z
x,1/2+y,-z
-x,y,z
x,1/2-y,z
1/2+x,1/2+y,1/2+z
1/2-x,-y,1/2+z
1/2+x,1/2-y,1/2-z
1/2-x,y,1/2-z
1/2-x,1/2-y,1/2-z
1/2+x,y,1/2-z
1/2-x,1/2+y,1/2+z
1/2+x,-y,1/2+z
loop_
_atom_site_type_symbol
_atom_site_label
_atom_site_fract_x
_atom_site_fract_y
_atom_site_fract_z
Si Si1 0.138348 0.250000 0.583400
Si Si2 0.054607 0.250000 0.836691
Si Si3 0.846190 0.750000 0.804301
Si Si4 0.284862 0.250000 0.100051
Si Si5 0.342809 0.250000 0.548117
Si Si6 0.943708 0.250000 0.437878
Si Si7 0.098359 0.496512 0.702981
Si Si8 0.721127 0.500000 0.500000
O O1 0.170708 0.250000 0.482027
O O2 0.083139 0.250000 0.545548
O O3 0.139995 0.396027 0.650912
O O4 0.102319 0.250000 0.911000
O O5 0.062508 0.390746 0.763984
O O6 0.000000 0.250000 0.880764
O O7 0.804516 0.750000 0.716536
O O8 0.877238 0.607162 0.780961
O O9 0.838684 0.750000 0.924796
O O10 0.254294 0.393479 0.069000
O O11 0.312228 0.103698 0.572338
O O12 0.926619 0.396352 0.378975
O O13 0.000000 0.250000 0.448458
#
# Coordination Sequence:
#
# PCOD9539734 Si02
#       8
#     8   8   8   8   8   8  16   8
#     4  11  21  37  63  95 135 174 219 270 320 396
#     4  11  24  45  71  92 127 176 223 271 331 396
#     4  11  22  41  69  94 132 177 217 274 319 389
#     4  11  21  40  68  98 128 177 220 262 337 396
#     4  11  24  47  66  98 134 170 221 279 332 375
#     4  11  22  35  57  93 136 177 214 265 331 391
#     4  10  22  38  62  98 132 169 216 275 320 383
#     4  10  24  40  67  96 131 166 212 278 326 402
#
# _framework density 21.865473000000001
#
# number of rings (size 3 to 8) (size 9 to 14) (size 15 to 20)
#    0.000    1.333    2.222    4.000    0.000    5.333 
#    0.000   11.667    0.000   10.667    0.000    0.000 
#    0.000    0.000    0.000    0.000    0.000    0.000 
#
# Total GULP energy -201142.305070 kJ/mol
# GULP energy per Si atom -5587.286252 kJ/mol
# Density = 2.181571 g / cm^3
# Si number density = 21.865473 Si / 1000 Ang^3
#
#
#
# Elastic Constant Matrix: (Units=GPa)
#
#
# Indices 1 2 3 4 5 6 
#
# 1 119.6101 49.6869 27.9020 0.0000 0.0000 0.0000
# 2 49.6869 151.9295 27.0450 0.0000 0.0000 0.0000
# 3 27.9020 27.0450 79.2427 0.0000 0.0000 0.0000
# 4 0.0000 0.0000 0.0000 32.9242 0.0000 0.0000
# 5 0.0000 0.0000 0.0000 0.0000 32.2106 0.0000
# 6 0.0000 0.0000 0.0000 0.0000 0.0000 12.4406
#
#
#
# Elastic Compliance Matrix: (Units=1/GPa)
#
#
# Indices 1 2 3 4 5 6 
#
# 1 0.010154 -0.002858 -0.002600 0.000000 0.000000 0.000000
# 2 -0.002858 0.007812 -0.001660 0.000000 0.000000 0.000000
# 3 -0.002600 -0.001660 0.014101 0.000000 0.000000 0.000000
# 4 0.000000 0.000000 0.000000 0.030373 0.000000 0.000000
# 5 0.000000 0.000000 0.000000 0.000000 0.031046 0.000000
# 6 0.000000 0.000000 0.000000 0.000000 0.000000 0.080382
#
#
# Mechanical properties :
#
#
# Convention : Reuss Voigt Hill
#
# Bulk Modulus (GPa) = 56.07876 62.22781 59.15328
# Shear Modulus (GPa) = 25.76680 31.92497 28.84588
#
# Velocity S-wave (km/s) = 3.43654 3.82522 3.63608
# Velocity P-wave (km/s) = 6.43811 6.93044 6.68881
#
# Compressibility (1/GPa) = 0.01783206
#
# Stress axis : x y z
#
# Youngs Moduli (GPa) = 98.48097 128.00552 70.91467
#
# Poissons Ratio (x) = 0.36584 0.18438
# Poissons Ratio (y) = 0.28146 0.11771
# Poissons Ratio (z) = 0.25605 0.21248
#
# Static dielectric constant tensor:
#      x y z
#    x 1.822860 0.000000 0.000000 
#    y 0.000000 1.839890 0.000000 
#    z 0.000000 0.000000 1.787570 
# 
# From -- ./inp_files/37122.got.cif
#   From: 2010.05.17/outbox.cif.g08.bks.cpg/sg74_19_cif.got.tgz:37122.got - 2010.06.03 17:57:02.
