data_PCOD9539212
_publ_section_title
;
Structure prediction by ZEFSAII (Michael W. Deem and Ramdas Pophale) SiO2 
 PCOD9539212
Probable space group: I M M A
;
_chemical_formula_sum "Si O2"
_cell_formula_units_Z 104
_cell_length_a 9.271875
_cell_length_b 26.214240
_cell_length_c 21.823644
_cell_angle_alpha 90.000000
_cell_angle_beta 90.000000
_cell_angle_gamma 90.000000
_cell_volume 5304.349208
_symmetry_space_group_name_H-M "I M M A"
_symmetry_group_IT_number 74
_symmetry_cell_setting 'orthorhombic'
loop_
_space_group_symop_operation_xyz
x,y,z
-x,1/2-y,z
x,-y,-z
-x,1/2+y,-z
-x,-y,-z
x,1/2+y,-z
-x,y,z
x,1/2-y,z
1/2+x,1/2+y,1/2+z
1/2-x,-y,1/2+z
1/2+x,1/2-y,1/2-z
1/2-x,y,1/2-z
1/2-x,1/2-y,1/2-z
1/2+x,y,1/2-z
1/2-x,1/2+y,1/2+z
1/2+x,-y,1/2+z
loop_
_atom_site_type_symbol
_atom_site_label
_atom_site_fract_x
_atom_site_fract_y
_atom_site_fract_z
Si Si1 0.666491 0.372108 0.187916
Si Si2 0.326531 0.250000 0.815675
Si Si3 0.830771 0.039306 0.688563
Si Si4 0.669672 0.358221 0.874984
Si Si5 0.670645 0.809204 0.922412
Si Si6 0.169599 0.462131 0.412461
Si Si7 0.671894 0.392403 0.503429
O O1 0.500000 0.369134 0.204321
O O2 0.750000 0.379687 0.250000
O O3 0.704495 0.322137 0.148290
O O4 0.683494 0.417970 0.139316
O O5 0.500000 0.250000 0.807050
O O6 0.250000 0.250000 0.750000
O O7 0.290008 0.198284 0.852558
O O8 0.750000 0.022874 0.750000
O O9 0.817221 0.099864 0.678621
O O10 0.000000 0.026433 0.694785
O O11 0.781588 0.011700 0.625683
O O12 0.500000 0.357441 0.893665
O O13 0.764891 0.379247 0.930263
O O14 0.500000 0.823005 0.931903
O O15 0.687344 0.750000 0.936517
O O16 0.771313 0.844757 0.962984
O O17 0.257211 0.442029 0.470882
O O18 0.000000 0.467237 0.428737
O O19 0.500000 0.396429 0.503419
#
# Coordination Sequence:
#
# PCOD9539212 Si02
#       7
#    16   8  16  16  16  16  16
#     4   9  17  29  47  72 102 137 179 222 274 335
#     4  10  22  40  64  90 120 158 197 238 291 350
#     4  10  21  37  61  89 118 152 195 242 290 347
#     4  10  22  40  60  86 118 158 198 234 290 360
#     4   9  19  36  55  73 102 146 188 231 286 352
#     4   9  19  37  57  79 111 153 191 230 285 351
#     4  11  23  37  56  85 115 146 190 246 294 336
#
# _framework density 19.606553000000002
#
# number of rings (size 3 to 8) (size 9 to 14) (size 15 to 20)
#    0.000    2.308    0.000    3.231    1.077    5.538 
#    0.000    3.077    0.000    0.000    0.000    0.000 
#    0.000    0.000    0.000    0.000    0.000    0.000 
#
# Total GULP energy -290203.453143 kJ/mol
# GULP energy per Si atom -5580.835637 kJ/mol
# Density = 1.956193 g / cm^3
# Si number density = 19.606553 Si / 1000 Ang^3
#
#
#
# Elastic Constant Matrix: (Units=GPa)
#
#
# Indices 1 2 3 4 5 6 
#
# 1 72.4529 41.5112 62.3911 0.0000 0.0000 0.0000
# 2 41.5112 113.1984 37.4243 0.0000 0.0000 0.0000
# 3 62.3911 37.4243 108.8579 0.0000 0.0000 0.0000
# 4 0.0000 0.0000 0.0000 17.4994 0.0000 0.0000
# 5 0.0000 0.0000 0.0000 0.0000 36.4578 0.0000
# 6 0.0000 0.0000 0.0000 0.0000 0.0000 13.2752
#
#
#
# Elastic Compliance Matrix: (Units=1/GPa)
#
#
# Indices 1 2 3 4 5 6 
#
# 1 0.030597 -0.006118 -0.015433 0.000000 0.000000 0.000000
# 2 -0.006118 0.011190 -0.000341 0.000000 0.000000 0.000000
# 3 -0.015433 -0.000341 0.018149 0.000000 0.000000 0.000000
# 4 0.000000 0.000000 0.000000 0.057145 0.000000 0.000000
# 5 0.000000 0.000000 0.000000 0.000000 0.027429 0.000000
# 6 0.000000 0.000000 0.000000 0.000000 0.000000 0.075328
#
#
# Mechanical properties :
#
#
# Convention : Reuss Voigt Hill
#
# Bulk Modulus (GPa) = 61.90971 64.12915 63.01943
# Shear Modulus (GPa) = 18.58691 23.65865 21.12278
#
# Velocity S-wave (km/s) = 3.08229 3.47749 3.28584
# Velocity P-wave (km/s) = 6.65672 6.99306 6.82696
#
# Compressibility (1/GPa) = 0.01615255
#
# Stress axis : x y z
#
# Youngs Moduli (GPa) = 32.68257 89.36383 55.09988
#
# Poissons Ratio (x) = 0.54673 0.85037
# Poissons Ratio (y) = 0.19995 0.01877
# Poissons Ratio (z) = 0.50440 0.03044
#
# Static dielectric constant tensor:
#      x y z
#    x 1.660690 0.000000 0.000000 
#    y 0.000000 1.731700 0.000000 
#    z 0.000000 0.000000 1.690630 
# 
# From -- ./inp_files/49241.got.cif
#   From: 2010.05.17/outbox.cif.g08.bks.cpg/sg74_25_cif.got.tgz:49241.got - 2010.06.03 17:57:02.
