data_PCOD9539600
_publ_section_title
;
Structure prediction by ZEFSAII (Michael W. Deem and Ramdas Pophale) SiO2 
 PCOD9539600
Probable space group: I M M A
;
_chemical_formula_sum "Si O2"
_cell_formula_units_Z 92
_cell_length_a 9.488534
_cell_length_b 27.775928
_cell_length_c 19.513455
_cell_angle_alpha 90.000000
_cell_angle_beta 90.000000
_cell_angle_gamma 90.000000
_cell_volume 5142.826429
_symmetry_space_group_name_H-M "I M M A"
_symmetry_group_IT_number 74
_symmetry_cell_setting 'orthorhombic'
loop_
_space_group_symop_operation_xyz
x,y,z
-x,1/2-y,z
x,-y,-z
-x,1/2+y,-z
-x,-y,-z
x,1/2+y,-z
-x,y,z
x,1/2-y,z
1/2+x,1/2+y,1/2+z
1/2-x,-y,1/2+z
1/2+x,1/2-y,1/2-z
1/2-x,y,1/2-z
1/2-x,1/2-y,1/2-z
1/2+x,y,1/2-z
1/2-x,1/2+y,1/2+z
1/2+x,-y,1/2+z
loop_
_atom_site_type_symbol
_atom_site_label
_atom_site_fract_x
_atom_site_fract_y
_atom_site_fract_z
Si Si1 0.168407 0.929788 0.178748
Si Si2 0.166040 0.854699 0.412499
Si Si3 0.831650 0.194232 0.319422
Si Si4 0.333117 0.481300 0.424132
Si Si5 0.000000 0.750000 0.229862
Si Si6 0.719649 0.250000 0.857582
Si Si7 0.331635 0.115414 0.068275
O O1 0.250000 0.935778 0.250000
O O2 0.236648 0.884408 0.139733
O O3 0.000000 0.923222 0.188680
O O4 0.190812 0.976421 0.130629
O O5 0.189148 0.798225 0.400552
O O6 0.201246 0.870784 0.489770
O O7 0.000000 0.865531 0.399907
O O8 0.799845 0.250000 0.336099
O O9 0.750000 0.181615 0.250000
O O10 0.793396 0.158764 0.380934
O O11 0.000000 0.190603 0.308139
O O12 0.294060 0.500000 0.500000
O O13 0.500000 0.470559 0.424859
O O14 0.246781 0.433160 0.410502
O O15 0.123305 0.750000 0.171163
O O16 0.119272 0.750000 0.291422
O O17 0.500000 0.108241 0.072372
#
# Coordination Sequence:
#
# PCOD9539600 Si02
#       7
#    16  16  16  16   4   8  16
#     4  11  25  41  63  89 120 156 200 247 296 354
#     4  11  23  39  60  90 122 159 199 246 296 350
#     4   9  19  37  60  87 121 156 193 238 292 350
#     4  10  21  42  62  83 116 156 194 244 300 347
#     4  10  24  42  60  82 116 170 198 252 288 346
#     4  11  24  40  60  86 119 160 205 240 300 349
#     4  10  22  37  62  91 119 156 197 245 296 352
#
# _framework density 17.888995999999999
#
# number of rings (size 3 to 8) (size 9 to 14) (size 15 to 20)
#    0.000    1.739    2.609    0.522    4.870    3.130 
#    0.000    3.478    0.000    0.000    0.000    0.000 
#    0.000    0.000    0.000    0.000    0.000    0.000 
#
# Total GULP energy -256326.031869 kJ/mol
# GULP energy per Si atom -5572.305041 kJ/mol
# Density = 1.784828 g / cm^3
# Si number density = 17.888996 Si / 1000 Ang^3
#
#
#
# Elastic Constant Matrix: (Units=GPa)
#
#
# Indices 1 2 3 4 5 6 
#
# 1 86.8540 48.4305 56.4918 0.0000 0.0000 0.0000
# 2 48.4305 110.5236 67.0428 0.0000 0.0000 0.0000
# 3 56.4918 67.0428 116.0551 0.0002 0.0000 0.0000
# 4 0.0000 0.0000 0.0002 77.7626 0.0000 0.0001
# 5 0.0000 0.0000 0.0000 0.0000 28.8914 0.0000
# 6 0.0000 0.0000 0.0000 0.0001 0.0000 -22.1550
#
#
#
# Elastic Compliance Matrix: (Units=1/GPa)
#
#
# Indices 1 2 3 4 5 6 
#
# 1 0.017895 -0.003937 -0.006436 0.000000 0.000000 0.000000
# 2 -0.003937 0.014795 -0.006630 0.000000 0.000000 0.000000
# 3 -0.006436 -0.006630 0.015580 0.000000 0.000000 0.000000
# 4 0.000000 0.000000 0.000000 0.012860 0.000000 0.000000
# 5 0.000000 0.000000 0.000000 0.000000 0.034612 0.000000
# 6 0.000000 0.000000 0.000000 0.000000 0.000000 -0.045137
#
#
# Mechanical properties :
#
#
# Convention : Reuss Voigt Hill
#
# Bulk Modulus (GPa) = 70.11492 73.04033 71.57763
# Shear Modulus (GPa) = 55.94861 26.33098 41.13979
#
# Velocity S-wave (km/s) = 5.59851 3.84071 4.80075
# Velocity P-wave (km/s) = 9.00392 7.78373 8.41597
#
# Compressibility (1/GPa) = 0.01426230
#
# Stress axis : x y z
#
# Youngs Moduli (GPa) = 55.88007 67.59037 64.18586
#
# Poissons Ratio (x) = 0.26613 0.41312
# Poissons Ratio (y) = 0.22002 0.42557
# Poissons Ratio (z) = 0.35967 0.44814
#
# Static dielectric constant tensor:
#      x y z
#    x 1.601010 0.000000 0.000000 
#    y 0.000000 1.600440 0.000000 
#    z 0.000000 0.000000 1.586670 
# 
# From -- ./inp_files/49205.got.cif
#   From: 2010.05.17/outbox.cif.g08.bks.cpg/sg74_25_cif.got.tgz:49205.got - 2010.06.03 17:57:02.
