data_PCOD9539629
_publ_section_title
;
Structure prediction by ZEFSAII (Michael W. Deem and Ramdas Pophale) SiO2 
 PCOD9539629
Probable space group: I M M A
;
_chemical_formula_sum "Si O2"
_cell_formula_units_Z 56
_cell_length_a 9.760228
_cell_length_b 27.328860
_cell_length_c 12.262778
_cell_angle_alpha 90.000000
_cell_angle_beta 90.000000
_cell_angle_gamma 90.000000
_cell_volume 3270.923182
_symmetry_space_group_name_H-M "I M M A"
_symmetry_group_IT_number 74
_symmetry_cell_setting 'orthorhombic'
loop_
_space_group_symop_operation_xyz
x,y,z
-x,1/2-y,z
x,-y,-z
-x,1/2+y,-z
-x,-y,-z
x,1/2+y,-z
-x,y,z
x,1/2-y,z
1/2+x,1/2+y,1/2+z
1/2-x,-y,1/2+z
1/2+x,1/2-y,1/2-z
1/2-x,y,1/2-z
1/2-x,1/2-y,1/2-z
1/2+x,y,1/2-z
1/2-x,1/2+y,1/2+z
1/2+x,-y,1/2+z
loop_
_atom_site_type_symbol
_atom_site_label
_atom_site_fract_x
_atom_site_fract_y
_atom_site_fract_z
Si Si1 0.750000 0.035839 0.750000
Si Si2 0.655882 0.439712 0.152852
Si Si3 0.342562 0.593224 0.457719
Si Si4 0.661517 0.805129 0.358999
O O1 0.673825 0.068532 0.660995
O O2 0.656578 0.997471 0.816972
O O3 0.500000 0.422011 0.150459
O O4 0.750000 0.417523 0.250000
O O5 0.737372 0.430456 0.041906
O O6 0.500000 0.586453 0.494688
O O7 0.311746 0.650700 0.441652
O O8 0.500000 0.808308 0.331066
O O9 0.688044 0.750000 0.400557
O O10 0.750000 0.811895 0.250000
#
# Coordination Sequence:
#
# PCOD9539629 Si02
#       4
#     8  16  16  16
#     4  10  22  34  55  78 109 144 178 220 254 318
#     4  10  23  38  53  75 108 145 183 221 261 311
#     4  11  21  35  56  80 109 143 178 219 266 315
#     4   9  18  33  53  79 108 137 171 215 265 316
#
# _framework density 17.120546999999998
#
# number of rings (size 3 to 8) (size 9 to 14) (size 15 to 20)
#    0.857    1.143    1.429    2.571    0.000    5.714 
#    0.000    0.000    0.000    0.857    0.000    0.000 
#    0.000    0.000    0.000    0.000    0.000    0.000 
#
# Total GULP energy -155926.775320 kJ/mol
# GULP energy per Si atom -5568.813404 kJ/mol
# Density = 1.708158 g / cm^3
# Si number density = 17.120547 Si / 1000 Ang^3
#
#
#
# Elastic Constant Matrix: (Units=GPa)
#
#
# Indices 1 2 3 4 5 6 
#
# 1 105.7566 39.4354 48.1805 0.0000 0.0000 0.0000
# 2 39.4354 79.5563 41.0629 0.0000 0.0000 0.0000
# 3 48.1805 41.0629 82.8707 0.0000 0.0000 0.0001
# 4 0.0000 0.0000 0.0000 0.9491 0.0000 0.0000
# 5 0.0000 0.0000 0.0000 0.0000 22.8928 0.0000
# 6 0.0000 0.0000 0.0001 0.0000 0.0000 10.7386
#
#
#
# Elastic Compliance Matrix: (Units=1/GPa)
#
#
# Indices 1 2 3 4 5 6 
#
# 1 0.013577 -0.003568 -0.006125 0.000000 0.000000 0.000000
# 2 -0.003568 0.017827 -0.006759 0.000000 0.000000 0.000000
# 3 -0.006125 -0.006759 0.018977 -0.000001 0.000000 0.000000
# 4 0.000000 0.000000 -0.000001 1.053649 0.000000 -0.000003
# 5 0.000000 0.000000 0.000000 0.000000 0.043682 0.000000
# 6 0.000000 0.000000 0.000000 -0.000003 0.000000 0.093122
#
#
# Mechanical properties :
#
#
# Convention : Reuss Voigt Hill
#
# Bulk Modulus (GPa) = 57.22078 58.39347 57.80712
# Shear Modulus (GPa) = 3.90758 16.21641 10.06200
#
# Velocity S-wave (km/s) = 1.51240 3.08098 2.42691
# Velocity P-wave (km/s) = 6.04522 6.84382 6.45688
#
# Compressibility (1/GPa) = 0.01747617
#
# Stress axis : x y z
#
# Youngs Moduli (GPa) = 73.65475 56.09451 52.69468
#
# Poissons Ratio (x) = 0.20016 0.32277
# Poissons Ratio (y) = 0.26283 0.35615
# Poissons Ratio (z) = 0.45116 0.37913
#
# Static dielectric constant tensor:
#      x y z
#    x 1.587470 0.000000 0.000000 
#    y 0.000000 1.603140 0.000000 
#    z 0.000000 0.000000 1.565700 
# 
# From -- ./inp_files/28721.got.cif
#   From: 2010.05.17/outbox.cif.g08.bks.cpg/sg74_15_cif.got.tgz:28721.got - 2010.06.03 17:57:02.
