data_PCOD9539112
_publ_section_title
;
Structure prediction by ZEFSAII (Michael W. Deem and Ramdas Pophale) SiO2 
 PCOD9539112
Probable space group: I M M A
;
_chemical_formula_sum "Si O2"
_cell_formula_units_Z 112
_cell_length_a 16.332372
_cell_length_b 23.062453
_cell_length_c 14.336755
_cell_angle_alpha 90.000000
_cell_angle_beta 90.000000
_cell_angle_gamma 90.000000
_cell_volume 5400.147537
_symmetry_space_group_name_H-M "I M M A"
_symmetry_group_IT_number 74
_symmetry_cell_setting 'orthorhombic'
loop_
_space_group_symop_operation_xyz
x,y,z
-x,1/2-y,z
x,-y,-z
-x,1/2+y,-z
-x,-y,-z
x,1/2+y,-z
-x,y,z
x,1/2-y,z
1/2+x,1/2+y,1/2+z
1/2-x,-y,1/2+z
1/2+x,1/2-y,1/2-z
1/2-x,y,1/2-z
1/2-x,1/2-y,1/2-z
1/2+x,y,1/2-z
1/2-x,1/2+y,1/2+z
1/2+x,-y,1/2+z
loop_
_atom_site_type_symbol
_atom_site_label
_atom_site_fract_x
_atom_site_fract_y
_atom_site_fract_z
Si Si1 0.238948 0.486116 0.859874
Si Si2 0.904774 0.093186 0.932214
Si Si3 0.092585 0.394811 0.318603
Si Si4 0.313999 0.317081 0.039773
Si Si5 0.087026 0.522589 0.395791
Si Si6 0.779574 0.681507 0.148359
Si Si7 0.323410 0.888321 0.621739
O O1 0.250000 0.483021 0.750000
O O2 0.155337 0.458125 0.897224
O O3 0.320807 0.453384 0.894169
O O4 0.233340 0.553947 0.886410
O O5 0.861022 0.147957 0.883210
O O6 0.000000 0.084868 0.909606
O O7 0.892472 0.101647 0.043334
O O8 0.122781 0.360611 0.410538
O O9 0.091758 0.464212 0.333778
O O10 0.145699 0.383086 0.226782
O O11 0.000000 0.376510 0.299619
O O12 0.337315 0.250000 0.052864
O O13 0.229468 0.333053 0.092450
O O14 0.289863 0.326103 0.931514
O O15 0.079207 0.500000 0.500000
O O16 0.000000 0.553418 0.372312
O O17 0.796118 0.750000 0.153818
O O18 0.750000 0.661185 0.250000
#
# Coordination Sequence:
#
# PCOD9539112 Si02
#       7
#    16  16  16  16  16  16  16
#     4  12  22  38  61  85 122 163 201 256 313 369
#     4  11  25  39  60  96 128 158 203 258 309 364
#     4  11  22  37  59  86 119 162 207 250 307 370
#     4  10  21  38  62  89 118 154 204 256 304 363
#     4  10  21  37  57  82 112 156 207 250 296 359
#     4   9  20  43  70  91 118 162 206 247 304 371
#     4  11  21  40  60  82 121 168 208 244 307 368
#
# _framework density 20.740174
#
# number of rings (size 3 to 8) (size 9 to 14) (size 15 to 20)
#    0.000    1.429    2.857    2.571    2.000    4.000 
#    0.000    0.714    0.000    5.143    0.000    0.000 
#    0.000    0.000    0.000    0.000    0.000    0.000 
#
# Total GULP energy -312435.713184 kJ/mol
# GULP energy per Si atom -5579.209164 kJ/mol
# Density = 2.069297 g / cm^3
# Si number density = 20.740174 Si / 1000 Ang^3
#
#
#
# Elastic Constant Matrix: (Units=GPa)
#
#
# Indices 1 2 3 4 5 6 
#
# 1 132.5897 15.3325 19.3374 0.0000 0.0000 0.0000
# 2 15.3325 74.2640 1.6277 0.0000 0.0000 0.0000
# 3 19.3374 1.6277 110.0235 0.0000 0.0000 0.0000
# 4 0.0000 0.0000 0.0000 24.2777 0.0000 0.0000
# 5 0.0000 0.0000 0.0000 0.0000 26.5436 0.0000
# 6 0.0000 0.0000 0.0000 0.0000 0.0000 20.9809
#
#
#
# Elastic Compliance Matrix: (Units=1/GPa)
#
#
# Indices 1 2 3 4 5 6 
#
# 1 0.007928 -0.001607 -0.001370 0.000000 0.000000 0.000000
# 2 -0.001607 0.013795 0.000078 0.000000 0.000000 0.000000
# 3 -0.001370 0.000078 0.009329 0.000000 0.000000 0.000000
# 4 0.000000 0.000000 0.000000 0.041190 0.000000 0.000000
# 5 0.000000 0.000000 0.000000 0.000000 0.037674 0.000000
# 6 0.000000 0.000000 0.000000 0.000000 0.000000 0.047662
#
#
# Mechanical properties :
#
#
# Convention : Reuss Voigt Hill
#
# Bulk Modulus (GPa) = 39.59509 43.27471 41.43490
# Shear Modulus (GPa) = 29.10488 33.06574 31.08531
#
# Velocity S-wave (km/s) = 3.75014 3.99718 3.87563
# Velocity P-wave (km/s) = 6.15499 6.49721 6.32841
#
# Compressibility (1/GPa) = 0.02525565
#
# Stress axis : x y z
#
# Youngs Moduli (GPa) = 126.14152 72.48748 107.19821
#
# Poissons Ratio (x) = 0.11647 0.14681
# Poissons Ratio (y) = 0.20267 -0.00839
# Poissons Ratio (z) = 0.17276 -0.00568
#
# Static dielectric constant tensor:
#      x y z
#    x 1.822640 0.000000 0.000000 
#    y 0.000000 1.765470 0.000000 
#    z 0.000000 0.000000 1.753300 
# 
# From -- ./inp_files/32729.got.cif
#   From: 2010.05.17/outbox.cif.g08.bks.cpg/sg74_17_cif.got.tgz:32729.got - 2010.06.03 17:57:02.
