data_PCOD9539919
_publ_section_title
;
Structure prediction by ZEFSAII (Michael W. Deem and Ramdas Pophale) SiO2 
 PCOD9539919
Probable space group: I M M A
;
_chemical_formula_sum "Si O2"
_cell_formula_units_Z 68
_cell_length_a 14.207989
_cell_length_b 21.512956
_cell_length_c 11.563244
_cell_angle_alpha 90.000000
_cell_angle_beta 90.000000
_cell_angle_gamma 90.000000
_cell_volume 3534.373083
_symmetry_space_group_name_H-M "I M M A"
_symmetry_group_IT_number 74
_symmetry_cell_setting 'orthorhombic'
loop_
_space_group_symop_operation_xyz
x,y,z
-x,1/2-y,z
x,-y,-z
-x,1/2+y,-z
-x,-y,-z
x,1/2+y,-z
-x,y,z
x,1/2-y,z
1/2+x,1/2+y,1/2+z
1/2-x,-y,1/2+z
1/2+x,1/2-y,1/2-z
1/2-x,y,1/2-z
1/2-x,1/2-y,1/2-z
1/2+x,y,1/2-z
1/2-x,1/2+y,1/2+z
1/2+x,-y,1/2+z
loop_
_atom_site_type_symbol
_atom_site_label
_atom_site_fract_x
_atom_site_fract_y
_atom_site_fract_z
Si Si1 0.500000 0.323140 0.928272
Si Si2 0.000000 0.250000 0.033932
Si Si3 0.250000 0.446730 0.250000
Si Si4 0.804057 0.873477 0.527066
Si Si5 0.500000 0.143401 0.660258
Si Si6 0.708439 0.250000 0.382015
Si Si7 0.654027 0.956090 0.398371
O O1 0.500000 0.250000 0.960466
O O2 0.500000 0.327891 0.788439
O O3 0.406275 0.355685 0.978947
O O4 0.000000 0.192000 0.945219
O O5 0.905147 0.250000 0.110734
O O6 0.200309 0.405685 0.347456
O O7 0.325600 0.493487 0.301893
O O8 0.745741 0.810129 0.548515
O O9 0.748447 0.921972 0.445114
O O10 0.588609 0.098530 0.644510
O O11 0.750000 0.250000 0.250000
O O12 0.614471 0.000000 0.500000
#
# Coordination Sequence:
#
# PCOD9539919 Si02
#       7
#     8   4   8  16   8   8  16
#     4  12  26  39  64 100 137 174 222 280 340 412
#     4  12  26  44  74 106 134 182 232 268 340 406
#     4  10  22  43  66  93 134 182 220 282 350 400
#     4  11  23  43  66  96 138 174 229 279 348 406
#     4  12  23  43  66 100 133 178 230 276 343 402
#     4  12  24  45  70 103 137 179 219 283 330 391
#     4  10  22  41  66  93 129 174 229 280 331 413
#
# _framework density 19.239622000000001
#
# number of rings (size 3 to 8) (size 9 to 14) (size 15 to 20)
#    0.000    0.941    5.294    1.765    0.000    1.882 
#    0.000   10.000    0.000    0.000    0.000    0.000 
#    0.000    0.000    0.000    0.000    0.000    0.000 
#
# Total GULP energy -189783.146944 kJ/mol
# GULP energy per Si atom -5581.857263 kJ/mol
# Density = 1.919583 g / cm^3
# Si number density = 19.239622 Si / 1000 Ang^3
#
#
#
# Elastic Constant Matrix: (Units=GPa)
#
#
# Indices 1 2 3 4 5 6 
#
# 1 142.2923 43.2334 57.4414 0.0000 0.0000 0.0000
# 2 43.2334 129.4145 42.0208 0.0000 0.0000 0.0000
# 3 57.4414 42.0208 84.9712 0.0000 0.0000 0.0002
# 4 0.0000 0.0000 0.0000 10.0183 -0.0001 -0.0001
# 5 0.0000 0.0000 0.0000 -0.0001 26.2406 0.0001
# 6 0.0000 0.0000 0.0002 -0.0001 0.0001 -99.2348
#
#
#
# Elastic Compliance Matrix: (Units=1/GPa)
#
#
# Indices 1 2 3 4 5 6 
#
# 1 0.009858 -0.001346 -0.005999 0.000000 0.000000 0.000000
# 2 -0.001346 0.009389 -0.003734 0.000000 0.000000 0.000000
# 3 -0.005999 -0.003734 0.017670 0.000000 0.000000 0.000000
# 4 0.000000 0.000000 0.000000 0.099818 0.000000 0.000000
# 5 0.000000 0.000000 0.000000 0.000000 0.038109 0.000000
# 6 0.000000 0.000000 0.000000 0.000000 0.000000 -0.010077
#
#
# Mechanical properties :
#
#
# Convention : Reuss Voigt Hill
#
# Bulk Modulus (GPa) = 67.74303 71.34103 69.54203
# Shear Modulus (GPa) = 26.06291 1.67031 13.86661
#
# Velocity S-wave (km/s) = 3.68455 0.93276 2.68756
# Velocity P-wave (km/s) = 7.30669 6.19038 6.77158
#
# Compressibility (1/GPa) = 0.01476167
#
# Stress axis : x y z
#
# Youngs Moduli (GPa) = 101.43764 106.50911 56.59194
#
# Poissons Ratio (x) = 0.14331 0.33949
# Poissons Ratio (y) = 0.13648 0.21129
# Poissons Ratio (z) = 0.60852 0.39765
#
# Static dielectric constant tensor:
#      x y z
#    x 1.734430 0.000000 0.000000 
#    y 0.000000 1.643500 0.000000 
#    z 0.000000 0.000000 1.603140 
# 
# From -- ./inp_files/20288.got.cif
#   From: 2010.05.17/outbox.cif.g08.bks.cpg/sg74_11_cif.got.tgz:20288.got - 2010.06.03 17:57:02.
