data_PCOD9539297
_publ_section_title
;
Structure prediction by ZEFSAII (Michael W. Deem and Ramdas Pophale) SiO2 
 PCOD9539297
Probable space group: I M M A
;
_chemical_formula_sum "Si O2"
_cell_formula_units_Z 80
_cell_length_a 13.553995
_cell_length_b 23.336018
_cell_length_c 12.433465
_cell_angle_alpha 90.000000
_cell_angle_beta 90.000000
_cell_angle_gamma 90.000000
_cell_volume 3932.658619
_symmetry_space_group_name_H-M "I M M A"
_symmetry_group_IT_number 74
_symmetry_cell_setting 'orthorhombic'
loop_
_space_group_symop_operation_xyz
x,y,z
-x,1/2-y,z
x,-y,-z
-x,1/2+y,-z
-x,-y,-z
x,1/2+y,-z
-x,y,z
x,1/2-y,z
1/2+x,1/2+y,1/2+z
1/2-x,-y,1/2+z
1/2+x,1/2-y,1/2-z
1/2-x,y,1/2-z
1/2-x,1/2-y,1/2-z
1/2+x,y,1/2-z
1/2-x,1/2+y,1/2+z
1/2+x,-y,1/2+z
loop_
_atom_site_type_symbol
_atom_site_label
_atom_site_fract_x
_atom_site_fract_y
_atom_site_fract_z
Si Si1 0.116831 0.579316 0.625766
Si Si2 0.760721 0.584903 0.410363
Si Si3 0.613664 0.465117 0.733023
Si Si4 0.383475 0.317118 0.521453
Si Si5 0.881661 0.813650 0.767457
O O1 0.182304 0.572595 0.520130
O O2 0.123847 0.525193 0.704970
O O3 0.150764 0.635630 0.690130
O O4 0.000000 0.584365 0.596454
O O5 0.681049 0.537721 0.372169
O O6 0.842294 0.582051 0.315639
O O7 0.694951 0.642138 0.420492
O O8 0.500000 0.455192 0.708907
O O9 0.500000 0.332655 0.537929
O O10 0.373244 0.250000 0.549815
O O11 0.361686 0.322173 0.393575
O O12 0.850772 0.750000 0.732541
O O13 0.000000 0.814567 0.760965
#
# Coordination Sequence:
#
# PCOD9539297 Si02
#       5
#    16  16  16  16  16
#     4  10  21  38  60  85 119 158 191 234 294 350
#     4  11  22  36  62  88 108 147 201 243 281 342
#     4  10  23  42  59  82 120 159 194 240 293 341
#     4   9  19  37  60  88 123 157 189 234 294 352
#     4   8  16  33  57  86 119 151 184 229 289 353
#
# _framework density 20.342472000000001
#
# number of rings (size 3 to 8) (size 9 to 14) (size 15 to 20)
#    0.000    2.400    0.000    3.000    0.000    8.000 
#    0.000    4.000    0.000   22.200    0.000    2.800 
#    0.000    0.000    0.000    0.000    0.000    0.000 
#
# Total GULP energy -223340.832119 kJ/mol
# GULP energy per Si atom -5583.520803 kJ/mol
# Density = 2.029617 g / cm^3
# Si number density = 20.342472 Si / 1000 Ang^3
#
#
#
# Elastic Constant Matrix: (Units=GPa)
#
#
# Indices 1 2 3 4 5 6 
#
# 1 140.2446 51.9096 34.8066 0.0001 0.0000 0.0000
# 2 51.9096 93.8489 57.6165 0.0001 0.0000 0.0000
# 3 34.8066 57.6165 80.2950 0.0001 0.0000 0.0000
# 4 0.0001 0.0001 0.0001 -1.4959 0.0000 0.0000
# 5 0.0000 0.0000 0.0000 0.0000 42.5164 0.0000
# 6 0.0000 0.0000 0.0000 0.0000 0.0000 22.4841
#
#
#
# Elastic Compliance Matrix: (Units=1/GPa)
#
#
# Indices 1 2 3 4 5 6 
#
# 1 0.008981 -0.004607 -0.000587 0.000000 0.000000 0.000000
# 2 -0.004607 0.021409 -0.013365 0.000000 0.000000 0.000000
# 3 -0.000587 -0.013365 0.022299 0.000000 0.000000 0.000000
# 4 0.000000 0.000000 0.000000 -0.668481 0.000000 -0.000001
# 5 0.000000 0.000000 0.000000 0.000000 0.023520 0.000000
# 6 0.000000 0.000000 0.000000 -0.000001 0.000000 0.044476
#
#
# Mechanical properties :
#
#
# Convention : Reuss Voigt Hill
#
# Bulk Modulus (GPa) = 64.22583 67.00598 65.61590
# Shear Modulus (GPa) = -9.89148 24.03797 7.07325
#
# Velocity S-wave (km/s) = -2.20749 3.44126 1.86672
# Velocity P-wave (km/s) = 5.01432 6.98571 6.08045
#
# Compressibility (1/GPa) = 0.01557006
#
# Stress axis : x y z
#
# Youngs Moduli (GPa) = 111.34029 46.70942 44.84525
#
# Poissons Ratio (x) = 0.21520 0.02634
# Poissons Ratio (y) = 0.51297 0.59936
# Poissons Ratio (z) = 0.06540 0.62427
#
# Static dielectric constant tensor:
#      x y z
#    x 1.760940 0.000000 0.000000 
#    y 0.000000 1.734010 0.000000 
#    z 0.000000 0.000000 1.701880 
# 
# From -- ./inp_files/20459.got.cif
#   From: 2010.05.17/outbox.cif.g08.bks.cpg/sg74_11_cif.got.tgz:20459.got - 2010.06.03 17:57:02.
