data_PCOD9539328
_publ_section_title
;
Structure prediction by ZEFSAII (Michael W. Deem and Ramdas Pophale) SiO2 
 PCOD9539328
Probable space group: I M M A
;
_chemical_formula_sum "Si O2"
_cell_formula_units_Z 112
_cell_length_a 14.976918
_cell_length_b 28.851737
_cell_length_c 12.630876
_cell_angle_alpha 90.000000
_cell_angle_beta 90.000000
_cell_angle_gamma 90.000000
_cell_volume 5457.929081
_symmetry_space_group_name_H-M "I M M A"
_symmetry_group_IT_number 74
_symmetry_cell_setting 'orthorhombic'
loop_
_space_group_symop_operation_xyz
x,y,z
-x,1/2-y,z
x,-y,-z
-x,1/2+y,-z
-x,-y,-z
x,1/2+y,-z
-x,y,z
x,1/2-y,z
1/2+x,1/2+y,1/2+z
1/2-x,-y,1/2+z
1/2+x,1/2-y,1/2-z
1/2-x,y,1/2-z
1/2-x,1/2-y,1/2-z
1/2+x,y,1/2-z
1/2-x,1/2+y,1/2+z
1/2+x,-y,1/2+z
loop_
_atom_site_type_symbol
_atom_site_label
_atom_site_fract_x
_atom_site_fract_y
_atom_site_fract_z
Si Si1 0.761021 0.801440 0.624284
Si Si2 0.105771 0.197358 0.961342
Si Si3 0.857892 0.478261 0.767300
Si Si4 0.602615 0.078543 0.351201
Si Si5 0.103112 0.380915 0.374205
Si Si6 0.655540 0.952160 0.046639
Si Si7 0.827103 0.601531 0.081616
O O1 0.795869 0.750000 0.597391
O O2 0.750000 0.803829 0.750000
O O3 0.664747 0.805258 0.568276
O O4 0.829517 0.840978 0.589090
O O5 0.117776 0.250000 0.919142
O O6 0.000000 0.190642 0.978867
O O7 0.144994 0.154141 0.895554
O O8 0.750000 0.484309 0.750000
O O9 0.890387 0.524477 0.823737
O O10 0.896130 0.469531 0.650268
O O11 0.876472 0.434654 0.842358
O O12 0.500000 0.091260 0.369189
O O13 0.632580 0.103988 0.243887
O O14 0.653127 0.090799 0.458256
O O15 0.108413 0.425284 0.451441
O O16 0.000000 0.365429 0.369767
O O17 0.724761 0.914167 0.092146
O O18 0.697824 0.000000 0.000000
#
# Coordination Sequence:
#
# PCOD9539328 Si02
#       7
#    16  16  16  16  16  16  16
#     4  10  21  38  61  88 120 162 201 243 304 360
#     4  10  21  38  61  88 118 152 194 247 308 369
#     4  10  22  37  57  85 117 156 204 247 297 351
#     4  11  23  36  54  85 122 159 199 245 300 357
#     4  11  24  38  59  90 122 164 208 246 292 353
#     4  11  21  39  62  83 119 167 204 243 293 358
#     4  11  21  36  59  88 120 153 197 253 305 355
#
# _framework density 20.520603999999999
#
# number of rings (size 3 to 8) (size 9 to 14) (size 15 to 20)
#    0.000    1.429    2.857    3.429    0.000    4.571 
#    0.000    1.429    0.000    4.714    0.000    0.000 
#    0.000    0.000    0.000    0.000    0.000    0.000 
#
# Total GULP energy -312557.225940 kJ/mol
# GULP energy per Si atom -5581.379035 kJ/mol
# Density = 2.047390 g / cm^3
# Si number density = 20.520604 Si / 1000 Ang^3
#
#
#
# Elastic Constant Matrix: (Units=GPa)
#
#
# Indices 1 2 3 4 5 6 
#
# 1 69.6926 31.3014 -12.1658 0.0000 0.0000 0.0001
# 2 31.3014 164.0731 16.2282 0.0001 0.0000 -0.0002
# 3 -12.1658 16.2282 51.8387 0.0001 0.0003 -0.0003
# 4 0.0000 0.0001 0.0001 27.9603 0.0001 -0.0003
# 5 0.0000 0.0000 0.0003 0.0001 -5.5724 0.0001
# 6 0.0001 -0.0002 -0.0003 -0.0003 0.0001 12.5479
#
#
#
# Elastic Compliance Matrix: (Units=1/GPa)
#
#
# Indices 1 2 3 4 5 6 
#
# 1 0.016925 -0.003737 0.005142 0.000000 0.000000 0.000000
# 2 -0.003737 0.007115 -0.003104 0.000000 0.000000 0.000000
# 3 0.005142 -0.003104 0.021469 0.000000 0.000001 0.000001
# 4 0.000000 0.000000 0.000000 0.035765 0.000000 0.000001
# 5 0.000000 0.000000 0.000001 0.000000 -0.179455 0.000001
# 6 0.000000 0.000000 0.000001 0.000001 0.000001 0.079695
#
#
# Mechanical properties :
#
#
# Convention : Reuss Voigt Hill
#
# Bulk Modulus (GPa) = 23.74766 39.59244 31.67005
# Shear Modulus (GPa) = -4761.19253 23.66986 -2368.76133
#
# Velocity S-wave (km/s) = -48.22072 3.39996 -34.01234
# Velocity P-wave (km/s) = 55.57625 5.89481 39.07666
#
# Compressibility (1/GPa) = 0.04210941
#
# Stress axis : x y z
#
# Youngs Moduli (GPa) = 59.08424 140.54941 46.57824
#
# Poissons Ratio (x) = 0.52530 -0.23951
# Poissons Ratio (y) = 0.22083 0.14460
# Poissons Ratio (z) = -0.30382 0.43633
#
# Static dielectric constant tensor:
#      x y z
#    x 1.757030 0.000000 0.000000 
#    y 0.000000 1.769360 0.000000 
#    z 0.000000 0.000000 1.729130 
# 
# From -- ./inp_files/21189.got.cif
#   From: 2010.05.17/outbox.cif.g08.bks.cpg/sg74_11_cif.got.tgz:21189.got - 2010.06.03 17:57:02.
