data_PCOD9539812
_publ_section_title
;
Structure prediction by ZEFSAII (Michael W. Deem and Ramdas Pophale) SiO2 
 PCOD9539812
Probable space group: I M M A
;
_chemical_formula_sum "Si O2"
_cell_formula_units_Z 72
_cell_length_a 11.142694
_cell_length_b 13.253547
_cell_length_c 24.076299
_cell_angle_alpha 90.000000
_cell_angle_beta 90.000000
_cell_angle_gamma 90.000000
_cell_volume 3555.593100
_symmetry_space_group_name_H-M "I M M A"
_symmetry_group_IT_number 74
_symmetry_cell_setting 'orthorhombic'
loop_
_space_group_symop_operation_xyz
x,y,z
-x,1/2-y,z
x,-y,-z
-x,1/2+y,-z
-x,-y,-z
x,1/2+y,-z
-x,y,z
x,1/2-y,z
1/2+x,1/2+y,1/2+z
1/2-x,-y,1/2+z
1/2+x,1/2-y,1/2-z
1/2-x,y,1/2-z
1/2-x,1/2-y,1/2-z
1/2+x,y,1/2-z
1/2-x,1/2+y,1/2+z
1/2+x,-y,1/2+z
loop_
_atom_site_type_symbol
_atom_site_label
_atom_site_fract_x
_atom_site_fract_y
_atom_site_fract_z
Si Si1 0.133787 0.868445 0.891524
Si Si2 0.124302 0.250000 0.781935
Si Si3 0.858072 0.135566 0.595868
Si Si4 0.295184 0.960636 0.312553
Si Si5 0.138062 0.627551 0.529752
O O1 0.142791 0.750000 0.876520
O O2 0.248167 0.891815 0.930687
O O3 0.000000 0.883063 0.917118
O O4 0.142765 0.942222 0.838839
O O5 0.250000 0.250000 0.750000
O O6 0.128080 0.142982 0.812945
O O7 0.000000 0.250000 0.747423
O O8 0.808711 0.250000 0.601343
O O9 0.811979 0.067908 0.645732
O O10 0.832832 0.096137 0.533673
O O11 0.000000 0.142459 0.599019
O O12 0.250000 0.977984 0.250000
O O13 0.130363 0.750000 0.527070
O O14 0.000000 0.594773 0.545091
#
# Coordination Sequence:
#
# PCOD9539812 Si02
#       5
#    16   8  16  16  16
#     4  10  22  41  62  85 121 163 201 246 303 358
#     4  10  22  40  60  84 116 154 196 246 295 350
#     4   9  18  35  61  92 124 156 193 243 305 365
#     4  11  23  38  59  89 122 158 205 248 296 352
#     4   8  16  35  63  91 118 150 197 250 299 357
#
# _framework density 20.249786
#
# number of rings (size 3 to 8) (size 9 to 14) (size 15 to 20)
#    0.000    2.444    1.111    2.000    0.000    6.667 
#    0.000    5.556    0.000    2.667    0.000    0.000 
#    0.000    0.000    0.000    0.000    0.000    0.000 
#
# Total GULP energy -200605.859903 kJ/mol
# GULP energy per Si atom -5572.384997 kJ/mol
# Density = 2.020370 g / cm^3
# Si number density = 20.249786 Si / 1000 Ang^3
#
#
#
# Elastic Constant Matrix: (Units=GPa)
#
#
# Indices 1 2 3 4 5 6 
#
# 1 135.6227 58.6418 77.5242 0.0000 0.0000 0.0000
# 2 58.6418 110.8720 50.0203 0.0000 0.0000 0.0000
# 3 77.5242 50.0203 127.0016 0.0000 0.0000 0.0000
# 4 0.0000 0.0000 0.0000 37.1868 0.0000 0.0000
# 5 0.0000 0.0000 0.0000 0.0000 18.8181 0.0000
# 6 0.0000 0.0000 0.0000 0.0000 0.0000 -25.7946
#
#
#
# Elastic Compliance Matrix: (Units=1/GPa)
#
#
# Indices 1 2 3 4 5 6 
#
# 1 0.012557 -0.003871 -0.006140 0.000000 0.000000 0.000000
# 2 -0.003871 0.012162 -0.002427 0.000000 0.000000 0.000000
# 3 -0.006140 -0.002427 0.012578 0.000000 0.000000 0.000000
# 4 0.000000 0.000000 0.000000 0.026891 0.000000 0.000000
# 5 0.000000 0.000000 0.000000 0.000000 0.053140 0.000000
# 6 0.000000 0.000000 0.000000 0.000000 0.000000 -0.038768
#
#
# Mechanical properties :
#
#
# Convention : Reuss Voigt Hill
#
# Bulk Modulus (GPa) = 80.51670 82.87433 81.69551
# Shear Modulus (GPa) = 46.47765 18.52939 32.50352
#
# Velocity S-wave (km/s) = 4.79604 3.02825 4.01075
# Velocity P-wave (km/s) = 8.39746 7.29671 7.86636
#
# Compressibility (1/GPa) = 0.01241978
#
# Stress axis : x y z
#
# Youngs Moduli (GPa) = 79.63455 82.22353 79.50405
#
# Poissons Ratio (x) = 0.31833 0.48819
# Poissons Ratio (y) = 0.30830 0.19294
# Poissons Ratio (z) = 0.48899 0.19954
#
# Static dielectric constant tensor:
#      x y z
#    x 1.730790 0.000000 0.000000 
#    y 0.000000 1.802340 0.000000 
#    z 0.000000 0.000000 1.710520 
# 
# From -- ./inp_files/58420.got.cif
#   From: 2010.05.17/outbox.cif.g08.bks.cpg/sg74_30_cif.got.tgz:58420.got - 2010.06.03 17:57:02.
