data_PCOD9539138
_publ_section_title
;
Structure prediction by ZEFSAII (Michael W. Deem and Ramdas Pophale) SiO2 
 PCOD9539138
Probable space group: I M M A
;
_chemical_formula_sum "Si O2"
_cell_formula_units_Z 92
_cell_length_a 9.301298
_cell_length_b 18.320997
_cell_length_c 25.719541
_cell_angle_alpha 90.000000
_cell_angle_beta 90.000000
_cell_angle_gamma 90.000000
_cell_volume 4382.842619
_symmetry_space_group_name_H-M "I M M A"
_symmetry_group_IT_number 74
_symmetry_cell_setting 'orthorhombic'
loop_
_space_group_symop_operation_xyz
x,y,z
-x,1/2-y,z
x,-y,-z
-x,1/2+y,-z
-x,-y,-z
x,1/2+y,-z
-x,y,z
x,1/2-y,z
1/2+x,1/2+y,1/2+z
1/2-x,-y,1/2+z
1/2+x,1/2-y,1/2-z
1/2-x,y,1/2-z
1/2-x,1/2-y,1/2-z
1/2+x,y,1/2-z
1/2-x,1/2+y,1/2+z
1/2+x,-y,1/2+z
loop_
_atom_site_type_symbol
_atom_site_label
_atom_site_fract_x
_atom_site_fract_y
_atom_site_fract_z
Si Si1 0.000000 0.250000 0.273883
Si Si2 0.661497 0.458415 0.200637
Si Si3 0.797724 0.250000 0.172796
Si Si4 0.664032 0.662259 0.404298
Si Si5 0.670942 0.661835 0.990978
Si Si6 0.335806 0.603861 0.608050
Si Si7 0.837404 0.367815 0.700509
O O1 0.119924 0.250000 0.226851
O O2 0.127971 0.250000 0.317572
O O3 0.500000 0.425752 0.199988
O O4 0.750000 0.427733 0.250000
O O5 0.745908 0.446705 0.147295
O O6 0.649472 0.544942 0.208241
O O7 0.838829 0.179516 0.139558
O O8 0.500000 0.633752 0.404412
O O9 0.655610 0.750000 0.406950
O O10 0.755423 0.639499 0.454626
O O11 0.747808 0.644193 0.351660
O O12 0.500000 0.648103 0.991365
O O13 0.690832 0.750000 0.984237
O O14 0.751079 0.619635 0.944863
O O15 0.500000 0.578842 0.599660
O O16 0.750000 0.338535 0.750000
O O17 0.000000 0.338733 0.696828
#
# Coordination Sequence:
#
# PCOD9539138 Si02
#       7
#     4  16   8  16  16  16  16
#     4  10  24  38  48  74 112 146 192 246 304 342
#     4  10  23  39  58  82 113 152 196 241 288 344
#     4  11  24  36  52  76 110 150 191 246 300 344
#     4  10  21  38  63  92 122 152 184 229 283 343
#     4  10  21  37  58  84 115 152 194 239 290 342
#     4  12  23  36  55  80 112 152 197 243 291 344
#     4  10  21  40  63  89 120 153 189 232 282 341
#
# _framework density 20.990943000000001
#
# number of rings (size 3 to 8) (size 9 to 14) (size 15 to 20)
#    0.000    1.565    1.739    2.609    4.870    4.174 
#    0.000    0.870    0.000    5.217    0.000    0.000 
#    0.000    0.000    0.000    0.000    0.000    0.000 
#
# Total GULP energy -256624.633570 kJ/mol
# GULP energy per Si atom -5578.796382 kJ/mol
# Density = 2.094317 g / cm^3
# Si number density = 20.990943 Si / 1000 Ang^3
#
#
#
# Elastic Constant Matrix: (Units=GPa)
#
#
# Indices 1 2 3 4 5 6 
#
# 1 262.1534 10.4008 122.1743 0.0000 0.0000 0.0000
# 2 10.4008 22.6060 1.7094 0.0000 0.0000 0.0000
# 3 122.1743 1.7094 195.0040 0.0000 0.0000 0.0000
# 4 0.0000 0.0000 0.0000 32.1637 0.0000 0.0000
# 5 0.0000 0.0000 0.0000 0.0000 44.5562 0.0000
# 6 0.0000 0.0000 0.0000 0.0000 0.0000 47.1031
#
#
#
# Elastic Compliance Matrix: (Units=1/GPa)
#
#
# Indices 1 2 3 4 5 6 
#
# 1 0.005502 -0.002272 -0.003427 0.000000 0.000000 0.000000
# 2 -0.002272 0.045204 0.001027 0.000000 0.000000 0.000000
# 3 -0.003427 0.001027 0.007266 0.000000 0.000000 0.000000
# 4 0.000000 0.000000 0.000000 0.031091 0.000000 0.000000
# 5 0.000000 0.000000 0.000000 0.000000 0.022444 0.000000
# 6 0.000000 0.000000 0.000000 0.000000 0.000000 0.021230
#
#
# Mechanical properties :
#
#
# Convention : Reuss Voigt Hill
#
# Bulk Modulus (GPa) = 20.56429 83.14804 51.85616
# Shear Modulus (GPa) = 31.58761 47.79653 39.69207
#
# Velocity S-wave (km/s) = 3.88341 4.77698 4.35318
# Velocity P-wave (km/s) = 5.47045 8.37397 7.07281
#
# Compressibility (1/GPa) = 0.04862799
#
# Stress axis : x y z
#
# Youngs Moduli (GPa) = 181.75534 22.12200 137.62206
#
# Poissons Ratio (x) = 0.05027 0.47165
# Poissons Ratio (y) = 0.41299 -0.14139
# Poissons Ratio (z) = 0.62290 -0.02273
#
# Static dielectric constant tensor:
#      x y z
#    x 1.775790 0.000000 0.000000 
#    y 0.000000 1.954750 0.000000 
#    z 0.000000 0.000000 1.698060 
# 
# From -- ./inp_files/57080.got.cif
#   From: 2010.05.17/outbox.cif.g08.bks.cpg/sg74_29_cif.got.tgz:57080.got - 2010.06.03 17:57:02.
