data_PCOD9539333
_publ_section_title
;
Structure prediction by ZEFSAII (Michael W. Deem and Ramdas Pophale) SiO2 
 PCOD9539333
Probable space group: I M M A
;
_chemical_formula_sum "Si O2"
_cell_formula_units_Z 96
_cell_length_a 8.728739
_cell_length_b 27.772331
_cell_length_c 20.455683
_cell_angle_alpha 90.000000
_cell_angle_beta 90.000000
_cell_angle_gamma 90.000000
_cell_volume 4958.814076
_symmetry_space_group_name_H-M "I M M A"
_symmetry_group_IT_number 74
_symmetry_cell_setting 'orthorhombic'
loop_
_space_group_symop_operation_xyz
x,y,z
-x,1/2-y,z
x,-y,-z
-x,1/2+y,-z
-x,-y,-z
x,1/2+y,-z
-x,y,z
x,1/2-y,z
1/2+x,1/2+y,1/2+z
1/2-x,-y,1/2+z
1/2+x,1/2-y,1/2-z
1/2-x,y,1/2-z
1/2-x,1/2-y,1/2-z
1/2+x,y,1/2-z
1/2-x,1/2+y,1/2+z
1/2+x,-y,1/2+z
loop_
_atom_site_type_symbol
_atom_site_label
_atom_site_fract_x
_atom_site_fract_y
_atom_site_fract_z
Si Si1 0.817297 0.616782 0.321402
Si Si2 0.816909 0.693273 0.679791
Si Si3 0.316860 0.988144 0.321776
Si Si4 0.817465 0.856691 0.947356
Si Si5 0.183549 0.960457 0.554527
Si Si6 0.683688 0.194749 0.581068
O O1 0.750000 0.628779 0.250000
O O2 0.745076 0.565124 0.339756
O O3 0.768691 0.657591 0.372025
O O4 0.000000 0.611832 0.317842
O O5 0.778401 0.750000 0.670785
O O6 0.750000 0.678319 0.750000
O O7 0.747934 0.663191 0.620439
O O8 0.000000 0.688569 0.680567
O O9 0.500000 0.987567 0.319023
O O10 0.250000 0.999342 0.250000
O O11 0.257432 0.024351 0.376712
O O12 0.742701 0.907847 0.964194
O O13 0.000000 0.862399 0.942293
O O14 0.784724 0.819762 0.006182
O O15 0.000000 0.960226 0.560474
O O16 0.226333 0.000000 0.500000
O O17 0.500000 0.190020 0.591157
O O18 0.726942 0.250000 0.593500
#
# Coordination Sequence:
#
# PCOD9539333 Si02
#       6
#    16  16  16  16  16  16
#     4  11  22  38  61  88 119 155 195 239 289 346
#     4  10  21  38  61  88 119 155 195 240 290 345
#     4  11  22  39  63  89 119 154 194 239 289 347
#     4  11  23  39  61  88 118 154 195 240 291 347
#     4  11  24  41  61  87 119 154 194 241 291 345
#     4  10  22  40  61  86 118 155 195 241 292 346
#
# _framework density 19.359468
#
# number of rings (size 3 to 8) (size 9 to 14) (size 15 to 20)
#    0.000    1.333    0.000    7.000    0.000    8.333 
#    0.000    3.333    0.000    0.000    0.000    0.000 
#    0.000    0.000    0.000    0.000    0.000    0.000 
#
# Total GULP energy -268523.826769 kJ/mol
# GULP energy per Si atom -5594.246391 kJ/mol
# Density = 1.931541 g / cm^3
# Si number density = 19.359468 Si / 1000 Ang^3
#
#
#
# Elastic Constant Matrix: (Units=GPa)
#
#
# Indices 1 2 3 4 5 6 
#
# 1 76.3776 12.2750 13.0408 -0.0001 0.0000 0.0000
# 2 12.2750 26.7591 -1.0776 -0.0001 0.0000 0.0000
# 3 13.0408 -1.0776 28.4834 -0.0001 0.0000 0.0000
# 4 -0.0001 -0.0001 -0.0001 36.4588 0.0000 0.0000
# 5 0.0000 0.0000 0.0000 0.0000 30.0144 0.0000
# 6 0.0000 0.0000 0.0000 0.0000 0.0000 29.5194
#
#
#
# Elastic Compliance Matrix: (Units=1/GPa)
#
#
# Indices 1 2 3 4 5 6 
#
# 1 0.015551 -0.007432 -0.007401 0.000000 0.000000 0.000000
# 2 -0.007432 0.040979 0.004953 0.000000 0.000000 0.000000
# 3 -0.007401 0.004953 0.038684 0.000000 0.000000 0.000000
# 4 0.000000 0.000000 0.000000 0.027428 0.000000 0.000000
# 5 0.000000 0.000000 0.000000 0.000000 0.033317 0.000000
# 6 0.000000 0.000000 0.000000 0.000000 0.000000 0.033876
#
#
# Mechanical properties :
#
#
# Convention : Reuss Voigt Hill
#
# Bulk Modulus (GPa) = 13.25306 20.01074 16.63190
# Shear Modulus (GPa) = 21.29960 26.35732 23.82846
#
# Velocity S-wave (km/s) = 3.32055 3.69381 3.51214
# Velocity P-wave (km/s) = 4.64349 5.34333 5.00566
#
# Compressibility (1/GPa) = 0.07545426
#
# Stress axis : x y z
#
# Youngs Moduli (GPa) = 64.30516 24.40278 25.85050
#
# Poissons Ratio (x) = 0.18135 0.19132
# Poissons Ratio (y) = 0.47789 -0.12803
# Poissons Ratio (z) = 0.47592 -0.12086
#
# Static dielectric constant tensor:
#      x y z
#    x 1.644270 0.000000 0.000000 
#    y 0.000000 1.658120 0.000000 
#    z 0.000000 0.000000 1.652910 
# 
# From -- ./inp_files/49055.got.cif
#   From: 2010.05.17/outbox.cif.g08.bks.cpg/sg74_25_cif.got.tgz:49055.got - 2010.06.03 17:57:02.
