data_PCOD9539196
_publ_section_title
;
Structure prediction by ZEFSAII (Michael W. Deem and Ramdas Pophale) SiO2 
 PCOD9539196
Probable space group: I M M A
;
_chemical_formula_sum "Si O2"
_cell_formula_units_Z 104
_cell_length_a 8.469355
_cell_length_b 25.515986
_cell_length_c 23.117258
_cell_angle_alpha 90.000000
_cell_angle_beta 90.000000
_cell_angle_gamma 90.000000
_cell_volume 4995.730619
_symmetry_space_group_name_H-M "I M M A"
_symmetry_group_IT_number 74
_symmetry_cell_setting 'orthorhombic'
loop_
_space_group_symop_operation_xyz
x,y,z
-x,1/2-y,z
x,-y,-z
-x,1/2+y,-z
-x,-y,-z
x,1/2+y,-z
-x,y,z
x,1/2-y,z
1/2+x,1/2+y,1/2+z
1/2-x,-y,1/2+z
1/2+x,1/2-y,1/2-z
1/2-x,y,1/2-z
1/2-x,1/2-y,1/2-z
1/2+x,y,1/2-z
1/2-x,1/2+y,1/2+z
1/2+x,-y,1/2+z
loop_
_atom_site_type_symbol
_atom_site_label
_atom_site_fract_x
_atom_site_fract_y
_atom_site_fract_z
Si Si1 0.686301 0.471935 0.185231
Si Si2 0.187088 0.636765 0.857741
Si Si3 0.813021 0.480255 0.936980
Si Si4 0.812744 0.856385 0.070367
Si Si5 0.814352 0.690367 0.540958
Si Si6 0.809801 0.750000 0.814261
Si Si7 0.189344 0.189825 0.809782
O O1 0.500000 0.479143 0.187171
O O2 0.750000 0.486813 0.250000
O O3 0.729157 0.410774 0.174013
O O4 0.747721 0.499026 0.125195
O O5 0.224834 0.643478 0.925506
O O6 0.245784 0.694105 0.838082
O O7 0.000000 0.631711 0.848379
O O8 0.793048 0.417880 0.938799
O O9 0.000000 0.493584 0.935586
O O10 0.750471 0.500000 0.000000
O O11 0.761593 0.842391 0.134837
O O12 0.000000 0.843846 0.063879
O O13 0.716527 0.821639 0.025639
O O14 0.755872 0.750000 0.553396
O O15 0.000000 0.688216 0.554474
O O16 0.750000 0.750000 0.750000
O O17 0.000000 0.750000 0.819677
O O18 0.246048 0.250000 0.814603
O O19 0.250000 0.167031 0.750000
O O20 0.000000 0.190891 0.808191
#
# Coordination Sequence:
#
# PCOD9539196 Si02
#       7
#    16  16  16  16  16   8  16
#     4  12  26  44  67  95 128 169 214 265 322 381
#     4  11  22  40  62  88 121 162 207 250 304 364
#     4  10  22  42  66  93 124 162 210 266 324 381
#     4  10  21  37  60  87 117 156 202 252 308 370
#     4  11  23  37  57  90 129 167 207 254 307 365
#     4  10  22  36  56  84 114 152 193 236 287 344
#     4   9  18  33  53  79 112 150 190 235 293 359
#
# _framework density 20.817775999999999
#
# number of rings (size 3 to 8) (size 9 to 14) (size 15 to 20)
#    0.000    1.538    0.769    4.154    0.000    7.385 
#    0.000    3.077    0.000    0.000    0.000    0.000 
#    0.000    0.000    0.000    0.000    0.000    0.000 
#
# Total GULP energy -290138.469153 kJ/mol
# GULP energy per Si atom -5579.585945 kJ/mol
# Density = 2.077039 g / cm^3
# Si number density = 20.817776 Si / 1000 Ang^3
#
#
#
# Elastic Constant Matrix: (Units=GPa)
#
#
# Indices 1 2 3 4 5 6 
#
# 1 45.1415 21.3669 29.0921 0.0000 0.0000 0.0000
# 2 21.3669 27.8140 21.7440 0.0000 0.0000 0.0000
# 3 29.0921 21.7440 144.0092 0.0000 0.0000 0.0000
# 4 0.0000 0.0000 0.0000 31.0795 0.0000 0.0000
# 5 0.0000 0.0000 0.0000 0.0000 39.0255 0.0000
# 6 0.0000 0.0000 0.0000 0.0000 0.0000 23.0368
#
#
#
# Elastic Compliance Matrix: (Units=1/GPa)
#
#
# Indices 1 2 3 4 5 6 
#
# 1 0.036339 -0.025145 -0.003544 0.000000 0.000000 0.000000
# 2 -0.025145 0.058164 -0.003703 0.000000 0.000000 0.000000
# 3 -0.003544 -0.003703 0.008219 0.000000 0.000000 0.000000
# 4 0.000000 0.000000 0.000000 0.032176 0.000000 0.000000
# 5 0.000000 0.000000 0.000000 0.000000 0.025624 0.000000
# 6 0.000000 0.000000 0.000000 0.000000 0.000000 0.043409
#
#
# Mechanical properties :
#
#
# Convention : Reuss Voigt Hill
#
# Bulk Modulus (GPa) = 26.35850 40.15229 33.25539
# Shear Modulus (GPa) = 17.77085 28.27915 23.02500
#
# Velocity S-wave (km/s) = 2.92488 3.68966 3.32930
# Velocity P-wave (km/s) = 4.90872 6.12216 5.54871
#
# Compressibility (1/GPa) = 0.03793843
#
# Stress axis : x y z
#
# Youngs Moduli (GPa) = 27.51899 17.19275 121.66822
#
# Poissons Ratio (x) = 0.43231 0.43123
# Poissons Ratio (y) = 0.69196 0.45049
# Poissons Ratio (z) = 0.09754 0.06366
#
# Static dielectric constant tensor:
#      x y z
#    x 1.732810 0.000000 0.000000 
#    y 0.000000 0.348750 0.000000 
#    z 0.000000 0.000000 1.829300 
# 
# From -- ./inp_files/49336.got.cif
#   From: 2010.05.17/outbox.cif.g08.bks.cpg/sg74_25_cif.got.tgz:49336.got - 2010.06.03 17:57:02.
