data_PCOD9539874
_publ_section_title
;
Structure prediction by ZEFSAII (Michael W. Deem and Ramdas Pophale) SiO2 
 PCOD9539874
Probable space group: I M M A
;
_chemical_formula_sum "Si O2"
_cell_formula_units_Z 56
_cell_length_a 10.908535
_cell_length_b 13.547529
_cell_length_c 16.606227
_cell_angle_alpha 90.000000
_cell_angle_beta 90.000000
_cell_angle_gamma 90.000000
_cell_volume 2454.129574
_symmetry_space_group_name_H-M "I M M A"
_symmetry_group_IT_number 74
_symmetry_cell_setting 'orthorhombic'
loop_
_space_group_symop_operation_xyz
x,y,z
-x,1/2-y,z
x,-y,-z
-x,1/2+y,-z
-x,-y,-z
x,1/2+y,-z
-x,y,z
x,1/2-y,z
1/2+x,1/2+y,1/2+z
1/2-x,-y,1/2+z
1/2+x,1/2-y,1/2-z
1/2-x,y,1/2-z
1/2-x,1/2-y,1/2-z
1/2+x,y,1/2-z
1/2-x,1/2+y,1/2+z
1/2+x,-y,1/2+z
loop_
_atom_site_type_symbol
_atom_site_label
_atom_site_fract_x
_atom_site_fract_y
_atom_site_fract_z
Si Si1 0.500000 0.973679 0.707095
Si Si2 0.806372 0.360267 0.837118
Si Si3 0.229718 0.133184 0.492805
Si Si4 0.500000 0.372633 0.117641
Si Si5 0.000000 0.136689 0.055208
O O1 0.390314 0.044812 0.677901
O O2 0.500000 0.933914 0.798454
O O3 0.500000 0.878561 0.650457
O O4 0.861334 0.250000 0.855973
O O5 0.750000 0.348629 0.750000
O O6 0.714609 0.380009 0.911243
O O7 0.230764 0.250000 0.477620
O O8 0.120072 0.099010 0.435330
O O9 0.368692 0.098039 0.475307
O O10 0.500000 0.250000 0.129920
O O11 0.000000 0.250000 0.032277
#
# Coordination Sequence:
#
# PCOD9539874 Si02
#       5
#     8  16  16   8   8
#     4  12  25  39  65 100 135 177 228 277 337 416
#     4  10  23  43  65  92 130 176 230 284 335 396
#     4   9  20  42  69  97 131 177 228 278 340 399
#     4  10  23  43  70 104 142 177 218 286 354 412
#     4  10  22  40  67  98 133 175 219 275 335 408
#
# _framework density 22.818680000000001
#
# number of rings (size 3 to 8) (size 9 to 14) (size 15 to 20)
#    0.000    2.000    0.000    1.714    4.000    5.714 
#    0.000   10.000    0.000    0.000    0.000    0.000 
#    0.000    0.000    0.000    0.000    0.000    0.000 
#
# Total GULP energy -155930.172039 kJ/mol
# GULP energy per Si atom -5568.934716 kJ/mol
# Density = 2.276674 g / cm^3
# Si number density = 22.818680 Si / 1000 Ang^3
#
#
#
# Elastic Constant Matrix: (Units=GPa)
#
#
# Indices 1 2 3 4 5 6 
#
# 1 83.7642 42.2960 49.2384 0.0000 0.0000 0.0000
# 2 42.2960 130.7371 42.4028 0.0000 0.0000 0.0000
# 3 49.2384 42.4028 184.2825 0.0000 0.0000 0.0000
# 4 0.0000 0.0000 0.0000 49.3354 0.0000 0.0000
# 5 0.0000 0.0000 0.0000 0.0000 33.3999 0.0000
# 6 0.0000 0.0000 0.0000 0.0000 0.0000 9.1543
#
#
#
# Elastic Compliance Matrix: (Units=1/GPa)
#
#
# Indices 1 2 3 4 5 6 
#
# 1 0.015954 -0.004084 -0.003323 0.000000 0.000000 0.000000
# 2 -0.004084 0.009311 -0.001051 0.000000 0.000000 0.000000
# 3 -0.003323 -0.001051 0.006556 0.000000 0.000000 0.000000
# 4 0.000000 0.000000 0.000000 0.020269 0.000000 0.000000
# 5 0.000000 0.000000 0.000000 0.000000 0.029940 0.000000
# 6 0.000000 0.000000 0.000000 0.000000 0.000000 0.109238
#
#
# Mechanical properties :
#
#
# Convention : Reuss Voigt Hill
#
# Bulk Modulus (GPa) = 67.09147 74.07314 70.58230
# Shear Modulus (GPa) = 23.45736 36.03436 29.74586
#
# Velocity S-wave (km/s) = 3.20971 3.97818 3.61442
# Velocity P-wave (km/s) = 6.57283 7.32347 6.95828
#
# Compressibility (1/GPa) = 0.01490502
#
# Stress axis : x y z
#
# Youngs Moduli (GPa) = 62.68199 107.39949 152.52639
#
# Poissons Ratio (x) = 0.43857 0.50685
# Poissons Ratio (y) = 0.25596 0.16036
# Poissons Ratio (z) = 0.20829 0.11292
#
# Static dielectric constant tensor:
#      x y z
#    x 1.647390 0.000000 0.000000 
#    y 0.000000 1.930070 0.000000 
#    z 0.000000 0.000000 1.817390 
# 
# From -- ./inp_files/29960.got.cif
#   From: 2010.05.17/outbox.cif.g08.bks.cpg/sg74_15_cif.got.tgz:29960.got - 2010.06.03 17:57:02.
