data_PCOD9539008
_publ_section_title
;
Structure prediction by ZEFSAII (Michael W. Deem and Ramdas Pophale) SiO2 
 PCOD9539008
Probable space group: I M M A
;
_chemical_formula_sum "Si O2"
_cell_formula_units_Z 104
_cell_length_a 26.269305
_cell_length_b 9.375996
_cell_length_c 21.605815
_cell_angle_alpha 90.000000
_cell_angle_beta 90.000000
_cell_angle_gamma 90.000000
_cell_volume 5321.531650
_symmetry_space_group_name_H-M "I M M A"
_symmetry_group_IT_number 74
_symmetry_cell_setting 'orthorhombic'
loop_
_space_group_symop_operation_xyz
x,y,z
-x,1/2-y,z
x,-y,-z
-x,1/2+y,-z
-x,-y,-z
x,1/2+y,-z
-x,y,z
x,1/2-y,z
1/2+x,1/2+y,1/2+z
1/2-x,-y,1/2+z
1/2+x,1/2-y,1/2-z
1/2-x,y,1/2-z
1/2-x,1/2-y,1/2-z
1/2+x,y,1/2-z
1/2-x,1/2+y,1/2+z
1/2+x,-y,1/2+z
loop_
_atom_site_type_symbol
_atom_site_label
_atom_site_fract_x
_atom_site_fract_y
_atom_site_fract_z
Si Si1 0.123726 0.084661 0.437857
Si Si2 0.612249 0.083596 0.609180
Si Si3 0.058652 0.420311 0.327766
Si Si4 0.704797 0.079162 0.439011
Si Si5 0.000000 0.919934 0.065406
Si Si6 0.285773 0.082941 0.162583
Si Si7 0.855918 0.083466 0.748198
O O1 0.120665 0.250000 0.454096
O O2 0.073806 0.044672 0.398427
O O3 0.169658 0.068000 0.389048
O O4 0.131332 0.000000 0.500000
O O5 0.619213 0.250000 0.589710
O O6 0.552552 0.047817 0.601543
O O7 0.632157 0.072329 0.679324
O O8 0.647765 0.978473 0.570219
O O9 0.068389 0.250000 0.319849
O O10 0.096291 0.508504 0.284869
O O11 0.000000 0.448759 0.314759
O O12 0.707417 0.250000 0.446446
O O13 0.736033 0.040819 0.376549
O O14 0.726076 0.000000 0.500000
O O15 0.000000 0.750000 0.054418
O O16 0.000000 0.000000 0.000000
O O17 0.281788 0.250000 0.179309
O O18 0.305825 0.994865 0.221329
O O19 0.852802 0.250000 0.731767
#
# Coordination Sequence:
#
# PCOD9539008 Si02
#       7
#    16  16  16  16   8  16  16
#     4   9  17  30  48  71 102 139 182 228 279 336
#     4  10  23  41  61  87 120 156 192 241 298 350
#     4   9  19  35  52  72 105 147 187 236 293 351
#     4  11  23  39  62  90 120 155 195 241 291 348
#     4  10  22  42  64  86 118 156 193 238 293 348
#     4   9  20  38  57  80 115 155 189 231 288 347
#     4  10  21  36  58  86 114 148 193 244 292 341
#
# _framework density 19.543246
#
# number of rings (size 3 to 8) (size 9 to 14) (size 15 to 20)
#    0.000    2.308    0.000    2.769    1.077    8.000 
#    0.000    3.077    0.000    0.000    0.000    0.000 
#    0.000    0.000    0.000    0.000    0.000    0.000 
#
# Total GULP energy -290202.729508 kJ/mol
# GULP energy per Si atom -5580.821721 kJ/mol
# Density = 1.949876 g / cm^3
# Si number density = 19.543246 Si / 1000 Ang^3
#
#
#
# Elastic Constant Matrix: (Units=GPa)
#
#
# Indices 1 2 3 4 5 6 
#
# 1 122.9958 49.7922 37.0380 0.0000 0.0000 0.0000
# 2 49.7922 52.0193 43.1244 0.0000 0.0000 0.0000
# 3 37.0380 43.1244 74.2848 0.0000 0.0000 0.0000
# 4 0.0000 0.0000 0.0000 30.5862 0.0000 0.0000
# 5 0.0000 0.0000 0.0000 0.0000 23.1374 0.0000
# 6 0.0000 0.0000 0.0000 0.0000 0.0000 12.1849
#
#
#
# Elastic Compliance Matrix: (Units=1/GPa)
#
#
# Indices 1 2 3 4 5 6 
#
# 1 0.013357 -0.014003 0.001470 0.000000 0.000000 0.000000
# 2 -0.014003 0.051740 -0.023054 0.000000 0.000000 0.000000
# 3 0.001470 -0.023054 0.026113 0.000000 0.000000 0.000000
# 4 0.000000 0.000000 0.000000 0.032694 0.000000 0.000000
# 5 0.000000 0.000000 0.000000 0.000000 0.043220 0.000000
# 6 0.000000 0.000000 0.000000 0.000000 0.000000 0.082068
#
#
# Mechanical properties :
#
#
# Convention : Reuss Voigt Hill
#
# Bulk Modulus (GPa) = 49.91731 56.57879 53.24805
# Shear Modulus (GPa) = 15.28838 21.13806 18.21322
#
# Velocity S-wave (km/s) = 2.79997 3.29234 3.05609
# Velocity P-wave (km/s) = 6.00421 6.59288 6.30542
#
# Compressibility (1/GPa) = 0.02003313
#
# Stress axis : x y z
#
# Youngs Moduli (GPa) = 74.86875 19.32750 38.29559
#
# Poissons Ratio (x) = 0.27065 -0.05628
# Poissons Ratio (y) = 1.04841 0.88288
# Poissons Ratio (z) = -0.11004 0.44558
#
# Static dielectric constant tensor:
#      x y z
#    x 1.706020 0.000000 0.000000 
#    y 0.000000 1.656310 0.000000 
#    z 0.000000 0.000000 1.688220 
# 
# From -- ./inp_files/49352.got.cif
#   From: 2010.05.17/outbox.cif.g08.bks.cpg/sg74_25_cif.got.tgz:49352.got - 2010.06.03 17:57:02.
