data_PCOD9539344
_publ_section_title
;
Structure prediction by ZEFSAII (Michael W. Deem and Ramdas Pophale) SiO2 
 PCOD9539344
Probable space group: I M M A
;
_chemical_formula_sum "Si O2"
_cell_formula_units_Z 72
_cell_length_a 8.803328
_cell_length_b 23.110035
_cell_length_c 19.375187
_cell_angle_alpha 90.000000
_cell_angle_beta 90.000000
_cell_angle_gamma 90.000000
_cell_volume 3941.789147
_symmetry_space_group_name_H-M "I M M A"
_symmetry_group_IT_number 74
_symmetry_cell_setting 'orthorhombic'
loop_
_space_group_symop_operation_xyz
x,y,z
-x,1/2-y,z
x,-y,-z
-x,1/2+y,-z
-x,-y,-z
x,1/2+y,-z
-x,y,z
x,1/2-y,z
1/2+x,1/2+y,1/2+z
1/2-x,-y,1/2+z
1/2+x,1/2-y,1/2-z
1/2-x,y,1/2-z
1/2-x,1/2-y,1/2-z
1/2+x,y,1/2-z
1/2-x,1/2+y,1/2+z
1/2+x,-y,1/2+z
loop_
_atom_site_type_symbol
_atom_site_label
_atom_site_fract_x
_atom_site_fract_y
_atom_site_fract_z
Si Si1 0.317407 0.516931 0.078297
Si Si2 0.681728 0.151368 0.922051
Si Si3 0.318742 0.750000 0.326305
Si Si4 0.182496 0.316431 0.070306
Si Si5 0.318282 0.418411 0.326112
O O1 0.500000 0.510109 0.083196
O O2 0.280617 0.584112 0.090663
O O3 0.239701 0.474106 0.131973
O O4 0.272934 0.500000 0.000000
O O5 0.500000 0.158276 0.917730
O O6 0.760742 0.194180 0.868396
O O7 0.736611 0.167716 0.998770
O O8 0.500000 0.750000 0.323445
O O9 0.250000 0.750000 0.250000
O O10 0.217195 0.250000 0.088710
O O11 0.226627 0.361952 0.129202
O O12 0.000000 0.320882 0.059941
O O13 0.500000 0.419780 0.321793
O O14 0.250000 0.416746 0.250000
#
# Coordination Sequence:
#
# PCOD9539344 Si02
#       5
#    16  16   8  16  16
#     4  10  21  39  63  91 123 159 202 252 303 363
#     4  11  22  38  64  94 122 158 204 249 302 364
#     4  12  26  44  64  90 127 162 201 252 306 362
#     4  10  21  38  61  90 122 160 205 252 301 360
#     4  11  24  40  61  89 125 164 206 254 308 363
#
# _framework density 18.265817999999999
#
# number of rings (size 3 to 8) (size 9 to 14) (size 15 to 20)
#    0.000    1.333    3.333    2.333    0.000    4.444 
#    0.000    0.000    0.000    0.000    0.000    0.000 
#    0.000    0.000    0.000    0.000    0.000    0.000 
#
# Total GULP energy -201256.548217 kJ/mol
# GULP energy per Si atom -5590.459673 kJ/mol
# Density = 1.822424 g / cm^3
# Si number density = 18.265818 Si / 1000 Ang^3
#
#
#
# Elastic Constant Matrix: (Units=GPa)
#
#
# Indices 1 2 3 4 5 6 
#
# 1 67.0568 82.9685 74.6733 0.0000 0.0000 0.0000
# 2 82.9685 196.0778 116.8036 0.0000 0.0000 0.0000
# 3 74.6733 116.8036 194.9555 0.0000 0.0000 0.0000
# 4 0.0000 0.0000 0.0000 29.2385 0.0000 0.0000
# 5 0.0000 0.0000 0.0000 0.0000 33.3525 0.0000
# 6 0.0000 0.0000 0.0000 0.0000 0.0000 13.6058
#
#
#
# Elastic Compliance Matrix: (Units=1/GPa)
#
#
# Indices 1 2 3 4 5 6 
#
# 1 0.037224 -0.011285 -0.007496 0.000000 0.000000 0.000000
# 2 -0.011285 0.011352 -0.002479 0.000000 0.000000 0.000000
# 3 -0.007496 -0.002479 0.009486 0.000000 0.000000 0.000000
# 4 0.000000 0.000000 0.000000 0.034201 0.000000 0.000000
# 5 0.000000 0.000000 0.000000 0.000000 0.029983 0.000000
# 6 0.000000 0.000000 0.000000 0.000000 0.000000 0.073498
#
#
# Mechanical properties :
#
#
# Convention : Reuss Voigt Hill
#
# Bulk Modulus (GPa) = 64.34726 111.88677 88.11702
# Shear Modulus (GPa) = 20.53859 27.48234 24.01047
#
# Velocity S-wave (km/s) = 3.35689 3.88310 3.62954
# Velocity P-wave (km/s) = 7.09434 9.02731 8.11856
#
# Compressibility (1/GPa) = 0.01554068
#
# Stress axis : x y z
#
# Youngs Moduli (GPa) = 26.86460 88.09177 105.42181
#
# Poissons Ratio (x) = 0.99414 0.79028
# Poissons Ratio (y) = 0.30317 0.26130
# Poissons Ratio (z) = 0.20139 0.21835
#
# Static dielectric constant tensor:
#      x y z
#    x 1.614130 0.000000 0.000000 
#    y 0.000000 1.620140 0.000000 
#    z 0.000000 0.000000 1.581210 
# 
# From -- ./inp_files/39467.got.cif
#   From: 2010.05.17/outbox.cif.g08.bks.cpg/sg74_20_cif.got.tgz:39467.got - 2010.06.03 17:57:02.
