data_PCOD9539751
_publ_section_title
;
Structure prediction by ZEFSAII (Michael W. Deem and Ramdas Pophale) SiO2 
 PCOD9539751
Probable space group: I M M A
;
_chemical_formula_sum "Si O2"
_cell_formula_units_Z 96
_cell_length_a 25.628518
_cell_length_b 7.589881
_cell_length_c 20.620251
_cell_angle_alpha 90.000000
_cell_angle_beta 90.000000
_cell_angle_gamma 90.000000
_cell_volume 4010.997650
_symmetry_space_group_name_H-M "I M M A"
_symmetry_group_IT_number 74
_symmetry_cell_setting 'orthorhombic'
loop_
_space_group_symop_operation_xyz
x,y,z
-x,1/2-y,z
x,-y,-z
-x,1/2+y,-z
-x,-y,-z
x,1/2+y,-z
-x,y,z
x,1/2-y,z
1/2+x,1/2+y,1/2+z
1/2-x,-y,1/2+z
1/2+x,1/2-y,1/2-z
1/2-x,y,1/2-z
1/2-x,1/2-y,1/2-z
1/2+x,y,1/2-z
1/2-x,1/2+y,1/2+z
1/2+x,-y,1/2+z
loop_
_atom_site_type_symbol
_atom_site_label
_atom_site_fract_x
_atom_site_fract_y
_atom_site_fract_z
Si Si1 0.942136 0.048897 0.405088
Si Si2 0.940551 0.965687 0.119999
Si Si3 0.668352 0.537667 0.930444
Si Si4 0.832667 0.540676 0.071823
Si Si5 0.246712 0.542691 0.676706
Si Si6 0.562517 0.447473 0.762272
O O1 0.945477 0.250000 0.428301
O O2 0.890375 0.961924 0.432514
O O3 0.000000 0.968811 0.414596
O O4 0.929946 0.051473 0.328058
O O5 0.942529 0.750000 0.121105
O O6 0.892799 0.023658 0.075588
O O7 0.922970 0.021861 0.192576
O O8 0.000000 0.024669 0.105508
O O9 0.664850 0.750000 0.923901
O O10 0.700996 0.468544 0.869508
O O11 0.693326 0.500000 0.000000
O O12 0.833220 0.750000 0.079620
O O13 0.798019 0.472154 0.131562
O O14 0.812284 0.500000 0.000000
O O15 0.235265 0.750000 0.684491
O O16 0.250000 0.469244 0.750000
O O17 0.500000 0.431683 0.756369
O O18 0.584404 0.250000 0.769980
#
# Coordination Sequence:
#
# PCOD9539751 Si02
#       6
#    16  16  16  16  16  16
#     4   9  18  32  51  79 114 146 180 227 281 336
#     4   8  16  32  54  82 118 156 192 235 288 345
#     4  10  22  39  58  82 113 152 189 228 283 342
#     4  11  23  39  61  89 121 158 199 244 294 351
#     4  10  23  43  65  87 115 151 193 245 302 355
#     4   8  14  27  48  74 105 143 185 226 271 325
#
# _framework density 23.934194999999999
#
# number of rings (size 3 to 8) (size 9 to 14) (size 15 to 20)
#    0.000    2.667    0.000    2.000    2.333    3.667 
#    0.000    0.833    0.000    2.500    0.000    0.000 
#    0.000    0.000    0.000    0.000    0.000    0.000 
#
# Total GULP energy -267728.043784 kJ/mol
# GULP energy per Si atom -5577.667579 kJ/mol
# Density = 2.387972 g / cm^3
# Si number density = 23.934195 Si / 1000 Ang^3
#
#
#
# Elastic Constant Matrix: (Units=GPa)
#
#
# Indices 1 2 3 4 5 6 
#
# 1 157.6947 -0.0358 77.3397 0.0000 0.0000 0.0000
# 2 -0.0358 57.0821 -0.9982 0.0000 0.0000 0.0000
# 3 77.3397 -0.9982 182.1120 0.0000 0.0000 0.0000
# 4 0.0000 0.0000 0.0000 19.5824 0.0000 0.0000
# 5 0.0000 0.0000 0.0000 0.0000 30.5741 0.0000
# 6 0.0000 0.0000 0.0000 0.0000 0.0000 7.5783
#
#
#
# Elastic Compliance Matrix: (Units=1/GPa)
#
#
# Indices 1 2 3 4 5 6 
#
# 1 0.008010 -0.000054 -0.003402 0.000000 0.000000 0.000000
# 2 -0.000054 0.017521 0.000119 0.000000 0.000000 0.000000
# 3 -0.003402 0.000119 0.006937 0.000000 0.000000 0.000000
# 4 0.000000 0.000000 0.000000 0.051066 0.000000 0.000000
# 5 0.000000 0.000000 0.000000 0.000000 0.032707 0.000000
# 6 0.000000 0.000000 0.000000 0.000000 0.000000 0.131955
#
#
# Mechanical properties :
#
#
# Convention : Reuss Voigt Hill
#
# Bulk Modulus (GPa) = 38.77089 61.05560 49.91324
# Shear Modulus (GPa) = 18.97766 32.91917 25.94842
#
# Velocity S-wave (km/s) = 2.81892 3.71267 3.29623
# Velocity P-wave (km/s) = 5.17969 6.62900 5.94865
#
# Compressibility (1/GPa) = 0.02579255
#
# Stress axis : x y z
#
# Youngs Moduli (GPa) = 124.84728 57.07541 144.16471
#
# Poissons Ratio (x) = 0.00311 0.49044
# Poissons Ratio (y) = 0.00680 -0.01718
# Poissons Ratio (z) = 0.42472 -0.00680
#
# Static dielectric constant tensor:
#      x y z
#    x 1.948290 0.000000 0.000000 
#    y 0.000000 1.913760 0.000000 
#    z 0.000000 0.000000 1.942630 
# 
# From -- ./inp_files/55053.got.cif
#   From: 2010.05.17/outbox.cif.g08.bks.cpg/sg74_28_cif.got.tgz:55053.got - 2010.06.03 17:57:02.
