data_PCOD9539349
_publ_section_title
;
Structure prediction by ZEFSAII (Michael W. Deem and Ramdas Pophale) SiO2 
 PCOD9539349
Probable space group: I M M A
;
_chemical_formula_sum "Si O2"
_cell_formula_units_Z 104
_cell_length_a 23.179304
_cell_length_b 25.950524
_cell_length_c 8.362357
_cell_angle_alpha 90.000000
_cell_angle_beta 90.000000
_cell_angle_gamma 90.000000
_cell_volume 5030.083880
_symmetry_space_group_name_H-M "I M M A"
_symmetry_group_IT_number 74
_symmetry_cell_setting 'orthorhombic'
loop_
_space_group_symop_operation_xyz
x,y,z
-x,1/2-y,z
x,-y,-z
-x,1/2+y,-z
-x,-y,-z
x,1/2+y,-z
-x,y,z
x,1/2-y,z
1/2+x,1/2+y,1/2+z
1/2-x,-y,1/2+z
1/2+x,1/2-y,1/2-z
1/2-x,y,1/2-z
1/2-x,1/2-y,1/2-z
1/2+x,y,1/2-z
1/2-x,1/2+y,1/2+z
1/2+x,-y,1/2+z
loop_
_atom_site_type_symbol
_atom_site_label
_atom_site_fract_x
_atom_site_fract_y
_atom_site_fract_z
Si Si1 0.064846 0.906960 0.220253
Si Si2 0.902730 0.000000 0.000000
Si Si3 0.858683 0.382116 0.493603
Si Si4 0.690723 0.946735 0.700449
Si Si5 0.879500 0.690538 0.057597
Si Si6 0.263953 0.868988 0.423469
Si Si7 0.066389 0.309767 0.288977
O O1 0.066878 0.950786 0.081662
O O2 0.113610 0.912698 0.357490
O O3 0.080833 0.851340 0.146051
O O4 0.000000 0.907258 0.286950
O O5 0.860010 0.980780 0.863944
O O6 0.836043 0.418336 0.352464
O O7 0.800120 0.350370 0.530266
O O8 0.907960 0.345390 0.425556
O O9 0.750000 0.974271 0.750000
O O10 0.710660 0.907750 0.557754
O O11 0.890090 0.750000 0.102379
O O12 0.813330 0.674097 0.089125
O O13 0.894982 0.684836 0.870141
O O14 0.250000 0.893513 0.250000
O O15 0.068097 0.250000 0.336953
O O16 0.000000 0.323038 0.250735
#
# Coordination Sequence:
#
# PCOD9539349 Si02
#       7
#    16   8  16  16  16  16  16
#     4  12  26  44  67  96 131 176 227 279 333 401
#     4  12  23  46  68  96 134 172 223 278 336 394
#     4  11  22  41  65  93 137 169 220 273 339 399
#     4  10  23  39  67  99 131 170 214 268 338 405
#     4  11  23  42  68  97 132 176 222 274 334 399
#     4  11  20  41  65  95 133 171 220 270 335 398
#     4  10  21  38  61  90 128 178 227 271 327 396
#
# _framework density 20.675599999999999
#
# number of rings (size 3 to 8) (size 9 to 14) (size 15 to 20)
#    0.000    1.077    4.615    1.154    0.000    6.154 
#    0.000    4.615    0.000    0.000    0.000    0.000 
#    0.000    0.000    0.000    0.000    0.000    0.000 
#
# Total GULP energy -290078.183400 kJ/mol
# GULP energy per Si atom -5578.426604 kJ/mol
# Density = 2.062854 g / cm^3
# Si number density = 20.675600 Si / 1000 Ang^3
#
#
#
# Elastic Constant Matrix: (Units=GPa)
#
#
# Indices 1 2 3 4 5 6 
#
# 1 131.5990 39.5660 19.6988 0.0000 0.0000 0.0000
# 2 39.5660 73.7213 32.9825 0.0000 0.0000 0.0000
# 3 19.6988 32.9825 66.6743 0.0000 0.0000 0.0000
# 4 0.0000 0.0000 0.0000 22.7285 0.0000 0.0000
# 5 0.0000 0.0000 0.0000 0.0000 35.4690 0.0000
# 6 0.0000 0.0000 0.0000 0.0000 0.0000 28.4220
#
#
#
# Elastic Compliance Matrix: (Units=1/GPa)
#
#
# Indices 1 2 3 4 5 6 
#
# 1 0.009067 -0.004710 -0.000349 0.000000 0.000000 0.000000
# 2 -0.004710 0.019867 -0.008436 0.000000 0.000000 0.000000
# 3 -0.000349 -0.008436 0.019275 0.000000 0.000000 0.000000
# 4 0.000000 0.000000 0.000000 0.043998 0.000000 0.000000
# 5 0.000000 0.000000 0.000000 0.000000 0.028194 0.000000
# 6 0.000000 0.000000 0.000000 0.000000 0.000000 0.035184
#
#
# Mechanical properties :
#
#
# Convention : Reuss Voigt Hill
#
# Bulk Modulus (GPa) = 47.12936 50.72102 48.92519
# Shear Modulus (GPa) = 26.36474 29.30704 27.83589
#
# Velocity S-wave (km/s) = 3.57482 3.76901 3.67320
# Velocity P-wave (km/s) = 6.31532 6.59740 6.45790
#
# Compressibility (1/GPa) = 0.02121819
#
# Stress axis : x y z
#
# Youngs Moduli (GPa) = 110.28717 50.33502 51.88193
#
# Poissons Ratio (x) = 0.23709 0.01810
# Poissons Ratio (y) = 0.51949 0.43768
# Poissons Ratio (z) = 0.03847 0.42463
#
# Static dielectric constant tensor:
#      x y z
#    x 1.738630 0.000000 0.000000 
#    y 0.000000 1.804850 0.000000 
#    z 0.000000 0.000000 1.662620 
# 
# From -- ./inp_files/12758.got.cif
#   From: 2010.05.17/outbox.cif.g08.bks.cpg/sg74_7_cif.got.tgz:12758.got - 2010.06.03 17:57:02.
