data_PCOD9539470
_publ_section_title
;
Structure prediction by ZEFSAII (Michael W. Deem and Ramdas Pophale) SiO2 
 PCOD9539470
Probable space group: I M M A
;
_chemical_formula_sum "Si O2"
_cell_formula_units_Z 48
_cell_length_a 21.995634
_cell_length_b 16.398267
_cell_length_c 5.429378
_cell_angle_alpha 90.000000
_cell_angle_beta 90.000000
_cell_angle_gamma 90.000000
_cell_volume 1958.323867
_symmetry_space_group_name_H-M "I M M A"
_symmetry_group_IT_number 74
_symmetry_cell_setting 'orthorhombic'
loop_
_space_group_symop_operation_xyz
x,y,z
-x,1/2-y,z
x,-y,-z
-x,1/2+y,-z
-x,-y,-z
x,1/2+y,-z
-x,y,z
x,1/2-y,z
1/2+x,1/2+y,1/2+z
1/2-x,-y,1/2+z
1/2+x,1/2-y,1/2-z
1/2-x,y,1/2-z
1/2-x,1/2-y,1/2-z
1/2+x,y,1/2-z
1/2-x,1/2+y,1/2+z
1/2+x,-y,1/2+z
loop_
_atom_site_type_symbol
_atom_site_label
_atom_site_fract_x
_atom_site_fract_y
_atom_site_fract_z
Si Si1 0.800766 0.909625 0.435828
Si Si2 0.595565 0.250000 0.666239
Si Si3 0.565937 0.427076 0.697109
Si Si4 0.663044 0.250000 0.185745
O O1 0.750000 0.877098 0.250000
O O2 0.869391 0.925937 0.335305
O O3 0.808176 0.838233 0.633188
O O4 0.778186 0.000000 0.500000
O O5 0.564204 0.334737 0.596163
O O6 0.611775 0.250000 0.959333
O O7 0.650977 0.250000 0.476103
O O8 0.569085 0.500000 0.500000
O O9 0.500000 0.435572 0.827553
#
# Coordination Sequence:
#
# PCOD9539470 Si02
#       4
#    16   8  16   8
#     4  11  23  41  65  98 136 180 229 283 342 407
#     4  10  21  42  66  96 130 172 218 272 330 396
#     4  10  21  39  63  94 132 174 223 279 340 405
#     4  10  23  42  68  96 132 172 220 272 332 396
#
# _framework density 24.510755
#
# number of rings (size 3 to 8) (size 9 to 14) (size 15 to 20)
#    0.000    1.667    0.000    4.000    0.000    3.333 
#    0.000   24.167    0.000    0.000    0.000    0.000 
#    0.000    0.000    0.000    0.000    0.000    0.000 
#
# Total GULP energy -133632.429084 kJ/mol
# GULP energy per Si atom -5568.017878 kJ/mol
# Density = 2.445497 g / cm^3
# Si number density = 24.510755 Si / 1000 Ang^3
#
#
#
# Elastic Constant Matrix: (Units=GPa)
#
#
# Indices 1 2 3 4 5 6 
#
# 1 150.8128 -5.0588 48.6743 0.0000 0.0000 0.0000
# 2 -5.0588 217.1990 15.9746 0.0000 0.0000 0.0000
# 3 48.6743 15.9746 28.3161 0.0000 0.0000 0.0000
# 4 0.0000 0.0000 0.0000 44.5534 0.0000 0.0000
# 5 0.0000 0.0000 0.0000 0.0000 1.0549 0.0000
# 6 0.0000 0.0000 0.0000 0.0000 0.0000 69.6383
#
#
#
# Elastic Compliance Matrix: (Units=1/GPa)
#
#
# Indices 1 2 3 4 5 6 
#
# 1 0.016112 0.002517 -0.029117 0.000000 0.000000 0.000000
# 2 0.002517 0.005196 -0.007258 0.000000 0.000000 0.000000
# 3 -0.029117 -0.007258 0.089461 0.000000 0.000000 0.000000
# 4 0.000000 0.000000 0.000000 0.022445 0.000000 0.000000
# 5 0.000000 0.000000 0.000000 0.000000 0.947981 0.000000
# 6 0.000000 0.000000 0.000000 0.000000 0.000000 0.014360
#
#
# Mechanical properties :
#
#
# Convention : Reuss Voigt Hill
#
# Bulk Modulus (GPa) = 23.22653 57.27868 40.25260
# Shear Modulus (GPa) = 4.24584 45.49850 24.87217
#
# Velocity S-wave (km/s) = 1.31757 4.31312 3.18896
# Velocity P-wave (km/s) = 3.43676 6.94431 5.47881
#
# Compressibility (1/GPa) = 0.04305421
#
# Stress axis : x y z
#
# Youngs Moduli (GPa) = 62.06390 192.43763 11.17812
#
# Poissons Ratio (x) = -0.48432 0.32547
# Poissons Ratio (y) = -0.15620 0.08113
# Poissons Ratio (z) = 1.80709 1.39668
#
# Static dielectric constant tensor:
#      x y z
#    x 2.013760 0.000000 0.000000 
#    y 0.000000 1.937570 0.000000 
#    z 0.000000 0.000000 2.018620 
# 
# From -- ./inp_files/1355.got.cif
#   From: 2010.05.17/outbox.cif.g08.bks.cpg/sg74_1_cif.got.tgz:1355.got - 2010.06.03 17:57:02.
