data_PCOD9539555
_publ_section_title
;
Structure prediction by ZEFSAII (Michael W. Deem and Ramdas Pophale) SiO2 
 PCOD9539555
Probable space group: I M M A
;
_chemical_formula_sum "Si O2"
_cell_formula_units_Z 96
_cell_length_a 13.873892
_cell_length_b 14.567330
_cell_length_c 22.366491
_cell_angle_alpha 90.000000
_cell_angle_beta 90.000000
_cell_angle_gamma 90.000000
_cell_volume 4520.392259
_symmetry_space_group_name_H-M "I M M A"
_symmetry_group_IT_number 74
_symmetry_cell_setting 'orthorhombic'
loop_
_space_group_symop_operation_xyz
x,y,z
-x,1/2-y,z
x,-y,-z
-x,1/2+y,-z
-x,-y,-z
x,1/2+y,-z
-x,y,z
x,1/2-y,z
1/2+x,1/2+y,1/2+z
1/2-x,-y,1/2+z
1/2+x,1/2-y,1/2-z
1/2-x,y,1/2-z
1/2-x,1/2-y,1/2-z
1/2+x,y,1/2-z
1/2-x,1/2+y,1/2+z
1/2+x,-y,1/2+z
loop_
_atom_site_type_symbol
_atom_site_label
_atom_site_fract_x
_atom_site_fract_y
_atom_site_fract_z
Si Si1 0.700079 0.143089 0.851035
Si Si2 0.392145 0.361478 0.972532
Si Si3 0.392567 0.434073 0.443737
Si Si4 0.889902 0.470360 0.301240
Si Si5 0.697360 0.143736 0.094035
Si Si6 0.391835 0.546524 0.321267
O O1 0.679043 0.250000 0.844174
O O2 0.685017 0.117074 0.921014
O O3 0.805791 0.119073 0.826371
O O4 0.626460 0.076977 0.817312
O O5 0.500000 0.390618 0.954830
O O6 0.392290 0.250000 0.976526
O O7 0.366323 0.394566 0.038817
O O8 0.372927 0.500000 0.500000
O O9 0.500000 0.393446 0.452118
O O10 0.305822 0.365073 0.430839
O O11 0.394868 0.496945 0.384872
O O12 0.823006 0.413385 0.346093
O O13 0.869923 0.471676 0.230495
O O14 0.000000 0.441689 0.311515
O O15 0.673513 0.250000 0.104985
O O16 0.500000 0.582817 0.308939
#
# Coordination Sequence:
#
# PCOD9539555 Si02
#       6
#    16  16  16  16  16  16
#     4  11  22  38  63  92 126 167 209 260 324 389
#     4   9  19  36  58  90 128 161 203 258 312 375
#     4  10  21  40  66  92 123 165 212 267 325 381
#     4  11  24  40  61  90 129 172 211 259 317 382
#     4  11  23  39  65  97 129 172 220 267 321 381
#     4  10  22  41  62  87 124 165 211 263 317 381
#
# _framework density 21.237096000000001
#
# number of rings (size 3 to 8) (size 9 to 14) (size 15 to 20)
#    0.000    1.667    1.667    2.500    0.000    4.000 
#    0.000    5.000    0.000    9.000    0.000    0.000 
#    0.000    0.000    0.000    0.000    0.000    0.000 
#
# Total GULP energy -268030.843796 kJ/mol
# GULP energy per Si atom -5583.975912 kJ/mol
# Density = 2.118876 g / cm^3
# Si number density = 21.237096 Si / 1000 Ang^3
#
#
#
# Elastic Constant Matrix: (Units=GPa)
#
#
# Indices 1 2 3 4 5 6 
#
# 1 109.6162 22.0250 42.6035 0.0000 0.0000 0.0000
# 2 22.0250 44.2064 24.9172 0.0000 0.0000 0.0000
# 3 42.6035 24.9172 147.5028 0.0000 0.0000 0.0000
# 4 0.0000 0.0000 0.0000 24.1972 0.0000 0.0000
# 5 0.0000 0.0000 0.0000 0.0000 34.9510 0.0000
# 6 0.0000 0.0000 0.0000 0.0000 0.0000 13.6436
#
#
#
# Elastic Compliance Matrix: (Units=1/GPa)
#
#
# Indices 1 2 3 4 5 6 
#
# 1 0.010892 -0.004038 -0.002464 0.000000 0.000000 0.000000
# 2 -0.004038 0.026499 -0.003310 0.000000 0.000000 0.000000
# 3 -0.002464 -0.003310 0.008050 0.000000 0.000000 0.000000
# 4 0.000000 0.000000 0.000000 0.041327 0.000000 0.000000
# 5 0.000000 0.000000 0.000000 0.000000 0.028612 0.000000
# 6 0.000000 0.000000 0.000000 0.000000 0.000000 0.073294
#
#
# Mechanical properties :
#
#
# Convention : Reuss Voigt Hill
#
# Bulk Modulus (GPa) = 38.73378 53.37966 46.05672
# Shear Modulus (GPa) = 23.05182 28.67699 25.86440
#
# Velocity S-wave (km/s) = 3.29819 3.67866 3.49361
# Velocity P-wave (km/s) = 5.72559 6.57519 6.16504
#
# Compressibility (1/GPa) = 0.02581726
#
# Stress axis : x y z
#
# Youngs Moduli (GPa) = 91.81373 37.73768 124.21885
#
# Poissons Ratio (x) = 0.15238 0.30604
# Poissons Ratio (y) = 0.37073 0.41118
# Poissons Ratio (z) = 0.22621 0.12492
#
# Static dielectric constant tensor:
#      x y z
#    x 1.813570 0.000000 0.000000 
#    y 0.000000 1.738640 0.000000 
#    z 0.000000 0.000000 1.800670 
# 
# From -- ./inp_files/51832.got.cif
#   From: 2010.05.17/outbox.cif.g08.bks.cpg/sg74_26_cif.got.tgz:51832.got - 2010.06.03 17:57:02.
