data_PCOD9539902
_publ_section_title
;
Structure prediction by ZEFSAII (Michael W. Deem and Ramdas Pophale) SiO2 
 PCOD9539902
Probable space group: I M M A
;
_chemical_formula_sum "Si O2"
_cell_formula_units_Z 56
_cell_length_a 32.720555
_cell_length_b 11.163256
_cell_length_c 7.155199
_cell_angle_alpha 90.000000
_cell_angle_beta 90.000000
_cell_angle_gamma 90.000000
_cell_volume 2613.564741
_symmetry_space_group_name_H-M "I M M A"
_symmetry_group_IT_number 74
_symmetry_cell_setting 'orthorhombic'
loop_
_space_group_symop_operation_xyz
x,y,z
-x,1/2-y,z
x,-y,-z
-x,1/2+y,-z
-x,-y,-z
x,1/2+y,-z
-x,y,z
x,1/2-y,z
1/2+x,1/2+y,1/2+z
1/2-x,-y,1/2+z
1/2+x,1/2-y,1/2-z
1/2-x,y,1/2-z
1/2-x,1/2-y,1/2-z
1/2+x,y,1/2-z
1/2-x,1/2+y,1/2+z
1/2+x,-y,1/2+z
loop_
_atom_site_type_symbol
_atom_site_label
_atom_site_fract_x
_atom_site_fract_y
_atom_site_fract_z
Si Si1 0.500000 0.614381 0.364237
Si Si2 0.701348 0.877089 0.729376
Si Si3 0.583716 0.884736 0.133752
Si Si4 0.330199 0.121582 0.698557
O O1 0.500000 0.750000 0.450954
O O2 0.500000 0.500000 0.500000
O O3 0.459540 0.606695 0.237437
O O4 0.685524 0.750000 0.806916
O O5 0.750000 0.876373 0.750000
O O6 0.686356 0.877670 0.513248
O O7 0.686574 0.004900 0.799646
O O8 0.585636 0.750000 0.044265
O O9 0.620935 0.886661 0.282376
O O10 0.588369 0.000000 0.000000
O O11 0.316984 0.250000 0.778266
#
# Coordination Sequence:
#
# PCOD9539902 Si02
#       4
#     8  16  16  16
#     4  10  23  40  64  98 132 166 207 254 310 376
#     4   9  18  34  57  83 112 151 198 248 306 372
#     4  10  22  41  63  91 127 168 212 257 309 370
#     4   9  19  36  58  84 117 154 198 255 308 361
#
# _framework density 21.426673999999998
#
# number of rings (size 3 to 8) (size 9 to 14) (size 15 to 20)
#    0.000    2.571    0.000    0.429    4.000    2.857 
#    5.143    0.000    0.000    0.000    0.000    0.000 
#    0.000    0.000    0.000    0.000    0.000    0.000 
#
# Total GULP energy -155980.376003 kJ/mol
# GULP energy per Si atom -5570.727714 kJ/mol
# Density = 2.137791 g / cm^3
# Si number density = 21.426674 Si / 1000 Ang^3
#
#
#
# Elastic Constant Matrix: (Units=GPa)
#
#
# Indices 1 2 3 4 5 6 
#
# 1 124.1816 62.0582 40.6693 -0.0002 -0.0001 0.0000
# 2 62.0582 257.4485 47.9587 -0.0002 0.0000 0.0000
# 3 40.6693 47.9587 113.2348 -0.0005 -0.0003 0.0000
# 4 -0.0002 -0.0002 -0.0005 -5.6757 -0.0002 0.0000
# 5 -0.0001 0.0000 -0.0003 -0.0002 29.3745 0.0000
# 6 0.0000 0.0000 0.0000 0.0000 0.0000 30.5631
#
#
#
# Elastic Compliance Matrix: (Units=1/GPa)
#
#
# Indices 1 2 3 4 5 6 
#
# 1 0.009891 -0.001870 -0.002761 0.000000 0.000000 0.000000
# 2 -0.001870 0.004571 -0.001264 0.000000 0.000000 0.000000
# 3 -0.002761 -0.001264 0.010358 -0.000001 0.000000 0.000000
# 4 0.000000 0.000000 -0.000001 -0.176189 -0.000001 0.000000
# 5 0.000000 0.000000 0.000000 -0.000001 0.034043 0.000000
# 6 0.000000 0.000000 0.000000 0.000000 0.000000 0.032719
#
#
# Mechanical properties :
#
#
# Convention : Reuss Voigt Hill
#
# Bulk Modulus (GPa) = 76.74296 88.47081 82.60689
# Shear Modulus (GPa) = -73.02079 33.79762 -19.61159
#
# Velocity S-wave (km/s) = -5.84409 3.97591 -3.02866
# Velocity P-wave (km/s) = 3.10540 7.90296 5.13874
#
# Compressibility (1/GPa) = 0.01303051
#
# Stress axis : x y z
#
# Youngs Moduli (GPa) = 101.09855 218.79251 96.54300
#
# Poissons Ratio (x) = 0.40916 0.26651
# Poissons Ratio (y) = 0.18906 0.12204
# Poissons Ratio (z) = 0.27909 0.27658
#
# Static dielectric constant tensor:
#      x y z
#    x 1.735580 0.000000 0.000000 
#    y 0.000000 1.883320 0.000000 
#    z 0.000000 0.000000 1.715010 
# 
# From -- ./inp_files/14470.got.cif
#   From: 2010.05.17/outbox.cif.g08.bks.cpg/sg74_8_cif.got.tgz:14470.got - 2010.06.03 17:57:02.
