data_PCOD9539238
_publ_section_title
;
Structure prediction by ZEFSAII (Michael W. Deem and Ramdas Pophale) SiO2 
 PCOD9539238
Probable space group: I M M A
;
_chemical_formula_sum "Si O2"
_cell_formula_units_Z 84
_cell_length_a 7.679030
_cell_length_b 22.396541
_cell_length_c 24.434138
_cell_angle_alpha 90.000000
_cell_angle_beta 90.000000
_cell_angle_gamma 90.000000
_cell_volume 4202.273710
_symmetry_space_group_name_H-M "I M M A"
_symmetry_group_IT_number 74
_symmetry_cell_setting 'orthorhombic'
loop_
_space_group_symop_operation_xyz
x,y,z
-x,1/2-y,z
x,-y,-z
-x,1/2+y,-z
-x,-y,-z
x,1/2+y,-z
-x,y,z
x,1/2-y,z
1/2+x,1/2+y,1/2+z
1/2-x,-y,1/2+z
1/2+x,1/2-y,1/2-z
1/2-x,y,1/2-z
1/2-x,1/2-y,1/2-z
1/2+x,y,1/2-z
1/2-x,1/2+y,1/2+z
1/2+x,-y,1/2+z
loop_
_atom_site_type_symbol
_atom_site_label
_atom_site_fract_x
_atom_site_fract_y
_atom_site_fract_z
Si Si1 0.211147 0.568885 0.502327
Si Si2 0.202630 0.853520 0.396968
Si Si3 0.207720 0.815018 0.814044
Si Si4 0.198198 0.451702 0.813395
Si Si5 0.800545 0.069230 0.377020
Si Si6 0.000000 0.250000 0.885677
O O1 0.267344 0.500000 0.500000
O O2 0.263026 0.609544 0.451298
O O3 0.268314 0.587246 0.563125
O O4 0.000000 0.569738 0.499859
O O5 0.200969 0.901172 0.347144
O O6 0.343923 0.802164 0.386593
O O7 0.000000 0.833187 0.404876
O O8 0.264670 0.750000 0.835638
O O9 0.250000 0.816040 0.750000
O O10 0.293669 0.871571 0.841381
O O11 0.000000 0.819690 0.821042
O O12 0.250000 0.459697 0.750000
O O13 0.212219 0.514380 0.845806
O O14 0.000000 0.431691 0.813848
O O15 0.000000 0.048966 0.384467
#
# Coordination Sequence:
#
# PCOD9539238 Si02
#       6
#    16  16  16  16  16   4
#     4   9  18  37  66  95 127 166 207 258 328 389
#     4  11  23  46  72  99 137 176 224 282 339 404
#     4  10  21  38  56  80 119 168 214 263 315 378
#     4  12  24  41  66 100 133 169 219 280 343 404
#     4  11  21  37  62  95 129 170 216 265 328 394
#     4  12  26  48  68 102 130 188 232 270 342 414
#
# _framework density 19.989179
#
# number of rings (size 3 to 8) (size 9 to 14) (size 15 to 20)
#    0.000    1.333    2.857    3.714    0.000    1.143 
#    5.143    1.905    0.000    0.000    0.000    0.000 
#    0.000    0.000    0.000    0.000    0.000    0.000 
#
# Total GULP energy -233866.684206 kJ/mol
# GULP energy per Si atom -5568.254386 kJ/mol
# Density = 1.994368 g / cm^3
# Si number density = 19.989179 Si / 1000 Ang^3
#
#
#
# Elastic Constant Matrix: (Units=GPa)
#
#
# Indices 1 2 3 4 5 6 
#
# 1 94.3742 23.1158 10.1415 0.0000 0.0000 0.0000
# 2 23.1158 119.2980 38.0582 0.0000 0.0000 0.0000
# 3 10.1415 38.0582 105.1417 0.0000 0.0000 0.0000
# 4 0.0000 0.0000 0.0000 0.9676 0.0000 0.0000
# 5 0.0000 0.0000 0.0000 0.0000 14.0488 0.0000
# 6 0.0000 0.0000 0.0000 0.0000 0.0000 111.3781
#
#
#
# Elastic Compliance Matrix: (Units=1/GPa)
#
#
# Indices 1 2 3 4 5 6 
#
# 1 0.011134 -0.002052 -0.000331 0.000000 0.000000 0.000000
# 2 -0.002052 0.009855 -0.003369 0.000000 0.000000 0.000000
# 3 -0.000331 -0.003369 0.010762 0.000000 0.000000 0.000000
# 4 0.000000 0.000000 0.000000 1.033532 0.000000 0.000000
# 5 0.000000 0.000000 0.000000 0.000000 0.071180 0.000000
# 6 0.000000 0.000000 0.000000 0.000000 0.000000 0.008978
#
#
# Mechanical properties :
#
#
# Convention : Reuss Voigt Hill
#
# Bulk Modulus (GPa) = 49.39005 51.27164 50.33085
# Shear Modulus (GPa) = 4.29666 41.77880 23.03773
#
# Velocity S-wave (km/s) = 1.46770 4.57669 3.39855
# Velocity P-wave (km/s) = 5.25683 7.32349 6.37447
#
# Compressibility (1/GPa) = 0.02024699
#
# Stress axis : x y z
#
# Youngs Moduli (GPa) = 89.81289 101.47368 92.91525
#
# Poissons Ratio (x) = 0.20820 0.03078
# Poissons Ratio (y) = 0.18427 0.31305
# Poissons Ratio (z) = 0.02975 0.34189
#
# Static dielectric constant tensor:
#      x y z
#    x 1.757720 0.000000 0.000000 
#    y 0.000000 1.673900 0.000000 
#    z 0.000000 0.000000 1.734750 
# 
# From -- ./inp_files/56876.got.cif
#   From: 2010.05.17/outbox.cif.g08.bks.cpg/sg74_29_cif.got.tgz:56876.got - 2010.06.03 17:57:02.
