data_PCOD9539019
_publ_section_title
;
Structure prediction by ZEFSAII (Michael W. Deem and Ramdas Pophale) SiO2 
 PCOD9539019
Probable space group: I M M A
;
_chemical_formula_sum "Si O2"
_cell_formula_units_Z 60
_cell_length_a 19.784147
_cell_length_b 7.620569
_cell_length_c 16.555126
_cell_angle_alpha 90.000000
_cell_angle_beta 90.000000
_cell_angle_gamma 90.000000
_cell_volume 2495.957698
_symmetry_space_group_name_H-M "I M M A"
_symmetry_group_IT_number 74
_symmetry_cell_setting 'orthorhombic'
loop_
_space_group_symop_operation_xyz
x,y,z
-x,1/2-y,z
x,-y,-z
-x,1/2+y,-z
-x,-y,-z
x,1/2+y,-z
-x,y,z
x,1/2-y,z
1/2+x,1/2+y,1/2+z
1/2-x,-y,1/2+z
1/2+x,1/2-y,1/2-z
1/2-x,y,1/2-z
1/2-x,1/2-y,1/2-z
1/2+x,y,1/2-z
1/2-x,1/2+y,1/2+z
1/2+x,-y,1/2+z
loop_
_atom_site_type_symbol
_atom_site_label
_atom_site_fract_x
_atom_site_fract_y
_atom_site_fract_z
Si Si1 0.395622 0.057144 0.614255
Si Si2 0.000000 0.250000 0.068475
Si Si3 0.500000 0.959679 0.906272
Si Si4 0.755999 0.041003 0.412832
Si Si5 0.625261 0.036063 0.200831
O O1 0.422515 0.250000 0.592991
O O2 0.441232 0.903930 0.579252
O O3 0.317680 0.043046 0.588196
O O4 0.391882 0.034609 0.711170
O O5 0.500000 0.750000 0.897584
O O6 0.566746 0.021751 0.860415
O O7 0.500000 0.000000 0.000000
O O8 0.747435 0.250000 0.405376
O O9 0.803669 0.983310 0.339159
O O10 0.788560 0.000000 0.500000
O O11 0.625582 0.250000 0.206849
#
# Coordination Sequence:
#
# PCOD9539019 Si02
#       5
#    16   4   8  16  16
#     4  12  25  43  73 102 134 180 233 284 350 417
#     4  12  24  48  68  98 140 172 218 298 340 408
#     4  10  21  36  58  92 137 179 224 270 332 406
#     4  11  23  42  67  98 141 183 231 291 347 407
#     4  10  21  39  66  98 138 187 225 280 342 403
#
# _framework density 24.038868999999998
#
# number of rings (size 3 to 8) (size 9 to 14) (size 15 to 20)
#    0.000    1.067    2.667    3.600    1.867    6.400 
#    0.000    0.667    0.000    0.000    0.000    0.000 
#    0.000    0.000    0.000    0.000    0.000    0.000 
#
# Total GULP energy -167670.499016 kJ/mol
# GULP energy per Si atom -5589.016634 kJ/mol
# Density = 2.398416 g / cm^3
# Si number density = 24.038869 Si / 1000 Ang^3
#
#
#
# Elastic Constant Matrix: (Units=GPa)
#
#
# Indices 1 2 3 4 5 6 
#
# 1 126.9529 49.2909 23.9866 0.0000 0.0000 0.0000
# 2 49.2909 165.7427 15.8441 0.0000 0.0000 0.0000
# 3 23.9866 15.8441 150.4912 0.0000 0.0000 0.0000
# 4 0.0000 0.0000 0.0000 35.8255 0.0000 0.0000
# 5 0.0000 0.0000 0.0000 0.0000 36.3095 0.0000
# 6 0.0000 0.0000 0.0000 0.0000 0.0000 -148.0316
#
#
#
# Elastic Compliance Matrix: (Units=1/GPa)
#
#
# Indices 1 2 3 4 5 6 
#
# 1 0.009107 -0.002596 -0.001178 0.000000 0.000000 0.000000
# 2 -0.002596 0.006835 -0.000306 0.000000 0.000000 0.000000
# 3 -0.001178 -0.000306 0.006865 0.000000 0.000000 0.000000
# 4 0.000000 0.000000 0.000000 0.027913 0.000000 0.000000
# 5 0.000000 0.000000 0.000000 0.000000 0.027541 0.000000
# 6 0.000000 0.000000 0.000000 0.000000 0.000000 -0.006755
#
#
# Mechanical properties :
#
#
# Convention : Reuss Voigt Hill
#
# Bulk Modulus (GPa) = 68.27325 69.04778 68.66051
# Shear Modulus (GPa) = 59.13792 8.42504 33.78148
#
# Velocity S-wave (km/s) = 4.96532 1.87413 3.75278
# Velocity P-wave (km/s) = 7.83169 5.78523 6.88492
#
# Compressibility (1/GPa) = 0.01464703
#
# Stress axis : x y z
#
# Youngs Moduli (GPa) = 109.80027 146.31273 145.66824
#
# Poissons Ratio (x) = 0.37981 0.17164
# Poissons Ratio (y) = 0.28503 0.04455
# Poissons Ratio (z) = 0.12938 0.04475
#
# Static dielectric constant tensor:
#      x y z
#    x 1.864780 0.000000 0.000000 
#    y 0.000000 1.895280 0.000000 
#    z 0.000000 0.000000 1.938920 
# 
# From -- ./inp_files/52561.got.cif
#   From: 2010.05.17/outbox.cif.g08.bks.cpg/sg74_27_cif.got.tgz:52561.got - 2010.06.03 17:57:02.
