data_PCOD9539357
_publ_section_title
;
Structure prediction by ZEFSAII (Michael W. Deem and Ramdas Pophale) SiO2 
 PCOD9539357
Probable space group: I M M A
;
_chemical_formula_sum "Si O2"
_cell_formula_units_Z 88
_cell_length_a 20.633279
_cell_length_b 24.345727
_cell_length_c 9.334824
_cell_angle_alpha 90.000000
_cell_angle_beta 90.000000
_cell_angle_gamma 90.000000
_cell_volume 4689.182468
_symmetry_space_group_name_H-M "I M M A"
_symmetry_group_IT_number 74
_symmetry_cell_setting 'orthorhombic'
loop_
_space_group_symop_operation_xyz
x,y,z
-x,1/2-y,z
x,-y,-z
-x,1/2+y,-z
-x,-y,-z
x,1/2+y,-z
-x,y,z
x,1/2-y,z
1/2+x,1/2+y,1/2+z
1/2-x,-y,1/2+z
1/2+x,1/2-y,1/2-z
1/2-x,y,1/2-z
1/2-x,1/2-y,1/2-z
1/2+x,y,1/2-z
1/2-x,1/2+y,1/2+z
1/2+x,-y,1/2+z
loop_
_atom_site_type_symbol
_atom_site_label
_atom_site_fract_x
_atom_site_fract_y
_atom_site_fract_z
Si Si1 0.425290 0.139595 0.570474
Si Si2 0.072855 0.094294 0.234733
Si Si3 0.387865 0.973548 0.288357
Si Si4 0.339648 0.416659 0.990280
Si Si5 0.825479 0.311170 0.708161
Si Si6 0.226888 0.000000 0.000000
O O1 0.500000 0.159056 0.583114
O O2 0.408906 0.130509 0.403284
O O3 0.420770 0.078635 0.638581
O O4 0.373027 0.174780 0.658569
O O5 0.121035 0.096036 0.367198
O O6 0.000000 0.109440 0.277984
O O7 0.074184 0.029942 0.192264
O O8 0.319182 0.984541 0.366983
O O9 0.375552 0.957160 0.123349
O O10 0.272693 0.447558 0.026619
O O11 0.332405 0.359995 0.905028
O O12 0.841610 0.250000 0.654586
O O13 0.750000 0.311573 0.750000
#
# Coordination Sequence:
#
# PCOD9539357 Si02
#       6
#    16  16  16  16  16   8
#     4  10  21  38  62  89 119 163 212 253 301 365
#     4  11  22  37  55  86 127 165 198 246 308 370
#     4  11  20  34  56  84 125 167 199 243 294 369
#     4  11  23  35  57  93 126 161 201 254 309 376
#     4  10  23  45  67  89 118 159 211 265 317 372
#     4  12  20  34  56  90 126 162 208 250 304 366
#
# _framework density 18.766597999999998
#
# number of rings (size 3 to 8) (size 9 to 14) (size 15 to 20)
#    0.000    1.273    3.636    3.273    0.000    6.182 
#    0.000    0.909    0.000    3.273    0.000    0.000 
#    0.000    0.000    0.000    0.000    0.000    0.000 
#
# Total GULP energy -245665.733429 kJ/mol
# GULP energy per Si atom -5583.312123 kJ/mol
# Density = 1.872388 g / cm^3
# Si number density = 18.766598 Si / 1000 Ang^3
#
#
#
# Elastic Constant Matrix: (Units=GPa)
#
#
# Indices 1 2 3 4 5 6 
#
# 1 114.5367 29.2707 62.0325 0.0000 0.0000 0.0000
# 2 29.2707 89.0534 21.8793 0.0000 0.0000 0.0000
# 3 62.0325 21.8793 98.5485 0.0000 0.0000 0.0000
# 4 0.0000 0.0000 0.0000 14.4641 0.0000 0.0000
# 5 0.0000 0.0000 0.0000 0.0000 15.0216 0.0000
# 6 0.0000 0.0000 0.0000 0.0000 0.0000 -17.4415
#
#
#
# Elastic Compliance Matrix: (Units=1/GPa)
#
#
# Indices 1 2 3 4 5 6 
#
# 1 0.013767 -0.002534 -0.008103 0.000000 0.000000 0.000000
# 2 -0.002534 0.012344 -0.001145 0.000000 0.000000 0.000000
# 3 -0.008103 -0.001145 0.015502 0.000000 0.000000 0.000000
# 4 0.000000 0.000000 0.000000 0.069137 0.000000 0.000000
# 5 0.000000 0.000000 0.000000 0.000000 0.066571 0.000000
# 6 0.000000 0.000000 0.000000 0.000000 0.000000 -0.057335
#
#
# Mechanical properties :
#
#
# Convention : Reuss Voigt Hill
#
# Bulk Modulus (GPa) = 55.40945 58.72264 57.06605
# Shear Modulus (GPa) = 33.42976 15.00590 24.21783
#
# Velocity S-wave (km/s) = 4.22518 2.83080 3.59622
# Velocity P-wave (km/s) = 7.30702 6.48410 6.90782
#
# Compressibility (1/GPa) = 0.01804746
#
# Stress axis : x y z
#
# Youngs Moduli (GPa) = 72.63674 81.01384 64.50681
#
# Poissons Ratio (x) = 0.20531 0.52271
# Poissons Ratio (y) = 0.18408 0.07388
# Poissons Ratio (z) = 0.58859 0.09278
#
# Static dielectric constant tensor:
#      x y z
#    x 1.668780 0.000000 0.000000 
#    y 0.000000 1.635510 0.000000 
#    z 0.000000 0.000000 1.663420 
# 
# From -- ./inp_files/12440.got.cif
#   From: 2010.05.17/outbox.cif.g08.bks.cpg/sg74_7_cif.got.tgz:12440.got - 2010.06.03 17:57:02.
