data_PCOD9539386
_publ_section_title
;
Structure prediction by ZEFSAII (Michael W. Deem and Ramdas Pophale) SiO2 
 PCOD9539386
Probable space group: I M M A
;
_chemical_formula_sum "Si O2"
_cell_formula_units_Z 68
_cell_length_a 8.808102
_cell_length_b 15.351155
_cell_length_c 23.040303
_cell_angle_alpha 90.000000
_cell_angle_beta 90.000000
_cell_angle_gamma 90.000000
_cell_volume 3115.383950
_symmetry_space_group_name_H-M "I M M A"
_symmetry_group_IT_number 74
_symmetry_cell_setting 'orthorhombic'
loop_
_space_group_symop_operation_xyz
x,y,z
-x,1/2-y,z
x,-y,-z
-x,1/2+y,-z
-x,-y,-z
x,1/2+y,-z
-x,y,z
x,1/2-y,z
1/2+x,1/2+y,1/2+z
1/2-x,-y,1/2+z
1/2+x,1/2-y,1/2-z
1/2-x,y,1/2-z
1/2-x,1/2-y,1/2-z
1/2+x,y,1/2-z
1/2-x,1/2+y,1/2+z
1/2+x,-y,1/2+z
loop_
_atom_site_type_symbol
_atom_site_label
_atom_site_fract_x
_atom_site_fract_y
_atom_site_fract_z
Si Si1 0.250000 0.250000 0.250000
Si Si2 0.675264 0.144018 0.452032
Si Si3 0.328882 0.854172 0.070260
Si Si4 0.321960 0.408137 0.690299
Si Si5 0.323326 0.412176 0.165206
O O1 0.292040 0.326050 0.202270
O O2 0.500000 0.119116 0.441822
O O3 0.682272 0.250000 0.449352
O O4 0.730610 0.114819 0.515504
O O5 0.780687 0.106675 0.401501
O O6 0.500000 0.889976 0.068192
O O7 0.337835 0.750000 0.063935
O O8 0.254230 0.872256 0.132062
O O9 0.500000 0.391678 0.689926
O O10 0.250000 0.373685 0.750000
O O11 0.284904 0.510897 0.687050
O O12 0.500000 0.437289 0.171474
#
# Coordination Sequence:
#
# PCOD9539386 Si02
#       5
#     4  16  16  16  16
#     4  12  26  40  68  98 136 176 220 260 314 380
#     4  10  21  38  63  95 131 169 215 265 317 378
#     4  10  22  43  70  97 128 166 212 264 323 383
#     4  12  26  44  66  94 130 168 213 266 323 381
#     4  12  25  42  66  95 132 173 218 264 317 379
#
# _framework density 21.827164
#
# number of rings (size 3 to 8) (size 9 to 14) (size 15 to 20)
#    0.000    0.941    2.353    4.588    0.000    6.588 
#    0.000    4.706    0.000    0.000    0.000    0.000 
#    0.000    0.000    0.000    0.000    0.000    0.000 
#
# Total GULP energy -189771.213824 kJ/mol
# GULP energy per Si atom -5581.506289 kJ/mol
# Density = 2.177748 g / cm^3
# Si number density = 21.827164 Si / 1000 Ang^3
#
#
#
# Elastic Constant Matrix: (Units=GPa)
#
#
# Indices 1 2 3 4 5 6 
#
# 1 94.2996 -10.9502 18.0181 0.0000 0.0000 0.0000
# 2 -10.9502 14.2880 -13.4640 0.0000 0.0000 0.0000
# 3 18.0181 -13.4640 137.0103 0.0000 0.0000 0.0000
# 4 0.0000 0.0000 0.0000 29.2352 0.0000 0.0000
# 5 0.0000 0.0000 0.0000 0.0000 32.5750 0.0000
# 6 0.0000 0.0000 0.0000 0.0000 0.0000 10.9559
#
#
#
# Elastic Compliance Matrix: (Units=1/GPa)
#
#
# Indices 1 2 3 4 5 6 
#
# 1 0.011705 0.008288 -0.000725 0.000000 0.000000 0.000000
# 2 0.008288 0.082999 0.007066 0.000000 0.000000 0.000000
# 3 -0.000725 0.007066 0.008088 0.000000 0.000000 0.000000
# 4 0.000000 0.000000 0.000000 0.034205 0.000000 0.000000
# 5 0.000000 0.000000 0.000000 0.000000 0.030698 0.000000
# 6 0.000000 0.000000 0.000000 0.000000 0.000000 0.091275
#
#
# Mechanical properties :
#
#
# Convention : Reuss Voigt Hill
#
# Bulk Modulus (GPa) = 7.57279 25.86731 16.72005
# Shear Modulus (GPa) = 18.26611 31.35282 24.80946
#
# Velocity S-wave (km/s) = 2.89598 3.79412 3.37506
# Velocity P-wave (km/s) = 3.82874 5.57409 4.78172
#
# Compressibility (1/GPa) = 0.13205171
#
# Stress axis : x y z
#
# Youngs Moduli (GPa) = 85.43070 12.04829 123.63275
#
# Poissons Ratio (x) = -0.09985 0.08962
# Poissons Ratio (y) = -0.70803 -0.87364
# Poissons Ratio (z) = 0.06193 -0.08514
#
# Static dielectric constant tensor:
#      x y z
#    x 1.757230 0.000000 0.000000 
#    y 0.000000 1.818910 0.000000 
#    z 0.000000 0.000000 1.782500 
# 
# From -- ./inp_files/48114.got.cif
#   From: 2010.05.17/outbox.cif.g08.bks.cpg/sg74_25_cif.got.tgz:48114.got - 2010.06.03 17:57:02.
