data_PCOD9539368
_publ_section_title
;
Structure prediction by ZEFSAII (Michael W. Deem and Ramdas Pophale) SiO2 
 PCOD9539368
Probable space group: I M M A
;
_chemical_formula_sum "Si O2"
_cell_formula_units_Z 80
_cell_length_a 14.602981
_cell_length_b 11.296197
_cell_length_c 21.312985
_cell_angle_alpha 90.000000
_cell_angle_beta 90.000000
_cell_angle_gamma 90.000000
_cell_volume 3515.750580
_symmetry_space_group_name_H-M "I M M A"
_symmetry_group_IT_number 74
_symmetry_cell_setting 'orthorhombic'
loop_
_space_group_symop_operation_xyz
x,y,z
-x,1/2-y,z
x,-y,-z
-x,1/2+y,-z
-x,-y,-z
x,1/2+y,-z
-x,y,z
x,1/2-y,z
1/2+x,1/2+y,1/2+z
1/2-x,-y,1/2+z
1/2+x,1/2-y,1/2-z
1/2-x,y,1/2-z
1/2-x,1/2-y,1/2-z
1/2+x,y,1/2-z
1/2-x,1/2+y,1/2+z
1/2+x,-y,1/2+z
loop_
_atom_site_type_symbol
_atom_site_label
_atom_site_fract_x
_atom_site_fract_y
_atom_site_fract_z
Si Si1 0.406547 0.750000 0.119858
Si Si2 0.397128 0.994526 0.933292
Si Si3 0.110418 0.495630 0.827148
Si Si4 0.711059 0.750000 0.319983
Si Si5 0.611176 0.114854 0.457722
Si Si6 0.888279 0.386490 0.303651
O O1 0.500000 0.750000 0.162353
O O2 0.410530 0.869208 0.081899
O O3 0.306509 0.750000 0.145705
O O4 0.500000 0.939460 0.941956
O O5 0.355831 0.937309 0.870591
O O6 0.347859 0.000000 0.000000
O O7 0.153744 0.366881 0.835185
O O8 0.133570 0.581068 0.885492
O O9 0.140054 0.544833 0.759035
O O10 0.000000 0.485845 0.826466
O O11 0.750000 0.750000 0.250000
O O12 0.500000 0.120059 0.462395
O O13 0.644285 0.250000 0.473325
O O14 0.637908 0.000000 0.500000
O O15 0.863122 0.250000 0.298002
O O16 0.000000 0.395154 0.305436
#
# Coordination Sequence:
#
# PCOD9539368 Si02
#       6
#     8  16  16   8  16  16
#     4  10  22  41  62  85 120 159 205 262 321 380
#     4   9  18  32  57  88 116 153 201 255 314 373
#     4  10  21  38  62  93 131 172 217 265 323 387
#     4  12  25  39  62  91 125 169 216 270 327 396
#     4   9  18  33  60  97 137 181 226 269 322 391
#     4   9  17  30  53  87 125 163 206 255 310 377
#
# _framework density 22.754742
#
# number of rings (size 3 to 8) (size 9 to 14) (size 15 to 20)
#    0.000    2.400    0.000    2.100    2.800    4.800 
#    0.000    1.000    0.000   10.800    0.000    0.000 
#    0.000    0.000    0.000    0.000    0.000    0.000 
#
# Total GULP energy -223145.569916 kJ/mol
# GULP energy per Si atom -5578.639248 kJ/mol
# Density = 2.270295 g / cm^3
# Si number density = 22.754742 Si / 1000 Ang^3
#
#
#
# Elastic Constant Matrix: (Units=GPa)
#
#
# Indices 1 2 3 4 5 6 
#
# 1 79.9658 36.5068 34.0390 0.0000 0.0000 0.0000
# 2 36.5068 176.7352 73.7131 0.0000 0.0000 0.0000
# 3 34.0390 73.7131 160.9800 0.0000 0.0000 0.0000
# 4 0.0000 0.0000 0.0000 61.3290 0.0000 0.0000
# 5 0.0000 0.0000 0.0000 0.0000 -4.3998 0.0000
# 6 0.0000 0.0000 0.0000 0.0000 0.0000 -0.2132
#
#
#
# Elastic Compliance Matrix: (Units=1/GPa)
#
#
# Indices 1 2 3 4 5 6 
#
# 1 0.014346 -0.002099 -0.002072 0.000000 0.000000 0.000000
# 2 -0.002099 0.007301 -0.002899 0.000000 0.000000 0.000000
# 3 -0.002072 -0.002899 0.007978 0.000000 0.000000 0.000000
# 4 0.000000 0.000000 0.000000 0.016306 0.000000 0.000000
# 5 0.000000 0.000000 0.000000 0.000000 -0.227282 0.000000
# 6 0.000000 0.000000 0.000000 0.000000 0.000000 -4.689839
#
#
# Mechanical properties :
#
#
# Convention : Reuss Voigt Hill
#
# Bulk Modulus (GPa) = 64.58558 78.46653 71.52605
# Shear Modulus (GPa) = -1.03053 29.57133 14.27040
#
# Velocity S-wave (km/s) = -0.67370 3.60886 2.50699
# Velocity P-wave (km/s) = 5.27634 7.20581 6.31520
#
# Compressibility (1/GPa) = 0.01548333
#
# Stress axis : x y z
#
# Youngs Moduli (GPa) = 69.70735 136.96745 125.34892
#
# Poissons Ratio (x) = 0.28749 0.25975
# Poissons Ratio (y) = 0.14631 0.36343
# Poissons Ratio (z) = 0.14445 0.39711
#
# Static dielectric constant tensor:
#      x y z
#    x 1.817050 0.000000 0.000000 
#    y 0.000000 1.788960 0.000000 
#    z 0.000000 0.000000 1.826240 
# 
# From -- ./inp_files/52791.got.cif
#   From: 2010.05.17/outbox.cif.g08.bks.cpg/sg74_27_cif.got.tgz:52791.got - 2010.06.03 17:57:02.
