data_PCOD9539670
_publ_section_title
;
Structure prediction by ZEFSAII (Michael W. Deem and Ramdas Pophale) SiO2 
 PCOD9539670
Probable space group: I M M A
;
_chemical_formula_sum "Si O2"
_cell_formula_units_Z 116
_cell_length_a 26.798345
_cell_length_b 17.605705
_cell_length_c 12.152324
_cell_angle_alpha 90.000000
_cell_angle_beta 90.000000
_cell_angle_gamma 90.000000
_cell_volume 5733.512114
_symmetry_space_group_name_H-M "I M M A"
_symmetry_group_IT_number 74
_symmetry_cell_setting 'orthorhombic'
loop_
_space_group_symop_operation_xyz
x,y,z
-x,1/2-y,z
x,-y,-z
-x,1/2+y,-z
-x,-y,-z
x,1/2+y,-z
-x,y,z
x,1/2-y,z
1/2+x,1/2+y,1/2+z
1/2-x,-y,1/2+z
1/2+x,1/2-y,1/2-z
1/2-x,y,1/2-z
1/2-x,1/2-y,1/2-z
1/2+x,y,1/2-z
1/2-x,1/2+y,1/2+z
1/2+x,-y,1/2+z
loop_
_atom_site_type_symbol
_atom_site_label
_atom_site_fract_x
_atom_site_fract_y
_atom_site_fract_z
Si Si1 0.417174 0.495235 0.662027
Si Si2 0.798798 0.340719 0.688624
Si Si3 0.357092 0.663407 0.831425
Si Si4 0.440803 0.557912 0.901376
Si Si5 0.274396 0.413963 0.040393
Si Si6 0.659562 0.610645 0.593552
Si Si7 0.500000 0.000000 0.500000
Si Si8 0.114153 0.661882 0.137661
O O1 0.427746 0.516876 0.786745
O O2 0.363750 0.527083 0.620766
O O3 0.456670 0.533545 0.582111
O O4 0.425834 0.405085 0.648790
O O5 0.794760 0.250000 0.685705
O O6 0.750000 0.372688 0.750000
O O7 0.795971 0.369109 0.564863
O O8 0.846705 0.356617 0.764022
O O9 0.345676 0.750000 0.862747
O O10 0.406299 0.632583 0.893485
O O11 0.312995 0.605611 0.863739
O O12 0.359684 0.657606 0.699157
O O13 0.500000 0.574006 0.908199
O O14 0.427647 0.500000 0.000000
O O15 0.219028 0.391346 0.078724
O O16 0.273314 0.500000 0.000000
O O17 0.639285 0.646573 0.480553
O O18 0.099078 0.750000 0.146444
#
# Coordination Sequence:
#
# PCOD9539670 Si02
#       8
#    16  16  16  16  16  16   4  16
#     4  11  23  41  67  95 125 162 212 264 323 384
#     4  10  22  37  58  85 120 165 208 250 305 369
#     4  11  26  42  63  95 128 166 212 265 322 380
#     4  10  23  45  71  93 122 167 215 265 321 384
#     4  12  25  39  61  90 128 170 212 264 308 378
#     4  11  23  42  62  89 128 170 215 257 312 383
#     4  12  20  40  72  96 124 164 202 270 338 372
#     4  11  22  38  61  90 126 164 206 257 313 380
#
# _framework density 20.231926999999999
#
# number of rings (size 3 to 8) (size 9 to 14) (size 15 to 20)
#    0.000    1.103    3.448    2.483    5.793    2.483 
#    0.000    0.345    0.000    0.828    0.000    0.000 
#    0.000    0.000    0.000    0.000    0.000    0.000 
#
# Total GULP energy -323204.073834 kJ/mol
# GULP energy per Si atom -5572.484032 kJ/mol
# Density = 2.018588 g / cm^3
# Si number density = 20.231927 Si / 1000 Ang^3
#
#
#
# Elastic Constant Matrix: (Units=GPa)
#
#
# Indices 1 2 3 4 5 6 
#
# 1 53.1667 9.4060 9.7787 0.0000 0.0000 0.0000
# 2 9.4060 63.9445 -14.8952 0.0000 0.0000 0.0000
# 3 9.7787 -14.8952 100.4556 0.0000 0.0000 0.0000
# 4 0.0000 0.0000 0.0000 22.5510 0.0000 0.0000
# 5 0.0000 0.0000 0.0000 0.0000 81.4605 0.0000
# 6 0.0000 0.0000 0.0000 0.0000 0.0000 52.4302
#
#
#
# Elastic Compliance Matrix: (Units=1/GPa)
#
#
# Indices 1 2 3 4 5 6 
#
# 1 0.019878 -0.003496 -0.002453 0.000000 0.000000 0.000000
# 2 -0.003496 0.016813 0.002833 0.000000 0.000000 0.000000
# 3 -0.002453 0.002833 0.010614 0.000000 0.000000 0.000000
# 4 0.000000 0.000000 0.000000 0.044344 0.000000 0.000000
# 5 0.000000 0.000000 0.000000 0.000000 0.012276 0.000000
# 6 0.000000 0.000000 0.000000 0.000000 0.000000 0.019073
#
#
# Mechanical properties :
#
#
# Convention : Reuss Voigt Hill
#
# Bulk Modulus (GPa) = 24.34669 25.12731 24.73700
# Shear Modulus (GPa) = 34.98460 45.50682 40.24571
#
# Velocity S-wave (km/s) = 4.16285 4.74778 4.46490
# Velocity P-wave (km/s) = 5.93007 6.51934 6.23167
#
# Compressibility (1/GPa) = 0.04107334
#
# Stress axis : x y z
#
# Youngs Moduli (GPa) = 50.30579 59.47884 94.21911
#
# Poissons Ratio (x) = 0.20791 0.23115
# Poissons Ratio (y) = 0.17585 -0.26694
# Poissons Ratio (z) = 0.12342 -0.16852
#
# Static dielectric constant tensor:
#      x y z
#    x 0.796010 0.000000 0.000000 
#    y 0.000000 1.759530 0.000000 
#    z 0.000000 0.000000 1.856120 
# 
# From -- ./inp_files/26395.got.cif
#   From: 2010.05.17/outbox.cif.g08.bks.cpg/sg74_14_cif.got.tgz:26395.got - 2010.06.03 17:57:02.
