data_PCOD9539637
_publ_section_title
;
Structure prediction by ZEFSAII (Michael W. Deem and Ramdas Pophale) SiO2 
 PCOD9539637
Probable space group: I M M A
;
_chemical_formula_sum "Si O2"
_cell_formula_units_Z 72
_cell_length_a 24.486854
_cell_length_b 16.450736
_cell_length_c 7.480264
_cell_angle_alpha 90.000000
_cell_angle_beta 90.000000
_cell_angle_gamma 90.000000
_cell_volume 3013.250591
_symmetry_space_group_name_H-M "I M M A"
_symmetry_group_IT_number 74
_symmetry_cell_setting 'orthorhombic'
loop_
_space_group_symop_operation_xyz
x,y,z
-x,1/2-y,z
x,-y,-z
-x,1/2+y,-z
-x,-y,-z
x,1/2+y,-z
-x,y,z
x,1/2-y,z
1/2+x,1/2+y,1/2+z
1/2-x,-y,1/2+z
1/2+x,1/2-y,1/2-z
1/2-x,y,1/2-z
1/2-x,1/2-y,1/2-z
1/2+x,y,1/2-z
1/2-x,1/2+y,1/2+z
1/2+x,-y,1/2+z
loop_
_atom_site_type_symbol
_atom_site_label
_atom_site_fract_x
_atom_site_fract_y
_atom_site_fract_z
Si Si1 0.376851 0.073289 0.131497
Si Si2 0.000000 0.119710 0.860604
Si Si3 0.077699 0.750000 0.299956
Si Si4 0.374698 0.250000 0.140566
Si Si5 0.709116 0.417735 0.410155
Si Si6 0.670599 0.250000 0.537837
Si Si7 0.000000 0.067319 0.257886
O O1 0.352358 0.161871 0.082925
O O2 0.349864 0.058475 0.324481
O O3 0.442409 0.081332 0.144927
O O4 0.363773 0.000000 0.000000
O O5 0.949522 0.170102 0.783192
O O6 0.000000 0.027803 0.794760
O O7 0.000000 0.118696 0.074793
O O8 0.071799 0.750000 0.513650
O O9 0.138076 0.750000 0.221420
O O10 0.369280 0.250000 0.357058
O O11 0.729786 0.500000 0.500000
O O12 0.750000 0.399053 0.250000
O O13 0.702501 0.334957 0.520777
#
# Coordination Sequence:
#
# PCOD9539637 Si02
#       7
#    16   8   8   8  16   8   8
#     4  11  24  41  66  97 138 180 230 283 350 418
#     4  10  22  35  58  94 137 171 236 273 324 424
#     4  11  22  41  63  96 128 186 227 278 346 407
#     4  10  23  40  64  95 137 176 232 282 339 409
#     4  11  25  46  72 100 136 180 231 291 351 413
#     4  10  24  45  72  98 136 179 224 285 355 411
#     4  11  23  37  62  96 139 178 222 276 352 399
#
# _framework density 23.894462000000001
#
# number of rings (size 3 to 8) (size 9 to 14) (size 15 to 20)
#    0.000    1.333    0.000    5.333    9.333    3.111 
#    0.000    2.778    0.000    0.000    0.000    0.000 
#    0.000    0.000    0.000    0.000    0.000    0.000 
#
# Total GULP energy -200983.476566 kJ/mol
# GULP energy per Si atom -5582.874349 kJ/mol
# Density = 2.384008 g / cm^3
# Si number density = 23.894462 Si / 1000 Ang^3
#
#
#
# Elastic Constant Matrix: (Units=GPa)
#
#
# Indices 1 2 3 4 5 6 
#
# 1 85.6526 18.5620 2.5533 0.0000 0.0000 0.0000
# 2 18.5620 159.9518 39.8014 0.0000 0.0000 0.0000
# 3 2.5533 39.8014 48.9737 0.0000 0.0000 0.0000
# 4 0.0000 0.0000 0.0000 46.5771 0.0000 0.0000
# 5 0.0000 0.0000 0.0000 0.0000 9.5437 0.0000
# 6 0.0000 0.0000 0.0000 0.0000 0.0000 227.3267
#
#
#
# Elastic Compliance Matrix: (Units=1/GPa)
#
#
# Indices 1 2 3 4 5 6 
#
# 1 0.011992 -0.001549 0.000634 0.000000 0.000000 0.000000
# 2 -0.001549 0.008037 -0.006451 0.000000 0.000000 0.000000
# 3 0.000634 -0.006451 0.025629 0.000000 0.000000 0.000000
# 4 0.000000 0.000000 0.000000 0.021470 0.000000 0.000000
# 5 0.000000 0.000000 0.000000 0.000000 0.104781 0.000000
# 6 0.000000 0.000000 0.000000 0.000000 0.000000 0.004399
#
#
# Mechanical properties :
#
#
# Convention : Reuss Voigt Hill
#
# Bulk Modulus (GPa) = 32.33628 46.26796 39.30212
# Shear Modulus (GPa) = 24.83256 72.26692 48.54974
#
# Velocity S-wave (km/s) = 3.22725 5.50544 4.51248
# Velocity P-wave (km/s) = 5.23920 7.73425 6.60560
#
# Compressibility (1/GPa) = 0.03092502
#
# Stress axis : x y z
#
# Youngs Moduli (GPa) = 83.38935 124.42641 39.01871
#
# Poissons Ratio (x) = 0.19279 -0.02474
# Poissons Ratio (y) = 0.12920 0.25170
# Poissons Ratio (z) = -0.05287 0.80266
#
# Static dielectric constant tensor:
#      x y z
#    x 1.984780 0.000000 0.000000 
#    y 0.000000 1.999290 0.000000 
#    z 0.000000 0.000000 1.945860 
# 
# From -- ./inp_files/14784.got.cif
#   From: 2010.05.17/outbox.cif.g08.bks.cpg/sg74_8_cif.got.tgz:14784.got - 2010.06.03 17:57:02.
