data_PCOD9539463
_publ_section_title
;
Structure prediction by ZEFSAII (Michael W. Deem and Ramdas Pophale) SiO2 
 PCOD9539463
Probable space group: I M M A
;
_chemical_formula_sum "Si O2"
_cell_formula_units_Z 96
_cell_length_a 8.640946
_cell_length_b 25.684704
_cell_length_c 23.994566
_cell_angle_alpha 90.000000
_cell_angle_beta 90.000000
_cell_angle_gamma 90.000000
_cell_volume 5325.357344
_symmetry_space_group_name_H-M "I M M A"
_symmetry_group_IT_number 74
_symmetry_cell_setting 'orthorhombic'
loop_
_space_group_symop_operation_xyz
x,y,z
-x,1/2-y,z
x,-y,-z
-x,1/2+y,-z
-x,-y,-z
x,1/2+y,-z
-x,y,z
x,1/2-y,z
1/2+x,1/2+y,1/2+z
1/2-x,-y,1/2+z
1/2+x,1/2-y,1/2-z
1/2-x,y,1/2-z
1/2-x,1/2-y,1/2-z
1/2+x,y,1/2-z
1/2-x,1/2+y,1/2+z
1/2+x,-y,1/2+z
loop_
_atom_site_type_symbol
_atom_site_label
_atom_site_fract_x
_atom_site_fract_y
_atom_site_fract_z
Si Si1 0.815035 0.310644 0.688306
Si Si2 0.813471 0.690281 0.810639
Si Si3 0.186176 0.903278 0.889972
Si Si4 0.183511 0.593760 0.124731
Si Si5 0.684771 0.505058 0.812077
Si Si6 0.184929 0.061450 0.506395
O O1 0.781295 0.250000 0.676173
O O2 0.750000 0.322001 0.750000
O O3 0.737489 0.349842 0.645284
O O4 0.000000 0.317683 0.688293
O O5 0.763563 0.750000 0.821239
O O6 0.750000 0.674502 0.750000
O O7 0.766609 0.649579 0.858046
O O8 0.000000 0.689678 0.807839
O O9 0.243524 0.951210 0.852221
O O10 0.000000 0.904755 0.894000
O O11 0.258409 0.909796 0.950863
O O12 0.266268 0.550706 0.163297
O O13 0.234061 0.582902 0.061534
O O14 0.000000 0.588071 0.130627
O O15 0.500000 0.509735 0.811932
O O16 0.750000 0.511234 0.750000
O O17 0.000000 0.066110 0.512331
O O18 0.221753 0.000000 0.500000
#
# Coordination Sequence:
#
# PCOD9539463 Si02
#       6
#    16  16  16  16  16  16
#     4  10  21  39  63  90 122 158 196 240 292 350
#     4   9  19  36  58  85 117 152 190 233 284 340
#     4  11  22  37  59  86 115 151 194 240 291 348
#     4  12  24  39  61  87 117 153 196 243 291 349
#     4  12  24  38  56  83 118 152 189 238 293 350
#     4  11  23  40  61  84 114 156 198 242 292 350
#
# _framework density 18.026959000000002
#
# number of rings (size 3 to 8) (size 9 to 14) (size 15 to 20)
#    0.000    1.167    1.667    5.500    0.000    4.333 
#    0.000    0.833    0.000    3.000    0.000    0.000 
#    0.000    0.000    0.000    0.000    0.000    0.000 
#
# Total GULP energy -268420.545602 kJ/mol
# GULP energy per Si atom -5592.094700 kJ/mol
# Density = 1.798593 g / cm^3
# Si number density = 18.026959 Si / 1000 Ang^3
#
#
#
# Elastic Constant Matrix: (Units=GPa)
#
#
# Indices 1 2 3 4 5 6 
#
# 1 44.9566 18.1153 7.5937 0.0000 0.0000 0.0000
# 2 18.1153 67.7483 24.3466 0.0000 0.0000 0.0000
# 3 7.5937 24.3466 63.5438 0.0000 0.0000 0.0000
# 4 0.0000 0.0000 0.0000 8.0357 0.0000 0.0000
# 5 0.0000 0.0000 0.0000 0.0000 36.1818 0.0000
# 6 0.0000 0.0000 0.0000 0.0000 0.0000 24.2015
#
#
#
# Elastic Compliance Matrix: (Units=1/GPa)
#
#
# Indices 1 2 3 4 5 6 
#
# 1 0.024943 -0.006492 -0.000493 0.000000 0.000000 0.000000
# 2 -0.006492 0.018807 -0.006430 0.000000 0.000000 0.000000
# 3 -0.000493 -0.006430 0.018260 0.000000 0.000000 0.000000
# 4 0.000000 0.000000 0.000000 0.124445 0.000000 0.000000
# 5 0.000000 0.000000 0.000000 0.000000 0.027638 0.000000
# 6 0.000000 0.000000 0.000000 0.000000 0.000000 0.041320
#
#
# Mechanical properties :
#
#
# Convention : Reuss Voigt Hill
#
# Bulk Modulus (GPa) = 28.42620 30.70665 29.56643
# Shear Modulus (GPa) = 17.00852 22.09667 19.55259
#
# Velocity S-wave (km/s) = 3.07498 3.50488 3.29695
# Velocity P-wave (km/s) = 5.33013 5.78356 5.56147
#
# Compressibility (1/GPa) = 0.03517881
#
# Stress axis : x y z
#
# Youngs Moduli (GPa) = 40.09127 53.17102 54.76518
#
# Poissons Ratio (x) = 0.34520 0.02702
# Poissons Ratio (y) = 0.26028 0.35214
# Poissons Ratio (z) = 0.01978 0.34189
#
# Static dielectric constant tensor:
#      x y z
#    x 1.603300 0.000000 0.000000 
#    y 0.000000 1.615600 0.000000 
#    z 0.000000 0.000000 1.580310 
# 
# From -- ./inp_files/57234.got.cif
#   From: 2010.05.17/outbox.cif.g08.bks.cpg/sg74_29_cif.got.tgz:57234.got - 2010.06.03 17:57:02.
