data_PCOD9539610
_publ_section_title
;
Structure prediction by ZEFSAII (Michael W. Deem and Ramdas Pophale) SiO2 
 PCOD9539610
Probable space group: I M M A
;
_chemical_formula_sum "Si O2"
_cell_formula_units_Z 88
_cell_length_a 23.703642
_cell_length_b 14.862872
_cell_length_c 12.025470
_cell_angle_alpha 90.000000
_cell_angle_beta 90.000000
_cell_angle_gamma 90.000000
_cell_volume 4236.623552
_symmetry_space_group_name_H-M "I M M A"
_symmetry_group_IT_number 74
_symmetry_cell_setting 'orthorhombic'
loop_
_space_group_symop_operation_xyz
x,y,z
-x,1/2-y,z
x,-y,-z
-x,1/2+y,-z
-x,-y,-z
x,1/2+y,-z
-x,y,z
x,1/2-y,z
1/2+x,1/2+y,1/2+z
1/2-x,-y,1/2+z
1/2+x,1/2-y,1/2-z
1/2-x,y,1/2-z
1/2-x,1/2-y,1/2-z
1/2+x,y,1/2-z
1/2-x,1/2+y,1/2+z
1/2+x,-y,1/2+z
loop_
_atom_site_type_symbol
_atom_site_label
_atom_site_fract_x
_atom_site_fract_y
_atom_site_fract_z
Si Si1 0.907213 0.250000 0.658700
Si Si2 0.857305 0.646574 0.971176
Si Si3 0.563440 0.407216 0.663593
Si Si4 0.239023 0.359327 0.378143
Si Si5 0.563724 0.888525 0.734478
Si Si6 0.616450 0.398283 0.033341
O O1 0.923855 0.328480 0.750178
O O2 0.892005 0.329082 0.566608
O O3 0.853531 0.750000 0.009970
O O4 0.794156 0.613972 0.947954
O O5 0.891722 0.645975 0.855726
O O6 0.891872 0.594310 0.064100
O O7 0.500000 0.395358 0.617330
O O8 0.565598 0.503380 0.722996
O O9 0.234834 0.250000 0.381016
O O10 0.250000 0.385264 0.250000
O O11 0.181512 0.398070 0.426542
O O12 0.500000 0.858982 0.709172
O O13 0.580958 0.866104 0.859674
O O14 0.600133 0.500000 0.000000
#
# Coordination Sequence:
#
# PCOD9539610 Si02
#       6
#     8  16  16  16  16  16
#     4  12  25  44  68  94 135 176 223 270 330 407
#     4  11  23  41  69 102 132 171 225 277 338 390
#     4  11  24  45  68  94 137 183 218 271 340 397
#     4  10  21  42  70  95 131 172 215 279 338 388
#     4  11  25  42  65  99 134 173 227 279 328 397
#     4  12  25  45  69  99 134 177 227 274 332 406
#
# _framework density 20.771258
#
# number of rings (size 3 to 8) (size 9 to 14) (size 15 to 20)
#    0.000    0.909    5.455    1.364    1.273    5.818 
#    0.000    1.818    0.000    0.000    0.000    0.000 
#    0.000    0.000    0.000    0.000    0.000    0.000 
#
# Total GULP energy -245065.269996 kJ/mol
# GULP energy per Si atom -5569.665227 kJ/mol
# Density = 2.072398 g / cm^3
# Si number density = 20.771258 Si / 1000 Ang^3
#
#
#
# Elastic Constant Matrix: (Units=GPa)
#
#
# Indices 1 2 3 4 5 6 
#
# 1 41.5615 -0.5392 13.4202 0.0000 0.0000 0.0000
# 2 -0.5392 99.2559 8.8113 0.0000 0.0000 0.0000
# 3 13.4202 8.8113 56.0545 0.0000 0.0000 0.0000
# 4 0.0000 0.0000 0.0000 27.7937 0.0000 0.0000
# 5 0.0000 0.0000 0.0000 0.0000 9.9435 0.0000
# 6 0.0000 0.0000 0.0000 0.0000 0.0000 -12.4242
#
#
#
# Elastic Compliance Matrix: (Units=1/GPa)
#
#
# Indices 1 2 3 4 5 6 
#
# 1 0.026125 0.000707 -0.006366 0.000000 0.000000 0.000000
# 2 0.000707 0.010237 -0.001778 0.000000 0.000000 0.000000
# 3 -0.006366 -0.001778 0.019643 0.000000 0.000000 0.000000
# 4 0.000000 0.000000 0.000000 0.035979 0.000000 0.000000
# 5 0.000000 0.000000 0.000000 0.000000 0.100568 0.000000
# 6 0.000000 0.000000 0.000000 0.000000 0.000000 -0.080488
#
#
# Mechanical properties :
#
#
# Convention : Reuss Voigt Hill
#
# Bulk Modulus (GPa) = 24.31253 26.69514 25.50384
# Shear Modulus (GPa) = 35.54925 16.74123 26.14524
#
# Velocity S-wave (km/s) = 4.14147 2.84206 3.55170
# Velocity P-wave (km/s) = 5.88212 4.86309 5.39671
#
# Compressibility (1/GPa) = 0.04113106
#
# Stress axis : x y z
#
# Youngs Moduli (GPa) = 38.27680 97.68786 50.90763
#
# Poissons Ratio (x) = -0.06907 0.32407
# Poissons Ratio (y) = -0.02706 0.09053
# Poissons Ratio (z) = 0.24367 0.17373
#
# Static dielectric constant tensor:
#      x y z
#    x 1.734110 0.000000 0.000000 
#    y 0.000000 1.740890 0.000000 
#    z 0.000000 0.000000 1.702570 
# 
# From -- ./inp_files/20673.got.cif
#   From: 2010.05.17/outbox.cif.g08.bks.cpg/sg74_11_cif.got.tgz:20673.got - 2010.06.03 17:57:02.
