data_PCOD9539568
_publ_section_title
;
Structure prediction by ZEFSAII (Michael W. Deem and Ramdas Pophale) SiO2 
 PCOD9539568
Probable space group: I M M A
;
_chemical_formula_sum "Si O2"
_cell_formula_units_Z 36
_cell_length_a 15.042059
_cell_length_b 17.950395
_cell_length_c 4.661208
_cell_angle_alpha 90.000000
_cell_angle_beta 90.000000
_cell_angle_gamma 90.000000
_cell_volume 1258.576970
_symmetry_space_group_name_H-M "I M M A"
_symmetry_group_IT_number 74
_symmetry_cell_setting 'orthorhombic'
loop_
_space_group_symop_operation_xyz
x,y,z
-x,1/2-y,z
x,-y,-z
-x,1/2+y,-z
-x,-y,-z
x,1/2+y,-z
-x,y,z
x,1/2-y,z
1/2+x,1/2+y,1/2+z
1/2-x,-y,1/2+z
1/2+x,1/2-y,1/2-z
1/2-x,y,1/2-z
1/2-x,1/2-y,1/2-z
1/2+x,y,1/2-z
1/2-x,1/2+y,1/2+z
1/2+x,-y,1/2+z
loop_
_atom_site_type_symbol
_atom_site_label
_atom_site_fract_x
_atom_site_fract_y
_atom_site_fract_z
Si Si1 0.500000 0.423771 0.310974
Si Si2 0.314311 0.406383 0.981627
Si Si3 0.000000 0.250000 0.094969
Si Si4 0.328513 0.250000 0.021740
O O1 0.500000 0.500000 0.500000
O O2 0.409923 0.427397 0.116565
O O3 0.500000 0.342806 0.484399
O O4 0.250000 0.396222 0.250000
O O5 0.332370 0.325214 0.842778
O O6 0.250000 0.447459 0.750000
O O7 0.085128 0.250000 0.289950
O O8 0.250000 0.250000 0.250000
#
# Coordination Sequence:
#
# PCOD9539568 Si02
#       4
#     8  16   4   8
#     4  10  22  44  76 118 165 217 276 343 417 502
#     4  10  21  40  68 107 153 204 260 326 403 488
#     4   8  16  34  66 112 162 210 268 334 410 496
#     4   8  15  31  60  99 149 201 251 313 395 485
#
# _framework density 28.603733999999999
#
# number of rings (size 3 to 8) (size 9 to 14) (size 15 to 20)
#    0.000    2.667    0.000    0.667    0.000    1.778 
#    0.000    8.889    0.000   16.000    0.000   10.889 
#    0.000    0.000    0.000    0.000    0.000    0.000 
#
# Total GULP energy -100244.903458 kJ/mol
# GULP energy per Si atom -5569.161303 kJ/mol
# Density = 2.853863 g / cm^3
# Si number density = 28.603734 Si / 1000 Ang^3
#
#
#
# Elastic Constant Matrix: (Units=GPa)
#
#
# Indices 1 2 3 4 5 6 
#
# 1 348.9325 18.9399 99.4797 0.0000 0.0000 0.0000
# 2 18.9399 294.7785 31.9903 0.0000 0.0000 0.0000
# 3 99.4797 31.9903 140.2526 0.0000 0.0000 0.0000
# 4 0.0000 0.0000 0.0000 22.8149 0.0000 0.0000
# 5 0.0000 0.0000 0.0000 0.0000 84.0468 0.0000
# 6 0.0000 0.0000 0.0000 0.0000 0.0000 34.1250
#
#
#
# Elastic Compliance Matrix: (Units=1/GPa)
#
#
# Indices 1 2 3 4 5 6 
#
# 1 0.003593 0.000047 -0.002559 0.000000 0.000000 0.000000
# 2 0.000047 0.003479 -0.000827 0.000000 0.000000 0.000000
# 3 -0.002559 -0.000827 0.009134 0.000000 0.000000 0.000000
# 4 0.000000 0.000000 0.000000 0.043831 0.000000 0.000000
# 5 0.000000 0.000000 0.000000 0.000000 0.011898 0.000000
# 6 0.000000 0.000000 0.000000 0.000000 0.000000 0.029304
#
#
# Mechanical properties :
#
#
# Convention : Reuss Voigt Hill
#
# Bulk Modulus (GPa) = 104.95742 120.53151 112.74446
# Shear Modulus (GPa) = 45.00737 70.43425 57.72081
#
# Velocity S-wave (km/s) = 3.97101 4.96766 4.49703
# Velocity P-wave (km/s) = 7.60253 8.66795 8.15266
#
# Compressibility (1/GPa) = 0.00952767
#
# Stress axis : x y z
#
# Youngs Moduli (GPa) = 278.32360 287.43124 109.48420
#
# Poissons Ratio (x) = -0.01347 0.28018
# Poissons Ratio (y) = -0.01305 0.09052
# Poissons Ratio (z) = 0.71227 0.23765
#
# Static dielectric constant tensor:
#      x y z
#    x 2.094360 0.000000 0.000000 
#    y 0.000000 2.591510 0.000000 
#    z 0.000000 0.000000 2.093400 
# 
# From -- ./inp_files/1100.got.cif
#   From: 2010.05.17/outbox.cif.g08.bks.cpg/sg74_1_cif.got.tgz:1100.got - 2010.06.03 17:57:02.
