data_PCOD9539360
_publ_section_title
;
Structure prediction by ZEFSAII (Michael W. Deem and Ramdas Pophale) SiO2 
 PCOD9539360
Probable space group: I M M A
;
_chemical_formula_sum "Si O2"
_cell_formula_units_Z 112
_cell_length_a 28.059766
_cell_length_b 28.965565
_cell_length_c 6.594395
_cell_angle_alpha 90.000000
_cell_angle_beta 90.000000
_cell_angle_gamma 90.000000
_cell_volume 5359.706482
_symmetry_space_group_name_H-M "I M M A"
_symmetry_group_IT_number 74
_symmetry_cell_setting 'orthorhombic'
loop_
_space_group_symop_operation_xyz
x,y,z
-x,1/2-y,z
x,-y,-z
-x,1/2+y,-z
-x,-y,-z
x,1/2+y,-z
-x,y,z
x,1/2-y,z
1/2+x,1/2+y,1/2+z
1/2-x,-y,1/2+z
1/2+x,1/2-y,1/2-z
1/2-x,y,1/2-z
1/2-x,1/2-y,1/2-z
1/2+x,y,1/2-z
1/2-x,1/2+y,1/2+z
1/2+x,-y,1/2+z
loop_
_atom_site_type_symbol
_atom_site_label
_atom_site_fract_x
_atom_site_fract_y
_atom_site_fract_z
Si Si1 0.556249 0.799769 0.008407
Si Si2 0.057392 0.611273 0.217868
Si Si3 0.792258 0.304507 0.085037
Si Si4 0.304734 0.964335 0.680260
Si Si5 0.129290 0.425820 0.512690
Si Si6 0.796780 0.608041 0.154386
Si Si7 0.606605 0.150519 0.319421
O O1 0.500000 0.796021 0.022393
O O2 0.578324 0.750000 0.060907
O O3 0.568068 0.841463 0.158403
O O4 0.569358 0.814349 0.781008
O O5 0.081496 0.569273 0.347930
O O6 0.000000 0.605643 0.196181
O O7 0.084350 0.622872 0.008545
O O8 0.790648 0.250000 0.040828
O O9 0.750000 0.314084 0.250000
O O10 0.845085 0.319938 0.155383
O O11 0.787312 0.338691 0.894393
O O12 0.250000 0.972263 0.750000
O O13 0.306020 0.915613 0.561769
O O14 0.317730 0.000000 0.500000
O O15 0.341009 0.961725 0.870339
O O16 0.164193 0.403569 0.679574
O O17 0.115909 0.387986 0.347797
O O18 0.750000 0.585835 0.250000
#
# Coordination Sequence:
#
# PCOD9539360 Si02
#       7
#    16  16  16  16  16  16  16
#     4   9  19  33  52  82 117 155 208 279 345 394
#     4  10  21  38  62  90 123 172 229 279 342 408
#     4  11  23  38  57  86 125 178 233 275 324 396
#     4  12  25  41  67 104 136 170 212 264 342 419
#     4  11  22  40  64  93 132 173 218 267 340 398
#     4  12  22  41  64  88 131 177 217 271 328 396
#     4  11  20  38  58  85 119 169 221 280 331 387
#
# _framework density 20.896666
#
# number of rings (size 3 to 8) (size 9 to 14) (size 15 to 20)
#    0.000    1.143    4.286    2.571    0.000    2.000 
#    0.000    2.143    0.000    0.429    0.000    4.000 
#    0.000    0.000    0.000    0.000    0.000    0.000 
#
# Total GULP energy -311958.120185 kJ/mol
# GULP energy per Si atom -5570.680718 kJ/mol
# Density = 2.084910 g / cm^3
# Si number density = 20.896666 Si / 1000 Ang^3
#
#
#
# Elastic Constant Matrix: (Units=GPa)
#
#
# Indices 1 2 3 4 5 6 
#
# 1 105.0691 24.0162 58.3101 0.0000 0.0000 0.0000
# 2 24.0162 68.3862 38.4087 0.0000 0.0000 0.0000
# 3 58.3101 38.4087 115.1466 0.0000 0.0000 0.0000
# 4 0.0000 0.0000 0.0000 677.5058 0.0000 0.0000
# 5 0.0000 0.0000 0.0000 0.0000 41.9113 0.0000
# 6 0.0000 0.0000 0.0000 0.0000 0.0000 4.6123
#
#
#
# Elastic Compliance Matrix: (Units=1/GPa)
#
#
# Indices 1 2 3 4 5 6 
#
# 1 0.013304 -0.001093 -0.006372 0.000000 0.000000 0.000000
# 2 -0.001093 0.018084 -0.005479 0.000000 0.000000 0.000000
# 3 -0.006372 -0.005479 0.013739 0.000000 0.000000 0.000000
# 4 0.000000 0.000000 0.000000 0.001476 0.000000 0.000000
# 5 0.000000 0.000000 0.000000 0.000000 0.023860 0.000000
# 6 0.000000 0.000000 0.000000 0.000000 0.000000 0.216810
#
#
# Mechanical properties :
#
#
# Convention : Reuss Voigt Hill
#
# Bulk Modulus (GPa) = 51.97913 58.89686 55.43800
# Shear Modulus (GPa) = 15.64587 155.99703 85.82145
#
# Velocity S-wave (km/s) = 2.73925 8.64949 6.41550
# Velocity P-wave (km/s) = 5.91042 11.31360 9.02581
#
# Compressibility (1/GPa) = 0.01923849
#
# Stress axis : x y z
#
# Youngs Moduli (GPa) = 75.16581 55.29848 72.78538
#
# Poissons Ratio (x) = 0.06044 0.46382
# Poissons Ratio (y) = 0.08216 0.39876
# Poissons Ratio (z) = 0.47899 0.30295
#
# Static dielectric constant tensor:
#      x y z
#    x 1.834530 0.000000 0.000000 
#    y 0.000000 1.873540 0.000000 
#    z 0.000000 0.000000 1.824960 
# 
# From -- ./inp_files/5326.got.cif
#   From: 2010.05.17/outbox.cif.g08.bks.cpg/sg74_3_cif.got.tgz:5326.got - 2010.06.03 17:57:02.
