data_PCOD9539160
_publ_section_title
;
Structure prediction by ZEFSAII (Michael W. Deem and Ramdas Pophale) SiO2 
 PCOD9539160
Probable space group: I M M A
;
_chemical_formula_sum "Si O2"
_cell_formula_units_Z 72
_cell_length_a 18.393970
_cell_length_b 7.846194
_cell_length_c 24.170108
_cell_angle_alpha 90.000000
_cell_angle_beta 90.000000
_cell_angle_gamma 90.000000
_cell_volume 3488.294208
_symmetry_space_group_name_H-M "I M M A"
_symmetry_group_IT_number 74
_symmetry_cell_setting 'orthorhombic'
loop_
_space_group_symop_operation_xyz
x,y,z
-x,1/2-y,z
x,-y,-z
-x,1/2+y,-z
-x,-y,-z
x,1/2+y,-z
-x,y,z
x,1/2-y,z
1/2+x,1/2+y,1/2+z
1/2-x,-y,1/2+z
1/2+x,1/2-y,1/2-z
1/2-x,y,1/2-z
1/2-x,1/2-y,1/2-z
1/2+x,y,1/2-z
1/2-x,1/2+y,1/2+z
1/2+x,-y,1/2+z
loop_
_atom_site_type_symbol
_atom_site_label
_atom_site_fract_x
_atom_site_fract_y
_atom_site_fract_z
Si Si1 0.500000 0.545094 0.936135
Si Si2 0.832683 0.048469 0.751438
Si Si3 0.918086 0.047700 0.139469
Si Si4 0.212129 0.544424 0.935548
Si Si5 0.142555 0.543343 0.627595
O O1 0.500000 0.750000 0.931130
O O2 0.426872 0.482589 0.906820
O O3 0.500000 0.500000 0.000000
O O4 0.828581 0.250000 0.761638
O O5 0.750000 0.978717 0.750000
O O6 0.881094 0.974559 0.800598
O O7 0.863375 0.014700 0.690669
O O8 0.923614 0.250000 0.129603
O O9 0.861106 0.978884 0.094126
O O10 0.000000 0.976439 0.137604
O O11 0.212084 0.750000 0.931477
O O12 0.282671 0.483757 0.901205
O O13 0.216639 0.500000 0.000000
O O14 0.143603 0.750000 0.627281
#
# Coordination Sequence:
#
# PCOD9539160 Si02
#       5
#     8  16  16  16  16
#     4  10  22  38  58  86 118 154 195 236 287 344
#     4  11  23  38  59  88 118 149 190 241 295 344
#     4  10  22  40  61  85 116 156 197 236 284 346
#     4  10  21  37  59  84 112 150 194 239 289 343
#     4  10  21  38  59  84 115 155 197 236 285 349
#
# _framework density 20.640459
#
# number of rings (size 3 to 8) (size 9 to 14) (size 15 to 20)
#    0.000    1.778    2.222    1.333    1.556    4.444 
#    0.000    0.000    0.000    0.000    0.000    0.000 
#    0.000    0.000    0.000    0.000    0.000    0.000 
#
# Total GULP energy -201158.653922 kJ/mol
# GULP energy per Si atom -5587.740387 kJ/mol
# Density = 2.059348 g / cm^3
# Si number density = 20.640459 Si / 1000 Ang^3
#
#
#
# Elastic Constant Matrix: (Units=GPa)
#
#
# Indices 1 2 3 4 5 6 
#
# 1 124.9761 10.6348 18.1584 0.0000 0.0000 0.0000
# 2 10.6348 21.1474 -14.2071 0.0000 0.0000 0.0000
# 3 18.1584 -14.2071 92.2712 0.0000 0.0000 0.0000
# 4 0.0000 0.0000 0.0000 28.9152 0.0000 0.0000
# 5 0.0000 0.0000 0.0000 0.0000 35.8221 0.0000
# 6 0.0000 0.0000 0.0000 0.0000 0.0000 6.0110
#
#
#
# Elastic Compliance Matrix: (Units=1/GPa)
#
#
# Indices 1 2 3 4 5 6 
#
# 1 0.008937 -0.006331 -0.002734 0.000000 0.000000 0.000000
# 2 -0.006331 0.057227 0.010057 0.000000 0.000000 0.000000
# 3 -0.002734 0.010057 0.012924 0.000000 0.000000 0.000000
# 4 0.000000 0.000000 0.000000 0.034584 0.000000 0.000000
# 5 0.000000 0.000000 0.000000 0.000000 0.027916 0.000000
# 6 0.000000 0.000000 0.000000 0.000000 0.000000 0.166362
#
#
# Mechanical properties :
#
#
# Convention : Reuss Voigt Hill
#
# Bulk Modulus (GPa) = 12.33439 29.72967 21.03203
# Shear Modulus (GPa) = 15.01545 29.07024 22.04284
#
# Velocity S-wave (km/s) = 2.70010 3.75695 3.27149
# Velocity P-wave (km/s) = 3.96353 5.76667 4.94793
#
# Compressibility (1/GPa) = 0.08107414
#
# Stress axis : x y z
#
# Youngs Moduli (GPa) = 111.88877 17.47415 77.37485
#
# Poissons Ratio (x) = 0.11063 0.21151
# Poissons Ratio (y) = 0.70837 -0.77818
# Poissons Ratio (z) = 0.30586 -0.17574
#
# Static dielectric constant tensor:
#      x y z
#    x 1.762790 0.000000 0.000000 
#    y 0.000000 1.748840 0.000000 
#    z 0.000000 0.000000 1.677610 
# 
# From -- ./inp_files/56658.got.cif
#   From: 2010.05.17/outbox.cif.g08.bks.cpg/sg74_29_cif.got.tgz:56658.got - 2010.06.03 17:57:02.
