data_PCOD9539543
_publ_section_title
;
Structure prediction by ZEFSAII (Michael W. Deem and Ramdas Pophale) SiO2 
 PCOD9539543
Probable space group: I M M A
;
_chemical_formula_sum "Si O2"
_cell_formula_units_Z 112
_cell_length_a 18.319731
_cell_length_b 21.332489
_cell_length_c 14.180569
_cell_angle_alpha 90.000000
_cell_angle_beta 90.000000
_cell_angle_gamma 90.000000
_cell_volume 5541.843792
_symmetry_space_group_name_H-M "I M M A"
_symmetry_group_IT_number 74
_symmetry_cell_setting 'orthorhombic'
loop_
_space_group_symop_operation_xyz
x,y,z
-x,1/2-y,z
x,-y,-z
-x,1/2+y,-z
-x,-y,-z
x,1/2+y,-z
-x,y,z
x,1/2-y,z
1/2+x,1/2+y,1/2+z
1/2-x,-y,1/2+z
1/2+x,1/2-y,1/2-z
1/2-x,y,1/2-z
1/2-x,1/2-y,1/2-z
1/2+x,y,1/2-z
1/2-x,1/2+y,1/2+z
1/2+x,-y,1/2+z
loop_
_atom_site_type_symbol
_atom_site_label
_atom_site_fract_x
_atom_site_fract_y
_atom_site_fract_z
Si Si1 0.668088 0.396481 0.705963
Si Si2 0.684230 0.088734 0.485647
Si Si3 0.419538 0.369009 0.194976
Si Si4 0.083036 0.016177 0.160154
Si Si5 0.912178 0.176967 0.641415
Si Si6 0.806131 0.818742 0.819121
Si Si7 0.144257 0.572161 0.507107
O O1 0.665080 0.392039 0.592219
O O2 0.623748 0.461421 0.717587
O O3 0.625964 0.341154 0.759678
O O4 0.617376 0.378132 0.927977
O O5 0.633018 0.040217 0.426942
O O6 0.681880 0.148094 0.416931
O O7 0.768154 0.067853 0.492542
O O8 0.500000 0.348626 0.166795
O O9 0.422909 0.425901 0.269098
O O10 0.377229 0.317429 0.254450
O O11 0.379417 0.395558 0.104130
O O12 0.000000 0.997966 0.131732
O O13 0.894791 0.250000 0.615175
O O14 0.000000 0.172101 0.646728
O O15 0.776152 0.750000 0.838374
O O16 0.750000 0.854855 0.750000
O O17 0.115798 0.500000 0.500000
O O18 0.250000 0.599128 0.250000
#
# Coordination Sequence:
#
# PCOD9539543 Si02
#       7
#    16  16  16  16  16  16  16
#     4  12  24  41  65  95 129 178 226 278 332 391
#     4  11  24  40  64 100 133 170 217 280 336 400
#     4  10  22  38  61  93 128 167 207 264 329 394
#     4  10  23  41  65  98 135 172 218 273 339 409
#     4  11  27  48  67  94 136 183 231 284 341 405
#     4  10  21  40  65  89 121 166 208 257 325 400
#     4  12  23  40  68 102 138 176 221 275 334 404
#
# _framework density 20.209880999999999
#
# number of rings (size 3 to 8) (size 9 to 14) (size 15 to 20)
#    0.000    1.143    2.857    3.000    2.000    6.286 
#    0.000    0.000    0.000    0.000    0.000    0.000 
#    0.000    0.000    0.000    0.000    0.000    0.000 
#
# Total GULP energy -312213.948685 kJ/mol
# GULP energy per Si atom -5575.249084 kJ/mol
# Density = 2.016388 g / cm^3
# Si number density = 20.209881 Si / 1000 Ang^3
#
#
#
# Elastic Constant Matrix: (Units=GPa)
#
#
# Indices 1 2 3 4 5 6 
#
# 1 112.9639 33.4271 19.6131 0.0000 0.0000 0.0000
# 2 33.4271 109.0729 32.0510 0.0000 0.0000 0.0000
# 3 19.6131 32.0510 98.0865 0.0000 0.0000 0.0000
# 4 0.0000 0.0000 0.0000 12.6871 0.0000 0.0000
# 5 0.0000 0.0000 0.0000 0.0000 17.0179 0.0000
# 6 0.0000 0.0000 0.0000 0.0000 0.0000 16.4068
#
#
#
# Elastic Compliance Matrix: (Units=1/GPa)
#
#
# Indices 1 2 3 4 5 6 
#
# 1 0.009839 -0.002696 -0.001086 0.000000 0.000000 0.000000
# 2 -0.002696 0.010881 -0.003016 0.000000 0.000000 0.000000
# 3 -0.001086 -0.003016 0.011398 0.000000 0.000000 0.000000
# 4 0.000000 0.000000 0.000000 0.078820 0.000000 0.000000
# 5 0.000000 0.000000 0.000000 0.000000 0.058762 0.000000
# 6 0.000000 0.000000 0.000000 0.000000 0.000000 0.060950
#
#
# Mechanical properties :
#
#
# Convention : Reuss Voigt Hill
#
# Bulk Modulus (GPa) = 53.99562 54.47840 54.23701
# Shear Modulus (GPa) = 19.96642 24.89117 22.42880
#
# Velocity S-wave (km/s) = 3.14658 3.51327 3.33497
# Velocity P-wave (km/s) = 6.32272 6.59335 6.45945
#
# Compressibility (1/GPa) = 0.01852002
#
# Stress axis : x y z
#
# Youngs Moduli (GPa) = 101.63855 91.90528 87.73516
#
# Poissons Ratio (x) = 0.24778 0.09531
# Poissons Ratio (y) = 0.27402 0.26464
# Poissons Ratio (z) = 0.11042 0.27722
#
# Static dielectric constant tensor:
#      x y z
#    x 1.761190 0.000000 0.000000 
#    y 0.000000 1.738170 0.000000 
#    z 0.000000 0.000000 1.723260 
# 
# From -- ./inp_files/24144.got.cif
#   From: 2010.05.17/outbox.cif.g08.bks.cpg/sg74_13_cif.got.tgz:24144.got - 2010.06.03 17:57:02.
