data_PCOD9539922
_publ_section_title
;
Structure prediction by ZEFSAII (Michael W. Deem and Ramdas Pophale) SiO2 
 PCOD9539922
Probable space group: I M M A
;
_chemical_formula_sum "Si O2"
_cell_formula_units_Z 56
_cell_length_a 31.544342
_cell_length_b 9.990498
_cell_length_c 9.867443
_cell_angle_alpha 90.000000
_cell_angle_beta 90.000000
_cell_angle_gamma 90.000000
_cell_volume 3109.662355
_symmetry_space_group_name_H-M "I M M A"
_symmetry_group_IT_number 74
_symmetry_cell_setting 'orthorhombic'
loop_
_space_group_symop_operation_xyz
x,y,z
-x,1/2-y,z
x,-y,-z
-x,1/2+y,-z
-x,-y,-z
x,1/2+y,-z
-x,y,z
x,1/2-y,z
1/2+x,1/2+y,1/2+z
1/2-x,-y,1/2+z
1/2+x,1/2-y,1/2-z
1/2-x,y,1/2-z
1/2-x,1/2-y,1/2-z
1/2+x,y,1/2-z
1/2-x,1/2+y,1/2+z
1/2+x,-y,1/2+z
loop_
_atom_site_type_symbol
_atom_site_label
_atom_site_fract_x
_atom_site_fract_y
_atom_site_fract_z
Si Si1 0.500000 0.407699 0.867708
Si Si2 0.592169 0.911776 0.248490
Si Si3 0.304304 0.750000 0.399679
Si Si4 0.141333 0.000000 0.000000
Si Si5 0.348830 0.000000 0.000000
Si Si6 0.295906 0.250000 0.929879
O O1 0.500000 0.250000 0.906620
O O2 0.457169 0.432749 0.783825
O O3 0.500000 0.500000 0.000000
O O4 0.597838 0.750000 0.269753
O O5 0.620151 0.962054 0.122666
O O6 0.609844 0.998304 0.372373
O O7 0.327943 0.876748 0.464675
O O8 0.306426 0.750000 0.233553
O O9 0.254756 0.750000 0.436486
O O10 0.317180 0.124930 0.004598
#
# Coordination Sequence:
#
# PCOD9539922 Si02
#       6
#     8  16   8   8   8   8
#     4  10  22  41  66  96 128 160 208 263 310 366
#     4  11  23  42  65  93 131 163 203 261 317 369
#     4  11  24  43  61  90 129 165 206 268 307 373
#     4  12  21  45  64  88 130 170 204 253 321 372
#     4  12  19  41  64  90 124 162 206 257 311 376
#     4  11  24  41  63  92 125 163 212 260 319 359
#
# _framework density 18.008386999999999
#
# number of rings (size 3 to 8) (size 9 to 14) (size 15 to 20)
#    0.000    0.857    7.143    0.857    0.000    1.714 
#    2.571    1.429    0.000    0.000    0.000    0.000 
#    0.000    0.000    0.000    0.000    0.000    0.000 
#
# Total GULP energy -156101.817286 kJ/mol
# GULP energy per Si atom -5575.064903 kJ/mol
# Density = 1.796740 g / cm^3
# Si number density = 18.008387 Si / 1000 Ang^3
#
#
#
# Elastic Constant Matrix: (Units=GPa)
#
#
# Indices 1 2 3 4 5 6 
#
# 1 178.6798 51.5937 33.9843 0.0000 0.0000 0.0000
# 2 51.5937 113.0164 24.2212 0.0000 0.0000 0.0000
# 3 33.9843 24.2212 62.4404 0.0000 0.0000 0.0000
# 4 0.0000 0.0000 0.0000 24.0160 0.0000 0.0000
# 5 0.0000 0.0000 0.0000 0.0000 31.6390 0.0000
# 6 0.0000 0.0000 0.0000 0.0000 0.0000 47.6447
#
#
#
# Elastic Compliance Matrix: (Units=1/GPa)
#
#
# Indices 1 2 3 4 5 6 
#
# 1 0.006852 -0.002540 -0.002744 0.000000 0.000000 0.000000
# 2 -0.002540 0.010592 -0.002726 0.000000 0.000000 0.000000
# 3 -0.002744 -0.002726 0.018566 0.000000 0.000000 0.000000
# 4 0.000000 0.000000 0.000000 0.041639 0.000000 0.000000
# 5 0.000000 0.000000 0.000000 0.000000 0.031607 0.000000
# 6 0.000000 0.000000 0.000000 0.000000 0.000000 0.020989
#
#
# Mechanical properties :
#
#
# Convention : Reuss Voigt Hill
#
# Bulk Modulus (GPa) = 50.02569 63.74833 56.88701
# Shear Modulus (GPa) = 32.69506 36.94910 34.82208
#
# Velocity S-wave (km/s) = 4.26555 4.53456 4.40211
# Velocity P-wave (km/s) = 7.21798 7.93048 7.58260
#
# Compressibility (1/GPa) = 0.01998973
#
# Stress axis : x y z
#
# Youngs Moduli (GPa) = 145.94483 94.41012 53.86090
#
# Poissons Ratio (x) = 0.23979 0.14780
# Poissons Ratio (y) = 0.37069 0.14684
# Poissons Ratio (z) = 0.40047 0.25740
#
# Static dielectric constant tensor:
#      x y z
#    x 1.619750 0.000000 0.000000 
#    y 0.000000 1.179790 0.000000 
#    z 0.000000 0.000000 1.689910 
# 
# From -- ./inp_files/26731.got.cif
#   From: 2010.05.17/outbox.cif.g08.bks.cpg/sg74_14_cif.got.tgz:26731.got - 2010.06.03 17:57:02.
