data_PCOD9539155
_publ_section_title
;
Structure prediction by ZEFSAII (Michael W. Deem and Ramdas Pophale) SiO2 
 PCOD9539155
Probable space group: I M M A
;
_chemical_formula_sum "Si O2"
_cell_formula_units_Z 112
_cell_length_a 23.955291
_cell_length_b 15.593231
_cell_length_c 14.389126
_cell_angle_alpha 90.000000
_cell_angle_beta 90.000000
_cell_angle_gamma 90.000000
_cell_volume 5374.919684
_symmetry_space_group_name_H-M "I M M A"
_symmetry_group_IT_number 74
_symmetry_cell_setting 'orthorhombic'
loop_
_space_group_symop_operation_xyz
x,y,z
-x,1/2-y,z
x,-y,-z
-x,1/2+y,-z
-x,-y,-z
x,1/2+y,-z
-x,y,z
x,1/2-y,z
1/2+x,1/2+y,1/2+z
1/2-x,-y,1/2+z
1/2+x,1/2-y,1/2-z
1/2-x,y,1/2-z
1/2-x,1/2-y,1/2-z
1/2+x,y,1/2-z
1/2-x,1/2+y,1/2+z
1/2+x,-y,1/2+z
loop_
_atom_site_type_symbol
_atom_site_label
_atom_site_fract_x
_atom_site_fract_y
_atom_site_fract_z
Si Si1 0.934664 0.347174 0.001894
Si Si2 0.357023 0.466443 0.376147
Si Si3 0.063257 0.030226 0.304025
Si Si4 0.852725 0.843682 0.153970
Si Si5 0.859078 0.405467 0.460240
Si Si6 0.402975 0.843053 0.150367
Si Si7 0.753112 0.654585 0.861537
O O1 0.923378 0.250000 0.039312
O O2 0.900531 0.421423 0.053248
O O3 0.000000 0.363292 0.007870
O O4 0.913868 0.344688 0.895133
O O5 0.392284 0.462691 0.279932
O O6 0.332631 0.563841 0.381343
O O7 0.303042 0.408149 0.384505
O O8 0.088950 0.083767 0.389616
O O9 0.000000 0.055902 0.279021
O O10 0.062883 0.930352 0.335129
O O11 0.827585 0.750000 0.128059
O O12 0.858574 0.845942 0.264746
O O13 0.846392 0.500000 0.500000
O O14 0.874841 0.350098 0.549791
O O15 0.805740 0.371955 0.404939
O O16 0.431261 0.750000 0.158818
O O17 0.767220 0.750000 0.894093
O O18 0.750000 0.654748 0.750000
#
# Coordination Sequence:
#
# PCOD9539155 Si02
#       7
#    16  16  16  16  16  16  16
#     4  10  21  37  58  89 129 169 212 260 312 372
#     4  11  21  38  64  90 122 163 210 260 319 373
#     4  10  21  37  58  88 124 160 203 252 308 375
#     4   9  20  37  59  87 121 161 204 252 302 367
#     4  10  21  39  64  92 124 163 203 257 314 373
#     4   9  19  36  59  86 118 156 201 249 302 363
#     4  11  23  41  67  93 121 161 212 264 316 378
#
# _framework density 20.837522
#
# number of rings (size 3 to 8) (size 9 to 14) (size 15 to 20)
#    0.000    2.000    1.429    1.714    0.000    7.429 
#    0.000    2.857    0.000    7.714    0.000    0.000 
#    0.000    0.000    0.000    0.000    0.000    0.000 
#
# Total GULP energy -312085.485778 kJ/mol
# GULP energy per Si atom -5572.955103 kJ/mol
# Density = 2.079009 g / cm^3
# Si number density = 20.837522 Si / 1000 Ang^3
#
#
#
# Elastic Constant Matrix: (Units=GPa)
#
#
# Indices 1 2 3 4 5 6 
#
# 1 64.1478 28.1944 0.2655 0.0000 0.0000 0.0000
# 2 28.1944 129.0607 8.7376 0.0000 0.0000 0.0000
# 3 0.2655 8.7376 90.6211 0.0000 0.0000 0.0000
# 4 0.0000 0.0000 0.0000 27.1090 0.0000 0.0000
# 5 0.0000 0.0000 0.0000 0.0000 12.0070 0.0000
# 6 0.0000 0.0000 0.0000 0.0000 0.0000 2.0480
#
#
#
# Elastic Compliance Matrix: (Units=1/GPa)
#
#
# Indices 1 2 3 4 5 6 
#
# 1 0.017254 -0.003791 0.000315 0.000000 0.000000 0.000000
# 2 -0.003791 0.008632 -0.000821 0.000000 0.000000 0.000000
# 3 0.000315 -0.000821 0.011113 0.000000 0.000000 0.000000
# 4 0.000000 0.000000 0.000000 0.036888 0.000000 0.000000
# 5 0.000000 0.000000 0.000000 0.000000 0.083285 0.000000
# 6 0.000000 0.000000 0.000000 0.000000 0.000000 0.488290
#
#
# Mechanical properties :
#
#
# Convention : Reuss Voigt Hill
#
# Bulk Modulus (GPa) = 35.20467 39.80273 37.50370
# Shear Modulus (GPa) = 7.53553 24.67494 16.10523
#
# Velocity S-wave (km/s) = 1.90373 3.44489 2.78312
# Velocity P-wave (km/s) = 4.66516 5.91321 5.32587
#
# Compressibility (1/GPa) = 0.02840532
#
# Stress axis : x y z
#
# Youngs Moduli (GPa) = 57.95847 115.84853 89.98300
#
# Poissons Ratio (x) = 0.43913 -0.02834
# Poissons Ratio (y) = 0.21969 0.07389
# Poissons Ratio (z) = -0.01825 0.09513
#
# Static dielectric constant tensor:
#      x y z
#    x 1.692840 0.000000 0.000000 
#    y 0.000000 1.794130 0.000000 
#    z 0.000000 0.000000 1.775100 
# 
# From -- ./inp_files/32724.got.cif
#   From: 2010.05.17/outbox.cif.g08.bks.cpg/sg74_17_cif.got.tgz:32724.got - 2010.06.03 17:57:02.
