data_PCOD9539596
_publ_section_title
;
Structure prediction by ZEFSAII (Michael W. Deem and Ramdas Pophale) SiO2 
 PCOD9539596
Probable space group: I M M A
;
_chemical_formula_sum "Si O2"
_cell_formula_units_Z 112
_cell_length_a 28.740327
_cell_length_b 15.593003
_cell_length_c 12.091144
_cell_angle_alpha 90.000000
_cell_angle_beta 90.000000
_cell_angle_gamma 90.000000
_cell_volume 5418.622063
_symmetry_space_group_name_H-M "I M M A"
_symmetry_group_IT_number 74
_symmetry_cell_setting 'orthorhombic'
loop_
_space_group_symop_operation_xyz
x,y,z
-x,1/2-y,z
x,-y,-z
-x,1/2+y,-z
-x,-y,-z
x,1/2+y,-z
-x,y,z
x,1/2-y,z
1/2+x,1/2+y,1/2+z
1/2-x,-y,1/2+z
1/2+x,1/2-y,1/2-z
1/2-x,y,1/2-z
1/2-x,1/2-y,1/2-z
1/2+x,y,1/2-z
1/2-x,1/2+y,1/2+z
1/2+x,-y,1/2+z
loop_
_atom_site_type_symbol
_atom_site_label
_atom_site_fract_x
_atom_site_fract_y
_atom_site_fract_z
Si Si1 0.301823 0.424720 0.856633
Si Si2 0.205931 0.653239 0.137079
Si Si3 0.870280 0.852826 0.519053
Si Si4 0.628883 0.438407 0.247509
Si Si5 0.120673 0.850637 0.973850
Si Si6 0.550106 0.150017 0.856763
Si Si7 0.054326 0.937164 0.137654
O O1 0.246306 0.418074 0.872764
O O2 0.310381 0.350933 0.764293
O O3 0.327918 0.504125 0.797431
O O4 0.324411 0.398955 0.972541
O O5 0.223118 0.750000 0.112656
O O6 0.162622 0.635086 0.059504
O O7 0.864932 0.750000 0.514678
O O8 0.883958 0.882019 0.641172
O O9 0.908644 0.885003 0.430904
O O10 0.638705 0.380287 0.354354
O O11 0.586244 0.495307 0.295008
O O12 0.108702 0.750000 0.971897
O O13 0.078040 0.905877 0.024091
O O14 0.500000 0.109675 0.883213
O O15 0.548319 0.250000 0.884316
O O16 0.556557 0.140845 0.725875
O O17 0.000000 0.961238 0.124945
#
# Coordination Sequence:
#
# PCOD9539596 Si02
#       7
#    16  16  16  16  16  16  16
#     4  11  21  39  65  95 126 157 211 264 311 373
#     4  10  21  41  69  97 123 162 211 263 320 375
#     4  11  22  40  62  88 128 173 214 259 312 380
#     4  12  25  41  59  98 133 168 211 256 323 377
#     4  11  24  45  67  90 129 172 212 258 314 383
#     4   9  18  34  60  91 119 156 210 263 312 368
#     4  11  23  41  67  95 126 162 211 269 320 370
#
# _framework density 20.669460999999998
#
# number of rings (size 3 to 8) (size 9 to 14) (size 15 to 20)
#    0.000    1.286    2.857    3.429    0.000    4.857 
#   10.286    1.429    0.000    5.143    0.000    0.000 
#    0.000    0.000    0.000    0.000    0.000    0.000 
#
# Total GULP energy -312341.662971 kJ/mol
# GULP energy per Si atom -5577.529696 kJ/mol
# Density = 2.062242 g / cm^3
# Si number density = 20.669461 Si / 1000 Ang^3
#
#
#
# Elastic Constant Matrix: (Units=GPa)
#
#
# Indices 1 2 3 4 5 6 
#
# 1 74.5956 32.9355 25.3282 0.0000 0.0000 0.0000
# 2 32.9355 65.0435 18.7964 0.0000 0.0000 0.0000
# 3 25.3282 18.7964 115.1574 0.0000 0.0000 0.0000
# 4 0.0000 0.0000 0.0000 33.7068 0.0000 0.0000
# 5 0.0000 0.0000 0.0000 0.0000 2.5415 0.0000
# 6 0.0000 0.0000 0.0000 0.0000 0.0000 11.9763
#
#
#
# Elastic Compliance Matrix: (Units=1/GPa)
#
#
# Indices 1 2 3 4 5 6 
#
# 1 0.017973 -0.008352 -0.002590 0.000000 0.000000 0.000000
# 2 -0.008352 0.020017 -0.001430 0.000000 0.000000 0.000000
# 3 -0.002590 -0.001430 0.009487 0.000000 0.000000 0.000000
# 4 0.000000 0.000000 0.000000 0.029668 0.000000 0.000000
# 5 0.000000 0.000000 0.000000 0.000000 0.393462 0.000000
# 6 0.000000 0.000000 0.000000 0.000000 0.000000 0.083499
#
#
# Mechanical properties :
#
#
# Convention : Reuss Voigt Hill
#
# Bulk Modulus (GPa) = 43.99085 45.43520 44.71303
# Shear Modulus (GPa) = 8.52622 21.49401 15.01012
#
# Velocity S-wave (km/s) = 2.03322 3.22823 2.69773
# Velocity P-wave (km/s) = 5.18085 5.99373 5.60206
#
# Compressibility (1/GPa) = 0.02273200
#
# Stress axis : x y z
#
# Youngs Moduli (GPa) = 55.64024 49.95781 105.40970
#
# Poissons Ratio (x) = 0.41726 0.27298
# Poissons Ratio (y) = 0.46472 0.15076
# Poissons Ratio (z) = 0.14409 0.07145
#
# Static dielectric constant tensor:
#      x y z
#    x 1.804590 0.000000 0.000000 
#    y 0.000000 1.773440 0.000000 
#    z 0.000000 0.000000 1.741470 
# 
# From -- ./inp_files/27209.got.cif
#   From: 2010.05.17/outbox.cif.g08.bks.cpg/sg74_14_cif.got.tgz:27209.got - 2010.06.03 17:57:02.
