data_PCOD9539800
_publ_section_title
;
Structure prediction by ZEFSAII (Michael W. Deem and Ramdas Pophale) SiO2 
 PCOD9539800
Probable space group: I M M A
;
_chemical_formula_sum "Si O2"
_cell_formula_units_Z 68
_cell_length_a 14.684171
_cell_length_b 24.786113
_cell_length_c 8.095374
_cell_angle_alpha 90.000000
_cell_angle_beta 90.000000
_cell_angle_gamma 90.000000
_cell_volume 2946.420831
_symmetry_space_group_name_H-M "I M M A"
_symmetry_group_IT_number 74
_symmetry_cell_setting 'orthorhombic'
loop_
_space_group_symop_operation_xyz
x,y,z
-x,1/2-y,z
x,-y,-z
-x,1/2+y,-z
-x,-y,-z
x,1/2+y,-z
-x,y,z
x,1/2-y,z
1/2+x,1/2+y,1/2+z
1/2-x,-y,1/2+z
1/2+x,1/2-y,1/2-z
1/2-x,y,1/2-z
1/2-x,1/2-y,1/2-z
1/2+x,y,1/2-z
1/2-x,1/2+y,1/2+z
1/2+x,-y,1/2+z
loop_
_atom_site_type_symbol
_atom_site_label
_atom_site_fract_x
_atom_site_fract_y
_atom_site_fract_z
Si Si1 0.500000 0.483795 0.804933
Si Si2 0.500000 0.849266 0.661098
Si Si3 0.182783 0.364216 0.605411
Si Si4 0.854278 0.568946 0.707618
Si Si5 0.500000 0.858554 0.285817
Si Si6 0.799876 0.750000 0.431325
Si Si7 0.000000 0.750000 0.587460
O O1 0.591038 0.514931 0.750915
O O2 0.500000 0.423905 0.733604
O O3 0.500000 0.500000 0.000000
O O4 0.410993 0.885327 0.697323
O O5 0.500000 0.835753 0.469333
O O6 0.500000 0.801371 0.791452
O O7 0.250000 0.383527 0.750000
O O8 0.148567 0.410446 0.482336
O O9 0.092776 0.342430 0.696705
O O10 0.225993 0.311654 0.512808
O O11 0.750000 0.564204 0.750000
O O12 0.750000 0.750000 0.250000
O O13 0.906693 0.750000 0.484247
#
# Coordination Sequence:
#
# PCOD9539800 Si02
#       7
#     8   8  16  16   8   8   4
#     4  11  23  46  70  97 137 178 236 300 363 426
#     4  11  25  42  68 103 140 192 237 297 359 439
#     4  11  22  40  67  98 138 180 233 294 355 434
#     4  11  23  44  67 101 138 181 237 295 370 427
#     4  12  24  44  65  97 136 177 240 295 361 442
#     4  10  22  39  70 107 137 187 245 290 356 431
#     4  12  20  44  74 104 154 202 234 308 372 422
#
# _framework density 23.078849000000002
#
# number of rings (size 3 to 8) (size 9 to 14) (size 15 to 20)
#    0.000    0.941    4.706    2.824    0.000    3.765 
#    4.235    4.706    0.000    0.000    0.000    0.000 
#    0.000    0.000    0.000    0.000    0.000    0.000 
#
# Total GULP energy -189671.446092 kJ/mol
# GULP energy per Si atom -5578.571944 kJ/mol
# Density = 2.302632 g / cm^3
# Si number density = 23.078849 Si / 1000 Ang^3
#
#
#
# Elastic Constant Matrix: (Units=GPa)
#
#
# Indices 1 2 3 4 5 6 
#
# 1 129.1579 5.9060 33.3907 -0.0014 -0.0008 -0.0005
# 2 5.9060 117.7355 6.4055 -0.0014 -0.0009 -0.0006
# 3 33.3907 6.4055 84.4646 -0.0083 -0.0038 -0.0014
# 4 -0.0014 -0.0014 -0.0083 -13.5045 -0.0035 -0.0019
# 5 -0.0008 -0.0009 -0.0038 -0.0035 50.4366 0.0005
# 6 -0.0005 -0.0006 -0.0014 -0.0019 0.0005 -35.2389
#
#
#
# Elastic Compliance Matrix: (Units=1/GPa)
#
#
# Indices 1 2 3 4 5 6 
#
# 1 0.008631 -0.000248 -0.003393 0.000001 0.000000 0.000000
# 2 -0.000248 0.008536 -0.000549 -0.000001 0.000000 0.000000
# 3 -0.003393 -0.000549 0.013222 -0.000008 0.000001 0.000000
# 4 0.000001 -0.000001 -0.000008 -0.074050 -0.000005 0.000004
# 5 0.000000 0.000000 0.000001 -0.000005 0.019827 0.000000
# 6 0.000000 0.000000 0.000000 0.000004 0.000000 -0.028378
#
#
# Mechanical properties :
#
#
# Convention : Reuss Voigt Hill
#
# Bulk Modulus (GPa) = 45.43824 46.97360 46.20592
# Shear Modulus (GPa) = -137.01016 19.38236 -58.81390
#
# Velocity S-wave (km/s) = -7.71330 2.90113 -5.05363
# Velocity P-wave (km/s) = 7.71982 5.62315 3.74004
#
# Compressibility (1/GPa) = 0.02200790
#
# Stress axis : x y z
#
# Youngs Moduli (GPa) = 115.86068 117.15153 75.62958
#
# Poissons Ratio (x) = 0.02909 0.25663
# Poissons Ratio (y) = 0.02877 0.04153
# Poissons Ratio (z) = 0.39314 0.06434
#
# Static dielectric constant tensor:
#      x y z
#    x 1.880040 0.000000 0.000000 
#    y 0.000000 1.911590 0.000000 
#    z 0.000000 0.000000 1.911350 
# 
# From -- ./inp_files/9107.got.cif
#   From: 2010.05.17/outbox.cif.g08.bks.cpg/sg74_5_cif.got.tgz:9107.got - 2010.06.03 17:57:02.
