data_PCOD9539593
_publ_section_title
;
Structure prediction by ZEFSAII (Michael W. Deem and Ramdas Pophale) SiO2 
 PCOD9539593
Probable space group: I M M A
;
_chemical_formula_sum "Si O2"
_cell_formula_units_Z 96
_cell_length_a 15.467170
_cell_length_b 13.547337
_cell_length_c 21.615400
_cell_angle_alpha 90.000000
_cell_angle_beta 90.000000
_cell_angle_gamma 90.000000
_cell_volume 4529.268532
_symmetry_space_group_name_H-M "I M M A"
_symmetry_group_IT_number 74
_symmetry_cell_setting 'orthorhombic'
loop_
_space_group_symop_operation_xyz
x,y,z
-x,1/2-y,z
x,-y,-z
-x,1/2+y,-z
-x,-y,-z
x,1/2+y,-z
-x,y,z
x,1/2-y,z
1/2+x,1/2+y,1/2+z
1/2-x,-y,1/2+z
1/2+x,1/2-y,1/2-z
1/2-x,y,1/2-z
1/2-x,1/2-y,1/2-z
1/2+x,y,1/2-z
1/2-x,1/2+y,1/2+z
1/2+x,-y,1/2+z
loop_
_atom_site_type_symbol
_atom_site_label
_atom_site_fract_x
_atom_site_fract_y
_atom_site_fract_z
Si Si1 0.663110 0.639748 0.422368
Si Si2 0.353990 0.137515 0.252918
Si Si3 0.901505 0.536773 0.629708
Si Si4 0.741576 0.136189 0.051009
Si Si5 0.405926 0.939125 0.621566
Si Si6 0.699985 0.138671 0.811593
O O1 0.624722 0.750000 0.430224
O O2 0.720859 0.617679 0.482787
O O3 0.601284 0.548608 0.407242
O O4 0.727980 0.642945 0.364724
O O5 0.374244 0.250000 0.271438
O O6 0.250000 0.127621 0.250000
O O7 0.390153 0.115658 0.185075
O O8 0.393050 0.065174 0.304541
O O9 0.834792 0.567255 0.575999
O O10 0.871184 0.435889 0.662943
O O11 0.000000 0.531995 0.608599
O O12 0.712870 0.250000 0.054111
O O13 0.824391 0.119792 0.094983
O O14 0.500000 0.897334 0.605834
O O15 0.667097 0.250000 0.800147
O O16 0.750000 0.104675 0.750000
#
# Coordination Sequence:
#
# PCOD9539593 Si02
#       6
#    16  16  16  16  16  16
#     4  10  22  42  67  90 125 173 216 265 327 392
#     4  11  22  40  65  93 132 177 217 265 325 390
#     4  12  24  39  66  99 133 176 222 273 331 389
#     4  11  24  42  63  91 133 177 218 267 325 397
#     4  12  24  39  65  97 130 169 216 272 330 388
#     4  10  21  41  68  94 125 169 220 274 332 392
#
# _framework density 21.195474999999998
#
# number of rings (size 3 to 8) (size 9 to 14) (size 15 to 20)
#    0.000    1.000    3.333    3.500    0.000    5.333 
#    0.000    3.333    0.000    8.000    0.000    0.000 
#    0.000    0.000    0.000    0.000    0.000    0.000 
#
# Total GULP energy -268349.149619 kJ/mol
# GULP energy per Si atom -5590.607284 kJ/mol
# Density = 2.114723 g / cm^3
# Si number density = 21.195475 Si / 1000 Ang^3
#
#
#
# Elastic Constant Matrix: (Units=GPa)
#
#
# Indices 1 2 3 4 5 6 
#
# 1 113.8487 22.3994 8.2472 0.0000 0.0000 0.0000
# 2 22.3994 111.5385 8.0179 0.0000 0.0000 0.0000
# 3 8.2472 8.0179 93.1555 0.0000 0.0000 0.0000
# 4 0.0000 0.0000 0.0000 34.8972 0.0000 0.0000
# 5 0.0000 0.0000 0.0000 0.0000 6.9697 0.0000
# 6 0.0000 0.0000 0.0000 0.0000 0.0000 -14.2529
#
#
#
# Elastic Compliance Matrix: (Units=1/GPa)
#
#
# Indices 1 2 3 4 5 6 
#
# 1 0.009185 -0.001797 -0.000658 0.000000 0.000000 0.000000
# 2 -0.001797 0.009373 -0.000648 0.000000 0.000000 0.000000
# 3 -0.000658 -0.000648 0.010849 0.000000 0.000000 0.000000
# 4 0.000000 0.000000 0.000000 0.028656 0.000000 0.000000
# 5 0.000000 0.000000 0.000000 0.000000 0.143478 0.000000
# 6 0.000000 0.000000 0.000000 0.000000 0.000000 -0.070161
#
#
# Mechanical properties :
#
#
# Convention : Reuss Voigt Hill
#
# Bulk Modulus (GPa) = 43.10333 43.98575 43.54454
# Shear Modulus (GPa) = 34.40706 24.18135 29.29421
#
# Velocity S-wave (km/s) = 4.03342 3.38135 3.72169
# Velocity P-wave (km/s) = 6.48626 6.00351 6.24955
#
# Compressibility (1/GPa) = 0.02320007
#
# Stress axis : x y z
#
# Youngs Moduli (GPa) = 108.87457 106.68960 92.17634
#
# Poissons Ratio (x) = 0.19174 0.06070
# Poissons Ratio (y) = 0.19567 0.05970
# Poissons Ratio (z) = 0.07169 0.06909
#
# Static dielectric constant tensor:
#      x y z
#    x 1.725080 0.000000 0.000000 
#    y 0.000000 1.836210 0.000000 
#    z 0.000000 0.000000 1.770560 
# 
# From -- ./inp_files/51831.got.cif
#   From: 2010.05.17/outbox.cif.g08.bks.cpg/sg74_26_cif.got.tgz:51831.got - 2010.06.03 17:57:02.
