data_PCOD9539180
_publ_section_title
;
Structure prediction by ZEFSAII (Michael W. Deem and Ramdas Pophale) SiO2 
 PCOD9539180
Probable space group: I M M A
;
_chemical_formula_sum "Si O2"
_cell_formula_units_Z 64
_cell_length_a 21.183313
_cell_length_b 17.229830
_cell_length_c 7.449888
_cell_angle_alpha 90.000000
_cell_angle_beta 90.000000
_cell_angle_gamma 90.000000
_cell_volume 2719.096491
_symmetry_space_group_name_H-M "I M M A"
_symmetry_group_IT_number 74
_symmetry_cell_setting 'orthorhombic'
loop_
_space_group_symop_operation_xyz
x,y,z
-x,1/2-y,z
x,-y,-z
-x,1/2+y,-z
-x,-y,-z
x,1/2+y,-z
-x,y,z
x,1/2-y,z
1/2+x,1/2+y,1/2+z
1/2-x,-y,1/2+z
1/2+x,1/2-y,1/2-z
1/2-x,y,1/2-z
1/2-x,1/2-y,1/2-z
1/2+x,y,1/2-z
1/2-x,1/2+y,1/2+z
1/2+x,-y,1/2+z
loop_
_atom_site_type_symbol
_atom_site_label
_atom_site_fract_x
_atom_site_fract_y
_atom_site_fract_z
Si Si1 0.807878 0.934860 0.630570
Si Si2 0.927298 0.333929 0.044223
Si Si3 0.072543 0.036957 0.766725
Si Si4 0.408485 0.336305 0.028745
O O1 0.750000 0.910882 0.750000
O O2 0.869849 0.979048 0.715994
O O3 0.835023 0.140996 0.465604
O O4 0.781285 0.000000 0.500000
O O5 0.896842 0.250000 0.999422
O O6 0.927444 0.338589 0.260927
O O7 0.000000 0.329887 0.987069
O O8 0.905510 0.409636 0.935158
O O9 0.065905 0.096749 0.599836
O O10 0.000000 0.005295 0.794569
O O11 0.422422 0.250000 0.962277
#
# Coordination Sequence:
#
# PCOD9539180 Si02
#       4
#    16  16  16  16
#     4  10  24  41  62  85 118 160 203 244 299 357
#     4   9  18  32  55  89 122 153 188 232 294 356
#     4  10  21  38  61  89 121 155 198 249 299 354
#     4  10  21  37  59  88 119 153 195 246 299 352
#
# _framework density 23.537227999999999
#
# number of rings (size 3 to 8) (size 9 to 14) (size 15 to 20)
#    0.000    2.250    0.000    1.500    3.500    8.500 
#    0.000    2.500    0.000    3.750    0.000    0.000 
#    0.000    0.000    0.000    0.000    0.000    0.000 
#
# Total GULP energy -178369.379908 kJ/mol
# GULP energy per Si atom -5574.043122 kJ/mol
# Density = 2.348366 g / cm^3
# Si number density = 23.537228 Si / 1000 Ang^3
#
#
#
# Elastic Constant Matrix: (Units=GPa)
#
#
# Indices 1 2 3 4 5 6 
#
# 1 71.4983 11.0647 -8.4044 0.0000 0.0000 0.0000
# 2 11.0647 96.3896 -3.7520 0.0000 0.0000 0.0000
# 3 -8.4044 -3.7520 78.8692 0.0000 0.0000 0.0000
# 4 0.0000 0.0000 0.0000 29.0368 0.0000 0.0000
# 5 0.0000 0.0000 0.0000 0.0000 7.3013 0.0000
# 6 0.0000 0.0000 0.0000 0.0000 0.0000 3.4150
#
#
#
# Elastic Compliance Matrix: (Units=1/GPa)
#
#
# Indices 1 2 3 4 5 6 
#
# 1 0.014405 -0.001597 0.001459 0.000000 0.000000 0.000000
# 2 -0.001597 0.010571 0.000333 0.000000 0.000000 0.000000
# 3 0.001459 0.000333 0.012851 0.000000 0.000000 0.000000
# 4 0.000000 0.000000 0.000000 0.034439 0.000000 0.000000
# 5 0.000000 0.000000 0.000000 0.000000 0.136963 0.000000
# 6 0.000000 0.000000 0.000000 0.000000 0.000000 0.292827
#
#
# Mechanical properties :
#
#
# Convention : Reuss Voigt Hill
#
# Bulk Modulus (GPa) = 26.16684 27.17485 26.67084
# Shear Modulus (GPa) = 9.72000 24.47387 17.09693
#
# Velocity S-wave (km/s) = 2.03435 3.22808 2.69806
# Velocity P-wave (km/s) = 4.08160 5.04624 4.58934
#
# Compressibility (1/GPa) = 0.03821631
#
# Stress axis : x y z
#
# Youngs Moduli (GPa) = 69.42051 94.60012 77.81786
#
# Poissons Ratio (x) = 0.15105 -0.11354
# Poissons Ratio (y) = 0.11085 -0.02589
# Poissons Ratio (z) = -0.10129 -0.03148
#
# Static dielectric constant tensor:
#      x y z
#    x 1.883390 0.000000 0.000000 
#    y 0.000000 2.002550 0.000000 
#    z 0.000000 0.000000 2.005760 
# 
# From -- ./inp_files/11801.got.cif
#   From: 2010.05.17/outbox.cif.g08.bks.cpg/sg74_6_cif.got.tgz:11801.got - 2010.06.03 17:57:02.
