data_PCOD9539698
_publ_section_title
;
Structure prediction by ZEFSAII (Michael W. Deem and Ramdas Pophale) SiO2 
 PCOD9539698
Probable space group: I M M A
;
_chemical_formula_sum "Si O2"
_cell_formula_units_Z 80
_cell_length_a 8.574956
_cell_length_b 26.274957
_cell_length_c 18.842216
_cell_angle_alpha 90.000000
_cell_angle_beta 90.000000
_cell_angle_gamma 90.000000
_cell_volume 4245.275627
_symmetry_space_group_name_H-M "I M M A"
_symmetry_group_IT_number 74
_symmetry_cell_setting 'orthorhombic'
loop_
_space_group_symop_operation_xyz
x,y,z
-x,1/2-y,z
x,-y,-z
-x,1/2+y,-z
-x,-y,-z
x,1/2+y,-z
-x,y,z
x,1/2-y,z
1/2+x,1/2+y,1/2+z
1/2-x,-y,1/2+z
1/2+x,1/2-y,1/2-z
1/2-x,y,1/2-z
1/2-x,1/2-y,1/2-z
1/2+x,y,1/2-z
1/2-x,1/2+y,1/2+z
1/2+x,-y,1/2+z
loop_
_atom_site_type_symbol
_atom_site_label
_atom_site_fract_x
_atom_site_fract_y
_atom_site_fract_z
Si Si1 0.311695 0.307809 0.171242
Si Si2 0.187085 0.998925 0.329799
Si Si3 0.687113 0.095961 0.580750
Si Si4 0.811756 0.692316 0.171248
Si Si5 0.811463 0.902862 0.578086
O O1 0.500000 0.308723 0.173570
O O2 0.262391 0.250000 0.153251
O O3 0.250000 0.319565 0.250000
O O4 0.260189 0.350424 0.115584
O O5 0.250000 0.999738 0.250000
O O6 0.248650 0.950034 0.371954
O O7 0.000000 0.997301 0.327876
O O8 0.234965 0.049664 0.372538
O O9 0.500000 0.094304 0.581835
O O10 0.739051 0.149345 0.616049
O O11 0.745429 0.091712 0.500502
O O12 0.761251 0.750000 0.153099
O O13 0.750000 0.680488 0.250000
O O14 0.000000 0.691906 0.173627
O O15 0.000000 0.902705 0.573900
#
# Coordination Sequence:
#
# PCOD9539698 Si02
#       5
#    16  16  16  16  16
#     4   9  18  34  56  81 109 142 182 226 270 319
#     4  11  23  39  59  81 108 142 180 223 269 320
#     4  11  23  37  56  82 111 143 180 223 269 320
#     4   9  19  36  56  79 107 139 177 220 265 314
#     4  10  22  38  55  79 112 146 179 220 271 322
#
# _framework density 18.844477000000001
#
# number of rings (size 3 to 8) (size 9 to 14) (size 15 to 20)
#    0.000    2.000    0.000    3.000    0.000    8.800 
#    0.000    0.000    0.000    0.000    0.000    0.000 
#    0.000    0.000    0.000    0.000    0.000    0.000 
#
# Total GULP energy -223451.454409 kJ/mol
# GULP energy per Si atom -5586.286360 kJ/mol
# Density = 1.880159 g / cm^3
# Si number density = 18.844477 Si / 1000 Ang^3
#
#
#
# Elastic Constant Matrix: (Units=GPa)
#
#
# Indices 1 2 3 4 5 6 
#
# 1 17.9508 37.8739 36.9250 0.0000 0.0000 0.0000
# 2 37.8739 153.8284 129.5489 0.0000 0.0000 0.0000
# 3 36.9250 129.5489 195.8483 0.0000 0.0000 0.0000
# 4 0.0000 0.0000 0.0000 -25.9531 0.0000 0.0000
# 5 0.0000 0.0000 0.0000 0.0000 37.7263 0.0000
# 6 0.0000 0.0000 0.0000 0.0000 0.0000 23.2788
#
#
#
# Elastic Compliance Matrix: (Units=1/GPa)
#
#
# Indices 1 2 3 4 5 6 
#
# 1 0.119986 -0.023684 -0.006956 0.000000 0.000000 0.000000
# 2 -0.023684 0.019352 -0.008335 0.000000 0.000000 0.000000
# 3 -0.006956 -0.008335 0.011931 0.000000 0.000000 0.000000
# 4 0.000000 0.000000 0.000000 -0.038531 0.000000 0.000000
# 5 0.000000 0.000000 0.000000 0.000000 0.026507 0.000000
# 6 0.000000 0.000000 0.000000 0.000000 0.000000 0.042957
#
#
# Mechanical properties :
#
#
# Convention : Reuss Voigt Hill
#
# Bulk Modulus (GPa) = 13.63907 86.25812 49.94860
# Shear Modulus (GPa) = 17.56910 17.89570 17.73240
#
# Velocity S-wave (km/s) = 3.05671 3.08499 3.07088
# Velocity P-wave (km/s) = 4.43975 7.65262 6.25595
#
# Compressibility (1/GPa) = 0.07331880
#
# Stress axis : x y z
#
# Youngs Moduli (GPa) = 8.33433 51.67540 83.81477
#
# Poissons Ratio (x) = 1.22385 0.58300
# Poissons Ratio (y) = 0.19739 0.69862
# Poissons Ratio (z) = 0.05797 0.43073
#
# Static dielectric constant tensor:
#      x y z
#    x 1.644900 0.000000 0.000000 
#    y 0.000000 1.664060 0.000000 
#    z 0.000000 0.000000 1.597690 
# 
# From -- ./inp_files/39696.got.cif
#   From: 2010.05.17/outbox.cif.g08.bks.cpg/sg74_20_cif.got.tgz:39696.got - 2010.06.03 17:57:02.
