data_PCOD9539520
_publ_section_title
;
Structure prediction by ZEFSAII (Michael W. Deem and Ramdas Pophale) SiO2 
 PCOD9539520
Probable space group: I M M A
;
_chemical_formula_sum "Si O2"
_cell_formula_units_Z 96
_cell_length_a 24.854134
_cell_length_b 8.735283
_cell_length_c 23.030459
_cell_angle_alpha 90.000000
_cell_angle_beta 90.000000
_cell_angle_gamma 90.000000
_cell_volume 5000.094456
_symmetry_space_group_name_H-M "I M M A"
_symmetry_group_IT_number 74
_symmetry_cell_setting 'orthorhombic'
loop_
_space_group_symop_operation_xyz
x,y,z
-x,1/2-y,z
x,-y,-z
-x,1/2+y,-z
-x,-y,-z
x,1/2+y,-z
-x,y,z
x,1/2-y,z
1/2+x,1/2+y,1/2+z
1/2-x,-y,1/2+z
1/2+x,1/2-y,1/2-z
1/2-x,y,1/2-z
1/2-x,1/2-y,1/2-z
1/2+x,y,1/2-z
1/2-x,1/2+y,1/2+z
1/2+x,-y,1/2+z
loop_
_atom_site_type_symbol
_atom_site_label
_atom_site_fract_x
_atom_site_fract_y
_atom_site_fract_z
Si Si1 0.190326 0.573935 0.276858
Si Si2 0.913862 0.567898 0.439931
Si Si3 0.696708 0.431683 0.097869
Si Si4 0.617049 0.435328 0.323877
Si Si5 0.500000 0.934176 0.715541
Si Si6 0.500000 0.065297 0.845106
Si Si7 0.182915 0.434552 0.062159
O O1 0.176246 0.750000 0.291837
O O2 0.250000 0.572284 0.250000
O O3 0.191453 0.472610 0.334402
O O4 0.149738 0.508832 0.229163
O O5 0.935409 0.500000 0.500000
O O6 0.916942 0.750000 0.443002
O O7 0.852607 0.514889 0.432842
O O8 0.948424 0.518499 0.383829
O O9 0.692189 0.250000 0.088944
O O10 0.755592 0.482647 0.076230
O O11 0.621221 0.250000 0.319734
O O12 0.554743 0.479773 0.317067
O O13 0.644713 0.481883 0.384469
O O14 0.500000 0.750000 0.719031
O O15 0.500000 0.997109 0.781055
O O16 0.500000 0.250000 0.840336
O O17 0.182350 0.250000 0.059796
O O18 0.166602 0.500000 0.000000
#
# Coordination Sequence:
#
# PCOD9539520 Si02
#       7
#    16  16  16  16   8   8  16
#     4  11  22  35  56  88 120 152 190 239 290 343
#     4  11  23  39  58  83 116 156 199 245 287 340
#     4  11  22  37  58  85 117 157 195 237 290 348
#     4  10  21  40  61  86 117 153 193 237 289 347
#     4  10  22  39  64  89 112 146 193 242 289 348
#     4  10  23  41  59  81 115 152 192 240 293 344
#     4  10  22  38  58  82 114 151 189 233 286 342
#
# _framework density 19.199638
#
# number of rings (size 3 to 8) (size 9 to 14) (size 15 to 20)
#    0.000    1.500    1.667    3.250    0.000    8.667 
#    0.000    0.417    0.000    0.000    0.000    0.000 
#    0.000    0.000    0.000    0.000    0.000    0.000 
#
# Total GULP energy -268329.132946 kJ/mol
# GULP energy per Si atom -5590.190270 kJ/mol
# Density = 1.915594 g / cm^3
# Si number density = 19.199638 Si / 1000 Ang^3
#
#
#
# Elastic Constant Matrix: (Units=GPa)
#
#
# Indices 1 2 3 4 5 6 
#
# 1 135.8550 22.7376 48.6830 0.0000 0.0000 0.0000
# 2 22.7376 22.6416 7.7367 0.0000 0.0000 0.0000
# 3 48.6830 7.7367 105.7410 0.0000 0.0000 0.0000
# 4 0.0000 0.0000 0.0000 36.0358 0.0000 0.0000
# 5 0.0000 0.0000 0.0000 0.0000 7.9739 0.0000
# 6 0.0000 0.0000 0.0000 0.0000 0.0000 146.6154
#
#
#
# Elastic Compliance Matrix: (Units=1/GPa)
#
#
# Indices 1 2 3 4 5 6 
#
# 1 0.010332 -0.008975 -0.004100 0.000000 0.000000 0.000000
# 2 -0.008975 0.053095 0.000247 0.000000 0.000000 0.000000
# 3 -0.004100 0.000247 0.011327 0.000000 0.000000 0.000000
# 4 0.000000 0.000000 0.000000 0.027750 0.000000 0.000000
# 5 0.000000 0.000000 0.000000 0.000000 0.125409 0.000000
# 6 0.000000 0.000000 0.000000 0.000000 0.000000 0.006821
#
#
# Mechanical properties :
#
#
# Convention : Reuss Voigt Hill
#
# Bulk Modulus (GPa) = 20.36742 46.95026 33.65884
# Shear Modulus (GPa) = 18.06649 50.46371 34.26510
#
# Velocity S-wave (km/s) = 3.07087 5.13232 4.22912
# Velocity P-wave (km/s) = 4.81715 7.72190 6.43555
#
# Compressibility (1/GPa) = 0.04909801
#
# Stress axis : x y z
#
# Youngs Moduli (GPa) = 96.78476 18.83418 88.28665
#
# Poissons Ratio (x) = 0.16904 0.36200
# Poissons Ratio (y) = 0.86864 -0.02183
# Poissons Ratio (z) = 0.39684 -0.00466
#
# Static dielectric constant tensor:
#      x y z
#    x 1.677900 0.000000 0.000000 
#    y 0.000000 1.649600 0.000000 
#    z 0.000000 0.000000 1.655150 
# 
# From -- ./inp_files/61955.got.cif
#   From: 2010.05.17/outbox.cif.g08.bks.cpg/sg74_31_cif.got.tgz:61955.got - 2010.06.03 17:57:02.
