data_PCOD9539046
_publ_section_title
;
Structure prediction by ZEFSAII (Michael W. Deem and Ramdas Pophale) SiO2 
 PCOD9539046
Probable space group: I M M A
;
_chemical_formula_sum "Si O2"
_cell_formula_units_Z 104
_cell_length_a 20.819044
_cell_length_b 8.704285
_cell_length_c 32.753595
_cell_angle_alpha 90.000000
_cell_angle_beta 90.000000
_cell_angle_gamma 90.000000
_cell_volume 5935.439194
_symmetry_space_group_name_H-M "I M M A"
_symmetry_group_IT_number 74
_symmetry_cell_setting 'orthorhombic'
loop_
_space_group_symop_operation_xyz
x,y,z
-x,1/2-y,z
x,-y,-z
-x,1/2+y,-z
-x,-y,-z
x,1/2+y,-z
-x,y,z
x,1/2-y,z
1/2+x,1/2+y,1/2+z
1/2-x,-y,1/2+z
1/2+x,1/2-y,1/2-z
1/2-x,y,1/2-z
1/2-x,1/2-y,1/2-z
1/2+x,y,1/2-z
1/2-x,1/2+y,1/2+z
1/2+x,-y,1/2+z
loop_
_atom_site_type_symbol
_atom_site_label
_atom_site_fract_x
_atom_site_fract_y
_atom_site_fract_z
Si Si1 0.762665 0.066715 0.043346
Si Si2 0.500000 0.566425 0.045168
Si Si3 0.926576 0.565425 0.729095
Si Si4 0.629065 0.565743 0.918204
Si Si5 0.193542 0.434706 0.133563
Si Si6 0.426587 0.066436 0.679642
Si Si7 0.677520 0.433053 0.833206
O O1 0.769951 0.250000 0.041406
O O2 0.687220 0.031858 0.050616
O O3 0.794988 0.015335 0.086250
O O4 0.784585 0.000000 0.000000
O O5 0.500000 0.750000 0.044992
O O6 0.562872 0.501166 0.066594
O O7 0.500000 0.500000 0.000000
O O8 0.922688 0.750000 0.728788
O O9 0.919535 0.503191 0.775039
O O10 0.869332 0.498278 0.701688
O O11 0.000000 0.523401 0.715279
O O12 0.626330 0.750000 0.912903
O O13 0.646301 0.487118 0.875658
O O14 0.197824 0.250000 0.134405
O O15 0.125946 0.492380 0.150320
O O16 0.250336 0.500032 0.162551
O O17 0.500000 0.035568 0.666372
O O18 0.417645 0.250000 0.681560
O O19 0.680677 0.250000 0.830000
#
# Coordination Sequence:
#
# PCOD9539046 Si02
#       7
#    16   8  16  16  16  16  16
#     4   9  19  34  55  80 106 138 176 221 269 323
#     4  12  24  36  50  72 100 138 186 236 288 338
#     4  10  21  37  57  80 110 151 192 229 276 332
#     4  10  21  37  53  73 104 142 184 231 281 334
#     4  10  21  38  58  83 114 147 186 225 272 333
#     4  10  21  38  60  87 115 142 178 226 278 331
#     4  11  22  36  55  81 112 145 187 235 282 327
#
# _framework density 17.521871999999998
#
# number of rings (size 3 to 8) (size 9 to 14) (size 15 to 20)
#    0.000    1.846    0.000    5.308    1.077    7.385 
#    0.000    3.077    0.000    0.462    0.000    0.000 
#    0.000    0.000    0.000    0.000    0.000    0.000 
#
# Total GULP energy -290253.391780 kJ/mol
# GULP energy per Si atom -5581.795996 kJ/mol
# Density = 1.748199 g / cm^3
# Si number density = 17.521872 Si / 1000 Ang^3
#
#
#
# Elastic Constant Matrix: (Units=GPa)
#
#
# Indices 1 2 3 4 5 6 
#
# 1 132.4094 60.9523 75.8723 0.0000 0.0000 0.0000
# 2 60.9523 93.7752 43.9798 0.0000 0.0000 0.0000
# 3 75.8723 43.9798 87.6834 0.0000 0.0000 0.0000
# 4 0.0000 0.0000 0.0000 32.8047 0.0000 0.0000
# 5 0.0000 0.0000 0.0000 0.0000 13.9982 0.0000
# 6 0.0000 0.0000 0.0000 0.0000 0.0000 29.2048
#
#
#
# Elastic Compliance Matrix: (Units=1/GPa)
#
#
# Indices 1 2 3 4 5 6 
#
# 1 0.016822 -0.005371 -0.011862 0.000000 0.000000 0.000000
# 2 -0.005371 0.015659 -0.003207 0.000000 0.000000 0.000000
# 3 -0.011862 -0.003207 0.023277 0.000000 0.000000 0.000000
# 4 0.000000 0.000000 0.000000 0.030483 0.000000 0.000000
# 5 0.000000 0.000000 0.000000 0.000000 0.071438 0.000000
# 6 0.000000 0.000000 0.000000 0.000000 0.000000 0.034241
#
#
# Mechanical properties :
#
#
# Convention : Reuss Voigt Hill
#
# Bulk Modulus (GPa) = 67.20996 75.05297 71.13146
# Shear Modulus (GPa) = 21.02982 24.07247 22.55114
#
# Velocity S-wave (km/s) = 3.46815 3.71057 3.59141
# Velocity P-wave (km/s) = 7.38095 7.82845 7.60799
#
# Compressibility (1/GPa) = 0.01487875
#
# Stress axis : x y z
#
# Youngs Moduli (GPa) = 59.44716 63.86291 42.96042
#
# Poissons Ratio (x) = 0.34298 0.50960
# Poissons Ratio (y) = 0.31927 0.13776
# Poissons Ratio (z) = 0.70516 0.20479
#
# Static dielectric constant tensor:
#      x y z
#    x 1.574980 0.000000 0.000000 
#    y 0.000000 1.576150 0.000000 
#    z 0.000000 0.000000 1.575710 
# 
# From -- ./inp_files/73431.got.cif
#   From: 2010.05.17/outbox.cif.g08.bks.cpg/sg74_37_cif.got.tgz:73431.got - 2010.06.03 17:57:02.
