data_PCOD9539051
_publ_section_title
;
Structure prediction by ZEFSAII (Michael W. Deem and Ramdas Pophale) SiO2 
 PCOD9539051
Probable space group: I M M A
;
_chemical_formula_sum "Si O2"
_cell_formula_units_Z 80
_cell_length_a 17.534449
_cell_length_b 9.124499
_cell_length_c 26.516751
_cell_angle_alpha 90.000000
_cell_angle_beta 90.000000
_cell_angle_gamma 90.000000
_cell_volume 4242.496196
_symmetry_space_group_name_H-M "I M M A"
_symmetry_group_IT_number 74
_symmetry_cell_setting 'orthorhombic'
loop_
_space_group_symop_operation_xyz
x,y,z
-x,1/2-y,z
x,-y,-z
-x,1/2+y,-z
-x,-y,-z
x,1/2+y,-z
-x,y,z
x,1/2-y,z
1/2+x,1/2+y,1/2+z
1/2-x,-y,1/2+z
1/2+x,1/2-y,1/2-z
1/2-x,y,1/2-z
1/2-x,1/2-y,1/2-z
1/2+x,y,1/2-z
1/2-x,1/2+y,1/2+z
1/2+x,-y,1/2+z
loop_
_atom_site_type_symbol
_atom_site_label
_atom_site_fract_x
_atom_site_fract_y
_atom_site_fract_z
Si Si1 0.191012 0.417616 0.450367
Si Si2 0.796681 0.072530 0.340639
Si Si3 0.084723 0.420603 0.252891
Si Si4 0.368212 0.424669 0.654181
Si Si5 0.622753 0.579957 0.551181
O O1 0.164585 0.500000 0.500000
O O2 0.168065 0.250000 0.455189
O O3 0.167447 0.469933 0.394805
O O4 0.284037 0.423416 0.449606
O O5 0.782785 0.250000 0.342010
O O6 0.851465 0.041269 0.293908
O O7 0.717182 0.987893 0.337272
O O8 0.097509 0.250000 0.237819
O O9 0.088649 0.520065 0.203609
O O10 0.000000 0.429813 0.275435
O O11 0.367920 0.250000 0.649517
O O12 0.398894 0.496818 0.602478
O O13 0.597074 0.500000 0.500000
O O14 0.599751 0.750000 0.552183
#
# Coordination Sequence:
#
# PCOD9539051 Si02
#       5
#    16  16  16  16  16
#     4   8  14  24  41  67  97 126 155 193 240 287
#     4   9  18  33  52  74 100 130 168 213 255 299
#     4  10  21  37  55  72  94 130 173 215 261 309
#     4  11  21  32  50  77 106 135 167 205 251 302
#     4   9  16  28  47  73 104 134 165 203 247 294
#
# _framework density 18.856822000000001
#
# number of rings (size 3 to 8) (size 9 to 14) (size 15 to 20)
#    0.000    2.600    0.000    4.200    0.000    8.400 
#    0.000    0.000    0.000    1.200    0.000    0.000 
#    0.000    0.000    0.000    0.000    0.000    2.200 
#
# Total GULP energy -223104.740909 kJ/mol
# GULP energy per Si atom -5577.618523 kJ/mol
# Density = 1.881390 g / cm^3
# Si number density = 18.856822 Si / 1000 Ang^3
#
#
#
# Elastic Constant Matrix: (Units=GPa)
#
#
# Indices 1 2 3 4 5 6 
#
# 1 41.6762 27.8111 36.9286 0.0000 0.0000 0.0000
# 2 27.8111 88.8927 62.7620 0.0000 0.0000 0.0000
# 3 36.9286 62.7620 140.9490 0.0000 0.0000 0.0000
# 4 0.0000 0.0000 0.0000 35.2594 0.0000 0.0000
# 5 0.0000 0.0000 0.0000 0.0000 -12.5135 0.0000
# 6 0.0000 0.0000 0.0000 0.0000 0.0000 8.8234
#
#
#
# Elastic Compliance Matrix: (Units=1/GPa)
#
#
# Indices 1 2 3 4 5 6 
#
# 1 0.033466 -0.006242 -0.005989 0.000000 0.000000 0.000000
# 2 -0.006242 0.017572 -0.006189 0.000000 0.000000 0.000000
# 3 -0.005989 -0.006189 0.011420 0.000000 0.000000 0.000000
# 4 0.000000 0.000000 0.000000 0.028361 0.000000 0.000000
# 5 0.000000 0.000000 0.000000 0.000000 -0.079914 0.000000
# 6 0.000000 0.000000 0.000000 0.000000 0.000000 0.113335
#
#
# Mechanical properties :
#
#
# Convention : Reuss Voigt Hill
#
# Bulk Modulus (GPa) = 39.03432 58.50237 48.76835
# Shear Modulus (GPa) = 29.47766 15.91494 22.69630
#
# Velocity S-wave (km/s) = 3.95807 2.90830 3.47308
# Velocity P-wave (km/s) = 6.45242 6.50918 6.48086
#
# Compressibility (1/GPa) = 0.02561848
#
# Stress axis : x y z
#
# Youngs Moduli (GPa) = 29.88070 56.90800 87.56772
#
# Poissons Ratio (x) = 0.35522 0.52442
# Poissons Ratio (y) = 0.18652 0.54197
# Poissons Ratio (z) = 0.17895 0.35221
#
# Static dielectric constant tensor:
#      x y z
#    x 1.639570 0.000000 0.000000 
#    y 0.000000 1.636240 0.000000 
#    z 0.000000 0.000000 1.667970 
# 
# From -- ./inp_files/63888.got.cif
#   From: 2010.05.17/outbox.cif.g08.bks.cpg/sg74_32_cif.got.tgz:63888.got - 2010.06.03 17:57:02.
