data_PCOD9539006
_publ_section_title
;
Structure prediction by ZEFSAII (Michael W. Deem and Ramdas Pophale) SiO2 
 PCOD9539006
Probable space group: I M M A
;
_chemical_formula_sum "Si O2"
_cell_formula_units_Z 100
_cell_length_a 21.838790
_cell_length_b 7.703516
_cell_length_c 28.916726
_cell_angle_alpha 90.000000
_cell_angle_beta 90.000000
_cell_angle_gamma 90.000000
_cell_volume 4864.818937
_symmetry_space_group_name_H-M "I M M A"
_symmetry_group_IT_number 74
_symmetry_cell_setting 'orthorhombic'
loop_
_space_group_symop_operation_xyz
x,y,z
-x,1/2-y,z
x,-y,-z
-x,1/2+y,-z
-x,-y,-z
x,1/2+y,-z
-x,y,z
x,1/2-y,z
1/2+x,1/2+y,1/2+z
1/2-x,-y,1/2+z
1/2+x,1/2-y,1/2-z
1/2-x,y,1/2-z
1/2-x,1/2-y,1/2-z
1/2+x,y,1/2-z
1/2-x,1/2+y,1/2+z
1/2+x,-y,1/2+z
loop_
_atom_site_type_symbol
_atom_site_label
_atom_site_fract_x
_atom_site_fract_y
_atom_site_fract_z
Si Si1 0.000000 0.250000 0.449488
Si Si2 0.068856 0.458543 0.119200
Si Si3 0.706245 0.038327 0.114309
Si Si4 0.822992 0.041285 0.054303
Si Si5 0.429974 0.043681 0.725406
Si Si6 0.897514 0.947268 0.452849
Si Si7 0.306749 0.041737 0.219683
O O1 0.947948 0.404692 0.448944
O O2 0.066669 0.250000 0.114720
O O3 0.116749 0.524302 0.081339
O O4 0.086536 0.493975 0.172548
O O5 0.000000 0.527157 0.112646
O O6 0.703613 0.250000 0.112864
O O7 0.764810 0.981990 0.084403
O O8 0.704319 0.982067 0.167394
O O9 0.647080 0.962506 0.089745
O O10 0.823424 0.250000 0.057548
O O11 0.820644 0.000000 0.000000
O O12 0.500000 0.975375 0.734961
O O13 0.434105 0.250000 0.727526
O O14 0.374104 0.993409 0.759122
O O15 0.921818 0.750000 0.456855
O O16 0.862236 0.000000 0.500000
O O17 0.301613 0.250000 0.218824
O O18 0.250000 0.973666 0.250000
#
# Coordination Sequence:
#
# PCOD9539006 Si02
#       7
#     4  16  16  16  16  16  16
#     4  12  24  44  66  94 126 162 210 260 306 378
#     4   9  18  35  59  86 116 156 203 241 287 356
#     4  10  21  40  58  85 121 158 205 259 310 362
#     4  10  21  36  58  84 117 157 196 247 303 357
#     4  10  21  37  57  85 122 156 192 242 299 354
#     4  12  24  40  66  92 125 164 209 258 310 372
#     4  10  21  39  65  90 116 156 203 248 301 364
#
# _framework density 20.555748000000001
#
# number of rings (size 3 to 8) (size 9 to 14) (size 15 to 20)
#    0.000    1.760    1.600    2.400    0.000    7.360 
#    1.440    1.600    0.000    0.000    0.000    0.000 
#    0.000    0.000    0.000    0.000    0.000    0.000 
#
# Total GULP energy -278553.723899 kJ/mol
# GULP energy per Si atom -5571.074478 kJ/mol
# Density = 2.050896 g / cm^3
# Si number density = 20.555748 Si / 1000 Ang^3
#
#
#
# Elastic Constant Matrix: (Units=GPa)
#
#
# Indices 1 2 3 4 5 6 
#
# 1 127.6661 25.6441 106.3964 0.0000 0.0000 0.0000
# 2 25.6441 89.1324 23.1864 0.0000 0.0000 0.0000
# 3 106.3964 23.1864 181.9758 0.0000 0.0000 0.0000
# 4 0.0000 0.0000 0.0000 24.3993 0.0000 0.0000
# 5 0.0000 0.0000 0.0000 0.0000 64.7612 0.0000
# 6 0.0000 0.0000 0.0000 0.0000 0.0000 -18.0223
#
#
#
# Elastic Compliance Matrix: (Units=1/GPa)
#
#
# Indices 1 2 3 4 5 6 
#
# 1 0.015683 -0.002200 -0.008889 0.000000 0.000000 0.000000
# 2 -0.002200 0.011912 -0.000232 0.000000 0.000000 0.000000
# 3 -0.008889 -0.000232 0.010722 0.000000 0.000000 0.000000
# 4 0.000000 0.000000 0.000000 0.040985 0.000000 0.000000
# 5 0.000000 0.000000 0.000000 0.000000 0.015441 0.000000
# 6 0.000000 0.000000 0.000000 0.000000 0.000000 -0.055487
#
#
# Mechanical properties :
#
#
# Convention : Reuss Voigt Hill
#
# Bulk Modulus (GPa) = 63.79074 78.80311 71.29693
# Shear Modulus (GPa) = 74.48991 30.46413 52.47702
#
# Velocity S-wave (km/s) = 6.02633 3.85388 5.05812
# Velocity P-wave (km/s) = 8.91755 7.63038 8.29896
#
# Compressibility (1/GPa) = 0.01567626
#
# Stress axis : x y z
#
# Youngs Moduli (GPa) = 63.76358 83.94602 93.26633
#
# Poissons Ratio (x) = 0.18466 0.82905
# Poissons Ratio (y) = 0.14026 0.02161
# Poissons Ratio (z) = 0.56680 0.01945
#
# Static dielectric constant tensor:
#      x y z
#    x 1.754070 0.000000 0.000000 
#    y 0.000000 1.746500 0.000000 
#    z 0.000000 0.000000 2.080720 
# 
# From -- ./inp_files/68268.got.cif
#   From: 2010.05.17/outbox.cif.g08.bks.cpg/sg74_35_cif.got.tgz:68268.got - 2010.06.03 17:57:02.
