data_PCOD9539762
_publ_section_title
;
Structure prediction by ZEFSAII (Michael W. Deem and Ramdas Pophale) SiO2 
 PCOD9539762
Probable space group: I M M A
;
_chemical_formula_sum "Si O2"
_cell_formula_units_Z 104
_cell_length_a 21.957933
_cell_length_b 8.672421
_cell_length_c 27.327756
_cell_angle_alpha 90.000000
_cell_angle_beta 90.000000
_cell_angle_gamma 90.000000
_cell_volume 5203.981924
_symmetry_space_group_name_H-M "I M M A"
_symmetry_group_IT_number 74
_symmetry_cell_setting 'orthorhombic'
loop_
_space_group_symop_operation_xyz
x,y,z
-x,1/2-y,z
x,-y,-z
-x,1/2+y,-z
-x,-y,-z
x,1/2+y,-z
-x,y,z
x,1/2-y,z
1/2+x,1/2+y,1/2+z
1/2-x,-y,1/2+z
1/2+x,1/2-y,1/2-z
1/2-x,y,1/2-z
1/2-x,1/2-y,1/2-z
1/2+x,y,1/2-z
1/2-x,1/2+y,1/2+z
1/2+x,-y,1/2+z
loop_
_atom_site_type_symbol
_atom_site_label
_atom_site_fract_x
_atom_site_fract_y
_atom_site_fract_z
Si Si1 0.393848 0.433758 0.379181
Si Si2 0.500000 0.934443 0.445826
Si Si3 0.206692 0.430631 0.946182
Si Si4 0.569731 0.435945 0.947708
Si Si5 0.677618 0.931695 0.116673
Si Si6 0.310419 0.066700 0.220526
Si Si7 0.429098 0.064762 0.727017
O O1 0.397406 0.250000 0.375554
O O2 0.442489 0.500095 0.417166
O O3 0.330703 0.485154 0.403415
O O4 0.409631 0.505827 0.326752
O O5 0.500000 0.750000 0.445827
O O6 0.500000 0.000000 0.500000
O O7 0.189698 0.250000 0.946933
O O8 0.276269 0.444234 0.928800
O O9 0.196335 0.500000 0.000000
O O10 0.500000 0.484819 0.940616
O O11 0.571928 0.250000 0.949757
O O12 0.612601 0.485042 0.903477
O O13 0.590557 0.500000 0.000000
O O14 0.675038 0.750000 0.130162
O O15 0.698098 0.024817 0.163867
O O16 0.314542 0.250000 0.227809
O O17 0.250000 0.011713 0.250000
O O18 0.374737 0.994716 0.238122
O O19 0.500000 0.016140 0.737117
O O20 0.428716 0.250000 0.727721
#
# Coordination Sequence:
#
# PCOD9539762 Si02
#       7
#    16   8  16  16  16  16  16
#     4  12  24  40  62  89 122 160 203 253 307 364
#     4  12  24  40  60  86 120 158 202 248 299 356
#     4  11  23  39  60  88 124 165 210 259 311 372
#     4   9  18  34  57  86 120 156 195 240 293 358
#     4  10  22  39  60  87 120 160 204 253 309 369
#     4  11  25  43  64  92 125 162 208 263 319 377
#     4  11  24  43  68  95 125 164 210 262 318 381
#
# _framework density 19.984697000000001
#
# number of rings (size 3 to 8) (size 9 to 14) (size 15 to 20)
#    0.000    1.231    0.769    5.308    0.000    7.077 
#    0.000    1.538    0.000    0.000    0.000    0.000 
#    0.000    0.000    0.000    0.000    0.000    0.000 
#
# Total GULP energy -290580.102891 kJ/mol
# GULP energy per Si atom -5588.078902 kJ/mol
# Density = 1.993921 g / cm^3
# Si number density = 19.984697 Si / 1000 Ang^3
#
#
#
# Elastic Constant Matrix: (Units=GPa)
#
#
# Indices 1 2 3 4 5 6 
#
# 1 96.3022 33.3877 32.1775 0.0000 0.0000 0.0000
# 2 33.3877 71.9879 12.2800 0.0000 0.0000 0.0000
# 3 32.1775 12.2800 60.3418 0.0000 0.0000 0.0000
# 4 0.0000 0.0000 0.0000 36.9700 0.0000 0.0000
# 5 0.0000 0.0000 0.0000 0.0000 40.1336 0.0000
# 6 0.0000 0.0000 0.0000 0.0000 0.0000 26.2489
#
#
#
# Elastic Compliance Matrix: (Units=1/GPa)
#
#
# Indices 1 2 3 4 5 6 
#
# 1 0.014540 -0.005616 -0.006611 0.000000 0.000000 0.000000
# 2 -0.005616 0.016560 -0.000375 0.000000 0.000000 0.000000
# 3 -0.006611 -0.000375 0.020174 0.000000 0.000000 0.000000
# 4 0.000000 0.000000 0.000000 0.027049 0.000000 0.000000
# 5 0.000000 0.000000 0.000000 0.000000 0.024917 0.000000
# 6 0.000000 0.000000 0.000000 0.000000 0.000000 0.038097
#
#
# Mechanical properties :
#
#
# Convention : Reuss Voigt Hill
#
# Bulk Modulus (GPa) = 38.35846 42.70249 40.53048
# Shear Modulus (GPa) = 28.53402 30.72293 29.62848
#
# Velocity S-wave (km/s) = 3.78271 3.92512 3.85458
# Velocity P-wave (km/s) = 6.18984 6.47735 6.33523
#
# Compressibility (1/GPa) = 0.02606987
#
# Stress axis : x y z
#
# Youngs Moduli (GPa) = 68.77692 60.38693 49.56937
#
# Poissons Ratio (x) = 0.33912 0.32768
# Poissons Ratio (y) = 0.38624 0.01861
# Poissons Ratio (z) = 0.45465 0.02267
#
# Static dielectric constant tensor:
#      x y z
#    x 1.737860 0.000000 0.000000 
#    y 0.000000 1.679150 0.000000 
#    z 0.000000 0.000000 1.682530 
# 
# From -- ./inp_files/68231.got.cif
#   From: 2010.05.17/outbox.cif.g08.bks.cpg/sg74_35_cif.got.tgz:68231.got - 2010.06.03 17:57:02.
