data_PCOD9539263
_publ_section_title
;
Structure prediction by ZEFSAII (Michael W. Deem and Ramdas Pophale) SiO2 
 PCOD9539263
Probable space group: I M M A
;
_chemical_formula_sum "Si O2"
_cell_formula_units_Z 68
_cell_length_a 19.041503
_cell_length_b 10.554542
_cell_length_c 19.096981
_cell_angle_alpha 90.000000
_cell_angle_beta 90.000000
_cell_angle_gamma 90.000000
_cell_volume 3838.003213
_symmetry_space_group_name_H-M "I M M A"
_symmetry_group_IT_number 74
_symmetry_cell_setting 'orthorhombic'
loop_
_space_group_symop_operation_xyz
x,y,z
-x,1/2-y,z
x,-y,-z
-x,1/2+y,-z
-x,-y,-z
x,1/2+y,-z
-x,y,z
x,1/2-y,z
1/2+x,1/2+y,1/2+z
1/2-x,-y,1/2+z
1/2+x,1/2-y,1/2-z
1/2-x,y,1/2-z
1/2-x,1/2-y,1/2-z
1/2+x,y,1/2-z
1/2-x,1/2+y,1/2+z
1/2+x,-y,1/2+z
loop_
_atom_site_type_symbol
_atom_site_label
_atom_site_fract_x
_atom_site_fract_y
_atom_site_fract_z
Si Si1 0.225583 0.604840 0.057383
Si Si2 0.387829 0.534506 0.078835
Si Si3 0.673758 0.894720 0.286531
Si Si4 0.000000 0.250000 0.613605
Si Si5 0.084020 0.392057 0.288455
O O1 0.217043 0.750000 0.032338
O O2 0.307878 0.582576 0.074743
O O3 0.184561 0.590814 0.130383
O O4 0.205549 0.500000 0.000000
O O5 0.438876 0.640054 0.109363
O O6 0.393997 0.416181 0.131014
O O7 0.409568 0.500000 0.000000
O O8 0.649748 0.750000 0.272086
O O9 0.750000 0.908817 0.250000
O O10 0.622167 0.999356 0.255750
O O11 0.104570 0.250000 0.266783
O O12 0.000000 0.402968 0.283010
#
# Coordination Sequence:
#
# PCOD9539263 Si02
#       5
#    16  16  16   4  16
#     4  10  21  38  58  84 113 146 191 239 282 331
#     4  11  23  34  52  78 114 158 201 233 271 330
#     4  10  21  39  62  83 114 150 193 238 282 339
#     4  12  22  32  54  74 116 164 206 222 280 326
#     4  11  25  39  55  83 119 152 190 239 291 341
#
# _framework density 17.717545999999999
#
# number of rings (size 3 to 8) (size 9 to 14) (size 15 to 20)
#    0.000    1.412    4.706    0.353    3.294    2.824 
#    0.000    0.000    0.000    0.706    0.000    0.000 
#    0.000    0.000    0.000    0.000    0.000    0.000 
#
# Total GULP energy -189334.275873 kJ/mol
# GULP energy per Si atom -5568.655173 kJ/mol
# Density = 1.767722 g / cm^3
# Si number density = 17.717546 Si / 1000 Ang^3
#
#
#
# Elastic Constant Matrix: (Units=GPa)
#
#
# Indices 1 2 3 4 5 6 
#
# 1 32.8939 49.4669 30.6148 0.0000 0.0000 0.0000
# 2 49.4669 167.5640 71.6143 0.0000 0.0000 0.0000
# 3 30.6148 71.6143 88.0842 0.0000 0.0000 0.0000
# 4 0.0000 0.0000 0.0000 22.7836 0.0000 0.0000
# 5 0.0000 0.0000 0.0000 0.0000 5.2113 0.0000
# 6 0.0000 0.0000 0.0000 0.0000 0.0000 21.8879
#
#
#
# Elastic Compliance Matrix: (Units=1/GPa)
#
#
# Indices 1 2 3 4 5 6 
#
# 1 0.059776 -0.013436 -0.009852 0.000000 0.000000 0.000000
# 2 -0.013436 0.012166 -0.005221 0.000000 0.000000 0.000000
# 3 -0.009852 -0.005221 0.019022 0.000000 0.000000 0.000000
# 4 0.000000 0.000000 0.000000 0.043891 0.000000 0.000000
# 5 0.000000 0.000000 0.000000 0.000000 0.191890 0.000000
# 6 0.000000 0.000000 0.000000 0.000000 0.000000 0.045687
#
#
# Mechanical properties :
#
#
# Convention : Reuss Voigt Hill
#
# Bulk Modulus (GPa) = 29.45952 65.77047 47.61500
# Shear Modulus (GPa) = 11.34389 19.09963 15.22176
#
# Velocity S-wave (km/s) = 2.53309 3.28686 2.93428
# Velocity P-wave (km/s) = 5.02183 7.18379 6.19781
#
# Compressibility (1/GPa) = 0.03394488
#
# Stress axis : x y z
#
# Youngs Moduli (GPa) = 16.72925 82.19795 52.57075
#
# Poissons Ratio (x) = 1.10440 0.51794
# Poissons Ratio (y) = 0.22477 0.27448
# Poissons Ratio (z) = 0.16482 0.42917
#
# Static dielectric constant tensor:
#      x y z
#    x 1.579990 0.000000 0.000000 
#    y 0.000000 1.631520 0.000000 
#    z 0.000000 0.000000 1.617970 
# 
# From -- ./inp_files/39174.got.cif
#   From: 2010.05.17/outbox.cif.g08.bks.cpg/sg74_20_cif.got.tgz:39174.got - 2010.06.03 17:57:02.
