data_PCOD9539652
_publ_section_title
;
Structure prediction by ZEFSAII (Michael W. Deem and Ramdas Pophale) SiO2 
 PCOD9539652
Probable space group: I M M A
;
_chemical_formula_sum "Si O2"
_cell_formula_units_Z 64
_cell_length_a 10.641764
_cell_length_b 19.780999
_cell_length_c 15.445024
_cell_angle_alpha 90.000000
_cell_angle_beta 90.000000
_cell_angle_gamma 90.000000
_cell_volume 3251.250500
_symmetry_space_group_name_H-M "I M M A"
_symmetry_group_IT_number 74
_symmetry_cell_setting 'orthorhombic'
loop_
_space_group_symop_operation_xyz
x,y,z
-x,1/2-y,z
x,-y,-z
-x,1/2+y,-z
-x,-y,-z
x,1/2+y,-z
-x,y,z
x,1/2-y,z
1/2+x,1/2+y,1/2+z
1/2-x,-y,1/2+z
1/2+x,1/2-y,1/2-z
1/2-x,y,1/2-z
1/2-x,1/2-y,1/2-z
1/2+x,y,1/2-z
1/2-x,1/2+y,1/2+z
1/2+x,-y,1/2+z
loop_
_atom_site_type_symbol
_atom_site_label
_atom_site_fract_x
_atom_site_fract_y
_atom_site_fract_z
Si Si1 0.855416 0.547788 0.578454
Si Si2 0.639665 0.750000 0.180884
Si Si3 0.500000 0.171092 0.294266
Si Si4 0.000000 0.828751 0.003122
Si Si5 0.250000 0.911285 0.750000
Si Si6 0.775569 0.826876 0.476933
O O1 0.813851 0.500000 0.500000
O O2 0.771535 0.545301 0.663717
O O3 0.846989 0.623664 0.540506
O O4 0.000000 0.530918 0.599182
O O5 0.500000 0.750000 0.218185
O O6 0.750000 0.750000 0.250000
O O7 0.658793 0.813230 0.115016
O O8 0.500000 0.250000 0.270387
O O9 0.500000 0.166535 0.399002
O O10 0.374463 0.134376 0.260931
O O11 0.000000 0.750000 0.029860
O O12 0.134293 0.855079 0.034796
O O13 0.765339 0.750000 0.514682
#
# Coordination Sequence:
#
# PCOD9539652 Si02
#       6
#    16   8   8   8   8  16
#     4  11  24  43  65  88 128 174 213 265 327 393
#     4  10  22  36  60  89 124 155 210 263 308 370
#     4  11  22  36  61 103 135 163 208 258 329 393
#     4   9  16  32  58  87 121 161 187 249 316 380
#     4  12  23  42  62  96 135 170 218 268 322 400
#     4   9  20  37  62  88 123 155 211 253 316 378
#
# _framework density 19.684733999999999
#
# number of rings (size 3 to 8) (size 9 to 14) (size 15 to 20)
#    0.750    1.000    3.750    1.125    1.750    1.000 
#    2.250    2.500    0.000    0.000    0.000    0.000 
#    0.000    0.000    0.000    0.000    0.000    0.000 
#
# Total GULP energy -178384.784026 kJ/mol
# GULP energy per Si atom -5574.524501 kJ/mol
# Density = 1.963993 g / cm^3
# Si number density = 19.684734 Si / 1000 Ang^3
#
#
#
# Elastic Constant Matrix: (Units=GPa)
#
#
# Indices 1 2 3 4 5 6 
#
# 1 136.0945 16.1247 41.1314 0.0000 0.0000 0.0000
# 2 16.1247 49.7357 34.4993 0.0000 0.0000 0.0000
# 3 41.1314 34.4993 115.3729 0.0000 0.0000 0.0000
# 4 0.0000 0.0000 0.0000 23.6143 0.0000 0.0000
# 5 0.0000 0.0000 0.0000 0.0000 28.3618 0.0000
# 6 0.0000 0.0000 0.0000 0.0000 0.0000 10.1864
#
#
#
# Elastic Compliance Matrix: (Units=1/GPa)
#
#
# Indices 1 2 3 4 5 6 
#
# 1 0.008260 -0.000802 -0.002705 0.000000 0.000000 0.000000
# 2 -0.000802 0.025446 -0.007323 0.000000 0.000000 0.000000
# 3 -0.002705 -0.007323 0.011822 0.000000 0.000000 0.000000
# 4 0.000000 0.000000 0.000000 0.042347 0.000000 0.000000
# 5 0.000000 0.000000 0.000000 0.000000 0.035259 0.000000
# 6 0.000000 0.000000 0.000000 0.000000 0.000000 0.098170
#
#
# Mechanical properties :
#
#
# Convention : Reuss Voigt Hill
#
# Bulk Modulus (GPa) = 41.89688 53.85709 47.87699
# Shear Modulus (GPa) = 19.92670 26.39569 23.16119
#
# Velocity S-wave (km/s) = 3.18511 3.66583 3.43389
# Velocity P-wave (km/s) = 5.90395 6.73327 6.33221
#
# Compressibility (1/GPa) = 0.02386812
#
# Stress axis : x y z
#
# Youngs Moduli (GPa) = 121.05960 39.29907 84.58973
#
# Poissons Ratio (x) = 0.03150 0.22883
# Poissons Ratio (y) = 0.09704 0.61946
# Poissons Ratio (z) = 0.32749 0.28779
#
# Static dielectric constant tensor:
#      x y z
#    x 1.743420 0.000000 0.000000 
#    y 0.000000 1.696800 0.000000 
#    z 0.000000 0.000000 1.692730 
# 
# From -- ./inp_files/28912.got.cif
#   From: 2010.05.17/outbox.cif.g08.bks.cpg/sg74_15_cif.got.tgz:28912.got - 2010.06.03 17:57:02.
