data_PCOD9539106
_publ_section_title
;
Structure prediction by ZEFSAII (Michael W. Deem and Ramdas Pophale) SiO2 
 PCOD9539106
Probable space group: I M M A
;
_chemical_formula_sum "Si O2"
_cell_formula_units_Z 88
_cell_length_a 23.038832
_cell_length_b 7.613478
_cell_length_c 21.733258
_cell_angle_alpha 90.000000
_cell_angle_beta 90.000000
_cell_angle_gamma 90.000000
_cell_volume 3812.136041
_symmetry_space_group_name_H-M "I M M A"
_symmetry_group_IT_number 74
_symmetry_cell_setting 'orthorhombic'
loop_
_space_group_symop_operation_xyz
x,y,z
-x,1/2-y,z
x,-y,-z
-x,1/2+y,-z
-x,-y,-z
x,1/2+y,-z
-x,y,z
x,1/2-y,z
1/2+x,1/2+y,1/2+z
1/2-x,-y,1/2+z
1/2+x,1/2-y,1/2-z
1/2-x,y,1/2-z
1/2-x,1/2-y,1/2-z
1/2+x,y,1/2-z
1/2-x,1/2+y,1/2+z
1/2+x,-y,1/2+z
loop_
_atom_site_type_symbol
_atom_site_label
_atom_site_fract_x
_atom_site_fract_y
_atom_site_fract_z
Si Si1 0.812709 0.038675 0.064961
Si Si2 0.500000 0.038688 0.927193
Si Si3 0.436579 0.964373 0.592770
Si Si4 0.383899 0.553756 0.141843
Si Si5 0.068032 0.448478 0.234516
Si Si6 0.242561 0.954589 0.680221
O O1 0.814877 0.250000 0.070163
O O2 0.878559 0.968979 0.061743
O O3 0.783720 0.968625 0.127149
O O4 0.782446 0.000000 0.000000
O O5 0.500000 0.250000 0.917416
O O6 0.560650 0.975304 0.895487
O O7 0.500000 0.000000 0.000000
O O8 0.500000 0.028217 0.572231
O O9 0.438184 0.750000 0.589679
O O10 0.428366 0.008777 0.664708
O O11 0.373967 0.750000 0.117192
O O12 0.403978 0.560229 0.212641
O O13 0.321529 0.463888 0.149845
O O14 0.092760 0.250000 0.237876
O O15 0.000000 0.438636 0.248525
O O16 0.258538 0.750000 0.686357
O O17 0.250000 0.028321 0.750000
#
# Coordination Sequence:
#
# PCOD9539106 Si02
#       6
#    16   8  16  16  16  16
#     4  10  21  37  57  81 114 151 188 238 289 341
#     4  10  24  42  58  82 118 158 199 250 303 366
#     4   8  15  30  54  83 111 144 188 232 271 321
#     4  11  22  37  57  84 119 150 184 239 305 359
#     4   9  16  29  54  84 111 143 185 227 272 331
#     4  10  22  41  64  87 114 153 206 254 292 350
#
# _framework density 23.084171999999999
#
# number of rings (size 3 to 8) (size 9 to 14) (size 15 to 20)
#    0.000    2.364    0.909    2.727    0.000    6.545 
#    0.000    6.364    0.000    1.091    0.000    0.000 
#    0.000    0.000    0.000    0.000    0.000    0.000 
#
# Total GULP energy -245338.417139 kJ/mol
# GULP energy per Si atom -5575.873117 kJ/mol
# Density = 2.303163 g / cm^3
# Si number density = 23.084172 Si / 1000 Ang^3
#
#
#
# Elastic Constant Matrix: (Units=GPa)
#
#
# Indices 1 2 3 4 5 6 
#
# 1 130.1516 -0.7603 77.1785 0.0000 0.0000 0.0000
# 2 -0.7603 45.8698 4.2637 0.0000 0.0000 0.0000
# 3 77.1785 4.2637 149.7552 0.0000 0.0000 0.0000
# 4 0.0000 0.0000 0.0000 13.5436 0.0000 0.0000
# 5 0.0000 0.0000 0.0000 0.0000 21.9814 0.0000
# 6 0.0000 0.0000 0.0000 0.0000 0.0000 24.4441
#
#
#
# Elastic Compliance Matrix: (Units=1/GPa)
#
#
# Indices 1 2 3 4 5 6 
#
# 1 0.011088 0.000717 -0.005735 0.000000 0.000000 0.000000
# 2 0.000717 0.021905 -0.000993 0.000000 0.000000 0.000000
# 3 -0.005735 -0.000993 0.009661 0.000000 0.000000 0.000000
# 4 0.000000 0.000000 0.000000 0.073836 0.000000 0.000000
# 5 0.000000 0.000000 0.000000 0.000000 0.045493 0.000000
# 6 0.000000 0.000000 0.000000 0.000000 0.000000 0.040910
#
#
# Mechanical properties :
#
#
# Convention : Reuss Voigt Hill
#
# Bulk Modulus (GPa) = 32.64516 54.12671 43.38594
# Shear Modulus (GPa) = 22.20976 28.33346 25.27161
#
# Velocity S-wave (km/s) = 3.10517 3.50722 3.31230
# Velocity P-wave (km/s) = 5.19891 6.31659 5.78480
#
# Compressibility (1/GPa) = 0.03063241
#
# Stress axis : x y z
#
# Youngs Moduli (GPa) = 90.18535 45.65161 103.50456
#
# Poissons Ratio (x) = -0.03273 0.59359
# Poissons Ratio (y) = -0.06465 0.10279
# Poissons Ratio (z) = 0.51721 0.04534
#
# Static dielectric constant tensor:
#      x y z
#    x 1.911430 0.000000 0.000000 
#    y 0.000000 1.910030 0.000000 
#    z 0.000000 0.000000 1.878970 
# 
# From -- ./inp_files/54498.got.cif
#   From: 2010.05.17/outbox.cif.g08.bks.cpg/sg74_28_cif.got.tgz:54498.got - 2010.06.03 17:57:02.
