data_PCOD9539442
_publ_section_title
;
Structure prediction by ZEFSAII (Michael W. Deem and Ramdas Pophale) SiO2 
 PCOD9539442
Probable space group: I M M A
;
_chemical_formula_sum "Si O2"
_cell_formula_units_Z 88
_cell_length_a 8.868682
_cell_length_b 27.861245
_cell_length_c 17.601688
_cell_angle_alpha 90.000000
_cell_angle_beta 90.000000
_cell_angle_gamma 90.000000
_cell_volume 4349.245480
_symmetry_space_group_name_H-M "I M M A"
_symmetry_group_IT_number 74
_symmetry_cell_setting 'orthorhombic'
loop_
_space_group_symop_operation_xyz
x,y,z
-x,1/2-y,z
x,-y,-z
-x,1/2+y,-z
-x,-y,-z
x,1/2+y,-z
-x,y,z
x,1/2-y,z
1/2+x,1/2+y,1/2+z
1/2-x,-y,1/2+z
1/2+x,1/2-y,1/2-z
1/2-x,y,1/2-z
1/2-x,1/2-y,1/2-z
1/2+x,y,1/2-z
1/2-x,1/2+y,1/2+z
1/2+x,-y,1/2+z
loop_
_atom_site_type_symbol
_atom_site_label
_atom_site_fract_x
_atom_site_fract_y
_atom_site_fract_z
Si Si1 0.823820 0.425155 0.948554
Si Si2 0.821828 0.494116 0.671048
Si Si3 0.174995 0.089340 0.130968
Si Si4 0.177349 0.250000 0.831303
Si Si5 0.818665 0.696474 0.897022
Si Si6 0.322555 0.174638 0.939590
O O1 0.758612 0.470039 0.902114
O O2 0.720942 0.380270 0.926532
O O3 0.000000 0.418964 0.928237
O O4 0.819065 0.423100 0.040466
O O5 0.750000 0.475372 0.750000
O O6 0.784732 0.550780 0.667738
O O7 0.000000 0.485697 0.669009
O O8 0.216553 0.145521 0.143559
O O9 0.000000 0.082139 0.154667
O O10 0.250000 0.250000 0.750000
O O11 0.235453 0.204755 0.877659
O O12 0.000000 0.250000 0.826414
O O13 0.782523 0.750000 0.865042
O O14 0.000000 0.695110 0.908774
O O15 0.738011 0.691284 0.978208
O O16 0.500000 0.182579 0.935451
#
# Coordination Sequence:
#
# PCOD9539442 Si02
#       6
#    16  16  16   8  16  16
#     4  10  21  39  62  86 114 150 189 235 286 342
#     4  12  25  40  59  83 114 152 193 240 291 348
#     4   9  19  36  59  88 119 152 190 234 284 340
#     4  12  24  38  52  70 102 146 191 232 281 336
#     4   9  17  32  57  85 115 150 184 224 278 336
#     4  11  21  34  53  81 111 142 183 232 278 326
#
# _framework density 20.233395000000002
#
# number of rings (size 3 to 8) (size 9 to 14) (size 15 to 20)
#    0.000    1.636    0.909    6.273    0.000    6.545 
#    0.000    3.636    0.000    0.545    0.000    0.000 
#    0.000    0.000    0.000    0.000    0.000    0.000 
#
# Total GULP energy -245620.865877 kJ/mol
# GULP energy per Si atom -5582.292406 kJ/mol
# Density = 2.018734 g / cm^3
# Si number density = 20.233395 Si / 1000 Ang^3
#
#
#
# Elastic Constant Matrix: (Units=GPa)
#
#
# Indices 1 2 3 4 5 6 
#
# 1 65.7883 5.3229 8.8804 0.0000 0.0000 0.0000
# 2 5.3229 101.2566 -2.8939 0.0000 0.0000 0.0000
# 3 8.8804 -2.8939 21.1254 0.0000 0.0000 0.0000
# 4 0.0000 0.0000 0.0000 -24.4894 0.0000 0.0000
# 5 0.0000 0.0000 0.0000 0.0000 21.7019 0.0000
# 6 0.0000 0.0000 0.0000 0.0000 0.0000 34.7091
#
#
#
# Elastic Compliance Matrix: (Units=1/GPa)
#
#
# Indices 1 2 3 4 5 6 
#
# 1 0.016226 -0.001052 -0.006965 0.000000 0.000000 0.000000
# 2 -0.001052 0.009983 0.001810 0.000000 0.000000 0.000000
# 3 -0.006965 0.001810 0.050512 0.000000 0.000000 0.000000
# 4 0.000000 0.000000 0.000000 -0.040834 0.000000 0.000000
# 5 0.000000 0.000000 0.000000 0.000000 0.046079 0.000000
# 6 0.000000 0.000000 0.000000 0.000000 0.000000 0.028811
#
#
# Mechanical properties :
#
#
# Convention : Reuss Voigt Hill
#
# Bulk Modulus (GPa) = 15.55054 23.42099 19.48576
# Shear Modulus (GPa) = 34.57203 18.17505 26.37354
#
# Velocity S-wave (km/s) = 4.13808 3.00037 3.61427
# Velocity P-wave (km/s) = 5.52575 4.85834 5.20276
#
# Compressibility (1/GPa) = 0.06430646
#
# Stress axis : x y z
#
# Youngs Moduli (GPa) = 61.63136 100.17102 19.79729
#
# Poissons Ratio (x) = 0.10538 0.13788
# Poissons Ratio (y) = 0.06484 -0.03583
# Poissons Ratio (z) = 0.42924 -0.18128
#
# Static dielectric constant tensor:
#      x y z
#    x 1.660990 0.000000 0.000000 
#    y 0.000000 1.167540 0.000000 
#    z 0.000000 0.000000 1.701610 
# 
# From -- ./inp_files/40121.got.cif
#   From: 2010.05.17/outbox.cif.g08.bks.cpg/sg74_21_cif.got.tgz:40121.got - 2010.06.03 17:57:02.
