data_PCOD9539614
_publ_section_title
;
Structure prediction by ZEFSAII (Michael W. Deem and Ramdas Pophale) SiO2 
 PCOD9539614
Probable space group: I M M A
;
_chemical_formula_sum "Si O2"
_cell_formula_units_Z 80
_cell_length_a 16.293072
_cell_length_b 11.075234
_cell_length_c 22.169246
_cell_angle_alpha 90.000000
_cell_angle_beta 90.000000
_cell_angle_gamma 90.000000
_cell_volume 4000.431240
_symmetry_space_group_name_H-M "I M M A"
_symmetry_group_IT_number 74
_symmetry_cell_setting 'orthorhombic'
loop_
_space_group_symop_operation_xyz
x,y,z
-x,1/2-y,z
x,-y,-z
-x,1/2+y,-z
-x,-y,-z
x,1/2+y,-z
-x,y,z
x,1/2-y,z
1/2+x,1/2+y,1/2+z
1/2-x,-y,1/2+z
1/2+x,1/2-y,1/2-z
1/2-x,y,1/2-z
1/2-x,1/2-y,1/2-z
1/2+x,y,1/2-z
1/2-x,1/2+y,1/2+z
1/2+x,-y,1/2+z
loop_
_atom_site_type_symbol
_atom_site_label
_atom_site_fract_x
_atom_site_fract_y
_atom_site_fract_z
Si Si1 0.000000 0.609623 0.807327
Si Si2 0.337989 0.017324 0.881534
Si Si3 0.171556 0.380758 0.881397
Si Si4 0.500000 0.535774 0.429777
Si Si5 0.098616 0.250000 0.408618
Si Si6 0.597772 0.250000 0.952068
Si Si7 0.841706 0.515780 0.246012
O O1 0.000000 0.565377 0.876899
O O2 0.081677 0.565132 0.773335
O O3 0.000000 0.750000 0.807064
O O4 0.240259 0.019781 0.895277
O O5 0.375678 0.121525 0.923347
O O6 0.370067 0.879701 0.883917
O O7 0.353657 0.063463 0.813250
O O8 0.206582 0.250000 0.897038
O O9 0.084948 0.396375 0.914291
O O10 0.160342 0.389665 0.809043
O O11 0.500000 0.500000 0.500000
O O12 0.124217 0.250000 0.478490
O O13 0.000000 0.250000 0.402931
O O14 0.500000 0.250000 0.950284
O O15 0.750000 0.457764 0.250000
#
# Coordination Sequence:
#
# PCOD9539614 Si02
#       7
#     8  16  16   8   8   8  16
#     4  10  22  39  60  91 133 170 211 268 330 394
#     4  11  23  41  67  97 127 173 222 262 330 393
#     4  10  21  43  65  96 130 164 212 279 328 378
#     4  10  23  43  64  93 129 174 223 267 328 395
#     4  11  26  44  63  89 137 177 212 268 323 381
#     4  11  24  42  63  93 129 165 222 276 311 375
#     4   9  22  38  60  94 127 161 208 270 324 391
#
# _framework density 19.997843
#
# number of rings (size 3 to 8) (size 9 to 14) (size 15 to 20)
#    0.000    1.800    1.000    1.500    5.600    5.600 
#   14.400    0.000    0.000    0.000    0.000    0.000 
#    0.000    0.000    0.000    0.000    0.000    0.000 
#
# Total GULP energy -222794.547763 kJ/mol
# GULP energy per Si atom -5569.863694 kJ/mol
# Density = 1.995233 g / cm^3
# Si number density = 19.997843 Si / 1000 Ang^3
#
#
#
# Elastic Constant Matrix: (Units=GPa)
#
#
# Indices 1 2 3 4 5 6 
#
# 1 86.8332 45.0396 40.4722 0.0000 0.0000 0.0000
# 2 45.0396 89.5769 3.1026 0.0000 0.0000 0.0000
# 3 40.4722 3.1026 97.7420 0.0000 0.0000 0.0000
# 4 0.0000 0.0000 0.0000 4.9833 0.0000 0.0000
# 5 0.0000 0.0000 0.0000 0.0000 20.7234 0.0000
# 6 0.0000 0.0000 0.0000 0.0000 0.0000 1.2152
#
#
#
# Elastic Compliance Matrix: (Units=1/GPa)
#
#
# Indices 1 2 3 4 5 6 
#
# 1 0.020543 -0.010045 -0.008187 0.000000 0.000000 0.000000
# 2 -0.010045 0.016088 0.003649 0.000000 0.000000 0.000000
# 3 -0.008187 0.003649 0.013505 0.000000 0.000000 0.000000
# 4 0.000000 0.000000 0.000000 0.200672 0.000000 0.000000
# 5 0.000000 0.000000 0.000000 0.000000 0.048255 0.000000
# 6 0.000000 0.000000 0.000000 0.000000 0.000000 0.822920
#
#
# Mechanical properties :
#
#
# Convention : Reuss Voigt Hill
#
# Bulk Modulus (GPa) = 47.69075 50.15343 48.92209
# Shear Modulus (GPa) = 4.31727 17.75354 11.03540
#
# Velocity S-wave (km/s) = 1.47090 2.98278 2.35165
# Velocity P-wave (km/s) = 5.17537 6.08248 5.64717
#
# Compressibility (1/GPa) = 0.02096843
#
# Stress axis : x y z
#
# Youngs Moduli (GPa) = 48.67867 62.15770 74.04472
#
# Poissons Ratio (x) = 0.62440 0.60623
# Poissons Ratio (y) = 0.48900 -0.27018
# Poissons Ratio (z) = 0.39855 -0.22681
#
# Static dielectric constant tensor:
#      x y z
#    x 1.700220 0.000000 0.000000 
#    y 0.000000 1.783300 0.000000 
#    z 0.000000 0.000000 1.723010 
# 
# From -- ./inp_files/52831.got.cif
#   From: 2010.05.17/outbox.cif.g08.bks.cpg/sg74_27_cif.got.tgz:52831.got - 2010.06.03 17:57:02.
