data_PCOD9539649
_publ_section_title
;
Structure prediction by ZEFSAII (Michael W. Deem and Ramdas Pophale) SiO2 
 PCOD9539649
Probable space group: I M M A
;
_chemical_formula_sum "Si O2"
_cell_formula_units_Z 80
_cell_length_a 22.498284
_cell_length_b 10.103221
_cell_length_c 19.897775
_cell_angle_alpha 90.000000
_cell_angle_beta 90.000000
_cell_angle_gamma 90.000000
_cell_volume 4522.866440
_symmetry_space_group_name_H-M "I M M A"
_symmetry_group_IT_number 74
_symmetry_cell_setting 'orthorhombic'
loop_
_space_group_symop_operation_xyz
x,y,z
-x,1/2-y,z
x,-y,-z
-x,1/2+y,-z
-x,-y,-z
x,1/2+y,-z
-x,y,z
x,1/2-y,z
1/2+x,1/2+y,1/2+z
1/2-x,-y,1/2+z
1/2+x,1/2-y,1/2-z
1/2-x,y,1/2-z
1/2-x,1/2-y,1/2-z
1/2+x,y,1/2-z
1/2-x,1/2+y,1/2+z
1/2+x,-y,1/2+z
loop_
_atom_site_type_symbol
_atom_site_label
_atom_site_fract_x
_atom_site_fract_y
_atom_site_fract_z
Si Si1 0.628883 0.025298 0.779948
Si Si2 0.311976 0.250000 0.562135
Si Si3 0.371701 0.999767 0.621147
Si Si4 0.788670 0.750000 0.907669
Si Si5 0.193095 0.250000 0.300568
Si Si6 0.000000 0.092605 0.136811
Si Si7 0.500000 0.092322 0.768859
Si Si8 0.715359 0.250000 0.820385
O O1 0.629416 0.049936 0.698936
O O2 0.562080 0.056017 0.803889
O O3 0.673988 0.121633 0.817478
O O4 0.652425 0.877537 0.789219
O O5 0.351377 0.119942 0.574782
O O6 0.286251 0.250000 0.487738
O O7 0.260486 0.250000 0.618130
O O8 0.325588 0.879058 0.615435
O O9 0.437498 0.946894 0.603340
O O10 0.724750 0.750000 0.872744
O O11 0.250000 0.250000 0.250000
O O12 0.000000 0.250000 0.150403
O O13 0.000000 0.003991 0.204164
O O14 0.500000 0.250000 0.752621
O O15 0.750000 0.250000 0.750000
#
# Coordination Sequence:
#
# PCOD9539649 Si02
#       8
#    16   8  16   8   8   8   8   8
#     4  11  21  36  62  88 116 155 190 244 293 344
#     4  12  26  37  58  87 116 158 193 246 298 347
#     4  11  21  39  58  81 119 154 200 243 289 341
#     4  12  24  41  56  83 122 154 195 244 292 347
#     4  12  22  37  61  87 117 157 197 239 288 352
#     4  10  22  36  59  82 113 160 203 246 283 338
#     4  10  22  36  56  93 126 143 192 251 300 345
#     4  12  20  37  59  85 117 149 195 235 294 354
#
# _framework density 17.687899000000002
#
# number of rings (size 3 to 8) (size 9 to 14) (size 15 to 20)
#    0.000    0.800    6.000    2.400    8.400    0.000 
#    0.000    3.000    0.000    0.000    0.000    4.200 
#    0.000    0.000    0.000    0.000    0.000    0.000 
#
# Total GULP energy -223405.020779 kJ/mol
# GULP energy per Si atom -5585.125519 kJ/mol
# Density = 1.764764 g / cm^3
# Si number density = 17.687899 Si / 1000 Ang^3
#
#
#
# Elastic Constant Matrix: (Units=GPa)
#
#
# Indices 1 2 3 4 5 6 
#
# 1 124.4970 50.1491 29.4387 0.0000 0.0000 0.0000
# 2 50.1491 136.3884 5.7607 0.0000 0.0000 0.0000
# 3 29.4387 5.7607 65.9635 0.0000 0.0000 0.0000
# 4 0.0000 0.0000 0.0000 10.3473 0.0000 0.0000
# 5 0.0000 0.0000 0.0000 0.0000 14.3575 0.0000
# 6 0.0000 0.0000 0.0000 0.0000 0.0000 39.7340
#
#
#
# Elastic Compliance Matrix: (Units=1/GPa)
#
#
# Indices 1 2 3 4 5 6 
#
# 1 0.010560 -0.003697 -0.004390 0.000000 0.000000 0.000000
# 2 -0.003697 0.008654 0.000894 0.000000 0.000000 0.000000
# 3 -0.004390 0.000894 0.017041 0.000000 0.000000 0.000000
# 4 0.000000 0.000000 0.000000 0.096644 0.000000 0.000000
# 5 0.000000 0.000000 0.000000 0.000000 0.069650 0.000000
# 6 0.000000 0.000000 0.000000 0.000000 0.000000 0.025167
#
#
# Mechanical properties :
#
#
# Convention : Reuss Voigt Hill
#
# Bulk Modulus (GPa) = 45.72731 55.28288 50.50510
# Shear Modulus (GPa) = 20.04889 28.98780 24.51835
#
# Velocity S-wave (km/s) = 3.37037 4.05266 3.72716
# Velocity P-wave (km/s) = 6.40736 7.29529 6.86570
#
# Compressibility (1/GPa) = 0.02186877
#
# Stress axis : x y z
#
# Youngs Moduli (GPa) = 94.70007 115.55752 58.68242
#
# Poissons Ratio (x) = 0.42725 0.25760
# Poissons Ratio (y) = 0.35013 -0.05248
# Poissons Ratio (z) = 0.41571 -0.10335
#
# Static dielectric constant tensor:
#      x y z
#    x 1.635920 0.000000 0.000000 
#    y 0.000000 1.596750 0.000000 
#    z 0.000000 0.000000 1.587320 
# 
# From -- ./inp_files/54486.got.cif
#   From: 2010.05.17/outbox.cif.g08.bks.cpg/sg74_28_cif.got.tgz:54486.got - 2010.06.03 17:57:02.
