data_PCOD9539172
_publ_section_title
;
Structure prediction by ZEFSAII (Michael W. Deem and Ramdas Pophale) SiO2 
 PCOD9539172
Probable space group: I M M A
;
_chemical_formula_sum "Si O2"
_cell_formula_units_Z 96
_cell_length_a 20.056390
_cell_length_b 8.795337
_cell_length_c 27.416636
_cell_angle_alpha 90.000000
_cell_angle_beta 90.000000
_cell_angle_gamma 90.000000
_cell_volume 4836.368864
_symmetry_space_group_name_H-M "I M M A"
_symmetry_group_IT_number 74
_symmetry_cell_setting 'orthorhombic'
loop_
_space_group_symop_operation_xyz
x,y,z
-x,1/2-y,z
x,-y,-z
-x,1/2+y,-z
-x,-y,-z
x,1/2+y,-z
-x,y,z
x,1/2-y,z
1/2+x,1/2+y,1/2+z
1/2-x,-y,1/2+z
1/2+x,1/2-y,1/2-z
1/2-x,y,1/2-z
1/2-x,1/2-y,1/2-z
1/2+x,y,1/2-z
1/2-x,1/2+y,1/2+z
1/2+x,-y,1/2+z
loop_
_atom_site_type_symbol
_atom_site_label
_atom_site_fract_x
_atom_site_fract_y
_atom_site_fract_z
Si Si1 0.922396 0.430632 0.750096
Si Si2 0.211745 0.932027 0.399488
Si Si3 0.426142 0.566701 0.054172
Si Si4 0.204506 0.568871 0.703851
Si Si5 0.920753 0.072476 0.145708
Si Si6 0.163548 0.931990 0.949060
O O1 0.915628 0.250000 0.743508
O O2 0.870377 0.515981 0.715868
O O3 0.906279 0.476519 0.805933
O O4 0.000000 0.472101 0.741535
O O5 0.216417 0.750000 0.401390
O O6 0.136308 0.979213 0.412983
O O7 0.228370 0.991103 0.345682
O O8 0.263204 0.004243 0.437407
O O9 0.500000 0.521632 0.072368
O O10 0.424973 0.750000 0.050951
O O11 0.418174 0.500000 0.000000
O O12 0.208047 0.750000 0.698292
O O13 0.250000 0.524682 0.750000
O O14 0.903889 0.250000 0.155955
O O15 0.881676 0.024402 0.097415
O O16 0.000000 0.063776 0.136766
O O17 0.164789 0.750000 0.952095
O O18 0.139080 0.000000 0.000000
#
# Coordination Sequence:
#
# PCOD9539172 Si02
#       6
#    16  16  16  16  16  16
#     4  10  21  37  59  87 116 147 186 232 281 335
#     4  11  23  38  58  83 112 146 184 231 282 332
#     4   9  19  36  57  81 109 141 177 218 265 317
#     4  11  24  40  58  82 113 149 189 233 281 336
#     4   9  19  37  59  82 111 148 187 228 278 334
#     4  11  23  38  57  82 113 148 187 232 280 334
#
# _framework density 19.849602000000001
#
# number of rings (size 3 to 8) (size 9 to 14) (size 15 to 20)
#    0.000    1.833    0.000    3.500    0.000   11.333 
#    0.000    1.667    0.000    0.000    0.000    0.000 
#    0.000    0.000    0.000    0.000    0.000    0.000 
#
# Total GULP energy -268287.249589 kJ/mol
# GULP energy per Si atom -5589.317700 kJ/mol
# Density = 1.980442 g / cm^3
# Si number density = 19.849602 Si / 1000 Ang^3
#
#
#
# Elastic Constant Matrix: (Units=GPa)
#
#
# Indices 1 2 3 4 5 6 
#
# 1 35.4497 7.5192 -2.4983 0.0000 0.0000 0.0000
# 2 7.5192 22.4952 5.1781 0.0000 0.0000 0.0000
# 3 -2.4983 5.1781 42.3380 0.0000 0.0000 0.0000
# 4 0.0000 0.0000 0.0000 35.2133 0.0000 0.0000
# 5 0.0000 0.0000 0.0000 0.0000 37.0722 0.0000
# 6 0.0000 0.0000 0.0000 0.0000 0.0000 17.0411
#
#
#
# Elastic Compliance Matrix: (Units=1/GPa)
#
#
# Indices 1 2 3 4 5 6 
#
# 1 0.030768 -0.011012 0.003162 0.000000 0.000000 0.000000
# 2 -0.011012 0.049683 -0.006726 0.000000 0.000000 0.000000
# 3 0.003162 -0.006726 0.024629 0.000000 0.000000 0.000000
# 4 0.000000 0.000000 0.000000 0.028398 0.000000 0.000000
# 5 0.000000 0.000000 0.000000 0.000000 0.026974 0.000000
# 6 0.000000 0.000000 0.000000 0.000000 0.000000 0.058682
#
#
# Mechanical properties :
#
#
# Convention : Reuss Voigt Hill
#
# Bulk Modulus (GPa) = 13.17052 13.40900 13.28976
# Shear Modulus (GPa) = 18.27515 23.87091 21.07303
#
# Velocity S-wave (km/s) = 3.03756 3.47160 3.26181
# Velocity P-wave (km/s) = 4.35338 4.77905 4.57117
#
# Compressibility (1/GPa) = 0.07592716
#
# Stress axis : x y z
#
# Youngs Moduli (GPa) = 32.50160 20.12749 40.60304
#
# Poissons Ratio (x) = 0.22165 -0.12840
# Poissons Ratio (y) = 0.35792 0.27311
# Poissons Ratio (z) = -0.10278 0.13538
#
# Static dielectric constant tensor:
#      x y z
#    x 1.721120 0.000000 0.000000 
#    y 0.000000 1.662340 0.000000 
#    z 0.000000 0.000000 1.672810 
# 
# From -- ./inp_files/68162.got.cif
#   From: 2010.05.17/outbox.cif.g08.bks.cpg/sg74_35_cif.got.tgz:68162.got - 2010.06.03 17:57:02.
