data_PCOD9539946
_publ_section_title
;
Structure prediction by ZEFSAII (Michael W. Deem and Ramdas Pophale) SiO2 
 PCOD9539946
Probable space group: I M M A
;
_chemical_formula_sum "Si O2"
_cell_formula_units_Z 96
_cell_length_a 12.155926
_cell_length_b 28.997206
_cell_length_c 14.383234
_cell_angle_alpha 90.000000
_cell_angle_beta 90.000000
_cell_angle_gamma 90.000000
_cell_volume 5069.915809
_symmetry_space_group_name_H-M "I M M A"
_symmetry_group_IT_number 74
_symmetry_cell_setting 'orthorhombic'
loop_
_space_group_symop_operation_xyz
x,y,z
-x,1/2-y,z
x,-y,-z
-x,1/2+y,-z
-x,-y,-z
x,1/2+y,-z
-x,y,z
x,1/2-y,z
1/2+x,1/2+y,1/2+z
1/2-x,-y,1/2+z
1/2+x,1/2-y,1/2-z
1/2-x,y,1/2-z
1/2-x,1/2-y,1/2-z
1/2+x,y,1/2-z
1/2-x,1/2+y,1/2+z
1/2+x,-y,1/2+z
loop_
_atom_site_type_symbol
_atom_site_label
_atom_site_fract_x
_atom_site_fract_y
_atom_site_fract_z
Si Si1 0.799354 0.151896 0.146442
Si Si2 0.868860 0.601815 0.527469
Si Si3 0.500000 0.081520 0.380160
Si Si4 0.500000 0.492655 0.751287
Si Si5 0.630653 0.250000 0.309048
Si Si6 0.500000 0.417910 0.590663
Si Si7 0.729554 0.581753 0.359460
Si Si8 0.711470 0.017041 0.150181
O O1 0.750000 0.148178 0.250000
O O2 0.697138 0.142699 0.078120
O O3 0.855407 0.201880 0.137072
O O4 0.892520 0.113104 0.132514
O O5 0.830199 0.599085 0.421454
O O6 0.819275 0.555821 0.577318
O O7 0.000000 0.603358 0.539797
O O8 0.500000 0.040768 0.305152
O O9 0.500000 0.063062 0.485683
O O10 0.500000 0.452518 0.677422
O O11 0.398142 0.490990 0.819553
O O12 0.500000 0.250000 0.271447
O O13 0.750000 0.250000 0.250000
O O14 0.618078 0.393758 0.604744
O O15 0.750000 0.587245 0.250000
O O16 0.713696 0.526122 0.379539
O O17 0.750000 0.037063 0.250000
#
# Coordination Sequence:
#
# PCOD9539946 Si02
#       8
#    16  16   8   8   8   8  16  16
#     4  11  24  40  63  92 124 158 194 243 302 366
#     4  12  25  38  58  85 118 155 209 255 306 358
#     4  12  23  37  60  85 118 156 214 251 290 348
#     4  12  21  34  53  79 117 162 200 257 294 349
#     4  10  22  42  66  96 133 170 197 242 309 386
#     4  12  23  40  54  79 118 157 211 250 304 344
#     4  11  25  39  56  76 112 163 207 259 305 354
#     4  11  22  36  53  79 115 158 206 247 307 353
#
# _framework density 18.935224999999999
#
# number of rings (size 3 to 8) (size 9 to 14) (size 15 to 20)
#    0.000    0.667    6.667    3.250    3.500    2.667 
#    0.000    0.000    0.000    0.000    0.000    0.583 
#    0.000    0.000    0.000    0.000    0.000    0.000 
#
# Total GULP energy -267695.357265 kJ/mol
# GULP energy per Si atom -5576.986610 kJ/mol
# Density = 1.889213 g / cm^3
# Si number density = 18.935225 Si / 1000 Ang^3
#
#
#
# Elastic Constant Matrix: (Units=GPa)
#
#
# Indices 1 2 3 4 5 6 
#
# 1 127.1809 0.3177 29.6994 0.0000 0.0000 0.0000
# 2 0.3177 34.4730 17.1344 0.0000 0.0000 0.0000
# 3 29.6994 17.1344 91.6651 -0.0001 0.0002 -0.0001
# 4 0.0000 0.0000 -0.0001 4.5205 0.0000 0.0000
# 5 0.0000 0.0000 0.0002 0.0000 31.5851 0.0000
# 6 0.0000 0.0000 -0.0001 0.0000 0.0000 24.1696
#
#
#
# Elastic Compliance Matrix: (Units=1/GPa)
#
#
# Indices 1 2 3 4 5 6 
#
# 1 0.008570 0.001434 -0.003045 0.000000 0.000000 0.000000
# 2 0.001434 0.032219 -0.006487 0.000000 0.000000 0.000000
# 3 -0.003045 -0.006487 0.013108 0.000000 0.000000 0.000000
# 4 0.000000 0.000000 0.000000 0.221214 0.000000 0.000000
# 5 0.000000 0.000000 0.000000 0.000000 0.031661 0.000000
# 6 0.000000 0.000000 0.000000 0.000000 0.000000 0.041374
#
#
# Mechanical properties :
#
#
# Convention : Reuss Voigt Hill
#
# Bulk Modulus (GPa) = 26.52334 38.62466 32.57400
# Shear Modulus (GPa) = 13.26577 25.79954 19.53265
#
# Velocity S-wave (km/s) = 2.64973 3.69523 3.21526
# Velocity P-wave (km/s) = 4.83728 6.21682 5.56993
#
# Compressibility (1/GPa) = 0.03770264
#
# Stress axis : x y z
#
# Youngs Moduli (GPa) = 116.68229 31.03711 76.28654
#
# Poissons Ratio (x) = -0.04452 0.23228
# Poissons Ratio (y) = -0.16738 0.49490
# Poissons Ratio (z) = 0.35529 0.20135
#
# Static dielectric constant tensor:
#      x y z
#    x 1.802440 0.000000 0.000000 
#    y 0.000000 1.657500 0.000000 
#    z 0.000000 0.000000 1.664280 
# 
# From -- ./inp_files/31185.got.cif
#   From: 2010.05.17/outbox.cif.g08.bks.cpg/sg74_16_cif.got.tgz:31185.got - 2010.06.03 17:57:02.
