data_PCOD9539351
_publ_section_title
;
Structure prediction by ZEFSAII (Michael W. Deem and Ramdas Pophale) SiO2 
 PCOD9539351
Probable space group: I M M A
;
_chemical_formula_sum "Si O2"
_cell_formula_units_Z 96
_cell_length_a 21.523590
_cell_length_b 14.202668
_cell_length_c 15.068189
_cell_angle_alpha 90.000000
_cell_angle_beta 90.000000
_cell_angle_gamma 90.000000
_cell_volume 4606.230903
_symmetry_space_group_name_H-M "I M M A"
_symmetry_group_IT_number 74
_symmetry_cell_setting 'orthorhombic'
loop_
_space_group_symop_operation_xyz
x,y,z
-x,1/2-y,z
x,-y,-z
-x,1/2+y,-z
-x,-y,-z
x,1/2+y,-z
-x,y,z
x,1/2-y,z
1/2+x,1/2+y,1/2+z
1/2-x,-y,1/2+z
1/2+x,1/2-y,1/2-z
1/2-x,y,1/2-z
1/2-x,1/2-y,1/2-z
1/2+x,y,1/2-z
1/2-x,1/2+y,1/2+z
1/2+x,-y,1/2+z
loop_
_atom_site_type_symbol
_atom_site_label
_atom_site_fract_x
_atom_site_fract_y
_atom_site_fract_z
Si Si1 0.395999 0.007184 0.219527
Si Si2 0.193843 0.137280 0.019957
Si Si3 0.189489 0.357322 0.812109
Si Si4 0.566579 0.401899 0.948189
Si Si5 0.068551 0.137071 0.121743
Si Si6 0.827633 0.358469 0.419926
O O1 0.430134 0.076237 0.288099
O O2 0.359035 0.076180 0.153282
O O3 0.353409 0.939246 0.276717
O O4 0.429646 0.933536 0.153724
O O5 0.194643 0.250000 0.031785
O O6 0.128175 0.107014 0.062470
O O7 0.258116 0.103884 0.063503
O O8 0.200479 0.121701 0.915345
O O9 0.163481 0.250000 0.806876
O O10 0.250000 0.357746 0.750000
O O11 0.500000 0.353339 0.965106
O O12 0.563497 0.500000 0.000000
O O13 0.629062 0.358545 0.990892
O O14 0.074491 0.250000 0.139853
O O15 0.000000 0.123668 0.079443
O O16 0.824754 0.250000 0.389597
#
# Coordination Sequence:
#
# PCOD9539351 Si02
#       6
#    16  16  16  16  16  16
#     4  11  22  36  60  94 125 161 207 260 316 371
#     4   9  20  40  62  85 119 163 210 259 308 375
#     4  10  22  40  61  87 121 164 211 261 317 371
#     4   9  19  36  55  81 120 161 203 246 297 364
#     4  10  22  41  64  91 127 169 208 255 319 384
#     4  10  21  38  61  91 127 163 206 258 319 380
#
# _framework density 20.841335000000001
#
# number of rings (size 3 to 8) (size 9 to 14) (size 15 to 20)
#    0.000    2.167    0.000    2.000    2.333    3.667 
#    0.000    5.000    0.000    3.500    0.000    0.000 
#    0.000    0.000    0.000    0.000    0.000    0.000 
#
# Total GULP energy -267530.214425 kJ/mol
# GULP energy per Si atom -5573.546134 kJ/mol
# Density = 2.079390 g / cm^3
# Si number density = 20.841335 Si / 1000 Ang^3
#
#
#
# Elastic Constant Matrix: (Units=GPa)
#
#
# Indices 1 2 3 4 5 6 
#
# 1 157.7481 29.8289 51.5122 0.0000 0.0000 0.0000
# 2 29.8289 88.0748 12.0749 0.0000 0.0000 0.0000
# 3 51.5122 12.0749 82.2442 0.0000 0.0000 0.0000
# 4 0.0000 0.0000 0.0000 28.4273 0.0000 0.0000
# 5 0.0000 0.0000 0.0000 0.0000 11.7237 0.0000
# 6 0.0000 0.0000 0.0000 0.0000 0.0000 10.2907
#
#
#
# Elastic Compliance Matrix: (Units=1/GPa)
#
#
# Indices 1 2 3 4 5 6 
#
# 1 0.008351 -0.002155 -0.004914 0.000000 0.000000 0.000000
# 2 -0.002155 0.012143 -0.000433 0.000000 0.000000 0.000000
# 3 -0.004914 -0.000433 0.015301 0.000000 0.000000 0.000000
# 4 0.000000 0.000000 0.000000 0.035177 0.000000 0.000000
# 5 0.000000 0.000000 0.000000 0.000000 0.085297 0.000000
# 6 0.000000 0.000000 0.000000 0.000000 0.000000 0.097176
#
#
# Mechanical properties :
#
#
# Convention : Reuss Voigt Hill
#
# Bulk Modulus (GPa) = 48.09917 57.21100 52.65509
# Shear Modulus (GPa) = 18.15671 25.73174 21.94423
#
# Velocity S-wave (km/s) = 2.95479 3.51757 3.24839
# Velocity P-wave (km/s) = 5.89660 6.63386 6.27606
#
# Compressibility (1/GPa) = 0.02079038
#
# Stress axis : x y z
#
# Youngs Moduli (GPa) = 119.73970 82.35111 65.35692
#
# Poissons Ratio (x) = 0.17744 0.32119
# Poissons Ratio (y) = 0.25800 0.02832
# Poissons Ratio (z) = 0.58845 0.03568
#
# Static dielectric constant tensor:
#      x y z
#    x 1.794540 0.000000 0.000000 
#    y 0.000000 1.761740 0.000000 
#    z 0.000000 0.000000 1.766490 
# 
# From -- ./inp_files/32389.got.cif
#   From: 2010.05.17/outbox.cif.g08.bks.cpg/sg74_17_cif.got.tgz:32389.got - 2010.06.03 17:57:02.
