data_PCOD9539326
_publ_section_title
;
Structure prediction by ZEFSAII (Michael W. Deem and Ramdas Pophale) SiO2 
 PCOD9539326
Probable space group: I M M A
;
_chemical_formula_sum "Si O2"
_cell_formula_units_Z 80
_cell_length_a 26.098423
_cell_length_b 18.147572
_cell_length_c 8.972030
_cell_angle_alpha 90.000000
_cell_angle_beta 90.000000
_cell_angle_gamma 90.000000
_cell_volume 4249.359859
_symmetry_space_group_name_H-M "I M M A"
_symmetry_group_IT_number 74
_symmetry_cell_setting 'orthorhombic'
loop_
_space_group_symop_operation_xyz
x,y,z
-x,1/2-y,z
x,-y,-z
-x,1/2+y,-z
-x,-y,-z
x,1/2+y,-z
-x,y,z
x,1/2-y,z
1/2+x,1/2+y,1/2+z
1/2-x,-y,1/2+z
1/2+x,1/2-y,1/2-z
1/2-x,y,1/2-z
1/2-x,1/2-y,1/2-z
1/2+x,y,1/2-z
1/2-x,1/2+y,1/2+z
1/2+x,-y,1/2+z
loop_
_atom_site_type_symbol
_atom_site_label
_atom_site_fract_x
_atom_site_fract_y
_atom_site_fract_z
Si Si1 0.599421 0.422212 0.308215
Si Si2 0.000000 0.162845 0.694389
Si Si3 0.600171 0.403403 0.651479
Si Si4 0.500000 0.923274 0.902079
Si Si5 0.304106 0.661221 0.830743
Si Si6 0.197201 0.838610 0.320644
O O1 0.592212 0.391436 0.475343
O O2 0.607626 0.509655 0.323631
O O3 0.549951 0.416328 0.201925
O O4 0.648684 0.381424 0.242112
O O5 0.949999 0.125851 0.765571
O O6 0.000000 0.142225 0.521053
O O7 0.000000 0.250000 0.718790
O O8 0.649362 0.365059 0.723920
O O9 0.500000 0.000000 0.000000
O O10 0.311256 0.750000 0.818548
O O11 0.250000 0.644001 0.750000
O O12 0.304072 0.640841 0.005469
O O13 0.197568 0.750000 0.315719
O O14 0.250000 0.866468 0.250000
#
# Coordination Sequence:
#
# PCOD9539326 Si02
#       6
#    16   8  16   8  16  16
#     4  11  24  40  65  90 124 166 210 256 323 377
#     4  12  25  41  65  93 123 162 208 256 317 383
#     4  11  23  41  61  91 123 161 210 259 307 386
#     4  12  23  43  66  91 126 169 207 270 323 381
#     4  10  22  40  63  93 127 164 211 266 321 382
#     4  10  21  38  61  87 121 164 206 255 318 377
#
# _framework density 18.826364999999999
#
# number of rings (size 3 to 8) (size 9 to 14) (size 15 to 20)
#    0.000    1.200    2.000    3.600    0.000    8.000 
#    0.000    1.000    0.000    0.000    0.000    0.000 
#    0.000    0.000    0.000    0.000    0.000    0.000 
#
# Total GULP energy -223514.628233 kJ/mol
# GULP energy per Si atom -5587.865706 kJ/mol
# Density = 1.878352 g / cm^3
# Si number density = 18.826365 Si / 1000 Ang^3
#
#
#
# Elastic Constant Matrix: (Units=GPa)
#
#
# Indices 1 2 3 4 5 6 
#
# 1 187.5153 39.2623 100.4782 0.0000 0.0000 0.0000
# 2 39.2623 41.2842 43.5486 0.0000 0.0000 0.0000
# 3 100.4782 43.5486 179.7722 0.0000 0.0000 0.0000
# 4 0.0000 0.0000 0.0000 30.3732 0.0000 0.0000
# 5 0.0000 0.0000 0.0000 0.0000 38.8975 0.0000
# 6 0.0000 0.0000 0.0000 0.0000 0.0000 35.1311
#
#
#
# Elastic Compliance Matrix: (Units=1/GPa)
#
#
# Indices 1 2 3 4 5 6 
#
# 1 0.008057 -0.003912 -0.003556 0.000000 0.000000 0.000000
# 2 -0.003912 0.034436 -0.006155 0.000000 0.000000 0.000000
# 3 -0.003556 -0.006155 0.009041 0.000000 0.000000 0.000000
# 4 0.000000 0.000000 0.000000 0.032924 0.000000 0.000000
# 5 0.000000 0.000000 0.000000 0.000000 0.025709 0.000000
# 6 0.000000 0.000000 0.000000 0.000000 0.000000 0.028465
#
#
# Mechanical properties :
#
#
# Convention : Reuss Voigt Hill
#
# Bulk Modulus (GPa) = 41.17261 86.12776 63.65018
# Shear Modulus (GPa) = 28.74005 35.89919 32.31962
#
# Velocity S-wave (km/s) = 3.91139 4.37149 4.14783
# Velocity P-wave (km/s) = 6.50506 8.44558 7.53802
#
# Compressibility (1/GPa) = 0.02428799
#
# Stress axis : x y z
#
# Youngs Moduli (GPa) = 124.11112 29.03966 110.60645
#
# Poissons Ratio (x) = 0.11360 0.39329
# Poissons Ratio (y) = 0.48551 0.68082
# Poissons Ratio (z) = 0.44131 0.17875
#
# Static dielectric constant tensor:
#      x y z
#    x 1.604680 0.000000 0.000000 
#    y 0.000000 1.638540 0.000000 
#    z 0.000000 0.000000 1.672510 
# 
# From -- ./inp_files/13657.got.cif
#   From: 2010.05.17/outbox.cif.g08.bks.cpg/sg74_7_cif.got.tgz:13657.got - 2010.06.03 17:57:02.
