data_PCOD9539626
_publ_section_title
;
Structure prediction by ZEFSAII (Michael W. Deem and Ramdas Pophale) SiO2 
 PCOD9539626
Probable space group: I M M A
;
_chemical_formula_sum "Si O2"
_cell_formula_units_Z 44
_cell_length_a 11.766525
_cell_length_b 7.596350
_cell_length_c 29.675188
_cell_angle_alpha 90.000000
_cell_angle_beta 90.000000
_cell_angle_gamma 90.000000
_cell_volume 2652.446711
_symmetry_space_group_name_H-M "I M M A"
_symmetry_group_IT_number 74
_symmetry_cell_setting 'orthorhombic'
loop_
_space_group_symop_operation_xyz
x,y,z
-x,1/2-y,z
x,-y,-z
-x,1/2+y,-z
-x,-y,-z
x,1/2+y,-z
-x,y,z
x,1/2-y,z
1/2+x,1/2+y,1/2+z
1/2-x,-y,1/2+z
1/2+x,1/2-y,1/2-z
1/2-x,y,1/2-z
1/2-x,1/2-y,1/2-z
1/2+x,y,1/2-z
1/2-x,1/2+y,1/2+z
1/2+x,-y,1/2+z
loop_
_atom_site_type_symbol
_atom_site_label
_atom_site_fract_x
_atom_site_fract_y
_atom_site_fract_z
Si Si1 0.628130 0.250000 0.360009
Si Si2 0.500000 0.750000 0.728571
Si Si3 0.309509 0.540589 0.121277
Si Si4 0.500000 0.045680 0.803015
Si Si5 0.500000 0.960046 0.052521
O O1 0.500000 0.250000 0.379196
O O2 0.606031 0.250000 0.306006
O O3 0.699492 0.420843 0.373812
O O4 0.500000 0.582022 0.760806
O O5 0.285319 0.750000 0.117475
O O6 0.390837 0.515896 0.164854
O O7 0.387506 0.480064 0.079095
O O8 0.500000 0.250000 0.789429
O O9 0.500000 0.750000 0.058703
O O10 0.500000 0.000000 0.000000
#
# Coordination Sequence:
#
# PCOD9539626 Si02
#       5
#     8   4  16   8   8
#     4  10  23  35  50  74 106 156 188 216 248 312
#     4  10  22  34  46  80 106 140 208 218 238 314
#     4   9  19  36  54  77 110 140 170 220 281 318
#     4   9  18  33  54  77 107 137 175 235 286 305
#     4   9  19  33  58  94 106 122 164 219 284 337
#
# _framework density 16.588457999999999
#
# number of rings (size 3 to 8) (size 9 to 14) (size 15 to 20)
#    0.545    2.182    0.000    3.273    2.545    6.545 
#    0.000    3.636    0.000    1.091    0.000    0.000 
#    0.000    0.000    0.000    0.000    0.000    0.000 
#
# Total GULP energy -122583.799742 kJ/mol
# GULP energy per Si atom -5571.990897 kJ/mol
# Density = 1.655070 g / cm^3
# Si number density = 16.588458 Si / 1000 Ang^3
#
#
#
# Elastic Constant Matrix: (Units=GPa)
#
#
# Indices 1 2 3 4 5 6 
#
# 1 145.6858 80.8394 54.0680 0.0000 0.0000 0.0000
# 2 80.8394 89.2253 49.5494 0.0000 0.0000 0.0000
# 3 54.0680 49.5494 117.0775 0.0000 0.0000 0.0000
# 4 0.0000 0.0000 0.0000 26.5727 0.0000 0.0000
# 5 0.0000 0.0000 0.0000 0.0000 28.1552 0.0000
# 6 0.0000 0.0000 0.0000 0.0000 0.0000 86.6146
#
#
#
# Elastic Compliance Matrix: (Units=1/GPa)
#
#
# Indices 1 2 3 4 5 6 
#
# 1 0.013985 -0.011875 -0.001433 0.000000 0.000000 0.000000
# 2 -0.011875 0.024734 -0.004984 0.000000 0.000000 0.000000
# 3 -0.001433 -0.004984 0.011312 0.000000 0.000000 0.000000
# 4 0.000000 0.000000 0.000000 0.037633 0.000000 0.000000
# 5 0.000000 0.000000 0.000000 0.000000 0.035517 0.000000
# 6 0.000000 0.000000 0.000000 0.000000 0.000000 0.011545
#
#
# Mechanical properties :
#
#
# Convention : Reuss Voigt Hill
#
# Bulk Modulus (GPa) = 74.35956 80.10026 77.22991
# Shear Modulus (GPa) = 28.44239 39.43727 33.93983
#
# Velocity S-wave (km/s) = 4.14525 4.88114 4.52817
# Velocity P-wave (km/s) = 8.23615 8.95315 8.60213
#
# Compressibility (1/GPa) = 0.01344817
#
# Stress axis : x y z
#
# Youngs Moduli (GPa) = 71.50402 40.42956 88.39912
#
# Poissons Ratio (x) = 0.48011 0.12666
# Poissons Ratio (y) = 0.84912 0.44058
# Poissons Ratio (z) = 0.10245 0.20150
#
# Static dielectric constant tensor:
#      x y z
#    x 1.547870 0.000000 0.000000 
#    y 0.000000 1.571640 0.000000 
#    z 0.000000 0.000000 1.574520 
# 
# From -- ./inp_files/69498.got.cif
#   From: 2010.05.17/outbox.cif.g08.bks.cpg/sg74_35_cif.got.tgz:69498.got - 2010.06.03 17:57:02.
