data_PCOD9539977
_publ_section_title
;
Structure prediction by ZEFSAII (Michael W. Deem and Ramdas Pophale) SiO2 
 PCOD9539977
Probable space group: I M M A
;
_chemical_formula_sum "Si O2"
_cell_formula_units_Z 88
_cell_length_a 18.038655
_cell_length_b 11.131840
_cell_length_c 22.115581
_cell_angle_alpha 90.000000
_cell_angle_beta 90.000000
_cell_angle_gamma 90.000000
_cell_volume 4440.884328
_symmetry_space_group_name_H-M "I M M A"
_symmetry_group_IT_number 74
_symmetry_cell_setting 'orthorhombic'
loop_
_space_group_symop_operation_xyz
x,y,z
-x,1/2-y,z
x,-y,-z
-x,1/2+y,-z
-x,-y,-z
x,1/2+y,-z
-x,y,z
x,1/2-y,z
1/2+x,1/2+y,1/2+z
1/2-x,-y,1/2+z
1/2+x,1/2-y,1/2-z
1/2-x,y,1/2-z
1/2-x,1/2-y,1/2-z
1/2+x,y,1/2-z
1/2-x,1/2+y,1/2+z
1/2+x,-y,1/2+z
loop_
_atom_site_type_symbol
_atom_site_label
_atom_site_fract_x
_atom_site_fract_y
_atom_site_fract_z
Si Si1 0.500000 0.395021 0.949113
Si Si2 0.761131 0.750000 0.644502
Si Si3 0.268920 0.992801 0.570426
Si Si4 0.582940 0.987283 0.253766
Si Si5 0.358780 0.887064 0.137237
Si Si6 0.413256 0.890897 0.385743
Si Si7 0.868419 0.750000 0.755165
O O1 0.500000 0.250000 0.967574
O O2 0.573392 0.414467 0.908281
O O3 0.500000 0.500000 0.000000
O O4 0.752030 0.633270 0.602092
O O5 0.834545 0.750000 0.686824
O O6 0.696621 0.750000 0.694976
O O7 0.250558 0.000000 0.500000
O O8 0.218250 0.089894 0.604352
O O9 0.354737 0.026881 0.579516
O O10 0.500000 0.951266 0.234634
O O11 0.586637 0.128678 0.265709
O O12 0.636791 0.962503 0.198351
O O13 0.600809 0.916086 0.314655
O O14 0.367630 0.750000 0.155664
O O15 0.500000 0.919935 0.397000
O O16 0.402128 0.750000 0.399232
#
# Coordination Sequence:
#
# PCOD9539977 Si02
#       7
#     8   8  16  16  16  16   8
#     4  10  22  44  62  90 134 176 223 272 319 382
#     4  11  24  42  66  94 130 170 206 277 324 373
#     4  12  26  44  66  92 128 170 220 261 319 384
#     4  11  21  39  65  95 130 166 212 261 326 385
#     4  11  23  40  64  94 127 171 217 264 318 380
#     4  10  23  43  67  95 125 162 208 268 323 383
#     4  11  21  42  62  94 137 166 211 266 330 388
#
# _framework density 19.815873
#
# number of rings (size 3 to 8) (size 9 to 14) (size 15 to 20)
#    0.000    1.091    4.545    1.909    2.545    1.818 
#    3.273    2.273    0.000    0.000    0.000    0.000 
#    0.000    0.000    0.000    0.000    0.000    0.000 
#
# Total GULP energy -245717.205704 kJ/mol
# GULP energy per Si atom -5584.481948 kJ/mol
# Density = 1.977077 g / cm^3
# Si number density = 19.815873 Si / 1000 Ang^3
#
#
#
# Elastic Constant Matrix: (Units=GPa)
#
#
# Indices 1 2 3 4 5 6 
#
# 1 42.9468 -14.3200 -7.3461 0.0000 0.0000 0.0000
# 2 -14.3200 61.3646 -5.4750 0.0000 0.0000 0.0000
# 3 -7.3461 -5.4750 49.7018 0.0000 0.0000 0.0000
# 4 0.0000 0.0000 0.0000 17.0431 0.0000 0.0000
# 5 0.0000 0.0000 0.0000 0.0000 27.3625 0.0000
# 6 0.0000 0.0000 0.0000 0.0000 0.0000 29.3834
#
#
#
# Elastic Compliance Matrix: (Units=1/GPa)
#
#
# Indices 1 2 3 4 5 6 
#
# 1 0.026251 0.006536 0.004600 0.000000 0.000000 0.000000
# 2 0.006536 0.018085 0.002958 0.000000 0.000000 0.000000
# 3 0.004600 0.002958 0.021126 0.000000 0.000000 0.000000
# 4 0.000000 0.000000 0.000000 0.058675 0.000000 0.000000
# 5 0.000000 0.000000 0.000000 0.000000 0.036546 0.000000
# 6 0.000000 0.000000 0.000000 0.000000 0.000000 0.034033
#
#
# Mechanical properties :
#
#
# Convention : Reuss Voigt Hill
#
# Bulk Modulus (GPa) = 10.67793 11.08124 10.87959
# Shear Modulus (GPa) = 25.28526 26.83476 26.06001
#
# Velocity S-wave (km/s) = 3.57600 3.68395 3.63038
# Velocity P-wave (km/s) = 4.73821 4.86821 4.80365
#
# Compressibility (1/GPa) = 0.09365107
#
# Stress axis : x y z
#
# Youngs Moduli (GPa) = 38.09394 55.29358 47.33561
#
# Poissons Ratio (x) = -0.36142 -0.21774
# Poissons Ratio (y) = -0.24899 -0.14003
# Poissons Ratio (z) = -0.17523 -0.16358
#
# Static dielectric constant tensor:
#      x y z
#    x 1.693490 0.000000 0.000000 
#    y 0.000000 1.678380 0.000000 
#    z 0.000000 0.000000 1.668820 
# 
# From -- ./inp_files/52912.got.cif
#   From: 2010.05.17/outbox.cif.g08.bks.cpg/sg74_27_cif.got.tgz:52912.got - 2010.06.03 17:57:02.
