data_PCOD9539905
_publ_section_title
;
Structure prediction by ZEFSAII (Michael W. Deem and Ramdas Pophale) SiO2 
 PCOD9539905
Probable space group: I M M A
;
_chemical_formula_sum "Si O2"
_cell_formula_units_Z 64
_cell_length_a 16.937539
_cell_length_b 9.666542
_cell_length_c 20.316022
_cell_angle_alpha 90.000000
_cell_angle_beta 90.000000
_cell_angle_gamma 90.000000
_cell_volume 3326.290113
_symmetry_space_group_name_H-M "I M M A"
_symmetry_group_IT_number 74
_symmetry_cell_setting 'orthorhombic'
loop_
_space_group_symop_operation_xyz
x,y,z
-x,1/2-y,z
x,-y,-z
-x,1/2+y,-z
-x,-y,-z
x,1/2+y,-z
-x,y,z
x,1/2-y,z
1/2+x,1/2+y,1/2+z
1/2-x,-y,1/2+z
1/2+x,1/2-y,1/2-z
1/2-x,y,1/2-z
1/2-x,1/2-y,1/2-z
1/2+x,y,1/2-z
1/2-x,1/2+y,1/2+z
1/2+x,-y,1/2+z
loop_
_atom_site_type_symbol
_atom_site_label
_atom_site_fract_x
_atom_site_fract_y
_atom_site_fract_z
Si Si1 0.844266 0.500000 0.000000
Si Si2 0.409848 0.250000 0.414724
Si Si3 0.660987 0.250000 0.276461
Si Si4 0.096476 0.750000 0.566301
Si Si5 0.265792 0.250000 0.956387
Si Si6 0.406968 0.468305 0.180652
Si Si7 0.185599 0.750000 0.307663
O O1 0.895310 0.393685 0.045098
O O2 0.785507 0.612505 0.031505
O O3 0.500000 0.250000 0.390460
O O4 0.348325 0.250000 0.354395
O O5 0.750000 0.250000 0.250000
O O6 0.617380 0.121475 0.243452
O O7 0.155267 0.750000 0.503271
O O8 0.114581 0.617964 0.614012
O O9 0.000000 0.750000 0.552035
O O10 0.279000 0.250000 0.879680
O O11 0.500000 0.484011 0.177258
O O12 0.366410 0.613099 0.192105
O O13 0.250000 0.750000 0.250000
#
# Coordination Sequence:
#
# PCOD9539905 Si02
#       7
#     8   8   8   8   8  16   8
#     4  10  25  40  69  96 124 164 212 276 323 382
#     4  11  24  46  70  95 127 166 214 269 328 380
#     4  11  24  39  71  94 124 168 217 258 311 382
#     4   9  20  40  70  97 127 168 217 265 320 393
#     4  11  23  41  62  95 135 168 214 261 326 376
#     4  10  22  41  63  95 129 165 212 264 316 381
#     4  12  26  38  59  90 134 175 213 260 316 376
#
# _framework density 19.240655
#
# number of rings (size 3 to 8) (size 9 to 14) (size 15 to 20)
#    0.000    1.500    0.000    4.875   14.000    1.000 
#    0.000    3.125    0.000    0.000    0.000    0.000 
#    0.000    0.000    0.000    0.000    0.000    0.000 
#
# Total GULP energy -178440.831750 kJ/mol
# GULP energy per Si atom -5576.275992 kJ/mol
# Density = 1.919686 g / cm^3
# Si number density = 19.240655 Si / 1000 Ang^3
#
#
#
# Elastic Constant Matrix: (Units=GPa)
#
#
# Indices 1 2 3 4 5 6 
#
# 1 103.1368 53.4280 50.3985 0.0000 0.0000 0.0000
# 2 53.4280 169.9787 47.5073 0.0000 0.0000 0.0000
# 3 50.3985 47.5073 108.0283 0.0000 0.0000 0.0000
# 4 0.0000 0.0000 0.0000 -5.0188 0.0000 0.0000
# 5 0.0000 0.0000 0.0000 0.0000 28.3378 0.0000
# 6 0.0000 0.0000 0.0000 0.0000 0.0000 30.1447
#
#
#
# Elastic Compliance Matrix: (Units=1/GPa)
#
#
# Indices 1 2 3 4 5 6 
#
# 1 0.013686 -0.002870 -0.005123 0.000000 0.000000 0.000000
# 2 -0.002870 0.007309 -0.001875 0.000000 0.000000 0.000000
# 3 -0.005123 -0.001875 0.012472 0.000000 0.000000 0.000000
# 4 0.000000 0.000000 0.000000 -0.199250 0.000000 0.000000
# 5 0.000000 0.000000 0.000000 0.000000 0.035289 0.000000
# 6 0.000000 0.000000 0.000000 0.000000 0.000000 0.033173
#
#
# Mechanical properties :
#
#
# Convention : Reuss Voigt Hill
#
# Bulk Modulus (GPa) = 72.83155 75.97905 74.40530
# Shear Modulus (GPa) = -68.48539 26.01341 -21.23599
#
# Velocity S-wave (km/s) = -5.97255 3.68095 -3.32581
# Velocity P-wave (km/s) = 3.10270 7.59213 4.89968
#
# Compressibility (1/GPa) = 0.01373031
#
# Stress axis : x y z
#
# Youngs Moduli (GPa) = 73.06798 136.81063 80.18267
#
# Poissons Ratio (x) = 0.39265 0.41076
# Poissons Ratio (y) = 0.20971 0.15038
# Poissons Ratio (z) = 0.37431 0.25658
#
# Static dielectric constant tensor:
#      x y z
#    x 2.579770 0.000000 0.000000 
#    y 0.000000 1.616860 0.000000 
#    z 0.000000 0.000000 1.693740 
# 
# From -- ./inp_files/59567.got.cif
#   From: 2010.05.17/outbox.cif.g08.bks.cpg/sg74_30_cif.got.tgz:59567.got - 2010.06.03 17:57:02.
