data_PCOD9539772
_publ_section_title
;
Structure prediction by ZEFSAII (Michael W. Deem and Ramdas Pophale) SiO2 
 PCOD9539772
Probable space group: I M M A
;
_chemical_formula_sum "Si O2"
_cell_formula_units_Z 68
_cell_length_a 7.420776
_cell_length_b 17.616587
_cell_length_c 22.655128
_cell_angle_alpha 90.000000
_cell_angle_beta 90.000000
_cell_angle_gamma 90.000000
_cell_volume 2961.676474
_symmetry_space_group_name_H-M "I M M A"
_symmetry_group_IT_number 74
_symmetry_cell_setting 'orthorhombic'
loop_
_space_group_symop_operation_xyz
x,y,z
-x,1/2-y,z
x,-y,-z
-x,1/2+y,-z
-x,-y,-z
x,1/2+y,-z
-x,y,z
x,1/2-y,z
1/2+x,1/2+y,1/2+z
1/2-x,-y,1/2+z
1/2+x,1/2-y,1/2-z
1/2-x,y,1/2-z
1/2-x,1/2-y,1/2-z
1/2+x,y,1/2-z
1/2-x,1/2+y,1/2+z
1/2+x,-y,1/2+z
loop_
_atom_site_type_symbol
_atom_site_label
_atom_site_fract_x
_atom_site_fract_y
_atom_site_fract_z
Si Si1 0.290783 0.577671 0.529595
Si Si2 0.293118 0.117686 0.161020
Si Si3 0.718274 0.664900 0.086036
Si Si4 0.285789 0.550525 0.185563
Si Si5 0.000000 0.250000 0.183227
O O1 0.216697 0.500000 0.500000
O O2 0.500000 0.563140 0.543884
O O3 0.203539 0.605802 0.589897
O O4 0.276897 0.640554 0.479008
O O5 0.500000 0.131938 0.180959
O O6 0.158686 0.183785 0.178790
O O7 0.222080 0.036075 0.183382
O O8 0.500000 0.663723 0.086835
O O9 0.776586 0.750000 0.100538
O O10 0.784680 0.603121 0.133172
O O11 0.500000 0.545125 0.176945
O O12 0.250000 0.583725 0.250000
#
# Coordination Sequence:
#
# PCOD9539772 Si02
#       5
#    16  16  16  16   4
#     4  11  22  37  62  95 133 177 223 270 327 398
#     4  11  24  43  67  98 132 176 225 274 339 404
#     4  10  22  39  61  96 134 173 219 272 327 391
#     4  10  23  42  68  92 124 173 224 273 335 400
#     4  12  26  44  68  98 136 168 220 284 344 400
#
# _framework density 22.959969000000001
#
# number of rings (size 3 to 8) (size 9 to 14) (size 15 to 20)
#    0.000    1.412    3.529    1.059    3.294    2.824 
#    0.000    0.588    0.000    0.000    0.000    0.000 
#    0.000    0.000    0.000    0.000    0.000    0.000 
#
# Total GULP energy -189754.091068 kJ/mol
# GULP energy per Si atom -5581.002678 kJ/mol
# Density = 2.290771 g / cm^3
# Si number density = 22.959969 Si / 1000 Ang^3
#
#
#
# Elastic Constant Matrix: (Units=GPa)
#
#
# Indices 1 2 3 4 5 6 
#
# 1 121.1020 33.2225 -5.8678 0.0000 0.0000 0.0000
# 2 33.2225 130.8888 17.4144 0.0000 0.0000 0.0000
# 3 -5.8678 17.4144 113.6869 0.0000 0.0000 0.0000
# 4 0.0000 0.0000 0.0000 -32.1635 0.0000 0.0000
# 5 0.0000 0.0000 0.0000 0.0000 17.7195 0.0000
# 6 0.0000 0.0000 0.0000 0.0000 0.0000 32.1333
#
#
#
# Elastic Compliance Matrix: (Units=1/GPa)
#
#
# Indices 1 2 3 4 5 6 
#
# 1 0.008951 -0.002382 0.000827 0.000000 0.000000 0.000000
# 2 -0.002382 0.008433 -0.001415 0.000000 0.000000 0.000000
# 3 0.000827 -0.001415 0.009055 0.000000 0.000000 0.000000
# 4 0.000000 0.000000 0.000000 -0.031091 0.000000 0.000000
# 5 0.000000 0.000000 0.000000 0.000000 0.056435 0.000000
# 6 0.000000 0.000000 0.000000 0.000000 0.000000 0.031120
#
#
# Mechanical properties :
#
#
# Convention : Reuss Voigt Hill
#
# Bulk Modulus (GPa) = 48.78103 50.57957 49.68030
# Shear Modulus (GPa) = 52.25934 24.93174 38.59554
#
# Velocity S-wave (km/s) = 4.77603 3.29884 4.10444
# Velocity P-wave (km/s) = 7.19070 6.04873 6.64430
#
# Compressibility (1/GPa) = 0.02049977
#
# Stress axis : x y z
#
# Youngs Moduli (GPa) = 111.71897 118.58321 110.43059
#
# Poissons Ratio (x) = 0.28246 -0.09131
# Poissons Ratio (y) = 0.26611 0.15622
# Poissons Ratio (z) = -0.09238 0.16776
#
# Static dielectric constant tensor:
#      x y z
#    x 1.862070 0.000000 0.000000 
#    y 0.000000 1.827190 0.000000 
#    z 0.000000 0.000000 2.001980 
# 
# From -- ./inp_files/48124.got.cif
#   From: 2010.05.17/outbox.cif.g08.bks.cpg/sg74_25_cif.got.tgz:48124.got - 2010.06.03 17:57:02.
