data_PCOD9539570
_publ_section_title
;
Structure prediction by ZEFSAII (Michael W. Deem and Ramdas Pophale) SiO2 
 PCOD9539570
Probable space group: I M M A
;
_chemical_formula_sum "Si O2"
_cell_formula_units_Z 48
_cell_length_a 25.879883
_cell_length_b 16.064812
_cell_length_c 4.669806
_cell_angle_alpha 90.000000
_cell_angle_beta 90.000000
_cell_angle_gamma 90.000000
_cell_volume 1941.497318
_symmetry_space_group_name_H-M "I M M A"
_symmetry_group_IT_number 74
_symmetry_cell_setting 'orthorhombic'
loop_
_space_group_symop_operation_xyz
x,y,z
-x,1/2-y,z
x,-y,-z
-x,1/2+y,-z
-x,-y,-z
x,1/2+y,-z
-x,y,z
x,1/2-y,z
1/2+x,1/2+y,1/2+z
1/2-x,-y,1/2+z
1/2+x,1/2-y,1/2-z
1/2-x,y,1/2-z
1/2-x,1/2-y,1/2-z
1/2+x,y,1/2-z
1/2-x,1/2+y,1/2+z
1/2+x,-y,1/2+z
loop_
_atom_site_type_symbol
_atom_site_label
_atom_site_fract_x
_atom_site_fract_y
_atom_site_fract_z
Si Si1 0.558213 0.656275 0.177851
Si Si2 0.385257 0.416396 0.314301
Si Si3 0.287957 0.156040 0.987876
O O1 0.500000 0.643590 0.288479
O O2 0.561666 0.750000 0.058871
O O3 0.598847 0.647477 0.435621
O O4 0.570217 0.592245 0.923515
O O5 0.379843 0.500000 0.500000
O O6 0.335616 0.394068 0.121367
O O7 0.303931 0.250000 0.890069
O O8 0.250000 0.116571 0.750000
O O9 0.250000 0.166616 0.250000
#
# Coordination Sequence:
#
# PCOD9539570 Si02
#       3
#    16  16  16
#     4  11  24  43  68  98 138 192 246 292 344 416
#     4  12  25  42  67 103 145 183 230 294 364 423
#     4  10  21  40  68  97 128 174 231 288 345 414
#
# _framework density 24.723188
#
# number of rings (size 3 to 8) (size 9 to 14) (size 15 to 20)
#    0.000    1.000    0.000    7.000    0.000    9.333 
#    0.000    5.000    0.000    0.000    0.000    0.000 
#    0.000    6.667    0.000    0.000    0.000    0.000 
#
# Total GULP energy -134098.883083 kJ/mol
# GULP energy per Si atom -5587.453462 kJ/mol
# Density = 2.466692 g / cm^3
# Si number density = 24.723188 Si / 1000 Ang^3
#
#
#
# Elastic Constant Matrix: (Units=GPa)
#
#
# Indices 1 2 3 4 5 6 
#
# 1 136.5710 62.6295 58.5228 0.0000 0.0000 0.0000
# 2 62.6295 120.6004 44.8213 0.0000 0.0000 0.0000
# 3 58.5228 44.8213 160.7305 0.0000 0.0000 0.0000
# 4 0.0000 0.0000 0.0000 45.0977 0.0000 0.0000
# 5 0.0000 0.0000 0.0000 0.0000 59.4208 0.0000
# 6 0.0000 0.0000 0.0000 0.0000 0.0000 -4.4005
#
#
#
# Elastic Compliance Matrix: (Units=1/GPa)
#
#
# Indices 1 2 3 4 5 6 
#
# 1 0.010480 -0.004489 -0.002564 0.000000 0.000000 0.000000
# 2 -0.004489 0.011174 -0.001481 0.000000 0.000000 0.000000
# 3 -0.002564 -0.001481 0.007568 0.000000 0.000000 0.000000
# 4 0.000000 0.000000 0.000000 0.022174 0.000000 0.000000
# 5 0.000000 0.000000 0.000000 0.000000 0.016829 0.000000
# 6 0.000000 0.000000 0.000000 0.000000 0.000000 -0.227245
#
#
# Mechanical properties :
#
#
# Convention : Reuss Voigt Hill
#
# Bulk Modulus (GPa) = 82.28687 83.31658 82.80172
# Shear Modulus (GPa) = -36.25800 36.81883 0.28042
#
# Velocity S-wave (km/s) = -3.83372 3.86326 0.33715
# Velocity P-wave (km/s) = 3.70931 7.32616 5.80653
#
# Compressibility (1/GPa) = 0.01215261
#
# Stress axis : x y z
#
# Youngs Moduli (GPa) = 95.42380 89.49529 132.13267
#
# Poissons Ratio (x) = 0.40178 0.33876
# Poissons Ratio (y) = 0.42839 0.19573
# Poissons Ratio (z) = 0.24464 0.13257
#
# Static dielectric constant tensor:
#      x y z
#    x 1.801560 0.000000 0.000000 
#    y 0.000000 2.044270 0.000000 
#    z 0.000000 0.000000 1.803330 
# 
# From -- ./inp_files/1325.got.cif
#   From: 2010.05.17/outbox.cif.g08.bks.cpg/sg74_1_cif.got.tgz:1325.got - 2010.06.03 17:57:02.
