data_PCOD9539843
_publ_section_title
;
Structure prediction by ZEFSAII (Michael W. Deem and Ramdas Pophale) SiO2 
 PCOD9539843
Probable space group: I M M A
;
_chemical_formula_sum "Si O2"
_cell_formula_units_Z 88
_cell_length_a 27.173989
_cell_length_b 14.080817
_cell_length_c 11.951589
_cell_angle_alpha 90.000000
_cell_angle_beta 90.000000
_cell_angle_gamma 90.000000
_cell_volume 4573.059999
_symmetry_space_group_name_H-M "I M M A"
_symmetry_group_IT_number 74
_symmetry_cell_setting 'orthorhombic'
loop_
_space_group_symop_operation_xyz
x,y,z
-x,1/2-y,z
x,-y,-z
-x,1/2+y,-z
-x,-y,-z
x,1/2+y,-z
-x,y,z
x,1/2-y,z
1/2+x,1/2+y,1/2+z
1/2-x,-y,1/2+z
1/2+x,1/2-y,1/2-z
1/2-x,y,1/2-z
1/2-x,1/2-y,1/2-z
1/2+x,y,1/2-z
1/2-x,1/2+y,1/2+z
1/2+x,-y,1/2+z
loop_
_atom_site_type_symbol
_atom_site_label
_atom_site_fract_x
_atom_site_fract_y
_atom_site_fract_z
Si Si1 0.352459 0.547742 0.173436
Si Si2 0.558500 0.250000 0.936267
Si Si3 0.054994 0.750000 0.798813
Si Si4 0.125339 0.250000 0.774571
Si Si5 0.280092 0.500000 0.000000
Si Si6 0.441804 0.412190 0.113727
Si Si7 0.791385 0.401734 0.171714
Si Si8 0.644918 0.750000 0.539957
O O1 0.353943 0.647096 0.238256
O O2 0.404119 0.498185 0.136688
O O3 0.326027 0.467916 0.251213
O O4 0.318147 0.567300 0.065407
O O5 0.500000 0.250000 0.936611
O O6 0.577510 0.250000 0.809139
O O7 0.572723 0.156790 0.009553
O O8 0.061029 0.658549 0.719562
O O9 0.093832 0.750000 0.895467
O O10 0.000000 0.750000 0.844064
O O11 0.131764 0.250000 0.908930
O O12 0.243864 0.537981 0.907045
O O13 0.500000 0.439660 0.102807
O O14 0.750000 0.351886 0.250000
O O15 0.823921 0.337924 0.089502
#
# Coordination Sequence:
#
# PCOD9539843 Si02
#       8
#    16   8   8   8   8  16  16   8
#     4  11  22  41  61  90 128 166 214 260 320 383
#     4   9  20  39  61  94 128 158 202 252 313 382
#     4   9  18  36  65 100 122 151 206 265 320 372
#     4  12  27  36  56  87 129 174 197 250 318 383
#     4  10  22  40  63  86 123 164 210 268 318 386
#     4   9  18  38  70  95 120 157 208 270 319 371
#     4  10  22  40  63  90 118 160 216 269 316 375
#     4  12  22  41  64  91 127 165 210 264 315 385
#
# _framework density 19.243131999999999
#
# number of rings (size 3 to 8) (size 9 to 14) (size 15 to 20)
#    0.000    1.818    1.818    3.545    0.000    1.818 
#    0.000    7.273    0.000    2.182    0.000    0.000 
#    0.000    0.000    0.000    0.000    0.000    0.000 
#
# Total GULP energy -244958.802428 kJ/mol
# GULP energy per Si atom -5567.245510 kJ/mol
# Density = 1.919933 g / cm^3
# Si number density = 19.243132 Si / 1000 Ang^3
#
#
#
# Elastic Constant Matrix: (Units=GPa)
#
#
# Indices 1 2 3 4 5 6 
#
# 1 119.5345 51.8149 48.7440 0.0000 0.0000 0.0000
# 2 51.8149 90.2861 28.5922 0.0000 0.0000 0.0000
# 3 48.7440 28.5922 103.9474 0.0000 0.0000 0.0000
# 4 0.0000 0.0000 0.0000 -12.0749 0.0000 0.0000
# 5 0.0000 0.0000 0.0000 0.0000 22.8421 0.0000
# 6 0.0000 0.0000 0.0000 0.0000 0.0000 -42.5538
#
#
#
# Elastic Compliance Matrix: (Units=1/GPa)
#
#
# Indices 1 2 3 4 5 6 
#
# 1 0.012694 -0.005915 -0.004325 0.000000 0.000000 0.000000
# 2 -0.005915 0.014889 -0.001322 0.000000 0.000000 0.000000
# 3 -0.004325 -0.001322 0.012012 0.000000 0.000000 0.000000
# 4 0.000000 0.000000 0.000000 -0.082817 0.000000 0.000000
# 5 0.000000 0.000000 0.000000 0.000000 0.043779 0.000000
# 6 0.000000 0.000000 0.000000 0.000000 0.000000 -0.023500
#
#
# Mechanical properties :
#
#
# Convention : Reuss Voigt Hill
#
# Bulk Modulus (GPa) = 60.71455 63.56335 62.13895
# Shear Modulus (GPa) = 881.56837 5.95048 443.75943
#
# Velocity S-wave (km/s) = 21.42698 1.76039 15.20221
# Velocity P-wave (km/s) = 25.37270 6.10208 18.45277
#
# Compressibility (1/GPa) = 0.01647052
#
# Stress axis : x y z
#
# Youngs Moduli (GPa) = 78.77990 67.16326 83.24933
#
# Poissons Ratio (x) = 0.39727 0.36009
# Poissons Ratio (y) = 0.46599 0.11003
# Poissons Ratio (z) = 0.34075 0.08877
#
# Static dielectric constant tensor:
#      x y z
#    x 1.679660 0.000000 0.000000 
#    y 0.000000 2.359570 0.000000 
#    z 0.000000 0.000000 1.685400 
# 
# From -- ./inp_files/25055.got.cif
#   From: 2010.05.17/outbox.cif.g08.bks.cpg/sg74_13_cif.got.tgz:25055.got - 2010.06.03 17:57:02.
