data_PCOD9539529
_publ_section_title
;
Structure prediction by ZEFSAII (Michael W. Deem and Ramdas Pophale) SiO2 
 PCOD9539529
Probable space group: I M M A
;
_chemical_formula_sum "Si O2"
_cell_formula_units_Z 72
_cell_length_a 14.733825
_cell_length_b 8.594752
_cell_length_c 30.146976
_cell_angle_alpha 90.000000
_cell_angle_beta 90.000000
_cell_angle_gamma 90.000000
_cell_volume 3817.619252
_symmetry_space_group_name_H-M "I M M A"
_symmetry_group_IT_number 74
_symmetry_cell_setting 'orthorhombic'
loop_
_space_group_symop_operation_xyz
x,y,z
-x,1/2-y,z
x,-y,-z
-x,1/2+y,-z
-x,-y,-z
x,1/2+y,-z
-x,y,z
x,1/2-y,z
1/2+x,1/2+y,1/2+z
1/2-x,-y,1/2+z
1/2+x,1/2-y,1/2-z
1/2-x,y,1/2-z
1/2-x,1/2-y,1/2-z
1/2+x,y,1/2-z
1/2-x,1/2+y,1/2+z
1/2+x,-y,1/2+z
loop_
_atom_site_type_symbol
_atom_site_label
_atom_site_fract_x
_atom_site_fract_y
_atom_site_fract_z
Si Si1 0.655758 0.062057 0.137743
Si Si2 0.500000 0.062915 0.799174
Si Si3 0.500000 0.062274 0.698133
Si Si4 0.107505 0.578762 0.542997
Si Si5 0.357733 0.561628 0.376340
Si Si6 0.000000 0.437791 0.051268
O O1 0.648868 0.250000 0.140388
O O2 0.617568 0.002325 0.090449
O O3 0.590471 0.994907 0.175602
O O4 0.759317 0.008301 0.133833
O O5 0.500000 0.250000 0.799548
O O6 0.500000 0.004518 0.748324
O O7 0.500000 0.250000 0.700986
O O8 0.584632 0.019398 0.667444
O O9 0.148414 0.500000 0.500000
O O10 0.148213 0.750000 0.546370
O O11 0.000000 0.593296 0.535679
O O12 0.353676 0.750000 0.380402
O O13 0.412755 0.497304 0.419457
O O14 0.000000 0.250000 0.050398
O O15 0.000000 0.500000 0.000000
#
# Coordination Sequence:
#
# PCOD9539529 Si02
#       6
#    16   8   8  16  16   8
#     4  11  22  38  56  84 122 155 190 242 299 353
#     4  11  22  38  61  85 110 152 201 245 294 357
#     4   8  19  40  62  83 112 147 191 246 302 355
#     4   9  18  33  51  72 104 145 183 224 272 325
#     4  10  21  40  63  88 118 155 196 243 295 354
#     4  11  22  40  65  94 124 159 198 243 293 346
#
# _framework density 18.859922000000001
#
# number of rings (size 3 to 8) (size 9 to 14) (size 15 to 20)
#    0.000    2.000    1.111    3.333    0.000    3.556 
#    0.000   13.333    0.000    0.000    0.000    0.000 
#    0.000    0.000    0.000    0.000    0.000    0.000 
#
# Total GULP energy -200480.772089 kJ/mol
# GULP energy per Si atom -5568.910336 kJ/mol
# Density = 1.881700 g / cm^3
# Si number density = 18.859922 Si / 1000 Ang^3
#
#
#
# Elastic Constant Matrix: (Units=GPa)
#
#
# Indices 1 2 3 4 5 6 
#
# 1 108.4147 38.5915 64.2684 0.0000 0.0000 0.0000
# 2 38.5915 72.2055 49.6396 0.0000 0.0000 0.0000
# 3 64.2684 49.6396 196.6864 0.0000 0.0000 0.0000
# 4 0.0000 0.0000 0.0000 23.9653 0.0000 0.0000
# 5 0.0000 0.0000 0.0000 0.0000 -113.4182 0.0000
# 6 0.0000 0.0000 0.0000 0.0000 0.0000 11.1590
#
#
#
# Elastic Compliance Matrix: (Units=1/GPa)
#
#
# Indices 1 2 3 4 5 6 
#
# 1 0.012654 -0.004744 -0.002938 0.000000 0.000000 0.000000
# 2 -0.004744 0.018535 -0.003128 0.000000 0.000000 0.000000
# 3 -0.002938 -0.003128 0.006833 0.000000 0.000000 0.000000
# 4 0.000000 0.000000 0.000000 0.041727 0.000000 0.000000
# 5 0.000000 0.000000 0.000000 0.000000 -0.008817 0.000000
# 6 0.000000 0.000000 0.000000 0.000000 0.000000 0.089614
#
#
# Mechanical properties :
#
#
# Convention : Reuss Voigt Hill
#
# Bulk Modulus (GPa) = 60.95944 75.81175 68.38560
# Shear Modulus (GPa) = 26.64787 -0.67165 12.98811
#
# Velocity S-wave (km/s) = 3.76298 -0.59741 2.62708
# Velocity P-wave (km/s) = 7.16048 6.30941 6.74837
#
# Compressibility (1/GPa) = 0.01640435
#
# Stress axis : x y z
#
# Youngs Moduli (GPa) = 79.02815 53.95214 146.33811
#
# Poissons Ratio (x) = 0.25592 0.42987
# Poissons Ratio (y) = 0.37487 0.45772
# Poissons Ratio (z) = 0.23215 0.16875
#
# Static dielectric constant tensor:
#      x y z
#    x 1.440850 0.000000 0.000000 
#    y 0.000000 1.963420 0.000000 
#    z 0.000000 0.000000 1.674820 
# 
# From -- ./inp_files/72302.got.cif
#   From: 2010.05.17/outbox.cif.g08.bks.cpg/sg74_37_cif.got.tgz:72302.got - 2010.06.03 17:57:02.
