data_PCOD9539638
_publ_section_title
;
Structure prediction by ZEFSAII (Michael W. Deem and Ramdas Pophale) SiO2 
 PCOD9539638
Probable space group: I M M A
;
_chemical_formula_sum "Si O2"
_cell_formula_units_Z 76
_cell_length_a 20.176756
_cell_length_b 15.615736
_cell_length_c 11.559772
_cell_angle_alpha 90.000000
_cell_angle_beta 90.000000
_cell_angle_gamma 90.000000
_cell_volume 3642.193949
_symmetry_space_group_name_H-M "I M M A"
_symmetry_group_IT_number 74
_symmetry_cell_setting 'orthorhombic'
loop_
_space_group_symop_operation_xyz
x,y,z
-x,1/2-y,z
x,-y,-z
-x,1/2+y,-z
-x,-y,-z
x,1/2+y,-z
-x,y,z
x,1/2-y,z
1/2+x,1/2+y,1/2+z
1/2-x,-y,1/2+z
1/2+x,1/2-y,1/2-z
1/2-x,y,1/2-z
1/2-x,1/2-y,1/2-z
1/2+x,y,1/2-z
1/2-x,1/2+y,1/2+z
1/2+x,-y,1/2+z
loop_
_atom_site_type_symbol
_atom_site_label
_atom_site_fract_x
_atom_site_fract_y
_atom_site_fract_z
Si Si1 0.000000 0.250000 0.293456
Si Si2 0.733145 0.405448 0.956789
Si Si3 0.607138 0.911959 0.435108
Si Si4 0.593602 0.250000 0.419888
Si Si5 0.000000 0.651290 0.482473
Si Si6 0.250100 0.250000 0.113432
Si Si7 0.386712 0.646363 0.185008
O O1 0.062009 0.250000 0.206971
O O2 0.000000 0.167523 0.379850
O O3 0.812097 0.404124 0.934404
O O4 0.687562 0.380550 0.848998
O O5 0.716372 0.500000 0.000000
O O6 0.719017 0.333975 0.054883
O O7 0.576810 0.834744 0.508954
O O8 0.588640 0.899256 0.301508
O O9 0.590753 0.000000 0.500000
O O10 0.672649 0.250000 0.415145
O O11 0.933724 0.617547 0.422097
O O12 0.000000 0.750000 0.440695
O O13 0.250000 0.250000 0.250000
O O14 0.386984 0.750000 0.201857
#
# Coordination Sequence:
#
# PCOD9539638 Si02
#       7
#     4  16  16   8   8   8  16
#     4  10  22  42  64  86 128 162 216 262 312 376
#     4  10  22  37  61  99 128 167 206 258 321 374
#     4  10  22  40  62  99 130 156 209 260 326 379
#     4  10  22  38  62  88 119 172 201 253 323 377
#     4   8  22  39  61  91 113 164 216 256 304 367
#     4  10  22  35  60  90 129 165 208 251 323 377
#     4  11  20  40  68  88 127 166 215 263 306 379
#
# _framework density 20.866544000000001
#
# number of rings (size 3 to 8) (size 9 to 14) (size 15 to 20)
#    0.316    1.684    2.105    0.632    2.947    6.737 
#    0.000    2.632    0.000    0.000    0.000    0.000 
#    0.000    0.000    0.000    0.000    0.000    0.000 
#
# Total GULP energy -211946.966559 kJ/mol
# GULP energy per Si atom -5577.551752 kJ/mol
# Density = 2.081905 g / cm^3
# Si number density = 20.866544 Si / 1000 Ang^3
#
#
#
# Elastic Constant Matrix: (Units=GPa)
#
#
# Indices 1 2 3 4 5 6 
#
# 1 62.7716 30.6231 26.6681 0.0000 0.0000 0.0000
# 2 30.6231 134.9242 73.2601 0.0000 0.0000 0.0000
# 3 26.6681 73.2601 171.7576 0.0000 0.0000 0.0000
# 4 0.0000 0.0000 0.0000 28.6324 0.0000 0.0000
# 5 0.0000 0.0000 0.0000 0.0000 35.0252 0.0000
# 6 0.0000 0.0000 0.0000 0.0000 0.0000 5.4855
#
#
#
# Elastic Compliance Matrix: (Units=1/GPa)
#
#
# Indices 1 2 3 4 5 6 
#
# 1 0.018163 -0.003372 -0.001382 0.000000 0.000000 0.000000
# 2 -0.003372 0.010271 -0.003858 0.000000 0.000000 0.000000
# 3 -0.001382 -0.003858 0.007682 0.000000 0.000000 0.000000
# 4 0.000000 0.000000 0.000000 0.034926 0.000000 0.000000
# 5 0.000000 0.000000 0.000000 0.000000 0.028551 0.000000
# 6 0.000000 0.000000 0.000000 0.000000 0.000000 0.182298
#
#
# Mechanical properties :
#
#
# Convention : Reuss Voigt Hill
#
# Bulk Modulus (GPa) = 52.92792 70.06176 61.49484
# Shear Modulus (GPa) = 16.37138 29.75543 23.06340
#
# Velocity S-wave (km/s) = 2.80407 3.78032 3.32818
# Velocity P-wave (km/s) = 5.99197 7.25971 6.65610
#
# Compressibility (1/GPa) = 0.01889362
#
# Stress axis : x y z
#
# Youngs Moduli (GPa) = 55.05733 97.35733 130.17340
#
# Poissons Ratio (x) = 0.32830 0.17987
# Poissons Ratio (y) = 0.18566 0.50215
# Poissons Ratio (z) = 0.07608 0.37556
#
# Static dielectric constant tensor:
#      x y z
#    x 1.799340 0.000000 0.000000 
#    y 0.000000 1.727260 0.000000 
#    z 0.000000 0.000000 1.720340 
# 
# From -- ./inp_files/24942.got.cif
#   From: 2010.05.17/outbox.cif.g08.bks.cpg/sg74_13_cif.got.tgz:24942.got - 2010.06.03 17:57:02.
