data_PCOD9539443
_publ_section_title
;
Structure prediction by ZEFSAII (Michael W. Deem and Ramdas Pophale) SiO2 
 PCOD9539443
Probable space group: I M M A
;
_chemical_formula_sum "Si O2"
_cell_formula_units_Z 88
_cell_length_a 8.370590
_cell_length_b 22.233715
_cell_length_c 24.432985
_cell_angle_alpha 90.000000
_cell_angle_beta 90.000000
_cell_angle_gamma 90.000000
_cell_volume 4547.206039
_symmetry_space_group_name_H-M "I M M A"
_symmetry_group_IT_number 74
_symmetry_cell_setting 'orthorhombic'
loop_
_space_group_symop_operation_xyz
x,y,z
-x,1/2-y,z
x,-y,-z
-x,1/2+y,-z
-x,-y,-z
x,1/2+y,-z
-x,y,z
x,1/2-y,z
1/2+x,1/2+y,1/2+z
1/2-x,-y,1/2+z
1/2+x,1/2-y,1/2-z
1/2-x,y,1/2-z
1/2-x,1/2-y,1/2-z
1/2+x,y,1/2-z
1/2-x,1/2+y,1/2+z
1/2+x,-y,1/2+z
loop_
_atom_site_type_symbol
_atom_site_label
_atom_site_fract_x
_atom_site_fract_y
_atom_site_fract_z
Si Si1 0.808920 0.681394 0.811774
Si Si2 0.814299 0.974102 0.059212
Si Si3 0.808007 0.250000 0.687173
Si Si4 0.812379 0.315931 0.019490
Si Si5 0.817096 0.910257 0.600479
Si Si6 0.809336 0.846369 0.403583
O O1 0.769864 0.750000 0.828329
O O2 0.750000 0.674099 0.750000
O O3 0.724981 0.633129 0.849763
O O4 0.000000 0.674625 0.815167
O O5 0.730039 0.917044 0.087470
O O6 0.000000 0.957625 0.050600
O O7 0.794336 0.031714 0.097824
O O8 0.753304 0.000000 0.000000
O O9 0.750000 0.250000 0.750000
O O10 0.761201 0.190458 0.651295
O O11 0.000000 0.250000 0.689292
O O12 0.765841 0.250000 0.040484
O O13 0.715723 0.369057 0.047457
O O14 0.000000 0.324831 0.031128
O O15 0.780255 0.317483 0.955195
O O16 0.000000 0.929999 0.601723
O O17 0.000000 0.838181 0.409628
#
# Coordination Sequence:
#
# PCOD9539443 Si02
#       6
#    16  16   8  16  16  16
#     4  10  21  39  62  87 119 158 201 249 298 352
#     4  11  23  39  60  88 123 163 205 248 305 373
#     4  10  24  44  68  96 126 162 207 258 311 372
#     4  11  22  35  55  86 122 160 200 246 303 364
#     4  12  24  37  58  87 122 162 204 250 300 359
#     4  11  22  39  62  91 122 155 200 251 308 370
#
# _framework density 19.352542
#
# number of rings (size 3 to 8) (size 9 to 14) (size 15 to 20)
#    0.000    1.091    2.727    4.364    0.000    6.545 
#    0.000    0.909    0.000    2.182    0.000    0.000 
#    0.000    0.000    0.000    0.000    0.000    0.000 
#
# Total GULP energy -245707.786234 kJ/mol
# GULP energy per Si atom -5584.267869 kJ/mol
# Density = 1.930850 g / cm^3
# Si number density = 19.352542 Si / 1000 Ang^3
#
#
#
# Elastic Constant Matrix: (Units=GPa)
#
#
# Indices 1 2 3 4 5 6 
#
# 1 31.9925 9.0336 3.3575 0.0000 0.0000 0.0000
# 2 9.0336 121.5540 44.0613 0.0000 0.0000 0.0000
# 3 3.3575 44.0613 112.7424 0.0000 0.0000 0.0000
# 4 0.0000 0.0000 0.0000 8.1169 0.0000 0.0000
# 5 0.0000 0.0000 0.0000 0.0000 30.2720 0.0000
# 6 0.0000 0.0000 0.0000 0.0000 0.0000 23.2234
#
#
#
# Elastic Compliance Matrix: (Units=1/GPa)
#
#
# Indices 1 2 3 4 5 6 
#
# 1 0.031927 -0.002363 -0.000027 0.000000 0.000000 0.000000
# 2 -0.002363 0.009759 -0.003744 0.000000 0.000000 0.000000
# 3 -0.000027 -0.003744 0.010334 0.000000 0.000000 0.000000
# 4 0.000000 0.000000 0.000000 0.123200 0.000000 0.000000
# 5 0.000000 0.000000 0.000000 0.000000 0.033034 0.000000
# 6 0.000000 0.000000 0.000000 0.000000 0.000000 0.043060
#
#
# Mechanical properties :
#
#
# Convention : Reuss Voigt Hill
#
# Bulk Modulus (GPa) = 25.15561 42.13263 33.64412
# Shear Modulus (GPa) = 18.06144 26.31158 22.18651
#
# Velocity S-wave (km/s) = 3.05829 3.69127 3.38958
# Velocity P-wave (km/s) = 5.04952 6.32342 5.72203
#
# Compressibility (1/GPa) = 0.03975257
#
# Stress axis : x y z
#
# Youngs Moduli (GPa) = 31.32109 102.46475 96.77066
#
# Poissons Ratio (x) = 0.24211 0.00265
# Poissons Ratio (y) = 0.07401 0.36229
# Poissons Ratio (z) = 0.00086 0.38360
#
# Static dielectric constant tensor:
#      x y z
#    x 1.662420 0.000000 0.000000 
#    y 0.000000 1.704710 0.000000 
#    z 0.000000 0.000000 1.241980 
# 
# From -- ./inp_files/57014.got.cif
#   From: 2010.05.17/outbox.cif.g08.bks.cpg/sg74_29_cif.got.tgz:57014.got - 2010.06.03 17:57:02.
