data_PCOD9539724
_publ_section_title
;
Structure prediction by ZEFSAII (Michael W. Deem and Ramdas Pophale) SiO2 
 PCOD9539724
Probable space group: I M M A
;
_chemical_formula_sum "Si O2"
_cell_formula_units_Z 64
_cell_length_a 24.652991
_cell_length_b 18.428870
_cell_length_c 7.332592
_cell_angle_alpha 90.000000
_cell_angle_beta 90.000000
_cell_angle_gamma 90.000000
_cell_volume 3331.392812
_symmetry_space_group_name_H-M "I M M A"
_symmetry_group_IT_number 74
_symmetry_cell_setting 'orthorhombic'
loop_
_space_group_symop_operation_xyz
x,y,z
-x,1/2-y,z
x,-y,-z
-x,1/2+y,-z
-x,-y,-z
x,1/2+y,-z
-x,y,z
x,1/2-y,z
1/2+x,1/2+y,1/2+z
1/2-x,-y,1/2+z
1/2+x,1/2-y,1/2-z
1/2-x,y,1/2-z
1/2-x,1/2-y,1/2-z
1/2+x,y,1/2-z
1/2-x,1/2+y,1/2+z
1/2+x,-y,1/2+z
loop_
_atom_site_type_symbol
_atom_site_label
_atom_site_fract_x
_atom_site_fract_y
_atom_site_fract_z
Si Si1 0.062740 0.663602 0.709865
Si Si2 0.235583 0.583295 0.464131
Si Si3 0.643803 0.086604 0.485472
Si Si4 0.366946 0.835454 0.127284
O O1 0.069052 0.750000 0.745286
O O2 0.081517 0.651476 0.501563
O O3 0.000000 0.644288 0.737230
O O4 0.102592 0.619813 0.841144
O O5 0.219373 0.500000 0.500000
O O6 0.250000 0.587455 0.250000
O O7 0.292504 0.600101 0.562847
O O8 0.185394 0.636751 0.486053
O O9 0.631931 0.122021 0.682526
O O10 0.638466 0.000000 0.500000
O O11 0.361856 0.750000 0.163874
#
# Coordination Sequence:
#
# PCOD9539724 Si02
#       4
#    16  16  16  16
#     4  10  23  41  60  84 116 158 205 247 291 345
#     4   9  20  34  57  86 118 153 189 234 301 359
#     4  10  22  38  60  89 118 154 191 244 298 355
#     4  10  22  38  60  87 119 156 197 244 296 352
#
# _framework density 19.211182999999998
#
# number of rings (size 3 to 8) (size 9 to 14) (size 15 to 20)
#    0.000    2.250    0.000    0.750   10.500    7.000 
#    0.000    6.250    0.000    0.000    0.000    0.000 
#    0.000    0.000    0.000    0.000    0.000    0.000 
#
# Total GULP energy -178673.874827 kJ/mol
# GULP energy per Si atom -5583.558588 kJ/mol
# Density = 1.916746 g / cm^3
# Si number density = 19.211183 Si / 1000 Ang^3
#
#
#
# Elastic Constant Matrix: (Units=GPa)
#
#
# Indices 1 2 3 4 5 6 
#
# 1 89.9827 60.0128 39.5282 0.0000 0.0000 0.0000
# 2 60.0128 76.8189 51.9693 0.0000 0.0000 0.0000
# 3 39.5282 51.9693 71.9171 0.0000 0.0000 0.0000
# 4 0.0000 0.0000 0.0000 33.6801 0.0000 0.0000
# 5 0.0000 0.0000 0.0000 0.0000 21.0871 0.0000
# 6 0.0000 0.0000 0.0000 0.0000 0.0000 58.1274
#
#
#
# Elastic Compliance Matrix: (Units=1/GPa)
#
#
# Indices 1 2 3 4 5 6 
#
# 1 0.023219 -0.018597 0.000677 0.000000 0.000000 0.000000
# 2 -0.018597 0.040364 -0.018946 0.000000 0.000000 0.000000
# 3 0.000677 -0.018946 0.027224 0.000000 0.000000 0.000000
# 4 0.000000 0.000000 0.000000 0.029691 0.000000 0.000000
# 5 0.000000 0.000000 0.000000 0.000000 0.047422 0.000000
# 6 0.000000 0.000000 0.000000 0.000000 0.000000 0.017204
#
#
# Mechanical properties :
#
#
# Convention : Reuss Voigt Hill
#
# Bulk Modulus (GPa) = 58.57028 60.19325 59.38177
# Shear Modulus (GPa) = 18.90015 28.39282 23.64649
#
# Velocity S-wave (km/s) = 3.13998 3.84856 3.51218
# Velocity P-wave (km/s) = 6.61058 7.15185 6.88653
#
# Compressibility (1/GPa) = 0.01707350
#
# Stress axis : x y z
#
# Youngs Moduli (GPa) = 43.06801 24.77477 36.73231
#
# Poissons Ratio (x) = 0.46074 -0.02486
# Poissons Ratio (y) = 0.80094 0.69594
# Poissons Ratio (z) = -0.02915 0.46939
#
# Static dielectric constant tensor:
#      x y z
#    x 1.676020 0.000000 0.000000 
#    y 0.000000 1.635600 0.000000 
#    z 0.000000 0.000000 1.687920 
# 
# From -- ./inp_files/8780.got.cif
#   From: 2010.05.17/outbox.cif.g08.bks.cpg/sg74_5_cif.got.tgz:8780.got - 2010.06.03 17:57:02.
