data_PCOD9539863
_publ_section_title
;
Structure prediction by ZEFSAII (Michael W. Deem and Ramdas Pophale) SiO2 
 PCOD9539863
Probable space group: I M M A
;
_chemical_formula_sum "Si O2"
_cell_formula_units_Z 64
_cell_length_a 12.740186
_cell_length_b 26.825704
_cell_length_c 10.360097
_cell_angle_alpha 90.000000
_cell_angle_beta 90.000000
_cell_angle_gamma 90.000000
_cell_volume 3540.712942
_symmetry_space_group_name_H-M "I M M A"
_symmetry_group_IT_number 74
_symmetry_cell_setting 'orthorhombic'
loop_
_space_group_symop_operation_xyz
x,y,z
-x,1/2-y,z
x,-y,-z
-x,1/2+y,-z
-x,-y,-z
x,1/2+y,-z
-x,y,z
x,1/2-y,z
1/2+x,1/2+y,1/2+z
1/2-x,-y,1/2+z
1/2+x,1/2-y,1/2-z
1/2-x,y,1/2-z
1/2-x,1/2-y,1/2-z
1/2+x,y,1/2-z
1/2-x,1/2+y,1/2+z
1/2+x,-y,1/2+z
loop_
_atom_site_type_symbol
_atom_site_label
_atom_site_fract_x
_atom_site_fract_y
_atom_site_fract_z
Si Si1 0.000000 0.968040 0.128841
Si Si2 0.818753 0.379646 0.379837
Si Si3 0.500000 0.309494 0.721924
Si Si4 0.500000 0.037306 0.121023
Si Si5 0.326885 0.616762 0.370181
Si Si6 0.000000 0.309348 0.470242
O O1 0.099223 0.931433 0.130338
O O2 0.000000 0.004260 0.250755
O O3 0.000000 0.000000 0.000000
O O4 0.750000 0.377139 0.250000
O O5 0.738973 0.381206 0.499251
O O6 0.897728 0.333461 0.404001
O O7 0.897124 0.427293 0.380759
O O8 0.500000 0.250000 0.710369
O O9 0.399904 0.335083 0.654836
O O10 0.500000 0.322483 0.875775
O O11 0.500000 0.000000 0.000000
O O12 0.250000 0.613297 0.250000
O O13 0.000000 0.250000 0.460049
#
# Coordination Sequence:
#
# PCOD9539863 Si02
#       6
#     8  16   8   8  16   8
#     4  11  24  38  57  89 123 157 205 253 295 352
#     4  11  24  41  62  91 126 162 200 248 309 366
#     4  10  22  40  65  95 121 152 204 260 304 354
#     4  11  24  40  61  87 125 165 204 249 301 361
#     4  11  22  39  64  90 119 159 206 251 296 356
#     4  10  22  42  65  90 123 159 199 252 308 366
#
# _framework density 18.075455999999999
#
# number of rings (size 3 to 8) (size 9 to 14) (size 15 to 20)
#    0.000    1.250    2.500    3.000    3.500   11.000 
#    0.000    1.250    0.000    0.000    0.000    0.000 
#    0.000    0.000    0.000    0.000    0.000    0.000 
#
# Total GULP energy -178845.090611 kJ/mol
# GULP energy per Si atom -5588.909082 kJ/mol
# Density = 1.803432 g / cm^3
# Si number density = 18.075456 Si / 1000 Ang^3
#
#
#
# Elastic Constant Matrix: (Units=GPa)
#
#
# Indices 1 2 3 4 5 6 
#
# 1 173.6488 82.7597 107.2686 0.0000 0.0000 0.0000
# 2 82.7597 137.6805 80.2030 -0.0007 0.0001 0.0001
# 3 107.2686 80.2030 199.4128 -0.0018 0.0003 0.0003
# 4 0.0000 -0.0007 -0.0018 27.6466 0.0003 0.0005
# 5 0.0000 0.0001 0.0003 0.0003 47.1118 -0.0001
# 6 0.0000 0.0001 0.0003 0.0005 -0.0001 1.2219
#
#
#
# Elastic Compliance Matrix: (Units=1/GPa)
#
#
# Indices 1 2 3 4 5 6 
#
# 1 0.009895 -0.003718 -0.003827 0.000000 0.000000 0.000001
# 2 -0.003718 0.010883 -0.002377 0.000000 0.000000 0.000000
# 3 -0.003827 -0.002377 0.008029 0.000000 0.000000 -0.000002
# 4 0.000000 0.000000 0.000000 0.036171 0.000000 -0.000016
# 5 0.000000 0.000000 0.000000 0.000000 0.021226 0.000001
# 6 0.000001 0.000000 -0.000002 -0.000016 0.000001 0.818373
#
#
# Mechanical properties :
#
#
# Convention : Reuss Voigt Hill
#
# Bulk Modulus (GPa) = 111.57717 116.80051 114.18884
# Shear Modulus (GPa) = 5.39135 31.23012 18.31074
#
# Velocity S-wave (km/s) = 1.72892 4.16115 3.18624
# Velocity P-wave (km/s) = 8.11469 9.37259 8.76623
#
# Compressibility (1/GPa) = 0.00896241
#
# Stress axis : x y z
#
# Youngs Moduli (GPa) = 101.05911 91.88686 124.54160
#
# Poissons Ratio (x) = 0.34168 0.47666
# Poissons Ratio (y) = 0.37579 0.29601
# Poissons Ratio (z) = 0.38678 0.21840
#
# Static dielectric constant tensor:
#      x y z
#    x 1.605940 0.000000 0.000000 
#    y 0.000000 1.581650 0.000000 
#    z 0.000000 0.000000 1.610600 
# 
# From -- ./inp_files/7401.got.cif
#   From: 2010.05.17/outbox.cif.g08.bks.cpg/sg74_4_cif.got.tgz:7401.got - 2010.06.03 17:57:02.
