data_PCOD9539547
_publ_section_title
;
Structure prediction by ZEFSAII (Michael W. Deem and Ramdas Pophale) SiO2 
 PCOD9539547
Probable space group: I M M A
;
_chemical_formula_sum "Si O2"
_cell_formula_units_Z 60
_cell_length_a 20.149821
_cell_length_b 7.431274
_cell_length_c 16.772978
_cell_angle_alpha 90.000000
_cell_angle_beta 90.000000
_cell_angle_gamma 90.000000
_cell_volume 2511.566284
_symmetry_space_group_name_H-M "I M M A"
_symmetry_group_IT_number 74
_symmetry_cell_setting 'orthorhombic'
loop_
_space_group_symop_operation_xyz
x,y,z
-x,1/2-y,z
x,-y,-z
-x,1/2+y,-z
-x,-y,-z
x,1/2+y,-z
-x,y,z
x,1/2-y,z
1/2+x,1/2+y,1/2+z
1/2-x,-y,1/2+z
1/2+x,1/2-y,1/2-z
1/2-x,y,1/2-z
1/2-x,1/2-y,1/2-z
1/2+x,y,1/2-z
1/2-x,1/2+y,1/2+z
1/2+x,-y,1/2+z
loop_
_atom_site_type_symbol
_atom_site_label
_atom_site_fract_x
_atom_site_fract_y
_atom_site_fract_z
Si Si1 0.625619 0.042664 0.699314
Si Si2 0.760518 0.535892 0.089291
Si Si3 0.891201 0.969083 0.379032
Si Si4 0.000000 0.037485 0.093823
Si Si5 0.000000 0.750000 0.568235
O O1 0.642836 0.250000 0.716433
O O2 0.689908 0.960422 0.656196
O O3 0.602894 0.976413 0.785393
O O4 0.565343 0.035664 0.637248
O O5 0.760347 0.750000 0.099222
O O6 0.684125 0.482590 0.097174
O O7 0.785516 0.500000 0.000000
O O8 0.902312 0.750000 0.388064
O O9 0.942549 0.092071 0.424594
O O10 0.000000 0.250000 0.106217
O O11 0.000000 0.000000 0.000000
#
# Coordination Sequence:
#
# PCOD9539547 Si02
#       5
#    16  16  16   8   4
#     4  10  21  40  65  93 127 173 212 265 327 391
#     4  10  22  41  66  93 129 170 217 271 333 388
#     4  10  23  43  67  96 134 169 220 275 331 396
#     4  12  25  38  56  90 133 169 212 257 317 389
#     4  12  24  40  68  98 124 172 216 274 332 386
#
# _framework density 23.889475000000001
#
# number of rings (size 3 to 8) (size 9 to 14) (size 15 to 20)
#    0.000    1.600    0.000    4.000    5.600    8.533 
#    0.000    2.000    0.000    0.000    0.000    0.000 
#    0.000    0.000    0.000    0.000    0.000    0.000 
#
# Total GULP energy -167351.090931 kJ/mol
# GULP energy per Si atom -5578.369698 kJ/mol
# Density = 2.383510 g / cm^3
# Si number density = 23.889475 Si / 1000 Ang^3
#
#
#
# Elastic Constant Matrix: (Units=GPa)
#
#
# Indices 1 2 3 4 5 6 
#
# 1 140.5388 41.9974 32.1470 0.0000 0.0000 0.0000
# 2 41.9974 120.0095 20.9957 0.0000 0.0000 0.0000
# 3 32.1470 20.9957 143.4721 0.0000 0.0000 0.0000
# 4 0.0000 0.0000 0.0000 13.3793 0.0000 0.0000
# 5 0.0000 0.0000 0.0000 0.0000 45.8186 0.0000
# 6 0.0000 0.0000 0.0000 0.0000 0.0000 86.5182
#
#
#
# Elastic Compliance Matrix: (Units=1/GPa)
#
#
# Indices 1 2 3 4 5 6 
#
# 1 0.008234 -0.002626 -0.001461 0.000000 0.000000 0.000000
# 2 -0.002626 0.009389 -0.000786 0.000000 0.000000 0.000000
# 3 -0.001461 -0.000786 0.007412 0.000000 0.000000 0.000000
# 4 0.000000 0.000000 0.000000 0.074742 0.000000 0.000000
# 5 0.000000 0.000000 0.000000 0.000000 0.021825 0.000000
# 6 0.000000 0.000000 0.000000 0.000000 0.000000 0.011558
#
#
# Mechanical properties :
#
#
# Convention : Reuss Voigt Hill
#
# Bulk Modulus (GPa) = 65.39818 66.03341 65.71579
# Shear Modulus (GPa) = 33.78301 49.73523 41.75912
#
# Velocity S-wave (km/s) = 3.76458 4.56772 4.18546
# Velocity P-wave (km/s) = 6.80668 7.45117 7.13620
#
# Compressibility (1/GPa) = 0.01529095
#
# Stress axis : x y z
#
# Youngs Moduli (GPa) = 121.44248 106.50641 134.91165
#
# Poissons Ratio (x) = 0.27969 0.19707
# Poissons Ratio (y) = 0.31892 0.10599
# Poissons Ratio (z) = 0.17739 0.08367
#
# Static dielectric constant tensor:
#      x y z
#    x 1.865610 0.000000 0.000000 
#    y 0.000000 1.925530 0.000000 
#    z 0.000000 0.000000 1.927310 
# 
# From -- ./inp_files/52559.got.cif
#   From: 2010.05.17/outbox.cif.g08.bks.cpg/sg74_27_cif.got.tgz:52559.got - 2010.06.03 17:57:02.
