data_PCOD9539534
_publ_section_title
;
Structure prediction by ZEFSAII (Michael W. Deem and Ramdas Pophale) SiO2 
 PCOD9539534
Probable space group: I M M A
;
_chemical_formula_sum "Si O2"
_cell_formula_units_Z 72
_cell_length_a 18.431838
_cell_length_b 20.129414
_cell_length_c 9.113952
_cell_angle_alpha 90.000000
_cell_angle_beta 90.000000
_cell_angle_gamma 90.000000
_cell_volume 3381.477591
_symmetry_space_group_name_H-M "I M M A"
_symmetry_group_IT_number 74
_symmetry_cell_setting 'orthorhombic'
loop_
_space_group_symop_operation_xyz
x,y,z
-x,1/2-y,z
x,-y,-z
-x,1/2+y,-z
-x,-y,-z
x,1/2+y,-z
-x,y,z
x,1/2-y,z
1/2+x,1/2+y,1/2+z
1/2-x,-y,1/2+z
1/2+x,1/2-y,1/2-z
1/2-x,y,1/2-z
1/2-x,1/2-y,1/2-z
1/2+x,y,1/2-z
1/2-x,1/2+y,1/2+z
1/2+x,-y,1/2+z
loop_
_atom_site_type_symbol
_atom_site_label
_atom_site_fract_x
_atom_site_fract_y
_atom_site_fract_z
Si Si1 0.876819 0.362771 0.155234
Si Si2 0.602622 0.750000 0.858666
Si Si3 0.849505 0.750000 0.324431
Si Si4 0.412815 0.012229 0.171912
Si Si5 0.734390 0.250000 0.436881
Si Si6 0.582295 0.873869 0.328148
O O1 0.919232 0.314049 0.266753
O O2 0.867337 0.428903 0.251635
O O3 0.810124 0.317401 0.094816
O O4 0.915862 0.379978 0.003691
O O5 0.594798 0.750000 0.033079
O O6 0.690619 0.750000 0.848170
O O7 0.729371 0.750000 0.099039
O O8 0.867527 0.815115 0.231517
O O9 0.500000 0.027006 0.186097
O O10 0.398095 0.943831 0.256278
O O11 0.397676 0.000000 0.000000
O O12 0.500000 0.857478 0.283385
#
# Coordination Sequence:
#
# PCOD9539534 Si02
#       6
#    16   8   8  16   8  16
#     4  11  19  37  65  87 122 165 208 260 322 374
#     4   9  21  39  61  85 115 163 206 256 307 374
#     4  10  21  40  64  86 126 170 211 262 316 376
#     4  10  22  40  62  89 127 167 206 259 321 384
#     4   9  23  40  67  86 121 170 213 259 313 375
#     4  11  23  38  61  96 128 162 208 265 324 384
#
# _framework density 21.292466000000001
#
# number of rings (size 3 to 8) (size 9 to 14) (size 15 to 20)
#    0.667    1.111    0.000    5.667    0.000    3.556 
#    0.000   10.000   19.556    0.000    0.000    0.000 
#    0.000    0.000    0.000    0.000    0.000    0.000 
#
# Total GULP energy -200698.126173 kJ/mol
# GULP energy per Si atom -5574.947949 kJ/mol
# Density = 2.124400 g / cm^3
# Si number density = 21.292466 Si / 1000 Ang^3
#
#
#
# Elastic Constant Matrix: (Units=GPa)
#
#
# Indices 1 2 3 4 5 6 
#
# 1 83.5880 58.4027 14.4295 0.0000 0.0000 0.0000
# 2 58.4027 165.4622 83.3909 0.0000 0.0000 0.0000
# 3 14.4295 83.3909 181.1068 0.0000 0.0000 0.0000
# 4 0.0000 0.0000 0.0000 52.7467 0.0000 0.0000
# 5 0.0000 0.0000 0.0000 0.0000 0.6909 0.0000
# 6 0.0000 0.0000 0.0000 0.0000 0.0000 17.4380
#
#
#
# Elastic Compliance Matrix: (Units=1/GPa)
#
#
# Indices 1 2 3 4 5 6 
#
# 1 0.016299 -0.006639 0.001758 0.000000 0.000000 0.000000
# 2 -0.006639 0.010574 -0.004340 0.000000 0.000000 0.000000
# 3 0.001758 -0.004340 0.007380 0.000000 0.000000 0.000000
# 4 0.000000 0.000000 0.000000 0.018959 0.000000 0.000000
# 5 0.000000 0.000000 0.000000 0.000000 1.447444 0.000000
# 6 0.000000 0.000000 0.000000 0.000000 0.000000 0.057346
#
#
# Mechanical properties :
#
#
# Convention : Reuss Voigt Hill
#
# Bulk Modulus (GPa) = 63.24536 82.51148 72.87842
# Shear Modulus (GPa) = 3.16113 32.43736 17.79924
#
# Velocity S-wave (km/s) = 1.21977 3.90734 2.89440
# Velocity P-wave (km/s) = 5.63484 7.69363 6.74327
#
# Compressibility (1/GPa) = 0.01581144
#
# Stress axis : x y z
#
# Youngs Moduli (GPa) = 61.35495 94.56828 135.50366
#
# Poissons Ratio (x) = 0.62785 -0.23827
# Poissons Ratio (y) = 0.40734 0.58809
# Poissons Ratio (z) = -0.10789 0.41043
#
# Static dielectric constant tensor:
#      x y z
#    x 1.833260 0.000000 0.000000 
#    y 0.000000 1.759980 0.000000 
#    z 0.000000 0.000000 1.837120 
# 
# From -- ./inp_files/10726.got.cif
#   From: 2010.05.17/outbox.cif.g08.bks.cpg/sg74_6_cif.got.tgz:10726.got - 2010.06.03 17:57:02.
