data_PCOD9539452
_publ_section_title
;
Structure prediction by ZEFSAII (Michael W. Deem and Ramdas Pophale) SiO2 
 PCOD9539452
Probable space group: I M M A
;
_chemical_formula_sum "Si O2"
_cell_formula_units_Z 88
_cell_length_a 14.788947
_cell_length_b 24.050016
_cell_length_c 9.828599
_cell_angle_alpha 90.000000
_cell_angle_beta 90.000000
_cell_angle_gamma 90.000000
_cell_volume 3495.781170
_symmetry_space_group_name_H-M "I M M A"
_symmetry_group_IT_number 74
_symmetry_cell_setting 'orthorhombic'
loop_
_space_group_symop_operation_xyz
x,y,z
-x,1/2-y,z
x,-y,-z
-x,1/2+y,-z
-x,-y,-z
x,1/2+y,-z
-x,y,z
x,1/2-y,z
1/2+x,1/2+y,1/2+z
1/2-x,-y,1/2+z
1/2+x,1/2-y,1/2-z
1/2-x,y,1/2-z
1/2-x,1/2-y,1/2-z
1/2+x,y,1/2-z
1/2-x,1/2+y,1/2+z
1/2+x,-y,1/2+z
loop_
_atom_site_type_symbol
_atom_site_label
_atom_site_fract_x
_atom_site_fract_y
_atom_site_fract_z
Si Si1 0.339436 0.331494 0.424621
Si Si2 0.110791 0.519615 0.351922
Si Si3 0.129711 0.811851 0.621969
Si Si4 0.141318 0.250000 0.827623
Si Si5 0.894087 0.551163 0.899270
Si Si6 0.102906 0.356279 0.659599
O O1 0.237727 0.312060 0.397341
O O2 0.389478 0.324397 0.279547
O O3 0.374149 0.297794 0.553249
O O4 0.339817 0.396598 0.452275
O O5 0.141089 0.500000 0.500000
O O6 0.137032 0.472393 0.245108
O O7 0.139639 0.582151 0.310334
O O8 0.000000 0.522211 0.351394
O O9 0.096887 0.750000 0.591423
O O10 0.097376 0.852874 0.504857
O O11 0.151793 0.300296 0.712039
O O12 0.000000 0.567540 0.890950
O O13 0.888399 0.500000 0.000000
O O14 0.000000 0.351199 0.713067
#
# Coordination Sequence:
#
# PCOD9539452 Si02
#       6
#    16  16  16   8  16  16
#     4  11  23  41  65  93 122 172 220 256 313 383
#     4   9  18  36  60  85 116 158 203 251 314 376
#     4  11  22  44  65  87 129 173 213 261 319 380
#     4  12  23  38  60  89 127 159 204 262 315 373
#     4  10  21  39  62  90 128 167 205 260 323 377
#     4  11  24  40  63  97 130 164 212 268 323 381
#
# _framework density 25.173200999999999
#
# number of rings (size 3 to 8) (size 9 to 14) (size 15 to 20)
#    0.000    1.455    2.727    3.000    0.000    6.545 
#    0.000    4.545    0.000    0.000    0.000    0.000 
#    0.000    0.000    0.000    0.000    0.000    0.000 
#
# Total GULP energy -245288.774321 kJ/mol
# GULP energy per Si atom -5574.744871 kJ/mol
# Density = 2.511591 g / cm^3
# Si number density = 25.173201 Si / 1000 Ang^3
#
#
#
# Elastic Constant Matrix: (Units=GPa)
#
#
# Indices 1 2 3 4 5 6 
#
# 1 71.7449 27.1906 5.0723 0.0002 0.0000 0.0000
# 2 27.1906 195.8514 26.4474 0.0020 0.0003 0.0002
# 3 5.0723 26.4474 151.1526 0.0101 0.0016 0.0014
# 4 0.0002 0.0020 0.0101 -90.5425 0.0032 0.0019
# 5 0.0000 0.0003 0.0016 0.0032 4.0254 0.0005
# 6 0.0000 0.0002 0.0014 0.0019 0.0005 1.3231
#
#
#
# Elastic Compliance Matrix: (Units=1/GPa)
#
#
# Indices 1 2 3 4 5 6 
#
# 1 0.014715 -0.002024 -0.000140 0.000000 0.000000 0.000001
# 2 -0.002024 0.005508 -0.000896 0.000000 0.000000 0.000000
# 3 -0.000140 -0.000896 0.006777 0.000001 -0.000003 -0.000007
# 4 0.000000 0.000000 0.000001 -0.011045 0.000009 0.000016
# 5 0.000000 0.000000 -0.000003 0.000009 0.248422 -0.000102
# 6 0.000001 0.000000 -0.000007 0.000016 -0.000102 0.755821
#
#
# Mechanical properties :
#
#
# Convention : Reuss Voigt Hill
#
# Bulk Modulus (GPa) = 47.88974 59.57439 53.73206
# Shear Modulus (GPa) = 4.83897 6.96378 5.90137
#
# Velocity S-wave (km/s) = 1.38796 1.66504 1.53277
# Velocity P-wave (km/s) = 4.65123 5.23580 4.95215
#
# Compressibility (1/GPa) = 0.02088130
#
# Stress axis : x y z
#
# Youngs Moduli (GPa) = 67.95671 181.55772 147.55231
#
# Poissons Ratio (x) = 0.36749 0.02061
# Poissons Ratio (y) = 0.13755 0.13218
# Poissons Ratio (z) = 0.00949 0.16264
#
# Static dielectric constant tensor:
#      x y z
#    x 2.080950 0.000000 0.000000 
#    y 0.000000 1.907490 0.000000 
#    z 0.000000 0.000000 2.010840 
# 
# From -- ./inp_files/12456.got.cif
#   From: 2010.05.17/outbox.cif.g08.bks.cpg/sg74_7_cif.got.tgz:12456.got - 2010.06.03 17:57:02.
