data_PCOD9539050
_publ_section_title
;
Structure prediction by ZEFSAII (Michael W. Deem and Ramdas Pophale) SiO2 
 PCOD9539050
Probable space group: I M M A
;
_chemical_formula_sum "Si O2"
_cell_formula_units_Z 88
_cell_length_a 8.621188
_cell_length_b 22.957827
_cell_length_c 25.499522
_cell_angle_alpha 90.000000
_cell_angle_beta 90.000000
_cell_angle_gamma 90.000000
_cell_volume 5046.960830
_symmetry_space_group_name_H-M "I M M A"
_symmetry_group_IT_number 74
_symmetry_cell_setting 'orthorhombic'
loop_
_space_group_symop_operation_xyz
x,y,z
-x,1/2-y,z
x,-y,-z
-x,1/2+y,-z
-x,-y,-z
x,1/2+y,-z
-x,y,z
x,1/2-y,z
1/2+x,1/2+y,1/2+z
1/2-x,-y,1/2+z
1/2+x,1/2-y,1/2-z
1/2-x,y,1/2-z
1/2-x,1/2-y,1/2-z
1/2+x,y,1/2-z
1/2-x,1/2+y,1/2+z
1/2+x,-y,1/2+z
loop_
_atom_site_type_symbol
_atom_site_label
_atom_site_fract_x
_atom_site_fract_y
_atom_site_fract_z
Si Si1 0.685216 0.099842 0.807145
Si Si2 0.685913 0.250000 0.190751
Si Si3 0.687161 0.181822 0.602296
Si Si4 0.813200 0.860621 0.873696
Si Si5 0.311554 0.817513 0.514730
Si Si6 0.186148 0.965170 0.692503
O O1 0.500000 0.101937 0.805080
O O2 0.750000 0.116452 0.750000
O O3 0.745156 0.141774 0.852522
O O4 0.731682 0.032466 0.817255
O O5 0.500000 0.250000 0.191923
O O6 0.750000 0.250000 0.250000
O O7 0.746320 0.193026 0.160052
O O8 0.500000 0.178487 0.604086
O O9 0.728898 0.250000 0.609188
O O10 0.738687 0.163749 0.543445
O O11 0.762304 0.852935 0.934227
O O12 0.755357 0.920628 0.849098
O O13 0.000000 0.857611 0.871543
O O14 0.500000 0.818181 0.514019
O O15 0.265250 0.750000 0.522036
O O16 0.250000 0.949181 0.750000
O O17 0.000000 0.961216 0.692780
#
# Coordination Sequence:
#
# PCOD9539050 Si02
#       6
#    16   8  16  16  16  16
#     4  10  21  37  57  79 107 141 176 217 264 319
#     4  12  24  36  50  74 108 142 179 226 273 316
#     4   9  18  34  58  84 109 138 173 216 262 312
#     4  11  20  34  56  79 104 139 181 224 267 314
#     4   8  15  31  54  78 105 138 176 217 260 309
#     4  10  21  37  54  75 104 140 180 221 268 320
#
# _framework density 17.436235
#
# number of rings (size 3 to 8) (size 9 to 14) (size 15 to 20)
#    0.000    2.182    0.909    4.091    0.000    2.909 
#    0.000    2.727    0.000    5.455    0.000    0.000 
#    0.000    0.000    0.000    0.000    0.000    0.000 
#
# Total GULP energy -245539.652823 kJ/mol
# GULP energy per Si atom -5580.446655 kJ/mol
# Density = 1.739655 g / cm^3
# Si number density = 17.436235 Si / 1000 Ang^3
#
#
#
# Elastic Constant Matrix: (Units=GPa)
#
#
# Indices 1 2 3 4 5 6 
#
# 1 48.4952 32.6005 46.0602 0.0000 0.0000 0.0000
# 2 32.6005 86.8544 108.1079 0.0000 0.0000 0.0000
# 3 46.0602 108.1079 204.3161 0.0000 0.0000 0.0000
# 4 0.0000 0.0000 0.0000 23.8706 0.0000 0.0000
# 5 0.0000 0.0000 0.0000 0.0000 26.7021 0.0000
# 6 0.0000 0.0000 0.0000 0.0000 0.0000 27.4040
#
#
#
# Elastic Compliance Matrix: (Units=1/GPa)
#
#
# Indices 1 2 3 4 5 6 
#
# 1 0.027911 -0.007746 -0.002194 0.000000 0.000000 0.000000
# 2 -0.007746 0.035874 -0.017235 0.000000 0.000000 0.000000
# 3 -0.002194 -0.017235 0.014509 0.000000 0.000000 0.000000
# 4 0.000000 0.000000 0.000000 0.041893 0.000000 0.000000
# 5 0.000000 0.000000 0.000000 0.000000 0.037450 0.000000
# 6 0.000000 0.000000 0.000000 0.000000 0.000000 0.036491
#
#
# Mechanical properties :
#
#
# Convention : Reuss Voigt Hill
#
# Bulk Modulus (GPa) = 41.76475 79.24477 60.50476
# Shear Modulus (GPa) = 19.49633 25.78850 22.64241
#
# Velocity S-wave (km/s) = 3.34750 3.84997 3.60750
# Velocity P-wave (km/s) = 6.24066 8.08146 7.21997
#
# Compressibility (1/GPa) = 0.02394364
#
# Stress axis : x y z
#
# Youngs Moduli (GPa) = 35.82789 27.87544 68.92504
#
# Poissons Ratio (x) = 0.21592 0.15120
# Poissons Ratio (y) = 0.27752 1.18795
# Poissons Ratio (z) = 0.07859 0.48044
#
# Static dielectric constant tensor:
#      x y z
#    x 1.592780 0.000000 0.000000 
#    y 0.000000 1.572200 0.000000 
#    z 0.000000 0.000000 1.586480 
# 
# From -- ./inp_files/48783.got.cif
#   From: 2010.05.17/outbox.cif.g08.bks.cpg/sg74_25_cif.got.tgz:48783.got - 2010.06.03 17:57:02.
