data_PCOD9539247
_publ_section_title
;
Structure prediction by ZEFSAII (Michael W. Deem and Ramdas Pophale) SiO2 
 PCOD9539247
Probable space group: I M M A
;
_chemical_formula_sum "Si O2"
_cell_formula_units_Z 72
_cell_length_a 29.938911
_cell_length_b 8.518778
_cell_length_c 14.217956
_cell_angle_alpha 90.000000
_cell_angle_beta 90.000000
_cell_angle_gamma 90.000000
_cell_volume 3626.189247
_symmetry_space_group_name_H-M "I M M A"
_symmetry_group_IT_number 74
_symmetry_cell_setting 'orthorhombic'
loop_
_space_group_symop_operation_xyz
x,y,z
-x,1/2-y,z
x,-y,-z
-x,1/2+y,-z
-x,-y,-z
x,1/2+y,-z
-x,y,z
x,1/2-y,z
1/2+x,1/2+y,1/2+z
1/2-x,-y,1/2+z
1/2+x,1/2-y,1/2-z
1/2-x,y,1/2-z
1/2-x,1/2-y,1/2-z
1/2+x,y,1/2-z
1/2-x,1/2+y,1/2+z
1/2+x,-y,1/2+z
loop_
_atom_site_type_symbol
_atom_site_label
_atom_site_fract_x
_atom_site_fract_y
_atom_site_fract_z
Si Si1 0.088539 0.060204 0.282197
Si Si2 0.176487 0.560226 0.606770
Si Si3 0.369039 0.063961 0.605727
Si Si4 0.000000 0.439768 0.393607
Si Si5 0.774076 0.061293 0.107679
O O1 0.088944 0.250000 0.279195
O O2 0.132864 0.006097 0.337910
O O3 0.044341 0.009688 0.337564
O O4 0.093551 0.997051 0.176945
O O5 0.173849 0.500000 0.500000
O O6 0.175924 0.750000 0.605565
O O7 0.225409 0.514930 0.647331
O O8 0.368319 0.250000 0.602192
O O9 0.374527 0.000000 0.500000
O O10 0.320840 0.004410 0.644074
O O11 0.000000 0.500000 0.500000
O O12 0.000000 0.250000 0.396328
O O13 0.777055 0.250000 0.110090
O O14 0.772711 0.000000 0.000000
#
# Coordination Sequence:
#
# PCOD9539247 Si02
#       5
#    16  16  16   8  16
#     4  10  21  38  57  82 112 146 186 228 275 329
#     4   9  18  31  51  78 112 149 186 227 273 323
#     4  11  22  37  57  81 109 146 185 229 276 325
#     4  10  22  40  65  90 117 148 179 222 276 326
#     4   9  16  29  49  75 108 148 185 223 270 322
#
# _framework density 19.855554999999999
#
# number of rings (size 3 to 8) (size 9 to 14) (size 15 to 20)
#    0.000    2.222    0.000    4.667    0.000    3.556 
#    0.000    5.000    0.000    0.000    0.000    0.000 
#    0.000    0.000    0.000    0.000    0.000    0.000 
#
# Total GULP energy -200975.565154 kJ/mol
# GULP energy per Si atom -5582.654588 kJ/mol
# Density = 1.981036 g / cm^3
# Si number density = 19.855555 Si / 1000 Ang^3
#
#
#
# Elastic Constant Matrix: (Units=GPa)
#
#
# Indices 1 2 3 4 5 6 
#
# 1 157.8038 39.1764 94.2992 0.0000 0.0000 0.0000
# 2 39.1764 41.4974 24.0653 0.0000 0.0000 0.0000
# 3 94.2992 24.0653 124.9471 0.0000 0.0000 0.0000
# 4 0.0000 0.0000 0.0000 22.9907 0.0000 0.0000
# 5 0.0000 0.0000 0.0000 0.0000 38.5265 0.0000
# 6 0.0000 0.0000 0.0000 0.0000 0.0000 15.8468
#
#
#
# Elastic Compliance Matrix: (Units=1/GPa)
#
#
# Indices 1 2 3 4 5 6 
#
# 1 0.013395 -0.007636 -0.008639 0.000000 0.000000 0.000000
# 2 -0.007636 0.031481 -0.000300 0.000000 0.000000 0.000000
# 3 -0.008639 -0.000300 0.014581 0.000000 0.000000 0.000000
# 4 0.000000 0.000000 0.000000 0.043496 0.000000 0.000000
# 5 0.000000 0.000000 0.000000 0.000000 0.025956 0.000000
# 6 0.000000 0.000000 0.000000 0.000000 0.000000 0.063104
#
#
# Mechanical properties :
#
#
# Convention : Reuss Voigt Hill
#
# Bulk Modulus (GPa) = 38.01291 71.03669 54.52480
# Shear Modulus (GPa) = 21.37377 26.58662 23.98020
#
# Velocity S-wave (km/s) = 3.28451 3.66321 3.47901
# Velocity P-wave (km/s) = 5.79399 7.33120 6.60745
#
# Compressibility (1/GPa) = 0.02630685
#
# Stress axis : x y z
#
# Youngs Moduli (GPa) = 74.65559 31.76524 68.58298
#
# Poissons Ratio (x) = 0.24256 0.59246
# Poissons Ratio (y) = 0.57007 0.02060
# Poissons Ratio (z) = 0.64492 0.00954
#
# Static dielectric constant tensor:
#      x y z
#    x 1.719950 0.000000 0.000000 
#    y 0.000000 1.667800 0.000000 
#    z 0.000000 0.000000 1.687810 
# 
# From -- ./inp_files/37072.got.cif
#   From: 2010.05.17/outbox.cif.g08.bks.cpg/sg74_19_cif.got.tgz:37072.got - 2010.06.03 17:57:02.
