data_PCOD9539805
_publ_section_title
;
Structure prediction by ZEFSAII (Michael W. Deem and Ramdas Pophale) SiO2 
 PCOD9539805
Probable space group: I M M A
;
_chemical_formula_sum "Si O2"
_cell_formula_units_Z 96
_cell_length_a 17.479062
_cell_length_b 26.014117
_cell_length_c 11.819042
_cell_angle_alpha 90.000000
_cell_angle_beta 90.000000
_cell_angle_gamma 90.000000
_cell_volume 5374.146337
_symmetry_space_group_name_H-M "I M M A"
_symmetry_group_IT_number 74
_symmetry_cell_setting 'orthorhombic'
loop_
_space_group_symop_operation_xyz
x,y,z
-x,1/2-y,z
x,-y,-z
-x,1/2+y,-z
-x,-y,-z
x,1/2+y,-z
-x,y,z
x,1/2-y,z
1/2+x,1/2+y,1/2+z
1/2-x,-y,1/2+z
1/2+x,1/2-y,1/2-z
1/2-x,y,1/2-z
1/2-x,1/2-y,1/2-z
1/2+x,y,1/2-z
1/2-x,1/2+y,1/2+z
1/2+x,-y,1/2+z
loop_
_atom_site_type_symbol
_atom_site_label
_atom_site_fract_x
_atom_site_fract_y
_atom_site_fract_z
Si Si1 0.354765 0.422266 0.448005
Si Si2 0.774482 0.250000 0.439889
Si Si3 0.630914 0.750000 0.705978
Si Si4 0.081603 0.139654 0.253100
Si Si5 0.091126 0.951110 0.420531
Si Si6 0.590376 0.976415 0.341803
Si Si7 0.691794 0.633563 0.963953
O O1 0.406230 0.390540 0.361849
O O2 0.355703 0.477800 0.386583
O O3 0.390724 0.430387 0.571808
O O4 0.273500 0.394305 0.455863
O O5 0.685422 0.250000 0.403748
O O6 0.817278 0.250000 0.319154
O O7 0.796835 0.305552 0.493121
O O8 0.583726 0.698630 0.717308
O O9 0.149585 0.130790 0.341958
O O10 0.000000 0.125534 0.306243
O O11 0.104242 0.964859 0.289182
O O12 0.138767 0.900695 0.454583
O O13 0.000000 0.942589 0.435331
O O14 0.112479 0.000000 0.500000
O O15 0.500000 0.990272 0.355007
#
# Coordination Sequence:
#
# PCOD9539805 Si02
#       7
#    16   8   8  16  16  16  16
#     4  11  21  35  57  83 114 152 188 231 291 355
#     4   9  18  36  54  80 118 151 185 243 295 338
#     4   9  17  32  52  79 113 144 182 232 289 328
#     4  11  20  33  55  83 114 148 190 230 284 342
#     4  10  22  40  60  84 117 152 191 244 299 348
#     4  10  22  40  58  81 116 151 192 240 293 352
#     4  11  22  36  58  86 117 155 194 243 293 352
#
# _framework density 17.863302000000001
#
# number of rings (size 3 to 8) (size 9 to 14) (size 15 to 20)
#    0.000    1.667    1.667    4.250    2.333    2.000 
#    0.000    1.250    0.000    3.000    0.000    2.333 
#    0.000    0.000    0.000    0.000    0.000    0.000 
#
# Total GULP energy -267601.543635 kJ/mol
# GULP energy per Si atom -5575.032159 kJ/mol
# Density = 1.782264 g / cm^3
# Si number density = 17.863302 Si / 1000 Ang^3
#
#
#
# Elastic Constant Matrix: (Units=GPa)
#
#
# Indices 1 2 3 4 5 6 
#
# 1 83.1484 50.1457 29.1778 0.0000 0.0000 0.0000
# 2 50.1457 114.1943 57.6582 0.0000 0.0000 0.0000
# 3 29.1778 57.6582 108.4110 0.0001 0.0000 0.0000
# 4 0.0000 0.0000 0.0001 25.9208 0.0000 0.0000
# 5 0.0000 0.0000 0.0000 0.0000 23.9670 0.0000
# 6 0.0000 0.0000 0.0000 0.0000 0.0000 34.1393
#
#
#
# Elastic Compliance Matrix: (Units=1/GPa)
#
#
# Indices 1 2 3 4 5 6 
#
# 1 0.016409 -0.006803 -0.000798 0.000000 0.000000 0.000000
# 2 -0.006803 0.014792 -0.006036 0.000000 0.000000 0.000000
# 3 -0.000798 -0.006036 0.012649 0.000000 0.000000 0.000000
# 4 0.000000 0.000000 0.000000 0.038579 0.000000 0.000000
# 5 0.000000 0.000000 0.000000 0.000000 0.041724 0.000000
# 6 0.000000 0.000000 0.000000 0.000000 0.000000 0.029292
#
#
# Mechanical properties :
#
#
# Convention : Reuss Voigt Hill
#
# Bulk Modulus (GPa) = 60.32760 64.41301 62.37031
# Shear Modulus (GPa) = 26.84622 28.05688 27.45155
#
# Velocity S-wave (km/s) = 3.88089 3.96743 3.92440
# Velocity P-wave (km/s) = 7.34349 7.55808 7.45156
#
# Compressibility (1/GPa) = 0.01657616
#
# Stress axis : x y z
#
# Youngs Moduli (GPa) = 60.94037 67.60407 79.05505
#
# Poissons Ratio (x) = 0.45989 0.06312
# Poissons Ratio (y) = 0.41456 0.47719
# Poissons Ratio (z) = 0.04866 0.40807
#
# Static dielectric constant tensor:
#      x y z
#    x 1.632470 0.000000 0.000000 
#    y 0.000000 1.674470 0.000000 
#    z 0.000000 0.000000 1.589920 
# 
# From -- ./inp_files/22712.got.cif
#   From: 2010.05.17/outbox.cif.g08.bks.cpg/sg74_12_cif.got.tgz:22712.got - 2010.06.03 17:57:02.
