data_PCOD9539049
_publ_section_title
;
Structure prediction by ZEFSAII (Michael W. Deem and Ramdas Pophale) SiO2 
 PCOD9539049
Probable space group: I M M A
;
_chemical_formula_sum "Si O2"
_cell_formula_units_Z 88
_cell_length_a 19.744077
_cell_length_b 8.545097
_cell_length_c 28.399028
_cell_angle_alpha 90.000000
_cell_angle_beta 90.000000
_cell_angle_gamma 90.000000
_cell_volume 4791.343518
_symmetry_space_group_name_H-M "I M M A"
_symmetry_group_IT_number 74
_symmetry_cell_setting 'orthorhombic'
loop_
_space_group_symop_operation_xyz
x,y,z
-x,1/2-y,z
x,-y,-z
-x,1/2+y,-z
-x,-y,-z
x,1/2+y,-z
-x,y,z
x,1/2-y,z
1/2+x,1/2+y,1/2+z
1/2-x,-y,1/2+z
1/2+x,1/2-y,1/2-z
1/2-x,y,1/2-z
1/2-x,1/2-y,1/2-z
1/2+x,y,1/2-z
1/2-x,1/2+y,1/2+z
1/2+x,-y,1/2+z
loop_
_atom_site_type_symbol
_atom_site_label
_atom_site_fract_x
_atom_site_fract_y
_atom_site_fract_z
Si Si1 0.137836 0.563191 0.094972
Si Si2 0.577248 0.061134 0.768891
Si Si3 0.279308 0.936669 0.050785
Si Si4 0.184290 0.066602 0.193345
Si Si5 0.322013 0.561294 0.154252
Si Si6 0.000000 0.562291 0.947383
O O1 0.138740 0.750000 0.104340
O O2 0.199451 0.530063 0.059115
O O3 0.152743 0.470664 0.142516
O O4 0.066645 0.507521 0.076127
O O5 0.500000 0.004913 0.761576
O O6 0.575774 0.250000 0.766618
O O7 0.608758 0.016494 0.819645
O O8 0.631992 0.004273 0.730800
O O9 0.288002 0.750000 0.049569
O O10 0.313241 0.994077 0.100062
O O11 0.301496 0.000000 0.000000
O O12 0.190907 0.250000 0.202153
O O13 0.259501 0.994968 0.187053
O O14 0.317586 0.750000 0.152864
O O15 0.000000 0.750000 0.945525
O O16 0.000000 0.500000 0.000000
#
# Coordination Sequence:
#
# PCOD9539049 Si02
#       6
#    16  16  16  16  16   8
#     4  10  21  37  54  73 102 141 184 228 270 321
#     4  10  21  37  58  80 105 143 186 226 271 325
#     4   9  18  32  53  78 102 131 171 219 267 315
#     4  11  22  35  54  81 111 142 178 223 275 330
#     4   9  19  37  57  79 108 142 183 225 266 323
#     4  12  24  36  50  72 104 144 186 230 279 326
#
# _framework density 18.366457
#
# number of rings (size 3 to 8) (size 9 to 14) (size 15 to 20)
#    0.000    2.000    0.000    5.182    1.273    8.364 
#    0.000    0.000    0.000    0.545    0.000    0.000 
#    0.000    0.000    0.000    0.000    0.000    0.364 
#
# Total GULP energy -245433.239448 kJ/mol
# GULP energy per Si atom -5578.028169 kJ/mol
# Density = 1.832465 g / cm^3
# Si number density = 18.366457 Si / 1000 Ang^3
#
#
#
# Elastic Constant Matrix: (Units=GPa)
#
#
# Indices 1 2 3 4 5 6 
#
# 1 71.2356 9.4373 52.1280 0.0000 0.0000 0.0000
# 2 9.4373 16.6814 16.5794 0.0000 0.0000 0.0000
# 3 52.1280 16.5794 108.8358 0.0000 0.0000 0.0000
# 4 0.0000 0.0000 0.0000 25.0204 0.0000 0.0000
# 5 0.0000 0.0000 0.0000 0.0000 9.5546 0.0000
# 6 0.0000 0.0000 0.0000 0.0000 0.0000 7.1828
#
#
#
# Elastic Compliance Matrix: (Units=1/GPa)
#
#
# Indices 1 2 3 4 5 6 
#
# 1 0.021687 -0.002293 -0.010038 0.000000 0.000000 0.000000
# 2 -0.002293 0.070885 -0.009700 0.000000 0.000000 0.000000
# 3 -0.010038 -0.009700 0.015474 0.000000 0.000000 0.000000
# 4 0.000000 0.000000 0.000000 0.039967 0.000000 0.000000
# 5 0.000000 0.000000 0.000000 0.000000 0.104662 0.000000
# 6 0.000000 0.000000 0.000000 0.000000 0.000000 0.139222
#
#
# Mechanical properties :
#
#
# Convention : Reuss Voigt Hill
#
# Bulk Modulus (GPa) = 15.62891 39.22691 27.42791
# Shear Modulus (GPa) = 10.93408 16.25877 13.59642
#
# Velocity S-wave (km/s) = 2.44258 2.97853 2.72377
# Velocity P-wave (km/s) = 4.05991 5.76482 4.98578
#
# Compressibility (1/GPa) = 0.06398401
#
# Stress axis : x y z
#
# Youngs Moduli (GPa) = 46.11023 14.10744 64.62611
#
# Poissons Ratio (x) = 0.03234 0.64872
# Poissons Ratio (y) = 0.10571 0.62688
# Poissons Ratio (z) = 0.46286 0.13684
#
# Static dielectric constant tensor:
#      x y z
#    x 1.725990 0.000000 0.000000 
#    y 0.000000 1.629180 0.000000 
#    z 0.000000 0.000000 1.641650 
# 
# From -- ./inp_files/61443.got.cif
#   From: 2010.05.17/outbox.cif.g08.bks.cpg/sg74_31_cif.got.tgz:61443.got - 2010.06.03 17:57:02.
