data_PCOD9539784
_publ_section_title
;
Structure prediction by ZEFSAII (Michael W. Deem and Ramdas Pophale) SiO2 
 PCOD9539784
Probable space group: I M M A
;
_chemical_formula_sum "Si O2"
_cell_formula_units_Z 56
_cell_length_a 10.808650
_cell_length_b 24.328721
_cell_length_c 9.888531
_cell_angle_alpha 90.000000
_cell_angle_beta 90.000000
_cell_angle_gamma 90.000000
_cell_volume 2600.294344
_symmetry_space_group_name_H-M "I M M A"
_symmetry_group_IT_number 74
_symmetry_cell_setting 'orthorhombic'
loop_
_space_group_symop_operation_xyz
x,y,z
-x,1/2-y,z
x,-y,-z
-x,1/2+y,-z
-x,-y,-z
x,1/2+y,-z
-x,y,z
x,1/2-y,z
1/2+x,1/2+y,1/2+z
1/2-x,-y,1/2+z
1/2+x,1/2-y,1/2-z
1/2-x,y,1/2-z
1/2-x,1/2-y,1/2-z
1/2+x,y,1/2-z
1/2-x,1/2+y,1/2+z
1/2+x,-y,1/2+z
loop_
_atom_site_type_symbol
_atom_site_label
_atom_site_fract_x
_atom_site_fract_y
_atom_site_fract_z
Si Si1 0.802072 0.957321 0.611907
Si Si2 0.500000 0.185305 0.511439
Si Si3 0.759927 0.373387 0.900166
Si Si4 0.000000 0.312800 0.537837
Si Si5 0.000000 0.629062 0.721730
O O1 0.750000 0.983866 0.750000
O O2 0.717028 0.920839 0.511613
O O3 0.888335 0.910638 0.678313
O O4 0.856286 0.000000 0.500000
O O5 0.500000 0.250000 0.485894
O O6 0.374866 0.168122 0.588735
O O7 0.500000 0.151267 0.371906
O O8 0.750000 0.396122 0.750000
O O9 0.627035 0.343749 0.922539
O O10 0.000000 0.318177 0.375417
O O11 0.000000 0.250000 0.584644
#
# Coordination Sequence:
#
# PCOD9539784 Si02
#       5
#    16   8  16   8   8
#     4  11  22  42  68  95 131 176 227 281 347 406
#     4  12  24  41  70 101 141 185 230 285 337 398
#     4  11  24  42  64  98 141 176 230 285 335 410
#     4  10  22  39  64  92 131 181 224 274 341 399
#     4  10  22  42  62  97 135 171 227 282 331 418
#
# _framework density 21.536024000000001
#
# number of rings (size 3 to 8) (size 9 to 14) (size 15 to 20)
#    0.000    1.143    2.857    3.429    0.000    3.429 
#    0.000   10.000    0.000    0.000    0.000    0.000 
#    0.000    0.000    0.000    0.000    0.000    0.000 
#
# Total GULP energy -155939.080411 kJ/mol
# GULP energy per Si atom -5569.252872 kJ/mol
# Density = 2.148701 g / cm^3
# Si number density = 21.536024 Si / 1000 Ang^3
#
#
#
# Elastic Constant Matrix: (Units=GPa)
#
#
# Indices 1 2 3 4 5 6 
#
# 1 110.9886 36.3769 38.5630 0.0000 0.0000 0.0001
# 2 36.3769 126.4871 53.4394 -0.0001 0.0000 0.0001
# 3 38.5630 53.4394 195.9530 0.0001 0.0003 0.0007
# 4 0.0000 -0.0001 0.0001 23.8701 -0.0001 0.0002
# 5 0.0000 0.0000 0.0003 -0.0001 57.5914 -0.0002
# 6 0.0001 0.0001 0.0007 0.0002 -0.0002 51.6351
#
#
#
# Elastic Compliance Matrix: (Units=1/GPa)
#
#
# Indices 1 2 3 4 5 6 
#
# 1 0.010264 -0.002372 -0.001373 0.000000 0.000000 0.000000
# 2 -0.002372 0.009484 -0.002120 0.000000 0.000000 0.000000
# 3 -0.001373 -0.002120 0.005952 0.000000 0.000000 0.000000
# 4 0.000000 0.000000 0.000000 0.041893 0.000000 0.000000
# 5 0.000000 0.000000 0.000000 0.000000 0.017364 0.000000
# 6 0.000000 0.000000 0.000000 0.000000 0.000000 0.019367
#
#
# Mechanical properties :
#
#
# Convention : Reuss Voigt Hill
#
# Bulk Modulus (GPa) = 71.57987 76.68749 74.13368
# Shear Modulus (GPa) = 41.42189 46.95595 44.18892
#
# Velocity S-wave (km/s) = 4.39039 4.67448 4.53466
# Velocity P-wave (km/s) = 7.68180 8.05112 7.86863
#
# Compressibility (1/GPa) = 0.01397041
#
# Stress axis : x y z
#
# Youngs Moduli (GPa) = 97.42385 105.44571 168.02392
#
# Poissons Ratio (x) = 0.25010 0.23073
# Poissons Ratio (y) = 0.23107 0.35613
# Poissons Ratio (z) = 0.13378 0.22350
#
# Static dielectric constant tensor:
#      x y z
#    x 1.897830 0.000000 0.000000 
#    y 0.000000 1.785930 0.000000 
#    z 0.000000 0.000000 1.809360 
# 
# From -- ./inp_files/7150.got.cif
#   From: 2010.05.17/outbox.cif.g08.bks.cpg/sg74_4_cif.got.tgz:7150.got - 2010.06.03 17:57:02.
