data_PCOD9539176
_publ_section_title
;
Structure prediction by ZEFSAII (Michael W. Deem and Ramdas Pophale) SiO2 
 PCOD9539176
Probable space group: I M M A
;
_chemical_formula_sum "Si O2"
_cell_formula_units_Z 68
_cell_length_a 23.436951
_cell_length_b 8.391500
_cell_length_c 17.339664
_cell_angle_alpha 90.000000
_cell_angle_beta 90.000000
_cell_angle_gamma 90.000000
_cell_volume 3410.212081
_symmetry_space_group_name_H-M "I M M A"
_symmetry_group_IT_number 74
_symmetry_cell_setting 'orthorhombic'
loop_
_space_group_symop_operation_xyz
x,y,z
-x,1/2-y,z
x,-y,-z
-x,1/2+y,-z
-x,-y,-z
x,1/2+y,-z
-x,y,z
x,1/2-y,z
1/2+x,1/2+y,1/2+z
1/2-x,-y,1/2+z
1/2+x,1/2-y,1/2-z
1/2-x,y,1/2-z
1/2-x,1/2-y,1/2-z
1/2+x,y,1/2-z
1/2-x,1/2+y,1/2+z
1/2+x,-y,1/2+z
loop_
_atom_site_type_symbol
_atom_site_label
_atom_site_fract_x
_atom_site_fract_y
_atom_site_fract_z
Si Si1 0.706686 0.441848 0.411710
Si Si2 0.333221 0.940103 0.912421
Si Si3 0.062116 0.942121 0.311227
Si Si4 0.500000 0.500000 0.500000
Si Si5 0.586280 0.440477 0.636611
O O1 0.703804 0.500000 0.500000
O O2 0.701573 0.250000 0.408559
O O3 0.769969 0.489634 0.383401
O O4 0.652875 0.519199 0.370256
O O5 0.333286 0.750000 0.914274
O O6 0.384715 0.997618 0.859823
O O7 0.339880 0.000000 0.000000
O O8 0.063580 0.750000 0.312560
O O9 0.066842 0.990235 0.221669
O O10 0.000000 0.994428 0.341530
O O11 0.549797 0.515788 0.567525
O O12 0.576692 0.250000 0.628275
#
# Coordination Sequence:
#
# PCOD9539176 Si02
#       5
#    16  16  16   4  16
#     4  10  21  37  59  87 120 156 200 249 296 352
#     4  10  22  41  64  90 119 155 199 249 302 359
#     4  10  22  41  62  87 121 159 199 248 299 354
#     4  12  22  36  64  94 124 164 204 240 288 344
#     4  11  23  39  61  90 125 162 203 245 293 353
#
# _framework density 19.940109
#
# number of rings (size 3 to 8) (size 9 to 14) (size 15 to 20)
#    0.000    1.647    2.353    1.765    0.000    6.588 
#    0.000    4.706    0.000    0.000    0.000    0.000 
#    0.000    0.000    0.000    0.000    0.000    0.000 
#
# Total GULP energy -189359.723029 kJ/mol
# GULP energy per Si atom -5569.403619 kJ/mol
# Density = 1.989472 g / cm^3
# Si number density = 19.940109 Si / 1000 Ang^3
#
#
#
# Elastic Constant Matrix: (Units=GPa)
#
#
# Indices 1 2 3 4 5 6 
#
# 1 205.4064 20.3207 71.6627 0.0000 0.0000 0.0000
# 2 20.3207 10.8666 9.8191 0.0000 0.0000 0.0000
# 3 71.6627 9.8191 74.2182 0.0000 0.0000 0.0000
# 4 0.0000 0.0000 0.0000 21.4775 0.0000 0.0000
# 5 0.0000 0.0000 0.0000 0.0000 34.1653 0.0000
# 6 0.0000 0.0000 0.0000 0.0000 0.0000 67.4329
#
#
#
# Elastic Compliance Matrix: (Units=1/GPa)
#
#
# Indices 1 2 3 4 5 6 
#
# 1 0.008069 -0.009142 -0.006582 0.000000 0.000000 0.000000
# 2 -0.009142 0.114878 -0.006371 0.000000 0.000000 0.000000
# 3 -0.006582 -0.006371 0.020672 0.000000 0.000000 0.000000
# 4 0.000000 0.000000 0.000000 0.046560 0.000000 0.000000
# 5 0.000000 0.000000 0.000000 0.000000 0.029269 0.000000
# 6 0.000000 0.000000 0.000000 0.000000 0.000000 0.014830
#
#
# Mechanical properties :
#
#
# Convention : Reuss Voigt Hill
#
# Bulk Modulus (GPa) = 10.05741 54.89957 32.47849
# Shear Modulus (GPa) = 16.04561 37.19438 26.62000
#
# Velocity S-wave (km/s) = 2.83978 4.32360 3.65773
# Velocity P-wave (km/s) = 3.97583 7.24684 5.84483
#
# Compressibility (1/GPa) = 0.09942918
#
# Stress axis : x y z
#
# Youngs Moduli (GPa) = 123.93018 8.70487 48.37501
#
# Poissons Ratio (x) = 0.07958 0.31839
# Poissons Ratio (y) = 1.13297 0.30821
# Poissons Ratio (z) = 0.81568 0.05546
#
# Static dielectric constant tensor:
#      x y z
#    x 1.694670 0.000000 0.000000 
#    y 0.000000 1.714880 0.000000 
#    z 0.000000 0.000000 0.979010 
# 
# From -- ./inp_files/44848.got.cif
#   From: 2010.05.17/outbox.cif.g08.bks.cpg/sg74_23_cif.got.tgz:44848.got - 2010.06.03 17:57:02.
