data_PCOD9539111
_publ_section_title
;
Structure prediction by ZEFSAII (Michael W. Deem and Ramdas Pophale) SiO2 
 PCOD9539111
Probable space group: I M M A
;
_chemical_formula_sum "Si O2"
_cell_formula_units_Z 96
_cell_length_a 7.691661
_cell_length_b 24.876529
_cell_length_c 22.320995
_cell_angle_alpha 90.000000
_cell_angle_beta 90.000000
_cell_angle_gamma 90.000000
_cell_volume 4270.939984
_symmetry_space_group_name_H-M "I M M A"
_symmetry_group_IT_number 74
_symmetry_cell_setting 'orthorhombic'
loop_
_space_group_symop_operation_xyz
x,y,z
-x,1/2-y,z
x,-y,-z
-x,1/2+y,-z
-x,-y,-z
x,1/2+y,-z
-x,y,z
x,1/2-y,z
1/2+x,1/2+y,1/2+z
1/2-x,-y,1/2+z
1/2+x,1/2-y,1/2-z
1/2-x,y,1/2-z
1/2-x,1/2-y,1/2-z
1/2+x,y,1/2-z
1/2-x,1/2+y,1/2+z
1/2+x,-y,1/2+z
loop_
_atom_site_type_symbol
_atom_site_label
_atom_site_fract_x
_atom_site_fract_y
_atom_site_fract_z
Si Si1 0.211523 0.115981 0.578934
Si Si2 0.211031 0.495043 0.430522
Si Si3 0.291348 0.689226 0.185105
Si Si4 0.801151 0.570741 0.683123
Si Si5 0.299877 0.808970 0.663641
Si Si6 0.790831 0.190224 0.473677
O O1 0.276682 0.153905 0.631378
O O2 0.268598 0.142015 0.516130
O O3 0.000000 0.118619 0.576793
O O4 0.252400 0.054762 0.592213
O O5 0.272767 0.500000 0.500000
O O6 0.277521 0.453516 0.379229
O O7 0.000000 0.486790 0.435916
O O8 0.500000 0.691822 0.179187
O O9 0.222669 0.750000 0.182964
O O10 0.250000 0.666056 0.250000
O O11 0.750000 0.551867 0.750000
O O12 0.785089 0.635486 0.683334
O O13 0.000000 0.555375 0.678156
O O14 0.500000 0.810402 0.683402
O O15 0.225157 0.750000 0.680562
O O16 0.291864 0.810781 0.591470
O O17 0.759789 0.250000 0.500696
O O18 0.000000 0.185559 0.465181
#
# Coordination Sequence:
#
# PCOD9539111 Si02
#       6
#    16  16  16  16  16  16
#     4   9  16  28  49  75 102 135 178 223 264 315
#     4   9  18  33  55  82 108 139 182 227 269 315
#     4   9  17  29  45  67  97 133 172 215 263 313
#     4  11  23  39  60  84 112 146 184 229 277 326
#     4  10  21  37  57  82 112 143 174 213 266 328
#     4   9  16  28  51  82 111 140 178 224 271 319
#
# _framework density 22.477487
#
# number of rings (size 3 to 8) (size 9 to 14) (size 15 to 20)
#    0.000    2.500    0.000    2.500    0.000    6.667 
#    0.000    0.833    0.000   14.000    0.000    0.000 
#    0.000    0.000    0.000    0.000    0.000    0.000 
#
# Total GULP energy -267652.143715 kJ/mol
# GULP energy per Si atom -5576.086327 kJ/mol
# Density = 2.242633 g / cm^3
# Si number density = 22.477487 Si / 1000 Ang^3
#
#
#
# Elastic Constant Matrix: (Units=GPa)
#
#
# Indices 1 2 3 4 5 6 
#
# 1 32.9903 0.5872 5.5265 0.0000 0.0000 0.0000
# 2 0.5872 74.2186 60.7245 0.0000 0.0000 0.0000
# 3 5.5265 60.7245 154.3156 0.0000 0.0000 0.0001
# 4 0.0000 0.0000 0.0000 24.8169 0.0000 0.0000
# 5 0.0000 0.0000 0.0000 0.0000 23.0641 0.0000
# 6 0.0000 0.0000 0.0001 0.0000 0.0000 -64.1108
#
#
#
# Elastic Compliance Matrix: (Units=1/GPa)
#
#
# Indices 1 2 3 4 5 6 
#
# 1 0.030542 0.000963 -0.001473 0.000000 0.000000 0.000000
# 2 0.000963 0.019902 -0.007866 0.000000 0.000000 0.000000
# 3 -0.001473 -0.007866 0.009628 0.000000 0.000000 0.000000
# 4 0.000000 0.000000 0.000000 0.040295 0.000000 0.000000
# 5 0.000000 0.000000 0.000000 0.000000 0.043357 0.000000
# 6 0.000000 0.000000 0.000000 0.000000 0.000000 -0.015598
#
#
# Mechanical properties :
#
#
# Convention : Reuss Voigt Hill
#
# Bulk Modulus (GPa) = 23.08360 43.91122 33.49741
# Shear Modulus (GPa) = 31.38382 9.73313 20.55847
#
# Velocity S-wave (km/s) = 3.74067 2.08316 3.02756
# Velocity P-wave (km/s) = 5.38041 5.03628 5.21119
#
# Compressibility (1/GPa) = 0.04332080
#
# Stress axis : x y z
#
# Youngs Moduli (GPa) = 32.74231 50.24617 103.85983
#
# Poissons Ratio (x) = -0.04841 0.15298
# Poissons Ratio (y) = -0.03155 0.81697
# Poissons Ratio (z) = 0.04823 0.39524
#
# Static dielectric constant tensor:
#      x y z
#    x 1.847790 0.000000 0.000000 
#    y 0.000000 1.831440 0.000000 
#    z 0.000000 0.000000 1.850830 
# 
# From -- ./inp_files/49134.got.cif
#   From: 2010.05.17/outbox.cif.g08.bks.cpg/sg74_25_cif.got.tgz:49134.got - 2010.06.03 17:57:02.
