data_PCOD9539278
_publ_section_title
;
Structure prediction by ZEFSAII (Michael W. Deem and Ramdas Pophale) SiO2 
 PCOD9539278
Probable space group: I M M A
;
_chemical_formula_sum "Si O2"
_cell_formula_units_Z 112
_cell_length_a 14.848303
_cell_length_b 25.312930
_cell_length_c 15.256013
_cell_angle_alpha 90.000000
_cell_angle_beta 90.000000
_cell_angle_gamma 90.000000
_cell_volume 5734.034341
_symmetry_space_group_name_H-M "I M M A"
_symmetry_group_IT_number 74
_symmetry_cell_setting 'orthorhombic'
loop_
_space_group_symop_operation_xyz
x,y,z
-x,1/2-y,z
x,-y,-z
-x,1/2+y,-z
-x,-y,-z
x,1/2+y,-z
-x,y,z
x,1/2-y,z
1/2+x,1/2+y,1/2+z
1/2-x,-y,1/2+z
1/2+x,1/2-y,1/2-z
1/2-x,y,1/2-z
1/2-x,1/2-y,1/2-z
1/2+x,y,1/2-z
1/2-x,1/2+y,1/2+z
1/2+x,-y,1/2+z
loop_
_atom_site_type_symbol
_atom_site_label
_atom_site_fract_x
_atom_site_fract_y
_atom_site_fract_z
Si Si1 0.391204 0.582970 0.728739
Si Si2 0.608495 0.987514 0.397582
Si Si3 0.601252 0.872757 0.908494
Si Si4 0.253636 0.309826 0.996479
Si Si5 0.745216 0.398649 0.651330
Si Si6 0.107662 0.808246 0.862037
Si Si7 0.100716 0.954541 0.435957
O O1 0.500000 0.579706 0.724338
O O2 0.359757 0.535078 0.667101
O O3 0.368243 0.587108 0.831550
O O4 0.363735 0.640352 0.692005
O O5 0.500000 0.982643 0.390497
O O6 0.658154 0.933963 0.370089
O O7 0.628757 0.000000 0.500000
O O8 0.500000 0.853323 0.885058
O O9 0.672951 0.827885 0.930750
O O10 0.593252 0.905278 0.998201
O O11 0.272446 0.250000 0.968190
O O12 0.252852 0.351034 0.917297
O O13 0.158017 0.311530 0.045530
O O14 0.750000 0.378973 0.750000
O O15 0.829790 0.438315 0.637553
O O16 0.129497 0.750000 0.823719
O O17 0.000000 0.810935 0.872059
O O18 0.000000 0.969293 0.404564
O O19 0.135504 0.000000 0.500000
#
# Coordination Sequence:
#
# PCOD9539278 Si02
#       7
#    16  16  16  16  16  16  16
#     4   9  18  33  55  84 117 150 187 231 287 343
#     4  10  21  38  59  84 119 158 192 233 287 347
#     4   9  19  35  55  82 110 143 186 232 287 349
#     4  10  22  40  59  79 108 150 197 243 298 354
#     4  11  24  38  56  86 113 144 196 245 292 347
#     4   9  18  34  55  79 111 149 187 229 278 336
#     4   9  19  36  57  77 109 150 186 229 286 348
#
# _framework density 19.532495000000001
#
# number of rings (size 3 to 8) (size 9 to 14) (size 15 to 20)
#    0.000    2.429    0.000    1.286    2.000    5.143 
#    0.000    2.857    0.000    0.000    0.000    4.000 
#    0.000    0.000    0.000    0.000    0.000    0.000 
#
# Total GULP energy -312326.222516 kJ/mol
# GULP energy per Si atom -5577.253973 kJ/mol
# Density = 1.948804 g / cm^3
# Si number density = 19.532495 Si / 1000 Ang^3
#
#
#
# Elastic Constant Matrix: (Units=GPa)
#
#
# Indices 1 2 3 4 5 6 
#
# 1 46.8560 23.3854 23.9726 0.0000 0.0000 0.0000
# 2 23.3854 90.6628 22.3998 0.0001 -0.0001 0.0000
# 3 23.9726 22.3998 74.5135 0.0001 -0.0001 0.0000
# 4 0.0000 0.0001 0.0001 11.5123 0.0000 0.0000
# 5 0.0000 -0.0001 -0.0001 0.0000 -9.3448 0.0000
# 6 0.0000 0.0000 0.0000 0.0000 0.0000 14.4775
#
#
#
# Elastic Compliance Matrix: (Units=1/GPa)
#
#
# Indices 1 2 3 4 5 6 
#
# 1 0.027759 -0.005351 -0.007322 0.000000 0.000000 0.000000
# 2 -0.005351 0.012946 -0.002170 0.000000 0.000000 0.000000
# 3 -0.007322 -0.002170 0.016428 0.000000 0.000000 0.000000
# 4 0.000000 0.000000 0.000000 0.086864 0.000000 0.000000
# 5 0.000000 0.000000 0.000000 0.000000 -0.107011 0.000000
# 6 0.000000 0.000000 0.000000 0.000000 0.000000 0.069073
#
#
# Mechanical properties :
#
#
# Convention : Reuss Voigt Hill
#
# Bulk Modulus (GPa) = 36.43401 39.06087 37.74744
# Shear Modulus (GPa) = 34.50797 12.81397 23.66097
#
# Velocity S-wave (km/s) = 4.20777 2.56409 3.48424
# Velocity P-wave (km/s) = 6.50389 5.36725 5.96272
#
# Compressibility (1/GPa) = 0.02744689
#
# Stress axis : x y z
#
# Youngs Moduli (GPa) = 36.02475 77.24200 60.87000
#
# Poissons Ratio (x) = 0.41332 0.44569
# Poissons Ratio (y) = 0.19277 0.13211
# Poissons Ratio (z) = 0.26377 0.16764
#
# Static dielectric constant tensor:
#      x y z
#    x 1.732610 0.000000 0.000000 
#    y 0.000000 1.689980 0.000000 
#    z 0.000000 0.000000 1.681720 
# 
# From -- ./inp_files/32683.got.cif
#   From: 2010.05.17/outbox.cif.g08.bks.cpg/sg74_17_cif.got.tgz:32683.got - 2010.06.03 17:57:02.
