data_PCOD9539994
_publ_section_title
;
Structure prediction by ZEFSAII (Michael W. Deem and Ramdas Pophale) SiO2 
 PCOD9539994
Probable space group: I M M A
;
_chemical_formula_sum "Si O2"
_cell_formula_units_Z 52
_cell_length_a 10.698939
_cell_length_b 23.224890
_cell_length_c 9.806595
_cell_angle_alpha 90.000000
_cell_angle_beta 90.000000
_cell_angle_gamma 90.000000
_cell_volume 2436.759214
_symmetry_space_group_name_H-M "I M M A"
_symmetry_group_IT_number 74
_symmetry_cell_setting 'orthorhombic'
loop_
_space_group_symop_operation_xyz
x,y,z
-x,1/2-y,z
x,-y,-z
-x,1/2+y,-z
-x,-y,-z
x,1/2+y,-z
-x,y,z
x,1/2-y,z
1/2+x,1/2+y,1/2+z
1/2-x,-y,1/2+z
1/2+x,1/2-y,1/2-z
1/2-x,y,1/2-z
1/2-x,1/2-y,1/2-z
1/2+x,y,1/2-z
1/2-x,1/2+y,1/2+z
1/2+x,-y,1/2+z
loop_
_atom_site_type_symbol
_atom_site_label
_atom_site_fract_x
_atom_site_fract_y
_atom_site_fract_z
Si Si1 0.859045 0.972301 0.351808
Si Si2 0.500000 0.250000 0.974864
Si Si3 0.788947 0.840453 0.398257
Si Si4 0.138920 0.820049 0.848521
O O1 0.750000 0.992026 0.250000
O O2 0.842072 0.903850 0.372420
O O3 0.000000 0.984243 0.301236
O O4 0.844843 0.000000 0.500000
O O5 0.390869 0.299764 0.967265
O O6 0.750000 0.817288 0.250000
O O7 0.671375 0.841003 0.499990
O O8 0.139747 0.750000 0.847678
O O9 0.250000 0.840032 0.750000
O O10 0.000000 0.837875 0.804584
#
# Coordination Sequence:
#
# PCOD9539994 Si02
#       4
#    16   4  16  16
#     4  10  23  44  67  94 126 165 215 267 315 373
#     4  12  22  36  62  98 130 170 198 262 316 390
#     4  11  24  38  64  94 129 168 211 258 315 382
#     4  10  23  38  57  84 124 169 214 256 308 375
#
# _framework density 21.339818999999999
#
# number of rings (size 3 to 8) (size 9 to 14) (size 15 to 20)
#    0.000    1.538    3.077    0.462    4.308    3.077 
#    0.000    3.077    0.000    0.000    0.000    0.000 
#    0.000    0.000    0.000    0.000    0.000    0.000 
#
# Total GULP energy -144828.341786 kJ/mol
# GULP energy per Si atom -5570.320838 kJ/mol
# Density = 2.129125 g / cm^3
# Si number density = 21.339819 Si / 1000 Ang^3
#
#
#
# Elastic Constant Matrix: (Units=GPa)
#
#
# Indices 1 2 3 4 5 6 
#
# 1 204.2408 11.7878 75.6519 0.0000 0.0000 0.0000
# 2 11.7878 25.3714 5.7044 -0.0001 0.0000 0.0000
# 3 75.6519 5.7044 97.3164 -0.0003 0.0001 -0.0002
# 4 0.0000 -0.0001 -0.0003 1.3831 0.0000 -0.0001
# 5 0.0000 0.0000 0.0001 0.0000 25.6336 0.0001
# 6 0.0000 0.0000 -0.0002 -0.0001 0.0001 -37.1281
#
#
#
# Elastic Compliance Matrix: (Units=1/GPa)
#
#
# Indices 1 2 3 4 5 6 
#
# 1 0.006980 -0.002050 -0.005306 -0.000001 0.000000 0.000000
# 2 -0.002050 0.040543 -0.000783 0.000003 0.000000 0.000000
# 3 -0.005306 -0.000783 0.014446 0.000003 0.000000 0.000000
# 4 -0.000001 0.000003 0.000003 0.722995 0.000000 -0.000002
# 5 0.000000 0.000000 0.000000 0.000000 0.039011 0.000000
# 6 0.000000 0.000000 0.000000 -0.000002 0.000000 -0.026934
#
#
# Mechanical properties :
#
#
# Convention : Reuss Voigt Hill
#
# Bulk Modulus (GPa) = 21.88582 57.02408 39.45495
# Shear Modulus (GPa) = 6.03465 13.56337 9.79901
#
# Velocity S-wave (km/s) = 1.68345 2.52383 2.14519
# Velocity P-wave (km/s) = 3.74924 5.93910 4.96637
#
# Compressibility (1/GPa) = 0.04569169
#
# Stress axis : x y z
#
# Youngs Moduli (GPa) = 143.27076 24.66523 69.22197
#
# Poissons Ratio (x) = 0.05056 0.36728
# Poissons Ratio (y) = 0.29370 0.05419
# Poissons Ratio (z) = 0.76017 0.01931
#
# Static dielectric constant tensor:
#      x y z
#    x 1.792820 0.000000 0.000000 
#    y 0.000000 1.745860 0.000000 
#    z 0.000000 0.000000 1.796600 
# 
# From -- ./inp_files/7008.got.cif
#   From: 2010.05.17/outbox.cif.g08.bks.cpg/sg74_4_cif.got.tgz:7008.got - 2010.06.03 17:57:02.
