data_PCOD9539615
_publ_section_title
;
Structure prediction by ZEFSAII (Michael W. Deem and Ramdas Pophale) SiO2 
 PCOD9539615
Probable space group: I M M A
;
_chemical_formula_sum "Si O2"
_cell_formula_units_Z 96
_cell_length_a 14.846772
_cell_length_b 21.572212
_cell_length_c 14.768164
_cell_angle_alpha 90.000000
_cell_angle_beta 90.000000
_cell_angle_gamma 90.000000
_cell_volume 4729.913793
_symmetry_space_group_name_H-M "I M M A"
_symmetry_group_IT_number 74
_symmetry_cell_setting 'orthorhombic'
loop_
_space_group_symop_operation_xyz
x,y,z
-x,1/2-y,z
x,-y,-z
-x,1/2+y,-z
-x,-y,-z
x,1/2+y,-z
-x,y,z
x,1/2-y,z
1/2+x,1/2+y,1/2+z
1/2-x,-y,1/2+z
1/2+x,1/2-y,1/2-z
1/2-x,y,1/2-z
1/2-x,1/2-y,1/2-z
1/2+x,y,1/2-z
1/2-x,1/2+y,1/2+z
1/2+x,-y,1/2+z
loop_
_atom_site_type_symbol
_atom_site_label
_atom_site_fract_x
_atom_site_fract_y
_atom_site_fract_z
Si Si1 0.107287 0.353317 0.628275
Si Si2 0.307825 0.116199 0.159758
Si Si3 0.392417 0.250000 0.409460
Si Si4 0.105771 0.178677 0.835059
Si Si5 0.725306 0.649718 0.485994
Si Si6 0.393130 0.005013 0.896260
Si Si7 0.106928 0.750000 0.691717
O O1 0.120577 0.326029 0.727914
O O2 0.178909 0.327060 0.556011
O O3 0.131499 0.426299 0.636553
O O4 0.000000 0.346494 0.603837
O O5 0.250000 0.117944 0.250000
O O6 0.368844 0.055052 0.162266
O O7 0.352913 0.184981 0.154393
O O8 0.253466 0.104804 0.066839
O O9 0.500000 0.250000 0.425037
O O10 0.341809 0.193576 0.457134
O O11 0.377135 0.250000 0.301008
O O12 0.126291 0.250000 0.861170
O O13 0.167514 0.134843 0.896428
O O14 0.000000 0.167099 0.851304
O O15 0.500000 0.005691 0.899935
O O16 0.361456 0.000000 0.000000
O O17 0.000000 0.750000 0.676308
#
# Coordination Sequence:
#
# PCOD9539615 Si02
#       7
#    16  16   8  16  16  16   8
#     4  10  23  41  63  94 129 164 216 267 314 375
#     4  12  24  40  62  96 129 158 207 266 314 380
#     4  11  23  41  63  90 128 176 212 251 312 388
#     4  10  22  40  62  92 128 170 212 255 308 376
#     4  12  22  37  65  91 126 169 209 257 315 367
#     4  10  21  43  67  87 120 168 211 254 315 381
#     4  11  24  42  62  89 125 166 211 261 322 372
#
# _framework density 20.296353
#
# number of rings (size 3 to 8) (size 9 to 14) (size 15 to 20)
#    0.000    1.167    4.167    2.250    1.167    2.667 
#    0.000    0.000    0.000    0.000    0.000    8.167 
#    0.000    0.000    0.000    0.000    0.000    0.000 
#
# Total GULP energy -267431.868132 kJ/mol
# GULP energy per Si atom -5571.497253 kJ/mol
# Density = 2.025016 g / cm^3
# Si number density = 20.296353 Si / 1000 Ang^3
#
#
#
# Elastic Constant Matrix: (Units=GPa)
#
#
# Indices 1 2 3 4 5 6 
#
# 1 90.2814 36.1514 52.6994 0.0000 0.0000 0.0000
# 2 36.1514 98.5519 16.5925 0.0000 0.0000 0.0001
# 3 52.6994 16.5925 108.5101 0.0000 0.0000 0.0002
# 4 0.0000 0.0000 0.0000 0.7045 0.0000 0.0002
# 5 0.0000 0.0000 0.0000 0.0000 31.4050 0.0000
# 6 0.0000 0.0001 0.0002 0.0002 0.0000 87.6442
#
#
#
# Elastic Compliance Matrix: (Units=1/GPa)
#
#
# Indices 1 2 3 4 5 6 
#
# 1 0.017709 -0.005182 -0.007808 0.000001 0.000000 0.000000
# 2 -0.005182 0.011931 0.000692 -0.000001 0.000000 0.000000
# 3 -0.007808 0.000692 0.012902 -0.000001 0.000000 0.000000
# 4 0.000001 -0.000001 -0.000001 1.419380 0.000000 -0.000003
# 5 0.000000 0.000000 0.000000 0.000000 0.031842 0.000000
# 6 0.000000 0.000000 0.000000 -0.000003 0.000000 0.011410
#
#
# Mechanical properties :
#
#
# Convention : Reuss Voigt Hill
#
# Bulk Modulus (GPa) = 55.72031 56.46999 56.09515
# Shear Modulus (GPa) = 3.25573 36.74410 19.99992
#
# Velocity S-wave (km/s) = 1.26790 4.25947 3.14250
# Velocity P-wave (km/s) = 5.44577 7.21623 6.39259
#
# Compressibility (1/GPa) = 0.01794678
#
# Stress axis : x y z
#
# Youngs Moduli (GPa) = 56.46749 83.81414 77.50638
#
# Poissons Ratio (x) = 0.43429 0.60520
# Poissons Ratio (y) = 0.29259 -0.05364
# Poissons Ratio (z) = 0.44092 -0.05801
#
# Static dielectric constant tensor:
#      x y z
#    x 1.739070 0.000000 0.000000 
#    y 0.000000 1.659310 0.000000 
#    z 0.000000 0.000000 1.768000 
# 
# From -- ./inp_files/32421.got.cif
#   From: 2010.05.17/outbox.cif.g08.bks.cpg/sg74_17_cif.got.tgz:32421.got - 2010.06.03 17:57:02.
