data_PCOD9539823
_publ_section_title
;
Structure prediction by ZEFSAII (Michael W. Deem and Ramdas Pophale) SiO2 
 PCOD9539823
Probable space group: I M M A
;
_chemical_formula_sum "Si O2"
_cell_formula_units_Z 112
_cell_length_a 14.088820
_cell_length_b 15.400822
_cell_length_c 22.933986
_cell_angle_alpha 90.000000
_cell_angle_beta 90.000000
_cell_angle_gamma 90.000000
_cell_volume 4976.202729
_symmetry_space_group_name_H-M "I M M A"
_symmetry_group_IT_number 74
_symmetry_cell_setting 'orthorhombic'
loop_
_space_group_symop_operation_xyz
x,y,z
-x,1/2-y,z
x,-y,-z
-x,1/2+y,-z
-x,-y,-z
x,1/2+y,-z
-x,y,z
x,1/2-y,z
1/2+x,1/2+y,1/2+z
1/2-x,-y,1/2+z
1/2+x,1/2-y,1/2-z
1/2-x,y,1/2-z
1/2-x,1/2-y,1/2-z
1/2+x,y,1/2-z
1/2-x,1/2+y,1/2+z
1/2+x,-y,1/2+z
loop_
_atom_site_type_symbol
_atom_site_label
_atom_site_fract_x
_atom_site_fract_y
_atom_site_fract_z
Si Si1 0.819764 0.346479 0.869466
Si Si2 0.888639 0.147166 0.441558
Si Si3 0.205047 0.602878 0.006067
Si Si4 0.615411 0.508785 0.701019
Si Si5 0.399012 0.656143 0.142845
Si Si6 0.606800 0.044166 0.173665
Si Si7 0.386082 0.843279 0.612480
O O1 0.852858 0.250000 0.853726
O O2 0.843726 0.416047 0.819617
O O3 0.706591 0.343151 0.881088
O O4 0.849621 0.373329 0.934363
O O5 0.883215 0.250000 0.427601
O O6 0.815821 0.128654 0.494251
O O7 0.000000 0.126683 0.454290
O O8 0.856452 0.088164 0.385821
O O9 0.152052 0.646837 0.952272
O O10 0.201299 0.500000 0.000000
O O11 0.500000 0.500612 0.703239
O O12 0.648022 0.551187 0.761877
O O13 0.643994 0.575601 0.650900
O O14 0.500000 0.657412 0.108461
O O15 0.401346 0.750000 0.176227
O O16 0.399939 0.560755 0.170324
O O17 0.500000 0.080953 0.176615
O O18 0.500000 0.844505 0.611976
O O19 0.354407 0.750000 0.636719
#
# Coordination Sequence:
#
# PCOD9539823 Si02
#       7
#    16  16  16  16  16  16  16
#     4  11  23  38  58  89 125 164 209 256 314 379
#     4  10  22  40  63  95 132 168 209 257 312 375
#     4  12  23  40  64  88 124 168 207 263 312 370
#     4  10  22  40  61  89 122 159 207 260 316 378
#     4   9  19  37  59  84 118 159 204 255 307 362
#     4   9  19  37  61  87 119 160 206 257 312 371
#     4  10  22  41  63  86 116 157 205 256 311 368
#
# _framework density 22.507121999999999
#
# number of rings (size 3 to 8) (size 9 to 14) (size 15 to 20)
#    0.000    1.857    1.429    2.143    0.000    3.714 
#    0.000    7.143    0.000    1.714    0.000    0.000 
#    0.000    0.000    0.000    0.000    0.000    0.000 
#
# Total GULP energy -311839.327124 kJ/mol
# GULP energy per Si atom -5568.559413 kJ/mol
# Density = 2.245589 g / cm^3
# Si number density = 22.507122 Si / 1000 Ang^3
#
#
#
# Elastic Constant Matrix: (Units=GPa)
#
#
# Indices 1 2 3 4 5 6 
#
# 1 39.9605 5.8993 -5.1658 0.0000 0.0000 0.0000
# 2 5.8993 93.9446 -17.2317 0.0000 0.0000 0.0000
# 3 -5.1658 -17.2317 30.5059 0.0000 0.0000 0.0000
# 4 0.0000 0.0000 0.0000 2.8342 0.0000 0.0000
# 5 0.0000 0.0000 0.0000 0.0000 18.7435 0.0000
# 6 0.0000 0.0000 0.0000 0.0000 0.0000 11.6677
#
#
#
# Elastic Compliance Matrix: (Units=1/GPa)
#
#
# Indices 1 2 3 4 5 6 
#
# 1 0.025654 -0.000908 0.003831 0.000000 0.000000 0.000000
# 2 -0.000908 0.011907 0.006572 0.000000 0.000000 0.000000
# 3 0.003831 0.006572 0.037142 0.000000 0.000000 0.000000
# 4 0.000000 0.000000 0.000000 0.352837 0.000000 0.000000
# 5 0.000000 0.000000 0.000000 0.000000 0.053352 0.000000
# 6 0.000000 0.000000 0.000000 0.000000 0.000000 0.085707
#
#
# Mechanical properties :
#
#
# Convention : Reuss Voigt Hill
#
# Bulk Modulus (GPa) = 10.67317 14.60163 12.63740
# Shear Modulus (GPa) = 8.63797 18.70968 13.67382
#
# Velocity S-wave (km/s) = 1.96118 2.88632 2.46749
# Velocity P-wave (km/s) = 3.14336 4.19636 3.70743
#
# Compressibility (1/GPa) = 0.09369288
#
# Stress axis : x y z
#
# Youngs Moduli (GPa) = 38.98022 83.98368 26.92392
#
# Poissons Ratio (x) = 0.07628 -0.10315
# Poissons Ratio (y) = 0.03540 -0.17695
# Poissons Ratio (z) = -0.14934 -0.55195
#
# Static dielectric constant tensor:
#      x y z
#    x 1.915610 0.000000 0.000000 
#    y 0.000000 1.844670 0.000000 
#    z 0.000000 0.000000 1.856960 
# 
# From -- ./inp_files/60117.got.cif
#   From: 2010.05.17/outbox.cif.g08.bks.cpg/sg74_31_cif.got.tgz:60117.got - 2010.06.03 17:57:02.
