data_PCOD9539130
_publ_section_title
;
Structure prediction by ZEFSAII (Michael W. Deem and Ramdas Pophale) SiO2 
 PCOD9539130
Probable space group: I M M A
;
_chemical_formula_sum "Si O2"
_cell_formula_units_Z 80
_cell_length_a 18.551329
_cell_length_b 29.625673
_cell_length_c 7.345706
_cell_angle_alpha 90.000000
_cell_angle_beta 90.000000
_cell_angle_gamma 90.000000
_cell_volume 4037.167745
_symmetry_space_group_name_H-M "I M M A"
_symmetry_group_IT_number 74
_symmetry_cell_setting 'orthorhombic'
loop_
_space_group_symop_operation_xyz
x,y,z
-x,1/2-y,z
x,-y,-z
-x,1/2+y,-z
-x,-y,-z
x,1/2+y,-z
-x,y,z
x,1/2-y,z
1/2+x,1/2+y,1/2+z
1/2-x,-y,1/2+z
1/2+x,1/2-y,1/2-z
1/2-x,y,1/2-z
1/2-x,1/2-y,1/2-z
1/2+x,y,1/2-z
1/2-x,1/2+y,1/2+z
1/2+x,-y,1/2+z
loop_
_atom_site_type_symbol
_atom_site_label
_atom_site_fract_x
_atom_site_fract_y
_atom_site_fract_z
Si Si1 0.150165 0.356828 0.423549
Si Si2 0.414474 0.546521 0.896652
Si Si3 0.307962 0.546104 0.591541
Si Si4 0.315513 0.142121 0.501047
Si Si5 0.917037 0.303459 0.727333
O O1 0.124492 0.408019 0.468185
O O2 0.230960 0.346306 0.492903
O O3 0.153180 0.353025 0.204495
O O4 0.097739 0.322709 0.525928
O O5 0.500000 0.553559 0.901020
O O6 0.383447 0.539811 0.694271
O O7 0.397393 0.500000 0.000000
O O8 0.284615 0.500000 0.500000
O O9 0.250000 0.558175 0.750000
O O10 0.315844 0.588472 0.459238
O O11 0.362539 0.170607 0.639287
O O12 0.904504 0.250000 0.733941
O O13 0.000000 0.312395 0.778824
#
# Coordination Sequence:
#
# PCOD9539130 Si02
#       5
#    16  16  16  16  16
#     4  10  21  42  65  91 127 167 210 266 325 379
#     4  10  21  37  57  88 126 165 209 254 309 373
#     4  11  22  37  60  90 127 169 212 258 311 378
#     4  10  22  41  65  96 126 165 215 266 321 381
#     4  11  26  44  65  95 127 167 215 265 331 395
#
# _framework density 19.815873
#
# number of rings (size 3 to 8) (size 9 to 14) (size 15 to 20)
#    0.000    1.600    4.000    1.800    2.800    6.800 
#    0.000    4.000    0.000    0.000    0.000    0.000 
#    0.000    0.000    0.000    0.000    0.000    0.000 
#
# Total GULP energy -223348.999064 kJ/mol
# GULP energy per Si atom -5583.724977 kJ/mol
# Density = 1.977077 g / cm^3
# Si number density = 19.815873 Si / 1000 Ang^3
#
#
#
# Elastic Constant Matrix: (Units=GPa)
#
#
# Indices 1 2 3 4 5 6 
#
# 1 96.8701 54.6416 34.6805 -0.0001 -0.0001 -0.0010
# 2 54.6416 100.5385 35.6022 0.0000 0.0001 -0.0005
# 3 34.6805 35.6022 47.6416 0.0000 0.0004 0.0006
# 4 -0.0001 0.0000 0.0000 31.6379 0.0000 0.0001
# 5 -0.0001 0.0001 0.0004 0.0000 28.8414 -0.0001
# 6 -0.0010 -0.0005 0.0006 0.0001 -0.0001 -1.0949
#
#
#
# Elastic Compliance Matrix: (Units=1/GPa)
#
#
# Indices 1 2 3 4 5 6 
#
# 1 0.016539 -0.006426 -0.007237 0.000000 0.000000 -0.000016
# 2 -0.006426 0.016022 -0.007296 0.000000 0.000000 -0.000006
# 3 -0.007237 -0.007296 0.031710 0.000000 0.000000 0.000027
# 4 0.000000 0.000000 0.000000 0.031608 0.000000 0.000002
# 5 0.000000 0.000000 0.000000 0.000000 0.034672 -0.000004
# 6 -0.000016 -0.000006 0.000027 0.000002 -0.000004 -0.913344
#
#
# Mechanical properties :
#
#
# Convention : Reuss Voigt Hill
#
# Bulk Modulus (GPa) = 44.73512 54.98873 49.86193
# Shear Modulus (GPa) = -6.81734 19.88530 6.53398
#
# Velocity S-wave (km/s) = -1.85683 3.17125 1.81783
# Velocity P-wave (km/s) = 4.24586 6.42022 5.44272
#
# Compressibility (1/GPa) = 0.02235380
#
# Stress axis : x y z
#
# Youngs Moduli (GPa) = 60.46408 62.41304 31.53533
#
# Poissons Ratio (x) = 0.40105 0.22823
# Poissons Ratio (y) = 0.38853 0.23007
# Poissons Ratio (z) = 0.43760 0.45535
#
# Static dielectric constant tensor:
#      x y z
#    x 1.704680 0.000000 0.000000 
#    y 0.000000 1.699020 0.000000 
#    z 0.000000 0.000000 1.680660 
# 
# From -- ./inp_files/11166.got.cif
#   From: 2010.05.17/outbox.cif.g08.bks.cpg/sg74_6_cif.got.tgz:11166.got - 2010.06.03 17:57:02.
