data_PCOD9539016
_publ_section_title
;
Structure prediction by ZEFSAII (Michael W. Deem and Ramdas Pophale) SiO2 
 PCOD9539016
Probable space group: I M M A
;
_chemical_formula_sum "Si O2"
_cell_formula_units_Z 112
_cell_length_a 25.305535
_cell_length_b 15.197142
_cell_length_c 15.375914
_cell_angle_alpha 90.000000
_cell_angle_beta 90.000000
_cell_angle_gamma 90.000000
_cell_volume 5913.143059
_symmetry_space_group_name_H-M "I M M A"
_symmetry_group_IT_number 74
_symmetry_cell_setting 'orthorhombic'
loop_
_space_group_symop_operation_xyz
x,y,z
-x,1/2-y,z
x,-y,-z
-x,1/2+y,-z
-x,-y,-z
x,1/2+y,-z
-x,y,z
x,1/2-y,z
1/2+x,1/2+y,1/2+z
1/2-x,-y,1/2+z
1/2+x,1/2-y,1/2-z
1/2-x,y,1/2-z
1/2-x,1/2-y,1/2-z
1/2+x,y,1/2-z
1/2-x,1/2+y,1/2+z
1/2+x,-y,1/2+z
loop_
_atom_site_type_symbol
_atom_site_label
_atom_site_fract_x
_atom_site_fract_y
_atom_site_fract_z
Si Si1 0.561123 0.469210 0.359540
Si Si2 0.940479 0.348862 0.309954
Si Si3 0.116751 0.651825 0.173417
Si Si4 0.142046 0.940391 0.578241
Si Si5 0.298571 0.074579 0.804685
Si Si6 0.643323 0.352402 0.469791
Si Si7 0.742201 0.354508 0.987933
O O1 0.500000 0.467902 0.391332
O O2 0.564054 0.412267 0.272000
O O3 0.577958 0.567747 0.331216
O O4 0.601695 0.419593 0.425663
O O5 0.931343 0.250000 0.278985
O O6 0.899971 0.374118 0.384103
O O7 0.000000 0.355462 0.344070
O O8 0.094742 0.750000 0.192758
O O9 0.164766 0.633313 0.240890
O O10 0.135902 0.653696 0.073623
O O11 0.193015 0.892154 0.540326
O O12 0.120048 0.000000 0.500000
O O13 0.162552 0.002671 0.655136
O O14 0.250000 0.036092 0.750000
O O15 0.270476 0.120549 0.887798
O O16 0.638130 0.250000 0.436858
O O17 0.703726 0.386830 0.466170
O O18 0.745135 0.250000 0.992297
#
# Coordination Sequence:
#
# PCOD9539016 Si02
#       7
#    16  16  16  16  16  16  16
#     4  11  24  42  63  87 121 163 208 260 308 364
#     4  10  21  40  65  88 114 156 206 252 303 367
#     4  11  23  38  61  88 119 162 207 251 302 362
#     4  10  22  36  58  92 120 157 195 250 308 365
#     4  11  21  36  60  87 124 163 202 241 300 366
#     4  10  22  38  59  91 125 160 204 251 301 362
#     4  10  21  36  58  89 126 161 200 251 306 369
#
# _framework density 18.940857000000001
#
# number of rings (size 3 to 8) (size 9 to 14) (size 15 to 20)
#    0.000    1.571    2.857    1.714    2.000    4.286 
#    0.000    1.429    0.000    3.429    0.000    0.000 
#    0.000    0.000    0.000    0.000    0.000    0.000 
#
# Total GULP energy -312258.277662 kJ/mol
# GULP energy per Si atom -5576.040673 kJ/mol
# Density = 1.889775 g / cm^3
# Si number density = 18.940857 Si / 1000 Ang^3
#
#
#
# Elastic Constant Matrix: (Units=GPa)
#
#
# Indices 1 2 3 4 5 6 
#
# 1 94.5268 55.9592 60.9360 0.0000 0.0000 0.0000
# 2 55.9592 94.6679 31.1343 0.0000 0.0000 0.0000
# 3 60.9360 31.1343 72.3928 0.0000 0.0000 0.0000
# 4 0.0000 0.0000 0.0000 26.4124 0.0000 0.0000
# 5 0.0000 0.0000 0.0000 0.0000 24.9126 0.0000
# 6 0.0000 0.0000 0.0000 0.0000 0.0000 12.6769
#
#
#
# Elastic Compliance Matrix: (Units=1/GPa)
#
#
# Indices 1 2 3 4 5 6 
#
# 1 0.030918 -0.011318 -0.021158 0.000000 0.000000 0.000000
# 2 -0.011318 0.016446 0.002453 0.000000 0.000000 0.000000
# 3 -0.021158 0.002453 0.030568 0.000000 0.000000 0.000000
# 4 0.000000 0.000000 0.000000 0.037861 0.000000 0.000000
# 5 0.000000 0.000000 0.000000 0.000000 0.040140 0.000000
# 6 0.000000 0.000000 0.000000 0.000000 0.000000 0.078884
#
#
# Mechanical properties :
#
#
# Convention : Reuss Voigt Hill
#
# Bulk Modulus (GPa) = 55.90243 61.96072 58.93158
# Shear Modulus (GPa) = 16.62104 20.37091 18.49597
#
# Velocity S-wave (km/s) = 2.96551 3.28304 3.12831
# Velocity P-wave (km/s) = 6.42682 6.86694 6.65052
#
# Compressibility (1/GPa) = 0.01788831
#
# Stress axis : x y z
#
# Youngs Moduli (GPa) = 32.34351 60.80367 32.71436
#
# Poissons Ratio (x) = 0.68816 0.69216
# Poissons Ratio (y) = 0.36605 -0.08026
# Poissons Ratio (z) = 0.68431 -0.14918
#
# Static dielectric constant tensor:
#      x y z
#    x 1.676270 0.000000 0.000000 
#    y 0.000000 1.686190 0.000000 
#    z 0.000000 0.000000 1.648190 
# 
# From -- ./inp_files/32720.got.cif
#   From: 2010.05.17/outbox.cif.g08.bks.cpg/sg74_17_cif.got.tgz:32720.got - 2010.06.03 17:57:02.
