data_PCOD9539464
_publ_section_title
;
Structure prediction by ZEFSAII (Michael W. Deem and Ramdas Pophale) SiO2 
 PCOD9539464
Probable space group: I M M A
;
_chemical_formula_sum "Si O2"
_cell_formula_units_Z 72
_cell_length_a 18.149032
_cell_length_b 8.639031
_cell_length_c 24.269854
_cell_angle_alpha 90.000000
_cell_angle_beta 90.000000
_cell_angle_gamma 90.000000
_cell_volume 3805.271624
_symmetry_space_group_name_H-M "I M M A"
_symmetry_group_IT_number 74
_symmetry_cell_setting 'orthorhombic'
loop_
_space_group_symop_operation_xyz
x,y,z
-x,1/2-y,z
x,-y,-z
-x,1/2+y,-z
-x,-y,-z
x,1/2+y,-z
-x,y,z
x,1/2-y,z
1/2+x,1/2+y,1/2+z
1/2-x,-y,1/2+z
1/2+x,1/2-y,1/2-z
1/2-x,y,1/2-z
1/2-x,1/2-y,1/2-z
1/2+x,y,1/2-z
1/2-x,1/2+y,1/2+z
1/2+x,-y,1/2+z
loop_
_atom_site_type_symbol
_atom_site_label
_atom_site_fract_x
_atom_site_fract_y
_atom_site_fract_z
Si Si1 0.787292 0.063639 0.062036
Si Si2 0.915885 0.563365 0.855607
Si Si3 0.664254 0.063748 0.751808
Si Si4 0.000000 0.565388 0.561319
Si Si5 0.642370 0.436059 0.877344
O O1 0.784214 0.250000 0.060494
O O2 0.860590 0.014653 0.095526
O O3 0.716884 0.001553 0.095706
O O4 0.786559 0.000000 0.000000
O O5 0.916779 0.750000 0.855564
O O6 0.881772 0.508239 0.797792
O O7 0.000000 0.508339 0.862356
O O8 0.661679 0.250000 0.745834
O O9 0.750000 0.016245 0.750000
O O10 0.636828 0.023054 0.812795
O O11 0.000000 0.500000 0.500000
O O12 0.072481 0.503338 0.591408
O O13 0.000000 0.750000 0.560544
O O14 0.643898 0.250000 0.881728
#
# Coordination Sequence:
#
# PCOD9539464 Si02
#       5
#    16  16  16   8  16
#     4  11  23  40  63  89 120 160 207 254 307 365
#     4  10  23  41  61  90 126 162 203 253 306 363
#     4  10  21  39  63  91 121 156 199 247 300 360
#     4  12  26  44  64  90 126 164 207 252 307 364
#     4  11  23  41  64  91 125 161 204 252 305 365
#
# _framework density 18.921119999999998
#
# number of rings (size 3 to 8) (size 9 to 14) (size 15 to 20)
#    0.000    1.333    2.222    3.000    1.556    4.000 
#    0.000    0.000    0.000    0.000    0.000    0.000 
#    0.000    0.000    0.000    0.000    0.000    0.000 
#
# Total GULP energy -201267.822350 kJ/mol
# GULP energy per Si atom -5590.772843 kJ/mol
# Density = 1.887806 g / cm^3
# Si number density = 18.921120 Si / 1000 Ang^3
#
#
#
# Elastic Constant Matrix: (Units=GPa)
#
#
# Indices 1 2 3 4 5 6 
#
# 1 133.9000 27.0345 43.5855 0.0000 0.0000 0.0000
# 2 27.0345 48.6251 37.6640 0.0000 0.0000 0.0000
# 3 43.5855 37.6640 120.9685 0.0000 0.0000 0.0000
# 4 0.0000 0.0000 0.0000 33.1277 0.0000 0.0000
# 5 0.0000 0.0000 0.0000 0.0000 61.5483 0.0000
# 6 0.0000 0.0000 0.0000 0.0000 0.0000 -3.0433
#
#
#
# Elastic Compliance Matrix: (Units=1/GPa)
#
#
# Indices 1 2 3 4 5 6 
#
# 1 0.008827 -0.003221 -0.002178 0.000000 0.000000 0.000000
# 2 -0.003221 0.028277 -0.007644 0.000000 0.000000 0.000000
# 3 -0.002178 -0.007644 0.011431 0.000000 0.000000 0.000000
# 4 0.000000 0.000000 0.000000 0.030186 0.000000 0.000000
# 5 0.000000 0.000000 0.000000 0.000000 0.016247 0.000000
# 6 0.000000 0.000000 0.000000 0.000000 0.000000 -0.328594
#
#
# Mechanical properties :
#
#
# Convention : Reuss Voigt Hill
#
# Bulk Modulus (GPa) = 44.54181 57.78462 51.16321
# Shear Modulus (GPa) = -24.99287 31.34052 3.17382
#
# Velocity S-wave (km/s) = -3.63836 4.07428 1.29655
# Velocity P-wave (km/s) = 2.43756 7.26216 5.41667
#
# Compressibility (1/GPa) = 0.02245082
#
# Stress axis : x y z
#
# Youngs Moduli (GPa) = 113.28299 35.36456 87.48068
#
# Poissons Ratio (x) = 0.11391 0.19050
# Poissons Ratio (y) = 0.36489 0.66866
# Poissons Ratio (z) = 0.24669 0.27031
#
# Static dielectric constant tensor:
#      x y z
#    x 1.636890 0.000000 0.000000 
#    y 0.000000 1.642030 0.000000 
#    z 0.000000 0.000000 1.628630 
# 
# From -- ./inp_files/56650.got.cif
#   From: 2010.05.17/outbox.cif.g08.bks.cpg/sg74_29_cif.got.tgz:56650.got - 2010.06.03 17:57:02.
