data_PCOD9539330
_publ_section_title
;
Structure prediction by ZEFSAII (Michael W. Deem and Ramdas Pophale) SiO2 
 PCOD9539330
Probable space group: I M M A
;
_chemical_formula_sum "Si O2"
_cell_formula_units_Z 72
_cell_length_a 14.491184
_cell_length_b 15.409033
_cell_length_c 18.144868
_cell_angle_alpha 90.000000
_cell_angle_beta 90.000000
_cell_angle_gamma 90.000000
_cell_volume 4051.660704
_symmetry_space_group_name_H-M "I M M A"
_symmetry_group_IT_number 74
_symmetry_cell_setting 'orthorhombic'
loop_
_space_group_symop_operation_xyz
x,y,z
-x,1/2-y,z
x,-y,-z
-x,1/2+y,-z
-x,-y,-z
x,1/2+y,-z
-x,y,z
x,1/2-y,z
1/2+x,1/2+y,1/2+z
1/2-x,-y,1/2+z
1/2+x,1/2-y,1/2-z
1/2-x,y,1/2-z
1/2-x,1/2-y,1/2-z
1/2+x,y,1/2-z
1/2-x,1/2+y,1/2+z
1/2+x,-y,1/2+z
loop_
_atom_site_type_symbol
_atom_site_label
_atom_site_fract_x
_atom_site_fract_y
_atom_site_fract_z
Si Si1 0.798446 0.516356 0.174717
Si Si2 0.198240 0.848193 0.045342
Si Si3 0.500000 0.950439 0.682767
Si Si4 0.500000 0.853007 0.837369
Si Si5 0.500000 0.102154 0.480965
Si Si6 0.201932 0.351484 0.390993
O O1 0.750000 0.545127 0.250000
O O2 0.780482 0.580905 0.107107
O O3 0.760846 0.420118 0.155612
O O4 0.908141 0.507836 0.182270
O O5 0.208370 0.750000 0.073500
O O6 0.093674 0.859909 0.014925
O O7 0.264437 0.859640 0.974934
O O8 0.500000 0.895668 0.757255
O O9 0.500000 0.893113 0.607921
O O10 0.500000 0.750000 0.827876
O O11 0.594650 0.874621 0.879495
O O12 0.500000 0.000000 0.500000
O O13 0.215992 0.250000 0.369316
#
# Coordination Sequence:
#
# PCOD9539330 Si02
#       6
#    16  16   8   8   8  16
#     4  12  23  39  61  85 124 158 199 246 297 353
#     4  11  23  39  60  88 120 161 205 245 293 349
#     4  12  22  35  57  92 123 152 186 242 301 370
#     4  10  22  38  57  89 124 151 187 241 301 366
#     4  12  19  35  62  86 121 151 191 247 304 353
#     4  10  21  38  61  88 118 154 195 243 302 359
#
# _framework density 17.770491
#
# number of rings (size 3 to 8) (size 9 to 14) (size 15 to 20)
#    0.000    0.889    6.667    1.000    0.000    2.667 
#    0.000    3.333    0.000    0.000    0.000    0.000 
#    0.000    0.000    0.000    0.000    0.000    0.000 
#
# Total GULP energy -201088.877444 kJ/mol
# GULP energy per Si atom -5585.802151 kJ/mol
# Density = 1.773004 g / cm^3
# Si number density = 17.770491 Si / 1000 Ang^3
#
#
#
# Elastic Constant Matrix: (Units=GPa)
#
#
# Indices 1 2 3 4 5 6 
#
# 1 87.7910 49.4868 51.2630 0.0000 0.0000 0.0000
# 2 49.4868 63.9576 41.9650 0.0000 0.0000 0.0000
# 3 51.2630 41.9650 110.6182 0.0000 0.0000 0.0000
# 4 0.0000 0.0000 0.0000 24.8275 0.0000 0.0000
# 5 0.0000 0.0000 0.0000 0.0000 28.8911 0.0000
# 6 0.0000 0.0000 0.0000 0.0000 0.0000 15.8946
#
#
#
# Elastic Compliance Matrix: (Units=1/GPa)
#
#
# Indices 1 2 3 4 5 6 
#
# 1 0.022099 -0.013819 -0.004999 0.000000 0.000000 0.000000
# 2 -0.013819 0.029459 -0.004771 0.000000 0.000000 0.000000
# 3 -0.004999 -0.004771 0.013167 0.000000 0.000000 0.000000
# 4 0.000000 0.000000 0.000000 0.040278 0.000000 0.000000
# 5 0.000000 0.000000 0.000000 0.000000 0.034613 0.000000
# 6 0.000000 0.000000 0.000000 0.000000 0.000000 0.062914
#
#
# Mechanical properties :
#
#
# Convention : Reuss Voigt Hill
#
# Bulk Modulus (GPa) = 56.99396 60.86626 58.93011
# Shear Modulus (GPa) = 19.56503 21.89944 20.73223
#
# Velocity S-wave (km/s) = 3.32171 3.51429 3.41936
# Velocity P-wave (km/s) = 6.84496 7.12690 6.98735
#
# Compressibility (1/GPa) = 0.01754572
#
# Stress axis : x y z
#
# Youngs Moduli (GPa) = 45.25003 33.94565 75.94879
#
# Poissons Ratio (x) = 0.46911 0.37965
# Poissons Ratio (y) = 0.62533 0.36239
# Poissons Ratio (z) = 0.22619 0.16197
#
# Static dielectric constant tensor:
#      x y z
#    x 1.610690 0.000000 0.000000 
#    y 0.000000 1.601250 0.000000 
#    z 0.000000 0.000000 1.603910 
# 
# From -- ./inp_files/42528.got.cif
#   From: 2010.05.17/outbox.cif.g08.bks.cpg/sg74_22_cif.got.tgz:42528.got - 2010.06.03 17:57:02.
