data_PCOD9539271
_publ_section_title
;
Structure prediction by ZEFSAII (Michael W. Deem and Ramdas Pophale) SiO2 
 PCOD9539271
Probable space group: I M M A
;
_chemical_formula_sum "Si O2"
_cell_formula_units_Z 96
_cell_length_a 8.964937
_cell_length_b 27.146230
_cell_length_c 20.702949
_cell_angle_alpha 90.000000
_cell_angle_beta 90.000000
_cell_angle_gamma 90.000000
_cell_volume 5038.357485
_symmetry_space_group_name_H-M "I M M A"
_symmetry_group_IT_number 74
_symmetry_cell_setting 'orthorhombic'
loop_
_space_group_symop_operation_xyz
x,y,z
-x,1/2-y,z
x,-y,-z
-x,1/2+y,-z
-x,-y,-z
x,1/2+y,-z
-x,y,z
x,1/2-y,z
1/2+x,1/2+y,1/2+z
1/2-x,-y,1/2+z
1/2+x,1/2-y,1/2-z
1/2-x,y,1/2-z
1/2-x,1/2-y,1/2-z
1/2+x,y,1/2-z
1/2-x,1/2+y,1/2+z
1/2+x,-y,1/2+z
loop_
_atom_site_type_symbol
_atom_site_label
_atom_site_fract_x
_atom_site_fract_y
_atom_site_fract_z
Si Si1 0.678784 0.494450 0.817524
Si Si2 0.177444 0.306061 0.568725
Si Si3 0.820925 0.955444 0.548955
Si Si4 0.676355 0.309120 0.181532
Si Si5 0.177223 0.148561 0.053116
Si Si6 0.179681 0.380092 0.681712
O O1 0.500000 0.495806 0.811535
O O2 0.750000 0.510252 0.750000
O O3 0.719786 0.527035 0.878963
O O4 0.721511 0.437273 0.829942
O O5 0.198554 0.250000 0.591079
O O6 0.263339 0.315325 0.502446
O O7 0.225620 0.344820 0.623303
O O8 0.000000 0.313404 0.556901
O O9 0.735799 0.905506 0.533740
O O10 0.000000 0.946697 0.545998
O O11 0.788346 0.000000 0.500000
O O12 0.500000 0.319510 0.182805
O O13 0.696077 0.250000 0.173284
O O14 0.750000 0.322735 0.250000
O O15 0.751594 0.336366 0.121541
O O16 0.000000 0.149830 0.057400
O O17 0.250000 0.365186 0.750000
O O18 0.000000 0.377852 0.686424
#
# Coordination Sequence:
#
# PCOD9539271 Si02
#       6
#    16  16  16  16  16  16
#     4   9  18  33  55  80 107 141 178 220 270 325
#     4  10  21  38  59  81 109 149 194 236 278 330
#     4  10  21  39  61  81 106 145 191 236 281 332
#     4  10  21  39  63  88 115 149 189 233 282 338
#     4  12  25  38  56  84 117 150 186 234 287 340
#     4   9  18  34  56  83 113 145 183 226 276 331
#
# _framework density 19.053829
#
# number of rings (size 3 to 8) (size 9 to 14) (size 15 to 20)
#    0.000    2.000    0.000    3.500    0.000    8.667 
#    0.000    5.000    0.000    0.000    0.000    0.000 
#    0.000    0.000    0.000    0.000    0.000    0.000 
#
# Total GULP energy -268203.388810 kJ/mol
# GULP energy per Si atom -5587.570600 kJ/mol
# Density = 1.901046 g / cm^3
# Si number density = 19.053829 Si / 1000 Ang^3
#
#
#
# Elastic Constant Matrix: (Units=GPa)
#
#
# Indices 1 2 3 4 5 6 
#
# 1 42.8066 20.4953 15.0899 0.0000 0.0000 0.0000
# 2 20.4953 30.6104 3.7002 0.0000 0.0000 -0.0001
# 3 15.0899 3.7002 54.8334 0.0000 0.0000 -0.0006
# 4 0.0000 0.0000 0.0000 35.2756 0.0000 -0.0003
# 5 0.0000 0.0000 0.0000 0.0000 33.6025 0.0000
# 6 0.0000 -0.0001 -0.0006 -0.0003 0.0000 317.7577
#
#
#
# Elastic Compliance Matrix: (Units=1/GPa)
#
#
# Indices 1 2 3 4 5 6 
#
# 1 0.038228 -0.024524 -0.008865 0.000000 0.000000 0.000000
# 2 -0.024524 0.048670 0.003465 0.000000 0.000000 0.000000
# 3 -0.008865 0.003465 0.020443 0.000000 0.000000 0.000000
# 4 0.000000 0.000000 0.000000 0.028348 0.000000 0.000000
# 5 0.000000 0.000000 0.000000 0.000000 0.029760 0.000000
# 6 0.000000 0.000000 0.000000 0.000000 0.000000 0.003147
#
#
# Mechanical properties :
#
#
# Convention : Reuss Voigt Hill
#
# Bulk Modulus (GPa) = 21.05637 22.98013 22.01825
# Shear Modulus (GPa) = 20.46867 83.25816 51.86342
#
# Velocity S-wave (km/s) = 3.28114 6.61749 5.22288
# Velocity P-wave (km/s) = 5.04276 8.39494 6.92476
#
# Compressibility (1/GPa) = 0.04749158
#
# Stress axis : x y z
#
# Youngs Moduli (GPa) = 26.15893 20.54650 48.91666
#
# Poissons Ratio (x) = 0.50388 0.43366
# Poissons Ratio (y) = 0.64152 -0.16948
# Poissons Ratio (z) = 0.23191 -0.07119
#
# Static dielectric constant tensor:
#      x y z
#    x 1.635890 0.000000 0.000000 
#    y 0.000000 1.664170 0.000000 
#    z 0.000000 0.000000 1.635830 
# 
# From -- ./inp_files/49073.got.cif
#   From: 2010.05.17/outbox.cif.g08.bks.cpg/sg74_25_cif.got.tgz:49073.got - 2010.06.03 17:57:02.
