data_PCOD9539890
_publ_section_title
;
Structure prediction by ZEFSAII (Michael W. Deem and Ramdas Pophale) SiO2 
 PCOD9539890
Probable space group: I M M A
;
_chemical_formula_sum "Si O2"
_cell_formula_units_Z 80
_cell_length_a 7.947484
_cell_length_b 19.720011
_cell_length_c 21.139180
_cell_angle_alpha 90.000000
_cell_angle_beta 90.000000
_cell_angle_gamma 90.000000
_cell_volume 3313.026822
_symmetry_space_group_name_H-M "I M M A"
_symmetry_group_IT_number 74
_symmetry_cell_setting 'orthorhombic'
loop_
_space_group_symop_operation_xyz
x,y,z
-x,1/2-y,z
x,-y,-z
-x,1/2+y,-z
-x,-y,-z
x,1/2+y,-z
-x,y,z
x,1/2-y,z
1/2+x,1/2+y,1/2+z
1/2-x,-y,1/2+z
1/2+x,1/2-y,1/2-z
1/2-x,y,1/2-z
1/2-x,1/2-y,1/2-z
1/2+x,y,1/2-z
1/2-x,1/2+y,1/2+z
1/2+x,-y,1/2+z
loop_
_atom_site_type_symbol
_atom_site_label
_atom_site_fract_x
_atom_site_fract_y
_atom_site_fract_z
Si Si1 0.692946 0.603536 0.355296
Si Si2 0.202767 0.250000 0.855657
Si Si3 0.201597 0.177104 0.323329
Si Si4 0.300400 0.750000 0.508086
Si Si5 0.801937 0.963261 0.882089
Si Si6 0.690559 0.104891 0.995295
O O1 0.500000 0.604008 0.332719
O O2 0.769247 0.676040 0.333931
O O3 0.767608 0.528672 0.344015
O O4 0.695682 0.603403 0.432677
O O5 0.000000 0.250000 0.845372
O O6 0.227138 0.250000 0.931460
O O7 0.261268 0.250000 0.350671
O O8 0.250000 0.179534 0.250000
O O9 0.277748 0.107701 0.347835
O O10 0.000000 0.173851 0.330719
O O11 0.500000 0.750000 0.519580
O O12 0.220412 0.678520 0.527539
O O13 0.722091 0.950331 0.950752
O O14 0.000000 0.974570 0.891249
O O15 0.500000 0.101100 0.972503
#
# Coordination Sequence:
#
# PCOD9539890 Si02
#       6
#    16   8  16   8  16  16
#     4   9  18  33  51  73 103 143 185 220 260 315
#     4   7  12  27  49  67  90 127 172 213 248 291
#     4  10  22  41  62  82 106 135 173 222 276 330
#     4   9  17  31  47  63  90 133 178 217 257 309
#     4  11  22  34  52  77 105 139 179 219 266 322
#     4  11  21  31  46  71 105 141 179 225 270 313
#
# _framework density 24.147102
#
# number of rings (size 3 to 8) (size 9 to 14) (size 15 to 20)
#    0.000    2.200    0.000    5.100    1.400    5.200 
#    0.000    0.000    0.000    0.000    0.000    0.700 
#    0.000    0.000    0.000    0.000    0.000    0.000 
#
# Total GULP energy -223270.933921 kJ/mol
# GULP energy per Si atom -5581.773348 kJ/mol
# Density = 2.409214 g / cm^3
# Si number density = 24.147102 Si / 1000 Ang^3
#
#
#
# Elastic Constant Matrix: (Units=GPa)
#
#
# Indices 1 2 3 4 5 6 
#
# 1 63.8933 18.4971 -10.4573 0.0000 0.0000 0.0000
# 2 18.4971 234.5315 16.4973 0.0000 0.0000 0.0000
# 3 -10.4573 16.4973 25.0544 0.0000 0.0000 0.0000
# 4 0.0000 0.0000 0.0000 23.7808 0.0000 0.0000
# 5 0.0000 0.0000 0.0000 0.0000 13.2954 0.0000
# 6 0.0000 0.0000 0.0000 0.0000 0.0000 84.4948
#
#
#
# Elastic Compliance Matrix: (Units=1/GPa)
#
#
# Indices 1 2 3 4 5 6 
#
# 1 0.017653 -0.002003 0.008687 0.000000 0.000000 0.000000
# 2 -0.002003 0.004698 -0.003930 0.000000 0.000000 0.000000
# 3 0.008687 -0.003930 0.046127 0.000000 0.000000 0.000000
# 4 0.000000 0.000000 0.000000 0.042051 0.000000 0.000000
# 5 0.000000 0.000000 0.000000 0.000000 0.075214 0.000000
# 6 0.000000 0.000000 0.000000 0.000000 0.000000 0.011835
#
#
# Mechanical properties :
#
#
# Convention : Reuss Voigt Hill
#
# Bulk Modulus (GPa) = 13.51612 41.39484 27.45548
# Shear Modulus (GPa) = 23.07003 44.24367 33.65685
#
# Velocity S-wave (km/s) = 3.09430 4.28513 3.73745
# Velocity P-wave (km/s) = 4.28670 6.45470 5.47900
#
# Compressibility (1/GPa) = 0.07398574
#
# Stress axis : x y z
#
# Youngs Moduli (GPa) = 56.64809 212.84550 21.67946
#
# Poissons Ratio (x) = 0.42640 -0.18833
# Poissons Ratio (y) = 0.11348 0.08520
# Poissons Ratio (z) = -0.49211 0.83643
#
# Static dielectric constant tensor:
#      x y z
#    x 1.865100 0.000000 0.000000 
#    y 0.000000 2.073560 0.000000 
#    z 0.000000 0.000000 1.401360 
# 
# From -- ./inp_files/64000.got.cif
#   From: 2010.05.17/outbox.cif.g08.bks.cpg/sg74_32_cif.got.tgz:64000.got - 2010.06.03 17:57:02.
