data_PCOD9539676
_publ_section_title
;
Structure prediction by ZEFSAII (Michael W. Deem and Ramdas Pophale) SiO2 
 PCOD9539676
Probable space group: I M M A
;
_chemical_formula_sum "Si O2"
_cell_formula_units_Z 68
_cell_length_a 18.903165
_cell_length_b 20.049795
_cell_length_c 7.772215
_cell_angle_alpha 90.000000
_cell_angle_beta 90.000000
_cell_angle_gamma 90.000000
_cell_volume 2945.705106
_symmetry_space_group_name_H-M "I M M A"
_symmetry_group_IT_number 74
_symmetry_cell_setting 'orthorhombic'
loop_
_space_group_symop_operation_xyz
x,y,z
-x,1/2-y,z
x,-y,-z
-x,1/2+y,-z
-x,-y,-z
x,1/2+y,-z
-x,y,z
x,1/2-y,z
1/2+x,1/2+y,1/2+z
1/2-x,-y,1/2+z
1/2+x,1/2-y,1/2-z
1/2-x,y,1/2-z
1/2-x,1/2-y,1/2-z
1/2+x,y,1/2-z
1/2-x,1/2+y,1/2+z
1/2+x,-y,1/2+z
loop_
_atom_site_type_symbol
_atom_site_label
_atom_site_fract_x
_atom_site_fract_y
_atom_site_fract_z
Si Si1 0.205174 0.060159 0.592085
Si Si2 0.358323 0.177905 0.124174
Si Si3 0.000000 0.750000 0.532501
Si Si4 0.080286 0.039000 0.819997
Si Si5 0.916653 0.824535 0.998833
O O1 0.250000 0.088055 0.750000
O O2 0.181732 0.118788 0.467665
O O3 0.137885 0.023309 0.678437
O O4 0.246551 0.000000 0.500000
O O5 0.320632 0.250000 0.108347
O O6 0.372113 0.164525 0.326260
O O7 0.436372 0.192902 0.045033
O O8 0.000000 0.028100 0.760192
O O9 0.091455 0.116920 0.866236
O O10 0.087295 0.000000 0.000000
O O11 0.902590 0.750000 0.067550
O O12 0.000000 0.824969 0.946357
#
# Coordination Sequence:
#
# PCOD9539676 Si02
#       5
#    16  16   4  16  16
#     4  12  27  44  63  85 127 179 223 271 320 379
#     4   9  18  36  66  94 130 167 205 255 318 387
#     4   8  16  36  64 102 138 156 206 262 320 392
#     4  10  22  37  59  90 120 153 207 266 318 375
#     4   9  15  32  59  93 127 158 188 241 312 380
#
# _framework density 23.084457
#
# number of rings (size 3 to 8) (size 9 to 14) (size 15 to 20)
#    0.706    1.412    1.176    2.118    1.647    1.882 
#    0.000    0.000    0.000    3.529    0.000    0.000 
#    0.000    0.000    0.000    0.000    0.000    0.000 
#
# Total GULP energy -189469.181898 kJ/mol
# GULP energy per Si atom -5572.622997 kJ/mol
# Density = 2.303192 g / cm^3
# Si number density = 23.084457 Si / 1000 Ang^3
#
#
#
# Elastic Constant Matrix: (Units=GPa)
#
#
# Indices 1 2 3 4 5 6 
#
# 1 59.3428 4.8634 5.4765 0.0000 0.0000 0.0000
# 2 4.8634 68.1587 13.7323 0.0000 0.0000 0.0000
# 3 5.4765 13.7323 34.0865 0.0000 0.0000 0.0000
# 4 0.0000 0.0000 0.0000 19.2687 0.0000 0.0000
# 5 0.0000 0.0000 0.0000 0.0000 24.6492 0.0000
# 6 0.0000 0.0000 0.0000 0.0000 0.0000 10.1770
#
#
#
# Elastic Compliance Matrix: (Units=1/GPa)
#
#
# Indices 1 2 3 4 5 6 
#
# 1 0.017138 -0.000727 -0.002461 0.000000 0.000000 0.000000
# 2 -0.000727 0.015999 -0.006328 0.000000 0.000000 0.000000
# 3 -0.002461 -0.006328 0.032282 0.000000 0.000000 0.000000
# 4 0.000000 0.000000 0.000000 0.051898 0.000000 0.000000
# 5 0.000000 0.000000 0.000000 0.000000 0.040569 0.000000
# 6 0.000000 0.000000 0.000000 0.000000 0.000000 0.098260
#
#
# Mechanical properties :
#
#
# Convention : Reuss Voigt Hill
#
# Bulk Modulus (GPa) = 21.55814 23.30361 22.43088
# Shear Modulus (GPa) = 17.20340 19.98669 18.59504
#
# Velocity S-wave (km/s) = 2.73286 2.94565 2.84125
# Velocity P-wave (km/s) = 4.39513 4.65682 4.52787
#
# Compressibility (1/GPa) = 0.04638618
#
# Stress axis : x y z
#
# Youngs Moduli (GPa) = 58.35015 62.50567 30.97705
#
# Poissons Ratio (x) = 0.04545 0.07622
# Poissons Ratio (y) = 0.04243 0.19604
# Poissons Ratio (z) = 0.14357 0.39557
#
# Static dielectric constant tensor:
#      x y z
#    x 1.879270 0.000000 0.000000 
#    y 0.000000 1.880660 0.000000 
#    z 0.000000 0.000000 1.874940 
# 
# From -- ./inp_files/10444.got.cif
#   From: 2010.05.17/outbox.cif.g08.bks.cpg/sg74_6_cif.got.tgz:10444.got - 2010.06.03 17:57:02.
