data_PCOD9539400
_publ_section_title
;
Structure prediction by ZEFSAII (Michael W. Deem and Ramdas Pophale) SiO2 
 PCOD9539400
Probable space group: I M M A
;
_chemical_formula_sum "Si O2"
_cell_formula_units_Z 68
_cell_length_a 7.570772
_cell_length_b 20.955984
_cell_length_c 18.795019
_cell_angle_alpha 90.000000
_cell_angle_beta 90.000000
_cell_angle_gamma 90.000000
_cell_volume 2981.885715
_symmetry_space_group_name_H-M "I M M A"
_symmetry_group_IT_number 74
_symmetry_cell_setting 'orthorhombic'
loop_
_space_group_symop_operation_xyz
x,y,z
-x,1/2-y,z
x,-y,-z
-x,1/2+y,-z
-x,-y,-z
x,1/2+y,-z
-x,y,z
x,1/2-y,z
1/2+x,1/2+y,1/2+z
1/2-x,-y,1/2+z
1/2+x,1/2-y,1/2-z
1/2-x,y,1/2-z
1/2-x,1/2-y,1/2-z
1/2+x,y,1/2-z
1/2-x,1/2+y,1/2+z
1/2+x,-y,1/2+z
loop_
_atom_site_type_symbol
_atom_site_label
_atom_site_fract_x
_atom_site_fract_y
_atom_site_fract_z
Si Si1 0.788134 0.819014 0.666625
Si Si2 0.710702 0.429356 0.833666
Si Si3 0.697740 0.856419 0.465198
Si Si4 0.714095 0.056142 0.085251
Si Si5 0.500000 0.750000 0.007905
O O1 0.719707 0.750000 0.642382
O O2 0.750000 0.824097 0.750000
O O3 0.722410 0.881085 0.627590
O O4 0.000000 0.817417 0.656294
O O5 0.500000 0.427284 0.842015
O O6 0.750000 0.427163 0.750000
O O7 0.784416 0.371917 0.881422
O O8 0.775765 0.495118 0.870219
O O9 0.500000 0.834822 0.480927
O O10 0.730370 0.924381 0.505717
O O11 0.845650 0.806368 0.488814
O O12 0.500000 0.053308 0.084780
#
# Coordination Sequence:
#
# PCOD9539400 Si02
#       5
#    16  16  16  16   4
#     4   9  18  31  50  79 124 175 225 276 334 404
#     4  11  23  43  70 102 146 188 237 301 358 420
#     4  12  26  45  75 105 140 186 240 291 362 428
#     4  10  21  38  65  99 139 187 229 286 355 411
#     4  12  26  52  72 102 148 184 230 310 352 432
#
# _framework density 22.804362999999999
#
# number of rings (size 3 to 8) (size 9 to 14) (size 15 to 20)
#    0.000    1.412    2.353    2.471    1.647    5.647 
#    0.000    0.588    0.000    0.000    0.000    0.000 
#    0.000    0.000    0.000    0.000    0.000    0.000 
#
# Total GULP energy -189610.552501 kJ/mol
# GULP energy per Si atom -5576.780956 kJ/mol
# Density = 2.275246 g / cm^3
# Si number density = 22.804363 Si / 1000 Ang^3
#
#
#
# Elastic Constant Matrix: (Units=GPa)
#
#
# Indices 1 2 3 4 5 6 
#
# 1 146.5073 27.3156 4.7876 0.0000 0.0000 0.0000
# 2 27.3156 54.3983 24.0824 0.0000 0.0000 0.0000
# 3 4.7876 24.0824 126.2952 0.0000 0.0000 0.0000
# 4 0.0000 0.0000 0.0000 20.6574 0.0000 0.0000
# 5 0.0000 0.0000 0.0000 0.0000 30.3934 0.0000
# 6 0.0000 0.0000 0.0000 0.0000 0.0000 1.8498
#
#
#
# Elastic Compliance Matrix: (Units=1/GPa)
#
#
# Indices 1 2 3 4 5 6 
#
# 1 0.007557 -0.004006 0.000477 0.000000 0.000000 0.000000
# 2 -0.004006 0.022201 -0.004082 0.000000 0.000000 0.000000
# 3 0.000477 -0.004082 0.008678 0.000000 0.000000 0.000000
# 4 0.000000 0.000000 0.000000 0.048409 0.000000 0.000000
# 5 0.000000 0.000000 0.000000 0.000000 0.032902 0.000000
# 6 0.000000 0.000000 0.000000 0.000000 0.000000 0.540595
#
#
# Mechanical properties :
#
#
# Convention : Reuss Voigt Hill
#
# Bulk Modulus (GPa) = 43.07345 48.84134 45.95739
# Shear Modulus (GPa) = 7.31742 28.64780 17.98261
#
# Velocity S-wave (km/s) = 1.79325 3.54820 2.81118
# Velocity P-wave (km/s) = 4.81839 6.18468 5.54379
#
# Compressibility (1/GPa) = 0.02321616
#
# Stress axis : x y z
#
# Youngs Moduli (GPa) = 132.32948 45.04216 115.23194
#
# Poissons Ratio (x) = 0.18044 -0.05501
# Poissons Ratio (y) = 0.53011 0.47033
# Poissons Ratio (z) = -0.06317 0.18384
#
# Static dielectric constant tensor:
#      x y z
#    x 1.921000 0.000000 0.000000 
#    y 0.000000 1.857320 0.000000 
#    z 0.000000 0.000000 1.876860 
# 
# From -- ./inp_files/39198.got.cif
#   From: 2010.05.17/outbox.cif.g08.bks.cpg/sg74_20_cif.got.tgz:39198.got - 2010.06.03 17:57:02.
