data_PCOD9539105
_publ_section_title
;
Structure prediction by ZEFSAII (Michael W. Deem and Ramdas Pophale) SiO2 
 PCOD9539105
Probable space group: I M M A
;
_chemical_formula_sum "Si O2"
_cell_formula_units_Z 104
_cell_length_a 9.231802
_cell_length_b 21.888899
_cell_length_c 27.457833
_cell_angle_alpha 90.000000
_cell_angle_beta 90.000000
_cell_angle_gamma 90.000000
_cell_volume 5548.513639
_symmetry_space_group_name_H-M "I M M A"
_symmetry_group_IT_number 74
_symmetry_cell_setting 'orthorhombic'
loop_
_space_group_symop_operation_xyz
x,y,z
-x,1/2-y,z
x,-y,-z
-x,1/2+y,-z
-x,-y,-z
x,1/2+y,-z
-x,y,z
x,1/2-y,z
1/2+x,1/2+y,1/2+z
1/2-x,-y,1/2+z
1/2+x,1/2-y,1/2-z
1/2-x,y,1/2-z
1/2-x,1/2-y,1/2-z
1/2+x,y,1/2-z
1/2-x,1/2+y,1/2+z
1/2+x,-y,1/2+z
loop_
_atom_site_type_symbol
_atom_site_label
_atom_site_fract_x
_atom_site_fract_y
_atom_site_fract_z
Si Si1 0.172954 0.178488 0.977357
Si Si2 0.833200 0.346933 0.863140
Si Si3 0.668807 0.534500 0.299450
Si Si4 0.172614 0.180359 0.299152
Si Si5 0.824993 0.562871 0.527650
Si Si6 0.830297 0.750000 0.301132
Si Si7 0.172630 0.566922 0.640294
O O1 0.217058 0.250000 0.985728
O O2 0.194848 0.162428 0.920187
O O3 0.000000 0.175062 0.986711
O O4 0.253767 0.124928 0.006866
O O5 0.821926 0.414785 0.841887
O O6 0.722507 0.307367 0.832260
O O7 0.000000 0.326510 0.854286
O O8 0.500000 0.524226 0.288286
O O9 0.750000 0.554040 0.250000
O O10 0.744029 0.475236 0.321725
O O11 0.218652 0.250000 0.308203
O O12 0.250000 0.158572 0.250000
O O13 0.202877 0.136349 0.344054
O O14 0.000000 0.179679 0.290922
O O15 0.782690 0.500000 0.500000
O O16 0.786657 0.555670 0.584503
O O17 0.000000 0.568696 0.523741
O O18 0.750000 0.750000 0.250000
O O19 0.000000 0.750000 0.293380
O O20 0.000000 0.555949 0.644977
#
# Coordination Sequence:
#
# PCOD9539105 Si02
#       7
#    16  16  16  16  16   8  16
#     4  10  21  39  63  88 118 156 199 250 302 356
#     4  10  21  40  60  81 115 155 195 240 290 342
#     4  11  23  37  58  85 115 154 195 239 291 349
#     4   9  18  33  53  77 105 140 180 219 272 337
#     4  10  22  39  59  86 119 153 194 248 303 356
#     4  12  24  36  56  84 114 150 192 238 287 340
#     4  10  21  37  57  81 113 150 188 238 290 344
#
# _framework density 18.743758
#
# number of rings (size 3 to 8) (size 9 to 14) (size 15 to 20)
#    0.000    1.846    0.769    3.000    0.000    6.769 
#    0.000    1.538    0.000    1.846    0.000    0.000 
#    0.000    0.000    0.000    0.000    0.000    0.000 
#
# Total GULP energy -290246.040119 kJ/mol
# GULP energy per Si atom -5581.654618 kJ/mol
# Density = 1.870110 g / cm^3
# Si number density = 18.743758 Si / 1000 Ang^3
#
#
#
# Elastic Constant Matrix: (Units=GPa)
#
#
# Indices 1 2 3 4 5 6 
#
# 1 39.4721 21.7806 9.4137 0.0000 0.0000 0.0000
# 2 21.7806 93.4365 27.7353 0.0000 0.0000 0.0000
# 3 9.4137 27.7353 45.2607 0.0000 0.0000 0.0000
# 4 0.0000 0.0000 0.0000 37.9842 0.0000 0.0000
# 5 0.0000 0.0000 0.0000 0.0000 30.3930 0.0000
# 6 0.0000 0.0000 0.0000 0.0000 0.0000 31.9849
#
#
#
# Elastic Compliance Matrix: (Units=1/GPa)
#
#
# Indices 1 2 3 4 5 6 
#
# 1 0.029274 -0.006132 -0.002331 0.000000 0.000000 0.000000
# 2 -0.006132 0.014367 -0.007528 0.000000 0.000000 0.000000
# 3 -0.002331 -0.007528 0.027192 0.000000 0.000000 0.000000
# 4 0.000000 0.000000 0.000000 0.026327 0.000000 0.000000
# 5 0.000000 0.000000 0.000000 0.000000 0.032902 0.000000
# 6 0.000000 0.000000 0.000000 0.000000 0.000000 0.031265
#
#
# Mechanical properties :
#
#
# Convention : Reuss Voigt Hill
#
# Bulk Modulus (GPa) = 25.73993 32.89205 29.31599
# Shear Modulus (GPa) = 24.24136 28.02173 26.13155
#
# Velocity S-wave (km/s) = 3.60015 3.87070 3.73788
# Velocity P-wave (km/s) = 5.57170 6.12885 5.85690
#
# Compressibility (1/GPa) = 0.03885014
#
# Stress axis : x y z
#
# Youngs Moduli (GPa) = 34.16018 69.60628 36.77511
#
# Poissons Ratio (x) = 0.42682 0.08572
# Poissons Ratio (y) = 0.20947 0.27685
# Poissons Ratio (z) = 0.07963 0.52402
#
# Static dielectric constant tensor:
#      x y z
#    x 1.640970 0.000000 0.000000 
#    y 0.000000 1.664940 0.000000 
#    z 0.000000 0.000000 1.635750 
# 
# From -- ./inp_files/64458.got.cif
#   From: 2010.05.17/outbox.cif.g08.bks.cpg/sg74_33_cif.got.tgz:64458.got - 2010.06.03 17:57:02.
