data_PCOD9539371
_publ_section_title
;
Structure prediction by ZEFSAII (Michael W. Deem and Ramdas Pophale) SiO2 
 PCOD9539371
Probable space group: I M M A
;
_chemical_formula_sum "Si O2"
_cell_formula_units_Z 96
_cell_length_a 14.745904
_cell_length_b 21.624627
_cell_length_c 14.256210
_cell_angle_alpha 90.000000
_cell_angle_beta 90.000000
_cell_angle_gamma 90.000000
_cell_volume 4545.944313
_symmetry_space_group_name_H-M "I M M A"
_symmetry_group_IT_number 74
_symmetry_cell_setting 'orthorhombic'
loop_
_space_group_symop_operation_xyz
x,y,z
-x,1/2-y,z
x,-y,-z
-x,1/2+y,-z
-x,-y,-z
x,1/2+y,-z
-x,y,z
x,1/2-y,z
1/2+x,1/2+y,1/2+z
1/2-x,-y,1/2+z
1/2+x,1/2-y,1/2-z
1/2-x,y,1/2-z
1/2-x,1/2-y,1/2-z
1/2+x,y,1/2-z
1/2-x,1/2+y,1/2+z
1/2+x,-y,1/2+z
loop_
_atom_site_type_symbol
_atom_site_label
_atom_site_fract_x
_atom_site_fract_y
_atom_site_fract_z
Si Si1 0.397256 0.318605 0.805148
Si Si2 0.398781 0.937678 0.944567
Si Si3 0.755017 0.145197 0.535491
Si Si4 0.898312 0.317695 0.102891
Si Si5 0.142531 0.435247 0.231014
Si Si6 0.162459 0.932929 0.183156
O O1 0.500000 0.321210 0.845267
O O2 0.387387 0.250000 0.760869
O O3 0.316624 0.324677 0.881946
O O4 0.388828 0.375860 0.733290
O O5 0.500000 0.922563 0.978231
O O6 0.399468 0.945416 0.833499
O O7 0.328614 0.884341 0.967146
O O8 0.371773 0.000000 0.000000
O O9 0.680288 0.180574 0.475274
O O10 0.698739 0.090693 0.584866
O O11 0.892640 0.250000 0.150385
O O12 0.886912 0.374610 0.174511
O O13 0.000000 0.322551 0.061275
O O14 0.250000 0.428669 0.250000
O O15 0.120671 0.499180 0.177207
O O16 0.250000 0.941522 0.250000
#
# Coordination Sequence:
#
# PCOD9539371 Si02
#       6
#    16  16  16  16  16  16
#     4  10  21  38  62  96 135 171 213 262 319 390
#     4  11  22  37  64  98 130 164 208 263 324 384
#     4  11  22  40  63  91 131 170 212 264 322 379
#     4  11  26  45  64  89 124 172 225 271 321 384
#     4  11  21  42  66  91 125 165 211 265 325 388
#     4   9  21  37  63  92 126 167 208 261 317 386
#
# _framework density 21.117723999999999
#
# number of rings (size 3 to 8) (size 9 to 14) (size 15 to 20)
#    0.000    1.500    1.667    4.500    0.000    7.333 
#    0.000    2.500    0.000    3.000    0.000    0.000 
#    0.000    0.000    0.000    0.000    0.000    0.000 
#
# Total GULP energy -267785.889814 kJ/mol
# GULP energy per Si atom -5578.872704 kJ/mol
# Density = 2.106966 g / cm^3
# Si number density = 21.117724 Si / 1000 Ang^3
#
#
#
# Elastic Constant Matrix: (Units=GPa)
#
#
# Indices 1 2 3 4 5 6 
#
# 1 120.2005 45.5636 9.9997 -0.0001 0.0000 0.0000
# 2 45.5636 167.1697 33.6696 -0.0001 0.0000 0.0000
# 3 9.9997 33.6696 43.2296 -0.0002 0.0000 0.0000
# 4 -0.0001 -0.0001 -0.0002 8.3087 0.0000 0.0000
# 5 0.0000 0.0000 0.0000 0.0000 10.9679 0.0000
# 6 0.0000 0.0000 0.0000 0.0000 0.0000 22.0865
#
#
#
# Elastic Compliance Matrix: (Units=1/GPa)
#
#
# Indices 1 2 3 4 5 6 
#
# 1 0.009280 -0.002487 -0.000209 0.000000 0.000000 0.000000
# 2 -0.002487 0.007761 -0.005470 0.000000 0.000000 0.000000
# 3 -0.000209 -0.005470 0.027441 0.000000 0.000000 0.000000
# 4 0.000000 0.000000 0.000000 0.120356 0.000000 0.000000
# 5 0.000000 0.000000 0.000000 0.000000 0.091175 0.000000
# 6 0.000000 0.000000 0.000000 0.000000 0.000000 0.045276
#
#
# Mechanical properties :
#
#
# Convention : Reuss Voigt Hill
#
# Bulk Modulus (GPa) = 35.52470 56.56284 46.04377
# Shear Modulus (GPa) = 15.29027 24.36375 19.82701
#
# Velocity S-wave (km/s) = 2.69373 3.40032 3.06744
# Velocity P-wave (km/s) = 5.15109 6.50068 5.86483
#
# Compressibility (1/GPa) = 0.02814943
#
# Stress axis : x y z
#
# Youngs Moduli (GPa) = 107.76313 128.84141 36.44193
#
# Poissons Ratio (x) = 0.32044 0.00763
# Poissons Ratio (y) = 0.26801 0.19933
# Poissons Ratio (z) = 0.02257 0.70473
#
# Static dielectric constant tensor:
#      x y z
#    x 1.794550 0.000000 0.000000 
#    y 0.000000 1.791100 0.000000 
#    z 0.000000 0.000000 1.742830 
# 
# From -- ./inp_files/32369.got.cif
#   From: 2010.05.17/outbox.cif.g08.bks.cpg/sg74_17_cif.got.tgz:32369.got - 2010.06.03 17:57:02.
