data_PCOD9539256
_publ_section_title
;
Structure prediction by ZEFSAII (Michael W. Deem and Ramdas Pophale) SiO2 
 PCOD9539256
Probable space group: I M M A
;
_chemical_formula_sum "Si O2"
_cell_formula_units_Z 112
_cell_length_a 14.663691
_cell_length_b 14.046548
_cell_length_c 26.663206
_cell_angle_alpha 90.000000
_cell_angle_beta 90.000000
_cell_angle_gamma 90.000000
_cell_volume 5491.933578
_symmetry_space_group_name_H-M "I M M A"
_symmetry_group_IT_number 74
_symmetry_cell_setting 'orthorhombic'
loop_
_space_group_symop_operation_xyz
x,y,z
-x,1/2-y,z
x,-y,-z
-x,1/2+y,-z
-x,-y,-z
x,1/2+y,-z
-x,y,z
x,1/2-y,z
1/2+x,1/2+y,1/2+z
1/2-x,-y,1/2+z
1/2+x,1/2-y,1/2-z
1/2-x,y,1/2-z
1/2-x,1/2-y,1/2-z
1/2+x,y,1/2-z
1/2-x,1/2+y,1/2+z
1/2+x,-y,1/2+z
loop_
_atom_site_type_symbol
_atom_site_label
_atom_site_fract_x
_atom_site_fract_y
_atom_site_fract_z
Si Si1 0.794644 0.861565 0.125692
Si Si2 0.212428 0.864579 0.922670
Si Si3 0.101229 0.533115 0.837487
Si Si4 0.894212 0.865732 0.021898
Si Si5 0.602641 0.859578 0.170477
Si Si6 0.896867 0.864633 0.625069
Si Si7 0.353297 0.959561 0.768755
O O1 0.813987 0.750000 0.135056
O O2 0.836487 0.887913 0.071740
O O3 0.685995 0.875084 0.131850
O O4 0.844666 0.933058 0.163390
O O5 0.213015 0.750000 0.924441
O O6 0.156227 0.899056 0.874515
O O7 0.316831 0.896384 0.912902
O O8 0.160002 0.898325 0.972450
O O9 0.096047 0.572272 0.781327
O O10 0.000000 0.517169 0.857414
O O11 0.897293 0.750000 0.019694
O O12 0.000000 0.897441 0.024055
O O13 0.500000 0.872996 0.150153
O O14 0.609773 0.750000 0.187539
O O15 0.617771 0.934351 0.214834
O O16 0.896951 0.750000 0.624999
O O17 0.871307 0.899690 0.680990
O O18 0.000000 0.897019 0.613302
O O19 0.250000 0.956061 0.750000
#
# Coordination Sequence:
#
# PCOD9539256 Si02
#       7
#    16  16  16  16  16  16  16
#     4  10  21  38  58  82 114 148 186 232 281 335
#     4  10  21  38  58  82 114 148 186 232 281 335
#     4  12  24  36  55  84 111 146 192 231 277 336
#     4   9  18  35  58  82 112 150 185 227 286 336
#     4  10  21  38  60  84 113 151 190 231 282 334
#     4  10  21  38  60  84 113 151 190 231 282 334
#     4  12  22  39  59  81 114 151 188 234 282 333
#
# _framework density 20.393545
#
# number of rings (size 3 to 8) (size 9 to 14) (size 15 to 20)
#    0.000    1.571    2.857    2.143    0.000    4.000 
#    0.000    2.143    0.000    4.286    0.000    4.000 
#    0.000    0.000    0.000    0.000    0.000    0.000 
#
# Total GULP energy -312589.301612 kJ/mol
# GULP energy per Si atom -5581.951815 kJ/mol
# Density = 2.034713 g / cm^3
# Si number density = 20.393545 Si / 1000 Ang^3
#
#
#
# Elastic Constant Matrix: (Units=GPa)
#
#
# Indices 1 2 3 4 5 6 
#
# 1 192.9602 -1.7448 46.8166 0.0000 0.0000 0.0000
# 2 -1.7448 25.0440 -8.3585 0.0000 0.0000 0.0000
# 3 46.8166 -8.3585 99.2870 0.0000 0.0000 0.0000
# 4 0.0000 0.0000 0.0000 25.9745 0.0000 0.0000
# 5 0.0000 0.0000 0.0000 0.0000 13.6337 0.0000
# 6 0.0000 0.0000 0.0000 0.0000 0.0000 16.9068
#
#
#
# Elastic Compliance Matrix: (Units=1/GPa)
#
#
# Indices 1 2 3 4 5 6 
#
# 1 0.005859 -0.000529 -0.002807 0.000000 0.000000 0.000000
# 2 -0.000529 0.041132 0.003712 0.000000 0.000000 0.000000
# 3 -0.002807 0.003712 0.011708 0.000000 0.000000 0.000000
# 4 0.000000 0.000000 0.000000 0.038499 0.000000 0.000000
# 5 0.000000 0.000000 0.000000 0.000000 0.073348 0.000000
# 6 0.000000 0.000000 0.000000 0.000000 0.000000 0.059148
#
#
# Mechanical properties :
#
#
# Convention : Reuss Voigt Hill
#
# Bulk Modulus (GPa) = 16.82061 43.41308 30.11684
# Shear Modulus (GPa) = 20.09986 30.00818 25.05402
#
# Velocity S-wave (km/s) = 3.14283 3.84012 3.50884
# Velocity P-wave (km/s) = 4.62988 6.40280 5.58711
#
# Compressibility (1/GPa) = 0.05945088
#
# Stress axis : x y z
#
# Youngs Moduli (GPa) = 170.68664 24.31209 85.41236
#
# Poissons Ratio (x) = 0.01285 0.23976
# Poissons Ratio (y) = 0.09024 -0.31705
# Poissons Ratio (z) = 0.47912 -0.09025
#
# Static dielectric constant tensor:
#      x y z
#    x 1.794340 0.000000 0.000000 
#    y 0.000000 1.742850 0.000000 
#    z 0.000000 0.000000 1.699610 
# 
# From -- ./inp_files/60104.got.cif
#   From: 2010.05.17/outbox.cif.g08.bks.cpg/sg74_31_cif.got.tgz:60104.got - 2010.06.03 17:57:02.
