data_PCOD9539244
_publ_section_title
;
Structure prediction by ZEFSAII (Michael W. Deem and Ramdas Pophale) SiO2 
 PCOD9539244
Probable space group: I M M A
;
_chemical_formula_sum "Si O2"
_cell_formula_units_Z 96
_cell_length_a 31.021504
_cell_length_b 15.381301
_cell_length_c 10.397748
_cell_angle_alpha 90.000000
_cell_angle_beta 90.000000
_cell_angle_gamma 90.000000
_cell_volume 4961.296797
_symmetry_space_group_name_H-M "I M M A"
_symmetry_group_IT_number 74
_symmetry_cell_setting 'orthorhombic'
loop_
_space_group_symop_operation_xyz
x,y,z
-x,1/2-y,z
x,-y,-z
-x,1/2+y,-z
-x,-y,-z
x,1/2+y,-z
-x,y,z
x,1/2-y,z
1/2+x,1/2+y,1/2+z
1/2-x,-y,1/2+z
1/2+x,1/2-y,1/2-z
1/2-x,y,1/2-z
1/2-x,1/2-y,1/2-z
1/2+x,y,1/2-z
1/2-x,1/2+y,1/2+z
1/2+x,-y,1/2+z
loop_
_atom_site_type_symbol
_atom_site_label
_atom_site_fract_x
_atom_site_fract_y
_atom_site_fract_z
Si Si1 0.453053 0.581461 0.600930
Si Si2 0.278717 0.856474 0.128572
Si Si3 0.728013 0.854512 0.621292
Si Si4 0.951153 0.532091 0.353401
Si Si5 0.862920 0.895724 0.987959
Si Si6 0.370162 0.350734 0.782612
O O1 0.453932 0.500000 0.500000
O O2 0.500000 0.625161 0.587713
O O3 0.449320 0.543333 0.745060
O O4 0.409427 0.631795 0.567446
O O5 0.279730 0.750000 0.129088
O O6 0.250000 0.882838 0.250000
O O7 0.327994 0.885265 0.143319
O O8 0.254799 0.886591 0.001130
O O9 0.732153 0.750000 0.622590
O O10 0.750000 0.889178 0.750000
O O11 0.677758 0.873041 0.599721
O O12 0.945505 0.500000 0.500000
O O13 0.913194 0.597140 0.314921
O O14 0.000000 0.569030 0.343601
O O15 0.858800 0.858081 0.131253
O O16 0.863235 0.000000 0.000000
O O17 0.376479 0.250000 0.814996
#
# Coordination Sequence:
#
# PCOD9539244 Si02
#       6
#    16  16  16  16  16  16
#     4   9  17  33  57  81 115 154 188 224 282 352
#     4   9  17  33  55  76 106 150 190 226 288 356
#     4  10  21  38  57  79 112 153 191 234 295 356
#     4  10  21  38  59  87 120 157 192 236 301 359
#     4  11  20  35  56  86 117 148 194 244 292 337
#     4  11  21  36  62  90 114 153 203 247 288 347
#
# _framework density 19.349779000000002
#
# number of rings (size 3 to 8) (size 9 to 14) (size 15 to 20)
#    0.000    2.000    5.000    0.500    0.000    1.667 
#    3.000    0.000    0.000    2.500    0.000    4.667 
#    0.000    0.000    0.000    0.000    0.000    0.000 
#
# Total GULP energy -267768.695867 kJ/mol
# GULP energy per Si atom -5578.514497 kJ/mol
# Density = 1.930574 g / cm^3
# Si number density = 19.349779 Si / 1000 Ang^3
#
#
#
# Elastic Constant Matrix: (Units=GPa)
#
#
# Indices 1 2 3 4 5 6 
#
# 1 197.9769 12.1190 59.7796 0.0000 0.0000 0.0000
# 2 12.1190 18.9876 -2.6328 0.0000 0.0000 0.0000
# 3 59.7796 -2.6328 123.6055 0.0000 0.0000 0.0000
# 4 0.0000 0.0000 0.0000 4.9425 0.0000 0.0000
# 5 0.0000 0.0000 0.0000 0.0000 33.9519 0.0000
# 6 0.0000 0.0000 0.0000 0.0000 0.0000 -12.8468
#
#
#
# Elastic Compliance Matrix: (Units=1/GPa)
#
#
# Indices 1 2 3 4 5 6 
#
# 1 0.006266 -0.004433 -0.003125 0.000000 0.000000 0.000000
# 2 -0.004433 0.055958 0.003336 0.000000 0.000000 0.000000
# 3 -0.003125 0.003336 0.009673 0.000000 0.000000 0.000000
# 4 0.000000 0.000000 0.000000 0.202327 0.000000 0.000000
# 5 0.000000 0.000000 0.000000 0.000000 0.029453 0.000000
# 6 0.000000 0.000000 0.000000 0.000000 0.000000 -0.077841
#
#
# Mechanical properties :
#
#
# Convention : Reuss Voigt Hill
#
# Bulk Modulus (GPa) = 15.75979 53.23351 34.49665
# Shear Modulus (GPa) = 19.57482 23.29648 21.43565
#
# Velocity S-wave (km/s) = 3.18406 3.47359 3.33197
# Velocity P-wave (km/s) = 4.65618 6.60747 5.71571
#
# Compressibility (1/GPa) = 0.06345261
#
# Stress axis : x y z
#
# Youngs Moduli (GPa) = 159.59169 17.87066 103.38496
#
# Poissons Ratio (x) = 0.07921 0.32306
# Poissons Ratio (y) = 0.70741 -0.34486
# Poissons Ratio (z) = 0.49870 -0.05961
#
# Static dielectric constant tensor:
#      x y z
#    x 1.693700 0.000000 0.000000 
#    y 0.000000 1.677160 0.000000 
#    z 0.000000 0.000000 1.683020 
# 
# From -- ./inp_files/26293.got.cif
#   From: 2010.05.17/outbox.cif.g08.bks.cpg/sg74_14_cif.got.tgz:26293.got - 2010.06.03 17:57:02.
