data_PCOD9539785
_publ_section_title
;
Structure prediction by ZEFSAII (Michael W. Deem and Ramdas Pophale) SiO2 
 PCOD9539785
Probable space group: I M M A
;
_chemical_formula_sum "Si O2"
_cell_formula_units_Z 80
_cell_length_a 11.672012
_cell_length_b 12.738810
_cell_length_c 30.531877
_cell_angle_alpha 90.000000
_cell_angle_beta 90.000000
_cell_angle_gamma 90.000000
_cell_volume 4539.709780
_symmetry_space_group_name_H-M "I M M A"
_symmetry_group_IT_number 74
_symmetry_cell_setting 'orthorhombic'
loop_
_space_group_symop_operation_xyz
x,y,z
-x,1/2-y,z
x,-y,-z
-x,1/2+y,-z
-x,-y,-z
x,1/2+y,-z
-x,y,z
x,1/2-y,z
1/2+x,1/2+y,1/2+z
1/2-x,-y,1/2+z
1/2+x,1/2-y,1/2-z
1/2-x,y,1/2-z
1/2-x,1/2-y,1/2-z
1/2+x,y,1/2-z
1/2-x,1/2+y,1/2+z
1/2+x,-y,1/2+z
loop_
_atom_site_type_symbol
_atom_site_label
_atom_site_fract_x
_atom_site_fract_y
_atom_site_fract_z
Si Si1 0.202513 0.629356 0.201016
Si Si2 0.754432 0.527399 0.548802
Si Si3 0.135212 0.371108 0.618399
Si Si4 0.804089 0.250000 0.062874
Si Si5 0.500000 0.250000 0.510962
Si Si6 0.000000 0.750000 0.863191
Si Si7 0.000000 0.537767 0.065311
Si Si8 0.500000 0.488927 0.332633
O O1 0.156873 0.750000 0.196069
O O2 0.250000 0.619939 0.250000
O O3 0.302783 0.617773 0.165136
O O4 0.109485 0.540398 0.190773
O O5 0.793329 0.500000 0.500000
O O6 0.806662 0.447694 0.583585
O O7 0.773862 0.647243 0.561454
O O8 0.616022 0.518204 0.550615
O O9 0.151974 0.250000 0.604230
O O10 0.000000 0.390841 0.621899
O O11 0.888936 0.250000 0.104764
O O12 0.888191 0.250000 0.020264
O O13 0.500000 0.150220 0.542654
O O14 0.000000 0.638335 0.837250
O O15 0.000000 0.534530 0.117770
#
# Coordination Sequence:
#
# PCOD9539785 Si02
#       8
#    16  16  16   8   4   4   8   8
#     4  10  22  39  64  95 120 146 184 242 304 358
#     4  12  23  36  57  84 119 160 198 242 288 342
#     4  10  23  42  60  82 117 157 195 238 292 350
#     4  11  20  34  51  84 120 158 195 240 290 337
#     4  11  22  28  52  86 126 156 184 240 304 349
#     4  11  20  34  54  80 130 158 190 230 286 337
#     4  12  21  34  54  91 125 153 189 239 297 347
#     4  12  22  37  61  92 121 155 193 236 289 353
#
# _framework density 17.622271000000001
#
# number of rings (size 3 to 8) (size 9 to 14) (size 15 to 20)
#    0.000    1.000    6.000    1.200    5.600    0.400 
#    0.000    1.000    0.000    0.000    0.000    0.000 
#    0.000    0.000    0.000    0.000    0.000    0.000 
#
# Total GULP energy -223416.776934 kJ/mol
# GULP energy per Si atom -5585.419423 kJ/mol
# Density = 1.758216 g / cm^3
# Si number density = 17.622271 Si / 1000 Ang^3
#
#
#
# Elastic Constant Matrix: (Units=GPa)
#
#
# Indices 1 2 3 4 5 6 
#
# 1 70.0980 65.6974 37.5868 0.0000 0.0000 0.0000
# 2 65.6974 165.4160 73.2026 0.0000 0.0000 0.0000
# 3 37.5868 73.2026 122.3802 0.0000 0.0000 0.0000
# 4 0.0000 0.0000 0.0000 28.9663 0.0000 0.0000
# 5 0.0000 0.0000 0.0000 0.0000 15.8292 0.0000
# 6 0.0000 0.0000 0.0000 0.0000 0.0000 20.1533
#
#
#
# Elastic Compliance Matrix: (Units=1/GPa)
#
#
# Indices 1 2 3 4 5 6 
#
# 1 0.023148 -0.008224 -0.002190 0.000000 0.000000 0.000000
# 2 -0.008224 0.011144 -0.004140 0.000000 0.000000 0.000000
# 3 -0.002190 -0.004140 0.011320 0.000000 0.000000 0.000000
# 4 0.000000 0.000000 0.000000 0.034523 0.000000 0.000000
# 5 0.000000 0.000000 0.000000 0.000000 0.063174 0.000000
# 6 0.000000 0.000000 0.000000 0.000000 0.000000 0.049620
#
#
# Mechanical properties :
#
#
# Convention : Reuss Voigt Hill
#
# Bulk Modulus (GPa) = 60.59277 78.98532 69.78904
# Shear Modulus (GPa) = 21.97428 25.08358 23.52893
#
# Velocity S-wave (km/s) = 3.53506 3.77689 3.65798
# Velocity P-wave (km/s) = 7.14990 7.99616 7.58484
#
# Compressibility (1/GPa) = 0.01650362
#
# Stress axis : x y z
#
# Youngs Moduli (GPa) = 43.19989 89.73564 88.33837
#
# Poissons Ratio (x) = 0.73803 0.19346
# Poissons Ratio (y) = 0.35530 0.36570
# Poissons Ratio (z) = 0.09461 0.37148
#
# Static dielectric constant tensor:
#      x y z
#    x 1.608900 0.000000 0.000000 
#    y 0.000000 1.643510 0.000000 
#    z 0.000000 0.000000 1.578990 
# 
# From -- ./inp_files/71601.got.cif
#   From: 2010.05.17/outbox.cif.g08.bks.cpg/sg74_36_cif.got.tgz:71601.got - 2010.06.03 17:57:02.
