data_PCOD9539327
_publ_section_title
;
Structure prediction by ZEFSAII (Michael W. Deem and Ramdas Pophale) SiO2 
 PCOD9539327
Probable space group: I M M A
;
_chemical_formula_sum "Si O2"
_cell_formula_units_Z 80
_cell_length_a 18.578844
_cell_length_b 8.805108
_cell_length_c 26.297246
_cell_angle_alpha 90.000000
_cell_angle_beta 90.000000
_cell_angle_gamma 90.000000
_cell_volume 4301.933021
_symmetry_space_group_name_H-M "I M M A"
_symmetry_group_IT_number 74
_symmetry_cell_setting 'orthorhombic'
loop_
_space_group_symop_operation_xyz
x,y,z
-x,1/2-y,z
x,-y,-z
-x,1/2+y,-z
-x,-y,-z
x,1/2+y,-z
-x,y,z
x,1/2-y,z
1/2+x,1/2+y,1/2+z
1/2-x,-y,1/2+z
1/2+x,1/2-y,1/2-z
1/2-x,y,1/2-z
1/2-x,1/2-y,1/2-z
1/2+x,y,1/2-z
1/2-x,1/2+y,1/2+z
1/2+x,-y,1/2+z
loop_
_atom_site_type_symbol
_atom_site_label
_atom_site_fract_x
_atom_site_fract_y
_atom_site_fract_z
Si Si1 0.915299 0.931464 0.945278
Si Si2 0.172775 0.567559 0.653498
Si Si3 0.415887 0.432845 0.753099
Si Si4 0.331750 0.932092 0.349981
Si Si5 0.416567 0.932814 0.945824
O O1 0.907323 0.750000 0.946456
O O2 0.000000 0.967287 0.936898
O O3 0.868743 0.000844 0.900112
O O4 0.894963 0.000000 0.000000
O O5 0.177722 0.750000 0.654113
O O6 0.125651 0.511615 0.700882
O O7 0.251759 0.496573 0.656044
O O8 0.132947 0.520521 0.601249
O O9 0.500000 0.473966 0.752922
O O10 0.410486 0.250000 0.759014
O O11 0.378746 0.473074 0.699631
O O12 0.329443 0.750000 0.353465
O O13 0.500000 0.978864 0.936972
O O14 0.414963 0.750000 0.948940
O O15 0.393566 0.000000 0.000000
#
# Coordination Sequence:
#
# PCOD9539327 Si02
#       5
#    16  16  16  16  16
#     4  10  21  38  61  88 117 151 193 239 287 341
#     4  11  23  38  57  84 118 151 187 235 289 343
#     4  10  22  40  61  84 111 147 191 236 286 346
#     4  11  23  39  59  84 117 154 192 236 286 341
#     4   9  19  36  57  81 109 143 184 229 277 330
#
# _framework density 18.596291999999998
#
# number of rings (size 3 to 8) (size 9 to 14) (size 15 to 20)
#    0.000    1.800    0.000    3.600    0.000    9.600 
#    0.000    4.000    0.000    0.000    0.000    0.000 
#    0.000    0.000    0.000    0.000    0.000    0.000 
#
# Total GULP energy -223579.969708 kJ/mol
# GULP energy per Si atom -5589.499243 kJ/mol
# Density = 1.855397 g / cm^3
# Si number density = 18.596292 Si / 1000 Ang^3
#
#
#
# Elastic Constant Matrix: (Units=GPa)
#
#
# Indices 1 2 3 4 5 6 
#
# 1 154.7468 60.1264 122.1049 0.0000 0.0000 0.0000
# 2 60.1264 43.6252 64.4103 0.0000 0.0000 0.0000
# 3 122.1049 64.4103 189.5566 0.0000 0.0000 0.0000
# 4 0.0000 0.0000 0.0000 38.9396 0.0000 0.0000
# 5 0.0000 0.0000 0.0000 0.0000 -71.0041 0.0000
# 6 0.0000 0.0000 0.0000 0.0000 0.0000 32.6853
#
#
#
# Elastic Compliance Matrix: (Units=1/GPa)
#
#
# Indices 1 2 3 4 5 6 
#
# 1 0.016635 -0.014260 -0.005870 0.000000 0.000000 0.000000
# 2 -0.014260 0.058225 -0.010599 0.000000 0.000000 0.000000
# 3 -0.005870 -0.010599 0.012658 0.000000 0.000000 0.000000
# 4 0.000000 0.000000 0.000000 0.025681 0.000000 0.000000
# 5 0.000000 0.000000 0.000000 0.000000 -0.014084 0.000000
# 6 0.000000 0.000000 0.000000 0.000000 0.000000 0.030595
#
#
# Mechanical properties :
#
#
# Convention : Reuss Voigt Hill
#
# Bulk Modulus (GPa) = 38.37272 97.91243 68.14257
# Shear Modulus (GPa) = 25.01835 9.54328 17.28082
#
# Velocity S-wave (km/s) = 3.67187 2.26781 3.05169
# Velocity P-wave (km/s) = 6.21741 7.72160 7.00997
#
# Compressibility (1/GPa) = 0.02606018
#
# Stress axis : x y z
#
# Youngs Moduli (GPa) = 60.11597 17.17479 79.00139
#
# Poissons Ratio (x) = 0.24491 0.46373
# Poissons Ratio (y) = 0.85725 0.83732
# Poissons Ratio (z) = 0.35287 0.18203
#
# Static dielectric constant tensor:
#      x y z
#    x 1.618250 0.000000 0.000000 
#    y 0.000000 1.624220 0.000000 
#    z 0.000000 0.000000 1.606750 
# 
# From -- ./inp_files/63957.got.cif
#   From: 2010.05.17/outbox.cif.g08.bks.cpg/sg74_32_cif.got.tgz:63957.got - 2010.06.03 17:57:02.
