data_PCOD9539298
_publ_section_title
;
Structure prediction by ZEFSAII (Michael W. Deem and Ramdas Pophale) SiO2 
 PCOD9539298
Probable space group: I M M A
;
_chemical_formula_sum "Si O2"
_cell_formula_units_Z 96
_cell_length_a 8.273549
_cell_length_b 19.419569
_cell_length_c 30.334455
_cell_angle_alpha 90.000000
_cell_angle_beta 90.000000
_cell_angle_gamma 90.000000
_cell_volume 4873.799139
_symmetry_space_group_name_H-M "I M M A"
_symmetry_group_IT_number 74
_symmetry_cell_setting 'orthorhombic'
loop_
_space_group_symop_operation_xyz
x,y,z
-x,1/2-y,z
x,-y,-z
-x,1/2+y,-z
-x,-y,-z
x,1/2+y,-z
-x,y,z
x,1/2-y,z
1/2+x,1/2+y,1/2+z
1/2-x,-y,1/2+z
1/2+x,1/2-y,1/2-z
1/2-x,y,1/2-z
1/2-x,1/2-y,1/2-z
1/2+x,y,1/2-z
1/2-x,1/2+y,1/2+z
1/2+x,-y,1/2+z
loop_
_atom_site_type_symbol
_atom_site_label
_atom_site_fract_x
_atom_site_fract_y
_atom_site_fract_z
Si Si1 0.810613 0.672746 0.683579
Si Si2 0.307613 0.828246 0.298918
Si Si3 0.686262 0.939746 0.132030
Si Si4 0.692668 0.174293 0.077633
Si Si5 0.683631 0.532612 0.703584
Si Si6 0.301956 0.476264 0.048946
O O1 0.773017 0.750000 0.698002
O O2 0.791931 0.670890 0.630537
O O3 0.697610 0.614655 0.703104
O O4 0.000000 0.658143 0.693254
O O5 0.500000 0.826349 0.297203
O O6 0.245575 0.750000 0.305806
O O7 0.250000 0.850312 0.250000
O O8 0.260045 0.877945 0.339152
O O9 0.500000 0.922156 0.124718
O O10 0.704918 0.004644 0.164732
O O11 0.754871 0.968651 0.085867
O O12 0.500000 0.175520 0.068085
O O13 0.757780 0.250000 0.063455
O O14 0.755723 0.101942 0.058553
O O15 0.500000 0.509940 0.696538
O O16 0.750000 0.507355 0.750000
O O17 0.500000 0.475004 0.052277
O O18 0.259191 0.500000 0.000000
#
# Coordination Sequence:
#
# PCOD9539298 Si02
#       6
#    16  16  16  16  16  16
#     4   9  17  32  53  75 101 137 180 224 270 315
#     4  10  21  38  60  86 116 150 188 228 276 340
#     4  11  21  36  57  81 113 145 181 230 281 332
#     4   8  13  25  48  74 101 137 180 221 265 316
#     4  12  24  36  52  75 107 144 185 224 269 323
#     4   9  17  30  51  81 113 143 180 232 288 335
#
# _framework density 19.697158999999999
#
# number of rings (size 3 to 8) (size 9 to 14) (size 15 to 20)
#    0.000    2.167    1.667    4.000    0.000    1.667 
#    0.000    0.833    0.000    5.000    0.000    0.000 
#    0.000    0.000    0.000    0.000    0.000    0.000 
#
# Total GULP energy -267701.803695 kJ/mol
# GULP energy per Si atom -5577.120910 kJ/mol
# Density = 1.965233 g / cm^3
# Si number density = 19.697159 Si / 1000 Ang^3
#
#
#
# Elastic Constant Matrix: (Units=GPa)
#
#
# Indices 1 2 3 4 5 6 
#
# 1 17.8567 21.2364 10.2403 0.0000 0.0000 0.0000
# 2 21.2364 147.9533 64.2147 0.0000 0.0000 0.0000
# 3 10.2403 64.2147 130.4235 0.0000 0.0000 0.0000
# 4 0.0000 0.0000 0.0000 -43.0208 0.0000 0.0000
# 5 0.0000 0.0000 0.0000 0.0000 12.0653 0.0000
# 6 0.0000 0.0000 0.0000 0.0000 0.0000 30.8279
#
#
#
# Elastic Compliance Matrix: (Units=1/GPa)
#
#
# Indices 1 2 3 4 5 6 
#
# 1 0.067575 -0.009407 -0.000674 0.000000 0.000000 0.000000
# 2 -0.009407 0.009905 -0.004138 0.000000 0.000000 0.000000
# 3 -0.000674 -0.004138 0.009758 0.000000 0.000000 0.000000
# 4 0.000000 0.000000 0.000000 -0.023245 0.000000 0.000000
# 5 0.000000 0.000000 0.000000 0.000000 0.082883 0.000000
# 6 0.000000 0.000000 0.000000 0.000000 0.000000 0.032438
#
#
# Mechanical properties :
#
#
# Convention : Reuss Voigt Hill
#
# Bulk Modulus (GPa) = 17.00695 54.17957 35.59326
# Shear Modulus (GPa) = 21.99229 13.34395 17.66812
#
# Velocity S-wave (km/s) = 3.34506 2.60562 2.99823
# Velocity P-wave (km/s) = 4.85512 6.05131 5.48592
#
# Compressibility (1/GPa) = 0.05879948
#
# Stress axis : x y z
#
# Youngs Moduli (GPa) = 14.79837 100.95740 102.48230
#
# Poissons Ratio (x) = 0.94967 0.06910
# Poissons Ratio (y) = 0.13920 0.42410
# Poissons Ratio (z) = 0.00998 0.41779
#
# Static dielectric constant tensor:
#      x y z
#    x 1.702400 0.000000 0.000000 
#    y 0.000000 1.747270 0.000000 
#    z 0.000000 0.000000 1.669890 
# 
# From -- ./inp_files/64371.got.cif
#   From: 2010.05.17/outbox.cif.g08.bks.cpg/sg74_33_cif.got.tgz:64371.got - 2010.06.03 17:57:02.
