data_PCOD9539434
_publ_section_title
;
Structure prediction by ZEFSAII (Michael W. Deem and Ramdas Pophale) SiO2 
 PCOD9539434
Probable space group: I M M A
;
_chemical_formula_sum "Si O2"
_cell_formula_units_Z 48
_cell_length_a 14.163081
_cell_length_b 15.034554
_cell_length_c 9.937462
_cell_angle_alpha 90.000000
_cell_angle_beta 90.000000
_cell_angle_gamma 90.000000
_cell_volume 2116.039494
_symmetry_space_group_name_H-M "I M M A"
_symmetry_group_IT_number 74
_symmetry_cell_setting 'orthorhombic'
loop_
_space_group_symop_operation_xyz
x,y,z
-x,1/2-y,z
x,-y,-z
-x,1/2+y,-z
-x,-y,-z
x,1/2+y,-z
-x,y,z
x,1/2-y,z
1/2+x,1/2+y,1/2+z
1/2-x,-y,1/2+z
1/2+x,1/2-y,1/2-z
1/2-x,y,1/2-z
1/2-x,1/2-y,1/2-z
1/2+x,y,1/2-z
1/2-x,1/2+y,1/2+z
1/2+x,-y,1/2+z
loop_
_atom_site_type_symbol
_atom_site_label
_atom_site_fract_x
_atom_site_fract_y
_atom_site_fract_z
Si Si1 0.887748 0.587716 0.138686
Si Si2 0.392093 0.145803 0.939410
Si Si3 0.721226 0.099031 0.391312
O O1 0.871097 0.634296 0.281143
O O2 0.831873 0.493708 0.143250
O O3 0.000000 0.573834 0.124217
O O4 0.847237 0.638201 0.007372
O O5 0.500000 0.117701 0.961701
O O6 0.383559 0.250000 0.972951
O O7 0.319907 0.093017 0.030844
O O8 0.750000 0.142645 0.250000
#
# Coordination Sequence:
#
# PCOD9539434 Si02
#       3
#    16  16  16
#     4  10  21  39  61  87 122 166 215 257 301 368
#     4  10  23  43  65  90 124 168 213 256 308 373
#     4  11  21  35  59  92 125 160 202 256 317 370
#
# _framework density 22.683888
#
# number of rings (size 3 to 8) (size 9 to 14) (size 15 to 20)
#    0.000    1.667    0.000    7.000    0.000    6.000 
#    0.000    6.667    0.000    7.000    0.000    0.000 
#    0.000    0.000    0.000    0.000    0.000    0.000 
#
# Total GULP energy -133995.686760 kJ/mol
# GULP energy per Si atom -5583.153615 kJ/mol
# Density = 2.263226 g / cm^3
# Si number density = 22.683888 Si / 1000 Ang^3
#
#
#
# Elastic Constant Matrix: (Units=GPa)
#
#
# Indices 1 2 3 4 5 6 
#
# 1 176.2698 36.6421 89.2806 0.0000 0.0000 0.0000
# 2 36.6421 63.0536 18.5323 0.0000 0.0000 0.0000
# 3 89.2806 18.5323 176.3213 0.0000 0.0000 0.0000
# 4 0.0000 0.0000 0.0000 35.4669 0.0000 0.0000
# 5 0.0000 0.0000 0.0000 0.0000 38.6101 0.0000
# 6 0.0000 0.0000 0.0000 0.0000 0.0000 -24.6528
#
#
#
# Elastic Compliance Matrix: (Units=1/GPa)
#
#
# Indices 1 2 3 4 5 6 
#
# 1 0.008410 -0.003752 -0.003864 0.000000 0.000000 0.000000
# 2 -0.003752 0.018039 0.000004 0.000000 0.000000 0.000000
# 3 -0.003864 0.000004 0.007628 0.000000 0.000000 0.000000
# 4 0.000000 0.000000 0.000000 0.028195 0.000000 0.000000
# 5 0.000000 0.000000 0.000000 0.000000 0.025900 0.000000
# 6 0.000000 0.000000 0.000000 0.000000 0.000000 -0.040563
#
#
# Mechanical properties :
#
#
# Convention : Reuss Voigt Hill
#
# Bulk Modulus (GPa) = 53.04412 78.28386 65.66399
# Shear Modulus (GPa) = 72.34130 27.96416 50.15273
#
# Velocity S-wave (km/s) = 5.65334 3.51490 4.70717
# Velocity P-wave (km/s) = 8.12702 7.14552 7.65202
#
# Compressibility (1/GPa) = 0.01885223
#
# Stress axis : x y z
#
# Youngs Moduli (GPa) = 118.90299 55.43664 131.10073
#
# Poissons Ratio (x) = 0.20798 0.50660
# Poissons Ratio (y) = 0.44608 -0.00049
# Poissons Ratio (z) = 0.45947 -0.00021
#
# Static dielectric constant tensor:
#      x y z
#    x 1.820080 0.000000 0.000000 
#    y 0.000000 1.839570 0.000000 
#    z 0.000000 0.000000 1.876200 
# 
# From -- ./inp_files/7980.got.cif
#   From: 2010.05.17/outbox.cif.g08.bks.cpg/sg74_4_cif.got.tgz:7980.got - 2010.06.03 17:57:02.
