data_PCOD9539496
_publ_section_title
;
Structure prediction by ZEFSAII (Michael W. Deem and Ramdas Pophale) SiO2 
 PCOD9539496
Probable space group: I M M A
;
_chemical_formula_sum "Si O2"
_cell_formula_units_Z 112
_cell_length_a 26.849902
_cell_length_b 32.080918
_cell_length_c 6.029968
_cell_angle_alpha 90.000000
_cell_angle_beta 90.000000
_cell_angle_gamma 90.000000
_cell_volume 5194.030548
_symmetry_space_group_name_H-M "I M M A"
_symmetry_group_IT_number 74
_symmetry_cell_setting 'orthorhombic'
loop_
_space_group_symop_operation_xyz
x,y,z
-x,1/2-y,z
x,-y,-z
-x,1/2+y,-z
-x,-y,-z
x,1/2+y,-z
-x,y,z
x,1/2-y,z
1/2+x,1/2+y,1/2+z
1/2-x,-y,1/2+z
1/2+x,1/2-y,1/2-z
1/2-x,y,1/2-z
1/2-x,1/2-y,1/2-z
1/2+x,y,1/2-z
1/2-x,1/2+y,1/2+z
1/2+x,-y,1/2+z
loop_
_atom_site_type_symbol
_atom_site_label
_atom_site_fract_x
_atom_site_fract_y
_atom_site_fract_z
Si Si1 0.905917 0.520369 0.754862
Si Si2 0.303542 0.127422 0.864947
Si Si3 0.340342 0.704609 0.868914
Si Si4 0.879618 0.336118 0.979208
Si Si5 0.945782 0.110325 0.288761
Si Si6 0.943643 0.317448 0.599831
Si Si7 0.199719 0.043329 0.373818
O O1 0.908041 0.500000 0.500000
O O2 0.938622 0.561474 0.719447
O O3 0.848024 0.533787 0.776969
O O4 0.918971 0.500000 0.000000
O O5 0.250000 0.126784 0.750000
O O6 0.345442 0.138597 0.687463
O O7 0.309281 0.165725 0.037055
O O8 0.313647 0.082330 0.970568
O O9 0.319839 0.750000 0.925028
O O10 0.346828 0.697411 0.608168
O O11 0.397486 0.702043 0.963388
O O12 0.925283 0.314982 0.850645
O O13 0.902291 0.368409 0.151624
O O14 0.943927 0.133682 0.525397
O O15 0.000000 0.121168 0.192794
O O16 0.000000 0.301976 0.562781
O O17 0.250000 0.055728 0.250000
O O18 0.210423 0.000000 0.500000
#
# Coordination Sequence:
#
# PCOD9539496 Si02
#       7
#    16  16  16  16  16  16  16
#     4  11  26  42  64  95 140 183 231 290 353 419
#     4  11  26  42  69  98 130 173 226 283 350 420
#     4  10  23  43  64  94 134 176 224 280 343 415
#     4  10  21  39  66  93 129 171 218 279 340 411
#     4  10  22  39  64  92 128 179 229 280 339 409
#     4   9  19  38  64  95 128 169 223 277 338 404
#     4  11  24  42  68 103 133 174 219 283 347 422
#
# _framework density 21.563216000000001
#
# number of rings (size 3 to 8) (size 9 to 14) (size 15 to 20)
#    0.000    1.714    0.000    3.857   10.000    4.000 
#    0.000    0.714    0.000    0.000    0.000    0.000 
#    0.000    0.000    0.000    0.000    0.000    0.000 
#
# Total GULP energy -312218.894670 kJ/mol
# GULP energy per Si atom -5575.337405 kJ/mol
# Density = 2.151414 g / cm^3
# Si number density = 21.563216 Si / 1000 Ang^3
#
#
#
# Elastic Constant Matrix: (Units=GPa)
#
#
# Indices 1 2 3 4 5 6 
#
# 1 35.5152 4.7046 -1.7023 0.0000 0.0000 0.0000
# 2 4.7046 122.8025 37.4795 0.0000 0.0000 0.0000
# 3 -1.7023 37.4795 77.2156 0.0000 0.0000 0.0000
# 4 0.0000 0.0000 0.0000 8.9275 0.0000 0.0000
# 5 0.0000 0.0000 0.0000 0.0000 21.4471 0.0000
# 6 0.0000 0.0000 0.0000 0.0000 0.0000 5.1632
#
#
#
# Elastic Compliance Matrix: (Units=1/GPa)
#
#
# Indices 1 2 3 4 5 6 
#
# 1 0.028421 -0.001503 0.001356 0.000000 0.000000 0.000000
# 2 -0.001503 0.009639 -0.004712 0.000000 0.000000 0.000000
# 3 0.001356 -0.004712 0.015268 0.000000 0.000000 0.000000
# 4 0.000000 0.000000 0.000000 0.112013 0.000000 0.000000
# 5 0.000000 0.000000 0.000000 0.000000 0.046626 0.000000
# 6 0.000000 0.000000 0.000000 0.000000 0.000000 0.193678
#
#
# Mechanical properties :
#
#
# Convention : Reuss Voigt Hill
#
# Bulk Modulus (GPa) = 22.93019 35.16633 29.04826
# Shear Modulus (GPa) = 11.63065 20.11099 15.87082
#
# Velocity S-wave (km/s) = 2.32496 3.05725 2.71590
# Velocity P-wave (km/s) = 4.22662 5.36715 4.83066
#
# Compressibility (1/GPa) = 0.04361062
#
# Stress axis : x y z
#
# Youngs Moduli (GPa) = 35.18526 103.74811 65.49807
#
# Poissons Ratio (x) = 0.15590 -0.08881
# Poissons Ratio (y) = 0.05287 0.30860
# Poissons Ratio (z) = -0.04771 0.48883
#
# Static dielectric constant tensor:
#      x y z
#    x 1.786330 0.000000 0.000000 
#    y 0.000000 1.797060 0.000000 
#    z 0.000000 0.000000 1.864290 
# 
# From -- ./inp_files/5334.got.cif
#   From: 2010.05.17/outbox.cif.g08.bks.cpg/sg74_3_cif.got.tgz:5334.got - 2010.06.03 17:57:02.
