data_PCOD9539605
_publ_section_title
;
Structure prediction by ZEFSAII (Michael W. Deem and Ramdas Pophale) SiO2 
 PCOD9539605
Probable space group: I M M A
;
_chemical_formula_sum "Si O2"
_cell_formula_units_Z 36
_cell_length_a 8.477560
_cell_length_b 7.058331
_cell_length_c 22.398462
_cell_angle_alpha 90.000000
_cell_angle_beta 90.000000
_cell_angle_gamma 90.000000
_cell_volume 1340.266280
_symmetry_space_group_name_H-M "I M M A"
_symmetry_group_IT_number 74
_symmetry_cell_setting 'orthorhombic'
loop_
_space_group_symop_operation_xyz
x,y,z
-x,1/2-y,z
x,-y,-z
-x,1/2+y,-z
-x,-y,-z
x,1/2+y,-z
-x,y,z
x,1/2-y,z
1/2+x,1/2+y,1/2+z
1/2-x,-y,1/2+z
1/2+x,1/2-y,1/2-z
1/2-x,y,1/2-z
1/2-x,1/2-y,1/2-z
1/2+x,y,1/2-z
1/2-x,1/2+y,1/2+z
1/2+x,-y,1/2+z
loop_
_atom_site_type_symbol
_atom_site_label
_atom_site_fract_x
_atom_site_fract_y
_atom_site_fract_z
Si Si1 0.500000 0.975406 0.769637
Si Si2 0.674829 0.474066 0.071385
Si Si3 0.250000 0.750000 0.250000
Si Si4 0.000000 0.020738 0.129683
O O1 0.500000 0.750000 0.776551
O O2 0.500000 0.038199 0.698931
O O3 0.343101 0.082178 0.788602
O O4 0.500000 0.543603 0.089869
O O5 0.672805 0.250000 0.084713
O O6 0.840212 0.543936 0.097786
O O7 0.682643 0.500000 0.000000
O O8 0.000000 0.250000 0.130048
#
# Coordination Sequence:
#
# PCOD9539605 Si02
#       4
#     8  16   4   8
#     4  10  21  42  67  92 127 167 212 272 346 396
#     4   9  17  31  50  78 116 157 203 248 301 369
#     4  10  22  42  64  96 124 162 214 278 328 428
#     4   9  18  34  56  83 113 157 208 256 313 384
#
# _framework density 26.860334999999999
#
# number of rings (size 3 to 8) (size 9 to 14) (size 15 to 20)
#    0.000    2.667    0.000    1.333    0.000    0.000 
#   16.000    0.000    0.000    0.000    0.000    0.000 
#    0.000    0.000    0.000    0.000    0.000    0.000 
#
# Total GULP energy -100205.107057 kJ/mol
# GULP energy per Si atom -5566.950392 kJ/mol
# Density = 2.679920 g / cm^3
# Si number density = 26.860335 Si / 1000 Ang^3
#
#
#
# Elastic Constant Matrix: (Units=GPa)
#
#
# Indices 1 2 3 4 5 6 
#
# 1 266.2733 19.2646 95.5444 0.0000 0.0000 0.0000
# 2 19.2646 249.1017 -23.0205 0.0000 0.0000 0.0000
# 3 95.5444 -23.0205 109.6923 0.0000 0.0000 0.0000
# 4 0.0000 0.0000 0.0000 -59.1590 0.0000 0.0000
# 5 0.0000 0.0000 0.0000 0.0000 59.4767 0.0000
# 6 0.0000 0.0000 0.0000 0.0000 0.0000 -14.4328
#
#
#
# Elastic Compliance Matrix: (Units=1/GPa)
#
#
# Indices 1 2 3 4 5 6 
#
# 1 0.005659 -0.000911 -0.005120 0.000000 0.000000 0.000000
# 2 -0.000911 0.004240 0.001683 0.000000 0.000000 0.000000
# 3 -0.005120 0.001683 0.013929 0.000000 0.000000 0.000000
# 4 0.000000 0.000000 0.000000 -0.016904 0.000000 0.000000
# 5 0.000000 0.000000 0.000000 0.000000 0.016813 0.000000
# 6 0.000000 0.000000 0.000000 0.000000 0.000000 -0.069287
#
#
# Mechanical properties :
#
#
# Convention : Reuss Voigt Hill
#
# Bulk Modulus (GPa) = 66.07946 89.84939 77.96443
# Shear Modulus (GPa) = -157.18483 32.72890 -62.22797
#
# Velocity S-wave (km/s) = -7.65809 3.49447 -4.81846
# Velocity P-wave (km/s) = 7.31714 7.05726 1.36669
#
# Compressibility (1/GPa) = 0.01513329
#
# Stress axis : x y z
#
# Youngs Moduli (GPa) = 176.72396 235.82621 71.79186
#
# Poissons Ratio (x) = 0.21478 0.36756
# Poissons Ratio (y) = 0.16095 -0.12084
# Poissons Ratio (z) = 0.90480 -0.39694
#
# Static dielectric constant tensor:
#      x y z
#    x 2.308990 0.000000 0.000000 
#    y 0.000000 2.014330 0.000000 
#    z 0.000000 0.000000 2.170750 
# 
# From -- ./inp_files/56047.got.cif
#   From: 2010.05.17/outbox.cif.g08.bks.cpg/sg74_29_cif.got.tgz:56047.got - 2010.06.03 17:57:02.
