data_PCOD9539489
_publ_section_title
;
Structure prediction by ZEFSAII (Michael W. Deem and Ramdas Pophale) SiO2 
 PCOD9539489
Probable space group: I M M A
;
_chemical_formula_sum "Si O2"
_cell_formula_units_Z 80
_cell_length_a 19.065144
_cell_length_b 20.347822
_cell_length_c 8.921448
_cell_angle_alpha 90.000000
_cell_angle_beta 90.000000
_cell_angle_gamma 90.000000
_cell_volume 3460.934405
_symmetry_space_group_name_H-M "I M M A"
_symmetry_group_IT_number 74
_symmetry_cell_setting 'orthorhombic'
loop_
_space_group_symop_operation_xyz
x,y,z
-x,1/2-y,z
x,-y,-z
-x,1/2+y,-z
-x,-y,-z
x,1/2+y,-z
-x,y,z
x,1/2-y,z
1/2+x,1/2+y,1/2+z
1/2-x,-y,1/2+z
1/2+x,1/2-y,1/2-z
1/2-x,y,1/2-z
1/2-x,1/2-y,1/2-z
1/2+x,y,1/2-z
1/2-x,1/2+y,1/2+z
1/2+x,-y,1/2+z
loop_
_atom_site_type_symbol
_atom_site_label
_atom_site_fract_x
_atom_site_fract_y
_atom_site_fract_z
Si Si1 0.373858 0.576663 0.708008
Si Si2 0.882859 0.676887 0.541365
Si Si3 0.598054 0.176362 0.696326
Si Si4 0.272392 0.138245 0.527074
Si Si5 0.250000 0.023173 0.750000
Si Si6 0.500000 0.920531 0.493004
O O1 0.323287 0.625307 0.613015
O O2 0.320513 0.519738 0.756137
O O3 0.438252 0.551929 0.607971
O O4 0.403308 0.619742 0.844836
O O5 0.902928 0.750000 0.594362
O O6 0.911227 0.667552 0.373384
O O7 0.798454 0.672751 0.522994
O O8 0.574894 0.250000 0.654393
O O9 0.679873 0.172756 0.652067
O O10 0.559857 0.119556 0.605171
O O11 0.253006 0.068826 0.603307
#
# Coordination Sequence:
#
# PCOD9539489 Si02
#       6
#    16  16  16  16   8   8
#     4  11  25  41  67 105 139 185 236 295 370 419
#     4  11  22  39  66 103 137 172 229 298 361 424
#     4  10  21  39  65  94 133 184 234 285 357 437
#     4  11  21  39  67 100 135 180 226 294 350 422
#     4  12  22  42  72 100 136 188 246 286 344 430
#     4  10  25  46  63  97 143 190 240 290 357 435
#
# _framework density 23.115144000000001
#
# number of rings (size 3 to 8) (size 9 to 14) (size 15 to 20)
#    0.000    1.200    4.000    1.500    0.000    8.000 
#    0.000    9.000    0.000    1.200    0.000    0.000 
#    0.000    0.000    0.000    0.000    0.000    0.000 
#
# Total GULP energy -222831.796892 kJ/mol
# GULP energy per Si atom -5570.794922 kJ/mol
# Density = 2.306253 g / cm^3
# Si number density = 23.115144 Si / 1000 Ang^3
#
#
#
# Elastic Constant Matrix: (Units=GPa)
#
#
# Indices 1 2 3 4 5 6 
#
# 1 116.5989 13.6642 9.8596 0.0000 0.0000 0.0000
# 2 13.6642 99.3083 41.5236 0.0000 0.0000 0.0000
# 3 9.8596 41.5236 75.5327 0.0000 0.0000 0.0000
# 4 0.0000 0.0000 0.0000 30.2938 0.0000 0.0000
# 5 0.0000 0.0000 0.0000 0.0000 137.0789 0.0000
# 6 0.0000 0.0000 0.0000 0.0000 0.0000 -26.6154
#
#
#
# Elastic Compliance Matrix: (Units=1/GPa)
#
#
# Indices 1 2 3 4 5 6 
#
# 1 0.008739 -0.000942 -0.000623 0.000000 0.000000 0.000000
# 2 -0.000942 0.013177 -0.007121 0.000000 0.000000 0.000000
# 3 -0.000623 -0.007121 0.017235 0.000000 0.000000 0.000000
# 4 0.000000 0.000000 0.000000 0.033010 0.000000 0.000000
# 5 0.000000 0.000000 0.000000 0.000000 0.007295 0.000000
# 6 0.000000 0.000000 0.000000 0.000000 0.000000 -0.037572
#
#
# Mechanical properties :
#
#
# Convention : Reuss Voigt Hill
#
# Bulk Modulus (GPa) = 45.91403 46.83718 46.37561
# Shear Modulus (GPa) = 75.17006 43.24431 59.20718
#
# Velocity S-wave (km/s) = 5.70880 4.32999 5.06652
# Velocity P-wave (km/s) = 7.95991 6.73090 7.37106
#
# Compressibility (1/GPa) = 0.02177983
#
# Stress axis : x y z
#
# Youngs Moduli (GPa) = 114.42327 75.89153 58.02067
#
# Poissons Ratio (x) = 0.07149 0.03614
# Poissons Ratio (y) = 0.10779 0.41316
# Poissons Ratio (z) = 0.07128 0.54041
#
# Static dielectric constant tensor:
#      x y z
#    x 1.217740 0.000000 0.000000 
#    y 0.000000 1.932370 0.000000 
#    z 0.000000 0.000000 1.870800 
# 
# From -- ./inp_files/13671.got.cif
#   From: 2010.05.17/outbox.cif.g08.bks.cpg/sg74_7_cif.got.tgz:13671.got - 2010.06.03 17:57:02.
