data_PCOD9539884
_publ_section_title
;
Structure prediction by ZEFSAII (Michael W. Deem and Ramdas Pophale) SiO2 
 PCOD9539884
Probable space group: I M M A
;
_chemical_formula_sum "Si O2"
_cell_formula_units_Z 68
_cell_length_a 13.958259
_cell_length_b 19.741540
_cell_length_c 10.670603
_cell_angle_alpha 90.000000
_cell_angle_beta 90.000000
_cell_angle_gamma 90.000000
_cell_volume 2940.364989
_symmetry_space_group_name_H-M "I M M A"
_symmetry_group_IT_number 74
_symmetry_cell_setting 'orthorhombic'
loop_
_space_group_symop_operation_xyz
x,y,z
-x,1/2-y,z
x,-y,-z
-x,1/2+y,-z
-x,-y,-z
x,1/2+y,-z
-x,y,z
x,1/2-y,z
1/2+x,1/2+y,1/2+z
1/2-x,-y,1/2+z
1/2+x,1/2-y,1/2-z
1/2-x,y,1/2-z
1/2-x,1/2-y,1/2-z
1/2+x,y,1/2-z
1/2-x,1/2+y,1/2+z
1/2+x,-y,1/2+z
loop_
_atom_site_type_symbol
_atom_site_label
_atom_site_fract_x
_atom_site_fract_y
_atom_site_fract_z
Si Si1 0.851582 0.250000 0.676106
Si Si2 0.750000 0.628797 0.750000
Si Si3 0.606689 0.477072 0.135409
Si Si4 0.693589 0.750000 0.890153
Si Si5 0.000000 0.329804 0.977124
Si Si6 0.636566 0.112349 0.717477
Si Si7 0.000000 0.250000 0.221825
O O1 0.750000 0.250000 0.750000
O O2 0.834048 0.250000 0.531230
O O3 0.897907 0.178916 0.709515
O O4 0.665886 0.579821 0.793275
O O5 0.756542 0.683579 0.861643
O O6 0.500000 0.451249 0.107694
O O7 0.601617 0.542247 0.224908
O O8 0.649234 0.500000 0.000000
O O9 0.596067 0.750000 0.806665
O O10 0.091879 0.370516 0.919753
O O11 0.000000 0.250000 0.932117
O O12 0.000000 0.315063 0.126554
O O13 0.750000 0.109074 0.750000
#
# Coordination Sequence:
#
# PCOD9539884 Si02
#       7
#     8   8  16   8   8  16   4
#     4  10  22  40  74 108 135 182 242 308 348 430
#     4  11  26  48  70 101 144 200 242 295 370 436
#     4  11  24  43  69 105 148 187 241 304 367 443
#     4  11  26  47  72 103 141 192 252 293 370 441
#     4  10  22  41  64 102 147 183 236 306 361 430
#     4  11  21  39  71 105 139 186 243 302 371 427
#     4  10  26  46  70 104 152 190 232 312 362 434
#
# _framework density 23.126380000000001
#
# number of rings (size 3 to 8) (size 9 to 14) (size 15 to 20)
#    0.353    0.941    3.529    1.412    1.647   10.353 
#    0.000    0.000    0.000    2.118    0.000    0.000 
#    0.000    0.000    0.000    0.000    0.000    0.000 
#
# Total GULP energy -189610.551712 kJ/mol
# GULP energy per Si atom -5576.780933 kJ/mol
# Density = 2.307374 g / cm^3
# Si number density = 23.126380 Si / 1000 Ang^3
#
#
#
# Elastic Constant Matrix: (Units=GPa)
#
#
# Indices 1 2 3 4 5 6 
#
# 1 153.7878 31.9879 48.7169 0.0000 0.0000 0.0000
# 2 31.9879 172.7232 41.7442 0.0000 0.0000 0.0000
# 3 48.7169 41.7442 151.2857 0.0000 0.0000 -0.0002
# 4 0.0000 0.0000 0.0000 5.0132 0.0000 0.0000
# 5 0.0000 0.0000 0.0000 0.0000 25.7343 0.0000
# 6 0.0000 0.0000 -0.0002 0.0000 0.0000 199.5725
#
#
#
# Elastic Compliance Matrix: (Units=1/GPa)
#
#
# Indices 1 2 3 4 5 6 
#
# 1 0.007355 -0.000846 -0.002135 0.000000 0.000000 0.000000
# 2 -0.000846 0.006301 -0.001466 0.000000 0.000000 0.000000
# 3 -0.002135 -0.001466 0.007702 0.000000 0.000000 0.000000
# 4 0.000000 0.000000 0.000000 0.199475 0.000000 0.000000
# 5 0.000000 0.000000 0.000000 0.000000 0.038859 0.000000
# 6 0.000000 0.000000 0.000000 0.000000 0.000000 0.005011
#
#
# Mechanical properties :
#
#
# Convention : Reuss Voigt Hill
#
# Bulk Modulus (GPa) = 80.23596 80.29941 80.26769
# Shear Modulus (GPa) = 18.00176 69.75383 43.87780
#
# Velocity S-wave (km/s) = 2.79302 5.49795 4.36053
# Velocity P-wave (km/s) = 6.72095 8.66607 7.75474
#
# Compressibility (1/GPa) = 0.01246324
#
# Stress axis : x y z
#
# Youngs Moduli (GPa) = 135.96654 158.71430 129.83605
#
# Poissons Ratio (x) = 0.13429 0.27719
# Poissons Ratio (y) = 0.11504 0.19035
# Poissons Ratio (z) = 0.29028 0.23269
#
# Static dielectric constant tensor:
#      x y z
#    x 2.028370 0.000000 0.000000 
#    y 0.000000 1.836960 0.000000 
#    z 0.000000 0.000000 2.490900 
# 
# From -- ./inp_files/20291.got.cif
#   From: 2010.05.17/outbox.cif.g08.bks.cpg/sg74_11_cif.got.tgz:20291.got - 2010.06.03 17:57:02.
