data_PCOD9539037
_publ_section_title
;
Structure prediction by ZEFSAII (Michael W. Deem and Ramdas Pophale) SiO2 
 PCOD9539037
Probable space group: I M M A
;
_chemical_formula_sum "Si O2"
_cell_formula_units_Z 92
_cell_length_a 22.403806
_cell_length_b 16.178377
_cell_length_c 12.831150
_cell_angle_alpha 90.000000
_cell_angle_beta 90.000000
_cell_angle_gamma 90.000000
_cell_volume 4650.742955
_symmetry_space_group_name_H-M "I M M A"
_symmetry_group_IT_number 74
_symmetry_cell_setting 'orthorhombic'
loop_
_space_group_symop_operation_xyz
x,y,z
-x,1/2-y,z
x,-y,-z
-x,1/2+y,-z
-x,-y,-z
x,1/2+y,-z
-x,y,z
x,1/2-y,z
1/2+x,1/2+y,1/2+z
1/2-x,-y,1/2+z
1/2+x,1/2-y,1/2-z
1/2-x,y,1/2-z
1/2-x,1/2-y,1/2-z
1/2+x,y,1/2-z
1/2-x,1/2+y,1/2+z
1/2+x,-y,1/2+z
loop_
_atom_site_type_symbol
_atom_site_label
_atom_site_fract_x
_atom_site_fract_y
_atom_site_fract_z
Si Si1 0.000000 0.086497 0.935453
Si Si2 0.746284 0.345795 0.624864
Si Si3 0.116161 0.250000 0.220005
Si Si4 0.643406 0.091576 0.004081
Si Si5 0.928983 0.750000 0.538901
Si Si6 0.679723 0.914533 0.756623
Si Si7 0.370483 0.051792 0.607525
Si Si8 0.500000 0.250000 0.423849
O O1 0.062932 0.086228 0.875294
O O2 0.000000 0.166421 0.008977
O O3 0.000000 0.000000 0.000000
O O4 0.753434 0.250000 0.592961
O O5 0.750000 0.350599 0.750000
O O6 0.799367 0.397910 0.571370
O O7 0.681344 0.380480 0.595953
O O8 0.091616 0.250000 0.339338
O O9 0.155990 0.331089 0.202801
O O10 0.059007 0.250000 0.146451
O O11 0.598872 0.167802 0.987425
O O12 0.665660 0.096885 0.122468
O O13 0.616082 0.000000 0.000000
O O14 0.000000 0.750000 0.534031
O O15 0.750000 0.925713 0.750000
O O16 0.647480 0.991045 0.701424
O O17 0.370539 0.000000 0.500000
#
# Coordination Sequence:
#
# PCOD9539037 Si02
#       8
#     8  16   8  16   8  16  16   4
#     4  10  24  40  60  94 132 173 231 270 325 417
#     4  11  23  40  67  91 126 171 214 270 340 401
#     4  10  21  36  61  91 128 171 213 279 355 400
#     4  11  22  40  66  95 126 166 225 274 331 410
#     4  10  22  41  60  90 132 163 215 279 334 402
#     4  11  22  38  62  97 133 166 220 285 339 398
#     4  11  22  41  61  91 131 173 217 272 326 399
#     4  12  22  40  66  92 128 190 230 276 348 416
#
# _framework density 19.781784999999999
#
# number of rings (size 3 to 8) (size 9 to 14) (size 15 to 20)
#    0.000    1.217    1.304    6.522    1.217    0.348 
#    6.261    0.000    5.739    0.000    0.000    0.000 
#    0.000    0.000    0.000    0.000    0.000    0.000 
#
# Total GULP energy -257065.573670 kJ/mol
# GULP energy per Si atom -5588.382036 kJ/mol
# Density = 1.973676 g / cm^3
# Si number density = 19.781785 Si / 1000 Ang^3
#
#
#
# Elastic Constant Matrix: (Units=GPa)
#
#
# Indices 1 2 3 4 5 6 
#
# 1 149.7543 49.5749 27.3799 0.0000 0.0000 0.0000
# 2 49.5749 135.9508 16.2272 0.0000 0.0000 0.0000
# 3 27.3799 16.2272 55.1104 0.0000 0.0000 0.0000
# 4 0.0000 0.0000 0.0000 30.5303 0.0000 0.0000
# 5 0.0000 0.0000 0.0000 0.0000 21.2735 0.0000
# 6 0.0000 0.0000 0.0000 0.0000 0.0000 36.9224
#
#
#
# Elastic Compliance Matrix: (Units=1/GPa)
#
#
# Indices 1 2 3 4 5 6 
#
# 1 0.008129 -0.002573 -0.003281 0.000000 0.000000 0.000000
# 2 -0.002573 0.008438 -0.001206 0.000000 0.000000 0.000000
# 3 -0.003281 -0.001206 0.020131 0.000000 0.000000 0.000000
# 4 0.000000 0.000000 0.000000 0.032754 0.000000 0.000000
# 5 0.000000 0.000000 0.000000 0.000000 0.047007 0.000000
# 6 0.000000 0.000000 0.000000 0.000000 0.000000 0.027084
#
#
# Mechanical properties :
#
#
# Convention : Reuss Voigt Hill
#
# Bulk Modulus (GPa) = 44.29239 58.57551 51.43395
# Shear Modulus (GPa) = 30.26838 34.25414 32.26126
#
# Velocity S-wave (km/s) = 3.91591 4.16576 4.04277
# Velocity P-wave (km/s) = 6.54866 7.26727 6.91730
#
# Compressibility (1/GPa) = 0.02257724
#
# Stress axis : x y z
#
# Youngs Moduli (GPa) = 123.01359 118.51532 49.67520
#
# Poissons Ratio (x) = 0.30490 0.16299
# Poissons Ratio (y) = 0.31648 0.05992
# Poissons Ratio (z) = 0.40363 0.14297
#
# Static dielectric constant tensor:
#      x y z
#    x 1.660770 0.000000 0.000000 
#    y 0.000000 1.713750 0.000000 
#    z 0.000000 0.000000 1.671540 
# 
# From -- ./inp_files/23758.got.cif
#   From: 2010.05.17/outbox.cif.g08.bks.cpg/sg74_12_cif.got.tgz:23758.got - 2010.06.03 17:57:02.
