data_PCOD9539911
_publ_section_title
;
Structure prediction by ZEFSAII (Michael W. Deem and Ramdas Pophale) SiO2 
 PCOD9539911
Probable space group: I M M A
;
_chemical_formula_sum "Si O2"
_cell_formula_units_Z 64
_cell_length_a 23.305880
_cell_length_b 14.400019
_cell_length_c 8.531461
_cell_angle_alpha 90.000000
_cell_angle_beta 90.000000
_cell_angle_gamma 90.000000
_cell_volume 2863.201948
_symmetry_space_group_name_H-M "I M M A"
_symmetry_group_IT_number 74
_symmetry_cell_setting 'orthorhombic'
loop_
_space_group_symop_operation_xyz
x,y,z
-x,1/2-y,z
x,-y,-z
-x,1/2+y,-z
-x,-y,-z
x,1/2+y,-z
-x,y,z
x,1/2-y,z
1/2+x,1/2+y,1/2+z
1/2-x,-y,1/2+z
1/2+x,1/2-y,1/2-z
1/2-x,y,1/2-z
1/2-x,1/2-y,1/2-z
1/2+x,y,1/2-z
1/2-x,1/2+y,1/2+z
1/2+x,-y,1/2+z
loop_
_atom_site_type_symbol
_atom_site_label
_atom_site_fract_x
_atom_site_fract_y
_atom_site_fract_z
Si Si1 0.121556 0.030446 0.843528
Si Si2 0.265454 0.397093 0.567707
Si Si3 0.332470 0.148876 0.168473
Si Si4 0.564432 0.355298 0.921716
O O1 0.165978 0.107328 0.911745
O O2 0.082700 0.072190 0.709687
O O3 0.159897 0.945168 0.770427
O O4 0.088878 0.000000 0.000000
O O5 0.254655 0.500000 0.500000
O O6 0.250000 0.381431 0.750000
O O7 0.223938 0.347225 0.443371
O O8 0.335020 0.250000 0.251246
O O9 0.387474 0.142031 0.054863
O O10 0.500000 0.373005 0.980384
O O11 0.565650 0.250000 0.857174
#
# Coordination Sequence:
#
# PCOD9539911 Si02
#       4
#    16  16  16  16
#     4  11  24  39  63  89 127 165 202 249 307 364
#     4  11  19  36  60  87 121 160 200 244 298 358
#     4  11  23  40  62  92 124 161 207 251 300 365
#     4  10  22  41  65  91 119 157 208 259 307 362
#
# _framework density 22.352598
#
# number of rings (size 3 to 8) (size 9 to 14) (size 15 to 20)
#    0.000    1.250    5.000    0.750    0.000    5.000 
#    0.000    8.750    0.000    4.500    0.000    0.000 
#    0.000    0.000    0.000    0.000    0.000    0.000 
#
# Total GULP energy -178206.909150 kJ/mol
# GULP energy per Si atom -5568.965911 kJ/mol
# Density = 2.230172 g / cm^3
# Si number density = 22.352598 Si / 1000 Ang^3
#
#
#
# Elastic Constant Matrix: (Units=GPa)
#
#
# Indices 1 2 3 4 5 6 
#
# 1 83.1955 34.9097 13.2344 0.0000 0.0000 0.0000
# 2 34.9097 86.7866 27.0462 0.0000 0.0000 0.0000
# 3 13.2344 27.0462 89.7284 0.0000 0.0000 0.0000
# 4 0.0000 0.0000 0.0000 9.7563 0.0000 0.0000
# 5 0.0000 0.0000 0.0000 0.0000 -10.2248 0.0000
# 6 0.0000 0.0000 0.0000 0.0000 0.0000 25.4809
#
#
#
# Elastic Compliance Matrix: (Units=1/GPa)
#
#
# Indices 1 2 3 4 5 6 
#
# 1 0.014475 -0.005692 -0.000419 0.000000 0.000000 0.000000
# 2 -0.005692 0.014955 -0.003668 0.000000 0.000000 0.000000
# 3 -0.000419 -0.003668 0.012312 0.000000 0.000000 0.000000
# 4 0.000000 0.000000 0.000000 0.102497 0.000000 0.000000
# 5 0.000000 0.000000 0.000000 0.000000 -0.097802 0.000000
# 6 0.000000 0.000000 0.000000 0.000000 0.000000 0.039245
#
#
# Mechanical properties :
#
#
# Convention : Reuss Voigt Hill
#
# Bulk Modulus (GPa) = 45.07854 45.56569 45.32212
# Shear Modulus (GPa) = 44.39041 17.30383 30.84712
#
# Velocity S-wave (km/s) = 4.46120 2.78534 3.71890
# Velocity P-wave (km/s) = 6.83719 5.54737 6.22578
#
# Compressibility (1/GPa) = 0.02218350
#
# Stress axis : x y z
#
# Youngs Moduli (GPa) = 69.08496 66.86614 81.21949
#
# Poissons Ratio (x) = 0.38059 0.03406
# Poissons Ratio (y) = 0.39322 0.29794
# Poissons Ratio (z) = 0.02897 0.24529
#
# Static dielectric constant tensor:
#      x y z
#    x 1.831280 0.000000 0.000000 
#    y 0.000000 1.948280 0.000000 
#    z 0.000000 0.000000 1.867450 
# 
# From -- ./inp_files/8795.got.cif
#   From: 2010.05.17/outbox.cif.g08.bks.cpg/sg74_5_cif.got.tgz:8795.got - 2010.06.03 17:57:02.
