data_PCOD9539993
_publ_section_title
;
Structure prediction by ZEFSAII (Michael W. Deem and Ramdas Pophale) SiO2 
 PCOD9539993
Probable space group: I M M A
;
_chemical_formula_sum "Si O2"
_cell_formula_units_Z 60
_cell_length_a 19.834353
_cell_length_b 7.635629
_cell_length_c 16.636036
_cell_angle_alpha 90.000000
_cell_angle_beta 90.000000
_cell_angle_gamma 90.000000
_cell_volume 2519.490404
_symmetry_space_group_name_H-M "I M M A"
_symmetry_group_IT_number 74
_symmetry_cell_setting 'orthorhombic'
loop_
_space_group_symop_operation_xyz
x,y,z
-x,1/2-y,z
x,-y,-z
-x,1/2+y,-z
-x,-y,-z
x,1/2+y,-z
-x,y,z
x,1/2-y,z
1/2+x,1/2+y,1/2+z
1/2-x,-y,1/2+z
1/2+x,1/2-y,1/2-z
1/2-x,y,1/2-z
1/2-x,1/2-y,1/2-z
1/2+x,y,1/2-z
1/2-x,1/2+y,1/2+z
1/2+x,-y,1/2+z
loop_
_atom_site_type_symbol
_atom_site_label
_atom_site_fract_x
_atom_site_fract_y
_atom_site_fract_z
Si Si1 0.000000 0.040117 0.406682
Si Si2 0.265200 0.957186 0.088450
Si Si3 0.000000 0.250000 0.078416
Si Si4 0.879929 0.046873 0.295268
Si Si5 0.388522 0.548562 0.386109
O O1 0.065863 0.977036 0.359396
O O2 0.000000 0.250000 0.401074
O O3 0.000000 0.000000 0.500000
O O4 0.267336 0.750000 0.100166
O O5 0.186989 0.008836 0.089952
O O6 0.308327 0.037398 0.160431
O O7 0.293662 0.000000 0.000000
O O8 0.941698 0.406152 0.085074
O O9 0.895660 0.250000 0.277494
O O10 0.886586 0.951171 0.211060
O O11 0.402675 0.750000 0.412731
#
# Coordination Sequence:
#
# PCOD9539993 Si02
#       5
#     8  16   4  16  16
#     4  10  23  38  56  92 135 173 222 267 327 403
#     4  11  25  43  67  98 136 178 232 287 347 409
#     4  12  24  44  72  98 132 180 220 286 352 402
#     4  11  22  39  68  99 135 183 227 276 340 411
#     4  11  25  44  70 102 137 175 233 287 344 415
#
# _framework density 23.814339
#
# number of rings (size 3 to 8) (size 9 to 14) (size 15 to 20)
#    0.000    1.067    1.333    4.400    5.600    7.467 
#    0.000    0.667    0.000    0.000    0.000    0.000 
#    0.000    0.000    0.000    0.000    0.000    0.000 
#
# Total GULP energy -167554.234578 kJ/mol
# GULP energy per Si atom -5585.141153 kJ/mol
# Density = 2.376014 g / cm^3
# Si number density = 23.814339 Si / 1000 Ang^3
#
#
#
# Elastic Constant Matrix: (Units=GPa)
#
#
# Indices 1 2 3 4 5 6 
#
# 1 120.1750 55.8558 31.9367 0.0000 0.0000 0.0000
# 2 55.8558 110.1960 17.3905 0.0000 0.0000 0.0000
# 3 31.9367 17.3905 151.3551 0.0000 0.0000 0.0000
# 4 0.0000 0.0000 0.0000 32.3502 0.0000 0.0000
# 5 0.0000 0.0000 0.0000 0.0000 24.6865 0.0000
# 6 0.0000 0.0000 0.0000 0.0000 0.0000 56.1244
#
#
#
# Elastic Compliance Matrix: (Units=1/GPa)
#
#
# Indices 1 2 3 4 5 6 
#
# 1 0.011329 -0.005464 -0.001763 0.000000 0.000000 0.000000
# 2 -0.005464 0.011878 -0.000212 0.000000 0.000000 0.000000
# 3 -0.001763 -0.000212 0.007003 0.000000 0.000000 0.000000
# 4 0.000000 0.000000 0.000000 0.030912 0.000000 0.000000
# 5 0.000000 0.000000 0.000000 0.000000 0.040508 0.000000
# 6 0.000000 0.000000 0.000000 0.000000 0.000000 0.017818
#
#
# Mechanical properties :
#
#
# Convention : Reuss Voigt Hill
#
# Bulk Modulus (GPa) = 65.21943 65.78802 65.50372
# Shear Modulus (GPa) = 35.85858 41.06842 38.46350
#
# Velocity S-wave (km/s) = 3.88462 4.15724 4.02324
# Velocity P-wave (km/s) = 6.89684 7.12242 7.01054
#
# Compressibility (1/GPa) = 0.01533285
#
# Stress axis : x y z
#
# Youngs Moduli (GPa) = 88.26556 84.18956 142.79088
#
# Poissons Ratio (x) = 0.46005 0.25170
# Poissons Ratio (y) = 0.48232 0.03023
# Poissons Ratio (z) = 0.15559 0.01783
#
# Static dielectric constant tensor:
#      x y z
#    x 1.898340 0.000000 0.000000 
#    y 0.000000 1.869190 0.000000 
#    z 0.000000 0.000000 1.915630 
# 
# From -- ./inp_files/43536.got.cif
#   From: 2010.05.17/outbox.cif.g08.bks.cpg/sg74_22_cif.got.tgz:43536.got - 2010.06.03 17:57:02.
