data_PCOD9539317
_publ_section_title
;
Structure prediction by ZEFSAII (Michael W. Deem and Ramdas Pophale) SiO2 
 PCOD9539317
Probable space group: I M M A
;
_chemical_formula_sum "Si O2"
_cell_formula_units_Z 116
_cell_length_a 30.810283
_cell_length_b 16.143452
_cell_length_c 12.113126
_cell_angle_alpha 90.000000
_cell_angle_beta 90.000000
_cell_angle_gamma 90.000000
_cell_volume 6024.878996
_symmetry_space_group_name_H-M "I M M A"
_symmetry_group_IT_number 74
_symmetry_cell_setting 'orthorhombic'
loop_
_space_group_symop_operation_xyz
x,y,z
-x,1/2-y,z
x,-y,-z
-x,1/2+y,-z
-x,-y,-z
x,1/2+y,-z
-x,y,z
x,1/2-y,z
1/2+x,1/2+y,1/2+z
1/2-x,-y,1/2+z
1/2+x,1/2-y,1/2-z
1/2-x,y,1/2-z
1/2-x,1/2-y,1/2-z
1/2+x,y,1/2-z
1/2-x,1/2+y,1/2+z
1/2+x,-y,1/2+z
loop_
_atom_site_type_symbol
_atom_site_label
_atom_site_fract_x
_atom_site_fract_y
_atom_site_fract_z
Si Si1 0.303748 0.090992 0.049077
Si Si2 0.204967 0.912431 0.937784
Si Si3 0.547222 0.582564 0.664992
Si Si4 0.153070 0.344862 0.878514
Si Si5 0.000000 0.750000 0.162184
Si Si6 0.138977 0.850439 0.751110
Si Si7 0.060407 0.895788 0.087368
Si Si8 0.207387 0.652615 0.308409
O O1 0.255000 0.091026 0.100173
O O2 0.339530 0.123766 0.133943
O O3 0.298076 0.142894 0.937117
O O4 0.313437 0.000000 0.000000
O O5 0.171052 0.891541 0.842006
O O6 0.193139 0.849528 0.037053
O O7 0.198855 0.000000 0.000000
O O8 0.500000 0.602345 0.716767
O O9 0.590005 0.616239 0.727028
O O10 0.549448 0.484061 0.641116
O O11 0.546561 0.616972 0.539657
O O12 0.139188 0.250000 0.869059
O O13 0.112172 0.393609 0.921148
O O14 0.167309 0.381735 0.761399
O O15 0.962193 0.676965 0.154985
O O16 0.139479 0.750000 0.762580
O O17 0.207681 0.750000 0.282171
O O18 0.250000 0.615158 0.250000
#
# Coordination Sequence:
#
# PCOD9539317 Si02
#       8
#    16  16  16  16   4  16  16  16
#     4  11  26  42  63  89 127 174 224 273 326 389
#     4  11  23  39  61  90 134 172 211 267 326 396
#     4  11  23  40  60  91 131 177 210 273 337 402
#     4  11  21  33  58  92 120 162 208 260 316 386
#     4  12  20  34  64  92 132 174 206 268 340 408
#     4  12  27  42  65  98 134 180 227 278 336 394
#     4  11  21  36  58  93 134 165 213 265 335 407
#     4  10  21  38  61  85 118 163 213 260 313 379
#
# _framework density 19.253498
#
# number of rings (size 3 to 8) (size 9 to 14) (size 15 to 20)
#    0.000    0.966    4.828    2.483    4.828    2.483 
#    0.000    0.000    0.000    0.414    1.793    0.000 
#    0.000    0.000    0.000    0.000    0.000    0.000 
#
# Total GULP energy -322974.603204 kJ/mol
# GULP energy per Si atom -5568.527641 kJ/mol
# Density = 1.920968 g / cm^3
# Si number density = 19.253498 Si / 1000 Ang^3
#
#
#
# Elastic Constant Matrix: (Units=GPa)
#
#
# Indices 1 2 3 4 5 6 
#
# 1 156.7873 40.8441 59.7327 0.0000 0.0000 0.0000
# 2 40.8441 51.1556 9.6951 0.0000 0.0000 0.0000
# 3 59.7327 9.6951 89.8972 0.0000 0.0000 0.0000
# 4 0.0000 0.0000 0.0000 19.3012 0.0000 0.0000
# 5 0.0000 0.0000 0.0000 0.0000 16.7651 0.0000
# 6 0.0000 0.0000 0.0000 0.0000 0.0000 34.8283
#
#
#
# Elastic Compliance Matrix: (Units=1/GPa)
#
#
# Indices 1 2 3 4 5 6 
#
# 1 0.010698 -0.007344 -0.006316 0.000000 0.000000 0.000000
# 2 -0.007344 0.024998 0.002184 0.000000 0.000000 0.000000
# 3 -0.006316 0.002184 0.015085 0.000000 0.000000 0.000000
# 4 0.000000 0.000000 0.000000 0.051810 0.000000 0.000000
# 5 0.000000 0.000000 0.000000 0.000000 0.059648 0.000000
# 6 0.000000 0.000000 0.000000 0.000000 0.000000 0.028712
#
#
# Mechanical properties :
#
#
# Convention : Reuss Voigt Hill
#
# Bulk Modulus (GPa) = 35.93487 57.59821 46.76654
# Shear Modulus (GPa) = 22.40351 26.68347 24.54349
#
# Velocity S-wave (km/s) = 3.41487 3.72681 3.57424
# Velocity P-wave (km/s) = 5.85261 6.96416 6.43244
#
# Compressibility (1/GPa) = 0.02782812
#
# Stress axis : x y z
#
# Youngs Moduli (GPa) = 93.47946 40.00300 66.29113
#
# Poissons Ratio (x) = 0.29379 0.41869
# Poissons Ratio (y) = 0.68653 -0.14478
# Poissons Ratio (z) = 0.59042 -0.08736
#
# Static dielectric constant tensor:
#      x y z
#    x 1.752410 0.000000 0.000000 
#    y 0.000000 0.045760 0.000000 
#    z 0.000000 0.000000 1.693710 
# 
# From -- ./inp_files/27364.got.cif
#   From: 2010.05.17/outbox.cif.g08.bks.cpg/sg74_14_cif.got.tgz:27364.got - 2010.06.03 17:57:02.
