data_PCOD9539892
_publ_section_title
;
Structure prediction by ZEFSAII (Michael W. Deem and Ramdas Pophale) SiO2 
 PCOD9539892
Probable space group: I M M A
;
_chemical_formula_sum "Si O2"
_cell_formula_units_Z 96
_cell_length_a 8.292412
_cell_length_b 20.891717
_cell_length_c 29.449855
_cell_angle_alpha 90.000000
_cell_angle_beta 90.000000
_cell_angle_gamma 90.000000
_cell_volume 5101.973124
_symmetry_space_group_name_H-M "I M M A"
_symmetry_group_IT_number 74
_symmetry_cell_setting 'orthorhombic'
loop_
_space_group_symop_operation_xyz
x,y,z
-x,1/2-y,z
x,-y,-z
-x,1/2+y,-z
-x,-y,-z
x,1/2+y,-z
-x,y,z
x,1/2-y,z
1/2+x,1/2+y,1/2+z
1/2-x,-y,1/2+z
1/2+x,1/2-y,1/2-z
1/2-x,y,1/2-z
1/2-x,1/2-y,1/2-z
1/2+x,y,1/2-z
1/2-x,1/2+y,1/2+z
1/2+x,-y,1/2+z
loop_
_atom_site_type_symbol
_atom_site_label
_atom_site_fract_x
_atom_site_fract_y
_atom_site_fract_z
Si Si1 0.691197 0.585778 0.698364
Si Si2 0.689000 0.948470 0.440487
Si Si3 0.810278 0.950902 0.340128
Si Si4 0.308844 0.587547 0.966714
Si Si5 0.304360 0.324739 0.384958
Si Si6 0.305041 0.181934 0.801714
O O1 0.500000 0.592725 0.699481
O O2 0.750000 0.595566 0.750000
O O3 0.732255 0.514487 0.680718
O O4 0.751826 0.635455 0.659631
O O5 0.500000 0.935704 0.434464
O O6 0.783037 0.944404 0.393568
O O7 0.759768 0.904268 0.480630
O O8 0.713867 0.022978 0.453566
O O9 0.742097 0.884641 0.320794
O O10 0.000000 0.955766 0.329925
O O11 0.500000 0.575444 0.964068
O O12 0.262053 0.641829 0.930603
O O13 0.500000 0.328586 0.386653
O O14 0.259446 0.250000 0.382183
O O15 0.500000 0.180075 0.804274
O O16 0.252997 0.250000 0.823167
O O17 0.250000 0.183769 0.750000
#
# Coordination Sequence:
#
# PCOD9539892 Si02
#       6
#    16  16  16  16  16  16
#     4  11  23  38  58  84 117 154 197 249 298 352
#     4  11  21  35  58  85 116 150 186 231 286 343
#     4  11  21  35  57  86 117 150 191 242 292 344
#     4  11  21  36  59  87 115 146 189 236 284 340
#     4  10  22  41  62  84 116 159 201 244 298 357
#     4   9  19  35  54  77 108 147 188 229 278 336
#
# _framework density 18.816248000000002
#
# number of rings (size 3 to 8) (size 9 to 14) (size 15 to 20)
#    0.000    1.500    1.667    5.500    0.000    4.000 
#    0.000    0.833    0.000    3.000    0.000    0.000 
#    0.000    0.000    0.000    0.000    0.000    0.000 
#
# Total GULP energy -267761.057728 kJ/mol
# GULP energy per Si atom -5578.355369 kJ/mol
# Density = 1.877342 g / cm^3
# Si number density = 18.816248 Si / 1000 Ang^3
#
#
#
# Elastic Constant Matrix: (Units=GPa)
#
#
# Indices 1 2 3 4 5 6 
#
# 1 27.8945 4.6123 -9.8198 0.0000 0.0000 0.0000
# 2 4.6123 130.0964 51.7373 0.0000 0.0000 0.0000
# 3 -9.8198 51.7373 86.6907 0.0000 0.0000 0.0000
# 4 0.0000 0.0000 0.0000 23.3907 0.0000 0.0000
# 5 0.0000 0.0000 0.0000 0.0000 30.6720 0.0000
# 6 0.0000 0.0000 0.0000 0.0000 0.0000 28.1309
#
#
#
# Elastic Compliance Matrix: (Units=1/GPa)
#
#
# Indices 1 2 3 4 5 6 
#
# 1 0.038946 -0.004111 0.006865 0.000000 0.000000 0.000000
# 2 -0.004111 0.010513 -0.006740 0.000000 0.000000 0.000000
# 3 0.006865 -0.006740 0.016335 0.000000 0.000000 0.000000
# 4 0.000000 0.000000 0.000000 0.042752 0.000000 0.000000
# 5 0.000000 0.000000 0.000000 0.000000 0.032603 0.000000
# 6 0.000000 0.000000 0.000000 0.000000 0.000000 0.035548
#
#
# Mechanical properties :
#
#
# Convention : Reuss Voigt Hill
#
# Bulk Modulus (GPa) = 17.29433 37.52679 27.41056
# Shear Modulus (GPa) = 24.51683 29.64886 27.08285
#
# Velocity S-wave (km/s) = 3.61357 3.97382 3.79797
# Velocity P-wave (km/s) = 5.15962 6.40641 5.81652
#
# Compressibility (1/GPa) = 0.05782242
#
# Stress axis : x y z
#
# Youngs Moduli (GPa) = 25.67673 95.12427 61.21799
#
# Poissons Ratio (x) = 0.39103 -0.42025
# Poissons Ratio (y) = 0.10555 0.41258
# Poissons Ratio (z) = -0.17627 0.64110
#
# Static dielectric constant tensor:
#      x y z
#    x 1.646930 0.000000 0.000000 
#    y 0.000000 1.681730 0.000000 
#    z 0.000000 0.000000 1.693380 
# 
# From -- ./inp_files/64347.got.cif
#   From: 2010.05.17/outbox.cif.g08.bks.cpg/sg74_33_cif.got.tgz:64347.got - 2010.06.03 17:57:02.
