data_PCOD9539379
_publ_section_title
;
Structure prediction by ZEFSAII (Michael W. Deem and Ramdas Pophale) SiO2 
 PCOD9539379
Probable space group: I M M A
;
_chemical_formula_sum "Si O2"
_cell_formula_units_Z 64
_cell_length_a 22.258919
_cell_length_b 16.218503
_cell_length_c 8.995443
_cell_angle_alpha 90.000000
_cell_angle_beta 90.000000
_cell_angle_gamma 90.000000
_cell_volume 3247.411995
_symmetry_space_group_name_H-M "I M M A"
_symmetry_group_IT_number 74
_symmetry_cell_setting 'orthorhombic'
loop_
_space_group_symop_operation_xyz
x,y,z
-x,1/2-y,z
x,-y,-z
-x,1/2+y,-z
-x,-y,-z
x,1/2+y,-z
-x,y,z
x,1/2-y,z
1/2+x,1/2+y,1/2+z
1/2-x,-y,1/2+z
1/2+x,1/2-y,1/2-z
1/2-x,y,1/2-z
1/2-x,1/2-y,1/2-z
1/2+x,y,1/2-z
1/2-x,1/2+y,1/2+z
1/2+x,-y,1/2+z
loop_
_atom_site_type_symbol
_atom_site_label
_atom_site_fract_x
_atom_site_fract_y
_atom_site_fract_z
Si Si1 0.000000 0.750000 0.794097
Si Si2 0.500000 0.882268 0.444104
Si Si3 0.134395 0.086625 0.862027
Si Si4 0.183570 0.914968 0.815094
Si Si5 0.633169 0.250000 0.839760
Si Si6 0.632086 0.250000 0.168522
Si Si7 0.000000 0.250000 0.687575
O O1 0.939586 0.750000 0.699031
O O2 0.000000 0.828342 0.906218
O O3 0.433869 0.921104 0.425424
O O4 0.500000 0.825964 0.298516
O O5 0.142064 0.167973 0.759736
O O6 0.150311 0.001520 0.779912
O O7 0.177415 0.093844 0.006066
O O8 0.250000 0.921151 0.750000
O O9 0.154179 0.833565 0.746747
O O10 0.563245 0.250000 0.889277
O O11 0.661408 0.250000 0.002859
#
# Coordination Sequence:
#
# PCOD9539379 Si02
#       7
#     4   8  16  16   8   8   4
#     4  11  19  36  70 104 138 160 220 284 346 406
#     4   9  16  36  70  97 124 159 221 278 327 407
#     4  10  22  42  70  95 128 176 225 275 339 401
#     4  11  25  43  62  91 128 172 227 276 319 392
#     4  10  21  38  63  92 131 167 210 261 342 399
#     4  12  24  39  63  97 133 171 209 281 340 392
#     4   7  15  32  54  90 122 158 186 248 318 398
#
# _framework density 19.708002
#
# number of rings (size 3 to 8) (size 9 to 14) (size 15 to 20)
#    0.000    1.750    2.500    2.250    0.000    8.000 
#    0.000    1.875    0.000    6.000    0.000    0.000 
#    0.000    0.000    0.000    0.000    0.000    0.000 
#
# Total GULP energy -178224.555332 kJ/mol
# GULP energy per Si atom -5569.517354 kJ/mol
# Density = 1.966315 g / cm^3
# Si number density = 19.708002 Si / 1000 Ang^3
#
#
#
# Elastic Constant Matrix: (Units=GPa)
#
#
# Indices 1 2 3 4 5 6 
#
# 1 129.2688 56.5020 36.4790 0.0000 0.0000 0.0000
# 2 56.5020 203.6266 75.9411 0.0000 0.0000 0.0000
# 3 36.4790 75.9411 106.5468 0.0000 0.0000 0.0000
# 4 0.0000 0.0000 0.0000 11.4135 0.0000 0.0000
# 5 0.0000 0.0000 0.0000 0.0000 51.9058 0.0000
# 6 0.0000 0.0000 0.0000 0.0000 0.0000 29.1080
#
#
#
# Elastic Compliance Matrix: (Units=1/GPa)
#
#
# Indices 1 2 3 4 5 6 
#
# 1 0.009045 -0.001845 -0.001782 0.000000 0.000000 0.000000
# 2 -0.001845 0.007065 -0.004404 0.000000 0.000000 0.000000
# 3 -0.001782 -0.004404 0.013134 0.000000 0.000000 0.000000
# 4 0.000000 0.000000 0.000000 0.087615 0.000000 0.000000
# 5 0.000000 0.000000 0.000000 0.000000 0.019266 0.000000
# 6 0.000000 0.000000 0.000000 0.000000 0.000000 0.034355
#
#
# Mechanical properties :
#
#
# Convention : Reuss Voigt Hill
#
# Bulk Modulus (GPa) = 75.85474 86.36514 81.10994
# Shear Modulus (GPa) = 26.18660 36.52015 31.35338
#
# Velocity S-wave (km/s) = 3.64913 4.30939 3.99293
# Velocity P-wave (km/s) = 7.50518 8.28726 7.90590
#
# Compressibility (1/GPa) = 0.01318309
#
# Stress axis : x y z
#
# Youngs Moduli (GPa) = 110.55615 141.53297 76.13538
#
# Poissons Ratio (x) = 0.26119 0.13564
# Poissons Ratio (y) = 0.20402 0.33531
# Poissons Ratio (z) = 0.19696 0.62332
#
# Static dielectric constant tensor:
#      x y z
#    x 1.740340 0.000000 0.000000 
#    y 0.000000 1.699530 0.000000 
#    z 0.000000 0.000000 1.669080 
# 
# From -- ./inp_files/10378.got.cif
#   From: 2010.05.17/outbox.cif.g08.bks.cpg/sg74_6_cif.got.tgz:10378.got - 2010.06.03 17:57:02.
