data_PCOD9539282
_publ_section_title
;
Structure prediction by ZEFSAII (Michael W. Deem and Ramdas Pophale) SiO2 
 PCOD9539282
Probable space group: I M M A
;
_chemical_formula_sum "Si O2"
_cell_formula_units_Z 56
_cell_length_a 22.761790
_cell_length_b 26.369724
_cell_length_c 5.098760
_cell_angle_alpha 90.000000
_cell_angle_beta 90.000000
_cell_angle_gamma 90.000000
_cell_volume 3060.388537
_symmetry_space_group_name_H-M "I M M A"
_symmetry_group_IT_number 74
_symmetry_cell_setting 'orthorhombic'
loop_
_space_group_symop_operation_xyz
x,y,z
-x,1/2-y,z
x,-y,-z
-x,1/2+y,-z
-x,-y,-z
x,1/2+y,-z
-x,y,z
x,1/2-y,z
1/2+x,1/2+y,1/2+z
1/2-x,-y,1/2+z
1/2+x,1/2-y,1/2-z
1/2-x,y,1/2-z
1/2-x,1/2-y,1/2-z
1/2+x,y,1/2-z
1/2-x,1/2+y,1/2+z
1/2+x,-y,1/2+z
loop_
_atom_site_type_symbol
_atom_site_label
_atom_site_fract_x
_atom_site_fract_y
_atom_site_fract_z
Si Si1 0.865385 0.402335 0.599221
Si Si2 0.250000 0.034429 0.750000
Si Si3 0.930521 0.058172 0.087465
Si Si4 0.709384 0.308793 0.007702
O O1 0.805394 0.431571 0.671434
O O2 0.895877 0.428965 0.351835
O O3 0.845563 0.345642 0.527489
O O4 0.907051 0.407102 0.851020
O O5 0.265373 0.000000 0.500000
O O6 0.000000 0.064665 0.129301
O O7 0.920311 0.000000 0.000000
O O8 0.692981 0.250000 0.052590
O O9 0.750000 0.311168 0.750000
O O10 0.750000 0.326103 0.250000
#
# Coordination Sequence:
#
# PCOD9539282 Si02
#       4
#    16   8  16  16
#     4  12  22  38  61  85 118 153 191 243 290 345
#     4  12  24  34  53  88 125 150 180 234 304 354
#     4  11  24  41  59  82 115 161 206 235 274 340
#     4  10  21  38  59  86 118 151 189 231 288 358
#
# _framework density 18.298331000000001
#
# number of rings (size 3 to 8) (size 9 to 14) (size 15 to 20)
#    0.000    0.857    1.429    7.714    2.000    2.286 
#    0.000    0.000    0.000    5.143    0.000    0.000 
#    0.000    0.000    0.000    0.000    0.000    0.000 
#
# Total GULP energy -156688.701118 kJ/mol
# GULP energy per Si atom -5596.025040 kJ/mol
# Density = 1.825668 g / cm^3
# Si number density = 18.298331 Si / 1000 Ang^3
#
#
#
# Elastic Constant Matrix: (Units=GPa)
#
#
# Indices 1 2 3 4 5 6 
#
# 1 111.9226 46.0805 45.7580 0.0000 0.0000 0.0000
# 2 46.0805 69.8439 15.9508 0.0000 0.0000 0.0000
# 3 45.7580 15.9508 129.2777 0.0000 0.0000 0.0000
# 4 0.0000 0.0000 0.0000 -35.7534 0.0000 0.0000
# 5 0.0000 0.0000 0.0000 0.0000 28.1673 0.0000
# 6 0.0000 0.0000 0.0000 0.0000 0.0000 95.4452
#
#
#
# Elastic Compliance Matrix: (Units=1/GPa)
#
#
# Indices 1 2 3 4 5 6 
#
# 1 0.013959 -0.008316 -0.003915 0.000000 0.000000 0.000000
# 2 -0.008316 0.019686 0.000514 0.000000 0.000000 0.000000
# 3 -0.003915 0.000514 0.009057 0.000000 0.000000 0.000000
# 4 0.000000 0.000000 0.000000 -0.027969 0.000000 0.000000
# 5 0.000000 0.000000 0.000000 0.000000 0.035502 0.000000
# 6 0.000000 0.000000 0.000000 0.000000 0.000000 0.010477
#
#
# Mechanical properties :
#
#
# Convention : Reuss Voigt Hill
#
# Bulk Modulus (GPa) = 51.89187 58.51363 55.20275
# Shear Modulus (GPa) = 55.20687 31.12215 43.16451
#
# Velocity S-wave (km/s) = 5.49872 4.12857 4.86215
# Velocity P-wave (km/s) = 8.29065 7.40093 7.85840
#
# Compressibility (1/GPa) = 0.01927084
#
# Stress axis : x y z
#
# Youngs Moduli (GPa) = 71.63894 50.79626 110.40617
#
# Poissons Ratio (x) = 0.42240 0.43221
# Poissons Ratio (y) = 0.59572 -0.05678
# Poissons Ratio (z) = 0.28045 -0.02612
#
# Static dielectric constant tensor:
#      x y z
#    x 1.601310 0.000000 0.000000 
#    y 0.000000 1.644720 0.000000 
#    z 0.000000 0.000000 1.606830 
# 
# From -- ./inp_files/2858.got.cif
#   From: 2010.05.17/outbox.cif.g08.bks.cpg/sg74_2_cif.got.tgz:2858.got - 2010.06.03 17:57:02.
