data_PCOD9539672
_publ_section_title
;
Structure prediction by ZEFSAII (Michael W. Deem and Ramdas Pophale) SiO2 
 PCOD9539672
Probable space group: I M M A
;
_chemical_formula_sum "Si O2"
_cell_formula_units_Z 112
_cell_length_a 14.728960
_cell_length_b 26.724694
_cell_length_c 15.130823
_cell_angle_alpha 90.000000
_cell_angle_beta 90.000000
_cell_angle_gamma 90.000000
_cell_volume 5955.899692
_symmetry_space_group_name_H-M "I M M A"
_symmetry_group_IT_number 74
_symmetry_cell_setting 'orthorhombic'
loop_
_space_group_symop_operation_xyz
x,y,z
-x,1/2-y,z
x,-y,-z
-x,1/2+y,-z
-x,-y,-z
x,1/2+y,-z
-x,y,z
x,1/2-y,z
1/2+x,1/2+y,1/2+z
1/2-x,-y,1/2+z
1/2+x,1/2-y,1/2-z
1/2-x,y,1/2-z
1/2-x,1/2-y,1/2-z
1/2+x,y,1/2-z
1/2-x,1/2+y,1/2+z
1/2+x,-y,1/2+z
loop_
_atom_site_type_symbol
_atom_site_label
_atom_site_fract_x
_atom_site_fract_y
_atom_site_fract_z
Si Si1 0.394798 0.640282 0.348519
Si Si2 0.335062 0.955317 0.451965
Si Si3 0.180718 0.471267 0.674854
Si Si4 0.230451 0.114469 0.110390
Si Si5 0.395254 0.366191 0.856064
Si Si6 0.891765 0.578599 0.725483
Si Si7 0.750810 0.691230 0.027998
O O1 0.500000 0.652501 0.357337
O O2 0.382259 0.582730 0.383120
O O3 0.369764 0.646486 0.245581
O O4 0.334806 0.675532 0.409846
O O5 0.251519 0.982880 0.403118
O O6 0.295729 0.918642 0.526019
O O7 0.389265 0.000000 0.500000
O O8 0.250000 0.452582 0.750000
O O9 0.119084 0.426121 0.641491
O O10 0.128802 0.519204 0.713212
O O11 0.157450 0.099765 0.186116
O O12 0.330616 0.102688 0.147802
O O13 0.230331 0.170052 0.070179
O O14 0.500000 0.353791 0.869862
O O15 0.332471 0.338638 0.926578
O O16 0.000000 0.587362 0.723725
O O17 0.735148 0.750000 0.028758
#
# Coordination Sequence:
#
# PCOD9539672 Si02
#       7
#    16  16  16  16  16  16  16
#     4  10  22  37  58  89 125 164 206 247 296 365
#     4  11  19  34  58  85 129 168 202 245 292 349
#     4  12  18  36  60  88 130 171 200 234 288 368
#     4  10  22  41  60  89 122 153 210 262 298 374
#     4  11  22  37  59  92 129 163 203 245 296 370
#     4  11  23  40  63  88 124 167 200 249 314 368
#     4  11  24  44  67  86 118 162 205 266 324 360
#
# _framework density 18.804883
#
# number of rings (size 3 to 8) (size 9 to 14) (size 15 to 20)
#    0.000    1.143    7.143    0.857    0.000    4.857 
#    0.000    3.571    0.000    0.857    0.000    0.000 
#    0.000    0.000    0.000    0.000    0.000    0.000 
#
# Total GULP energy -312270.080727 kJ/mol
# GULP energy per Si atom -5576.251442 kJ/mol
# Density = 1.876208 g / cm^3
# Si number density = 18.804883 Si / 1000 Ang^3
#
#
#
# Elastic Constant Matrix: (Units=GPa)
#
#
# Indices 1 2 3 4 5 6 
#
# 1 109.6472 21.0102 26.5397 0.0001 0.0000 0.0000
# 2 21.0102 102.6916 28.3939 -0.0001 0.0000 0.0000
# 3 26.5397 28.3939 50.1467 -0.0002 0.0000 0.0000
# 4 0.0001 -0.0001 -0.0002 23.0175 0.0000 0.0000
# 5 0.0000 0.0000 0.0000 0.0000 8.5778 0.0000
# 6 0.0000 0.0000 0.0000 0.0000 0.0000 4.7208
#
#
#
# Elastic Compliance Matrix: (Units=1/GPa)
#
#
# Indices 1 2 3 4 5 6 
#
# 1 0.010506 -0.000726 -0.005149 0.000000 0.000000 0.000000
# 2 -0.000726 0.011596 -0.006182 0.000000 0.000000 0.000000
# 3 -0.005149 -0.006182 0.026167 0.000000 0.000000 0.000000
# 4 0.000000 0.000000 0.000000 0.043445 0.000000 0.000000
# 5 0.000000 0.000000 0.000000 0.000000 0.116580 0.000000
# 6 0.000000 0.000000 0.000000 0.000000 0.000000 0.211829
#
#
# Mechanical properties :
#
#
# Convention : Reuss Voigt Hill
#
# Bulk Modulus (GPa) = 41.39898 46.04147 43.72022
# Shear Modulus (GPa) = 11.05495 19.69932 15.37713
#
# Velocity S-wave (km/s) = 2.42725 3.24012 2.86268
# Velocity P-wave (km/s) = 5.46975 6.20764 5.85034
#
# Compressibility (1/GPa) = 0.02415519
#
# Stress axis : x y z
#
# Youngs Moduli (GPa) = 95.18793 86.24006 38.21650
#
# Poissons Ratio (x) = 0.06258 0.19678
# Poissons Ratio (y) = 0.06908 0.23624
# Poissons Ratio (z) = 0.49013 0.53310
#
# Static dielectric constant tensor:
#      x y z
#    x 1.647070 0.000000 0.000000 
#    y 0.000000 1.679080 0.000000 
#    z 0.000000 0.000000 1.700490 
# 
# From -- ./inp_files/32955.got.cif
#   From: 2010.05.17/outbox.cif.g08.bks.cpg/sg74_17_cif.got.tgz:32955.got - 2010.06.03 17:57:02.
