data_PCOD9539387
_publ_section_title
;
Structure prediction by ZEFSAII (Michael W. Deem and Ramdas Pophale) SiO2 
 PCOD9539387
Probable space group: I M M A
;
_chemical_formula_sum "Si O2"
_cell_formula_units_Z 52
_cell_length_a 32.129617
_cell_length_b 14.885863
_cell_length_c 4.971984
_cell_angle_alpha 90.000000
_cell_angle_beta 90.000000
_cell_angle_gamma 90.000000
_cell_volume 2377.985974
_symmetry_space_group_name_H-M "I M M A"
_symmetry_group_IT_number 74
_symmetry_cell_setting 'orthorhombic'
loop_
_space_group_symop_operation_xyz
x,y,z
-x,1/2-y,z
x,-y,-z
-x,1/2+y,-z
-x,-y,-z
x,1/2+y,-z
-x,y,z
x,1/2-y,z
1/2+x,1/2+y,1/2+z
1/2-x,-y,1/2+z
1/2+x,1/2-y,1/2-z
1/2-x,y,1/2-z
1/2-x,1/2-y,1/2-z
1/2+x,y,1/2-z
1/2-x,1/2+y,1/2+z
1/2+x,-y,1/2+z
loop_
_atom_site_type_symbol
_atom_site_label
_atom_site_fract_x
_atom_site_fract_y
_atom_site_fract_z
Si Si1 0.794810 0.933644 0.747991
Si Si2 0.430970 0.400989 0.572620
Si Si3 0.500000 0.250000 0.695090
Si Si4 0.879596 0.852099 0.554493
O O1 0.750000 0.883882 0.750000
O O2 0.835203 0.875908 0.682377
O O3 0.790097 0.000000 0.500000
O O4 0.801345 0.000000 0.000000
O O5 0.447553 0.500000 0.500000
O O6 0.463989 0.329661 0.683254
O O7 0.412382 0.362754 0.295686
O O8 0.394872 0.410261 0.799462
O O9 0.878562 0.750000 0.456106
#
# Coordination Sequence:
#
# PCOD9539387 Si02
#       4
#    16  16   4  16
#     4  10  21  38  63  95 132 175 224 270 321 389
#     4  12  26  45  71  96 134 178 218 274 339 396
#     4  12  26  50  68 104 130 166 230 286 324 408
#     4  12  23  43  66  99 136 174 223 275 324 397
#
# _framework density 21.867242999999998
#
# number of rings (size 3 to 8) (size 9 to 14) (size 15 to 20)
#    0.000    0.615    3.077    6.000    0.000    3.077 
#    0.000    3.077    0.000    9.231    0.000    0.000 
#    0.000    0.000    0.000    0.000    0.000    0.000 
#
# Total GULP energy -144764.358384 kJ/mol
# GULP energy per Si atom -5567.859938 kJ/mol
# Density = 2.181747 g / cm^3
# Si number density = 21.867243 Si / 1000 Ang^3
#
#
#
# Elastic Constant Matrix: (Units=GPa)
#
#
# Indices 1 2 3 4 5 6 
#
# 1 122.1421 46.3297 5.5656 -0.0016 0.0006 -0.0003
# 2 46.3297 115.4119 0.8442 0.0013 -0.0004 -0.0007
# 3 5.5656 0.8442 111.5748 -0.0075 0.0007 0.0023
# 4 -0.0016 0.0013 -0.0075 21.2131 -0.0003 0.0005
# 5 0.0006 -0.0004 0.0007 -0.0003 -103.1523 -0.0022
# 6 -0.0003 -0.0007 0.0023 0.0005 -0.0022 9.5571
#
#
#
# Elastic Compliance Matrix: (Units=1/GPa)
#
#
# Indices 1 2 3 4 5 6 
#
# 1 0.009681 -0.003883 -0.000454 0.000001 0.000000 0.000000
# 2 -0.003883 0.010222 0.000116 -0.000001 0.000000 0.000001
# 3 -0.000454 0.000116 0.008984 0.000003 0.000000 -0.000002
# 4 0.000001 -0.000001 0.000003 0.047141 0.000000 -0.000003
# 5 0.000000 0.000000 0.000000 0.000000 -0.009694 -0.000002
# 6 0.000000 0.000001 -0.000002 -0.000003 -0.000002 0.104634
#
#
# Mechanical properties :
#
#
# Convention : Reuss Voigt Hill
#
# Bulk Modulus (GPa) = 48.90572 50.51196 49.70884
# Shear Modulus (GPa) = 26.84946 5.28286 16.06616
#
# Velocity S-wave (km/s) = 3.50786 1.55600 2.71350
# Velocity P-wave (km/s) = 6.23058 5.13592 5.70954
#
# Compressibility (1/GPa) = 0.02044751
#
# Stress axis : x y z
#
# Youngs Moduli (GPa) = 103.29910 97.82410 111.30474
#
# Poissons Ratio (x) = 0.37983 0.05048
# Poissons Ratio (y) = 0.40109 -0.01295
# Poissons Ratio (z) = 0.04685 -0.01138
#
# Static dielectric constant tensor:
#      x y z
#    x 1.904370 0.000000 0.000000 
#    y 0.000000 1.783970 0.000000 
#    z 0.000000 0.000000 1.756660 
# 
# From -- ./inp_files/1485.got.cif
#   From: 2010.05.17/outbox.cif.g08.bks.cpg/sg74_1_cif.got.tgz:1485.got - 2010.06.03 17:57:02.
