data_PCOD9539503
_publ_section_title
;
Structure prediction by ZEFSAII (Michael W. Deem and Ramdas Pophale) SiO2 
 PCOD9539503
Probable space group: I M M A
;
_chemical_formula_sum "Si O2"
_cell_formula_units_Z 64
_cell_length_a 15.742758
_cell_length_b 8.657642
_cell_length_c 20.635577
_cell_angle_alpha 90.000000
_cell_angle_beta 90.000000
_cell_angle_gamma 90.000000
_cell_volume 2812.529328
_symmetry_space_group_name_H-M "I M M A"
_symmetry_group_IT_number 74
_symmetry_cell_setting 'orthorhombic'
loop_
_space_group_symop_operation_xyz
x,y,z
-x,1/2-y,z
x,-y,-z
-x,1/2+y,-z
-x,-y,-z
x,1/2+y,-z
-x,y,z
x,1/2-y,z
1/2+x,1/2+y,1/2+z
1/2-x,-y,1/2+z
1/2+x,1/2-y,1/2-z
1/2-x,y,1/2-z
1/2-x,1/2-y,1/2-z
1/2+x,y,1/2-z
1/2-x,1/2+y,1/2+z
1/2+x,-y,1/2+z
loop_
_atom_site_type_symbol
_atom_site_label
_atom_site_fract_x
_atom_site_fract_y
_atom_site_fract_z
Si Si1 0.099061 0.074684 0.795231
Si Si2 0.312607 0.071831 0.192813
Si Si3 0.901165 0.065391 0.571189
Si Si4 0.098891 0.436180 0.934082
O O1 0.128387 0.250000 0.778541
O O2 0.137809 0.019460 0.864237
O O3 0.000000 0.092121 0.810298
O O4 0.104476 0.956336 0.736716
O O5 0.291191 0.250000 0.182680
O O6 0.250000 0.006229 0.250000
O O7 0.335743 0.992910 0.125472
O O8 0.898069 0.250000 0.569686
O O9 0.000000 0.020253 0.586161
O O10 0.881724 0.000000 0.500000
O O11 0.099808 0.250000 0.935877
O O12 0.000000 0.490533 0.935209
O O13 0.139351 0.500000 0.000000
#
# Coordination Sequence:
#
# PCOD9539503 Si02
#       4
#    16  16  16  16
#     4   9  18  33  53  77 104 138 184 235 288 349
#     4  11  24  39  55  81 118 156 195 240 293 357
#     4  10  21  39  66  97 125 156 199 253 311 369
#     4   8  14  25  42  66  96 127 162 207 255 305
#
# _framework density 22.755317000000002
#
# number of rings (size 3 to 8) (size 9 to 14) (size 15 to 20)
#    0.000    2.500    0.000    3.750    0.000    8.000 
#    0.000    3.750    0.000    3.000    0.000    0.000 
#    0.000    0.000    0.000    0.000    0.000    0.000 
#
# Total GULP energy -178216.313696 kJ/mol
# GULP energy per Si atom -5569.259803 kJ/mol
# Density = 2.270352 g / cm^3
# Si number density = 22.755317 Si / 1000 Ang^3
#
#
#
# Elastic Constant Matrix: (Units=GPa)
#
#
# Indices 1 2 3 4 5 6 
#
# 1 65.1669 16.6865 39.2470 0.0000 0.0000 0.0000
# 2 16.6865 46.8544 35.2895 0.0000 0.0000 0.0000
# 3 39.2470 35.2895 171.1766 0.0000 0.0000 0.0000
# 4 0.0000 0.0000 0.0000 38.1193 0.0000 0.0000
# 5 0.0000 0.0000 0.0000 0.0000 12.7231 0.0000
# 6 0.0000 0.0000 0.0000 0.0000 0.0000 16.7404
#
#
#
# Elastic Compliance Matrix: (Units=1/GPa)
#
#
# Indices 1 2 3 4 5 6 
#
# 1 0.018416 -0.003999 -0.003398 0.000000 0.000000 0.000000
# 2 -0.003999 0.026134 -0.004471 0.000000 0.000000 0.000000
# 3 -0.003398 -0.004471 0.007543 0.000000 0.000000 0.000000
# 4 0.000000 0.000000 0.000000 0.026233 0.000000 0.000000
# 5 0.000000 0.000000 0.000000 0.000000 0.078597 0.000000
# 6 0.000000 0.000000 0.000000 0.000000 0.000000 0.059736
#
#
# Mechanical properties :
#
#
# Convention : Reuss Voigt Hill
#
# Bulk Modulus (GPa) = 35.26503 51.73820 43.50162
# Shear Modulus (GPa) = 20.01225 26.31490 23.16357
#
# Velocity S-wave (km/s) = 2.96878 3.40432 3.19398
# Velocity P-wave (km/s) = 5.22328 6.18374 5.72369
#
# Compressibility (1/GPa) = 0.02835670
#
# Stress axis : x y z
#
# Youngs Moduli (GPa) = 54.30175 38.26379 132.57911
#
# Poissons Ratio (x) = 0.15303 0.45048
# Poissons Ratio (y) = 0.21717 0.59274
# Poissons Ratio (z) = 0.18451 0.17107
#
# Static dielectric constant tensor:
#      x y z
#    x 2.429250 0.000000 0.000000 
#    y 0.000000 1.815310 0.000000 
#    z 0.000000 0.000000 1.933000 
# 
# From -- ./inp_files/52543.got.cif
#   From: 2010.05.17/outbox.cif.g08.bks.cpg/sg74_27_cif.got.tgz:52543.got - 2010.06.03 17:57:02.
