data_PCOD9539798
_publ_section_title
;
Structure prediction by ZEFSAII (Michael W. Deem and Ramdas Pophale) SiO2 
 PCOD9539798
Probable space group: I M M A
;
_chemical_formula_sum "Si O2"
_cell_formula_units_Z 64
_cell_length_a 16.343069
_cell_length_b 17.199293
_cell_length_c 11.498780
_cell_angle_alpha 90.000000
_cell_angle_beta 90.000000
_cell_angle_gamma 90.000000
_cell_volume 3232.183242
_symmetry_space_group_name_H-M "I M M A"
_symmetry_group_IT_number 74
_symmetry_cell_setting 'orthorhombic'
loop_
_space_group_symop_operation_xyz
x,y,z
-x,1/2-y,z
x,-y,-z
-x,1/2+y,-z
-x,-y,-z
x,1/2+y,-z
-x,y,z
x,1/2-y,z
1/2+x,1/2+y,1/2+z
1/2-x,-y,1/2+z
1/2+x,1/2-y,1/2-z
1/2-x,y,1/2-z
1/2-x,1/2-y,1/2-z
1/2+x,y,1/2-z
1/2-x,1/2+y,1/2+z
1/2+x,-y,1/2+z
loop_
_atom_site_type_symbol
_atom_site_label
_atom_site_fract_x
_atom_site_fract_y
_atom_site_fract_z
Si Si1 0.000000 0.343418 0.265527
Si Si2 0.500000 0.590728 0.020808
Si Si3 0.169371 0.082069 0.167219
Si Si4 0.860622 0.660156 0.328322
Si Si5 0.182108 0.399543 0.897382
O O1 0.000000 0.360335 0.402902
O O2 0.084186 0.384276 0.219057
O O3 0.000000 0.250000 0.242374
O O4 0.500000 0.500000 0.000000
O O5 0.576755 0.612127 0.097683
O O6 0.250000 0.097954 0.250000
O O7 0.168298 0.988890 0.143018
O O8 0.174283 0.113471 0.034701
O O9 0.865459 0.750000 0.358463
O O10 0.873762 0.649542 0.190442
O O11 0.773048 0.626768 0.364445
#
# Coordination Sequence:
#
# PCOD9539798 Si02
#       5
#     8   8  16  16  16
#     4  12  28  44  62  98 138 176 228 282 338 409
#     4  12  26  41  70  95 134 175 227 280 341 414
#     4  11  23  43  68  95 136 179 229 274 341 405
#     4  11  22  40  65  98 133 169 224 288 341 395
#     4  10  22  39  67  97 129 174 229 273 336 408
#
# _framework density 19.800857000000001
#
# number of rings (size 3 to 8) (size 9 to 14) (size 15 to 20)
#    0.000    1.000    2.500    5.625    3.500    5.500 
#    0.000    0.000    0.000    0.000    0.000    0.000 
#    0.000    0.000    0.000    0.000    0.000    0.000 
#
# Total GULP energy -178511.793539 kJ/mol
# GULP energy per Si atom -5578.493548 kJ/mol
# Density = 1.975579 g / cm^3
# Si number density = 19.800857 Si / 1000 Ang^3
#
#
#
# Elastic Constant Matrix: (Units=GPa)
#
#
# Indices 1 2 3 4 5 6 
#
# 1 110.0697 55.5400 72.1379 0.0000 0.0000 0.0000
# 2 55.5400 123.0662 27.8042 0.0000 0.0000 0.0000
# 3 72.1379 27.8042 154.3809 0.0000 0.0000 0.0000
# 4 0.0000 0.0000 0.0000 26.5567 0.0000 0.0000
# 5 0.0000 0.0000 0.0000 0.0000 29.1600 0.0000
# 6 0.0000 0.0000 0.0000 0.0000 0.0000 46.1601
#
#
#
# Elastic Compliance Matrix: (Units=1/GPa)
#
#
# Indices 1 2 3 4 5 6 
#
# 1 0.016386 -0.005905 -0.006593 0.000000 0.000000 0.000000
# 2 -0.005905 0.010599 0.000851 0.000000 0.000000 0.000000
# 3 -0.006593 0.000851 0.009405 0.000000 0.000000 0.000000
# 4 0.000000 0.000000 0.000000 0.037655 0.000000 0.000000
# 5 0.000000 0.000000 0.000000 0.000000 0.034294 0.000000
# 6 0.000000 0.000000 0.000000 0.000000 0.000000 0.021664
#
#
# Mechanical properties :
#
#
# Convention : Reuss Voigt Hill
#
# Bulk Modulus (GPa) = 76.37202 77.60901 76.99052
# Shear Modulus (GPa) = 31.71323 35.84435 33.77879
#
# Velocity S-wave (km/s) = 4.00635 4.25931 4.13477
# Velocity P-wave (km/s) = 7.74951 7.96673 7.85887
#
# Compressibility (1/GPa) = 0.01309380
#
# Stress axis : x y z
#
# Youngs Moduli (GPa) = 61.02760 94.35148 106.32544
#
# Poissons Ratio (x) = 0.55719 0.70102
# Poissons Ratio (y) = 0.36040 -0.09044
# Poissons Ratio (z) = 0.40236 -0.08026
#
# Static dielectric constant tensor:
#      x y z
#    x 1.677860 0.000000 0.000000 
#    y 0.000000 1.687440 0.000000 
#    z 0.000000 0.000000 1.739510 
# 
# From -- ./inp_files/19974.got.cif
#   From: 2010.05.17/outbox.cif.g08.bks.cpg/sg74_10_cif.got.tgz:19974.got - 2010.06.03 17:57:02.
