data_PCOD9539091
_publ_section_title
;
Structure prediction by ZEFSAII (Michael W. Deem and Ramdas Pophale) SiO2 
 PCOD9539091
Probable space group: I M M A
;
_chemical_formula_sum "Si O2"
_cell_formula_units_Z 120
_cell_length_a 19.809570
_cell_length_b 22.557710
_cell_length_c 11.863116
_cell_angle_alpha 90.000000
_cell_angle_beta 90.000000
_cell_angle_gamma 90.000000
_cell_volume 5301.134640
_symmetry_space_group_name_H-M "I M M A"
_symmetry_group_IT_number 74
_symmetry_cell_setting 'orthorhombic'
loop_
_space_group_symop_operation_xyz
x,y,z
-x,1/2-y,z
x,-y,-z
-x,1/2+y,-z
-x,-y,-z
x,1/2+y,-z
-x,y,z
x,1/2-y,z
1/2+x,1/2+y,1/2+z
1/2-x,-y,1/2+z
1/2+x,1/2-y,1/2-z
1/2-x,y,1/2-z
1/2-x,1/2-y,1/2-z
1/2+x,y,1/2-z
1/2-x,1/2+y,1/2+z
1/2+x,-y,1/2+z
loop_
_atom_site_type_symbol
_atom_site_label
_atom_site_fract_x
_atom_site_fract_y
_atom_site_fract_z
Si Si1 0.686649 0.119180 0.187133
Si Si2 0.765510 0.080735 0.557823
Si Si3 0.425788 0.320333 0.049547
Si Si4 0.074836 0.532620 0.733244
Si Si5 0.921198 0.183213 0.892741
Si Si6 0.612010 0.552854 0.416628
Si Si7 0.620265 0.500000 0.000000
Si Si8 0.839649 0.818521 0.337229
O O1 0.750000 0.146788 0.250000
O O2 0.629407 0.162140 0.140721
O O3 0.642202 0.071726 0.258390
O O4 0.722389 0.092643 0.075040
O O5 0.693308 0.054355 0.584629
O O6 0.828572 0.037800 0.577896
O O7 0.777938 0.139613 0.630021
O O8 0.500000 0.344592 0.070836
O O9 0.430349 0.250000 0.047773
O O10 0.396986 0.337480 0.927502
O O11 0.084227 0.469409 0.795868
O O12 0.077393 0.531264 0.596426
O O13 0.000000 0.554819 0.767088
O O14 0.908555 0.250000 0.943804
O O15 0.909906 0.119448 0.952804
O O16 0.872477 0.178083 0.784904
O O17 0.000000 0.183892 0.858886
O O18 0.590098 0.500000 0.500000
O O19 0.821145 0.750000 0.357947
#
# Coordination Sequence:
#
# PCOD9539091 Si02
#       8
#    16  16  16  16  16  16   8  16
#     4  10  21  37  57  82 118 160 212 265 322 384
#     4  10  21  37  56  87 117 164 206 257 321 387
#     4   9  17  32  58  89 123 162 205 263 331 397
#     4  11  24  39  62  90 121 161 207 268 326 388
#     4  10  22  40  62  90 125 167 214 270 333 390
#     4  12  25  42  63  91 131 174 226 265 324 395
#     4  10  21  38  62  88 125 156 206 260 333 386
#     4   9  18  34  59  92 126 159 203 261 331 405
#
# _framework density 22.636662999999999
#
# number of rings (size 3 to 8) (size 9 to 14) (size 15 to 20)
#    0.000    1.867    0.667    3.000    1.867    5.067 
#    0.000    5.333    0.000    2.400    0.000    7.467 
#    0.000    0.000    0.000    0.133    0.000    0.267 
#
# Total GULP energy -334656.966252 kJ/mol
# GULP energy per Si atom -5577.616104 kJ/mol
# Density = 2.258514 g / cm^3
# Si number density = 22.636663 Si / 1000 Ang^3
#
#
#
# Elastic Constant Matrix: (Units=GPa)
#
#
# Indices 1 2 3 4 5 6 
#
# 1 136.8628 30.1424 32.7105 0.0000 0.0000 0.0000
# 2 30.1424 120.0088 23.9735 0.0000 0.0000 0.0000
# 3 32.7105 23.9735 40.4471 0.0000 0.0000 0.0000
# 4 0.0000 0.0000 0.0000 28.5409 0.0000 0.0000
# 5 0.0000 0.0000 0.0000 0.0000 -15.1864 0.0000
# 6 0.0000 0.0000 0.0000 0.0000 0.0000 34.2728
#
#
#
# Elastic Compliance Matrix: (Units=1/GPa)
#
#
# Indices 1 2 3 4 5 6 
#
# 1 0.009148 -0.000930 -0.006847 0.000000 0.000000 0.000000
# 2 -0.000930 0.009546 -0.004906 0.000000 0.000000 0.000000
# 3 -0.006847 -0.004906 0.033169 0.000000 0.000000 0.000000
# 4 0.000000 0.000000 0.000000 0.035037 0.000000 0.000000
# 5 0.000000 0.000000 0.000000 0.000000 -0.065849 0.000000
# 6 0.000000 0.000000 0.000000 0.000000 0.000000 0.029178
#
#
# Mechanical properties :
#
#
# Convention : Reuss Voigt Hill
#
# Bulk Modulus (GPa) = 37.74006 52.33016 45.03511
# Shear Modulus (GPa) = 59.22214 23.55828 41.39021
#
# Velocity S-wave (km/s) = 5.12043 3.22951 4.28069
# Velocity P-wave (km/s) = 7.18796 6.08884 6.66111
#
# Compressibility (1/GPa) = 0.02649704
#
# Stress axis : x y z
#
# Youngs Moduli (GPa) = 109.31586 104.75188 30.14877
#
# Poissons Ratio (x) = 0.09741 0.20643
# Poissons Ratio (y) = 0.10165 0.14792
# Poissons Ratio (z) = 0.74847 0.51394
#
# Static dielectric constant tensor:
#      x y z
#    x 1.896040 0.000000 0.000000 
#    y 0.000000 1.930890 0.000000 
#    z 0.000000 0.000000 1.868340 
# 
# From -- ./inp_files/24235.got.cif
#   From: 2010.05.17/outbox.cif.g08.bks.cpg/sg74_13_cif.got.tgz:24235.got - 2010.06.03 17:57:02.
