data_PCOD9539446
_publ_section_title
;
Structure prediction by ZEFSAII (Michael W. Deem and Ramdas Pophale) SiO2 
 PCOD9539446
Probable space group: I M M A
;
_chemical_formula_sum "Si O2"
_cell_formula_units_Z 96
_cell_length_a 19.136156
_cell_length_b 28.520971
_cell_length_c 9.239566
_cell_angle_alpha 90.000000
_cell_angle_beta 90.000000
_cell_angle_gamma 90.000000
_cell_volume 5042.786504
_symmetry_space_group_name_H-M "I M M A"
_symmetry_group_IT_number 74
_symmetry_cell_setting 'orthorhombic'
loop_
_space_group_symop_operation_xyz
x,y,z
-x,1/2-y,z
x,-y,-z
-x,1/2+y,-z
-x,-y,-z
x,1/2+y,-z
-x,y,z
x,1/2-y,z
1/2+x,1/2+y,1/2+z
1/2-x,-y,1/2+z
1/2+x,1/2-y,1/2-z
1/2-x,y,1/2-z
1/2-x,1/2-y,1/2-z
1/2+x,y,1/2-z
1/2-x,1/2+y,1/2+z
1/2+x,-y,1/2+z
loop_
_atom_site_type_symbol
_atom_site_label
_atom_site_fract_x
_atom_site_fract_y
_atom_site_fract_z
Si Si1 0.323300 0.048522 0.074075
Si Si2 0.579113 0.141125 0.453668
Si Si3 0.796302 0.636702 0.389433
Si Si4 0.654227 0.954111 0.592736
Si Si5 0.577841 0.194214 0.760518
Si Si6 0.797020 0.196685 0.108387
O O1 0.357020 0.048255 0.233670
O O2 0.238427 0.048625 0.083926
O O3 0.333387 0.093805 0.973131
O O4 0.344458 0.000000 0.000000
O O5 0.500000 0.136156 0.401540
O O6 0.615292 0.090798 0.472000
O O7 0.578449 0.169160 0.604552
O O8 0.629671 0.172278 0.354537
O O9 0.750000 0.620823 0.250000
O O10 0.857149 0.672365 0.344218
O O11 0.742347 0.664321 0.492335
O O12 0.633581 0.000000 0.500000
O O13 0.500000 0.185555 0.824110
O O14 0.585916 0.250000 0.745278
O O15 0.806295 0.250000 0.055821
O O16 0.750000 0.197440 0.250000
#
# Coordination Sequence:
#
# PCOD9539446 Si02
#       6
#    16  16  16  16  16  16
#     4  10  22  35  61  93 122 156 203 260 310 365
#     4  11  22  38  62  89 122 163 207 256 314 376
#     4  12  22  36  64  90 124 162 211 256 310 369
#     4  10  21  39  62  87 123 160 205 255 313 369
#     4  10  22  39  61  92 128 165 209 259 309 367
#     4  11  23  39  60  91 126 159 205 264 312 366
#
# _framework density 19.037092999999999
#
# number of rings (size 3 to 8) (size 9 to 14) (size 15 to 20)
#    0.000    1.333    3.333    2.000    7.000    2.000 
#    0.000    3.333    0.000    2.000    0.000    0.000 
#    0.000    0.000    0.000    0.000    0.000    0.000 
#
# Total GULP energy -267820.998995 kJ/mol
# GULP energy per Si atom -5579.604146 kJ/mol
# Density = 1.899376 g / cm^3
# Si number density = 19.037093 Si / 1000 Ang^3
#
#
#
# Elastic Constant Matrix: (Units=GPa)
#
#
# Indices 1 2 3 4 5 6 
#
# 1 91.8602 46.6629 23.0736 0.0000 0.0000 0.0000
# 2 46.6629 159.8980 49.5097 0.0000 0.0000 0.0000
# 3 23.0736 49.5097 75.3424 0.0000 0.0000 0.0000
# 4 0.0000 0.0000 0.0000 26.4226 0.0000 0.0000
# 5 0.0000 0.0000 0.0000 0.0000 16.6490 0.0000
# 6 0.0000 0.0000 0.0000 0.0000 0.0000 -25.5919
#
#
#
# Elastic Compliance Matrix: (Units=1/GPa)
#
#
# Indices 1 2 3 4 5 6 
#
# 1 0.012987 -0.003212 -0.001866 0.000000 0.000000 0.000000
# 2 -0.003212 0.008646 -0.004698 0.000000 0.000000 0.000000
# 3 -0.001866 -0.004698 0.016931 0.000000 0.000000 0.000000
# 4 0.000000 0.000000 0.000000 0.037846 0.000000 0.000000
# 5 0.000000 0.000000 0.000000 0.000000 0.060064 0.000000
# 6 0.000000 0.000000 0.000000 0.000000 0.000000 -0.039075
#
#
# Mechanical properties :
#
#
# Convention : Reuss Voigt Hill
#
# Bulk Modulus (GPa) = 52.60001 62.84368 57.72184
# Shear Modulus (GPa) = 40.55528 17.35292 28.95410
#
# Velocity S-wave (km/s) = 4.62056 3.02243 3.90414
# Velocity P-wave (km/s) = 7.49375 6.72778 7.12107
#
# Compressibility (1/GPa) = 0.01901140
#
# Stress axis : x y z
#
# Youngs Moduli (GPa) = 77.00296 115.66141 59.06168
#
# Poissons Ratio (x) = 0.37149 0.11024
# Poissons Ratio (y) = 0.24733 0.27746
# Poissons Ratio (z) = 0.14372 0.54336
#
# Static dielectric constant tensor:
#      x y z
#    x 1.673030 0.000000 0.000000 
#    y 0.000000 1.664040 0.000000 
#    z 0.000000 0.000000 1.689000 
# 
# From -- ./inp_files/12693.got.cif
#   From: 2010.05.17/outbox.cif.g08.bks.cpg/sg74_7_cif.got.tgz:12693.got - 2010.06.03 17:57:02.
