data_PCOD9539022
_publ_section_title
;
Structure prediction by ZEFSAII (Michael W. Deem and Ramdas Pophale) SiO2 
 PCOD9539022
Probable space group: I M M A
;
_chemical_formula_sum "Si O2"
_cell_formula_units_Z 72
_cell_length_a 13.441793
_cell_length_b 30.992752
_cell_length_c 9.164495
_cell_angle_alpha 90.000000
_cell_angle_beta 90.000000
_cell_angle_gamma 90.000000
_cell_volume 3817.911726
_symmetry_space_group_name_H-M "I M M A"
_symmetry_group_IT_number 74
_symmetry_cell_setting 'orthorhombic'
loop_
_space_group_symop_operation_xyz
x,y,z
-x,1/2-y,z
x,-y,-z
-x,1/2+y,-z
-x,-y,-z
x,1/2+y,-z
-x,y,z
x,1/2-y,z
1/2+x,1/2+y,1/2+z
1/2-x,-y,1/2+z
1/2+x,1/2-y,1/2-z
1/2-x,y,1/2-z
1/2-x,1/2-y,1/2-z
1/2+x,y,1/2-z
1/2-x,1/2+y,1/2+z
1/2+x,-y,1/2+z
loop_
_atom_site_type_symbol
_atom_site_label
_atom_site_fract_x
_atom_site_fract_y
_atom_site_fract_z
Si Si1 0.381858 0.402726 0.973450
Si Si2 0.750000 0.652426 0.250000
Si Si3 0.380601 0.199993 0.510858
Si Si4 0.383627 0.376954 0.305710
Si Si5 0.273828 0.462047 0.412213
O O1 0.500000 0.406327 0.944676
O O2 0.368573 0.379561 0.131891
O O3 0.325670 0.448049 0.000779
O O4 0.322595 0.376971 0.849360
O O5 0.681184 0.681679 0.353392
O O6 0.500000 0.196720 0.537189
O O7 0.357721 0.250000 0.483002
O O8 0.355016 0.168414 0.376459
O O9 0.500000 0.382565 0.330302
O O10 0.332326 0.417372 0.385813
O O11 0.326580 0.500000 0.500000
O O12 0.250000 0.477871 0.250000
#
# Coordination Sequence:
#
# PCOD9539022 Si02
#       5
#    16   8  16  16  16
#     4  10  22  39  60  84 116 156 195 238 290 344
#     4  12  21  36  60  84 122 156 192 234 293 344
#     4  10  21  37  59  88 118 152 195 239 286 342
#     4   9  19  40  62  84 117 154 194 240 286 340
#     4  10  21  36  59  86 116 150 193 241 287 342
#
# _framework density 18.858476
#
# number of rings (size 3 to 8) (size 9 to 14) (size 15 to 20)
#    0.000    2.000    2.222    1.000    1.556    0.889 
#    0.000    3.333    0.000    5.333    0.000    0.000 
#    0.000    0.000    0.000    0.000    0.000    0.000 
#
# Total GULP energy -200784.431701 kJ/mol
# GULP energy per Si atom -5577.345325 kJ/mol
# Density = 1.881555 g / cm^3
# Si number density = 18.858476 Si / 1000 Ang^3
#
#
#
# Elastic Constant Matrix: (Units=GPa)
#
#
# Indices 1 2 3 4 5 6 
#
# 1 93.5286 45.0843 39.5830 -0.0002 -0.0003 0.0001
# 2 45.0843 99.8141 70.1376 -0.0003 -0.0004 0.0001
# 3 39.5830 70.1376 71.9437 0.0024 0.0011 0.0000
# 4 -0.0002 -0.0003 0.0024 26.9552 -0.0005 0.0000
# 5 -0.0003 -0.0004 0.0011 -0.0005 31.0549 0.0000
# 6 0.0001 0.0001 0.0000 0.0000 0.0000 20.5651
#
#
#
# Elastic Compliance Matrix: (Units=1/GPa)
#
#
# Indices 1 2 3 4 5 6 
#
# 1 0.014203 -0.002934 -0.004954 0.000001 0.000000 0.000000
# 2 -0.002934 0.032416 -0.029987 0.000003 0.000002 0.000000
# 3 -0.004954 -0.029987 0.045860 -0.000005 -0.000002 0.000000
# 4 0.000001 0.000003 -0.000005 0.037099 0.000001 0.000000
# 5 0.000000 0.000002 -0.000002 0.000001 0.032201 0.000000
# 6 0.000000 0.000000 0.000000 0.000000 0.000000 0.048626
#
#
# Mechanical properties :
#
#
# Convention : Reuss Voigt Hill
#
# Bulk Modulus (GPa) = 59.78173 63.87735 61.82954
# Shear Modulus (GPa) = 17.13909 23.08047 20.10978
#
# Velocity S-wave (km/s) = 3.01795 3.50219 3.26905
# Velocity P-wave (km/s) = 6.62669 7.09220 6.86339
#
# Compressibility (1/GPa) = 0.01672752
#
# Stress axis : x y z
#
# Youngs Moduli (GPa) = 70.40841 30.84925 21.80556
#
# Poissons Ratio (x) = 0.09052 0.10802
# Poissons Ratio (y) = 0.20660 0.65389
# Poissons Ratio (z) = 0.34878 0.92509
#
# Static dielectric constant tensor:
#      x y z
#    x 1.680220 0.000000 0.000000 
#    y 0.000000 1.635130 0.000000 
#    z 0.000000 0.000000 1.651840 
# 
# From -- ./inp_files/9340.got.cif
#   From: 2010.05.17/outbox.cif.g08.bks.cpg/sg74_5_cif.got.tgz:9340.got - 2010.06.03 17:57:02.
