data_PCOD9539435
_publ_section_title
;
Structure prediction by ZEFSAII (Michael W. Deem and Ramdas Pophale) SiO2 
 PCOD9539435
Probable space group: I M M A
;
_chemical_formula_sum "Si O2"
_cell_formula_units_Z 60
_cell_length_a 15.213508
_cell_length_b 15.929231
_cell_length_c 12.787656
_cell_angle_alpha 90.000000
_cell_angle_beta 90.000000
_cell_angle_gamma 90.000000
_cell_volume 3098.953947
_symmetry_space_group_name_H-M "I M M A"
_symmetry_group_IT_number 74
_symmetry_cell_setting 'orthorhombic'
loop_
_space_group_symop_operation_xyz
x,y,z
-x,1/2-y,z
x,-y,-z
-x,1/2+y,-z
-x,-y,-z
x,1/2+y,-z
-x,y,z
x,1/2-y,z
1/2+x,1/2+y,1/2+z
1/2-x,-y,1/2+z
1/2+x,1/2-y,1/2-z
1/2-x,y,1/2-z
1/2-x,1/2-y,1/2-z
1/2+x,y,1/2-z
1/2-x,1/2+y,1/2+z
1/2+x,-y,1/2+z
loop_
_atom_site_type_symbol
_atom_site_label
_atom_site_fract_x
_atom_site_fract_y
_atom_site_fract_z
Si Si1 0.097836 0.250000 0.406996
Si Si2 0.243097 0.616781 0.571074
Si Si3 0.000000 0.061791 0.897366
Si Si4 0.639565 0.250000 0.331520
Si Si5 0.500000 0.750000 0.486040
Si Si6 0.200193 0.561904 0.147540
O O1 0.151942 0.333371 0.437813
O O2 0.096043 0.250000 0.280699
O O3 0.000000 0.250000 0.449563
O O4 0.300497 0.669405 0.652204
O O5 0.247562 0.522988 0.615097
O O6 0.287807 0.617495 0.456592
O O7 0.905134 0.045390 0.841662
O O8 0.000000 0.161543 0.924638
O O9 0.000000 0.000000 0.000000
O O10 0.578980 0.250000 0.432197
O O11 0.250000 0.595323 0.250000
#
# Coordination Sequence:
#
# PCOD9539435 Si02
#       6
#     8  16   8   8   4  16
#     4  11  23  38  59  90 127 165 205 252 328 386
#     4  10  21  39  61  87 124 157 201 266 309 369
#     4  12  22  42  68  94 126 166 218 268 314 376
#     4  11  18  36  62  90 120 151 202 260 319 364
#     4  12  20  34  64 100 116 158 214 268 308 368
#     4  11  22  41  63  91 124 163 209 261 316 367
#
# _framework density 19.361371999999999
#
# number of rings (size 3 to 8) (size 9 to 14) (size 15 to 20)
#    0.000    1.067    6.000    3.200    0.000    0.000 
#    9.600    7.333    0.000    0.000    0.000    0.000 
#    0.000    0.000    0.000    0.000    0.000    0.000 
#
# Total GULP energy -167184.314647 kJ/mol
# GULP energy per Si atom -5572.810488 kJ/mol
# Density = 1.931730 g / cm^3
# Si number density = 19.361372 Si / 1000 Ang^3
#
#
#
# Elastic Constant Matrix: (Units=GPa)
#
#
# Indices 1 2 3 4 5 6 
#
# 1 152.4578 24.2736 17.3928 0.0000 0.0000 0.0000
# 2 24.2736 80.6965 4.6759 0.0000 0.0000 0.0000
# 3 17.3928 4.6759 79.3897 0.0000 0.0000 0.0000
# 4 0.0000 0.0000 0.0000 161.4438 0.0000 0.0000
# 5 0.0000 0.0000 0.0000 0.0000 35.7001 0.0000
# 6 0.0000 0.0000 0.0000 0.0000 0.0000 44.9315
#
#
#
# Elastic Compliance Matrix: (Units=1/GPa)
#
#
# Indices 1 2 3 4 5 6 
#
# 1 0.007046 -0.002037 -0.001424 0.000000 0.000000 0.000000
# 2 -0.002037 0.013023 -0.000321 0.000000 0.000000 0.000000
# 3 -0.001424 -0.000321 0.012927 0.000000 0.000000 0.000000
# 4 0.000000 0.000000 0.000000 0.006194 0.000000 0.000000
# 5 0.000000 0.000000 0.000000 0.000000 0.028011 0.000000
# 6 0.000000 0.000000 0.000000 0.000000 0.000000 0.022256
#
#
# Mechanical properties :
#
#
# Convention : Reuss Voigt Hill
#
# Bulk Modulus (GPa) = 39.31833 45.02542 42.17187
# Shear Modulus (GPa) = 47.39419 66.16185 56.77802
#
# Velocity S-wave (km/s) = 4.95297 5.85203 5.42117
# Velocity P-wave (km/s) = 7.28429 8.30467 7.81116
#
# Compressibility (1/GPa) = 0.02543343
#
# Stress axis : x y z
#
# Youngs Moduli (GPa) = 141.92617 76.78477 77.35817
#
# Poissons Ratio (x) = 0.15641 0.11013
# Poissons Ratio (y) = 0.28909 0.02482
# Poissons Ratio (z) = 0.20205 0.02463
#
# Static dielectric constant tensor:
#      x y z
#    x 1.767620 0.000000 0.000000 
#    y 0.000000 1.512800 0.000000 
#    z 0.000000 0.000000 1.686180 
# 
# From -- ./inp_files/31738.got.cif
#   From: 2010.05.17/outbox.cif.g08.bks.cpg/sg74_16_cif.got.tgz:31738.got - 2010.06.03 17:57:02.
