data_PCOD9539093
_publ_section_title
;
Structure prediction by ZEFSAII (Michael W. Deem and Ramdas Pophale) SiO2 
 PCOD9539093
Probable space group: I M M A
;
_chemical_formula_sum "Si O2"
_cell_formula_units_Z 80
_cell_length_a 27.543543
_cell_length_b 8.482521
_cell_length_c 18.182622
_cell_angle_alpha 90.000000
_cell_angle_beta 90.000000
_cell_angle_gamma 90.000000
_cell_volume 4248.163838
_symmetry_space_group_name_H-M "I M M A"
_symmetry_group_IT_number 74
_symmetry_cell_setting 'orthorhombic'
loop_
_space_group_symop_operation_xyz
x,y,z
-x,1/2-y,z
x,-y,-z
-x,1/2+y,-z
-x,-y,-z
x,1/2+y,-z
-x,y,z
x,1/2-y,z
1/2+x,1/2+y,1/2+z
1/2-x,-y,1/2+z
1/2+x,1/2-y,1/2-z
1/2-x,y,1/2-z
1/2-x,1/2-y,1/2-z
1/2+x,y,1/2-z
1/2-x,1/2+y,1/2+z
1/2+x,-y,1/2+z
loop_
_atom_site_type_symbol
_atom_site_label
_atom_site_fract_x
_atom_site_fract_y
_atom_site_fract_z
Si Si1 0.053742 0.562627 0.264428
Si Si2 0.844227 0.563236 0.776008
Si Si3 0.920565 0.434728 0.421729
Si Si4 0.213970 0.561288 0.922533
Si Si5 0.818625 0.934699 0.379916
O O1 0.059746 0.750000 0.255298
O O2 0.098640 0.475483 0.226392
O O3 0.057703 0.522692 0.351141
O O4 0.000000 0.516456 0.238557
O O5 0.837027 0.750000 0.763296
O O6 0.819420 0.520136 0.852776
O O7 0.820921 0.471261 0.707273
O O8 0.937309 0.500000 0.500000
O O9 0.930556 0.250000 0.415762
O O10 0.862693 0.466440 0.414753
O O11 0.218968 0.750000 0.924692
O O12 0.266826 0.485677 0.910427
O O13 0.194050 0.500000 0.000000
O O14 0.827614 0.750000 0.393017
#
# Coordination Sequence:
#
# PCOD9539093 Si02
#       5
#    16  16  16  16  16
#     4  10  21  37  57  80 104 133 173 219 266 317
#     4  10  21  37  57  80 107 139 176 218 261 310
#     4  11  21  34  52  75 108 145 180 219 260 306
#     4  11  23  37  54  79 110 142 177 217 261 310
#     4  11  21  34  54  79 109 145 182 216 254 306
#
# _framework density 18.831665999999998
#
# number of rings (size 3 to 8) (size 9 to 14) (size 15 to 20)
#    0.000    1.400    0.000    9.000    0.000    7.600 
#    0.000    0.000    0.000    0.600    0.000    0.000 
#    0.000    0.000    0.000    0.000    0.000    0.000 
#
# Total GULP energy -223685.829324 kJ/mol
# GULP energy per Si atom -5592.145733 kJ/mol
# Density = 1.878880 g / cm^3
# Si number density = 18.831666 Si / 1000 Ang^3
#
#
#
# Elastic Constant Matrix: (Units=GPa)
#
#
# Indices 1 2 3 4 5 6 
#
# 1 60.1255 -7.9287 13.7723 0.0000 0.0000 0.0000
# 2 -7.9287 40.4711 -1.3973 0.0000 0.0000 0.0000
# 3 13.7723 -1.3973 65.7856 0.0000 0.0000 0.0000
# 4 0.0000 0.0000 0.0000 28.4564 0.0000 0.0000
# 5 0.0000 0.0000 0.0000 0.0000 -4.7799 0.0000
# 6 0.0000 0.0000 0.0000 0.0000 0.0000 -1.3992
#
#
#
# Elastic Compliance Matrix: (Units=1/GPa)
#
#
# Indices 1 2 3 4 5 6 
#
# 1 0.017921 0.003384 -0.003680 0.000000 0.000000 0.000000
# 2 0.003384 0.025366 -0.000170 0.000000 0.000000 0.000000
# 3 -0.003680 -0.000170 0.015968 0.000000 0.000000 0.000000
# 4 0.000000 0.000000 0.000000 0.035142 0.000000 0.000000
# 5 0.000000 0.000000 0.000000 0.000000 -0.209209 0.000000
# 6 0.000000 0.000000 0.000000 0.000000 0.000000 -0.714698
#
#
# Mechanical properties :
#
#
# Convention : Reuss Voigt Hill
#
# Bulk Modulus (GPa) = 17.14577 19.47497 18.31037
# Shear Modulus (GPa) = -6.17941 15.25118 4.53588
#
# Velocity S-wave (km/s) = -1.81343 2.84891 1.55367
# Velocity P-wave (km/s) = 2.17712 4.60280 3.60039
#
# Compressibility (1/GPa) = 0.05832342
#
# Stress axis : x y z
#
# Youngs Moduli (GPa) = 55.80036 39.42271 62.62647
#
# Poissons Ratio (x) = -0.13340 0.23046
# Poissons Ratio (y) = -0.18882 0.01062
# Poissons Ratio (z) = 0.20534 0.00669
#
# Static dielectric constant tensor:
#      x y z
#    x 1.665180 0.000000 0.000000 
#    y 0.000000 1.629750 0.000000 
#    z 0.000000 0.000000 1.645970 
# 
# From -- ./inp_files/39704.got.cif
#   From: 2010.05.17/outbox.cif.g08.bks.cpg/sg74_20_cif.got.tgz:39704.got - 2010.06.03 17:57:02.
