data_PCOD9539815
_publ_section_title
;
Structure prediction by ZEFSAII (Michael W. Deem and Ramdas Pophale) SiO2 
 PCOD9539815
Probable space group: I M M A
;
_chemical_formula_sum "Si O2"
_cell_formula_units_Z 64
_cell_length_a 7.738054
_cell_length_b 15.647138
_cell_length_c 28.081721
_cell_angle_alpha 90.000000
_cell_angle_beta 90.000000
_cell_angle_gamma 90.000000
_cell_volume 3400.089814
_symmetry_space_group_name_H-M "I M M A"
_symmetry_group_IT_number 74
_symmetry_cell_setting 'orthorhombic'
loop_
_space_group_symop_operation_xyz
x,y,z
-x,1/2-y,z
x,-y,-z
-x,1/2+y,-z
-x,-y,-z
x,1/2+y,-z
-x,y,z
x,1/2-y,z
1/2+x,1/2+y,1/2+z
1/2-x,-y,1/2+z
1/2+x,1/2-y,1/2-z
1/2-x,y,1/2-z
1/2-x,1/2-y,1/2-z
1/2+x,y,1/2-z
1/2-x,1/2+y,1/2+z
1/2+x,-y,1/2+z
loop_
_atom_site_type_symbol
_atom_site_label
_atom_site_fract_x
_atom_site_fract_y
_atom_site_fract_z
Si Si1 0.794445 0.250000 0.805553
Si Si2 0.696623 0.902845 0.126030
Si Si3 0.000000 0.853361 0.945800
Si Si4 0.000000 0.352809 0.944127
Si Si5 0.205977 0.750000 0.694809
Si Si6 0.705011 0.901929 0.873774
O O1 0.750000 0.250000 0.750000
O O2 0.724182 0.166260 0.832461
O O3 0.000000 0.250000 0.811535
O O4 0.500000 0.895062 0.108453
O O5 0.832844 0.884349 0.084516
O O6 0.722668 0.000254 0.142820
O O7 0.829753 0.886790 0.918615
O O8 0.000000 0.750000 0.943283
O O9 0.000000 0.879518 0.000946
O O10 0.000000 0.250000 0.942442
O O11 0.250000 0.750000 0.750000
O O12 0.263361 0.665777 0.666237
O O13 0.000000 0.750000 0.692027
O O14 0.500000 0.887681 0.884531
#
# Coordination Sequence:
#
# PCOD9539815 Si02
#       6
#     8  16   8   8   8  16
#     4  12  24  42  64  92 127 164 212 263 313 374
#     4  11  22  41  65  90 126 166 205 257 313 366
#     4  11  23  39  69  92 125 173 208 251 319 374
#     4  11  23  41  63  98 127 165 212 255 313 376
#     4  10  22  40  60  87 122 156 203 257 306 365
#     4  10  23  41  62  91 126 162 208 258 308 370
#
# _framework density 18.823034
#
# number of rings (size 3 to 8) (size 9 to 14) (size 15 to 20)
#    0.000    1.250    3.750    1.875    1.750    4.000 
#    0.000    7.500    0.000    0.000    0.000    0.000 
#    0.000    0.000    0.000    0.000    0.000    0.000 
#
# Total GULP energy -178768.409437 kJ/mol
# GULP energy per Si atom -5586.512795 kJ/mol
# Density = 1.878019 g / cm^3
# Si number density = 18.823034 Si / 1000 Ang^3
#
#
#
# Elastic Constant Matrix: (Units=GPa)
#
#
# Indices 1 2 3 4 5 6 
#
# 1 112.8494 61.0291 64.2799 0.0000 0.0000 0.0000
# 2 61.0291 152.1956 83.7411 0.0000 0.0000 0.0000
# 3 64.2799 83.7411 168.3619 0.0000 0.0000 0.0000
# 4 0.0000 0.0000 0.0000 0.3100 0.0000 0.0000
# 5 0.0000 0.0000 0.0000 0.0000 28.4987 0.0000
# 6 0.0000 0.0000 0.0000 0.0000 0.0000 23.1725
#
#
#
# Elastic Compliance Matrix: (Units=1/GPa)
#
#
# Indices 1 2 3 4 5 6 
#
# 1 0.012396 -0.003258 -0.003112 0.000000 0.000000 0.000000
# 2 -0.003258 0.009903 -0.003681 0.000000 0.000000 0.000000
# 3 -0.003112 -0.003681 0.008959 0.000000 0.000000 0.000000
# 4 0.000000 0.000000 0.000000 3.225651 0.000000 0.000000
# 5 0.000000 0.000000 0.000000 0.000000 0.035089 0.000000
# 6 0.000000 0.000000 0.000000 0.000000 0.000000 0.043155
#
#
# Mechanical properties :
#
#
# Convention : Reuss Voigt Hill
#
# Bulk Modulus (GPa) = 89.65520 94.61191 92.13356
# Shear Modulus (GPa) = 1.48855 25.35337 13.42096
#
# Velocity S-wave (km/s) = 0.89024 3.67404 2.67312
# Velocity P-wave (km/s) = 6.98503 8.26868 7.65382
#
# Compressibility (1/GPa) = 0.01115384
#
# Stress axis : x y z
#
# Youngs Moduli (GPa) = 80.66976 100.98283 111.62117
#
# Poissons Ratio (x) = 0.32904 0.34738
# Poissons Ratio (y) = 0.26286 0.41092
# Poissons Ratio (z) = 0.25106 0.37176
#
# Static dielectric constant tensor:
#      x y z
#    x 1.666290 0.000000 0.000000 
#    y 0.000000 1.674730 0.000000 
#    z 0.000000 0.000000 1.620690 
# 
# From -- ./inp_files/63568.got.cif
#   From: 2010.05.17/outbox.cif.g08.bks.cpg/sg74_32_cif.got.tgz:63568.got - 2010.06.03 17:57:02.
