data_PCOD9539707
_publ_section_title
;
Structure prediction by ZEFSAII (Michael W. Deem and Ramdas Pophale) SiO2 
 PCOD9539707
Probable space group: I M M A
;
_chemical_formula_sum "Si O2"
_cell_formula_units_Z 112
_cell_length_a 24.904790
_cell_length_b 16.532112
_cell_length_c 12.284478
_cell_angle_alpha 90.000000
_cell_angle_beta 90.000000
_cell_angle_gamma 90.000000
_cell_volume 5057.873111
_symmetry_space_group_name_H-M "I M M A"
_symmetry_group_IT_number 74
_symmetry_cell_setting 'orthorhombic'
loop_
_space_group_symop_operation_xyz
x,y,z
-x,1/2-y,z
x,-y,-z
-x,1/2+y,-z
-x,-y,-z
x,1/2+y,-z
-x,y,z
x,1/2-y,z
1/2+x,1/2+y,1/2+z
1/2-x,-y,1/2+z
1/2+x,1/2-y,1/2-z
1/2-x,y,1/2-z
1/2-x,1/2-y,1/2-z
1/2+x,y,1/2-z
1/2-x,1/2+y,1/2+z
1/2+x,-y,1/2+z
loop_
_atom_site_type_symbol
_atom_site_label
_atom_site_fract_x
_atom_site_fract_y
_atom_site_fract_z
Si Si1 0.087919 0.386822 0.763575
Si Si2 0.561416 0.164210 0.503550
Si Si3 0.434407 0.931289 0.693632
Si Si4 0.724230 0.490964 0.124392
Si Si5 0.804352 0.336511 0.680172
Si Si6 0.440526 0.403614 0.978582
Si Si7 0.858716 0.842040 0.640546
O O1 0.060011 0.353136 0.869818
O O2 0.090890 0.482752 0.779219
O O3 0.144665 0.342657 0.758134
O O4 0.059812 0.380186 0.647615
O O5 0.500000 0.171281 0.466415
O O6 0.589136 0.250000 0.482076
O O7 0.580980 0.091519 0.429726
O O8 0.500000 0.936144 0.709782
O O9 0.402760 0.867103 0.767620
O O10 0.750000 0.491301 0.250000
O O11 0.693214 0.577039 0.121336
O O12 0.687449 0.410543 0.130896
O O13 0.751659 0.500000 0.000000
O O14 0.805886 0.250000 0.619313
O O15 0.750000 0.335866 0.750000
O O16 0.500000 0.388688 0.024563
O O17 0.429933 0.500000 0.000000
O O18 0.394861 0.351266 0.033452
O O19 0.839693 0.750000 0.656674
#
# Coordination Sequence:
#
# PCOD9539707 Si02
#       7
#    16  16  16  16  16  16  16
#     4  12  21  38  65  96 132 175 233 299 358 423
#     4  10  22  38  57  89 135 182 231 288 348 414
#     4  11  22  40  64  94 137 190 237 282 346 425
#     4  11  25  50  77 107 142 183 240 299 365 435
#     4  10  22  43  70  99 131 176 231 296 371 439
#     4  11  22  38  63  96 135 180 235 296 355 426
#     4  12  25  43  69 103 145 191 235 286 355 428
#
# _framework density 22.143695000000001
#
# number of rings (size 3 to 8) (size 9 to 14) (size 15 to 20)
#    0.000    1.000    2.857    4.286    0.000    6.000 
#    5.143    0.000    0.000    0.000    0.000    0.000 
#    0.000    0.000    0.000    0.000    0.000    0.000 
#
# Total GULP energy -311872.503027 kJ/mol
# GULP energy per Si atom -5569.151840 kJ/mol
# Density = 2.209329 g / cm^3
# Si number density = 22.143695 Si / 1000 Ang^3
#
#
#
# Elastic Constant Matrix: (Units=GPa)
#
#
# Indices 1 2 3 4 5 6 
#
# 1 73.3890 35.5619 21.8022 0.0000 0.0000 0.0000
# 2 35.5619 158.9160 23.0242 0.0000 0.0000 0.0000
# 3 21.8022 23.0242 107.9533 0.0000 0.0000 0.0000
# 4 0.0000 0.0000 0.0000 27.3451 0.0000 0.0000
# 5 0.0000 0.0000 0.0000 0.0000 22.0454 0.0000
# 6 0.0000 0.0000 0.0000 0.0000 0.0000 -15.1821
#
#
#
# Elastic Compliance Matrix: (Units=1/GPa)
#
#
# Indices 1 2 3 4 5 6 
#
# 1 0.015928 -0.003197 -0.002535 0.000000 0.000000 0.000000
# 2 -0.003197 0.007135 -0.000876 0.000000 0.000000 0.000000
# 3 -0.002535 -0.000876 0.009962 0.000000 0.000000 0.000000
# 4 0.000000 0.000000 0.000000 0.036570 0.000000 0.000000
# 5 0.000000 0.000000 0.000000 0.000000 0.045361 0.000000
# 6 0.000000 0.000000 0.000000 0.000000 0.000000 -0.065867
#
#
# Mechanical properties :
#
#
# Convention : Reuss Voigt Hill
#
# Bulk Modulus (GPa) = 50.48199 55.67055 53.07627
# Shear Modulus (GPa) = 72.56024 24.16635 48.36330
#
# Velocity S-wave (km/s) = 5.73054 3.30713 4.67847
# Velocity P-wave (km/s) = 8.16286 6.30698 7.29419
#
# Compressibility (1/GPa) = 0.01980904
#
# Stress axis : x y z
#
# Youngs Moduli (GPa) = 62.78117 140.15398 100.38072
#
# Poissons Ratio (x) = 0.44809 0.25446
# Poissons Ratio (y) = 0.20072 0.08794
# Poissons Ratio (z) = 0.15915 0.12278
#
# Static dielectric constant tensor:
#      x y z
#    x 1.817160 0.000000 0.000000 
#    y 0.000000 1.853990 0.000000 
#    z 0.000000 0.000000 1.892630 
# 
# From -- ./inp_files/27189.got.cif
#   From: 2010.05.17/outbox.cif.g08.bks.cpg/sg74_14_cif.got.tgz:27189.got - 2010.06.03 17:57:02.
