data_PCOD9539532
_publ_section_title
;
Structure prediction by ZEFSAII (Michael W. Deem and Ramdas Pophale) SiO2 
 PCOD9539532
Probable space group: I M M A
;
_chemical_formula_sum "Si O2"
_cell_formula_units_Z 64
_cell_length_a 15.171211
_cell_length_b 21.960585
_cell_length_c 9.211963
_cell_angle_alpha 90.000000
_cell_angle_beta 90.000000
_cell_angle_gamma 90.000000
_cell_volume 3069.137449
_symmetry_space_group_name_H-M "I M M A"
_symmetry_group_IT_number 74
_symmetry_cell_setting 'orthorhombic'
loop_
_space_group_symop_operation_xyz
x,y,z
-x,1/2-y,z
x,-y,-z
-x,1/2+y,-z
-x,-y,-z
x,1/2+y,-z
-x,y,z
x,1/2-y,z
1/2+x,1/2+y,1/2+z
1/2-x,-y,1/2+z
1/2+x,1/2-y,1/2-z
1/2-x,y,1/2-z
1/2-x,1/2-y,1/2-z
1/2+x,y,1/2-z
1/2-x,1/2+y,1/2+z
1/2+x,-y,1/2+z
loop_
_atom_site_type_symbol
_atom_site_label
_atom_site_fract_x
_atom_site_fract_y
_atom_site_fract_z
Si Si1 0.500000 0.844155 0.639889
Si Si2 0.266678 0.250000 0.921878
Si Si3 0.855923 0.500000 0.500000
Si Si4 0.500000 0.980806 0.753551
Si Si5 0.500000 0.112710 0.683906
Si Si6 0.651061 0.750000 0.676933
Si Si7 0.675905 0.123962 0.872444
O O1 0.500000 0.913916 0.689209
O O2 0.500000 0.848352 0.463342
O O3 0.586704 0.808153 0.697074
O O4 0.250000 0.250000 0.750000
O O5 0.316188 0.312614 0.957873
O O6 0.175722 0.250000 0.006660
O O7 0.808837 0.436316 0.532205
O O8 0.916600 0.488197 0.360061
O O9 0.500000 0.039964 0.650427
O O10 0.584029 0.123759 0.786550
O O11 0.750000 0.750000 0.750000
O O12 0.750000 0.122825 0.750000
#
# Coordination Sequence:
#
# PCOD9539532 Si02
#       7
#     8   8   8   8   8   8  16
#     4  11  22  43  68  86 129 177 201 258 337 370
#     4  10  21  41  65  90 123 167 221 271 307 379
#     4   9  20  40  58  91 130 160 216 267 312 387
#     4   9  20  39  64  91 122 164 213 264 311 381
#     4  10  21  42  64  99 125 159 220 266 312 387
#     4  11  27  44  60  98 135 164 219 262 317 401
#     4  10  21  40  63  94 128 167 215 267 324 375
#
# _framework density 20.852762999999999
#
# number of rings (size 3 to 8) (size 9 to 14) (size 15 to 20)
#    0.000    2.000    0.000    4.125    3.500    1.500 
#   18.000    0.000    0.000    0.000    0.000    0.000 
#    0.000    0.000    0.000    0.000    0.000    0.000 
#
# Total GULP energy -178443.401627 kJ/mol
# GULP energy per Si atom -5576.356301 kJ/mol
# Density = 2.080530 g / cm^3
# Si number density = 20.852763 Si / 1000 Ang^3
#
#
#
# Elastic Constant Matrix: (Units=GPa)
#
#
# Indices 1 2 3 4 5 6 
#
# 1 119.4917 50.6762 16.5220 0.0000 0.0000 0.0000
# 2 50.6762 206.1149 22.2900 0.0000 0.0000 0.0000
# 3 16.5220 22.2900 44.3871 0.0000 0.0000 0.0000
# 4 0.0000 0.0000 0.0000 30.0596 0.0000 0.0000
# 5 0.0000 0.0000 0.0000 0.0000 28.8127 0.0000
# 6 0.0000 0.0000 0.0000 0.0000 0.0000 26.6764
#
#
#
# Elastic Compliance Matrix: (Units=1/GPa)
#
#
# Indices 1 2 3 4 5 6 
#
# 1 0.009604 -0.002088 -0.002526 0.000000 0.000000 0.000000
# 2 -0.002088 0.005584 -0.002027 0.000000 0.000000 0.000000
# 3 -0.002526 -0.002027 0.024487 0.000000 0.000000 0.000000
# 4 0.000000 0.000000 0.000000 0.033267 0.000000 0.000000
# 5 0.000000 0.000000 0.000000 0.000000 0.034707 0.000000
# 6 0.000000 0.000000 0.000000 0.000000 0.000000 0.037486
#
#
# Mechanical properties :
#
#
# Convention : Reuss Voigt Hill
#
# Bulk Modulus (GPa) = 37.88924 60.99668 49.44296
# Shear Modulus (GPa) = 29.90152 35.81011 32.85582
#
# Velocity S-wave (km/s) = 3.79084 4.14851 3.97370
# Velocity P-wave (km/s) = 6.11310 7.22921 6.69445
#
# Compressibility (1/GPa) = 0.02639271
#
# Stress axis : x y z
#
# Youngs Moduli (GPa) = 104.12783 179.07553 40.83750
#
# Poissons Ratio (x) = 0.37391 0.10316
# Poissons Ratio (y) = 0.21742 0.08278
# Poissons Ratio (z) = 0.26304 0.36300
#
# Static dielectric constant tensor:
#      x y z
#    x 1.715090 0.000000 0.000000 
#    y 0.000000 1.818800 0.000000 
#    z 0.000000 0.000000 1.779450 
# 
# From -- ./inp_files/8941.got.cif
#   From: 2010.05.17/outbox.cif.g08.bks.cpg/sg74_5_cif.got.tgz:8941.got - 2010.06.03 17:57:02.
