data_PCOD9539759
_publ_section_title
;
Structure prediction by ZEFSAII (Michael W. Deem and Ramdas Pophale) SiO2 
 PCOD9539759
Probable space group: I M M A
;
_chemical_formula_sum "Si O2"
_cell_formula_units_Z 88
_cell_length_a 24.084583
_cell_length_b 17.409738
_cell_length_c 11.349725
_cell_angle_alpha 90.000000
_cell_angle_beta 90.000000
_cell_angle_gamma 90.000000
_cell_volume 4759.010967
_symmetry_space_group_name_H-M "I M M A"
_symmetry_group_IT_number 74
_symmetry_cell_setting 'orthorhombic'
loop_
_space_group_symop_operation_xyz
x,y,z
-x,1/2-y,z
x,-y,-z
-x,1/2+y,-z
-x,-y,-z
x,1/2+y,-z
-x,y,z
x,1/2-y,z
1/2+x,1/2+y,1/2+z
1/2-x,-y,1/2+z
1/2+x,1/2-y,1/2-z
1/2-x,y,1/2-z
1/2-x,1/2-y,1/2-z
1/2+x,y,1/2-z
1/2-x,1/2+y,1/2+z
1/2+x,-y,1/2+z
loop_
_atom_site_type_symbol
_atom_site_label
_atom_site_fract_x
_atom_site_fract_y
_atom_site_fract_z
Si Si1 0.750000 0.045928 0.750000
Si Si2 0.440693 0.592642 0.013745
Si Si3 0.253172 0.164961 0.390778
Si Si4 0.175965 0.087469 0.548425
Si Si5 0.845512 0.050360 0.112002
Si Si6 0.565377 0.158270 0.251525
O O1 0.778044 0.094097 0.647469
O O2 0.803217 0.997616 0.801312
O O3 0.500000 0.617503 0.063517
O O4 0.433745 0.631127 0.885293
O O5 0.442355 0.500000 0.000000
O O6 0.385690 0.608105 0.087780
O O7 0.265884 0.250000 0.427555
O O8 0.250000 0.160995 0.250000
O O9 0.194329 0.139198 0.439976
O O10 0.301044 0.110624 0.437688
O O11 0.177599 0.000000 0.500000
O O12 0.893299 0.099829 0.178615
O O13 0.865424 0.000000 0.000000
O O14 0.500000 0.150743 0.288441
O O15 0.580270 0.250000 0.261595
#
# Coordination Sequence:
#
# PCOD9539759 Si02
#       6
#     8  16  16  16  16  16
#     4  12  20  36  54  80 118 156 188 234 290 336
#     4   9  18  33  55  83 113 149 192 240 293 351
#     4  11  20  32  52  80 109 141 185 237 294 350
#     4  11  19  33  53  77 112 148 185 232 285 346
#     4  12  21  35  57  81 112 153 197 240 285 350
#     4  10  22  39  59  87 120 148 186 249 306 344
#
# _framework density 18.491237000000002
#
# number of rings (size 3 to 8) (size 9 to 14) (size 15 to 20)
#    0.000    1.273    4.545    3.818    0.000    2.545 
#    0.000    0.455    0.000    0.000    0.000    0.000 
#    0.000    0.000    0.000    0.000    0.000    0.000 
#
# Total GULP energy -245038.111371 kJ/mol
# GULP energy per Si atom -5569.047986 kJ/mol
# Density = 1.844915 g / cm^3
# Si number density = 18.491237 Si / 1000 Ang^3
#
#
#
# Elastic Constant Matrix: (Units=GPa)
#
#
# Indices 1 2 3 4 5 6 
#
# 1 133.0041 14.6562 38.7285 0.0000 0.0000 0.0000
# 2 14.6562 58.7314 27.4559 0.0000 0.0000 0.0000
# 3 38.7285 27.4559 50.4534 0.0000 0.0000 0.0000
# 4 0.0000 0.0000 0.0000 21.9932 0.0000 0.0000
# 5 0.0000 0.0000 0.0000 0.0000 27.1955 0.0000
# 6 0.0000 0.0000 0.0000 0.0000 0.0000 16.1520
#
#
#
# Elastic Compliance Matrix: (Units=1/GPa)
#
#
# Indices 1 2 3 4 5 6 
#
# 1 0.009772 0.001432 -0.008280 0.000000 0.000000 0.000000
# 2 0.001432 0.023046 -0.013641 0.000000 0.000000 0.000000
# 3 -0.008280 -0.013641 0.033600 0.000000 0.000000 0.000000
# 4 0.000000 0.000000 0.000000 0.045469 0.000000 0.000000
# 5 0.000000 0.000000 0.000000 0.000000 0.036771 0.000000
# 6 0.000000 0.000000 0.000000 0.000000 0.000000 0.061912
#
#
# Mechanical properties :
#
#
# Convention : Reuss Voigt Hill
#
# Bulk Modulus (GPa) = 39.30859 44.87445 42.09152
# Shear Modulus (GPa) = 19.22882 23.82469 21.52676
#
# Velocity S-wave (km/s) = 3.22823 3.59337 3.41568
# Velocity P-wave (km/s) = 5.93291 6.44492 6.19421
#
# Compressibility (1/GPa) = 0.02543973
#
# Stress axis : x y z
#
# Youngs Moduli (GPa) = 102.33472 43.39134 29.76229
#
# Poissons Ratio (x) = -0.06216 0.24645
# Poissons Ratio (y) = -0.14659 0.40598
# Poissons Ratio (z) = 0.84738 0.59189
#
# Static dielectric constant tensor:
#      x y z
#    x 1.709470 0.000000 0.000000 
#    y 0.000000 1.668200 0.000000 
#    z 0.000000 0.000000 1.653820 
# 
# From -- ./inp_files/24967.got.cif
#   From: 2010.05.17/outbox.cif.g08.bks.cpg/sg74_13_cif.got.tgz:24967.got - 2010.06.03 17:57:02.
