data_PCOD9539964
_publ_section_title
;
Structure prediction by ZEFSAII (Michael W. Deem and Ramdas Pophale) SiO2 
 PCOD9539964
Probable space group: I M M A
;
_chemical_formula_sum "Si O2"
_cell_formula_units_Z 48
_cell_length_a 25.579303
_cell_length_b 10.894080
_cell_length_c 7.094147
_cell_angle_alpha 90.000000
_cell_angle_beta 90.000000
_cell_angle_gamma 90.000000
_cell_volume 1976.876096
_symmetry_space_group_name_H-M "I M M A"
_symmetry_group_IT_number 74
_symmetry_cell_setting 'orthorhombic'
loop_
_space_group_symop_operation_xyz
x,y,z
-x,1/2-y,z
x,-y,-z
-x,1/2+y,-z
-x,-y,-z
x,1/2+y,-z
-x,y,z
x,1/2-y,z
1/2+x,1/2+y,1/2+z
1/2-x,-y,1/2+z
1/2+x,1/2-y,1/2-z
1/2-x,y,1/2-z
1/2-x,1/2-y,1/2-z
1/2+x,y,1/2-z
1/2-x,1/2+y,1/2+z
1/2+x,-y,1/2+z
loop_
_atom_site_type_symbol
_atom_site_label
_atom_site_fract_x
_atom_site_fract_y
_atom_site_fract_z
Si Si1 0.225818 0.250000 0.962047
Si Si2 0.780467 0.000000 0.500000
Si Si3 0.373784 0.010986 0.726767
Si Si4 0.940341 0.250000 0.772155
Si Si5 0.110722 0.250000 0.153731
O O1 0.250000 0.250000 0.750000
O O2 0.248348 0.377390 0.040955
O O3 0.164463 0.250000 0.023596
O O4 0.818539 0.031126 0.674561
O O5 0.390534 0.872532 0.777486
O O6 0.371381 0.000000 0.500000
O O7 0.410955 0.123672 0.780100
O O8 0.000000 0.250000 0.710859
O O9 0.935460 0.250000 0.001464
#
# Coordination Sequence:
#
# PCOD9539964 Si02
#       5
#     8   8  16   8   8
#     4  12  27  41  65 103 139 187 231 272 339 412
#     4  12  26  42  71  96 141 188 222 276 356 396
#     4  10  22  43  65  96 133 171 229 281 332 414
#     4  10  22  42  71  96 130 176 225 290 348 388
#     4  10  23  39  60  93 134 169 225 280 322 412
#
# _framework density 24.280733000000001
#
# number of rings (size 3 to 8) (size 9 to 14) (size 15 to 20)
#    0.000    1.333    0.000    6.000   11.667    7.333 
#    0.000    0.833    0.000    8.000    0.000    0.000 
#    0.000    0.000    0.000    0.000    0.000    0.000 
#
# Total GULP energy -134259.978977 kJ/mol
# GULP energy per Si atom -5594.165791 kJ/mol
# Density = 2.422547 g / cm^3
# Si number density = 24.280733 Si / 1000 Ang^3
#
#
#
# Elastic Constant Matrix: (Units=GPa)
#
#
# Indices 1 2 3 4 5 6 
#
# 1 128.9225 100.1003 32.4434 0.0000 0.0000 0.0000
# 2 100.1003 282.4229 16.8878 0.0000 0.0000 0.0000
# 3 32.4434 16.8878 113.5462 0.0000 0.0000 0.0000
# 4 0.0000 0.0000 0.0000 6.0836 0.0000 0.0000
# 5 0.0000 0.0000 0.0000 0.0000 13.6346 0.0000
# 6 0.0000 0.0000 0.0000 0.0000 0.0000 24.7299
#
#
#
# Elastic Compliance Matrix: (Units=1/GPa)
#
#
# Indices 1 2 3 4 5 6 
#
# 1 0.011465 -0.003902 -0.002695 0.000000 0.000000 0.000000
# 2 -0.003902 0.004901 0.000386 0.000000 0.000000 0.000000
# 3 -0.002695 0.000386 0.009520 0.000000 0.000000 0.000000
# 4 0.000000 0.000000 0.000000 0.164375 0.000000 0.000000
# 5 0.000000 0.000000 0.000000 0.000000 0.073343 0.000000
# 6 0.000000 0.000000 0.000000 0.000000 0.000000 0.040437
#
#
# Mechanical properties :
#
#
# Convention : Reuss Voigt Hill
#
# Bulk Modulus (GPa) = 74.28295 91.52830 82.90562
# Shear Modulus (GPa) = 15.57870 33.92031 24.74951
#
# Velocity S-wave (km/s) = 2.53575 3.74171 3.19612
# Velocity P-wave (km/s) = 6.26364 7.51298 6.91657
#
# Compressibility (1/GPa) = 0.01346204
#
# Stress axis : x y z
#
# Youngs Moduli (GPa) = 87.22323 204.04712 105.04513
#
# Poissons Ratio (x) = 0.79626 0.28314
# Poissons Ratio (y) = 0.34038 -0.04056
# Poissons Ratio (z) = 0.23510 -0.07878
#
# Static dielectric constant tensor:
#      x y z
#    x 1.880740 0.000000 0.000000 
#    y 0.000000 2.015160 0.000000 
#    z 0.000000 0.000000 2.005630 
# 
# From -- ./inp_files/13103.got.cif
#   From: 2010.05.17/outbox.cif.g08.bks.cpg/sg74_7_cif.got.tgz:13103.got - 2010.06.03 17:57:02.
