data_PCOD9539799
_publ_section_title
;
Structure prediction by ZEFSAII (Michael W. Deem and Ramdas Pophale) SiO2 
 PCOD9539799
Probable space group: I M M A
;
_chemical_formula_sum "Si O2"
_cell_formula_units_Z 72
_cell_length_a 27.282529
_cell_length_b 13.441930
_cell_length_c 9.150502
_cell_angle_alpha 90.000000
_cell_angle_beta 90.000000
_cell_angle_gamma 90.000000
_cell_volume 3355.762181
_symmetry_space_group_name_H-M "I M M A"
_symmetry_group_IT_number 74
_symmetry_cell_setting 'orthorhombic'
loop_
_space_group_symop_operation_xyz
x,y,z
-x,1/2-y,z
x,-y,-z
-x,1/2+y,-z
-x,-y,-z
x,1/2+y,-z
-x,y,z
x,1/2-y,z
1/2+x,1/2+y,1/2+z
1/2-x,-y,1/2+z
1/2+x,1/2-y,1/2-z
1/2-x,y,1/2-z
1/2-x,1/2-y,1/2-z
1/2+x,y,1/2-z
1/2-x,1/2+y,1/2+z
1/2+x,-y,1/2+z
loop_
_atom_site_type_symbol
_atom_site_label
_atom_site_fract_x
_atom_site_fract_y
_atom_site_fract_z
Si Si1 0.802576 0.017374 0.175217
Si Si2 0.946193 0.921331 0.868189
Si Si3 0.940553 0.250000 0.681069
Si Si4 0.885568 0.750000 0.007895
Si Si5 0.890328 0.549395 0.353750
Si Si6 0.196601 0.750000 0.821921
O O1 0.750000 0.996477 0.250000
O O2 0.816112 0.132996 0.216748
O O3 0.845164 0.946790 0.240511
O O4 0.799884 0.000000 0.000000
O O5 0.906868 0.842777 0.919342
O O6 0.000000 0.876243 0.851399
O O7 0.930026 0.979116 0.724430
O O8 0.948284 0.000000 0.000000
O O9 0.918083 0.348656 0.610319
O O10 0.000000 0.250000 0.690301
O O11 0.914211 0.250000 0.839994
O O12 0.826751 0.750000 0.987196
O O13 0.870860 0.500000 0.500000
O O14 0.250000 0.750000 0.750000
#
# Coordination Sequence:
#
# PCOD9539799 Si02
#       6
#    16  16   8   8  16   8
#     4  11  23  45  71 104 137 184 235 293 355 419
#     4  11  22  38  63  95 131 176 230 286 343 405
#     4  12  26  44  70 103 141 184 236 298 354 415
#     4  12  20  39  68 101 129 174 238 283 345 413
#     4  12  26  44  67  99 141 187 231 286 351 426
#     4  10  22  39  68  98 138 177 221 286 348 413
#
# _framework density 21.455632999999999
#
# number of rings (size 3 to 8) (size 9 to 14) (size 15 to 20)
#    0.000    0.667    4.444    4.333    0.000    3.556 
#    0.000    4.444    0.000    0.000    0.000    0.000 
#    0.000    0.000    0.000    0.000    0.000    0.000 
#
# Total GULP energy -200512.410384 kJ/mol
# GULP energy per Si atom -5569.789177 kJ/mol
# Density = 2.140680 g / cm^3
# Si number density = 21.455633 Si / 1000 Ang^3
#
#
#
# Elastic Constant Matrix: (Units=GPa)
#
#
# Indices 1 2 3 4 5 6 
#
# 1 151.0619 11.2663 36.7517 0.0000 0.0000 0.0000
# 2 11.2663 90.7348 2.9820 0.0000 0.0000 0.0000
# 3 36.7517 2.9820 94.5328 0.0000 0.0000 0.0000
# 4 0.0000 0.0000 0.0000 21.3367 0.0000 0.0000
# 5 0.0000 0.0000 0.0000 0.0000 64.7861 0.0000
# 6 0.0000 0.0000 0.0000 0.0000 0.0000 34.3592
#
#
#
# Elastic Compliance Matrix: (Units=1/GPa)
#
#
# Indices 1 2 3 4 5 6 
#
# 1 0.007372 -0.000822 -0.002840 0.000000 0.000000 0.000000
# 2 -0.000822 0.011124 -0.000031 0.000000 0.000000 0.000000
# 3 -0.002840 -0.000031 0.011683 0.000000 0.000000 0.000000
# 4 0.000000 0.000000 0.000000 0.046868 0.000000 0.000000
# 5 0.000000 0.000000 0.000000 0.000000 0.015435 0.000000
# 6 0.000000 0.000000 0.000000 0.000000 0.000000 0.029104
#
#
# Mechanical properties :
#
#
# Convention : Reuss Voigt Hill
#
# Bulk Modulus (GPa) = 43.87344 48.70327 46.28836
# Shear Modulus (GPa) = 36.61079 43.11835 39.86457
#
# Velocity S-wave (km/s) = 4.13528 4.48778 4.31513
# Velocity P-wave (km/s) = 6.57978 7.04289 6.81527
#
# Compressibility (1/GPa) = 0.02279283
#
# Stress axis : x y z
#
# Youngs Moduli (GPa) = 135.64696 89.89390 85.59087
#
# Poissons Ratio (x) = 0.07390 0.24309
# Poissons Ratio (y) = 0.11151 0.00268
# Poissons Ratio (z) = 0.38525 0.00282
#
# Static dielectric constant tensor:
#      x y z
#    x 1.817200 0.000000 0.000000 
#    y 0.000000 1.825130 0.000000 
#    z 0.000000 0.000000 1.652360 
# 
# From -- ./inp_files/14777.got.cif
#   From: 2010.05.17/outbox.cif.g08.bks.cpg/sg74_8_cif.got.tgz:14777.got - 2010.06.03 17:57:02.
