data_PCOD9539933
_publ_section_title
;
Structure prediction by ZEFSAII (Michael W. Deem and Ramdas Pophale) SiO2 
 PCOD9539933
Probable space group: I M M A
;
_chemical_formula_sum "Si O2"
_cell_formula_units_Z 84
_cell_length_a 12.379434
_cell_length_b 11.363958
_cell_length_c 29.276395
_cell_angle_alpha 90.000000
_cell_angle_beta 90.000000
_cell_angle_gamma 90.000000
_cell_volume 4118.584747
_symmetry_space_group_name_H-M "I M M A"
_symmetry_group_IT_number 74
_symmetry_cell_setting 'orthorhombic'
loop_
_space_group_symop_operation_xyz
x,y,z
-x,1/2-y,z
x,-y,-z
-x,1/2+y,-z
-x,-y,-z
x,1/2+y,-z
-x,y,z
x,1/2-y,z
1/2+x,1/2+y,1/2+z
1/2-x,-y,1/2+z
1/2+x,1/2-y,1/2-z
1/2-x,y,1/2-z
1/2-x,1/2-y,1/2-z
1/2+x,y,1/2-z
1/2-x,1/2+y,1/2+z
1/2+x,-y,1/2+z
loop_
_atom_site_type_symbol
_atom_site_label
_atom_site_fract_x
_atom_site_fract_y
_atom_site_fract_z
Si Si1 0.500000 0.886528 0.595390
Si Si2 0.877505 0.506421 0.627124
Si Si3 0.370498 0.750000 0.396781
Si Si4 0.000000 0.477523 0.812341
Si Si5 0.784779 0.120439 0.198201
Si Si6 0.299531 0.506545 0.446104
Si Si7 0.500000 0.250000 0.751939
Si Si8 0.335144 0.750000 0.163775
O O1 0.500000 0.750000 0.610599
O O2 0.500000 0.990522 0.633605
O O3 0.607457 0.913761 0.567015
O O4 0.808840 0.567551 0.667073
O O5 0.809682 0.522694 0.581104
O O6 0.876296 0.368382 0.639918
O O7 0.000000 0.548921 0.624911
O O8 0.500000 0.750000 0.387414
O O9 0.338283 0.634194 0.426253
O O10 0.294806 0.750000 0.350224
O O11 0.110835 0.540583 0.800181
O O12 0.000000 0.360029 0.782446
O O13 0.812309 0.250000 0.180319
O O14 0.750000 0.129568 0.250000
O O15 0.284467 0.500000 0.500000
O O16 0.393043 0.250000 0.785794
#
# Coordination Sequence:
#
# PCOD9539933 Si02
#       8
#     8  16   8   8  16  16   4   8
#     4  12  25  45  72 100 145 187 222 289 363 428
#     4  11  23  44  71  96 141 184 235 292 357 420
#     4  10  22  41  70 107 150 182 233 305 358 426
#     4  12  26  45  67 102 141 181 235 288 349 417
#     4  11  25  43  67  98 136 184 235 287 344 412
#     4  11  25  42  69 107 137 186 235 292 360 431
#     4  12  24  44  78 106 142 188 244 288 348 442
#     4  10  22  43  70 102 140 187 228 291 369 412
#
# _framework density 20.395354999999999
#
# number of rings (size 3 to 8) (size 9 to 14) (size 15 to 20)
#    0.000    0.952    3.810    2.286    2.667    2.286 
#    0.000    1.905    0.000    0.000    0.000    0.000 
#    0.000    0.000    0.000    0.000    0.000    0.000 
#
# Total GULP energy -234444.783016 kJ/mol
# GULP energy per Si atom -5582.018643 kJ/mol
# Density = 2.034893 g / cm^3
# Si number density = 20.395355 Si / 1000 Ang^3
#
#
#
# Elastic Constant Matrix: (Units=GPa)
#
#
# Indices 1 2 3 4 5 6 
#
# 1 211.4120 66.0391 93.4933 0.0000 0.0000 0.0000
# 2 66.0391 110.9022 57.7886 0.0000 0.0000 0.0000
# 3 93.4933 57.7886 174.8974 0.0000 0.0000 0.0000
# 4 0.0000 0.0000 0.0000 58.7078 0.0000 0.0001
# 5 0.0000 0.0000 0.0000 0.0000 20.9522 0.0000
# 6 0.0000 0.0000 0.0000 0.0001 0.0000 4448.9643
#
#
#
# Elastic Compliance Matrix: (Units=1/GPa)
#
#
# Indices 1 2 3 4 5 6 
#
# 1 0.006758 -0.002587 -0.002758 0.000000 0.000000 0.000000
# 2 -0.002587 0.011883 -0.002543 0.000000 0.000000 0.000000
# 3 -0.002758 -0.002543 0.008032 0.000000 0.000000 0.000000
# 4 0.000000 0.000000 0.000000 0.017034 0.000000 0.000000
# 5 0.000000 0.000000 0.000000 0.000000 0.047728 0.000000
# 6 0.000000 0.000000 0.000000 0.000000 0.000000 0.000225
#
#
# Mechanical properties :
#
#
# Convention : Reuss Voigt Hill
#
# Bulk Modulus (GPa) = 91.77174 103.53930 97.65552
# Shear Modulus (GPa) = 45.01800 924.38423 484.70112
#
# Velocity S-wave (km/s) = 4.70325 21.31236 15.43271
# Velocity P-wave (km/s) = 8.63645 25.62223 19.11919
#
# Compressibility (1/GPa) = 0.01089660
#
# Stress axis : x y z
#
# Youngs Moduli (GPa) = 147.97831 84.15561 124.50088
#
# Poissons Ratio (x) = 0.21772 0.34332
# Poissons Ratio (y) = 0.38284 0.31664
# Poissons Ratio (z) = 0.40807 0.21403
#
# Static dielectric constant tensor:
#      x y z
#    x 1.579810 0.000000 0.000000 
#    y 0.000000 1.771220 0.000000 
#    z 0.000000 0.000000 1.728370 
# 
# From -- ./inp_files/71660.got.cif
#   From: 2010.05.17/outbox.cif.g08.bks.cpg/sg74_36_cif.got.tgz:71660.got - 2010.06.03 17:57:02.
