data_PCOD9539642
_publ_section_title
;
Structure prediction by ZEFSAII (Michael W. Deem and Ramdas Pophale) SiO2 
 PCOD9539642
Probable space group: I M M A
;
_chemical_formula_sum "Si O2"
_cell_formula_units_Z 72
_cell_length_a 18.394784
_cell_length_b 8.561546
_cell_length_c 23.996780
_cell_angle_alpha 90.000000
_cell_angle_beta 90.000000
_cell_angle_gamma 90.000000
_cell_volume 3779.199834
_symmetry_space_group_name_H-M "I M M A"
_symmetry_group_IT_number 74
_symmetry_cell_setting 'orthorhombic'
loop_
_space_group_symop_operation_xyz
x,y,z
-x,1/2-y,z
x,-y,-z
-x,1/2+y,-z
-x,-y,-z
x,1/2+y,-z
-x,y,z
x,1/2-y,z
1/2+x,1/2+y,1/2+z
1/2-x,-y,1/2+z
1/2+x,1/2-y,1/2-z
1/2-x,y,1/2-z
1/2-x,1/2-y,1/2-z
1/2+x,y,1/2-z
1/2-x,1/2+y,1/2+z
1/2+x,-y,1/2+z
loop_
_atom_site_type_symbol
_atom_site_label
_atom_site_fract_x
_atom_site_fract_y
_atom_site_fract_z
Si Si1 0.582570 0.940386 0.868408
Si Si2 0.085086 0.062167 0.241339
Si Si3 0.000000 0.938632 0.062834
Si Si4 0.219734 0.936961 0.561989
Si Si5 0.855627 0.436575 0.870243
O O1 0.500000 0.992102 0.880492
O O2 0.581652 0.750000 0.868861
O O3 0.601900 0.985642 0.804852
O O4 0.643437 0.993078 0.911578
O O5 0.091666 0.250000 0.237989
O O6 0.000000 0.022629 0.231378
O O7 0.133182 0.986329 0.193578
O O8 0.927680 0.989337 0.095807
O O9 0.000000 0.750000 0.061641
O O10 0.000000 0.000000 0.000000
O O11 0.218608 0.750000 0.560142
O O12 0.230432 0.000000 0.500000
O O13 0.285130 0.990506 0.601500
O O14 0.851337 0.250000 0.874064
#
# Coordination Sequence:
#
# PCOD9539642 Si02
#       5
#    16  16   8  16  16
#     4   8  17  36  61  86 112 145 186 231 280 337
#     4   9  17  33  59  87 112 144 188 232 275 329
#     4  10  22  36  52  74 104 146 189 226 267 320
#     4  11  23  39  58  82 113 148 189 236 283 332
#     4  11  22  37  55  80 115 152 188 229 281 331
#
# _framework density 19.051651
#
# number of rings (size 3 to 8) (size 9 to 14) (size 15 to 20)
#    0.000    2.222    1.111    3.333    0.000    4.889 
#    0.000    6.667    0.000    4.667    0.000    0.000 
#    0.000    0.000    0.000    0.000    0.000    0.000 
#
# Total GULP energy -201015.192260 kJ/mol
# GULP energy per Si atom -5583.755341 kJ/mol
# Density = 1.900829 g / cm^3
# Si number density = 19.051651 Si / 1000 Ang^3
#
#
#
# Elastic Constant Matrix: (Units=GPa)
#
#
# Indices 1 2 3 4 5 6 
#
# 1 89.9719 24.2717 22.9231 0.0000 0.0000 0.0000
# 2 24.2717 25.1822 17.8853 0.0000 0.0000 0.0000
# 3 22.9231 17.8853 38.3802 0.0000 0.0000 0.0000
# 4 0.0000 0.0000 0.0000 27.7640 0.0000 0.0000
# 5 0.0000 0.0000 0.0000 0.0000 27.3602 0.0000
# 6 0.0000 0.0000 0.0000 0.0000 0.0000 18.9495
#
#
#
# Elastic Compliance Matrix: (Units=1/GPa)
#
#
# Indices 1 2 3 4 5 6 
#
# 1 0.015309 -0.012349 -0.003389 0.000000 0.000000 0.000000
# 2 -0.012349 0.069316 -0.024926 0.000000 0.000000 0.000000
# 3 -0.003389 -0.024926 0.039695 0.000000 0.000000 0.000000
# 4 0.000000 0.000000 0.000000 0.036018 0.000000 0.000000
# 5 0.000000 0.000000 0.000000 0.000000 0.036549 0.000000
# 6 0.000000 0.000000 0.000000 0.000000 0.000000 0.052772
#
#
# Mechanical properties :
#
#
# Convention : Reuss Voigt Hill
#
# Bulk Modulus (GPa) = 23.25985 31.52159 27.39072
# Shear Modulus (GPa) = 14.47936 20.71169 17.59553
#
# Velocity S-wave (km/s) = 2.75981 3.30075 3.04233
# Velocity P-wave (km/s) = 4.73189 5.57744 5.17197
#
# Compressibility (1/GPa) = 0.04299254
#
# Stress axis : x y z
#
# Youngs Moduli (GPa) = 65.31941 14.42661 25.19206
#
# Poissons Ratio (x) = 0.17815 0.08538
# Poissons Ratio (y) = 0.80661 0.62794
# Poissons Ratio (z) = 0.22138 0.35960
#
# Static dielectric constant tensor:
#      x y z
#    x 1.658670 0.000000 0.000000 
#    y 0.000000 1.655020 0.000000 
#    z 0.000000 0.000000 1.636640 
# 
# From -- ./inp_files/56638.got.cif
#   From: 2010.05.17/outbox.cif.g08.bks.cpg/sg74_29_cif.got.tgz:56638.got - 2010.06.03 17:57:02.
