data_PCOD9539253
_publ_section_title
;
Structure prediction by ZEFSAII (Michael W. Deem and Ramdas Pophale) SiO2 
 PCOD9539253
Probable space group: I M M A
;
_chemical_formula_sum "Si O2"
_cell_formula_units_Z 80
_cell_length_a 28.466345
_cell_length_b 8.293435
_cell_length_c 19.947610
_cell_angle_alpha 90.000000
_cell_angle_beta 90.000000
_cell_angle_gamma 90.000000
_cell_volume 4709.307210
_symmetry_space_group_name_H-M "I M M A"
_symmetry_group_IT_number 74
_symmetry_cell_setting 'orthorhombic'
loop_
_space_group_symop_operation_xyz
x,y,z
-x,1/2-y,z
x,-y,-z
-x,1/2+y,-z
-x,-y,-z
x,1/2+y,-z
-x,y,z
x,1/2-y,z
1/2+x,1/2+y,1/2+z
1/2-x,-y,1/2+z
1/2+x,1/2-y,1/2-z
1/2-x,y,1/2-z
1/2-x,1/2-y,1/2-z
1/2+x,y,1/2-z
1/2-x,1/2+y,1/2+z
1/2+x,-y,1/2+z
loop_
_atom_site_type_symbol
_atom_site_label
_atom_site_fract_x
_atom_site_fract_y
_atom_site_fract_z
Si Si1 0.691329 0.564395 0.429941
Si Si2 0.205649 0.440170 0.432296
Si Si3 0.799912 0.440042 0.713484
Si Si4 0.631107 0.567510 0.679565
Si Si5 0.945909 0.943060 0.075469
O O1 0.672456 0.500000 0.500000
O O2 0.677901 0.750000 0.416873
O O3 0.746948 0.546739 0.432774
O O4 0.672901 0.444712 0.374319
O O5 0.179118 0.500000 0.500000
O O6 0.215391 0.250000 0.439418
O O7 0.188858 0.471960 0.356647
O O8 0.793610 0.250000 0.700803
O O9 0.750000 0.492857 0.750000
O O10 0.845329 0.467129 0.760592
O O11 0.622477 0.750000 0.701182
O O12 0.587310 0.504245 0.635534
O O13 0.943959 0.750000 0.075320
O O14 0.000000 0.995222 0.086445
O O15 0.933065 0.000000 0.000000
#
# Coordination Sequence:
#
# PCOD9539253 Si02
#       5
#    16  16  16  16  16
#     4  11  20  31  45  65  93 128 170 213 254 300
#     4  11  21  34  51  70  96 131 172 212 256 305
#     4  11  22  36  53  73 102 137 175 220 266 313
#     4  12  23  34  51  74 101 134 173 218 265 317
#     4  10  21  38  58  79 106 140 179 224 272 321
#
# _framework density 16.987636999999999
#
# number of rings (size 3 to 8) (size 9 to 14) (size 15 to 20)
#    0.000    1.000    2.000    8.400    0.000    2.000 
#    0.000    0.000    0.000    0.000    0.000    0.000 
#    0.000    0.800    0.000    3.000    0.000    4.600 
#
# Total GULP energy -222899.905282 kJ/mol
# GULP energy per Si atom -5572.497632 kJ/mol
# Density = 1.694897 g / cm^3
# Si number density = 16.987637 Si / 1000 Ang^3
#
#
#
# Elastic Constant Matrix: (Units=GPa)
#
#
# Indices 1 2 3 4 5 6 
#
# 1 63.0555 9.9180 33.1340 0.0000 0.0000 0.0000
# 2 9.9180 82.2244 19.9581 0.0000 0.0000 0.0000
# 3 33.1340 19.9581 117.7313 0.0000 0.0000 0.0000
# 4 0.0000 0.0000 0.0000 28.8937 0.0000 0.0000
# 5 0.0000 0.0000 0.0000 0.0000 4.5006 0.0000
# 6 0.0000 0.0000 0.0000 0.0000 0.0000 39.1589
#
#
#
# Elastic Compliance Matrix: (Units=1/GPa)
#
#
# Indices 1 2 3 4 5 6 
#
# 1 0.018693 -0.001020 -0.005088 0.000000 0.000000 0.000000
# 2 -0.001020 0.012739 -0.001873 0.000000 0.000000 0.000000
# 3 -0.005088 -0.001873 0.010243 0.000000 0.000000 0.000000
# 4 0.000000 0.000000 0.000000 0.034610 0.000000 0.000000
# 5 0.000000 0.000000 0.000000 0.000000 0.222190 0.000000
# 6 0.000000 0.000000 0.000000 0.000000 0.000000 0.025537
#
#
# Mechanical properties :
#
#
# Convention : Reuss Voigt Hill
#
# Bulk Modulus (GPa) = 38.88794 43.22571 41.05682
# Shear Modulus (GPa) = 14.34534 27.84406 21.09470
#
# Velocity S-wave (km/s) = 2.90911 4.05294 3.52770
# Velocity P-wave (km/s) = 5.85026 6.88494 6.38858
#
# Compressibility (1/GPa) = 0.02571491
#
# Stress axis : x y z
#
# Youngs Moduli (GPa) = 53.49571 78.49680 97.62438
#
# Poissons Ratio (x) = 0.08005 0.49672
# Poissons Ratio (y) = 0.05455 0.18281
# Poissons Ratio (z) = 0.27219 0.14699
#
# Static dielectric constant tensor:
#      x y z
#    x 1.588860 0.000000 0.000000 
#    y 0.000000 1.570550 0.000000 
#    z 0.000000 0.000000 1.671160 
# 
# From -- ./inp_files/55489.got.cif
#   From: 2010.05.17/outbox.cif.g08.bks.cpg/sg74_28_cif.got.tgz:55489.got - 2010.06.03 17:57:02.
