data_PCOD9539391
_publ_section_title
;
Structure prediction by ZEFSAII (Michael W. Deem and Ramdas Pophale) SiO2 
 PCOD9539391
Probable space group: I M M A
;
_chemical_formula_sum "Si O2"
_cell_formula_units_Z 64
_cell_length_a 26.502179
_cell_length_b 17.841240
_cell_length_c 6.599403
_cell_angle_alpha 90.000000
_cell_angle_beta 90.000000
_cell_angle_gamma 90.000000
_cell_volume 3120.407177
_symmetry_space_group_name_H-M "I M M A"
_symmetry_group_IT_number 74
_symmetry_cell_setting 'orthorhombic'
loop_
_space_group_symop_operation_xyz
x,y,z
-x,1/2-y,z
x,-y,-z
-x,1/2+y,-z
-x,-y,-z
x,1/2+y,-z
-x,y,z
x,1/2-y,z
1/2+x,1/2+y,1/2+z
1/2-x,-y,1/2+z
1/2+x,1/2-y,1/2-z
1/2-x,y,1/2-z
1/2-x,1/2-y,1/2-z
1/2+x,y,1/2-z
1/2-x,1/2+y,1/2+z
1/2+x,-y,1/2+z
loop_
_atom_site_type_symbol
_atom_site_label
_atom_site_fract_x
_atom_site_fract_y
_atom_site_fract_z
Si Si1 0.442303 0.090562 0.022168
Si Si2 0.286434 0.423233 0.083697
Si Si3 0.122178 0.574112 0.879274
Si Si4 0.351679 0.338948 0.767927
O O1 0.500000 0.112491 0.985980
O O2 0.423777 0.107522 0.250756
O O3 0.402962 0.130266 0.872809
O O4 0.438877 0.000000 0.000000
O O5 0.250000 0.386935 0.250000
O O6 0.336211 0.446862 0.210399
O O7 0.262228 0.500000 0.000000
O O8 0.305771 0.372465 0.900626
O O9 0.106592 0.500000 0.000000
O O10 0.146965 0.629790 0.040485
O O11 0.350247 0.250000 0.772925
#
# Coordination Sequence:
#
# PCOD9539391 Si02
#       4
#    16  16  16  16
#     4  10  21  38  64  93 120 159 211 257 300 361
#     4  11  23  39  67  94 118 158 208 253 300 365
#     4  11  19  38  62  90 121 161 208 250 299 363
#     4  11  24  41  60  90 130 164 198 253 313 361
#
# _framework density 20.510142999999999
#
# number of rings (size 3 to 8) (size 9 to 14) (size 15 to 20)
#    0.000    1.250    5.000    2.250    0.000    6.500 
#    0.000    1.250    0.000    0.000    0.000    0.000 
#    0.000    0.000    0.000    0.000    0.000    0.000 
#
# Total GULP energy -178839.403208 kJ/mol
# GULP energy per Si atom -5588.731350 kJ/mol
# Density = 2.046346 g / cm^3
# Si number density = 20.510143 Si / 1000 Ang^3
#
#
#
# Elastic Constant Matrix: (Units=GPa)
#
#
# Indices 1 2 3 4 5 6 
#
# 1 65.9829 1.9755 16.9373 0.0000 0.0000 0.0000
# 2 1.9755 97.2868 32.3223 0.0000 0.0000 0.0000
# 3 16.9373 32.3223 111.8094 0.0000 0.0000 0.0000
# 4 0.0000 0.0000 0.0000 17.7990 0.0000 0.0000
# 5 0.0000 0.0000 0.0000 0.0000 26.2408 0.0000
# 6 0.0000 0.0000 0.0000 0.0000 0.0000 6.7435
#
#
#
# Elastic Compliance Matrix: (Units=1/GPa)
#
#
# Indices 1 2 3 4 5 6 
#
# 1 0.015793 0.000525 -0.002544 0.000000 0.000000 0.000000
# 2 0.000525 0.011388 -0.003372 0.000000 0.000000 0.000000
# 3 -0.002544 -0.003372 0.010304 0.000000 0.000000 0.000000
# 4 0.000000 0.000000 0.000000 0.056183 0.000000 0.000000
# 5 0.000000 0.000000 0.000000 0.000000 0.038109 0.000000
# 6 0.000000 0.000000 0.000000 0.000000 0.000000 0.148291
#
#
# Mechanical properties :
#
#
# Convention : Reuss Voigt Hill
#
# Bulk Modulus (GPa) = 37.44929 41.94994 39.69962
# Shear Modulus (GPa) = 16.68049 25.07959 20.88004
#
# Velocity S-wave (km/s) = 2.85490 3.50063 3.19413
# Velocity P-wave (km/s) = 5.40054 6.06934 5.74468
#
# Compressibility (1/GPa) = 0.02670278
#
# Stress axis : x y z
#
# Youngs Moduli (GPa) = 63.32020 87.80844 97.05105
#
# Poissons Ratio (x) = -0.04606 0.24690
# Poissons Ratio (y) = -0.03321 0.32722
# Poissons Ratio (z) = 0.16108 0.29606
#
# Static dielectric constant tensor:
#      x y z
#    x 1.754670 0.000000 0.000000 
#    y 0.000000 1.702630 0.000000 
#    z 0.000000 0.000000 1.747100 
# 
# From -- ./inp_files/2339.got.cif
#   From: 2010.05.17/outbox.cif.g08.bks.cpg/sg74_2_cif.got.tgz:2339.got - 2010.06.03 17:57:02.
