data_PCOD9539511
_publ_section_title
;
Structure prediction by ZEFSAII (Michael W. Deem and Ramdas Pophale) SiO2 
 PCOD9539511
Probable space group: I M M A
;
_chemical_formula_sum "Si O2"
_cell_formula_units_Z 88
_cell_length_a 29.285004
_cell_length_b 22.685261
_cell_length_c 5.629600
_cell_angle_alpha 90.000000
_cell_angle_beta 90.000000
_cell_angle_gamma 90.000000
_cell_volume 3739.956975
_symmetry_space_group_name_H-M "I M M A"
_symmetry_group_IT_number 74
_symmetry_cell_setting 'orthorhombic'
loop_
_space_group_symop_operation_xyz
x,y,z
-x,1/2-y,z
x,-y,-z
-x,1/2+y,-z
-x,-y,-z
x,1/2+y,-z
-x,y,z
x,1/2-y,z
1/2+x,1/2+y,1/2+z
1/2-x,-y,1/2+z
1/2+x,1/2-y,1/2-z
1/2-x,y,1/2-z
1/2-x,1/2-y,1/2-z
1/2+x,y,1/2-z
1/2-x,1/2+y,1/2+z
1/2+x,-y,1/2+z
loop_
_atom_site_type_symbol
_atom_site_label
_atom_site_fract_x
_atom_site_fract_y
_atom_site_fract_z
Si Si1 0.834688 0.000000 0.000000
Si Si2 0.722564 0.183872 0.002746
Si Si3 0.657315 0.402462 0.807023
Si Si4 0.500000 0.061972 0.133114
Si Si5 0.000000 0.180393 0.701966
Si Si6 0.904420 0.818048 0.007570
Si Si7 0.402804 0.079555 0.200988
O O1 0.813192 0.953719 0.182495
O O2 0.866618 0.044642 0.144615
O O3 0.702227 0.250000 0.996657
O O4 0.750000 0.178059 0.750000
O O5 0.687025 0.130788 0.001350
O O6 0.750000 0.180300 0.250000
O O7 0.636289 0.351258 0.644814
O O8 0.612620 0.430532 0.931497
O O9 0.453045 0.060682 0.272623
O O10 0.500000 0.123574 0.977333
O O11 0.500000 0.000000 0.000000
O O12 0.953482 0.175313 0.859391
O O13 0.000000 0.250000 0.608243
O O14 0.894511 0.750000 0.985103
O O15 0.904541 0.850887 0.755594
#
# Coordination Sequence:
#
# PCOD9539511 Si02
#       7
#     8  16  16   8   8  16  16
#     4  10  24  41  64  94 130 176 224 288 330 407
#     4  10  24  45  73 108 142 174 222 287 354 430
#     4  11  22  42  69  95 131 174 221 278 344 409
#     4  12  23  37  62  91 123 180 236 279 332 400
#     4  10  21  40  56  86 136 175 222 290 346 407
#     4  10  22  38  61  91 128 175 222 273 345 414
#     4  11  24  39  63  92 131 171 228 280 334 396
#
# _framework density 23.529681
#
# number of rings (size 3 to 8) (size 9 to 14) (size 15 to 20)
#    0.000    1.455    1.818    2.727    7.636    2.545 
#    0.000    0.000    4.000    0.000    0.000    0.000 
#    0.000    0.000    0.000    0.000    0.000    0.000 
#
# Total GULP energy -245457.334467 kJ/mol
# GULP energy per Si atom -5578.575783 kJ/mol
# Density = 2.347613 g / cm^3
# Si number density = 23.529681 Si / 1000 Ang^3
#
#
#
# Elastic Constant Matrix: (Units=GPa)
#
#
# Indices 1 2 3 4 5 6 
#
# 1 35.8870 24.9259 5.6495 0.0000 0.0000 0.0000
# 2 24.9259 156.5935 27.4999 0.0000 0.0000 0.0000
# 3 5.6495 27.4999 55.1618 0.0000 0.0000 0.0000
# 4 0.0000 0.0000 0.0000 48.8127 0.0000 0.0000
# 5 0.0000 0.0000 0.0000 0.0000 9.6536 0.0000
# 6 0.0000 0.0000 0.0000 0.0000 0.0000 17.9984
#
#
#
# Elastic Compliance Matrix: (Units=1/GPa)
#
#
# Indices 1 2 3 4 5 6 
#
# 1 0.031361 -0.004853 -0.000793 0.000000 0.000000 0.000000
# 2 -0.004853 0.007750 -0.003366 0.000000 0.000000 0.000000
# 3 -0.000793 -0.003366 0.019888 0.000000 0.000000 0.000000
# 4 0.000000 0.000000 0.000000 0.020486 0.000000 0.000000
# 5 0.000000 0.000000 0.000000 0.000000 0.103588 0.000000
# 6 0.000000 0.000000 0.000000 0.000000 0.000000 0.055561
#
#
# Mechanical properties :
#
#
# Convention : Reuss Voigt Hill
#
# Bulk Modulus (GPa) = 24.40536 40.42145 32.41341
# Shear Modulus (GPa) = 18.49694 27.93073 23.21383
#
# Velocity S-wave (km/s) = 2.80681 3.44909 3.14439
# Velocity P-wave (km/s) = 4.57153 5.75133 5.19503
#
# Compressibility (1/GPa) = 0.04097460
#
# Stress axis : x y z
#
# Youngs Moduli (GPa) = 31.88721 129.03936 50.28177
#
# Poissons Ratio (x) = 0.62618 0.03986
# Poissons Ratio (y) = 0.15474 0.16927
# Poissons Ratio (z) = 0.02528 0.43440
#
# Static dielectric constant tensor:
#      x y z
#    x 2.245970 0.000000 0.000000 
#    y 0.000000 1.884030 0.000000 
#    z 0.000000 0.000000 1.993640 
# 
# From -- ./inp_files/5169.got.cif
#   From: 2010.05.17/outbox.cif.g08.bks.cpg/sg74_3_cif.got.tgz:5169.got - 2010.06.03 17:57:02.
