data_PCOD9539017
_publ_section_title
;
Structure prediction by ZEFSAII (Michael W. Deem and Ramdas Pophale) SiO2 
 PCOD9539017
Probable space group: I M M A
;
_chemical_formula_sum "Si O2"
_cell_formula_units_Z 116
_cell_length_a 16.835022
_cell_length_b 25.922220
_cell_length_c 13.270663
_cell_angle_alpha 90.000000
_cell_angle_beta 90.000000
_cell_angle_gamma 90.000000
_cell_volume 5791.332515
_symmetry_space_group_name_H-M "I M M A"
_symmetry_group_IT_number 74
_symmetry_cell_setting 'orthorhombic'
loop_
_space_group_symop_operation_xyz
x,y,z
-x,1/2-y,z
x,-y,-z
-x,1/2+y,-z
-x,-y,-z
x,1/2+y,-z
-x,y,z
x,1/2-y,z
1/2+x,1/2+y,1/2+z
1/2-x,-y,1/2+z
1/2+x,1/2-y,1/2-z
1/2-x,y,1/2-z
1/2-x,1/2-y,1/2-z
1/2+x,y,1/2-z
1/2-x,1/2+y,1/2+z
1/2+x,-y,1/2+z
loop_
_atom_site_type_symbol
_atom_site_label
_atom_site_fract_x
_atom_site_fract_y
_atom_site_fract_z
Si Si1 0.594672 0.057627 0.531035
Si Si2 0.909001 0.328721 0.274652
Si Si3 0.594322 0.406239 0.956819
Si Si4 0.408303 0.551968 0.830626
Si Si5 0.000000 0.250000 0.974755
Si Si6 0.842407 0.452902 0.748725
Si Si7 0.367423 0.829511 0.544441
Si Si8 0.682962 0.193959 0.026861
O O1 0.500000 0.056844 0.517126
O O2 0.617071 0.064127 0.648026
O O3 0.624432 0.108725 0.473294
O O4 0.624752 0.000000 0.500000
O O5 0.906993 0.390597 0.286985
O O6 0.887402 0.316174 0.160633
O O7 0.848849 0.307979 0.358026
O O8 0.000000 0.312311 0.295804
O O9 0.500000 0.398820 0.965827
O O10 0.616985 0.429652 0.850324
O O11 0.616740 0.442230 0.052540
O O12 0.638385 0.352336 0.971865
O O13 0.500000 0.533209 0.827176
O O14 0.354858 0.514031 0.766329
O O15 0.930118 0.295710 0.981382
O O16 0.750000 0.439561 0.750000
O O17 0.276844 0.814615 0.523531
O O18 0.662921 0.250000 0.984220
#
# Coordination Sequence:
#
# PCOD9539017 Si02
#       8
#    16  16  16  16   4  16  16  16
#     4  11  24  42  65  90 121 161 203 257 305 362
#     4  10  21  36  58  89 129 165 206 253 308 380
#     4  10  22  42  64  89 122 162 204 256 319 384
#     4   9  19  37  60  89 120 162 201 249 308 375
#     4  12  24  40  64  84 120 190 212 250 302 396
#     4  12  24  37  61  90 124 159 204 251 313 373
#     4  12  23  41  61  90 127 166 218 251 311 379
#     4  11  24  38  61  91 123 157 205 270 316 361
#
# _framework density 20.029933
#
# number of rings (size 3 to 8) (size 9 to 14) (size 15 to 20)
#    0.000    1.241    2.069    4.966    0.966   10.483 
#    0.000    0.000    1.517    1.241    0.000    0.000 
#    0.000    0.000    0.000    0.000    0.000    0.000 
#
# Total GULP energy -323654.780900 kJ/mol
# GULP energy per Si atom -5580.254843 kJ/mol
# Density = 1.998434 g / cm^3
# Si number density = 20.029933 Si / 1000 Ang^3
#
#
#
# Elastic Constant Matrix: (Units=GPa)
#
#
# Indices 1 2 3 4 5 6 
#
# 1 69.4940 18.5007 -10.8903 0.0000 0.0000 0.0000
# 2 18.5007 99.2090 -4.8459 0.0000 0.0000 0.0000
# 3 -10.8903 -4.8459 37.8524 -0.0001 0.0000 -0.0001
# 4 0.0000 0.0000 -0.0001 -5.1306 0.0000 0.0000
# 5 0.0000 0.0000 0.0000 0.0000 28.4053 0.0000
# 6 0.0000 0.0000 -0.0001 0.0000 0.0000 39.5192
#
#
#
# Elastic Compliance Matrix: (Units=1/GPa)
#
#
# Indices 1 2 3 4 5 6 
#
# 1 0.015775 -0.002737 0.004188 0.000000 0.000000 0.000000
# 2 -0.002737 0.010618 0.000572 0.000000 0.000000 0.000000
# 3 0.004188 0.000572 0.027697 -0.000001 0.000000 0.000000
# 4 0.000000 0.000000 -0.000001 -0.194907 0.000000 0.000000
# 5 0.000000 0.000000 0.000000 0.000000 0.035205 0.000000
# 6 0.000000 0.000000 0.000000 0.000000 0.000000 0.025304
#
#
# Mechanical properties :
#
#
# Convention : Reuss Voigt Hill
#
# Bulk Modulus (GPa) = 17.20138 23.56493 20.38316
# Shear Modulus (GPa) = -76.95123 26.14482 -25.40320
#
# Velocity S-wave (km/s) = -6.20496 3.61680 -3.56513
# Velocity P-wave (km/s) = 6.53673 5.40666 2.59777
#
# Compressibility (1/GPa) = 0.05813486
#
# Stress axis : x y z
#
# Youngs Moduli (GPa) = 63.39257 94.17893 36.10559
#
# Poissons Ratio (x) = 0.25778 -0.15121
# Poissons Ratio (y) = 0.17351 -0.02065
# Poissons Ratio (z) = -0.26549 -0.05386
#
# Static dielectric constant tensor:
#      x y z
#    x 1.683570 0.000000 0.000000 
#    y 0.000000 1.738380 0.000000 
#    z 0.000000 0.000000 1.696410 
# 
# From -- ./inp_files/22821.got.cif
#   From: 2010.05.17/outbox.cif.g08.bks.cpg/sg74_12_cif.got.tgz:22821.got - 2010.06.03 17:57:02.
