data_PCOD9539118
_publ_section_title
;
Structure prediction by ZEFSAII (Michael W. Deem and Ramdas Pophale) SiO2 
 PCOD9539118
Probable space group: I M M A
;
_chemical_formula_sum "Si O2"
_cell_formula_units_Z 96
_cell_length_a 8.692126
_cell_length_b 27.686948
_cell_length_c 20.713025
_cell_angle_alpha 90.000000
_cell_angle_beta 90.000000
_cell_angle_gamma 90.000000
_cell_volume 4984.764296
_symmetry_space_group_name_H-M "I M M A"
_symmetry_group_IT_number 74
_symmetry_cell_setting 'orthorhombic'
loop_
_space_group_symop_operation_xyz
x,y,z
-x,1/2-y,z
x,-y,-z
-x,1/2+y,-z
-x,-y,-z
x,1/2+y,-z
-x,y,z
x,1/2-y,z
1/2+x,1/2+y,1/2+z
1/2-x,-y,1/2+z
1/2+x,1/2-y,1/2-z
1/2-x,y,1/2-z
1/2-x,1/2-y,1/2-z
1/2+x,y,1/2-z
1/2-x,1/2+y,1/2+z
1/2+x,-y,1/2+z
loop_
_atom_site_type_symbol
_atom_site_label
_atom_site_fract_x
_atom_site_fract_y
_atom_site_fract_z
Si Si1 0.316463 0.618185 0.320245
Si Si2 0.816470 0.194471 0.579626
Si Si3 0.314562 0.351306 0.453359
Si Si4 0.183364 0.988117 0.320290
Si Si5 0.315110 0.806245 0.682166
Si Si6 0.314802 0.462470 0.444302
O O1 0.500000 0.614489 0.317332
O O2 0.250000 0.631489 0.250000
O O3 0.265624 0.657392 0.372321
O O4 0.248276 0.565371 0.335980
O O5 0.774638 0.250000 0.593551
O O6 0.765689 0.180728 0.507443
O O7 0.000000 0.189411 0.586146
O O8 0.500000 0.345365 0.458804
O O9 0.268116 0.335263 0.381410
O O10 0.278084 0.407631 0.463448
O O11 0.250000 0.001516 0.250000
O O12 0.000000 0.986141 0.316588
O O13 0.238333 0.023246 0.376842
O O14 0.500000 0.807479 0.685536
O O15 0.267494 0.750000 0.675185
O O16 0.250000 0.824744 0.750000
O O17 0.267844 0.500000 0.500000
O O18 0.500000 0.465868 0.436811
#
# Coordination Sequence:
#
# PCOD9539118 Si02
#       6
#    16  16  16  16  16  16
#     4  11  22  39  63  88 117 152 191 236 286 342
#     4  11  24  40  59  86 119 153 192 238 286 340
#     4  10  21  37  58  83 113 150 191 237 287 339
#     4  11  22  38  61  87 118 154 193 237 286 343
#     4   9  18  33  53  77 106 141 182 227 277 333
#     4  10  21  37  57  83 115 150 190 237 288 340
#
# _framework density 19.258682
#
# number of rings (size 3 to 8) (size 9 to 14) (size 15 to 20)
#    0.000    1.667    0.000    6.000    0.000    6.000 
#    0.000    3.333    0.000    0.000    0.000    0.000 
#    0.000    0.000    0.000    0.000    0.000    0.000 
#
# Total GULP energy -268337.029555 kJ/mol
# GULP energy per Si atom -5590.354782 kJ/mol
# Density = 1.921485 g / cm^3
# Si number density = 19.258682 Si / 1000 Ang^3
#
#
#
# Elastic Constant Matrix: (Units=GPa)
#
#
# Indices 1 2 3 4 5 6 
#
# 1 57.3681 11.4499 5.0593 0.0000 0.0000 -0.0004
# 2 11.4499 20.6716 -4.6433 0.0001 0.0000 -0.0006
# 3 5.0593 -4.6433 31.5856 0.0005 0.0000 -0.0027
# 4 0.0000 0.0001 0.0005 11.9141 0.0000 -0.0024
# 5 0.0000 0.0000 0.0000 0.0000 36.5617 -0.0001
# 6 -0.0004 -0.0006 -0.0027 -0.0024 -0.0001 522.3095
#
#
#
# Elastic Compliance Matrix: (Units=1/GPa)
#
#
# Indices 1 2 3 4 5 6 
#
# 1 0.020359 -0.012419 -0.005087 0.000000 0.000000 0.000000
# 2 -0.012419 0.057604 0.010457 -0.000001 0.000000 0.000000
# 3 -0.005087 0.010457 0.034012 -0.000001 0.000000 0.000000
# 4 0.000000 -0.000001 -0.000001 0.083934 0.000000 0.000000
# 5 0.000000 0.000000 0.000000 0.000000 0.027351 0.000000
# 6 0.000000 0.000000 0.000000 0.000000 0.000000 0.001915
#
#
# Mechanical properties :
#
#
# Convention : Reuss Voigt Hill
#
# Bulk Modulus (GPa) = 10.21688 14.81746 12.51717
# Shear Modulus (GPa) = 18.38933 120.67435 69.53184
#
# Velocity S-wave (km/s) = 3.09343 7.92438 6.01519
# Velocity P-wave (km/s) = 4.25155 9.56234 7.39980
#
# Compressibility (1/GPa) = 0.09787721
#
# Stress axis : x y z
#
# Youngs Moduli (GPa) = 49.11931 17.36005 29.40136
#
# Poissons Ratio (x) = 0.21560 0.14956
# Poissons Ratio (y) = 0.61002 -0.30746
# Poissons Ratio (z) = 0.24985 -0.18154
#
# Static dielectric constant tensor:
#      x y z
#    x 1.649200 0.000000 0.000000 
#    y 0.000000 1.658180 0.000000 
#    z 0.000000 0.000000 1.653170 
# 
# From -- ./inp_files/49076.got.cif
#   From: 2010.05.17/outbox.cif.g08.bks.cpg/sg74_25_cif.got.tgz:49076.got - 2010.06.03 17:57:02.
