data_PCOD9539654
_publ_section_title
;
Structure prediction by ZEFSAII (Michael W. Deem and Ramdas Pophale) SiO2 
 PCOD9539654
Probable space group: I M M A
;
_chemical_formula_sum "Si O2"
_cell_formula_units_Z 104
_cell_length_a 9.715861
_cell_length_b 20.605975
_cell_length_c 26.674813
_cell_angle_alpha 90.000000
_cell_angle_beta 90.000000
_cell_angle_gamma 90.000000
_cell_volume 5340.425305
_symmetry_space_group_name_H-M "I M M A"
_symmetry_group_IT_number 74
_symmetry_cell_setting 'orthorhombic'
loop_
_space_group_symop_operation_xyz
x,y,z
-x,1/2-y,z
x,-y,-z
-x,1/2+y,-z
-x,-y,-z
x,1/2+y,-z
-x,y,z
x,1/2-y,z
1/2+x,1/2+y,1/2+z
1/2-x,-y,1/2+z
1/2+x,1/2-y,1/2-z
1/2-x,y,1/2-z
1/2-x,1/2-y,1/2-z
1/2+x,y,1/2-z
1/2-x,1/2+y,1/2+z
1/2+x,-y,1/2+z
loop_
_atom_site_type_symbol
_atom_site_label
_atom_site_fract_x
_atom_site_fract_y
_atom_site_fract_z
Si Si1 0.665404 0.750000 0.334455
Si Si2 0.836880 0.173553 0.298823
Si Si3 0.161289 0.583767 0.606267
Si Si4 0.776312 0.606356 0.183046
Si Si5 0.342791 0.883965 0.007037
Si Si6 0.842403 0.750000 0.434039
Si Si7 0.500000 0.573816 0.234013
Si Si8 0.659894 0.959728 0.417915
O O1 0.500000 0.750000 0.336494
O O2 0.713518 0.683768 0.308211
O O3 0.735339 0.750000 0.388944
O O4 0.810531 0.250000 0.308761
O O5 0.750000 0.154250 0.250000
O O6 0.804374 0.130046 0.347053
O O7 0.000000 0.166498 0.288435
O O8 0.174392 0.619248 0.552650
O O9 0.260622 0.522523 0.602614
O O10 0.000000 0.564617 0.611689
O O11 0.622661 0.581880 0.191979
O O12 0.880860 0.573333 0.221635
O O13 0.824450 0.592760 0.126541
O O14 0.500000 0.906565 0.016841
O O15 0.326662 0.813842 0.032221
O O16 0.237196 0.932510 0.033343
O O17 0.000000 0.750000 0.413760
O O18 0.500000 0.972558 0.427533
#
# Coordination Sequence:
#
# PCOD9539654 Si02
#       8
#     8  16  16  16  16   8   8  16
#     4  12  22  37  60  83 119 157 205 256 310 364
#     4   9  19  39  66  95 127 160 194 243 305 367
#     4  10  23  41  64  94 122 161 203 249 300 362
#     4  11  24  41  60  86 118 159 204 262 308 360
#     4  10  22  40  64  92 122 158 203 254 303 367
#     4  10  22  36  61  95 118 154 200 250 311 364
#     4  10  24  43  60  86 116 156 209 258 312 356
#     4  12  24  41  60  87 125 166 208 251 306 360
#
# _framework density 19.474105000000002
#
# number of rings (size 3 to 8) (size 9 to 14) (size 15 to 20)
#    0.000    1.538    3.077    0.923    4.308    4.923 
#    2.769    0.000    0.000    0.000    0.000    0.000 
#    0.000    0.000    0.000    0.000    0.000    0.000 
#
# Total GULP energy -289486.430025 kJ/mol
# GULP energy per Si atom -5567.046731 kJ/mol
# Density = 1.942978 g / cm^3
# Si number density = 19.474105 Si / 1000 Ang^3
#
#
#
# Elastic Constant Matrix: (Units=GPa)
#
#
# Indices 1 2 3 4 5 6 
#
# 1 145.9128 45.0655 66.2819 0.0000 0.0000 0.0000
# 2 45.0655 58.9360 44.8568 0.0000 0.0000 0.0000
# 3 66.2819 44.8568 124.0117 0.0000 0.0000 0.0000
# 4 0.0000 0.0000 0.0000 35.0522 0.0000 0.0000
# 5 0.0000 0.0000 0.0000 0.0000 36.5155 0.0000
# 6 0.0000 0.0000 0.0000 0.0000 0.0000 9.0008
#
#
#
# Elastic Compliance Matrix: (Units=1/GPa)
#
#
# Indices 1 2 3 4 5 6 
#
# 1 0.009993 -0.004934 -0.003556 0.000000 0.000000 0.000000
# 2 -0.004934 0.025850 -0.006713 0.000000 0.000000 0.000000
# 3 -0.003556 -0.006713 0.012393 0.000000 0.000000 0.000000
# 4 0.000000 0.000000 0.000000 0.028529 0.000000 0.000000
# 5 0.000000 0.000000 0.000000 0.000000 0.027386 0.000000
# 6 0.000000 0.000000 0.000000 0.000000 0.000000 0.111101
#
#
# Mechanical properties :
#
#
# Convention : Reuss Voigt Hill
#
# Bulk Modulus (GPa) = 56.09026 71.25210 63.67118
# Shear Modulus (GPa) = 19.87276 27.62413 23.74845
#
# Velocity S-wave (km/s) = 3.19795 3.77039 3.49591
# Velocity P-wave (km/s) = 6.51927 7.45802 7.00439
#
# Compressibility (1/GPa) = 0.01782841
#
# Stress axis : x y z
#
# Youngs Moduli (GPa) = 100.07204 38.68479 80.69332
#
# Poissons Ratio (x) = 0.19089 0.28695
# Poissons Ratio (y) = 0.49380 0.54169
# Poissons Ratio (z) = 0.35587 0.25969
#
# Static dielectric constant tensor:
#      x y z
#    x 1.657440 0.000000 0.000000 
#    y 0.000000 1.707590 0.000000 
#    z 0.000000 0.000000 1.692020 
# 
# From -- ./inp_files/64566.got.cif
#   From: 2010.05.17/outbox.cif.g08.bks.cpg/sg74_33_cif.got.tgz:64566.got - 2010.06.03 17:57:02.
