data_PCOD9539983
_publ_section_title
;
Structure prediction by ZEFSAII (Michael W. Deem and Ramdas Pophale) SiO2 
 PCOD9539983
Probable space group: I M M A
;
_chemical_formula_sum "Si O2"
_cell_formula_units_Z 88
_cell_length_a 9.852724
_cell_length_b 21.688276
_cell_length_c 21.664550
_cell_angle_alpha 90.000000
_cell_angle_beta 90.000000
_cell_angle_gamma 90.000000
_cell_volume 4629.467304
_symmetry_space_group_name_H-M "I M M A"
_symmetry_group_IT_number 74
_symmetry_cell_setting 'orthorhombic'
loop_
_space_group_symop_operation_xyz
x,y,z
-x,1/2-y,z
x,-y,-z
-x,1/2+y,-z
-x,-y,-z
x,1/2+y,-z
-x,y,z
x,1/2-y,z
1/2+x,1/2+y,1/2+z
1/2-x,-y,1/2+z
1/2+x,1/2-y,1/2-z
1/2-x,y,1/2-z
1/2-x,1/2-y,1/2-z
1/2+x,y,1/2-z
1/2-x,1/2+y,1/2+z
1/2+x,-y,1/2+z
loop_
_atom_site_type_symbol
_atom_site_label
_atom_site_fract_x
_atom_site_fract_y
_atom_site_fract_z
Si Si1 0.836567 0.250000 0.813464
Si Si2 0.770190 0.391478 0.368086
Si Si3 0.000000 0.322212 0.144188
Si Si4 0.155180 0.070958 0.502395
Si Si5 0.000000 0.176683 0.291757
Si Si6 0.656511 0.015639 0.692745
Si Si7 0.344695 0.368335 0.601275
O O1 0.750000 0.250000 0.750000
O O2 0.807193 0.189923 0.855754
O O3 0.000000 0.250000 0.799982
O O4 0.635236 0.352784 0.381236
O O5 0.842045 0.405398 0.432498
O O6 0.721410 0.454894 0.337088
O O7 0.868763 0.354727 0.322235
O O8 0.000000 0.332587 0.218325
O O9 0.000000 0.250000 0.132764
O O10 0.245330 0.114804 0.545394
O O11 0.000000 0.068927 0.525730
O O12 0.207200 0.000000 0.500000
O O13 0.000000 0.250000 0.303626
O O14 0.500000 0.003283 0.711110
O O15 0.750000 0.033464 0.750000
O O16 0.656374 0.071150 0.644314
O O17 0.500000 0.358343 0.579469
#
# Coordination Sequence:
#
# PCOD9539983 Si02
#       7
#     8  16   8  16   8  16  16
#     4  10  22  44  70 100 136 174 215 266 325 389
#     4  12  23  40  61  94 122 162 215 259 315 375
#     4  11  24  42  63  90 124 165 206 251 321 383
#     4  11  24  43  63  90 129 168 211 263 320 379
#     4  11  24  44  65  88 128 165 204 263 317 377
#     4  11  23  37  61  95 126 158 208 266 321 380
#     4  10  23  42  65  96 128 170 215 262 322 380
#
# _framework density 19.008666999999999
#
# number of rings (size 3 to 8) (size 9 to 14) (size 15 to 20)
#    0.000    1.091    3.636    2.727    2.545    3.273 
#    3.273    0.000    0.000    0.000    0.000    0.000 
#    0.000    0.000    0.000    0.000    0.000    0.000 
#
# Total GULP energy -245941.094204 kJ/mol
# GULP energy per Si atom -5589.570323 kJ/mol
# Density = 1.896540 g / cm^3
# Si number density = 19.008667 Si / 1000 Ang^3
#
#
#
# Elastic Constant Matrix: (Units=GPa)
#
#
# Indices 1 2 3 4 5 6 
#
# 1 91.5217 24.4880 18.7947 0.0000 0.0000 0.0000
# 2 24.4880 100.7980 7.9085 0.0000 0.0000 0.0000
# 3 18.7947 7.9085 38.4870 0.0000 0.0000 0.0000
# 4 0.0000 0.0000 0.0000 24.0225 0.0000 0.0000
# 5 0.0000 0.0000 0.0000 0.0000 41.6597 0.0000
# 6 0.0000 0.0000 0.0000 0.0000 0.0000 32.5718
#
#
#
# Elastic Compliance Matrix: (Units=1/GPa)
#
#
# Indices 1 2 3 4 5 6 
#
# 1 0.012812 -0.002665 -0.005709 0.000000 0.000000 0.000000
# 2 -0.002665 0.010638 -0.000885 0.000000 0.000000 0.000000
# 3 -0.005709 -0.000885 0.028953 0.000000 0.000000 0.000000
# 4 0.000000 0.000000 0.000000 0.041628 0.000000 0.000000
# 5 0.000000 0.000000 0.000000 0.000000 0.024004 0.000000
# 6 0.000000 0.000000 0.000000 0.000000 0.000000 0.030701
#
#
# Mechanical properties :
#
#
# Convention : Reuss Voigt Hill
#
# Bulk Modulus (GPa) = 29.51117 37.02101 33.26609
# Shear Modulus (GPa) = 28.00395 31.62517 29.81456
#
# Velocity S-wave (km/s) = 3.84242 4.08330 3.96469
# Velocity P-wave (km/s) = 5.93670 6.46137 6.20458
#
# Compressibility (1/GPa) = 0.03388548
#
# Stress axis : x y z
#
# Youngs Moduli (GPa) = 78.05370 94.00639 34.53932
#
# Poissons Ratio (x) = 0.25049 0.19718
# Poissons Ratio (y) = 0.20798 0.03055
# Poissons Ratio (z) = 0.44560 0.08316
#
# Static dielectric constant tensor:
#      x y z
#    x 1.620490 0.000000 0.000000 
#    y 0.000000 1.643280 0.000000 
#    z 0.000000 0.000000 1.630510 
# 
# From -- ./inp_files/48808.got.cif
#   From: 2010.05.17/outbox.cif.g08.bks.cpg/sg74_25_cif.got.tgz:48808.got - 2010.06.03 17:57:02.
