data_PCOD9539469
_publ_section_title
;
Structure prediction by ZEFSAII (Michael W. Deem and Ramdas Pophale) SiO2 
 PCOD9539469
Probable space group: I M M A
;
_chemical_formula_sum "Si O2"
_cell_formula_units_Z 72
_cell_length_a 19.442689
_cell_length_b 18.309015
_cell_length_c 10.580595
_cell_angle_alpha 90.000000
_cell_angle_beta 90.000000
_cell_angle_gamma 90.000000
_cell_volume 3766.443012
_symmetry_space_group_name_H-M "I M M A"
_symmetry_group_IT_number 74
_symmetry_cell_setting 'orthorhombic'
loop_
_space_group_symop_operation_xyz
x,y,z
-x,1/2-y,z
x,-y,-z
-x,1/2+y,-z
-x,-y,-z
x,1/2+y,-z
-x,y,z
x,1/2-y,z
1/2+x,1/2+y,1/2+z
1/2-x,-y,1/2+z
1/2+x,1/2-y,1/2-z
1/2-x,y,1/2-z
1/2-x,1/2-y,1/2-z
1/2+x,y,1/2-z
1/2-x,1/2+y,1/2+z
1/2+x,-y,1/2+z
loop_
_atom_site_type_symbol
_atom_site_label
_atom_site_fract_x
_atom_site_fract_y
_atom_site_fract_z
Si Si1 0.750000 0.572559 0.250000
Si Si2 0.500000 0.875959 0.461983
Si Si3 0.845740 0.335146 0.944246
Si Si4 0.869379 0.527432 0.637697
Si Si5 0.500000 0.474693 0.313596
Si Si6 0.169040 0.668362 0.767019
O O1 0.796910 0.620193 0.152178
O O2 0.803058 0.519790 0.322488
O O3 0.428115 0.839783 0.420519
O O4 0.500000 0.897206 0.611590
O O5 0.500000 0.955378 0.401788
O O6 0.824676 0.250000 0.941988
O O7 0.839969 0.362081 0.090133
O O8 0.888842 0.500000 0.500000
O O9 0.854503 0.613173 0.658330
O O10 0.932308 0.516203 0.731296
O O11 0.137733 0.750000 0.761092
O O12 0.250000 0.675270 0.750000
#
# Coordination Sequence:
#
# PCOD9539469 Si02
#       6
#     8   8  16  16   8  16
#     4  12  25  38  65  98 128 166 224 266 331 398
#     4  11  21  40  68  92 125 174 213 273 328 396
#     4  11  23  41  65  95 132 170 213 272 333 393
#     4  12  24  40  64  92 128 172 215 267 326 383
#     4  11  23  40  64  92 129 160 221 271 323 380
#     4  10  21  39  63  93 127 166 214 268 324 384
#
# _framework density 19.11618
#
# number of rings (size 3 to 8) (size 9 to 14) (size 15 to 20)
#    0.000    0.889    5.556    2.333    0.000    0.000 
#    0.000    1.667    0.000    0.000    0.000    0.000 
#    0.000    0.000    0.000    0.000    0.000    0.000 
#
# Total GULP energy -200705.512842 kJ/mol
# GULP energy per Si atom -5575.153134 kJ/mol
# Density = 1.907267 g / cm^3
# Si number density = 19.116180 Si / 1000 Ang^3
#
#
#
# Elastic Constant Matrix: (Units=GPa)
#
#
# Indices 1 2 3 4 5 6 
#
# 1 101.7802 10.2572 20.1232 0.0000 0.0000 0.0000
# 2 10.2572 83.5495 43.1706 0.0000 0.0000 0.0000
# 3 20.1232 43.1706 78.3905 0.0000 0.0000 0.0000
# 4 0.0000 0.0000 0.0000 2.0360 0.0000 0.0000
# 5 0.0000 0.0000 0.0000 0.0000 64.2789 0.0000
# 6 0.0000 0.0000 0.0000 0.0000 0.0000 36.4475
#
#
#
# Elastic Compliance Matrix: (Units=1/GPa)
#
#
# Indices 1 2 3 4 5 6 
#
# 1 0.010352 0.000143 -0.002736 0.000000 0.000000 0.000000
# 2 0.000143 0.016731 -0.009251 0.000000 0.000000 0.000000
# 3 -0.002736 -0.009251 0.018554 0.000000 0.000000 0.000000
# 4 0.000000 0.000000 0.000000 0.491164 0.000000 0.000000
# 5 0.000000 0.000000 0.000000 0.000000 0.015557 0.000000
# 6 0.000000 0.000000 0.000000 0.000000 0.000000 0.027437
#
#
# Mechanical properties :
#
#
# Convention : Reuss Voigt Hill
#
# Bulk Modulus (GPa) = 45.56099 45.64692 45.60395
# Shear Modulus (GPa) = 8.18601 33.23042 20.70821
#
# Velocity S-wave (km/s) = 2.07160 4.17386 3.29490
# Velocity P-wave (km/s) = 5.44128 6.86722 6.19541
#
# Compressibility (1/GPa) = 0.02194860
#
# Stress axis : x y z
#
# Youngs Moduli (GPa) = 96.60305 59.76789 53.89807
#
# Poissons Ratio (x) = -0.00854 0.14746
# Poissons Ratio (y) = -0.01380 0.49860
# Poissons Ratio (z) = 0.26431 0.55290
#
# Static dielectric constant tensor:
#      x y z
#    x 1.677480 0.000000 0.000000 
#    y 0.000000 1.711120 0.000000 
#    z 0.000000 0.000000 1.752850 
# 
# From -- ./inp_files/21912.got.cif
#   From: 2010.05.17/outbox.cif.g08.bks.cpg/sg74_11_cif.got.tgz:21912.got - 2010.06.03 17:57:02.
