data_PCOD9539691
_publ_section_title
;
Structure prediction by ZEFSAII (Michael W. Deem and Ramdas Pophale) SiO2 
 PCOD9539691
Probable space group: I M M A
;
_chemical_formula_sum "Si O2"
_cell_formula_units_Z 68
_cell_length_a 15.018531
_cell_length_b 14.611266
_cell_length_c 12.492569
_cell_angle_alpha 90.000000
_cell_angle_beta 90.000000
_cell_angle_gamma 90.000000
_cell_volume 2741.366235
_symmetry_space_group_name_H-M "I M M A"
_symmetry_group_IT_number 74
_symmetry_cell_setting 'orthorhombic'
loop_
_space_group_symop_operation_xyz
x,y,z
-x,1/2-y,z
x,-y,-z
-x,1/2+y,-z
-x,-y,-z
x,1/2+y,-z
-x,y,z
x,1/2-y,z
1/2+x,1/2+y,1/2+z
1/2-x,-y,1/2+z
1/2+x,1/2-y,1/2-z
1/2-x,y,1/2-z
1/2-x,1/2-y,1/2-z
1/2+x,y,1/2-z
1/2-x,1/2+y,1/2+z
1/2+x,-y,1/2+z
loop_
_atom_site_type_symbol
_atom_site_label
_atom_site_fract_x
_atom_site_fract_y
_atom_site_fract_z
Si Si1 0.401912 0.608684 0.529542
Si Si2 0.293599 0.889410 0.985282
Si Si3 0.900608 0.401161 0.282815
Si Si4 0.898320 0.619887 0.306743
Si Si5 0.250000 0.750000 0.250000
O O1 0.402734 0.500000 0.500000
O O2 0.500000 0.642754 0.494136
O O3 0.305988 0.644419 0.492590
O O4 0.395962 0.622449 0.658140
O O5 0.327739 0.866402 0.866539
O O6 0.363976 0.857600 0.073460
O O7 0.291875 0.000000 0.000000
O O8 0.893346 0.511435 0.287700
O O9 0.000000 0.376118 0.321584
O O10 0.827119 0.671183 0.236537
O O11 0.000000 0.646298 0.291113
#
# Coordination Sequence:
#
# PCOD9539691 Si02
#       5
#    16  16  16  16   4
#     4   9  17  26  41  76 115 142 171 212 278 347
#     4   9  17  29  52  74 103 138 181 228 285 333
#     4   9  17  30  52  78 110 144 177 229 289 337
#     4  10  22  38  53  75 106 142 193 233 270 339
#     4  12  26  36  56  74 106 152 184 226 290 330
#
# _framework density 24.805150000000001
#
# number of rings (size 3 to 8) (size 9 to 14) (size 15 to 20)
#    0.000    2.588    0.000    1.765    9.882    2.824 
#    0.000    1.176    0.000    0.000    0.000    3.294 
#    0.000    3.765    0.000    0.000    0.000    0.000 
#
# Total GULP energy -189502.733778 kJ/mol
# GULP energy per Si atom -5573.609817 kJ/mol
# Density = 2.474869 g / cm^3
# Si number density = 24.805150 Si / 1000 Ang^3
#
#
#
# Elastic Constant Matrix: (Units=GPa)
#
#
# Indices 1 2 3 4 5 6 
#
# 1 253.6952 23.2282 47.4739 0.0000 0.0000 0.0000
# 2 23.2282 67.9335 -2.2931 0.0000 0.0000 0.0000
# 3 47.4739 -2.2931 118.7109 0.0000 0.0000 0.0000
# 4 0.0000 0.0000 0.0000 58.7708 0.0000 0.0000
# 5 0.0000 0.0000 0.0000 0.0000 15.7752 0.0000
# 6 0.0000 0.0000 0.0000 0.0000 0.0000 -113.2089
#
#
#
# Elastic Compliance Matrix: (Units=1/GPa)
#
#
# Indices 1 2 3 4 5 6 
#
# 1 0.004422 -0.001573 -0.001799 0.000000 0.000000 0.000000
# 2 -0.001573 0.015289 0.000924 0.000000 0.000000 0.000000
# 3 -0.001799 0.000924 0.009161 0.000000 0.000000 0.000000
# 4 0.000000 0.000000 0.000000 0.017015 0.000000 0.000000
# 5 0.000000 0.000000 0.000000 0.000000 0.063391 0.000000
# 6 0.000000 0.000000 0.000000 0.000000 0.000000 -0.008833
#
#
# Mechanical properties :
#
#
# Convention : Reuss Voigt Hill
#
# Bulk Modulus (GPa) = 41.70518 64.12863 52.91690
# Shear Modulus (GPa) = 44.11774 17.06279 30.59027
#
# Velocity S-wave (km/s) = 4.22189 2.62558 3.51554
# Velocity P-wave (km/s) = 6.37302 5.92458 6.15289
#
# Compressibility (1/GPa) = 0.02397784
#
# Stress axis : x y z
#
# Youngs Moduli (GPa) = 226.12246 65.40532 109.15724
#
# Poissons Ratio (x) = 0.10287 0.19637
# Poissons Ratio (y) = 0.35566 -0.10090
# Poissons Ratio (z) = 0.40678 -0.06046
#
# Static dielectric constant tensor:
#      x y z
#    x 1.924930 0.000000 0.000000 
#    y 0.000000 1.963620 0.000000 
#    z 0.000000 0.000000 2.025620 
# 
# From -- ./inp_files/20241.got.cif
#   From: 2010.05.17/outbox.cif.g08.bks.cpg/sg74_11_cif.got.tgz:20241.got - 2010.06.03 17:57:02.
