data_PCOD9539956
_publ_section_title
;
Structure prediction by ZEFSAII (Michael W. Deem and Ramdas Pophale) SiO2 
 PCOD9539956
Probable space group: I M M A
;
_chemical_formula_sum "Si O2"
_cell_formula_units_Z 96
_cell_length_a 14.510471
_cell_length_b 18.813290
_cell_length_c 14.850824
_cell_angle_alpha 90.000000
_cell_angle_beta 90.000000
_cell_angle_gamma 90.000000
_cell_volume 4054.121973
_symmetry_space_group_name_H-M "I M M A"
_symmetry_group_IT_number 74
_symmetry_cell_setting 'orthorhombic'
loop_
_space_group_symop_operation_xyz
x,y,z
-x,1/2-y,z
x,-y,-z
-x,1/2+y,-z
-x,-y,-z
x,1/2+y,-z
-x,y,z
x,1/2-y,z
1/2+x,1/2+y,1/2+z
1/2-x,-y,1/2+z
1/2+x,1/2-y,1/2-z
1/2-x,y,1/2-z
1/2-x,1/2-y,1/2-z
1/2+x,y,1/2-z
1/2-x,1/2+y,1/2+z
1/2+x,-y,1/2+z
loop_
_atom_site_type_symbol
_atom_site_label
_atom_site_fract_x
_atom_site_fract_y
_atom_site_fract_z
Si Si1 0.895225 0.166593 0.576731
Si Si2 0.897626 0.955660 0.845290
Si Si3 0.602410 0.829068 0.444340
Si Si4 0.757392 0.892690 0.558890
Si Si5 0.641365 0.093535 0.739619
Si Si6 0.605479 0.832981 0.791569
O O1 0.864420 0.250000 0.568052
O O2 0.830762 0.110965 0.523235
O O3 0.896066 0.142213 0.680572
O O4 0.000000 0.163758 0.543099
O O5 0.806162 0.958991 0.907807
O O6 0.891827 0.878954 0.798781
O O7 0.000000 0.965510 0.886657
O O8 0.889923 0.011992 0.763661
O O9 0.500000 0.837157 0.482168
O O10 0.612147 0.750000 0.407319
O O11 0.677965 0.842199 0.519155
O O12 0.614382 0.879959 0.359489
O O13 0.818047 0.863112 0.640779
O O14 0.750000 0.096423 0.750000
O O15 0.500000 0.840214 0.826867
O O16 0.622355 0.750000 0.775793
#
# Coordination Sequence:
#
# PCOD9539956 Si02
#       6
#    16  16  16  16  16  16
#     4  11  24  43  72 108 144 183 230 291 358 419
#     4  11  26  47  69  97 137 186 236 285 345 416
#     4  11  24  41  65  99 138 182 230 284 346 414
#     4  12  23  41  67  99 137 173 227 284 350 412
#     4  12  24  45  71  98 140 186 236 280 344 420
#     4  10  22  42  68  97 132 176 230 291 350 410
#
# _framework density 23.679604000000001
#
# number of rings (size 3 to 8) (size 9 to 14) (size 15 to 20)
#    0.000    0.833    1.667    6.000    0.000    6.667 
#    3.000    3.333    0.000    4.000    0.000    0.000 
#    0.000    0.000    0.000    0.000    0.000    0.000 
#
# Total GULP energy -268288.055388 kJ/mol
# GULP energy per Si atom -5589.334487 kJ/mol
# Density = 2.362571 g / cm^3
# Si number density = 23.679604 Si / 1000 Ang^3
#
#
#
# Elastic Constant Matrix: (Units=GPa)
#
#
# Indices 1 2 3 4 5 6 
#
# 1 168.0424 15.0140 34.2410 0.0000 0.0000 0.0000
# 2 15.0140 28.9757 23.0890 0.0000 0.0000 0.0000
# 3 34.2410 23.0890 86.2991 0.0001 0.0000 0.0000
# 4 0.0000 0.0000 0.0001 29.4232 0.0000 0.0000
# 5 0.0000 0.0000 0.0000 0.0000 11.1477 0.0000
# 6 0.0000 0.0000 0.0000 0.0000 0.0000 33.9979
#
#
#
# Elastic Compliance Matrix: (Units=1/GPa)
#
#
# Indices 1 2 3 4 5 6 
#
# 1 0.006538 -0.001678 -0.002145 0.000000 0.000000 0.000000
# 2 -0.001678 0.044294 -0.011185 0.000000 0.000000 0.000000
# 3 -0.002145 -0.011185 0.015431 0.000000 0.000000 0.000000
# 4 0.000000 0.000000 0.000000 0.033987 0.000000 0.000000
# 5 0.000000 0.000000 0.000000 0.000000 0.089704 0.000000
# 6 0.000000 0.000000 0.000000 0.000000 0.000000 0.029414
#
#
# Mechanical properties :
#
#
# Convention : Reuss Voigt Hill
#
# Bulk Modulus (GPa) = 27.58885 47.55616 37.57250
# Shear Modulus (GPa) = 19.12296 28.97865 24.05080
#
# Velocity S-wave (km/s) = 2.84486 3.50205 3.19042
# Velocity P-wave (km/s) = 4.73995 6.03981 5.42892
#
# Compressibility (1/GPa) = 0.03624652
#
# Stress axis : x y z
#
# Youngs Moduli (GPa) = 152.95395 22.57655 64.80423
#
# Poissons Ratio (x) = 0.03789 0.13900
# Poissons Ratio (y) = 0.25673 0.72481
# Poissons Ratio (z) = 0.32809 0.25251
#
# Static dielectric constant tensor:
#      x y z
#    x 1.916090 0.000000 0.000000 
#    y 0.000000 1.878500 0.000000 
#    z 0.000000 0.000000 1.911960 
# 
# From -- ./inp_files/32307.got.cif
#   From: 2010.05.17/outbox.cif.g08.bks.cpg/sg74_17_cif.got.tgz:32307.got - 2010.06.03 17:57:02.
