data_PCOD9539052
_publ_section_title
;
Structure prediction by ZEFSAII (Michael W. Deem and Ramdas Pophale) SiO2 
 PCOD9539052
Probable space group: I M M A
;
_chemical_formula_sum "Si O2"
_cell_formula_units_Z 104
_cell_length_a 8.759396
_cell_length_b 22.025820
_cell_length_c 29.640824
_cell_angle_alpha 90.000000
_cell_angle_beta 90.000000
_cell_angle_gamma 90.000000
_cell_volume 5718.689528
_symmetry_space_group_name_H-M "I M M A"
_symmetry_group_IT_number 74
_symmetry_cell_setting 'orthorhombic'
loop_
_space_group_symop_operation_xyz
x,y,z
-x,1/2-y,z
x,-y,-z
-x,1/2+y,-z
-x,-y,-z
x,1/2+y,-z
-x,y,z
x,1/2-y,z
1/2+x,1/2+y,1/2+z
1/2-x,-y,1/2+z
1/2+x,1/2-y,1/2-z
1/2-x,y,1/2-z
1/2-x,1/2-y,1/2-z
1/2+x,y,1/2-z
1/2-x,1/2+y,1/2+z
1/2+x,-y,1/2+z
loop_
_atom_site_type_symbol
_atom_site_label
_atom_site_fract_x
_atom_site_fract_y
_atom_site_fract_z
Si Si1 0.828418 0.822164 0.794990
Si Si2 0.815322 0.566945 0.542707
Si Si3 0.815334 0.924435 0.443356
Si Si4 0.817936 0.507182 0.200210
Si Si5 0.319319 0.598350 0.862012
Si Si6 0.816027 0.250000 0.698413
Si Si7 0.816580 0.131201 0.851820
O O1 0.836560 0.750000 0.791220
O O2 0.750000 0.846955 0.750000
O O3 0.725001 0.841271 0.836141
O O4 0.000000 0.846116 0.799694
O O5 0.777214 0.496682 0.554689
O O6 0.764565 0.592575 0.494388
O O7 0.764011 0.602239 0.586735
O O8 0.000000 0.567320 0.539574
O O9 0.741367 0.888083 0.401950
O O10 0.000000 0.919234 0.438987
O O11 0.750000 0.500084 0.250000
O O12 0.754906 0.456492 0.166058
O O13 0.779392 0.573226 0.179764
O O14 0.000000 0.502373 0.202551
O O15 0.500000 0.588283 0.862271
O O16 0.750000 0.250000 0.750000
O O17 0.758676 0.190717 0.670591
O O18 0.000000 0.250000 0.700954
O O19 0.000000 0.138983 0.852965
#
# Coordination Sequence:
#
# PCOD9539052 Si02
#       7
#    16  16  16  16  16   8  16
#     4  10  21  37  55  75 103 141 183 224 268 325
#     4   8  16  30  54  85 114 146 184 226 271 328
#     4   9  16  33  58  83 112 147 188 227 273 331
#     4  11  23  36  52  78 113 148 182 224 276 333
#     4  11  20  33  55  82 111 143 181 227 275 326
#     4  12  26  44  66  88 114 154 198 246 297 354
#     4  11  23  39  59  86 117 150 191 238 289 345
#
# _framework density 18.185986
#
# number of rings (size 3 to 8) (size 9 to 14) (size 15 to 20)
#    0.000    1.846    1.538    4.385    0.000    4.000 
#    0.000    3.077    1.692    0.000    0.000    0.000 
#    0.000    0.000    0.000    0.000    0.000    0.000 
#
# Total GULP energy -289971.791597 kJ/mol
# GULP energy per Si atom -5576.380608 kJ/mol
# Density = 1.814459 g / cm^3
# Si number density = 18.185986 Si / 1000 Ang^3
#
#
#
# Elastic Constant Matrix: (Units=GPa)
#
#
# Indices 1 2 3 4 5 6 
#
# 1 56.9544 26.8042 39.3610 0.0000 0.0000 0.0000
# 2 26.8042 59.3535 38.4981 0.0000 0.0000 0.0000
# 3 39.3610 38.4981 172.3360 0.0000 0.0000 0.0000
# 4 0.0000 0.0000 0.0000 -151.3820 0.0000 0.0000
# 5 0.0000 0.0000 0.0000 0.0000 26.3485 0.0000
# 6 0.0000 0.0000 0.0000 0.0000 0.0000 21.9547
#
#
#
# Elastic Compliance Matrix: (Units=1/GPa)
#
#
# Indices 1 2 3 4 5 6 
#
# 1 0.024054 -0.008536 -0.003587 0.000000 0.000000 0.000000
# 2 -0.008536 0.022733 -0.003129 0.000000 0.000000 0.000000
# 3 -0.003587 -0.003129 0.007321 0.000000 0.000000 0.000000
# 4 0.000000 0.000000 0.000000 -0.006606 0.000000 0.000000
# 5 0.000000 0.000000 0.000000 0.000000 0.037953 0.000000
# 6 0.000000 0.000000 0.000000 0.000000 0.000000 0.045548
#
#
# Mechanical properties :
#
#
# Convention : Reuss Voigt Hill
#
# Bulk Modulus (GPa) = 42.36611 55.33006 48.84809
# Shear Modulus (GPa) = 29.52036 -8.35039 10.58499
#
# Velocity S-wave (km/s) = 4.03333 -2.14514 2.41517
# Velocity P-wave (km/s) = 6.71095 4.93509 5.89033
#
# Compressibility (1/GPa) = 0.02360377
#
# Stress axis : x y z
#
# Youngs Moduli (GPa) = 41.57256 43.98986 136.59794
#
# Poissons Ratio (x) = 0.37551 0.48998
# Poissons Ratio (y) = 0.35488 0.42735
# Poissons Ratio (z) = 0.14912 0.13762
#
# Static dielectric constant tensor:
#      x y z
#    x 1.630840 0.000000 0.000000 
#    y 0.000000 1.631730 0.000000 
#    z 0.000000 0.000000 1.639960 
# 
# From -- ./inp_files/64758.got.cif
#   From: 2010.05.17/outbox.cif.g08.bks.cpg/sg74_33_cif.got.tgz:64758.got - 2010.06.03 17:57:02.
