data_PCOD9539223
_publ_section_title
;
Structure prediction by ZEFSAII (Michael W. Deem and Ramdas Pophale) SiO2 
 PCOD9539223
Probable space group: I M M A
;
_chemical_formula_sum "Si O2"
_cell_formula_units_Z 64
_cell_length_a 26.293096
_cell_length_b 21.178476
_cell_length_c 4.744758
_cell_angle_alpha 90.000000
_cell_angle_beta 90.000000
_cell_angle_gamma 90.000000
_cell_volume 2642.107592
_symmetry_space_group_name_H-M "I M M A"
_symmetry_group_IT_number 74
_symmetry_cell_setting 'orthorhombic'
loop_
_space_group_symop_operation_xyz
x,y,z
-x,1/2-y,z
x,-y,-z
-x,1/2+y,-z
-x,-y,-z
x,1/2+y,-z
-x,y,z
x,1/2-y,z
1/2+x,1/2+y,1/2+z
1/2-x,-y,1/2+z
1/2+x,1/2-y,1/2-z
1/2-x,y,1/2-z
1/2-x,1/2-y,1/2-z
1/2+x,y,1/2-z
1/2-x,1/2+y,1/2+z
1/2+x,-y,1/2+z
loop_
_atom_site_type_symbol
_atom_site_label
_atom_site_fract_x
_atom_site_fract_y
_atom_site_fract_z
Si Si1 0.638872 0.630810 0.461364
Si Si2 0.558696 0.445075 0.234171
Si Si3 0.797583 0.675526 0.536360
Si Si4 0.445324 0.316456 0.893586
O O1 0.604292 0.568590 0.538637
O O2 0.657448 0.659930 0.751050
O O3 0.599813 0.678419 0.322255
O O4 0.686935 0.633014 0.238480
O O5 0.500000 0.451466 0.339226
O O6 0.557499 0.378742 0.075237
O O7 0.567709 0.500000 0.000000
O O8 0.795009 0.750000 0.455804
O O9 0.750000 0.663005 0.750000
O O10 0.500000 0.318717 0.743431
O O11 0.442914 0.250000 0.050723
#
# Coordination Sequence:
#
# PCOD9539223 Si02
#       4
#    16  16  16  16
#     4  12  22  40  66  98 137 188 242 300 375 452
#     4  10  23  43  67 101 147 199 254 311 377 464
#     4  11  24  41  65 101 142 183 237 308 384 457
#     4  10  21  37  61  98 141 183 233 299 372 445
#
# _framework density 24.223084
#
# number of rings (size 3 to 8) (size 9 to 14) (size 15 to 20)
#    0.000    1.250    2.500    3.750    0.000    5.000 
#    0.000    6.250    0.000    0.000    6.500    0.000 
#    0.000    0.000    0.000    0.000    0.000    0.250 
#
# Total GULP energy -178308.179160 kJ/mol
# GULP energy per Si atom -5572.130599 kJ/mol
# Density = 2.416795 g / cm^3
# Si number density = 24.223084 Si / 1000 Ang^3
#
#
#
# Elastic Constant Matrix: (Units=GPa)
#
#
# Indices 1 2 3 4 5 6 
#
# 1 155.2662 46.1739 51.0252 0.0000 0.0000 0.0000
# 2 46.1739 182.9967 66.4541 0.0000 0.0000 0.0000
# 3 51.0252 66.4541 129.5732 0.0000 0.0000 0.0000
# 4 0.0000 0.0000 0.0000 41.5889 0.0000 0.0000
# 5 0.0000 0.0000 0.0000 0.0000 0.7180 0.0000
# 6 0.0000 0.0000 0.0000 0.0000 0.0000 18.1360
#
#
#
# Elastic Compliance Matrix: (Units=1/GPa)
#
#
# Indices 1 2 3 4 5 6 
#
# 1 0.007548 -0.001014 -0.002452 0.000000 0.000000 0.000000
# 2 -0.001014 0.006851 -0.003115 0.000000 0.000000 0.000000
# 3 -0.002452 -0.003115 0.010281 0.000000 0.000000 0.000000
# 4 0.000000 0.000000 0.000000 0.024045 0.000000 0.000000
# 5 0.000000 0.000000 0.000000 0.000000 1.392754 0.000000
# 6 0.000000 0.000000 0.000000 0.000000 0.000000 0.055139
#
#
# Mechanical properties :
#
#
# Convention : Reuss Voigt Hill
#
# Bulk Modulus (GPa) = 86.81758 88.34915 87.58337
# Shear Modulus (GPa) = 3.30334 32.36744 17.83539
#
# Velocity S-wave (km/s) = 1.16905 3.65940 2.71642
# Velocity P-wave (km/s) = 6.14336 7.37613 6.78779
#
# Compressibility (1/GPa) = 0.01151840
#
# Stress axis : x y z
#
# Youngs Moduli (GPa) = 132.48536 145.95389 97.26918
#
# Poissons Ratio (x) = 0.14799 0.23854
# Poissons Ratio (y) = 0.13434 0.30296
# Poissons Ratio (z) = 0.32490 0.45459
#
# Static dielectric constant tensor:
#      x y z
#    x 2.065230 0.000000 0.000000 
#    y 0.000000 1.914430 0.000000 
#    z 0.000000 0.000000 2.005660 
# 
# From -- ./inp_files/4336.got.cif
#   From: 2010.05.17/outbox.cif.g08.bks.cpg/sg74_3_cif.got.tgz:4336.got - 2010.06.03 17:57:02.
