data_PCOD9539541
_publ_section_title
;
Structure prediction by ZEFSAII (Michael W. Deem and Ramdas Pophale) SiO2 
 PCOD9539541
Probable space group: I M M A
;
_chemical_formula_sum "Si O2"
_cell_formula_units_Z 104
_cell_length_a 9.117621
_cell_length_b 23.619433
_cell_length_c 27.069617
_cell_angle_alpha 90.000000
_cell_angle_beta 90.000000
_cell_angle_gamma 90.000000
_cell_volume 5829.524267
_symmetry_space_group_name_H-M "I M M A"
_symmetry_group_IT_number 74
_symmetry_cell_setting 'orthorhombic'
loop_
_space_group_symop_operation_xyz
x,y,z
-x,1/2-y,z
x,-y,-z
-x,1/2+y,-z
-x,-y,-z
x,1/2+y,-z
-x,y,z
x,1/2-y,z
1/2+x,1/2+y,1/2+z
1/2-x,-y,1/2+z
1/2+x,1/2-y,1/2-z
1/2-x,y,1/2-z
1/2-x,1/2-y,1/2-z
1/2+x,y,1/2-z
1/2-x,1/2+y,1/2+z
1/2+x,-y,1/2+z
loop_
_atom_site_type_symbol
_atom_site_label
_atom_site_fract_x
_atom_site_fract_y
_atom_site_fract_z
Si Si1 0.667655 0.972388 0.446378
Si Si2 0.673799 0.250000 0.302075
Si Si3 0.173997 0.250000 0.570377
Si Si4 0.672596 0.037140 0.136454
Si Si5 0.676291 0.250000 0.463497
Si Si6 0.675088 0.556360 0.301539
Si Si7 0.324318 0.343768 0.382329
Si Si8 0.829060 0.139207 0.894558
O O1 0.500000 0.983319 0.427039
O O2 0.687349 0.905047 0.440298
O O3 0.674633 0.000000 0.500000
O O4 0.787724 0.001093 0.412144
O O5 0.500000 0.250000 0.294863
O O6 0.750000 0.250000 0.250000
O O7 0.709201 0.195768 0.335430
O O8 0.244372 0.250000 0.515667
O O9 0.230575 0.306230 0.597930
O O10 0.000000 0.250000 0.567010
O O11 0.500000 0.039195 0.145999
O O12 0.738452 0.098484 0.124965
O O13 0.755590 0.002849 0.179723
O O14 0.500000 0.250000 0.470628
O O15 0.711930 0.194485 0.430361
O O16 0.500000 0.551062 0.296005
O O17 0.750000 0.572655 0.250000
O O18 0.702286 0.602413 0.345179
O O19 0.500000 0.354324 0.384065
O O20 0.000000 0.156309 0.892908
#
# Coordination Sequence:
#
# PCOD9539541 Si02
#       8
#    16   8   8  16   8  16  16  16
#     4   9  19  36  58  82 109 148 193 234 279 333
#     4   9  19  35  55  76 100 137 184 235 287 330
#     4  12  25  37  56  86 121 151 187 240 289 338
#     4  11  22  34  53  84 118 149 183 229 281 336
#     4   9  20  38  59  76 102 154 203 241 289 342
#     4  10  21  40  65  89 114 148 188 235 288 344
#     4   9  19  37  56  76 106 147 196 239 278 338
#     4   9  20  39  60  84 114 151 193 232 279 345
#
# _framework density 17.840221
#
# number of rings (size 3 to 8) (size 9 to 14) (size 15 to 20)
#    0.000    2.308    0.000    4.385    2.154    5.231 
#    0.000    3.462    0.000    0.000    0.000    0.000 
#    0.000    0.000    0.000    0.000    0.000    0.000 
#
# Total GULP energy -290097.395276 kJ/mol
# GULP energy per Si atom -5578.796063 kJ/mol
# Density = 1.779962 g / cm^3
# Si number density = 17.840221 Si / 1000 Ang^3
#
#
#
# Elastic Constant Matrix: (Units=GPa)
#
#
# Indices 1 2 3 4 5 6 
#
# 1 93.0757 75.1806 51.8857 0.0000 0.0000 0.0000
# 2 75.1806 123.0574 40.7512 0.0000 0.0000 0.0000
# 3 51.8857 40.7512 83.1514 0.0000 0.0000 0.0000
# 4 0.0000 0.0000 0.0000 0.0194 0.0000 0.0000
# 5 0.0000 0.0000 0.0000 0.0000 32.0055 0.0000
# 6 0.0000 0.0000 0.0000 0.0000 0.0000 -1.8731
#
#
#
# Elastic Compliance Matrix: (Units=1/GPa)
#
#
# Indices 1 2 3 4 5 6 
#
# 1 0.027257 -0.013155 -0.010561 -0.000004 0.000000 0.000000
# 2 -0.013155 0.016050 0.000343 0.000003 0.000000 0.000000
# 3 -0.010561 0.000343 0.018448 0.000003 0.000000 0.000000
# 4 -0.000004 0.000003 0.000003 51.566427 0.000000 0.000052
# 5 0.000000 0.000000 0.000000 0.000000 0.031245 0.000000
# 6 0.000000 0.000000 0.000000 0.000052 0.000000 -0.533871
#
#
# Mechanical properties :
#
#
# Convention : Reuss Voigt Hill
#
# Bulk Modulus (GPa) = 66.62862 70.54660 68.58761
# Shear Modulus (GPa) = 0.09770 14.79482 7.44626
#
# Velocity S-wave (km/s) = 0.23427 2.88287 2.04522
# Velocity P-wave (km/s) = 6.12386 7.12114 6.64125
#
# Compressibility (1/GPa) = 0.01500856
#
# Stress axis : x y z
#
# Youngs Moduli (GPa) = 36.68773 62.30666 54.20584
#
# Poissons Ratio (x) = 0.81965 0.57247
# Poissons Ratio (y) = 0.48263 -0.01859
# Poissons Ratio (z) = 0.38746 -0.02137
#
# Static dielectric constant tensor:
#      x y z
#    x 1.597540 0.000000 0.000000 
#    y 0.000000 1.658450 0.000000 
#    z 0.000000 0.000000 1.605370 
# 
# From -- ./inp_files/64552.got.cif
#   From: 2010.05.17/outbox.cif.g08.bks.cpg/sg74_33_cif.got.tgz:64552.got - 2010.06.03 17:57:02.
