data_PCOD9539401
_publ_section_title
;
Structure prediction by ZEFSAII (Michael W. Deem and Ramdas Pophale) SiO2 
 PCOD9539401
Probable space group: I M M A
;
_chemical_formula_sum "Si O2"
_cell_formula_units_Z 72
_cell_length_a 11.121001
_cell_length_b 15.212048
_cell_length_c 18.050794
_cell_angle_alpha 90.000000
_cell_angle_beta 90.000000
_cell_angle_gamma 90.000000
_cell_volume 3053.710602
_symmetry_space_group_name_H-M "I M M A"
_symmetry_group_IT_number 74
_symmetry_cell_setting 'orthorhombic'
loop_
_space_group_symop_operation_xyz
x,y,z
-x,1/2-y,z
x,-y,-z
-x,1/2+y,-z
-x,-y,-z
x,1/2+y,-z
-x,y,z
x,1/2-y,z
1/2+x,1/2+y,1/2+z
1/2-x,-y,1/2+z
1/2+x,1/2-y,1/2-z
1/2-x,y,1/2-z
1/2-x,1/2-y,1/2-z
1/2+x,y,1/2-z
1/2-x,1/2+y,1/2+z
1/2+x,-y,1/2+z
loop_
_atom_site_type_symbol
_atom_site_label
_atom_site_fract_x
_atom_site_fract_y
_atom_site_fract_z
Si Si1 0.766391 0.601772 0.420522
Si Si2 0.233690 0.397189 0.407098
Si Si3 0.500000 0.644242 0.595580
Si Si4 0.871888 0.350933 0.722712
Si Si5 0.500000 0.855114 0.424564
Si Si6 0.635123 0.250000 0.195244
O O1 0.769380 0.631764 0.506123
O O2 0.798087 0.499396 0.411526
O O3 0.853543 0.652053 0.365496
O O4 0.627845 0.614168 0.394361
O O5 0.370819 0.387672 0.376340
O O6 0.151914 0.335429 0.357022
O O7 0.500000 0.750000 0.596232
O O8 0.500000 0.613381 0.509830
O O9 0.873293 0.250000 0.751009
O O10 0.750000 0.396054 0.750000
O O11 0.000000 0.391875 0.740969
O O12 0.500000 0.750000 0.423285
O O13 0.500000 0.250000 0.228580
O O14 0.750000 0.250000 0.250000
#
# Coordination Sequence:
#
# PCOD9539401 Si02
#       6
#    16  16   8  16   8   8
#     4  10  21  38  66 103 135 176 225 287 347 400
#     4  10  22  41  67 100 136 172 230 289 345 409
#     4   9  15  31  63  93 130 168 208 265 332 387
#     4  10  23  41  62  90 128 172 214 260 325 400
#     4   9  17  29  57 104 143 175 215 269 340 416
#     4  12  30  50  72 102 137 192 240 293 360 433
#
# _framework density 23.577871999999999
#
# number of rings (size 3 to 8) (size 9 to 14) (size 15 to 20)
#    0.000    2.000    1.111    1.333    6.222    5.333 
#    0.000    2.222    0.000    0.000    0.000    0.000 
#    0.000    0.000    0.000    0.000    0.000    0.000 
#
# Total GULP energy -201094.916611 kJ/mol
# GULP energy per Si atom -5585.969906 kJ/mol
# Density = 2.352421 g / cm^3
# Si number density = 23.577872 Si / 1000 Ang^3
#
#
#
# Elastic Constant Matrix: (Units=GPa)
#
#
# Indices 1 2 3 4 5 6 
#
# 1 163.6794 8.8013 48.3729 0.0000 0.0000 0.0000
# 2 8.8013 74.7890 8.7391 0.0000 0.0000 0.0000
# 3 48.3729 8.7391 79.2769 0.0000 0.0000 0.0000
# 4 0.0000 0.0000 0.0000 16.3923 0.0000 0.0000
# 5 0.0000 0.0000 0.0000 0.0000 33.7740 0.0000
# 6 0.0000 0.0000 0.0000 0.0000 0.0000 13.0476
#
#
#
# Elastic Compliance Matrix: (Units=1/GPa)
#
#
# Indices 1 2 3 4 5 6 
#
# 1 0.007463 -0.000351 -0.004515 0.000000 0.000000 0.000000
# 2 -0.000351 0.013562 -0.001281 0.000000 0.000000 0.000000
# 3 -0.004515 -0.001281 0.015510 0.000000 0.000000 0.000000
# 4 0.000000 0.000000 0.000000 0.061004 0.000000 0.000000
# 5 0.000000 0.000000 0.000000 0.000000 0.029609 0.000000
# 6 0.000000 0.000000 0.000000 0.000000 0.000000 0.076643
#
#
# Mechanical properties :
#
#
# Convention : Reuss Voigt Hill
#
# Bulk Modulus (GPa) = 41.25157 49.95245 45.60201
# Shear Modulus (GPa) = 22.30512 29.43158 25.86835
#
# Velocity S-wave (km/s) = 3.07908 3.53692 3.31591
# Velocity P-wave (km/s) = 5.49316 6.15726 5.83467
#
# Compressibility (1/GPa) = 0.02424150
#
# Stress axis : x y z
#
# Youngs Moduli (GPa) = 134.00044 73.73598 64.47414
#
# Poissons Ratio (x) = 0.02586 0.29109
# Poissons Ratio (y) = 0.04699 0.08259
# Poissons Ratio (z) = 0.60500 0.09446
#
# Static dielectric constant tensor:
#      x y z
#    x 1.918370 0.000000 0.000000 
#    y 0.000000 1.838570 0.000000 
#    z 0.000000 0.000000 1.959300 
# 
# From -- ./inp_files/40996.got.cif
#   From: 2010.05.17/outbox.cif.g08.bks.cpg/sg74_21_cif.got.tgz:40996.got - 2010.06.03 17:57:02.
