data_PCOD9539364
_publ_section_title
;
Structure prediction by ZEFSAII (Michael W. Deem and Ramdas Pophale) SiO2 
 PCOD9539364
Probable space group: I M M A
;
_chemical_formula_sum "Si O2"
_cell_formula_units_Z 100
_cell_length_a 7.980281
_cell_length_b 28.785105
_cell_length_c 19.669504
_cell_angle_alpha 90.000000
_cell_angle_beta 90.000000
_cell_angle_gamma 90.000000
_cell_volume 4518.345228
_symmetry_space_group_name_H-M "I M M A"
_symmetry_group_IT_number 74
_symmetry_cell_setting 'orthorhombic'
loop_
_space_group_symop_operation_xyz
x,y,z
-x,1/2-y,z
x,-y,-z
-x,1/2+y,-z
-x,-y,-z
x,1/2+y,-z
-x,y,z
x,1/2-y,z
1/2+x,1/2+y,1/2+z
1/2-x,-y,1/2+z
1/2+x,1/2-y,1/2-z
1/2-x,y,1/2-z
1/2-x,1/2-y,1/2-z
1/2+x,y,1/2-z
1/2-x,1/2+y,1/2+z
1/2+x,-y,1/2+z
loop_
_atom_site_type_symbol
_atom_site_label
_atom_site_fract_x
_atom_site_fract_y
_atom_site_fract_z
Si Si1 0.698390 0.001485 0.670870
Si Si2 0.300737 0.800758 0.095345
Si Si3 0.188376 0.194355 0.322148
Si Si4 0.186750 0.556988 0.544615
Si Si5 0.798809 0.893198 0.328398
Si Si6 0.690782 0.659475 0.541111
Si Si7 0.000000 0.500000 0.000000
O O1 0.500000 0.992631 0.661211
O O2 0.750000 0.995133 0.750000
O O3 0.730752 0.055643 0.653222
O O4 0.793094 0.967799 0.618519
O O5 0.500000 0.800187 0.108366
O O6 0.233295 0.750000 0.117281
O O7 0.236306 0.848209 0.130305
O O8 0.269956 0.807384 0.015451
O O9 0.183979 0.250000 0.317070
O O10 0.250000 0.175494 0.250000
O O11 0.303211 0.181428 0.384630
O O12 0.000000 0.177839 0.335912
O O13 0.207795 0.611942 0.546559
O O14 0.348316 0.538857 0.504016
O O15 0.000000 0.547506 0.517177
O O16 0.750000 0.885985 0.250000
O O17 0.000000 0.896071 0.334895
O O18 0.500000 0.650364 0.521213
#
# Coordination Sequence:
#
# PCOD9539364 Si02
#       7
#    16  16  16  16  16  16   4
#     4  11  22  41  65  96 131 169 219 270 325 393
#     4  10  23  42  63  89 124 168 216 269 331 393
#     4  10  21  39  64  93 126 169 217 266 325 388
#     4  12  26  45  68  97 133 174 216 270 328 384
#     4  10  21  38  62  92 123 167 214 266 329 390
#     4  12  25  42  62  95 131 167 218 268 322 392
#     4  12  26  48  64 102 130 172 222 266 316 402
#
# _framework density 22.131995
#
# number of rings (size 3 to 8) (size 9 to 14) (size 15 to 20)
#    0.000    1.120    1.600    5.520    2.240    5.440 
#    0.000    3.200    0.000    0.000    0.000    0.000 
#    0.000    0.000    0.000    0.000    0.000    0.000 
#
# Total GULP energy -278958.210048 kJ/mol
# GULP energy per Si atom -5579.164201 kJ/mol
# Density = 2.208162 g / cm^3
# Si number density = 22.131995 Si / 1000 Ang^3
#
#
#
# Elastic Constant Matrix: (Units=GPa)
#
#
# Indices 1 2 3 4 5 6 
#
# 1 125.5297 14.6884 -3.9271 0.0000 0.0000 0.0000
# 2 14.6884 75.1960 9.2451 0.0000 0.0000 0.0000
# 3 -3.9271 9.2451 54.6404 -0.0001 0.0002 0.0001
# 4 0.0000 0.0000 -0.0001 37.1716 0.0000 0.0000
# 5 0.0000 0.0000 0.0002 0.0000 258.3739 -0.0001
# 6 0.0000 0.0000 0.0001 0.0000 -0.0001 7.2434
#
#
#
# Elastic Compliance Matrix: (Units=1/GPa)
#
#
# Indices 1 2 3 4 5 6 
#
# 1 0.008194 -0.001708 0.000878 0.000000 0.000000 0.000000
# 2 -0.001708 0.013937 -0.002481 0.000000 0.000000 0.000000
# 3 0.000878 -0.002481 0.018784 0.000000 0.000000 0.000000
# 4 0.000000 0.000000 0.000000 0.026902 0.000000 0.000000
# 5 0.000000 0.000000 0.000000 0.000000 0.003870 0.000000
# 6 0.000000 0.000000 0.000000 0.000000 0.000000 0.138057
#
#
# Mechanical properties :
#
#
# Convention : Reuss Voigt Hill
#
# Bulk Modulus (GPa) = 29.16097 32.81986 30.99042
# Shear Modulus (GPa) = 21.94925 76.24842 49.09884
#
# Velocity S-wave (km/s) = 3.15261 5.87592 4.71516
# Velocity P-wave (km/s) = 5.14359 7.80363 6.60882
#
# Compressibility (1/GPa) = 0.03429241
#
# Stress axis : x y z
#
# Youngs Moduli (GPa) = 122.04624 71.74979 53.23580
#
# Poissons Ratio (x) = 0.12258 -0.04674
# Poissons Ratio (y) = 0.20851 0.13208
# Poissons Ratio (z) = -0.10715 0.17801
#
# Static dielectric constant tensor:
#      x y z
#    x 1.804410 0.000000 0.000000 
#    y 0.000000 1.795970 0.000000 
#    z 0.000000 0.000000 1.901100 
# 
# From -- ./inp_files/49287.got.cif
#   From: 2010.05.17/outbox.cif.g08.bks.cpg/sg74_25_cif.got.tgz:49287.got - 2010.06.03 17:57:02.
