data_PCOD9539381
_publ_section_title
;
Structure prediction by ZEFSAII (Michael W. Deem and Ramdas Pophale) SiO2 
 PCOD9539381
Probable space group: I M M A
;
_chemical_formula_sum "Si O2"
_cell_formula_units_Z 104
_cell_length_a 26.742453
_cell_length_b 7.698989
_cell_length_c 20.320577
_cell_angle_alpha 90.000000
_cell_angle_beta 90.000000
_cell_angle_gamma 90.000000
_cell_volume 4183.800581
_symmetry_space_group_name_H-M "I M M A"
_symmetry_group_IT_number 74
_symmetry_cell_setting 'orthorhombic'
loop_
_space_group_symop_operation_xyz
x,y,z
-x,1/2-y,z
x,-y,-z
-x,1/2+y,-z
-x,-y,-z
x,1/2+y,-z
-x,y,z
x,1/2-y,z
1/2+x,1/2+y,1/2+z
1/2-x,-y,1/2+z
1/2+x,1/2-y,1/2-z
1/2-x,y,1/2-z
1/2-x,1/2-y,1/2-z
1/2+x,y,1/2-z
1/2-x,1/2+y,1/2+z
1/2+x,-y,1/2+z
loop_
_atom_site_type_symbol
_atom_site_label
_atom_site_fract_x
_atom_site_fract_y
_atom_site_fract_z
Si Si1 0.944916 0.457343 0.577358
Si Si2 0.774200 0.500000 0.500000
Si Si3 0.307617 0.454290 0.597048
Si Si4 0.080286 0.042792 0.929148
Si Si5 0.667819 0.453004 0.258235
Si Si6 0.663041 0.044775 0.114957
Si Si7 0.553783 0.038925 0.714224
O O1 0.940049 0.500000 0.500000
O O2 0.943922 0.250000 0.586039
O O3 0.896849 0.531620 0.613289
O O4 0.000000 0.520576 0.597962
O O5 0.733695 0.443446 0.444288
O O6 0.814476 0.562782 0.445586
O O7 0.300984 0.250000 0.579722
O O8 0.362345 0.519296 0.575303
O O9 0.308619 0.466862 0.676152
O O10 0.082487 0.250000 0.924428
O O11 0.053861 0.984894 0.862762
O O12 0.058663 0.000000 0.000000
O O13 0.679736 0.250000 0.260589
O O14 0.682837 0.516694 0.185784
O O15 0.607478 0.474983 0.261325
O O16 0.674924 0.250000 0.104784
O O17 0.500000 0.984825 0.743159
O O18 0.555661 0.250000 0.718705
#
# Coordination Sequence:
#
# PCOD9539381 Si02
#       7
#    16   8  16  16  16  16  16
#     4  10  21  38  63  94 129 170 213 257 310 371
#     4  12  24  42  69  96 121 158 210 264 316 376
#     4  10  22  41  64  91 121 161 210 257 312 379
#     4   9  17  31  52  82 116 152 195 245 299 356
#     4  10  23  42  63  89 127 168 208 255 312 375
#     4  11  25  43  64  96 132 166 206 259 315 369
#     4   9  19  37  59  85 120 162 208 256 306 363
#
# _framework density 24.857782
#
# number of rings (size 3 to 8) (size 9 to 14) (size 15 to 20)
#    0.000    2.000    1.538    2.308    0.000    8.308 
#    0.000    5.385    0.000    0.000    0.000    0.000 
#    0.000    0.000    0.000    0.000    0.000    0.000 
#
# Total GULP energy -290110.804928 kJ/mol
# GULP energy per Si atom -5579.053941 kJ/mol
# Density = 2.480120 g / cm^3
# Si number density = 24.857782 Si / 1000 Ang^3
#
#
#
# Elastic Constant Matrix: (Units=GPa)
#
#
# Indices 1 2 3 4 5 6 
#
# 1 138.6448 13.5556 42.8536 0.0000 0.0000 0.0000
# 2 13.5556 73.1457 12.9490 0.0000 0.0000 0.0000
# 3 42.8536 12.9490 203.5932 0.0000 0.0000 0.0000
# 4 0.0000 0.0000 0.0000 8.3252 0.0000 0.0000
# 5 0.0000 0.0000 0.0000 0.0000 6.9676 0.0000
# 6 0.0000 0.0000 0.0000 0.0000 0.0000 74.7256
#
#
#
# Elastic Compliance Matrix: (Units=1/GPa)
#
#
# Indices 1 2 3 4 5 6 
#
# 1 0.007812 -0.001170 -0.001570 0.000000 0.000000 0.000000
# 2 -0.001170 0.014002 -0.000644 0.000000 0.000000 0.000000
# 3 -0.001570 -0.000644 0.005283 0.000000 0.000000 0.000000
# 4 0.000000 0.000000 0.000000 0.120117 0.000000 0.000000
# 5 0.000000 0.000000 0.000000 0.000000 0.143521 0.000000
# 6 0.000000 0.000000 0.000000 0.000000 0.000000 0.013382
#
#
# Mechanical properties :
#
#
# Convention : Reuss Voigt Hill
#
# Bulk Modulus (GPa) = 49.18992 61.56668 55.37830
# Shear Modulus (GPa) = 15.73995 41.07205 28.40600
#
# Velocity S-wave (km/s) = 2.51908 4.06924 3.38411
# Velocity P-wave (km/s) = 5.31907 6.84833 6.13156
#
# Compressibility (1/GPa) = 0.02032937
#
# Stress axis : x y z
#
# Youngs Moduli (GPa) = 128.00292 71.41726 189.27936
#
# Poissons Ratio (x) = 0.08355 0.29717
# Poissons Ratio (y) = 0.14975 0.12196
# Poissons Ratio (z) = 0.20096 0.04602
#
# Static dielectric constant tensor:
#      x y z
#    x 1.962630 0.000000 0.000000 
#    y 0.000000 2.029760 0.000000 
#    z 0.000000 0.000000 2.016670 
# 
# From -- ./inp_files/55276.got.cif
#   From: 2010.05.17/outbox.cif.g08.bks.cpg/sg74_28_cif.got.tgz:55276.got - 2010.06.03 17:57:02.
