data_PCOD9539586
_publ_section_title
;
Structure prediction by ZEFSAII (Michael W. Deem and Ramdas Pophale) SiO2 
 PCOD9539586
Probable space group: I M M A
;
_chemical_formula_sum "Si O2"
_cell_formula_units_Z 72
_cell_length_a 28.001297
_cell_length_b 14.500944
_cell_length_c 9.375617
_cell_angle_alpha 90.000000
_cell_angle_beta 90.000000
_cell_angle_gamma 90.000000
_cell_volume 3806.924652
_symmetry_space_group_name_H-M "I M M A"
_symmetry_group_IT_number 74
_symmetry_cell_setting 'orthorhombic'
loop_
_space_group_symop_operation_xyz
x,y,z
-x,1/2-y,z
x,-y,-z
-x,1/2+y,-z
-x,-y,-z
x,1/2+y,-z
-x,y,z
x,1/2-y,z
1/2+x,1/2+y,1/2+z
1/2-x,-y,1/2+z
1/2+x,1/2-y,1/2-z
1/2-x,y,1/2-z
1/2-x,1/2-y,1/2-z
1/2+x,y,1/2-z
1/2-x,1/2+y,1/2+z
1/2+x,-y,1/2+z
loop_
_atom_site_type_symbol
_atom_site_label
_atom_site_fract_x
_atom_site_fract_y
_atom_site_fract_z
Si Si1 0.199503 0.901538 0.923970
Si Si2 0.910800 0.111343 0.496831
Si Si3 0.056168 0.250000 0.732985
Si Si4 0.875491 0.750000 0.996794
Si Si5 0.805642 0.096970 0.417317
Si Si6 0.553616 0.750000 0.767360
O O1 0.190516 0.912529 0.754094
O O2 0.253161 0.860877 0.942185
O O3 0.159461 0.837282 0.990630
O O4 0.198051 0.000000 0.000000
O O5 0.930935 0.160535 0.637312
O O6 0.854974 0.138704 0.474306
O O7 0.938358 0.160347 0.366906
O O8 0.914645 0.000000 0.500000
O O9 0.089570 0.250000 0.869984
O O10 0.000000 0.250000 0.765859
O O11 0.907498 0.750000 0.855440
O O12 0.803360 0.000000 0.500000
O O13 0.500000 0.750000 0.710253
#
# Coordination Sequence:
#
# PCOD9539586 Si02
#       6
#    16  16   8   8  16   8
#     4  10  22  39  61  92 131 162 194 240 297 359
#     4  10  21  41  67  91 115 157 200 249 304 358
#     4  11  27  44  60  86 123 155 203 265 305 349
#     4  12  25  39  60  90 119 169 199 240 309 365
#     4   9  19  37  65  92 125 158 197 242 294 351
#     4  11  23  40  61  88 118 152 207 258 301 354
#
# _framework density 18.912903
#
# number of rings (size 3 to 8) (size 9 to 14) (size 15 to 20)
#    0.000    1.778    2.222    1.667    6.222    5.333 
#    0.000    1.111    0.000    4.000    0.000    0.000 
#    0.000    0.000    0.000    0.000    0.000    0.000 
#
# Total GULP energy -200854.774005 kJ/mol
# GULP energy per Si atom -5579.299278 kJ/mol
# Density = 1.886986 g / cm^3
# Si number density = 18.912903 Si / 1000 Ang^3
#
#
#
# Elastic Constant Matrix: (Units=GPa)
#
#
# Indices 1 2 3 4 5 6 
#
# 1 164.2242 49.7540 44.4784 0.0000 0.0000 0.0000
# 2 49.7540 129.0012 40.2740 0.0000 0.0000 0.0000
# 3 44.4784 40.2740 82.7195 0.0000 0.0000 0.0000
# 4 0.0000 0.0000 0.0000 5.1880 0.0000 0.0000
# 5 0.0000 0.0000 0.0000 0.0000 57.8891 0.0000
# 6 0.0000 0.0000 0.0000 0.0000 0.0000 28.8997
#
#
#
# Elastic Compliance Matrix: (Units=1/GPa)
#
#
# Indices 1 2 3 4 5 6 
#
# 1 0.007514 -0.001930 -0.003100 0.000000 0.000000 0.000000
# 2 -0.001930 0.009637 -0.003654 0.000000 0.000000 0.000000
# 3 -0.003100 -0.003654 0.015535 0.000000 0.000000 0.000000
# 4 0.000000 0.000000 0.000000 0.192752 0.000000 0.000000
# 5 0.000000 0.000000 0.000000 0.000000 0.017274 0.000000
# 6 0.000000 0.000000 0.000000 0.000000 0.000000 0.034602
#
#
# Mechanical properties :
#
#
# Convention : Reuss Voigt Hill
#
# Bulk Modulus (GPa) = 65.28841 71.66198 68.47520
# Shear Modulus (GPa) = 16.67834 34.49124 25.58479
#
# Velocity S-wave (km/s) = 2.97282 4.27510 3.68199
# Velocity P-wave (km/s) = 6.81021 7.89566 7.37294
#
# Compressibility (1/GPa) = 0.01531665
#
# Stress axis : x y z
#
# Youngs Moduli (GPa) = 133.09062 103.76561 64.36922
#
# Poissons Ratio (x) = 0.20026 0.19957
# Poissons Ratio (y) = 0.25686 0.23523
# Poissons Ratio (z) = 0.41264 0.37919
#
# Static dielectric constant tensor:
#      x y z
#    x 1.674510 0.000000 0.000000 
#    y 0.000000 1.730990 0.000000 
#    z 0.000000 0.000000 1.626580 
# 
# From -- ./inp_files/9220.got.cif
#   From: 2010.05.17/outbox.cif.g08.bks.cpg/sg74_5_cif.got.tgz:9220.got - 2010.06.03 17:57:02.
