data_PCOD9539941
_publ_section_title
;
Structure prediction by ZEFSAII (Michael W. Deem and Ramdas Pophale) SiO2 
 PCOD9539941
Probable space group: I M M A
;
_chemical_formula_sum "Si O2"
_cell_formula_units_Z 96
_cell_length_a 26.687075
_cell_length_b 20.528589
_cell_length_c 9.582024
_cell_angle_alpha 90.000000
_cell_angle_beta 90.000000
_cell_angle_gamma 90.000000
_cell_volume 5249.492630
_symmetry_space_group_name_H-M "I M M A"
_symmetry_group_IT_number 74
_symmetry_cell_setting 'orthorhombic'
loop_
_space_group_symop_operation_xyz
x,y,z
-x,1/2-y,z
x,-y,-z
-x,1/2+y,-z
-x,-y,-z
x,1/2+y,-z
-x,y,z
x,1/2-y,z
1/2+x,1/2+y,1/2+z
1/2-x,-y,1/2+z
1/2+x,1/2-y,1/2-z
1/2-x,y,1/2-z
1/2-x,1/2-y,1/2-z
1/2+x,y,1/2-z
1/2-x,1/2+y,1/2+z
1/2+x,-y,1/2+z
loop_
_atom_site_type_symbol
_atom_site_label
_atom_site_fract_x
_atom_site_fract_y
_atom_site_fract_z
Si Si1 0.692537 0.858867 0.282056
Si Si2 0.179345 0.873137 0.671184
Si Si3 0.225855 0.178520 0.062947
Si Si4 0.941461 0.542602 0.361687
Si Si5 0.351611 0.495983 0.669069
Si Si6 0.108150 0.675873 0.435821
O O1 0.750000 0.842410 0.250000
O O2 0.687070 0.835792 0.440752
O O3 0.653010 0.827437 0.177929
O O4 0.683095 0.935971 0.282983
O O5 0.196593 0.824513 0.792319
O O6 0.229047 0.874056 0.572642
O O7 0.167470 0.939508 0.752126
O O8 0.133811 0.846920 0.580221
O O9 0.248460 0.250000 0.040697
O O10 0.928071 0.500000 0.500000
O O11 0.906074 0.520375 0.234497
O O12 0.930002 0.618547 0.393613
O O13 0.000000 0.532662 0.333182
O O14 0.351681 0.500000 0.500000
O O15 0.089225 0.750000 0.443665
#
# Coordination Sequence:
#
# PCOD9539941 Si02
#       6
#    16  16  16  16  16  16
#     4  11  23  34  54  83 123 160 194 239 281 340
#     4  11  21  36  54  82 116 155 201 243 277 335
#     4  11  22  36  53  78 119 169 201 234 285 337
#     4  10  22  42  65  90 115 143 185 243 306 359
#     4  11  23  39  58  85 115 152 201 241 292 344
#     4  11  22  38  62  90 116 152 196 241 290 350
#
# _framework density 18.287482000000001
#
# number of rings (size 3 to 8) (size 9 to 14) (size 15 to 20)
#    0.000    1.167    5.000    2.500    2.333    1.333 
#    0.000    0.000    0.000    0.000    0.000    0.000 
#    0.000    0.000    0.000    0.000    0.000    0.000 
#
# Total GULP energy -267831.683922 kJ/mol
# GULP energy per Si atom -5579.826748 kJ/mol
# Density = 1.824586 g / cm^3
# Si number density = 18.287482 Si / 1000 Ang^3
#
#
#
# Elastic Constant Matrix: (Units=GPa)
#
#
# Indices 1 2 3 4 5 6 
#
# 1 41.7354 13.0350 5.7609 0.0000 0.0000 0.0000
# 2 13.0350 134.6206 25.6352 0.0000 0.0000 0.0000
# 3 5.7609 25.6352 71.2539 0.0000 0.0000 0.0000
# 4 0.0000 0.0000 0.0000 21.9007 0.0000 0.0000
# 5 0.0000 0.0000 0.0000 0.0000 21.9723 0.0000
# 6 0.0000 0.0000 0.0000 0.0000 0.0000 12.4026
#
#
#
# Elastic Compliance Matrix: (Units=1/GPa)
#
#
# Indices 1 2 3 4 5 6 
#
# 1 0.024807 -0.002169 -0.001225 0.000000 0.000000 0.000000
# 2 -0.002169 0.008164 -0.002762 0.000000 0.000000 0.000000
# 3 -0.001225 -0.002762 0.015127 0.000000 0.000000 0.000000
# 4 0.000000 0.000000 0.000000 0.045661 0.000000 0.000000
# 5 0.000000 0.000000 0.000000 0.000000 0.045512 0.000000
# 6 0.000000 0.000000 0.000000 0.000000 0.000000 0.080628
#
#
# Mechanical properties :
#
#
# Convention : Reuss Voigt Hill
#
# Bulk Modulus (GPa) = 27.94374 37.38582 32.66478
# Shear Modulus (GPa) = 20.48009 24.80037 22.64023
#
# Velocity S-wave (km/s) = 3.35012 3.68657 3.52237
# Velocity P-wave (km/s) = 5.50253 6.21360 5.86884
#
# Compressibility (1/GPa) = 0.03578619
#
# Stress axis : x y z
#
# Youngs Moduli (GPa) = 40.31128 122.48582 66.10671
#
# Poissons Ratio (x) = 0.26563 0.08101
# Poissons Ratio (y) = 0.08742 0.18258
# Poissons Ratio (z) = 0.04940 0.33830
#
# Static dielectric constant tensor:
#      x y z
#    x 1.612840 0.000000 0.000000 
#    y 0.000000 1.651380 0.000000 
#    z 0.000000 0.000000 1.687030 
# 
# From -- ./inp_files/15139.got.cif
#   From: 2010.05.17/outbox.cif.g08.bks.cpg/sg74_8_cif.got.tgz:15139.got - 2010.06.03 17:57:02.
