data_PCOD9539850
_publ_section_title
;
Structure prediction by ZEFSAII (Michael W. Deem and Ramdas Pophale) SiO2 
 PCOD9539850
Probable space group: I M M A
;
_chemical_formula_sum "Si O2"
_cell_formula_units_Z 96
_cell_length_a 15.721220
_cell_length_b 21.150041
_cell_length_c 14.465431
_cell_angle_alpha 90.000000
_cell_angle_beta 90.000000
_cell_angle_gamma 90.000000
_cell_volume 4809.820144
_symmetry_space_group_name_H-M "I M M A"
_symmetry_group_IT_number 74
_symmetry_cell_setting 'orthorhombic'
loop_
_space_group_symop_operation_xyz
x,y,z
-x,1/2-y,z
x,-y,-z
-x,1/2+y,-z
-x,-y,-z
x,1/2+y,-z
-x,y,z
x,1/2-y,z
1/2+x,1/2+y,1/2+z
1/2-x,-y,1/2+z
1/2+x,1/2-y,1/2-z
1/2-x,y,1/2-z
1/2-x,1/2-y,1/2-z
1/2+x,y,1/2-z
1/2-x,1/2+y,1/2+z
1/2+x,-y,1/2+z
loop_
_atom_site_type_symbol
_atom_site_label
_atom_site_fract_x
_atom_site_fract_y
_atom_site_fract_z
Si Si1 0.729877 0.574475 0.001451
Si Si2 0.832205 0.437457 0.698749
Si Si3 0.349986 0.680961 0.723274
Si Si4 0.405652 0.072205 0.149819
Si Si5 0.400434 0.142034 0.476272
Si Si6 0.600229 0.318524 0.686596
O O1 0.697442 0.594116 0.102428
O O2 0.719106 0.500000 0.000000
O O3 0.666197 0.596184 0.921435
O O4 0.828111 0.588617 0.983197
O O5 0.750000 0.465704 0.750000
O O6 0.890057 0.498867 0.678503
O O7 0.865064 0.381187 0.763838
O O8 0.378314 0.750000 0.759506
O O9 0.250000 0.675228 0.750000
O O10 0.396852 0.620173 0.765022
O O11 0.370326 0.679730 0.614155
O O12 0.500000 0.076503 0.108879
O O13 0.500000 0.123747 0.466516
O O14 0.392200 0.176157 0.575432
O O15 0.500000 0.317975 0.707268
O O16 0.636542 0.250000 0.715971
#
# Coordination Sequence:
#
# PCOD9539850 Si02
#       6
#    16  16  16  16  16  16
#     4  10  23  41  62  90 127 164 208 258 308 371
#     4  11  22  40  64  92 125 164 208 258 307 369
#     4  11  23  41  66  93 126 166 208 257 313 374
#     4  11  24  42  66  91 124 166 210 258 311 369
#     4  11  22  39  62  91 126 165 204 252 316 374
#     4  10  22  40  63  93 126 162 209 258 311 375
#
# _framework density 19.959167000000001
#
# number of rings (size 3 to 8) (size 9 to 14) (size 15 to 20)
#    0.000    1.333    3.333    2.000    2.333    6.333 
#    0.000    0.833    0.000    0.000    0.000    0.000 
#    0.000    0.000    0.000    0.000    0.000    0.000 
#
# Total GULP energy -267539.246720 kJ/mol
# GULP energy per Si atom -5573.734307 kJ/mol
# Density = 1.991374 g / cm^3
# Si number density = 19.959167 Si / 1000 Ang^3
#
#
#
# Elastic Constant Matrix: (Units=GPa)
#
#
# Indices 1 2 3 4 5 6 
#
# 1 107.8897 28.5283 40.6621 0.0000 0.0000 0.0000
# 2 28.5283 68.4579 38.6171 0.0000 0.0000 0.0000
# 3 40.6621 38.6171 108.4622 0.0000 0.0000 0.0000
# 4 0.0000 0.0000 0.0000 10.0349 0.0000 0.0000
# 5 0.0000 0.0000 0.0000 0.0000 20.3299 0.0000
# 6 0.0000 0.0000 0.0000 0.0000 0.0000 5.9572
#
#
#
# Elastic Compliance Matrix: (Units=1/GPa)
#
#
# Indices 1 2 3 4 5 6 
#
# 1 0.011231 -0.002885 -0.003184 0.000000 0.000000 0.000000
# 2 -0.002885 0.019020 -0.005690 0.000000 0.000000 0.000000
# 3 -0.003184 -0.005690 0.012439 0.000000 0.000000 0.000000
# 4 0.000000 0.000000 0.000000 0.099652 0.000000 0.000000
# 5 0.000000 0.000000 0.000000 0.000000 0.049189 0.000000
# 6 0.000000 0.000000 0.000000 0.000000 0.000000 0.167865
#
#
# Mechanical properties :
#
#
# Convention : Reuss Voigt Hill
#
# Bulk Modulus (GPa) = 52.15604 55.60275 53.87939
# Shear Modulus (GPa) = 12.84344 19.06456 15.95400
#
# Velocity S-wave (km/s) = 2.53945 3.09395 2.83031
# Velocity P-wave (km/s) = 5.89801 6.37825 6.14283
#
# Compressibility (1/GPa) = 0.01917324
#
# Stress axis : x y z
#
# Youngs Moduli (GPa) = 89.03691 52.57758 80.39035
#
# Poissons Ratio (x) = 0.15166 0.25593
# Poissons Ratio (y) = 0.25683 0.45745
# Poissons Ratio (z) = 0.28345 0.29918
#
# Static dielectric constant tensor:
#      x y z
#    x 1.715960 0.000000 0.000000 
#    y 0.000000 1.703520 0.000000 
#    z 0.000000 0.000000 1.773280 
# 
# From -- ./inp_files/32312.got.cif
#   From: 2010.05.17/outbox.cif.g08.bks.cpg/sg74_17_cif.got.tgz:32312.got - 2010.06.03 17:57:02.
