data_PCOD9539953
_publ_section_title
;
Structure prediction by ZEFSAII (Michael W. Deem and Ramdas Pophale) SiO2 
 PCOD9539953
Probable space group: I M M A
;
_chemical_formula_sum "Si O2"
_cell_formula_units_Z 52
_cell_length_a 15.851791
_cell_length_b 15.594956
_cell_length_c 9.319949
_cell_angle_alpha 90.000000
_cell_angle_beta 90.000000
_cell_angle_gamma 90.000000
_cell_volume 2303.965796
_symmetry_space_group_name_H-M "I M M A"
_symmetry_group_IT_number 74
_symmetry_cell_setting 'orthorhombic'
loop_
_space_group_symop_operation_xyz
x,y,z
-x,1/2-y,z
x,-y,-z
-x,1/2+y,-z
-x,-y,-z
x,1/2+y,-z
-x,y,z
x,1/2-y,z
1/2+x,1/2+y,1/2+z
1/2-x,-y,1/2+z
1/2+x,1/2-y,1/2-z
1/2-x,y,1/2-z
1/2-x,1/2-y,1/2-z
1/2+x,y,1/2-z
1/2-x,1/2+y,1/2+z
1/2+x,-y,1/2+z
loop_
_atom_site_type_symbol
_atom_site_label
_atom_site_fract_x
_atom_site_fract_y
_atom_site_fract_z
Si Si1 0.279317 0.417970 0.411342
Si Si2 0.167726 0.648659 0.347412
Si Si3 0.000000 0.250000 0.397041
Si Si4 0.000000 0.917038 0.399778
Si Si5 0.844522 0.750000 0.818772
O O1 0.309003 0.500000 0.500000
O O2 0.250000 0.439443 0.250000
O O3 0.197540 0.382551 0.496181
O O4 0.344115 0.338441 0.407117
O O5 0.148693 0.750000 0.346234
O O6 0.250000 0.636631 0.250000
O O7 0.085641 0.593646 0.309495
O O8 0.000000 0.165631 0.495228
O O9 0.917900 0.250000 0.296423
O O10 0.000000 0.000000 0.500000
O O11 0.750000 0.750000 0.750000
#
# Coordination Sequence:
#
# PCOD9539953 Si02
#       5
#    16  16   4   8   8
#     4  11  22  40  68 104 140 188 244 297 365 441
#     4  11  23  42  70 104 147 195 245 308 376 442
#     4  12  24  44  72 104 138 198 258 294 362 470
#     4  12  24  42  71 108 145 196 257 311 363 450
#     4  10  22  42  68  95 138 187 235 297 363 433
#
# _framework density 22.569782
#
# number of rings (size 3 to 8) (size 9 to 14) (size 15 to 20)
#    0.000    0.923    3.077    5.538    0.000    2.462 
#    0.000    2.308    0.000    0.000    0.000    7.538 
#    0.000    0.000    0.000    0.000    0.000    0.000 
#
# Total GULP energy -145470.481708 kJ/mol
# GULP energy per Si atom -5595.018527 kJ/mol
# Density = 2.251841 g / cm^3
# Si number density = 22.569782 Si / 1000 Ang^3
#
#
#
# Elastic Constant Matrix: (Units=GPa)
#
#
# Indices 1 2 3 4 5 6 
#
# 1 146.9278 26.5977 38.4653 0.0000 0.0000 0.0000
# 2 26.5977 189.6174 41.2606 0.0000 0.0000 0.0000
# 3 38.4653 41.2606 95.8779 0.0000 0.0000 0.0000
# 4 0.0000 0.0000 0.0000 44.1255 0.0000 0.0000
# 5 0.0000 0.0000 0.0000 0.0000 44.5406 0.0000
# 6 0.0000 0.0000 0.0000 0.0000 0.0000 10.2362
#
#
#
# Elastic Compliance Matrix: (Units=1/GPa)
#
#
# Indices 1 2 3 4 5 6 
#
# 1 0.007639 -0.000446 -0.002873 0.000000 0.000000 0.000000
# 2 -0.000446 0.005845 -0.002336 0.000000 0.000000 0.000000
# 3 -0.002873 -0.002336 0.012588 0.000000 0.000000 0.000000
# 4 0.000000 0.000000 0.000000 0.022663 0.000000 0.000000
# 5 0.000000 0.000000 0.000000 0.000000 0.022451 0.000000
# 6 0.000000 0.000000 0.000000 0.000000 0.000000 0.097692
#
#
# Mechanical properties :
#
#
# Convention : Reuss Voigt Hill
#
# Bulk Modulus (GPa) = 67.74559 71.67448 69.71003
# Shear Modulus (GPa) = 27.01124 41.52043 34.26584
#
# Velocity S-wave (km/s) = 3.46322 4.29376 3.90066
# Velocity P-wave (km/s) = 6.78771 7.51050 7.15824
#
# Compressibility (1/GPa) = 0.01476111
#
# Stress axis : x y z
#
# Youngs Moduli (GPa) = 130.90883 171.09386 79.44259
#
# Poissons Ratio (x) = 0.07638 0.22820
# Poissons Ratio (y) = 0.05844 0.18559
# Poissons Ratio (z) = 0.37604 0.39970
#
# Static dielectric constant tensor:
#      x y z
#    x 1.887330 0.000000 0.000000 
#    y 0.000000 1.911370 0.000000 
#    z 0.000000 0.000000 1.883200 
# 
# From -- ./inp_files/9944.got.cif
#   From: 2010.05.17/outbox.cif.g08.bks.cpg/sg74_5_cif.got.tgz:9944.got - 2010.06.03 17:57:02.
