data_PCOD9539230
_publ_section_title
;
Structure prediction by ZEFSAII (Michael W. Deem and Ramdas Pophale) SiO2 
 PCOD9539230
Probable space group: I M M A
;
_chemical_formula_sum "Si O2"
_cell_formula_units_Z 96
_cell_length_a 20.871016
_cell_length_b 24.127534
_cell_length_c 8.879130
_cell_angle_alpha 90.000000
_cell_angle_beta 90.000000
_cell_angle_gamma 90.000000
_cell_volume 4471.229293
_symmetry_space_group_name_H-M "I M M A"
_symmetry_group_IT_number 74
_symmetry_cell_setting 'orthorhombic'
loop_
_space_group_symop_operation_xyz
x,y,z
-x,1/2-y,z
x,-y,-z
-x,1/2+y,-z
-x,-y,-z
x,1/2+y,-z
-x,y,z
x,1/2-y,z
1/2+x,1/2+y,1/2+z
1/2-x,-y,1/2+z
1/2+x,1/2-y,1/2-z
1/2-x,y,1/2-z
1/2-x,1/2-y,1/2-z
1/2+x,y,1/2-z
1/2-x,1/2+y,1/2+z
1/2+x,-y,1/2+z
loop_
_atom_site_type_symbol
_atom_site_label
_atom_site_fract_x
_atom_site_fract_y
_atom_site_fract_z
Si Si1 0.764221 0.575257 0.083531
Si Si2 0.356711 0.924032 0.876574
Si Si3 0.826382 0.187130 0.870853
Si Si4 0.395716 0.521263 0.355988
Si Si5 0.172966 0.690336 0.780688
Si Si6 0.428757 0.123683 0.834462
O O1 0.750000 0.552739 0.250000
O O2 0.770353 0.641621 0.103982
O O3 0.834354 0.551021 0.061195
O O4 0.711189 0.562501 0.959495
O O5 0.349191 0.867825 0.783385
O O6 0.378292 0.974639 0.769517
O O7 0.403134 0.904103 0.011440
O O8 0.808738 0.250000 0.831446
O O9 0.876824 0.163802 0.747739
O O10 0.848832 0.190279 0.044964
O O11 0.432622 0.500000 0.500000
O O12 0.430238 0.570943 0.273860
O O13 0.150561 0.750000 0.714670
O O14 0.250000 0.690352 0.750000
O O15 0.500000 0.147967 0.851475
#
# Coordination Sequence:
#
# PCOD9539230 Si02
#       6
#    16  16  16  16  16  16
#     4  11  22  35  56  99 132 164 199 251 319 395
#     4  12  23  39  63  95 131 170 208 264 326 384
#     4  10  21  41  65  93 130 168 208 256 320 388
#     4  11  26  39  62  92 129 168 211 260 325 392
#     4  10  21  37  62  98 134 165 198 247 318 398
#     4  11  26  46  63  87 121 167 230 277 314 365
#
# _framework density 21.470604999999999
#
# number of rings (size 3 to 8) (size 9 to 14) (size 15 to 20)
#    0.000    1.167    5.000    2.500    2.333    3.000 
#    0.000    2.500    0.000    1.000    0.000    0.000 
#    0.000    0.000    0.000    0.000    0.000    0.000 
#
# Total GULP energy -267534.266015 kJ/mol
# GULP energy per Si atom -5573.630542 kJ/mol
# Density = 2.142174 g / cm^3
# Si number density = 21.470605 Si / 1000 Ang^3
#
#
#
# Elastic Constant Matrix: (Units=GPa)
#
#
# Indices 1 2 3 4 5 6 
#
# 1 86.0617 14.6592 32.4508 0.0000 0.0000 0.0000
# 2 14.6592 132.9117 35.1170 0.0000 0.0000 0.0000
# 3 32.4508 35.1170 111.6223 0.0000 0.0000 0.0000
# 4 0.0000 0.0000 0.0000 10.9094 0.0000 0.0000
# 5 0.0000 0.0000 0.0000 0.0000 -64.2345 0.0000
# 6 0.0000 0.0000 0.0000 0.0000 0.0000 -132.2066
#
#
#
# Elastic Compliance Matrix: (Units=1/GPa)
#
#
# Indices 1 2 3 4 5 6 
#
# 1 0.013078 -0.000478 -0.003652 0.000000 0.000000 0.000000
# 2 -0.000478 0.008223 -0.002448 0.000000 0.000000 0.000000
# 3 -0.003652 -0.002448 0.010791 0.000000 0.000000 0.000000
# 4 0.000000 0.000000 0.000000 0.091664 0.000000 0.000000
# 5 0.000000 0.000000 0.000000 0.000000 -0.015568 0.000000
# 6 0.000000 0.000000 0.000000 0.000000 0.000000 -0.007564
#
#
# Mechanical properties :
#
#
# Convention : Reuss Voigt Hill
#
# Bulk Modulus (GPa) = 52.80754 55.00554 53.90654
# Shear Modulus (GPa) = 41.63498 -20.54843 10.54327
#
# Velocity S-wave (km/s) = 4.40837 -3.09698 2.21838
# Velocity P-wave (km/s) = 7.11058 3.58974 5.63234
#
# Compressibility (1/GPa) = 0.01893669
#
# Stress axis : x y z
#
# Youngs Moduli (GPa) = 76.46514 121.60530 92.67276
#
# Poissons Ratio (x) = 0.05807 0.33842
# Poissons Ratio (y) = 0.03652 0.22689
# Poissons Ratio (z) = 0.27923 0.29772
#
# Static dielectric constant tensor:
#      x y z
#    x 1.868460 0.000000 0.000000 
#    y 0.000000 1.811200 0.000000 
#    z 0.000000 0.000000 2.971360 
# 
# From -- ./inp_files/13877.got.cif
#   From: 2010.05.17/outbox.cif.g08.bks.cpg/sg74_7_cif.got.tgz:13877.got - 2010.06.03 17:57:02.
