data_PCOD9539084
_publ_section_title
;
Structure prediction by ZEFSAII (Michael W. Deem and Ramdas Pophale) SiO2 
 PCOD9539084
Probable space group: I M M A
;
_chemical_formula_sum "Si O2"
_cell_formula_units_Z 104
_cell_length_a 7.577702
_cell_length_b 22.737842
_cell_length_c 26.327155
_cell_angle_alpha 90.000000
_cell_angle_beta 90.000000
_cell_angle_gamma 90.000000
_cell_volume 4536.184361
_symmetry_space_group_name_H-M "I M M A"
_symmetry_group_IT_number 74
_symmetry_cell_setting 'orthorhombic'
loop_
_space_group_symop_operation_xyz
x,y,z
-x,1/2-y,z
x,-y,-z
-x,1/2+y,-z
-x,-y,-z
x,1/2+y,-z
-x,y,z
x,1/2-y,z
1/2+x,1/2+y,1/2+z
1/2-x,-y,1/2+z
1/2+x,1/2-y,1/2-z
1/2-x,y,1/2-z
1/2-x,1/2-y,1/2-z
1/2+x,y,1/2-z
1/2-x,1/2+y,1/2+z
1/2+x,-y,1/2+z
loop_
_atom_site_type_symbol
_atom_site_label
_atom_site_fract_x
_atom_site_fract_y
_atom_site_fract_z
Si Si1 0.703620 0.183944 0.991680
Si Si2 0.285819 0.433470 0.356532
Si Si3 0.288164 0.314264 0.309617
Si Si4 0.711321 0.549384 0.306957
Si Si5 0.792984 0.558204 0.527782
Si Si6 0.290056 0.250000 0.809179
Si Si7 0.702999 0.145726 0.618738
O O1 0.500000 0.186801 0.008803
O O2 0.779944 0.250000 0.000877
O O3 0.707136 0.171344 0.931242
O O4 0.782231 0.123497 0.015058
O O5 0.500000 0.432492 0.356851
O O6 0.219927 0.369273 0.341023
O O7 0.229180 0.482716 0.316126
O O8 0.224672 0.450539 0.412343
O O9 0.500000 0.313295 0.315273
O O10 0.219630 0.250000 0.324904
O O11 0.250000 0.322459 0.250000
O O12 0.500000 0.551578 0.311739
O O13 0.750000 0.570272 0.250000
O O14 0.781268 0.588622 0.353527
O O15 0.718336 0.500000 0.500000
O O16 0.000000 0.561214 0.512862
O O17 0.500000 0.250000 0.817001
O O18 0.250000 0.250000 0.750000
O O19 0.210331 0.306074 0.837156
O O20 0.500000 0.134339 0.603934
#
# Coordination Sequence:
#
# PCOD9539084 Si02
#       7
#    16  16  16  16  16   8  16
#     4  10  21  38  59  83 112 148 189 236 288 338
#     4  10  21  37  56  81 113 146 184 233 285 336
#     4   9  18  33  54  81 113 148 185 225 272 331
#     4  10  22  37  55  82 114 148 187 232 280 335
#     4  10  22  39  58  82 111 145 189 237 286 341
#     4  12  24  38  56  80 112 148 186 230 277 326
#     4  11  22  37  57  83 112 145 189 232 277 336
#
# _framework density 22.926756999999998
#
# number of rings (size 3 to 8) (size 9 to 14) (size 15 to 20)
#    0.000    1.846    0.769    3.000    0.000    5.231 
#    0.000    0.000    0.000    0.000    0.000    0.000 
#    0.000    0.000    0.000    0.000    0.000    0.000 
#
# Total GULP energy -290433.901161 kJ/mol
# GULP energy per Si atom -5585.267330 kJ/mol
# Density = 2.287457 g / cm^3
# Si number density = 22.926757 Si / 1000 Ang^3
#
#
#
# Elastic Constant Matrix: (Units=GPa)
#
#
# Indices 1 2 3 4 5 6 
#
# 1 61.0631 7.2733 -14.7467 0.0000 0.0000 0.0000
# 2 7.2733 156.3094 17.5457 0.0000 0.0000 0.0000
# 3 -14.7467 17.5457 39.7207 0.0000 0.0000 0.0000
# 4 0.0000 0.0000 0.0000 38.0491 0.0000 0.0000
# 5 0.0000 0.0000 0.0000 0.0000 21.8415 0.0000
# 6 0.0000 0.0000 0.0000 0.0000 0.0000 14.3794
#
#
#
# Elastic Compliance Matrix: (Units=1/GPa)
#
#
# Indices 1 2 3 4 5 6 
#
# 1 0.018413 -0.001709 0.007591 0.000000 0.000000 0.000000
# 2 -0.001709 0.006890 -0.003678 0.000000 0.000000 0.000000
# 3 0.007591 -0.003678 0.029619 0.000000 0.000000 0.000000
# 4 0.000000 0.000000 0.000000 0.026282 0.000000 0.000000
# 5 0.000000 0.000000 0.000000 0.000000 0.045784 0.000000
# 6 0.000000 0.000000 0.000000 0.000000 0.000000 0.069544
#
#
# Mechanical properties :
#
#
# Convention : Reuss Voigt Hill
#
# Bulk Modulus (GPa) = 16.85486 30.80421 23.82953
# Shear Modulus (GPa) = 23.59600 31.32206 27.45903
#
# Velocity S-wave (km/s) = 3.21158 3.70020 3.46451
# Velocity P-wave (km/s) = 4.59564 5.63208 5.14005
#
# Compressibility (1/GPa) = 0.05933006
#
# Stress axis : x y z
#
# Youngs Moduli (GPa) = 54.30874 145.13942 33.76259
#
# Poissons Ratio (x) = 0.24802 -0.25629
# Poissons Ratio (y) = 0.09281 0.12418
# Poissons Ratio (z) = -0.41225 0.53381
#
# Static dielectric constant tensor:
#      x y z
#    x 1.872070 0.000000 0.000000 
#    y 0.000000 1.917560 0.000000 
#    z 0.000000 0.000000 1.744650 
# 
# From -- ./inp_files/64421.got.cif
#   From: 2010.05.17/outbox.cif.g08.bks.cpg/sg74_33_cif.got.tgz:64421.got - 2010.06.03 17:57:02.
