data_PCOD9539184
_publ_section_title
;
Structure prediction by ZEFSAII (Michael W. Deem and Ramdas Pophale) SiO2 
 PCOD9539184
Probable space group: I M M A
;
_chemical_formula_sum "Si O2"
_cell_formula_units_Z 88
_cell_length_a 10.976003
_cell_length_b 14.164658
_cell_length_c 27.983161
_cell_angle_alpha 90.000000
_cell_angle_beta 90.000000
_cell_angle_gamma 90.000000
_cell_volume 4350.579222
_symmetry_space_group_name_H-M "I M M A"
_symmetry_group_IT_number 74
_symmetry_cell_setting 'orthorhombic'
loop_
_space_group_symop_operation_xyz
x,y,z
-x,1/2-y,z
x,-y,-z
-x,1/2+y,-z
-x,-y,-z
x,1/2+y,-z
-x,y,z
x,1/2-y,z
1/2+x,1/2+y,1/2+z
1/2-x,-y,1/2+z
1/2+x,1/2-y,1/2-z
1/2-x,y,1/2-z
1/2-x,1/2-y,1/2-z
1/2+x,y,1/2-z
1/2-x,1/2+y,1/2+z
1/2+x,-y,1/2+z
loop_
_atom_site_type_symbol
_atom_site_label
_atom_site_fract_x
_atom_site_fract_y
_atom_site_fract_z
Si Si1 0.636469 0.642981 0.684771
Si Si2 0.644199 0.856707 0.170644
Si Si3 0.863577 0.442559 0.565419
Si Si4 0.637177 0.139699 0.507293
Si Si5 0.750000 0.505123 0.250000
Si Si6 0.276166 0.643090 0.912928
O O1 0.500000 0.635455 0.665095
O O2 0.651550 0.750000 0.703312
O O3 0.654656 0.566024 0.725590
O O4 0.729159 0.630222 0.640990
O O5 0.500000 0.854295 0.180073
O O6 0.692863 0.750000 0.175377
O O7 0.657953 0.892955 0.116527
O O8 0.701888 0.928281 0.208047
O O9 0.750023 0.412187 0.532676
O O10 0.859849 0.555000 0.573739
O O11 0.000000 0.415659 0.547989
O O12 0.500000 0.105363 0.518168
O O13 0.642974 0.250000 0.521497
O O14 0.664726 0.136702 0.450677
O O15 0.326435 0.750000 0.917831
#
# Coordination Sequence:
#
# PCOD9539184 Si02
#       6
#    16  16  16  16   8  16
#     4  10  21  37  59  88 122 160 201 249 309 370
#     4  10  22  40  60  85 120 159 200 251 310 365
#     4  11  23  41  63  90 126 167 206 250 308 368
#     4  10  22  40  64  94 126 163 207 252 300 361
#     4  12  20  38  62  88 114 154 206 260 304 362
#     4  10  21  39  61  89 125 161 199 250 307 364
#
# _framework density 20.227191999999999
#
# number of rings (size 3 to 8) (size 9 to 14) (size 15 to 20)
#    0.000    1.636    1.818    2.727    0.000    7.273 
#    0.000    1.818    0.000    3.273    0.000    0.000 
#    0.000    0.000    0.000    0.000    0.000    0.000 
#
# Total GULP energy -245589.865966 kJ/mol
# GULP energy per Si atom -5581.587863 kJ/mol
# Density = 2.018115 g / cm^3
# Si number density = 20.227192 Si / 1000 Ang^3
#
#
#
# Elastic Constant Matrix: (Units=GPa)
#
#
# Indices 1 2 3 4 5 6 
#
# 1 90.6687 41.9178 28.6810 0.0000 0.0000 0.0000
# 2 41.9178 142.3637 39.0616 0.0000 0.0000 0.0000
# 3 28.6810 39.0616 63.7897 0.0000 0.0000 0.0000
# 4 0.0000 0.0000 0.0000 33.8160 0.0000 0.0000
# 5 0.0000 0.0000 0.0000 0.0000 18.9914 0.0000
# 6 0.0000 0.0000 0.0000 0.0000 0.0000 -7.7269
#
#
#
# Elastic Compliance Matrix: (Units=1/GPa)
#
#
# Indices 1 2 3 4 5 6 
#
# 1 0.013743 -0.002826 -0.004449 0.000000 0.000000 0.000000
# 2 -0.002826 0.009024 -0.004255 0.000000 0.000000 0.000000
# 3 -0.004449 -0.004255 0.020282 0.000000 0.000000 0.000000
# 4 0.000000 0.000000 0.000000 0.029572 0.000000 0.000000
# 5 0.000000 0.000000 0.000000 0.000000 0.052656 0.000000
# 6 0.000000 0.000000 0.000000 0.000000 0.000000 -0.129417
#
#
# Mechanical properties :
#
#
# Convention : Reuss Voigt Hill
#
# Bulk Modulus (GPa) = 50.02576 57.34921 53.68748
# Shear Modulus (GPa) = 195.45355 21.49353 108.47354
#
# Velocity S-wave (km/s) = 9.84067 3.26330 7.33103
# Velocity P-wave (km/s) = 12.40581 6.52786 9.91254
#
# Compressibility (1/GPa) = 0.01998970
#
# Stress axis : x y z
#
# Youngs Moduli (GPa) = 72.76521 110.81753 49.30394
#
# Poissons Ratio (x) = 0.31315 0.21933
# Poissons Ratio (y) = 0.20562 0.20980
# Poissons Ratio (z) = 0.32371 0.47155
#
# Static dielectric constant tensor:
#      x y z
#    x 1.706760 0.000000 0.000000 
#    y 0.000000 1.746540 0.000000 
#    z 0.000000 0.000000 1.692160 
# 
# From -- ./inp_files/65930.got.cif
#   From: 2010.05.17/outbox.cif.g08.bks.cpg/sg74_33_cif.got.tgz:65930.got - 2010.06.03 17:57:02.
