data_PCOD9539388
_publ_section_title
;
Structure prediction by ZEFSAII (Michael W. Deem and Ramdas Pophale) SiO2 
 PCOD9539388
Probable space group: I M M A
;
_chemical_formula_sum "Si O2"
_cell_formula_units_Z 68
_cell_length_a 21.608304
_cell_length_b 14.617685
_cell_length_c 9.016080
_cell_angle_alpha 90.000000
_cell_angle_beta 90.000000
_cell_angle_gamma 90.000000
_cell_volume 2847.849514
_symmetry_space_group_name_H-M "I M M A"
_symmetry_group_IT_number 74
_symmetry_cell_setting 'orthorhombic'
loop_
_space_group_symop_operation_xyz
x,y,z
-x,1/2-y,z
x,-y,-z
-x,1/2+y,-z
-x,-y,-z
x,1/2+y,-z
-x,y,z
x,1/2-y,z
1/2+x,1/2+y,1/2+z
1/2-x,-y,1/2+z
1/2+x,1/2-y,1/2-z
1/2-x,y,1/2-z
1/2-x,1/2-y,1/2-z
1/2+x,y,1/2-z
1/2-x,1/2+y,1/2+z
1/2+x,-y,1/2+z
loop_
_atom_site_type_symbol
_atom_site_label
_atom_site_fract_x
_atom_site_fract_y
_atom_site_fract_z
Si Si1 0.911672 0.355498 0.667437
Si Si2 0.307941 0.851902 0.653485
Si Si3 0.500000 0.000000 0.000000
Si Si4 0.930329 0.861235 0.982982
Si Si5 0.723388 0.406947 0.909138
O O1 0.933137 0.250000 0.652418
O O2 0.918449 0.380354 0.842965
O O3 0.841188 0.357799 0.613211
O O4 0.947352 0.429844 0.570104
O O5 0.320380 0.750000 0.712872
O O6 0.250000 0.885940 0.750000
O O7 0.374895 0.897169 0.623418
O O8 0.276318 0.850487 0.492966
O O9 0.928811 0.750000 0.970845
O O10 0.000000 0.891620 0.941425
O O11 0.750000 0.427158 0.750000
O O12 0.713813 0.500000 0.000000
#
# Coordination Sequence:
#
# PCOD9539388 Si02
#       5
#    16  16   4  16  16
#     4  11  22  38  66 103 141 195 256 306 367 451
#     4  10  21  38  63  95 133 179 239 311 379 447
#     4  12  22  40  64 106 158 188 234 322 370 432
#     4   9  17  33  62  96 131 178 239 301 360 440
#     4  12  24  40  64  98 139 188 246 313 378 450
#
# _framework density 23.877666999999999
#
# number of rings (size 3 to 8) (size 9 to 14) (size 15 to 20)
#    0.000    1.412    4.706    1.765    0.000    0.941 
#    0.000    0.000    2.588    0.706    0.000    0.000 
#    0.000    0.000    0.000    0.000    0.000    1.412 
#
# Total GULP energy -189344.476900 kJ/mol
# GULP energy per Si atom -5568.955203 kJ/mol
# Density = 2.382332 g / cm^3
# Si number density = 23.877667 Si / 1000 Ang^3
#
#
#
# Elastic Constant Matrix: (Units=GPa)
#
#
# Indices 1 2 3 4 5 6 
#
# 1 220.8591 38.3936 50.1147 0.0000 0.0000 0.0000
# 2 38.3936 109.5671 40.0511 0.0000 0.0000 0.0000
# 3 50.1147 40.0511 95.2528 0.0000 0.0000 0.0000
# 4 0.0000 0.0000 0.0000 23.3584 0.0000 0.0000
# 5 0.0000 0.0000 0.0000 0.0000 28.7926 0.0000
# 6 0.0000 0.0000 0.0000 0.0000 0.0000 -87.6521
#
#
#
# Elastic Compliance Matrix: (Units=1/GPa)
#
#
# Indices 1 2 3 4 5 6 
#
# 1 0.005229 -0.000977 -0.002340 0.000000 0.000000 0.000000
# 2 -0.000977 0.010967 -0.004097 0.000000 0.000000 0.000000
# 3 -0.002340 -0.004097 0.013452 0.000000 0.000000 0.000000
# 4 0.000000 0.000000 0.000000 0.042811 0.000000 0.000000
# 5 0.000000 0.000000 0.000000 0.000000 0.034731 0.000000
# 6 0.000000 0.000000 0.000000 0.000000 0.000000 -0.011409
#
#
# Mechanical properties :
#
#
# Convention : Reuss Voigt Hill
#
# Bulk Modulus (GPa) = 67.47963 75.86642 71.67303
# Shear Modulus (GPa) = 43.27140 12.70775 27.98957
#
# Velocity S-wave (km/s) = 4.26163 2.30945 3.42747
# Velocity P-wave (km/s) = 7.24826 6.24126 6.76353
#
# Compressibility (1/GPa) = 0.01481929
#
# Stress axis : x y z
#
# Youngs Moduli (GPa) = 191.25686 91.18408 74.33600
#
# Poissons Ratio (x) = 0.08906 0.17396
# Poissons Ratio (y) = 0.18681 0.30458
# Poissons Ratio (z) = 0.44758 0.37361
#
# Static dielectric constant tensor:
#      x y z
#    x 1.760910 0.000000 0.000000 
#    y 0.000000 1.907240 0.000000 
#    z 0.000000 0.000000 1.811220 
# 
# From -- ./inp_files/11926.got.cif
#   From: 2010.05.17/outbox.cif.g08.bks.cpg/sg74_6_cif.got.tgz:11926.got - 2010.06.03 17:57:02.
