data_PCOD9539526
_publ_section_title
;
Structure prediction by ZEFSAII (Michael W. Deem and Ramdas Pophale) SiO2 
 PCOD9539526
Probable space group: I M M A
;
_chemical_formula_sum "Si O2"
_cell_formula_units_Z 96
_cell_length_a 14.634704
_cell_length_b 23.530648
_cell_length_c 12.868225
_cell_angle_alpha 90.000000
_cell_angle_beta 90.000000
_cell_angle_gamma 90.000000
_cell_volume 4431.354314
_symmetry_space_group_name_H-M "I M M A"
_symmetry_group_IT_number 74
_symmetry_cell_setting 'orthorhombic'
loop_
_space_group_symop_operation_xyz
x,y,z
-x,1/2-y,z
x,-y,-z
-x,1/2+y,-z
-x,-y,-z
x,1/2+y,-z
-x,y,z
x,1/2-y,z
1/2+x,1/2+y,1/2+z
1/2-x,-y,1/2+z
1/2+x,1/2-y,1/2-z
1/2-x,y,1/2-z
1/2-x,1/2-y,1/2-z
1/2+x,y,1/2-z
1/2-x,1/2+y,1/2+z
1/2+x,-y,1/2+z
loop_
_atom_site_type_symbol
_atom_site_label
_atom_site_fract_x
_atom_site_fract_y
_atom_site_fract_z
Si Si1 0.357363 0.123236 0.866427
Si Si2 0.887649 0.053755 0.200126
Si Si3 0.347597 0.928001 0.345436
Si Si4 0.892421 0.052980 0.437265
Si Si5 0.397574 0.857462 0.534226
Si Si6 0.869151 0.250000 0.690448
Si Si7 0.328826 0.250000 0.582699
O O1 0.391657 0.088103 0.765965
O O2 0.249019 0.106288 0.856627
O O3 0.392832 0.187025 0.848699
O O4 0.383584 0.103788 0.981213
O O5 0.859013 0.060112 0.320345
O O6 0.860749 0.108712 0.133273
O O7 0.000000 0.049159 0.192357
O O8 0.844073 0.995922 0.155582
O O9 0.401328 0.904219 0.443091
O O10 0.000000 0.040888 0.423793
O O11 0.849910 0.000000 0.500000
O O12 0.500000 0.836726 0.556892
O O13 0.342213 0.804700 0.488516
O O14 0.765736 0.250000 0.644517
O O15 0.891493 0.250000 0.813758
#
# Coordination Sequence:
#
# PCOD9539526 Si02
#       7
#    16  16  16  16  16   8   8
#     4  11  22  38  61  89 119 157 202 249 303 358
#     4  10  22  40  59  87 128 163 194 246 310 364
#     4  11  20  36  58  89 123 156 192 245 305 369
#     4  10  21  40  63  85 116 159 204 250 299 357
#     4  11  22  36  58  88 121 157 200 248 301 364
#     4  11  20  42  61  82 123 160 196 255 307 341
#     4  11  19  40  61  84 118 165 204 243 301 360
#
# _framework density 21.663806000000001
#
# number of rings (size 3 to 8) (size 9 to 14) (size 15 to 20)
#    0.000    1.333    5.000    2.250    0.000    3.333 
#    0.000    1.250    0.000    3.000    0.000    0.000 
#    0.000    0.000    0.000    0.000    0.000    0.000 
#
# Total GULP energy -267679.647065 kJ/mol
# GULP energy per Si atom -5576.659314 kJ/mol
# Density = 2.161450 g / cm^3
# Si number density = 21.663806 Si / 1000 Ang^3
#
#
#
# Elastic Constant Matrix: (Units=GPa)
#
#
# Indices 1 2 3 4 5 6 
#
# 1 63.1552 9.3849 20.9225 0.0000 0.0000 0.0000
# 2 9.3849 158.8250 87.7770 0.0000 0.0000 0.0000
# 3 20.9225 87.7770 166.7540 0.0000 0.0000 0.0000
# 4 0.0000 0.0000 0.0000 25.8753 0.0000 0.0000
# 5 0.0000 0.0000 0.0000 0.0000 18.2069 0.0000
# 6 0.0000 0.0000 0.0000 0.0000 0.0000 13.0092
#
#
#
# Elastic Compliance Matrix: (Units=1/GPa)
#
#
# Indices 1 2 3 4 5 6 
#
# 1 0.016527 0.000239 -0.002199 0.000000 0.000000 0.000000
# 2 0.000239 0.008883 -0.004706 0.000000 0.000000 0.000000
# 3 -0.002199 -0.004706 0.008750 0.000000 0.000000 0.000000
# 4 0.000000 0.000000 0.000000 0.038647 0.000000 0.000000
# 5 0.000000 0.000000 0.000000 0.000000 0.054924 0.000000
# 6 0.000000 0.000000 0.000000 0.000000 0.000000 0.076869
#
#
# Mechanical properties :
#
#
# Convention : Reuss Voigt Hill
#
# Bulk Modulus (GPa) = 48.01380 69.43367 58.72374
# Shear Modulus (GPa) = 22.23461 29.46160 25.84811
#
# Velocity S-wave (km/s) = 3.20714 3.69174 3.45794
# Velocity P-wave (km/s) = 5.99380 7.09169 6.56573
#
# Compressibility (1/GPa) = 0.02082735
#
# Stress axis : x y z
#
# Youngs Moduli (GPa) = 60.50654 112.57661 114.28732
#
# Poissons Ratio (x) = -0.02690 0.25137
# Poissons Ratio (y) = -0.01446 0.53781
# Poissons Ratio (z) = 0.13308 0.52976
#
# Static dielectric constant tensor:
#      x y z
#    x 1.899160 0.000000 0.000000 
#    y 0.000000 1.776990 0.000000 
#    z 0.000000 0.000000 1.779670 
# 
# From -- ./inp_files/22542.got.cif
#   From: 2010.05.17/outbox.cif.g08.bks.cpg/sg74_12_cif.got.tgz:22542.got - 2010.06.03 17:57:02.
