data_PCOD9539409
_publ_section_title
;
Structure prediction by ZEFSAII (Michael W. Deem and Ramdas Pophale) SiO2 
 PCOD9539409
Probable space group: I M M A
;
_chemical_formula_sum "Si O2"
_cell_formula_units_Z 88
_cell_length_a 20.920727
_cell_length_b 17.955854
_cell_length_c 11.993419
_cell_angle_alpha 90.000000
_cell_angle_beta 90.000000
_cell_angle_gamma 90.000000
_cell_volume 4505.322086
_symmetry_space_group_name_H-M "I M M A"
_symmetry_group_IT_number 74
_symmetry_cell_setting 'orthorhombic'
loop_
_space_group_symop_operation_xyz
x,y,z
-x,1/2-y,z
x,-y,-z
-x,1/2+y,-z
-x,-y,-z
x,1/2+y,-z
-x,y,z
x,1/2-y,z
1/2+x,1/2+y,1/2+z
1/2-x,-y,1/2+z
1/2+x,1/2-y,1/2-z
1/2-x,y,1/2-z
1/2-x,1/2-y,1/2-z
1/2+x,y,1/2-z
1/2-x,1/2+y,1/2+z
1/2+x,-y,1/2+z
loop_
_atom_site_type_symbol
_atom_site_label
_atom_site_fract_x
_atom_site_fract_y
_atom_site_fract_z
Si Si1 0.122805 0.914091 0.697104
Si Si2 0.075932 0.162068 0.845418
Si Si3 0.000000 0.592343 0.542640
Si Si4 0.145942 0.916392 0.954433
Si Si5 0.783095 0.661873 0.544313
Si Si6 0.377779 0.919224 0.125050
O O1 0.056441 0.895520 0.636479
O O2 0.176746 0.857148 0.655551
O O3 0.118328 0.917153 0.829671
O O4 0.141688 0.996238 0.651632
O O5 0.089078 0.250000 0.841661
O O6 0.101228 0.127390 0.959508
O O7 0.108946 0.122215 0.740790
O O8 0.000000 0.150922 0.835366
O O9 0.943673 0.579358 0.446240
O O10 0.214366 0.876132 0.951756
O O11 0.153365 0.000000 0.000000
O O12 0.778207 0.750000 0.527959
O O13 0.824994 0.624316 0.445987
#
# Coordination Sequence:
#
# PCOD9539409 Si02
#       6
#    16  16   8  16  16  16
#     4  11  23  40  69  98 131 172 223 272 321 391
#     4  11  25  43  67 100 138 173 210 268 329 388
#     4  10  21  38  68 101 127 162 218 276 321 375
#     4  12  25  43  66  95 134 177 223 266 320 395
#     4  11  25  43  66  95 132 176 219 275 336 384
#     4  11  20  43  69 100 130 169 224 276 323 386
#
# _framework density 19.532454999999999
#
# number of rings (size 3 to 8) (size 9 to 14) (size 15 to 20)
#    0.000    0.909    2.727    6.000    1.273    3.273 
#    0.000    5.909    0.000    0.000    0.000    0.000 
#    0.000    0.000    0.000    0.000    0.000    0.000 
#
# Total GULP energy -245069.726527 kJ/mol
# GULP energy per Si atom -5569.766512 kJ/mol
# Density = 1.948800 g / cm^3
# Si number density = 19.532455 Si / 1000 Ang^3
#
#
#
# Elastic Constant Matrix: (Units=GPa)
#
#
# Indices 1 2 3 4 5 6 
#
# 1 18.6056 11.2295 -0.9203 0.0000 0.0000 0.0000
# 2 11.2295 34.9254 -4.5689 0.0000 0.0000 0.0000
# 3 -0.9203 -4.5689 133.0597 0.0000 0.0000 0.0000
# 4 0.0000 0.0000 0.0000 22.1655 0.0000 0.0000
# 5 0.0000 0.0000 0.0000 0.0000 20.2037 0.0000
# 6 0.0000 0.0000 0.0000 0.0000 0.0000 44.0339
#
#
#
# Elastic Compliance Matrix: (Units=1/GPa)
#
#
# Indices 1 2 3 4 5 6 
#
# 1 0.066699 -0.021482 -0.000276 0.000000 0.000000 0.000000
# 2 -0.021482 0.035680 0.001077 0.000000 0.000000 0.000000
# 3 -0.000276 0.001077 0.007550 0.000000 0.000000 0.000000
# 4 0.000000 0.000000 0.000000 0.045115 0.000000 0.000000
# 5 0.000000 0.000000 0.000000 0.000000 0.049496 0.000000
# 6 0.000000 0.000000 0.000000 0.000000 0.000000 0.022710
#
#
# Mechanical properties :
#
#
# Convention : Reuss Voigt Hill
#
# Bulk Modulus (GPa) = 14.58432 22.00792 18.29612
# Shear Modulus (GPa) = 17.15450 29.33730 23.24590
#
# Velocity S-wave (km/s) = 2.96675 3.87974 3.45355
# Velocity P-wave (km/s) = 4.38388 5.60015 5.02892
#
# Compressibility (1/GPa) = 0.06856677
#
# Stress axis : x y z
#
# Youngs Moduli (GPa) = 14.99278 28.02673 132.44196
#
# Poissons Ratio (x) = 0.60206 0.03659
# Poissons Ratio (y) = 0.32207 -0.14258
# Poissons Ratio (z) = 0.00414 -0.03017
#
# Static dielectric constant tensor:
#      x y z
#    x 1.641800 0.000000 0.000000 
#    y 0.000000 1.699950 0.000000 
#    z 0.000000 0.000000 1.676430 
# 
# From -- ./inp_files/23696.got.cif
#   From: 2010.05.17/outbox.cif.g08.bks.cpg/sg74_12_cif.got.tgz:23696.got - 2010.06.03 17:57:02.
