data_PCOD9539120
_publ_section_title
;
Structure prediction by ZEFSAII (Michael W. Deem and Ramdas Pophale) SiO2 
 PCOD9539120
Probable space group: I M M A
;
_chemical_formula_sum "Si O2"
_cell_formula_units_Z 56
_cell_length_a 15.181174
_cell_length_b 8.819299
_cell_length_c 20.544196
_cell_angle_alpha 90.000000
_cell_angle_beta 90.000000
_cell_angle_gamma 90.000000
_cell_volume 2750.607194
_symmetry_space_group_name_H-M "I M M A"
_symmetry_group_IT_number 74
_symmetry_cell_setting 'orthorhombic'
loop_
_space_group_symop_operation_xyz
x,y,z
-x,1/2-y,z
x,-y,-z
-x,1/2+y,-z
-x,-y,-z
x,1/2+y,-z
-x,y,z
x,1/2-y,z
1/2+x,1/2+y,1/2+z
1/2-x,-y,1/2+z
1/2+x,1/2-y,1/2-z
1/2-x,y,1/2-z
1/2-x,1/2-y,1/2-z
1/2+x,y,1/2-z
1/2-x,1/2+y,1/2+z
1/2+x,-y,1/2+z
loop_
_atom_site_type_symbol
_atom_site_label
_atom_site_fract_x
_atom_site_fract_y
_atom_site_fract_z
Si Si1 0.649410 0.567998 0.176999
Si Si2 0.102863 0.918148 0.061940
Si Si3 0.000000 0.432873 0.572948
Si Si4 0.344254 0.929123 0.689673
O O1 0.658984 0.750000 0.177136
O O2 0.585128 0.525152 0.117492
O O3 0.615522 0.514072 0.247770
O O4 0.744749 0.488544 0.176236
O O5 0.140841 0.750000 0.074326
O O6 0.000000 0.897852 0.047284
O O7 0.107591 0.023721 0.124302
O O8 0.145760 0.000000 0.000000
O O9 0.000000 0.500000 0.500000
O O10 0.000000 0.250000 0.567620
O O11 0.344278 0.750000 0.700956
#
# Coordination Sequence:
#
# PCOD9539120 Si02
#       4
#    16  16   8  16
#     4  10  21  40  61  86 117 154 199 247 295 351
#     4  10  21  37  57  83 116 153 192 237 288 346
#     4  10  24  42  64  90 119 156 201 248 304 360
#     4  11  22  37  59  89 119 155 198 243 296 353
#
# _framework density 20.359141000000001
#
# number of rings (size 3 to 8) (size 9 to 14) (size 15 to 20)
#    0.000    1.714    0.000    6.000    2.000    5.143 
#    0.000    2.857    0.000    0.000    0.000    0.000 
#    0.000    0.000    0.000    0.000    0.000    0.000 
#
# Total GULP energy -156220.588446 kJ/mol
# GULP energy per Si atom -5579.306730 kJ/mol
# Density = 2.031280 g / cm^3
# Si number density = 20.359141 Si / 1000 Ang^3
#
#
#
# Elastic Constant Matrix: (Units=GPa)
#
#
# Indices 1 2 3 4 5 6 
#
# 1 51.2497 22.0181 37.0701 0.0000 0.0000 0.0000
# 2 22.0181 100.9294 39.3815 0.0000 0.0000 0.0000
# 3 37.0701 39.3815 161.8223 0.0000 0.0000 0.0000
# 4 0.0000 0.0000 0.0000 30.0770 0.0000 0.0000
# 5 0.0000 0.0000 0.0000 0.0000 31.4337 0.0000
# 6 0.0000 0.0000 0.0000 0.0000 0.0000 17.0965
#
#
#
# Elastic Compliance Matrix: (Units=1/GPa)
#
#
# Indices 1 2 3 4 5 6 
#
# 1 0.024445 -0.003478 -0.004753 0.000000 0.000000 0.000000
# 2 -0.003478 0.011442 -0.001988 0.000000 0.000000 0.000000
# 3 -0.004753 -0.001988 0.007752 0.000000 0.000000 0.000000
# 4 0.000000 0.000000 0.000000 0.033248 0.000000 0.000000
# 5 0.000000 0.000000 0.000000 0.000000 0.031813 0.000000
# 6 0.000000 0.000000 0.000000 0.000000 0.000000 0.058491
#
#
# Mechanical properties :
#
#
# Convention : Reuss Voigt Hill
#
# Bulk Modulus (GPa) = 43.10190 56.77119 49.93654
# Shear Modulus (GPa) = 25.59326 30.09023 27.84175
#
# Velocity S-wave (km/s) = 3.54939 3.84861 3.70203
# Velocity P-wave (km/s) = 6.16558 6.90612 6.54633
#
# Compressibility (1/GPa) = 0.02320083
#
# Stress axis : x y z
#
# Youngs Moduli (GPa) = 40.90860 87.39499 128.99418
#
# Poissons Ratio (x) = 0.30396 0.61316
# Poissons Ratio (y) = 0.14228 0.25643
# Poissons Ratio (z) = 0.19445 0.17373
#
# Static dielectric constant tensor:
#      x y z
#    x 1.775530 0.000000 0.000000 
#    y 0.000000 1.739800 0.000000 
#    z 0.000000 0.000000 1.757380 
# 
# From -- ./inp_files/51379.got.cif
#   From: 2010.05.17/outbox.cif.g08.bks.cpg/sg74_26_cif.got.tgz:51379.got - 2010.06.03 17:57:02.
