data_PCOD9539858
_publ_section_title
;
Structure prediction by ZEFSAII (Michael W. Deem and Ramdas Pophale) SiO2 
 PCOD9539858
Probable space group: I M M A
;
_chemical_formula_sum "Si O2"
_cell_formula_units_Z 112
_cell_length_a 14.268260
_cell_length_b 26.566092
_cell_length_c 14.416622
_cell_angle_alpha 90.000000
_cell_angle_beta 90.000000
_cell_angle_gamma 90.000000
_cell_volume 5464.648074
_symmetry_space_group_name_H-M "I M M A"
_symmetry_group_IT_number 74
_symmetry_cell_setting 'orthorhombic'
loop_
_space_group_symop_operation_xyz
x,y,z
-x,1/2-y,z
x,-y,-z
-x,1/2+y,-z
-x,-y,-z
x,1/2+y,-z
-x,y,z
x,1/2-y,z
1/2+x,1/2+y,1/2+z
1/2-x,-y,1/2+z
1/2+x,1/2-y,1/2-z
1/2-x,y,1/2-z
1/2-x,1/2-y,1/2-z
1/2+x,y,1/2-z
1/2-x,1/2+y,1/2+z
1/2+x,-y,1/2+z
loop_
_atom_site_type_symbol
_atom_site_label
_atom_site_fract_x
_atom_site_fract_y
_atom_site_fract_z
Si Si1 0.385322 0.807281 0.346475
Si Si2 0.113514 0.628346 0.328452
Si Si3 0.113106 0.013602 0.722803
Si Si4 0.250242 0.865161 0.643183
Si Si5 0.603392 0.309825 0.452963
Si Si6 0.770710 0.974878 0.899563
Si Si7 0.386980 0.690536 0.987170
O O1 0.500000 0.806230 0.348476
O O2 0.353396 0.750000 0.333414
O O3 0.355835 0.841286 0.262028
O O4 0.357563 0.827116 0.447498
O O5 0.138559 0.570232 0.311356
O O6 0.141056 0.659087 0.420477
O O7 0.000000 0.628956 0.330048
O O8 0.158623 0.999201 0.822788
O O9 0.167116 0.980108 0.646578
O O10 0.000000 0.008202 0.724621
O O11 0.250000 0.879370 0.750000
O O12 0.329765 0.823753 0.629163
O O13 0.283871 0.915220 0.590551
O O14 0.158996 0.839645 0.598255
O O15 0.500000 0.330874 0.438851
O O16 0.596920 0.250000 0.462314
O O17 0.777133 0.000000 0.000000
O O18 0.500000 0.690189 0.981179
O O19 0.357920 0.750000 0.991377
#
# Coordination Sequence:
#
# PCOD9539858 Si02
#       7
#    16  16  16  16  16  16  16
#     4   8  14  28  53  87 125 158 191 235 294 370
#     4   9  17  33  61  93 124 162 199 245 313 377
#     4  10  22  42  65  95 128 165 217 270 323 388
#     4  12  25  43  61  88 119 165 213 260 314 366
#     4   9  20  38  60  87 119 158 202 249 306 371
#     4  11  25  45  65  93 128 169 215 273 329 379
#     4  10  22  40  64  96 130 165 208 255 309 381
#
# _framework density 20.495373000000001
#
# number of rings (size 3 to 8) (size 9 to 14) (size 15 to 20)
#    0.000    2.143    1.429    2.571    2.000    5.143 
#    0.000    1.429    0.000    2.571    0.000    0.000 
#    0.000    0.000    0.000    0.000    0.000    0.000 
#
# Total GULP energy -312397.543500 kJ/mol
# GULP energy per Si atom -5578.527563 kJ/mol
# Density = 2.044872 g / cm^3
# Si number density = 20.495373 Si / 1000 Ang^3
#
#
#
# Elastic Constant Matrix: (Units=GPa)
#
#
# Indices 1 2 3 4 5 6 
#
# 1 77.1921 11.3171 5.7572 0.0000 0.0000 0.0000
# 2 11.3171 78.5168 20.7514 0.0002 0.0000 0.0000
# 3 5.7572 20.7514 68.4678 0.0001 0.0000 0.0000
# 4 0.0000 0.0002 0.0001 48.9540 0.0000 0.0000
# 5 0.0000 0.0000 0.0000 0.0000 22.6511 0.0000
# 6 0.0000 0.0000 0.0000 0.0000 0.0000 22.8423
#
#
#
# Elastic Compliance Matrix: (Units=1/GPa)
#
#
# Indices 1 2 3 4 5 6 
#
# 1 0.013256 -0.001757 -0.000582 0.000000 0.000000 0.000000
# 2 -0.001757 0.014078 -0.004119 0.000000 0.000000 0.000000
# 3 -0.000582 -0.004119 0.015903 0.000000 0.000000 0.000000
# 4 0.000000 0.000000 0.000000 0.020427 0.000000 0.000000
# 5 0.000000 0.000000 0.000000 0.000000 0.044148 0.000000
# 6 0.000000 0.000000 0.000000 0.000000 0.000000 0.043778
#
#
# Mechanical properties :
#
#
# Convention : Reuss Voigt Hill
#
# Bulk Modulus (GPa) = 32.98109 33.31425 33.14767
# Shear Modulus (GPa) = 28.63479 31.31291 29.97385
#
# Velocity S-wave (km/s) = 3.74188 3.91295 3.82837
# Velocity P-wave (km/s) = 5.89880 6.05844 5.97915
#
# Compressibility (1/GPa) = 0.03032040
#
# Stress axis : x y z
#
# Youngs Moduli (GPa) = 75.43941 71.03295 62.88213
#
# Poissons Ratio (x) = 0.12479 0.03661
# Poissons Ratio (y) = 0.13253 0.25902
# Poissons Ratio (z) = 0.04392 0.29259
#
# Static dielectric constant tensor:
#      x y z
#    x 1.758810 0.000000 0.000000 
#    y 0.000000 1.742830 0.000000 
#    z 0.000000 0.000000 1.735760 
# 
# From -- ./inp_files/32754.got.cif
#   From: 2010.05.17/outbox.cif.g08.bks.cpg/sg74_17_cif.got.tgz:32754.got - 2010.06.03 17:57:02.
