data_PCOD9539958
_publ_section_title
;
Structure prediction by ZEFSAII (Michael W. Deem and Ramdas Pophale) SiO2 
 PCOD9539958
Probable space group: I M M A
;
_chemical_formula_sum "Si O2"
_cell_formula_units_Z 56
_cell_length_a 15.926981
_cell_length_b 27.476993
_cell_length_c 5.202103
_cell_angle_alpha 90.000000
_cell_angle_beta 90.000000
_cell_angle_gamma 90.000000
_cell_volume 2276.573163
_symmetry_space_group_name_H-M "I M M A"
_symmetry_group_IT_number 74
_symmetry_cell_setting 'orthorhombic'
loop_
_space_group_symop_operation_xyz
x,y,z
-x,1/2-y,z
x,-y,-z
-x,1/2+y,-z
-x,-y,-z
x,1/2+y,-z
-x,y,z
x,1/2-y,z
1/2+x,1/2+y,1/2+z
1/2-x,-y,1/2+z
1/2+x,1/2-y,1/2-z
1/2-x,y,1/2-z
1/2-x,1/2-y,1/2-z
1/2+x,y,1/2-z
1/2-x,1/2+y,1/2+z
1/2+x,-y,1/2+z
loop_
_atom_site_type_symbol
_atom_site_label
_atom_site_fract_x
_atom_site_fract_y
_atom_site_fract_z
Si Si1 0.173924 0.056653 0.071856
Si Si2 0.000000 0.533687 0.746528
Si Si3 0.597039 0.865886 0.253653
Si Si4 0.648675 0.693685 0.754061
O O1 0.250000 0.073060 0.250000
O O2 0.087249 0.061812 0.232874
O O3 0.155942 0.088132 0.819034
O O4 0.186487 0.000000 0.000000
O O5 0.000000 0.500000 0.500000
O O6 0.000000 0.500000 0.000000
O O7 0.500000 0.881895 0.248250
O O8 0.613077 0.829995 0.494758
O O9 0.618627 0.836758 0.998438
O O10 0.622709 0.750000 0.775310
O O11 0.750000 0.692302 0.750000
#
# Coordination Sequence:
#
# PCOD9539958 Si02
#       4
#    16   8  16  16
#     4  11  25  46  73 110 151 205 257 315 381 455
#     4  10  22  42  68  98 141 192 251 308 366 440
#     4  12  26  46  75 112 153 199 250 315 382 458
#     4  11  26  49  77 109 149 196 252 316 383 458
#
# _framework density 24.598375999999998
#
# number of rings (size 3 to 8) (size 9 to 14) (size 15 to 20)
#    0.000    0.857    1.429    4.286    0.000   14.857 
#    0.000    0.000    0.000    0.000    0.000    0.000 
#    0.000    0.000    0.000    0.000    0.000    0.000 
#
# Total GULP energy -157262.661397 kJ/mol
# GULP energy per Si atom -5616.523621 kJ/mol
# Density = 2.454239 g / cm^3
# Si number density = 24.598376 Si / 1000 Ang^3
#
#
#
# Elastic Constant Matrix: (Units=GPa)
#
#
# Indices 1 2 3 4 5 6 
#
# 1 165.7260 12.7122 35.1741 -0.0010 -0.0016 -0.0008
# 2 12.7122 182.8789 64.2547 0.0021 0.0040 -0.0004
# 3 35.1741 64.2547 178.0131 0.0791 0.0294 -0.0042
# 4 -0.0010 0.0021 0.0791 41.6835 -0.0008 0.0029
# 5 -0.0016 0.0040 0.0294 -0.0008 46.7790 0.0026
# 6 -0.0008 -0.0004 -0.0042 0.0029 0.0026 34.0519
#
#
#
# Elastic Compliance Matrix: (Units=1/GPa)
#
#
# Indices 1 2 3 4 5 6 
#
# 1 0.006298 -0.000001 -0.001244 0.000003 0.000001 0.000000
# 2 -0.000001 0.006262 -0.002260 0.000004 0.000001 0.000000
# 3 -0.001244 -0.002260 0.006679 -0.000013 -0.000004 0.000001
# 4 0.000003 0.000004 -0.000013 0.023990 0.000000 -0.000002
# 5 0.000001 0.000001 -0.000004 0.000000 0.021377 -0.000002
# 6 0.000000 0.000000 0.000001 -0.000002 -0.000002 0.029367
#
#
# Mechanical properties :
#
#
# Convention : Reuss Voigt Hill
#
# Bulk Modulus (GPa) = 81.76988 83.43334 82.60161
# Shear Modulus (GPa) = 47.59144 52.13470 49.86307
#
# Velocity S-wave (km/s) = 4.40334 4.60873 4.50720
# Velocity P-wave (km/s) = 7.69199 7.89382 7.79356
#
# Compressibility (1/GPa) = 0.01222944
#
# Stress axis : x y z
#
# Youngs Moduli (GPa) = 158.77584 159.68587 149.71658
#
# Poissons Ratio (x) = 0.00010 0.18629
# Poissons Ratio (y) = 0.00010 0.33840
# Poissons Ratio (z) = 0.19756 0.36094
#
# Static dielectric constant tensor:
#      x y z
#    x 1.971500 -0.000010 -0.000010 
#    y -0.000010 1.923870 -0.000480 
#    z -0.000010 -0.000480 1.823030 
# 
# From -- ./inp_files/2159.got.cif
#   From: 2010.05.17/outbox.cif.g08.bks.cpg/sg74_2_cif.got.tgz:2159.got - 2010.06.03 17:57:02.
