data_PCOD9539126
_publ_section_title
;
Structure prediction by ZEFSAII (Michael W. Deem and Ramdas Pophale) SiO2 
 PCOD9539126
Probable space group: I M M A
;
_chemical_formula_sum "Si O2"
_cell_formula_units_Z 56
_cell_length_a 8.669349
_cell_length_b 15.109600
_cell_length_c 20.436925
_cell_angle_alpha 90.000000
_cell_angle_beta 90.000000
_cell_angle_gamma 90.000000
_cell_volume 2677.040892
_symmetry_space_group_name_H-M "I M M A"
_symmetry_group_IT_number 74
_symmetry_cell_setting 'orthorhombic'
loop_
_space_group_symop_operation_xyz
x,y,z
-x,1/2-y,z
x,-y,-z
-x,1/2+y,-z
-x,-y,-z
x,1/2+y,-z
-x,y,z
x,1/2-y,z
1/2+x,1/2+y,1/2+z
1/2-x,-y,1/2+z
1/2+x,1/2-y,1/2-z
1/2-x,y,1/2-z
1/2-x,1/2-y,1/2-z
1/2+x,y,1/2-z
1/2-x,1/2+y,1/2+z
1/2+x,-y,1/2+z
loop_
_atom_site_type_symbol
_atom_site_label
_atom_site_fract_x
_atom_site_fract_y
_atom_site_fract_z
Si Si1 0.818764 0.907066 0.558486
Si Si2 0.670716 0.146679 0.313016
Si Si3 0.185578 0.750000 0.324550
Si Si4 0.684304 0.395278 0.576140
O O1 0.780315 0.858164 0.625055
O O2 0.731766 0.863872 0.496844
O O3 0.000000 0.909798 0.544571
O O4 0.754779 0.005872 0.573413
O O5 0.500000 0.108940 0.326716
O O6 0.650010 0.250000 0.298562
O O7 0.750000 0.103255 0.250000
O O8 0.250000 0.750000 0.250000
O O9 0.245207 0.834515 0.366812
O O10 0.000000 0.750000 0.322679
O O11 0.500000 0.397518 0.582290
#
# Coordination Sequence:
#
# PCOD9539126 Si02
#       4
#    16  16   8  16
#     4  11  22  39  63  92 125 163 208 257 310 367
#     4  10  21  37  57  85 121 159 202 249 303 363
#     4  12  26  46  68  96 129 166 211 262 320 382
#     4  11  23  42  65  92 124 161 207 257 310 368
#
# _framework density 20.918619
#
# number of rings (size 3 to 8) (size 9 to 14) (size 15 to 20)
#    0.000    1.143    0.000    9.000    2.000    2.857 
#    0.000    5.714    0.000    0.000    0.000    0.000 
#    0.000    0.000    0.000    0.000    0.000    0.000 
#
# Total GULP energy -156345.049557 kJ/mol
# GULP energy per Si atom -5583.751770 kJ/mol
# Density = 2.087101 g / cm^3
# Si number density = 20.918619 Si / 1000 Ang^3
#
#
#
# Elastic Constant Matrix: (Units=GPa)
#
#
# Indices 1 2 3 4 5 6 
#
# 1 183.8218 33.1529 50.1531 0.0000 0.0000 0.0000
# 2 33.1529 59.3817 37.4499 0.0000 0.0000 0.0000
# 3 50.1531 37.4499 157.4696 0.0000 0.0000 0.0000
# 4 0.0000 0.0000 0.0000 36.4918 0.0000 0.0000
# 5 0.0000 0.0000 0.0000 0.0000 34.6601 0.0000
# 6 0.0000 0.0000 0.0000 0.0000 0.0000 26.8402
#
#
#
# Elastic Compliance Matrix: (Units=1/GPa)
#
#
# Indices 1 2 3 4 5 6 
#
# 1 0.006292 -0.002646 -0.001375 0.000000 0.000000 0.000000
# 2 -0.002646 0.020924 -0.004134 0.000000 0.000000 0.000000
# 3 -0.001375 -0.004134 0.007771 0.000000 0.000000 0.000000
# 4 0.000000 0.000000 0.000000 0.027403 0.000000 0.000000
# 5 0.000000 0.000000 0.000000 0.000000 0.028852 0.000000
# 6 0.000000 0.000000 0.000000 0.000000 0.000000 0.037258
#
#
# Mechanical properties :
#
#
# Convention : Reuss Voigt Hill
#
# Bulk Modulus (GPa) = 53.53505 71.35388 62.44447
# Shear Modulus (GPa) = 33.10473 38.25956 35.68215
#
# Velocity S-wave (km/s) = 3.98244 4.28129 4.13457
# Velocity P-wave (km/s) = 6.84062 7.65660 7.26008
#
# Compressibility (1/GPa) = 0.01867935
#
# Stress axis : x y z
#
# Youngs Moduli (GPa) = 158.92283 47.79119 128.67772
#
# Poissons Ratio (x) = 0.12646 0.17691
# Poissons Ratio (y) = 0.42051 0.53190
# Poissons Ratio (z) = 0.21849 0.19755
#
# Static dielectric constant tensor:
#      x y z
#    x 1.770810 0.000000 0.000000 
#    y 0.000000 1.801320 0.000000 
#    z 0.000000 0.000000 1.779410 
# 
# From -- ./inp_files/38870.got.cif
#   From: 2010.05.17/outbox.cif.g08.bks.cpg/sg74_20_cif.got.tgz:38870.got - 2010.06.03 17:57:02.
