data_PCOD9539930
_publ_section_title
;
Structure prediction by ZEFSAII (Michael W. Deem and Ramdas Pophale) SiO2 
 PCOD9539930
Probable space group: I M M A
;
_chemical_formula_sum "Si O2"
_cell_formula_units_Z 52
_cell_length_a 7.849942
_cell_length_b 17.131564
_cell_length_c 17.139701
_cell_angle_alpha 90.000000
_cell_angle_beta 90.000000
_cell_angle_gamma 90.000000
_cell_volume 2304.977564
_symmetry_space_group_name_H-M "I M M A"
_symmetry_group_IT_number 74
_symmetry_cell_setting 'orthorhombic'
loop_
_space_group_symop_operation_xyz
x,y,z
-x,1/2-y,z
x,-y,-z
-x,1/2+y,-z
-x,-y,-z
x,1/2+y,-z
-x,y,z
x,1/2-y,z
1/2+x,1/2+y,1/2+z
1/2-x,-y,1/2+z
1/2+x,1/2-y,1/2-z
1/2-x,y,1/2-z
1/2-x,1/2-y,1/2-z
1/2+x,y,1/2-z
1/2-x,1/2+y,1/2+z
1/2+x,-y,1/2+z
loop_
_atom_site_type_symbol
_atom_site_label
_atom_site_fract_x
_atom_site_fract_y
_atom_site_fract_z
Si Si1 0.202670 0.663232 0.954872
Si Si2 0.303823 0.034740 0.167339
Si Si3 0.500000 0.250000 0.810480
Si Si4 0.805714 0.637257 0.139586
O O1 0.269296 0.750000 0.936061
O O2 0.278302 0.595162 0.902554
O O3 0.000000 0.662718 0.940869
O O4 0.225396 0.649384 0.046981
O O5 0.500000 0.012384 0.170792
O O6 0.250000 0.071140 0.250000
O O7 0.201791 0.954660 0.156143
O O8 0.652303 0.317302 0.819663
O O9 0.000000 0.665457 0.156964
#
# Coordination Sequence:
#
# PCOD9539930 Si02
#       4
#    16  16   4  16
#     4  10  22  41  68  99 133 170 215 275 333 384
#     4  12  26  43  66  94 132 179 223 269 329 401
#     4  12  22  40  72 106 130 172 220 274 322 404
#     4  11  23  43  70  99 137 170 218 277 328 388
#
# _framework density 22.559874000000001
#
# number of rings (size 3 to 8) (size 9 to 14) (size 15 to 20)
#    0.000    0.923    3.077    4.154    2.154    4.923 
#    0.000    0.769    0.000    0.000    0.000    0.000 
#    0.000    0.000    0.000    0.000    0.000    0.000 
#
# Total GULP energy -145115.203265 kJ/mol
# GULP energy per Si atom -5581.353972 kJ/mol
# Density = 2.250853 g / cm^3
# Si number density = 22.559874 Si / 1000 Ang^3
#
#
#
# Elastic Constant Matrix: (Units=GPa)
#
#
# Indices 1 2 3 4 5 6 
#
# 1 166.0774 47.2880 54.7220 0.0000 0.0000 0.0000
# 2 47.2880 113.1735 51.0807 0.0000 0.0000 0.0000
# 3 54.7220 51.0807 84.0156 0.0000 0.0000 0.0000
# 4 0.0000 0.0000 0.0000 150.4601 0.0000 0.0000
# 5 0.0000 0.0000 0.0000 0.0000 34.4516 0.0000
# 6 0.0000 0.0000 0.0000 0.0000 0.0000 34.1473
#
#
#
# Elastic Compliance Matrix: (Units=1/GPa)
#
#
# Indices 1 2 3 4 5 6 
#
# 1 0.007810 -0.001333 -0.004276 0.000000 0.000000 0.000000
# 2 -0.001333 0.012405 -0.006674 0.000000 0.000000 0.000000
# 3 -0.004276 -0.006674 0.018746 0.000000 0.000000 0.000000
# 4 0.000000 0.000000 0.000000 0.006646 0.000000 0.000000
# 5 0.000000 0.000000 0.000000 0.000000 0.029026 0.000000
# 6 0.000000 0.000000 0.000000 0.000000 0.000000 0.029285
#
#
# Mechanical properties :
#
#
# Convention : Reuss Voigt Hill
#
# Bulk Modulus (GPa) = 69.47386 74.38310 71.92848
# Shear Modulus (GPa) = 37.51414 57.82352 47.66883
#
# Velocity S-wave (km/s) = 4.08225 5.06821 4.60172
# Velocity P-wave (km/s) = 7.28573 8.20317 7.75803
#
# Compressibility (1/GPa) = 0.01439390
#
# Stress axis : x y z
#
# Youngs Moduli (GPa) = 128.04251 80.61042 53.34599
#
# Poissons Ratio (x) = 0.10747 0.22812
# Poissons Ratio (y) = 0.17070 0.35603
# Poissons Ratio (z) = 0.54755 0.53799
#
# Static dielectric constant tensor:
#      x y z
#    x 1.807490 0.000000 0.000000 
#    y 0.000000 1.797240 0.000000 
#    z 0.000000 0.000000 1.857430 
# 
# From -- ./inp_files/34756.got.cif
#   From: 2010.05.17/outbox.cif.g08.bks.cpg/sg74_18_cif.got.tgz:34756.got - 2010.06.03 17:57:02.
