data_PCOD9539944
_publ_section_title
;
Structure prediction by ZEFSAII (Michael W. Deem and Ramdas Pophale) SiO2 
 PCOD9539944
Probable space group: I M M A
;
_chemical_formula_sum "Si O2"
_cell_formula_units_Z 80
_cell_length_a 9.597611
_cell_length_b 21.434042
_cell_length_c 19.350405
_cell_angle_alpha 90.000000
_cell_angle_beta 90.000000
_cell_angle_gamma 90.000000
_cell_volume 3980.680122
_symmetry_space_group_name_H-M "I M M A"
_symmetry_group_IT_number 74
_symmetry_cell_setting 'orthorhombic'
loop_
_space_group_symop_operation_xyz
x,y,z
-x,1/2-y,z
x,-y,-z
-x,1/2+y,-z
-x,-y,-z
x,1/2+y,-z
-x,y,z
x,1/2-y,z
1/2+x,1/2+y,1/2+z
1/2-x,-y,1/2+z
1/2+x,1/2-y,1/2-z
1/2-x,y,1/2-z
1/2-x,1/2-y,1/2-z
1/2+x,y,1/2-z
1/2-x,1/2+y,1/2+z
1/2+x,-y,1/2+z
loop_
_atom_site_type_symbol
_atom_site_label
_atom_site_fract_x
_atom_site_fract_y
_atom_site_fract_z
Si Si1 0.760831 0.110737 0.592683
Si Si2 0.500000 0.174110 0.663626
Si Si3 0.170677 0.502566 0.681434
Si Si4 0.334046 0.179560 0.468263
Si Si5 0.831571 0.134506 0.184551
Si Si6 0.500000 0.676619 0.175411
O O1 0.625812 0.140397 0.626725
O O2 0.790454 0.040238 0.615895
O O3 0.749239 0.128317 0.512305
O O4 0.874412 0.149897 0.632885
O O5 0.500000 0.250000 0.656010
O O6 0.500000 0.158045 0.744656
O O7 0.250000 0.475286 0.750000
O O8 0.248087 0.569167 0.674001
O O9 0.000000 0.505841 0.689238
O O10 0.500000 0.171847 0.480823
O O11 0.295311 0.250000 0.490071
O O12 0.315404 0.171783 0.386457
O O13 0.750000 0.163434 0.250000
O O14 0.000000 0.126032 0.196846
O O15 0.500000 0.750000 0.175151
#
# Coordination Sequence:
#
# PCOD9539944 Si02
#       6
#    16   8  16  16  16   8
#     4  12  23  37  59  90 123 165 207 254 304 363
#     4  11  22  36  58  81 117 169 216 257 299 355
#     4  11  23  40  63  92 128 167 208 257 307 362
#     4  10  22  42  66  91 124 166 207 252 308 373
#     4  10  22  42  69  96 121 155 204 258 314 377
#     4  11  22  36  52  83 123 161 212 261 303 349
#
# _framework density 20.097068
#
# number of rings (size 3 to 8) (size 9 to 14) (size 15 to 20)
#    0.000    1.200    2.000    6.000    2.800    2.800 
#    3.600    3.000    0.000    0.000    0.000    0.000 
#    0.000    0.000    0.000    0.000    0.000    0.000 
#
# Total GULP energy -223051.199822 kJ/mol
# GULP energy per Si atom -5576.279996 kJ/mol
# Density = 2.005133 g / cm^3
# Si number density = 20.097068 Si / 1000 Ang^3
#
#
#
# Elastic Constant Matrix: (Units=GPa)
#
#
# Indices 1 2 3 4 5 6 
#
# 1 140.9923 9.7868 18.9930 0.0000 0.0000 0.0000
# 2 9.7868 39.0358 14.2477 0.0000 0.0000 0.0000
# 3 18.9930 14.2477 91.9361 0.0000 0.0000 0.0000
# 4 0.0000 0.0000 0.0000 28.4120 0.0000 0.0000
# 5 0.0000 0.0000 0.0000 0.0000 40.6688 0.0000
# 6 0.0000 0.0000 0.0000 0.0000 0.0000 23.5100
#
#
#
# Elastic Compliance Matrix: (Units=1/GPa)
#
#
# Indices 1 2 3 4 5 6 
#
# 1 0.007364 -0.001368 -0.001309 0.000000 0.000000 0.000000
# 2 -0.001368 0.027408 -0.003965 0.000000 0.000000 0.000000
# 3 -0.001309 -0.003965 0.011762 0.000000 0.000000 0.000000
# 4 0.000000 0.000000 0.000000 0.035196 0.000000 0.000000
# 5 0.000000 0.000000 0.000000 0.000000 0.024589 0.000000
# 6 0.000000 0.000000 0.000000 0.000000 0.000000 0.042535
#
#
# Mechanical properties :
#
#
# Convention : Reuss Voigt Hill
#
# Bulk Modulus (GPa) = 30.07621 39.77990 34.92806
# Shear Modulus (GPa) = 28.86473 33.78061 31.32267
#
# Velocity S-wave (km/s) = 3.79392 4.10429 3.95215
# Velocity P-wave (km/s) = 5.84720 6.50363 6.18413
#
# Compressibility (1/GPa) = 0.03324887
#
# Stress axis : x y z
#
# Youngs Moduli (GPa) = 135.79687 36.48607 85.01933
#
# Poissons Ratio (x) = 0.04993 0.11131
# Poissons Ratio (y) = 0.18582 0.33708
# Poissons Ratio (z) = 0.17779 0.14466
#
# Static dielectric constant tensor:
#      x y z
#    x 1.658390 0.000000 0.000000 
#    y 0.000000 1.373430 0.000000 
#    z 0.000000 0.000000 1.763240 
# 
# From -- ./inp_files/39802.got.cif
#   From: 2010.05.17/outbox.cif.g08.bks.cpg/sg74_20_cif.got.tgz:39802.got - 2010.06.03 17:57:02.
