data_PCOD9539331
_publ_section_title
;
Structure prediction by ZEFSAII (Michael W. Deem and Ramdas Pophale) SiO2 
 PCOD9539331
Probable space group: I M M A
;
_chemical_formula_sum "Si O2"
_cell_formula_units_Z 96
_cell_length_a 30.336677
_cell_length_b 15.906199
_cell_length_c 9.678161
_cell_angle_alpha 90.000000
_cell_angle_beta 90.000000
_cell_angle_gamma 90.000000
_cell_volume 4670.111629
_symmetry_space_group_name_H-M "I M M A"
_symmetry_group_IT_number 74
_symmetry_cell_setting 'orthorhombic'
loop_
_space_group_symop_operation_xyz
x,y,z
-x,1/2-y,z
x,-y,-z
-x,1/2+y,-z
-x,-y,-z
x,1/2+y,-z
-x,y,z
x,1/2-y,z
1/2+x,1/2+y,1/2+z
1/2-x,-y,1/2+z
1/2+x,1/2-y,1/2-z
1/2-x,y,1/2-z
1/2-x,1/2-y,1/2-z
1/2+x,y,1/2-z
1/2-x,1/2+y,1/2+z
1/2+x,-y,1/2+z
loop_
_atom_site_type_symbol
_atom_site_label
_atom_site_fract_x
_atom_site_fract_y
_atom_site_fract_z
Si Si1 0.449594 0.100579 0.986923
Si Si2 0.370280 0.646708 0.518285
Si Si3 0.867072 0.850191 0.302522
Si Si4 0.721520 0.153467 0.375484
Si Si5 0.450993 0.649803 0.699507
Si Si6 0.774900 0.578779 0.395793
O O1 0.500000 0.125469 0.949068
O O2 0.412438 0.130535 0.881620
O O3 0.440197 0.135591 0.139992
O O4 0.448371 0.000000 0.000000
O O5 0.369554 0.750000 0.522447
O O6 0.370474 0.624026 0.357772
O O7 0.325972 0.614312 0.592693
O O8 0.413125 0.616454 0.599990
O O9 0.858860 0.750000 0.308055
O O10 0.825418 0.896893 0.369480
O O11 0.712693 0.250000 0.336409
O O12 0.750000 0.116932 0.250000
O O13 0.749389 0.149407 0.515713
O O14 0.500000 0.614400 0.674253
O O15 0.453002 0.750000 0.677158
O O16 0.771752 0.500000 0.500000
O O17 0.750000 0.569217 0.250000
#
# Coordination Sequence:
#
# PCOD9539331 Si02
#       6
#    16  16  16  16  16  16
#     4  10  22  41  62  90 128 166 206 253 306 368
#     4   9  19  36  58  89 120 152 200 255 310 361
#     4  11  23  40  65  94 122 160 207 258 311 365
#     4  10  21  38  61  88 118 159 207 255 306 367
#     4   9  18  35  60  88 119 158 203 251 303 364
#     4  12  25  43  62  88 127 166 208 255 313 373
#
# _framework density 20.556253999999999
#
# number of rings (size 3 to 8) (size 9 to 14) (size 15 to 20)
#    0.000    1.833    1.667    2.000    2.333    2.333 
#    3.000    2.500    0.000    3.000    0.000    0.000 
#    0.000    0.000    0.000    0.000    0.000    0.000 
#
# Total GULP energy -268063.518900 kJ/mol
# GULP energy per Si atom -5584.656644 kJ/mol
# Density = 2.050947 g / cm^3
# Si number density = 20.556254 Si / 1000 Ang^3
#
#
#
# Elastic Constant Matrix: (Units=GPa)
#
#
# Indices 1 2 3 4 5 6 
#
# 1 153.0135 0.9538 95.7935 0.0000 0.0000 0.0000
# 2 0.9538 23.4912 6.5439 0.0000 0.0000 0.0000
# 3 95.7935 6.5439 135.6909 0.0000 0.0000 0.0000
# 4 0.0000 0.0000 0.0000 -11.0664 0.0000 0.0000
# 5 0.0000 0.0000 0.0000 0.0000 55.2028 0.0000
# 6 0.0000 0.0000 0.0000 0.0000 0.0000 -36.1408
#
#
#
# Elastic Compliance Matrix: (Units=1/GPa)
#
#
# Indices 1 2 3 4 5 6 
#
# 1 0.011792 0.001865 -0.008414 0.000000 0.000000 0.000000
# 2 0.001865 0.043444 -0.003412 0.000000 0.000000 0.000000
# 3 -0.008414 -0.003412 0.013475 0.000000 0.000000 0.000000
# 4 0.000000 0.000000 0.000000 -0.090363 0.000000 0.000000
# 5 0.000000 0.000000 0.000000 0.000000 0.018115 0.000000
# 6 0.000000 0.000000 0.000000 0.000000 0.000000 -0.027670
#
#
# Mechanical properties :
#
#
# Convention : Reuss Voigt Hill
#
# Bulk Modulus (GPa) = 20.49693 57.64197 39.06945
# Shear Modulus (GPa) = 1004.60349 15.52607 510.06478
#
# Velocity S-wave (km/s) = 22.13076 2.75125 15.76927
# Velocity P-wave (km/s) = 25.74917 6.18017 18.72451
#
# Compressibility (1/GPa) = 0.04878779
#
# Stress axis : x y z
#
# Youngs Moduli (GPa) = 84.80642 23.01817 74.21396
#
# Poissons Ratio (x) = -0.04293 0.62447
# Poissons Ratio (y) = -0.15818 0.25321
# Poissons Ratio (z) = 0.71360 0.07854
#
# Static dielectric constant tensor:
#      x y z
#    x 1.725990 0.000000 0.000000 
#    y 0.000000 1.756340 0.000000 
#    z 0.000000 0.000000 1.692780 
# 
# From -- ./inp_files/15090.got.cif
#   From: 2010.05.17/outbox.cif.g08.bks.cpg/sg74_8_cif.got.tgz:15090.got - 2010.06.03 17:57:02.
