data_PCOD9539817
_publ_section_title
;
Structure prediction by ZEFSAII (Michael W. Deem and Ramdas Pophale) SiO2 
 PCOD9539817
Probable space group: I M M A
;
_chemical_formula_sum "Si O2"
_cell_formula_units_Z 48
_cell_length_a 15.659696
_cell_length_b 16.338140
_cell_length_c 8.899083
_cell_angle_alpha 90.000000
_cell_angle_beta 90.000000
_cell_angle_gamma 90.000000
_cell_volume 2276.833105
_symmetry_space_group_name_H-M "I M M A"
_symmetry_group_IT_number 74
_symmetry_cell_setting 'orthorhombic'
loop_
_space_group_symop_operation_xyz
x,y,z
-x,1/2-y,z
x,-y,-z
-x,1/2+y,-z
-x,-y,-z
x,1/2+y,-z
-x,y,z
x,1/2-y,z
1/2+x,1/2+y,1/2+z
1/2-x,-y,1/2+z
1/2+x,1/2-y,1/2-z
1/2-x,y,1/2-z
1/2-x,1/2-y,1/2-z
1/2+x,y,1/2-z
1/2-x,1/2+y,1/2+z
1/2+x,-y,1/2+z
loop_
_atom_site_type_symbol
_atom_site_label
_atom_site_fract_x
_atom_site_fract_y
_atom_site_fract_z
Si Si1 0.654062 0.659399 0.815669
Si Si2 0.155451 0.504352 0.178207
Si Si3 0.598786 0.341317 0.854251
O O1 0.615445 0.750000 0.789666
O O2 0.750000 0.662918 0.750000
O O3 0.613384 0.579268 0.740972
O O4 0.654133 0.646108 0.995219
O O5 0.250000 0.507178 0.250000
O O6 0.112090 0.586845 0.236557
O O7 0.159599 0.500000 0.000000
O O8 0.500000 0.342458 0.903663
O O9 0.617586 0.250000 0.794019
#
# Coordination Sequence:
#
# PCOD9539817 Si02
#       3
#    16  16  16
#     4   9  18  35  58  83 113 149 191 236 282 339
#     4  11  22  36  58  87 118 154 196 241 288 343
#     4  10  22  40  61  86 117 154 195 240 292 346
#
# _framework density 21.081914999999999
#
# number of rings (size 3 to 8) (size 9 to 14) (size 15 to 20)
#    0.000    2.000    0.000    5.000    0.000    5.333 
#    0.000    0.000    0.000    4.000    0.000    0.000 
#    0.000    0.000    0.000    0.000    0.000    0.000 
#
# Total GULP energy -133941.507291 kJ/mol
# GULP energy per Si atom -5580.896137 kJ/mol
# Density = 2.103393 g / cm^3
# Si number density = 21.081915 Si / 1000 Ang^3
#
#
#
# Elastic Constant Matrix: (Units=GPa)
#
#
# Indices 1 2 3 4 5 6 
#
# 1 46.6842 16.7169 25.9164 0.0000 0.0000 0.0000
# 2 16.7169 216.9091 104.2293 0.0000 0.0000 0.0000
# 3 25.9164 104.2293 149.4195 0.0000 0.0000 0.0000
# 4 0.0000 0.0000 0.0000 -2.0301 0.0000 0.0000
# 5 0.0000 0.0000 0.0000 0.0000 8.4494 0.0000
# 6 0.0000 0.0000 0.0000 0.0000 0.0000 26.9442
#
#
#
# Elastic Compliance Matrix: (Units=1/GPa)
#
#
# Indices 1 2 3 4 5 6 
#
# 1 0.023710 0.000224 -0.004269 0.000000 0.000000 0.000000
# 2 0.000224 0.006937 -0.004878 0.000000 0.000000 0.000000
# 3 -0.004269 -0.004878 0.010835 0.000000 0.000000 0.000000
# 4 0.000000 0.000000 0.000000 -0.492584 0.000000 0.000000
# 5 0.000000 0.000000 0.000000 0.000000 0.118351 0.000000
# 6 0.000000 0.000000 0.000000 0.000000 0.000000 0.037114
#
#
# Mechanical properties :
#
#
# Convention : Reuss Voigt Hill
#
# Bulk Modulus (GPa) = 42.30577 78.52644 60.41611
# Shear Modulus (GPa) = -18.52453 24.41605 2.94576
#
# Velocity S-wave (km/s) = -2.96749 3.40685 1.18335
# Velocity P-wave (km/s) = 2.89302 7.26668 5.53056
#
# Compressibility (1/GPa) = 0.02363744
#
# Stress axis : x y z
#
# Youngs Moduli (GPa) = 42.17622 144.15887 92.29002
#
# Poissons Ratio (x) = -0.03227 0.39395
# Poissons Ratio (y) = -0.00944 0.45016
# Poissons Ratio (z) = 0.18003 0.70316
#
# Static dielectric constant tensor:
#      x y z
#    x 1.777570 0.000000 0.000000 
#    y 0.000000 1.841520 0.000000 
#    z 0.000000 0.000000 1.701720 
# 
# From -- ./inp_files/7975.got.cif
#   From: 2010.05.17/outbox.cif.g08.bks.cpg/sg74_4_cif.got.tgz:7975.got - 2010.06.03 17:57:02.
