data_PCOD9539024
_publ_section_title
;
Structure prediction by ZEFSAII (Michael W. Deem and Ramdas Pophale) SiO2 
 PCOD9539024
Probable space group: I M M A
;
_chemical_formula_sum "Si O2"
_cell_formula_units_Z 72
_cell_length_a 21.212297
_cell_length_b 18.961644
_cell_length_c 8.826065
_cell_angle_alpha 90.000000
_cell_angle_beta 90.000000
_cell_angle_gamma 90.000000
_cell_volume 3550.020077
_symmetry_space_group_name_H-M "I M M A"
_symmetry_group_IT_number 74
_symmetry_cell_setting 'orthorhombic'
loop_
_space_group_symop_operation_xyz
x,y,z
-x,1/2-y,z
x,-y,-z
-x,1/2+y,-z
-x,-y,-z
x,1/2+y,-z
-x,y,z
x,1/2-y,z
1/2+x,1/2+y,1/2+z
1/2-x,-y,1/2+z
1/2+x,1/2-y,1/2-z
1/2-x,y,1/2-z
1/2-x,1/2-y,1/2-z
1/2+x,y,1/2-z
1/2-x,1/2+y,1/2+z
1/2+x,-y,1/2+z
loop_
_atom_site_type_symbol
_atom_site_label
_atom_site_fract_x
_atom_site_fract_y
_atom_site_fract_z
Si Si1 0.636211 0.750000 0.550899
Si Si2 0.286248 0.750000 0.977747
Si Si3 0.069677 0.898194 0.417525
Si Si4 0.310367 0.483767 0.824526
Si Si5 0.105270 0.250000 0.708727
Si Si6 0.856997 0.630859 0.713220
O O1 0.711514 0.750000 0.520899
O O2 0.604621 0.750000 0.388485
O O3 0.621180 0.680569 0.650368
O O4 0.323889 0.750000 0.136114
O O5 0.310747 0.818484 0.885100
O O6 0.072633 0.819188 0.355862
O O7 0.089224 0.892956 0.594394
O O8 0.000000 0.928160 0.397820
O O9 0.125296 0.939855 0.332347
O O10 0.250000 0.447148 0.750000
O O11 0.323031 0.558362 0.741770
O O12 0.295425 0.500000 0.000000
#
# Coordination Sequence:
#
# PCOD9539024 Si02
#       6
#     8   8  16  16   8  16
#     4  11  19  33  57  86 117 146 187 242 288 331
#     4   9  17  32  54  83 119 154 183 223 284 346
#     4  10  22  41  60  79 111 155 197 234 283 351
#     4  10  21  36  59  89 117 147 185 232 286 339
#     4  10  22  35  55  83 111 152 195 233 284 341
#     4   9  19  34  57  85 111 146 187 236 283 328
#
# _framework density 20.281575
#
# number of rings (size 3 to 8) (size 9 to 14) (size 15 to 20)
#    0.000    2.222    0.000    4.000    0.000   11.111 
#    0.000    2.222    0.000    4.667    0.000    0.000 
#    0.000    0.000    0.000    0.000    0.000    0.000 
#
# Total GULP energy -201028.750436 kJ/mol
# GULP energy per Si atom -5584.131957 kJ/mol
# Density = 2.023541 g / cm^3
# Si number density = 20.281575 Si / 1000 Ang^3
#
#
#
# Elastic Constant Matrix: (Units=GPa)
#
#
# Indices 1 2 3 4 5 6 
#
# 1 141.1928 33.6030 16.2450 0.0000 0.0000 0.0000
# 2 33.6030 94.6700 14.8354 0.0000 0.0000 0.0000
# 3 16.2450 14.8354 58.7157 0.0000 0.0000 0.0000
# 4 0.0000 0.0000 0.0000 18.5584 0.0000 0.0000
# 5 0.0000 0.0000 0.0000 0.0000 13.0495 0.0000
# 6 0.0000 0.0000 0.0000 0.0000 0.0000 -52.3863
#
#
#
# Elastic Compliance Matrix: (Units=1/GPa)
#
#
# Indices 1 2 3 4 5 6 
#
# 1 0.007866 -0.002552 -0.001532 0.000000 0.000000 0.000000
# 2 -0.002552 0.011826 -0.002282 0.000000 0.000000 0.000000
# 3 -0.001532 -0.002282 0.018032 0.000000 0.000000 0.000000
# 4 0.000000 0.000000 0.000000 0.053884 0.000000 0.000000
# 5 0.000000 0.000000 0.000000 0.000000 0.076631 0.000000
# 6 0.000000 0.000000 0.000000 0.000000 0.000000 -0.019089
#
#
# Mechanical properties :
#
#
# Convention : Reuss Voigt Hill
#
# Bulk Modulus (GPa) = 40.01143 47.10503 43.55823
# Shear Modulus (GPa) = 29.37503 11.17065 20.27284
#
# Velocity S-wave (km/s) = 3.80986 2.34941 3.16503
# Velocity P-wave (km/s) = 6.25493 5.53494 5.90592
#
# Compressibility (1/GPa) = 0.02499286
#
# Stress axis : x y z
#
# Youngs Moduli (GPa) = 127.12780 84.55608 55.45833
#
# Poissons Ratio (x) = 0.21579 0.08494
# Poissons Ratio (y) = 0.32444 0.12656
# Poissons Ratio (z) = 0.19470 0.19296
#
# Static dielectric constant tensor:
#      x y z
#    x 1.758170 0.000000 0.000000 
#    y 0.000000 1.751200 0.000000 
#    z 0.000000 0.000000 1.706950 
# 
# From -- ./inp_files/12207.got.cif
#   From: 2010.05.17/outbox.cif.g08.bks.cpg/sg74_7_cif.got.tgz:12207.got - 2010.06.03 17:57:02.
