data_PCOD9539320
_publ_section_title
;
Structure prediction by ZEFSAII (Michael W. Deem and Ramdas Pophale) SiO2 
 PCOD9539320
Probable space group: I M M A
;
_chemical_formula_sum "Si O2"
_cell_formula_units_Z 112
_cell_length_a 24.757738
_cell_length_b 14.503440
_cell_length_c 16.118845
_cell_angle_alpha 90.000000
_cell_angle_beta 90.000000
_cell_angle_gamma 90.000000
_cell_volume 5787.831837
_symmetry_space_group_name_H-M "I M M A"
_symmetry_group_IT_number 74
_symmetry_cell_setting 'orthorhombic'
loop_
_space_group_symop_operation_xyz
x,y,z
-x,1/2-y,z
x,-y,-z
-x,1/2+y,-z
-x,-y,-z
x,1/2+y,-z
-x,y,z
x,1/2-y,z
1/2+x,1/2+y,1/2+z
1/2-x,-y,1/2+z
1/2+x,1/2-y,1/2-z
1/2-x,y,1/2-z
1/2-x,1/2-y,1/2-z
1/2+x,y,1/2-z
1/2-x,1/2+y,1/2+z
1/2+x,-y,1/2+z
loop_
_atom_site_type_symbol
_atom_site_label
_atom_site_fract_x
_atom_site_fract_y
_atom_site_fract_z
Si Si1 0.850249 0.980117 0.595056
Si Si2 0.387237 0.651133 0.362203
Si Si3 0.061297 0.952577 0.874790
Si Si4 0.692890 0.144508 0.792632
Si Si5 0.436530 0.640917 0.805346
Si Si6 0.244712 0.355689 0.345298
Si Si7 0.334986 0.900070 0.525877
O O1 0.899201 0.926199 0.640070
O O2 0.799560 0.912444 0.605457
O O3 0.863280 0.000000 0.500000
O O4 0.829831 0.073334 0.640182
O O5 0.416218 0.750000 0.363963
O O6 0.424218 0.560612 0.364831
O O7 0.351331 0.645011 0.280078
O O8 0.345141 0.649524 0.439123
O O9 0.067926 0.897972 0.788362
O O10 0.105182 0.913688 0.937686
O O11 0.000000 0.941258 0.903307
O O12 0.699221 0.250000 0.824202
O O13 0.750000 0.117601 0.750000
O O14 0.500000 0.634540 0.828650
O O15 0.421240 0.750000 0.809153
O O16 0.227324 0.250000 0.338265
O O17 0.250000 0.390392 0.250000
O O18 0.298815 0.360718 0.400353
O O19 0.312246 0.000000 0.500000
#
# Coordination Sequence:
#
# PCOD9539320 Si02
#       7
#    16  16  16  16  16  16  16
#     4  12  25  39  65  95 124 155 200 258 306 362
#     4  10  21  38  61  86 119 165 206 248 301 362
#     4  10  21  39  62  88 121 159 205 256 302 360
#     4  10  23  41  62  86 123 170 206 240 296 368
#     4  10  22  43  68  90 119 161 202 247 309 373
#     4  11  24  39  60  90 126 162 199 249 306 358
#     4  10  22  36  56  87 122 164 202 246 299 362
#
# _framework density 19.350942
#
# number of rings (size 3 to 8) (size 9 to 14) (size 15 to 20)
#    0.000    1.571    1.429    2.571    8.000    6.571 
#    0.000    0.000    0.000    0.429    0.000    0.000 
#    0.000    0.000    0.000    0.000    0.000    0.000 
#
# Total GULP energy -312632.510091 kJ/mol
# GULP energy per Si atom -5582.723394 kJ/mol
# Density = 1.930690 g / cm^3
# Si number density = 19.350942 Si / 1000 Ang^3
#
#
#
# Elastic Constant Matrix: (Units=GPa)
#
#
# Indices 1 2 3 4 5 6 
#
# 1 65.0503 26.7250 25.0273 0.0000 0.0000 0.0000
# 2 26.7250 125.2115 43.1388 0.0000 0.0000 0.0000
# 3 25.0273 43.1388 93.1687 0.0000 0.0000 0.0000
# 4 0.0000 0.0000 0.0000 5.3892 0.0000 0.0000
# 5 0.0000 0.0000 0.0000 0.0000 21.5470 0.0000
# 6 0.0000 0.0000 0.0000 0.0000 0.0000 19.7234
#
#
#
# Elastic Compliance Matrix: (Units=1/GPa)
#
#
# Indices 1 2 3 4 5 6 
#
# 1 0.017809 -0.002562 -0.003598 0.000000 0.000000 0.000000
# 2 -0.002562 0.009871 -0.003882 0.000000 0.000000 0.000000
# 3 -0.003598 -0.003882 0.013497 0.000000 0.000000 0.000000
# 4 0.000000 0.000000 0.000000 0.185557 0.000000 0.000000
# 5 0.000000 0.000000 0.000000 0.000000 0.046410 0.000000
# 6 0.000000 0.000000 0.000000 0.000000 0.000000 0.050701
#
#
# Mechanical properties :
#
#
# Convention : Reuss Voigt Hill
#
# Bulk Modulus (GPa) = 47.40727 52.57920 49.99323
# Shear Modulus (GPa) = 14.24662 21.90122 18.07392
#
# Velocity S-wave (km/s) = 2.71629 3.36786 3.05947
# Velocity P-wave (km/s) = 5.86426 6.50797 6.19448
#
# Compressibility (1/GPa) = 0.02109381
#
# Stress axis : x y z
#
# Youngs Moduli (GPa) = 56.15011 101.30921 74.08917
#
# Poissons Ratio (x) = 0.25952 0.26657
# Poissons Ratio (y) = 0.14384 0.28763
# Poissons Ratio (z) = 0.20203 0.39331
#
# Static dielectric constant tensor:
#      x y z
#    x 1.661390 0.000000 0.000000 
#    y 0.000000 1.732690 0.000000 
#    z 0.000000 0.000000 1.537400 
# 
# From -- ./inp_files/36480.got.cif
#   From: 2010.05.17/outbox.cif.g08.bks.cpg/sg74_19_cif.got.tgz:36480.got - 2010.06.03 17:57:02.
