data_PCOD9539131
_publ_section_title
;
Structure prediction by ZEFSAII (Michael W. Deem and Ramdas Pophale) SiO2 
 PCOD9539131
Probable space group: I M M A
;
_chemical_formula_sum "Si O2"
_cell_formula_units_Z 96
_cell_length_a 25.601015
_cell_length_b 7.692811
_cell_length_c 20.677120
_cell_angle_alpha 90.000000
_cell_angle_beta 90.000000
_cell_angle_gamma 90.000000
_cell_volume 4072.229961
_symmetry_space_group_name_H-M "I M M A"
_symmetry_group_IT_number 74
_symmetry_cell_setting 'orthorhombic'
loop_
_space_group_symop_operation_xyz
x,y,z
-x,1/2-y,z
x,-y,-z
-x,1/2+y,-z
-x,-y,-z
x,1/2+y,-z
-x,y,z
x,1/2-y,z
1/2+x,1/2+y,1/2+z
1/2-x,-y,1/2+z
1/2+x,1/2-y,1/2-z
1/2-x,y,1/2-z
1/2-x,1/2-y,1/2-z
1/2+x,y,1/2-z
1/2-x,1/2+y,1/2+z
1/2+x,-y,1/2+z
loop_
_atom_site_type_symbol
_atom_site_label
_atom_site_fract_x
_atom_site_fract_y
_atom_site_fract_z
Si Si1 0.942044 0.050703 0.405840
Si Si2 0.941142 0.958199 0.124958
Si Si3 0.668993 0.540920 0.930654
Si Si4 0.834363 0.454994 0.071221
Si Si5 0.251519 0.536881 0.675189
Si Si6 0.562585 0.446292 0.763430
O O1 0.945094 0.250000 0.428299
O O2 0.889775 0.964954 0.432406
O O3 0.000000 0.972003 0.416392
O O4 0.930765 0.050370 0.328889
O O5 0.944818 0.750000 0.132483
O O6 0.921267 0.025978 0.195065
O O7 0.000000 0.022012 0.109742
O O8 0.894967 0.993727 0.076021
O O9 0.665206 0.750000 0.925303
O O10 0.701734 0.483019 0.868400
O O11 0.693917 0.500000 0.000000
O O12 0.831427 0.250000 0.077006
O O13 0.800650 0.525098 0.131662
O O14 0.814279 0.500000 0.000000
O O15 0.252035 0.750000 0.676762
O O16 0.250000 0.479344 0.750000
O O17 0.500000 0.432106 0.755560
O O18 0.583483 0.250000 0.772077
#
# Coordination Sequence:
#
# PCOD9539131 Si02
#       6
#    16  16  16  16  16  16
#     4   9  18  31  50  80 114 147 187 233 278 330
#     4   9  19  36  57  83 119 157 191 232 284 344
#     4  10  21  37  58  81 113 153 188 231 282 337
#     4  11  23  38  61  87 116 154 193 239 289 343
#     4   9  20  39  62  86 111 145 191 240 291 342
#     4   8  15  29  49  74 107 147 184 224 276 327
#
# _framework density 23.574307000000001
#
# number of rings (size 3 to 8) (size 9 to 14) (size 15 to 20)
#    0.000    2.667    0.000    2.000    2.333    2.333 
#    0.000    2.500    0.000    2.500    0.000    0.000 
#    0.000    0.000    0.000    0.000    0.000    0.000 
#
# Total GULP energy -267710.298165 kJ/mol
# GULP energy per Si atom -5577.297878 kJ/mol
# Density = 2.352065 g / cm^3
# Si number density = 23.574307 Si / 1000 Ang^3
#
#
#
# Elastic Constant Matrix: (Units=GPa)
#
#
# Indices 1 2 3 4 5 6 
#
# 1 153.6836 7.0709 82.5394 0.0000 0.0000 0.0000
# 2 7.0709 47.5294 1.7334 0.0000 0.0000 0.0000
# 3 82.5394 1.7334 181.7705 0.0000 0.0000 0.0000
# 4 0.0000 0.0000 0.0000 16.3838 0.0000 0.0000
# 5 0.0000 0.0000 0.0000 0.0000 -27.7960 0.0000
# 6 0.0000 0.0000 0.0000 0.0000 0.0000 -4.2909
#
#
#
# Elastic Compliance Matrix: (Units=1/GPa)
#
#
# Indices 1 2 3 4 5 6 
#
# 1 0.008668 -0.001146 -0.003925 0.000000 0.000000 0.000000
# 2 -0.001146 0.021199 0.000318 0.000000 0.000000 0.000000
# 3 -0.003925 0.000318 0.007281 0.000000 0.000000 0.000000
# 4 0.000000 0.000000 0.000000 0.061036 0.000000 0.000000
# 5 0.000000 0.000000 0.000000 0.000000 -0.035976 0.000000
# 6 0.000000 0.000000 0.000000 0.000000 0.000000 -0.233054
#
#
# Mechanical properties :
#
#
# Convention : Reuss Voigt Hill
#
# Bulk Modulus (GPa) = 36.17808 62.85234 49.51521
# Shear Modulus (GPa) = -32.86698 16.30206 -8.28246
#
# Velocity S-wave (km/s) = -3.73793 2.63253 -1.87642
# Velocity P-wave (km/s) = 1.80272 5.99662 4.04411
#
# Compressibility (1/GPa) = 0.02764105
#
# Stress axis : x y z
#
# Youngs Moduli (GPa) = 115.37261 47.17312 137.35055
#
# Poissons Ratio (x) = 0.05408 0.53909
# Poissons Ratio (y) = 0.13225 -0.04373
# Poissons Ratio (z) = 0.45282 -0.01502
#
# Static dielectric constant tensor:
#      x y z
#    x 1.935120 0.000000 0.000000 
#    y 0.000000 1.880740 0.000000 
#    z 0.000000 0.000000 1.928110 
# 
# From -- ./inp_files/55055.got.cif
#   From: 2010.05.17/outbox.cif.g08.bks.cpg/sg74_28_cif.got.tgz:55055.got - 2010.06.03 17:57:02.
