data_PCOD9539474
_publ_section_title
;
Structure prediction by ZEFSAII (Michael W. Deem and Ramdas Pophale) SiO2 
 PCOD9539474
Probable space group: I M M A
;
_chemical_formula_sum "Si O2"
_cell_formula_units_Z 48
_cell_length_a 27.549885
_cell_length_b 16.542627
_cell_length_c 4.958677
_cell_angle_alpha 90.000000
_cell_angle_beta 90.000000
_cell_angle_gamma 90.000000
_cell_volume 2259.904504
_symmetry_space_group_name_H-M "I M M A"
_symmetry_group_IT_number 74
_symmetry_cell_setting 'orthorhombic'
loop_
_space_group_symop_operation_xyz
x,y,z
-x,1/2-y,z
x,-y,-z
-x,1/2+y,-z
-x,-y,-z
x,1/2+y,-z
-x,y,z
x,1/2-y,z
1/2+x,1/2+y,1/2+z
1/2-x,-y,1/2+z
1/2+x,1/2-y,1/2-z
1/2-x,y,1/2-z
1/2-x,1/2-y,1/2-z
1/2+x,y,1/2-z
1/2-x,1/2+y,1/2+z
1/2+x,-y,1/2+z
loop_
_atom_site_type_symbol
_atom_site_label
_atom_site_fract_x
_atom_site_fract_y
_atom_site_fract_z
Si Si1 0.444838 0.942034 0.242020
Si Si2 0.300537 0.908609 0.890789
Si Si3 0.854076 0.843144 0.104714
O O1 0.500000 0.086354 0.813689
O O2 0.406416 0.871778 0.290270
O O3 0.446262 0.000000 0.500000
O O4 0.428662 0.000000 0.000000
O O5 0.250000 0.884826 0.750000
O O6 0.339093 0.897634 0.650452
O O7 0.316750 0.857206 0.149090
O O8 0.296745 0.000000 0.000000
O O9 0.853860 0.750000 0.021564
#
# Coordination Sequence:
#
# PCOD9539474 Si02
#       3
#    16  16  16
#     4  10  21  39  64  90 119 161 209 252 297 360
#     4  12  25  43  66  90 120 166 216 256 302 368
#     4  12  25  40  63  95 130 163 200 258 320 370
#
# _framework density 21.239834999999999
#
# number of rings (size 3 to 8) (size 9 to 14) (size 15 to 20)
#    0.000    0.667    0.000   10.000    0.000    4.667 
#    0.000    0.000    0.000   10.000    0.000    0.000 
#    0.000    0.000    0.000    0.000    0.000    0.000 
#
# Total GULP energy -134351.816140 kJ/mol
# GULP energy per Si atom -5597.992339 kJ/mol
# Density = 2.119149 g / cm^3
# Si number density = 21.239835 Si / 1000 Ang^3
#
#
#
# Elastic Constant Matrix: (Units=GPa)
#
#
# Indices 1 2 3 4 5 6 
#
# 1 94.0536 24.3883 10.6661 0.0000 0.0000 0.0000
# 2 24.3883 37.5440 5.7982 0.0000 0.0000 0.0000
# 3 10.6661 5.7982 122.6193 0.0000 0.0000 0.0000
# 4 0.0000 0.0000 0.0000 26.0487 0.0000 0.0000
# 5 0.0000 0.0000 0.0000 0.0000 36.3132 0.0000
# 6 0.0000 0.0000 0.0000 0.0000 0.0000 -19.9474
#
#
#
# Elastic Compliance Matrix: (Units=1/GPa)
#
#
# Indices 1 2 3 4 5 6 
#
# 1 0.012850 -0.008235 -0.000728 0.000000 0.000000 0.000000
# 2 -0.008235 0.032109 -0.000802 0.000000 0.000000 0.000000
# 3 -0.000728 -0.000802 0.008257 0.000000 0.000000 0.000000
# 4 0.000000 0.000000 0.000000 0.038390 0.000000 0.000000
# 5 0.000000 0.000000 0.000000 0.000000 0.027538 0.000000
# 6 0.000000 0.000000 0.000000 0.000000 0.000000 -0.050132
#
#
# Mechanical properties :
#
#
# Convention : Reuss Voigt Hill
#
# Bulk Modulus (GPa) = 29.68693 37.32469 33.50581
# Shear Modulus (GPa) = 50.11515 22.70717 36.41116
#
# Velocity S-wave (km/s) = 4.86273 3.27323 4.14489
# Velocity P-wave (km/s) = 6.74800 5.64770 6.22222
#
# Compressibility (1/GPa) = 0.03368485
#
# Stress axis : x y z
#
# Youngs Moduli (GPa) = 77.81996 31.14430 121.11520
#
# Poissons Ratio (x) = 0.25647 0.08822
# Poissons Ratio (y) = 0.64084 0.09713
# Poissons Ratio (z) = 0.05668 0.02498
#
# Static dielectric constant tensor:
#      x y z
#    x 1.813950 0.000000 0.000000 
#    y 0.000000 1.727500 0.000000 
#    z 0.000000 0.000000 1.790020 
# 
# From -- ./inp_files/1251.got.cif
#   From: 2010.05.17/outbox.cif.g08.bks.cpg/sg74_1_cif.got.tgz:1251.got - 2010.06.03 17:57:02.
