data_PCOD9539073
_publ_section_title
;
Structure prediction by ZEFSAII (Michael W. Deem and Ramdas Pophale) SiO2 
 PCOD9539073
Probable space group: I M M A
;
_chemical_formula_sum "Si O2"
_cell_formula_units_Z 96
_cell_length_a 9.045779
_cell_length_b 29.813848
_cell_length_c 19.543446
_cell_angle_alpha 90.000000
_cell_angle_beta 90.000000
_cell_angle_gamma 90.000000
_cell_volume 5270.661792
_symmetry_space_group_name_H-M "I M M A"
_symmetry_group_IT_number 74
_symmetry_cell_setting 'orthorhombic'
loop_
_space_group_symop_operation_xyz
x,y,z
-x,1/2-y,z
x,-y,-z
-x,1/2+y,-z
-x,-y,-z
x,1/2+y,-z
-x,y,z
x,1/2-y,z
1/2+x,1/2+y,1/2+z
1/2-x,-y,1/2+z
1/2+x,1/2-y,1/2-z
1/2-x,y,1/2-z
1/2-x,1/2-y,1/2-z
1/2+x,y,1/2-z
1/2-x,1/2+y,1/2+z
1/2+x,-y,1/2+z
loop_
_atom_site_type_symbol
_atom_site_label
_atom_site_fract_x
_atom_site_fract_y
_atom_site_fract_z
Si Si1 0.831303 0.803653 0.181631
Si Si2 0.823534 0.476685 0.071626
Si Si3 0.176387 0.943302 0.175609
Si Si4 0.822415 0.619351 0.572994
Si Si5 0.676161 0.634620 0.085375
Si Si6 0.678435 0.301209 0.175578
O O1 0.834461 0.750000 0.184605
O O2 0.750000 0.820553 0.250000
O O3 0.738743 0.819920 0.117271
O O4 0.000000 0.820005 0.179232
O O5 0.796217 0.510984 0.133482
O O6 0.748417 0.429121 0.085787
O O7 0.000000 0.469896 0.064987
O O8 0.772934 0.500000 0.000000
O O9 0.250000 0.943911 0.250000
O O10 0.245675 0.904176 0.129195
O O11 0.000000 0.937209 0.181702
O O12 0.787182 0.630913 0.494333
O O13 0.774845 0.659583 0.623366
O O14 0.000000 0.615517 0.578766
O O15 0.500000 0.631637 0.093524
O O16 0.500000 0.303149 0.181465
O O17 0.716047 0.250000 0.153168
O O18 0.750000 0.308156 0.250000
#
# Coordination Sequence:
#
# PCOD9539073 Si02
#       6
#    16  16  16  16  16  16
#     4  10  21  37  56  78 107 145 187 232 280 331
#     4  10  21  39  60  82 112 152 191 237 292 341
#     4  11  23  39  59  83 113 149 191 235 284 341
#     4  10  22  37  59  88 116 151 191 235 287 343
#     4  11  22  36  56  83 113 148 187 231 284 337
#     4   9  19  38  61  86 118 154 193 238 291 349
#
# _framework density 18.214032
#
# number of rings (size 3 to 8) (size 9 to 14) (size 15 to 20)
#    0.000    1.833    1.667    2.000    0.000    5.333 
#    0.000    5.000    0.000    2.000    0.000    0.000 
#    0.000    0.000    0.000    0.000    0.000    0.000 
#
# Total GULP energy -267996.215041 kJ/mol
# GULP energy per Si atom -5583.254480 kJ/mol
# Density = 1.817258 g / cm^3
# Si number density = 18.214032 Si / 1000 Ang^3
#
#
#
# Elastic Constant Matrix: (Units=GPa)
#
#
# Indices 1 2 3 4 5 6 
#
# 1 51.7852 41.2031 57.1603 0.0000 0.0000 0.0000
# 2 41.2031 116.7321 79.1631 0.0000 0.0000 0.0000
# 3 57.1603 79.1631 132.3948 -0.0001 0.0000 0.0000
# 4 0.0000 0.0000 -0.0001 29.2983 0.0000 0.0000
# 5 0.0000 0.0000 0.0000 0.0000 25.3368 0.0000
# 6 0.0000 0.0000 0.0000 0.0000 0.0000 33.0293
#
#
#
# Elastic Compliance Matrix: (Units=1/GPa)
#
#
# Indices 1 2 3 4 5 6 
#
# 1 0.037885 -0.003835 -0.014063 0.000000 0.000000 0.000000
# 2 -0.003835 0.014798 -0.007192 0.000000 0.000000 0.000000
# 3 -0.014063 -0.007192 0.017925 0.000000 0.000000 0.000000
# 4 0.000000 0.000000 0.000000 0.034132 0.000000 0.000000
# 5 0.000000 0.000000 0.000000 0.000000 0.039468 0.000000
# 6 0.000000 0.000000 0.000000 0.000000 0.000000 0.030276
#
#
# Mechanical properties :
#
#
# Convention : Reuss Voigt Hill
#
# Bulk Modulus (GPa) = 48.95561 72.88500 60.92031
# Shear Modulus (GPa) = 21.60060 25.75858 23.67959
#
# Velocity S-wave (km/s) = 3.44747 3.76469 3.60957
# Velocity P-wave (km/s) = 6.54088 7.68114 7.13383
#
# Compressibility (1/GPa) = 0.02042667
#
# Stress axis : x y z
#
# Youngs Moduli (GPa) = 26.39567 67.57726 55.78651
#
# Poissons Ratio (x) = 0.25916 0.78455
# Poissons Ratio (y) = 0.10123 0.40124
# Poissons Ratio (z) = 0.37121 0.48604
#
# Static dielectric constant tensor:
#      x y z
#    x 1.615320 0.000000 0.000000 
#    y 0.000000 1.637520 0.000000 
#    z 0.000000 0.000000 1.604600 
# 
# From -- ./inp_files/49098.got.cif
#   From: 2010.05.17/outbox.cif.g08.bks.cpg/sg74_25_cif.got.tgz:49098.got - 2010.06.03 17:57:02.
