data_PCOD9539854
_publ_section_title
;
Structure prediction by ZEFSAII (Michael W. Deem and Ramdas Pophale) SiO2 
 PCOD9539854
Probable space group: I M M A
;
_chemical_formula_sum "Si O2"
_cell_formula_units_Z 52
_cell_length_a 22.167311
_cell_length_b 13.650187
_cell_length_c 7.069267
_cell_angle_alpha 90.000000
_cell_angle_beta 90.000000
_cell_angle_gamma 90.000000
_cell_volume 2139.074942
_symmetry_space_group_name_H-M "I M M A"
_symmetry_group_IT_number 74
_symmetry_cell_setting 'orthorhombic'
loop_
_space_group_symop_operation_xyz
x,y,z
-x,1/2-y,z
x,-y,-z
-x,1/2+y,-z
-x,-y,-z
x,1/2+y,-z
-x,y,z
x,1/2-y,z
1/2+x,1/2+y,1/2+z
1/2-x,-y,1/2+z
1/2+x,1/2-y,1/2-z
1/2-x,y,1/2-z
1/2-x,1/2-y,1/2-z
1/2+x,y,1/2-z
1/2-x,1/2+y,1/2+z
1/2+x,-y,1/2+z
loop_
_atom_site_type_symbol
_atom_site_label
_atom_site_fract_x
_atom_site_fract_y
_atom_site_fract_z
Si Si1 0.500000 0.000000 0.000000
Si Si2 0.316815 0.525292 0.280560
Si Si3 0.066059 0.135040 0.860363
Si Si4 0.399264 0.634546 0.805747
O O1 0.552290 0.079266 0.070053
O O2 0.316288 0.500000 0.500000
O O3 0.250000 0.564505 0.250000
O O4 0.374507 0.595030 0.260303
O O5 0.335748 0.423974 0.177916
O O6 0.061955 0.250000 0.825066
O O7 0.000000 0.088622 0.805749
O O8 0.077076 0.122437 0.086295
O O9 0.394339 0.750000 0.842124
#
# Coordination Sequence:
#
# PCOD9539854 Si02
#       4
#     4  16  16  16
#     4  12  22  36  66  94 130 160 212 272 326 384
#     4  10  23  40  65  94 131 179 225 269 322 389
#     4   9  18  38  67  97 128 169 218 270 328 388
#     4  10  22  40  64  92 128 171 217 269 329 394
#
# _framework density 24.309573
#
# number of rings (size 3 to 8) (size 9 to 14) (size 15 to 20)
#    0.000    2.154    1.538    0.462    4.308    3.077 
#    0.000    3.077    0.000    3.692    0.000    0.000 
#    0.000    0.000    0.000    0.000    0.000    0.000 
#
# Total GULP energy -145075.264400 kJ/mol
# GULP energy per Si atom -5579.817862 kJ/mol
# Density = 2.425424 g / cm^3
# Si number density = 24.309573 Si / 1000 Ang^3
#
#
#
# Elastic Constant Matrix: (Units=GPa)
#
#
# Indices 1 2 3 4 5 6 
#
# 1 241.2592 83.6437 44.1702 0.0000 0.0000 0.0000
# 2 83.6437 143.8188 20.7768 0.0000 0.0000 0.0000
# 3 44.1702 20.7768 66.0471 0.0000 0.0000 0.0000
# 4 0.0000 0.0000 0.0000 28.5844 0.0000 0.0000
# 5 0.0000 0.0000 0.0000 0.0000 32.1532 0.0000
# 6 0.0000 0.0000 0.0000 0.0000 0.0000 21.4694
#
#
#
# Elastic Compliance Matrix: (Units=1/GPa)
#
#
# Indices 1 2 3 4 5 6 
#
# 1 0.005673 -0.002882 -0.002887 0.000000 0.000000 0.000000
# 2 -0.002882 0.008749 -0.000825 0.000000 0.000000 0.000000
# 3 -0.002887 -0.000825 0.017331 0.000000 0.000000 0.000000
# 4 0.000000 0.000000 0.000000 0.034984 0.000000 0.000000
# 5 0.000000 0.000000 0.000000 0.000000 0.031101 0.000000
# 6 0.000000 0.000000 0.000000 0.000000 0.000000 0.046578
#
#
# Mechanical properties :
#
#
# Convention : Reuss Voigt Hill
#
# Bulk Modulus (GPa) = 53.86612 83.14515 68.50563
# Shear Modulus (GPa) = 30.52668 36.61035 33.56851
#
# Velocity S-wave (km/s) = 3.54750 3.88494 3.72005
# Velocity P-wave (km/s) = 6.24389 7.37567 6.83325
#
# Compressibility (1/GPa) = 0.01856454
#
# Stress axis : x y z
#
# Youngs Moduli (GPa) = 176.28248 114.30486 57.70037
#
# Poissons Ratio (x) = 0.32944 0.16659
# Poissons Ratio (y) = 0.50807 0.04758
# Poissons Ratio (z) = 0.50894 0.09426
#
# Static dielectric constant tensor:
#      x y z
#    x 2.051130 0.000000 0.000000 
#    y 0.000000 1.859990 0.000000 
#    z 0.000000 0.000000 1.989850 
# 
# From -- ./inp_files/11581.got.cif
#   From: 2010.05.17/outbox.cif.g08.bks.cpg/sg74_6_cif.got.tgz:11581.got - 2010.06.03 17:57:02.
