data_PCOD9539744
_publ_section_title
;
Structure prediction by ZEFSAII (Michael W. Deem and Ramdas Pophale) SiO2 
 PCOD9539744
Probable space group: I M M A
;
_chemical_formula_sum "Si O2"
_cell_formula_units_Z 112
_cell_length_a 14.739356
_cell_length_b 14.942472
_cell_length_c 29.454417
_cell_angle_alpha 90.000000
_cell_angle_beta 90.000000
_cell_angle_gamma 90.000000
_cell_volume 6487.111913
_symmetry_space_group_name_H-M "I M M A"
_symmetry_group_IT_number 74
_symmetry_cell_setting 'orthorhombic'
loop_
_space_group_symop_operation_xyz
x,y,z
-x,1/2-y,z
x,-y,-z
-x,1/2+y,-z
-x,-y,-z
x,1/2+y,-z
-x,y,z
x,1/2-y,z
1/2+x,1/2+y,1/2+z
1/2-x,-y,1/2+z
1/2+x,1/2-y,1/2-z
1/2-x,y,1/2-z
1/2-x,1/2-y,1/2-z
1/2+x,y,1/2-z
1/2-x,1/2+y,1/2+z
1/2+x,-y,1/2+z
loop_
_atom_site_type_symbol
_atom_site_label
_atom_site_fract_x
_atom_site_fract_y
_atom_site_fract_z
Si Si1 0.267674 0.548388 0.140465
Si Si2 0.608411 0.960886 0.228975
Si Si3 0.899350 0.642444 0.536294
Si Si4 0.891551 0.844577 0.721378
Si Si5 0.212954 0.148582 0.372664
Si Si6 0.602827 0.143691 0.679582
Si Si7 0.891335 0.857501 0.433937
O O1 0.330661 0.558431 0.185301
O O2 0.236213 0.444641 0.136347
O O3 0.178386 0.607165 0.146029
O O4 0.330584 0.584536 0.099861
O O5 0.500000 0.958804 0.217767
O O6 0.623862 0.894639 0.270397
O O7 0.633902 0.062168 0.244331
O O8 0.907543 0.750000 0.532052
O O9 0.835953 0.630432 0.579406
O O10 0.870543 0.613927 0.485950
O O11 0.000000 0.605392 0.545818
O O12 0.858312 0.750000 0.741424
O O13 0.858043 0.848646 0.669316
O O14 0.000000 0.842288 0.721471
O O15 0.253605 0.250000 0.373994
O O16 0.500000 0.114575 0.668303
O O17 0.605093 0.250000 0.680842
O O18 0.874049 0.750000 0.428449
O O19 0.000000 0.869808 0.426910
#
# Coordination Sequence:
#
# PCOD9539744 Si02
#       7
#    16  16  16  16  16  16  16
#     4  11  20  31  50  72  95 125 160 199 240 279
#     4   9  18  31  47  71  99 124 154 190 231 284
#     4   8  14  26  43  65 100 141 169 189 220 270
#     4   8  13  23  41  65  94 127 159 188 217 255
#     4   9  17  28  43  66  96 130 164 192 222 268
#     4  10  22  39  55  69  87 116 156 199 241 286
#     4   9  18  30  44  69 104 135 163 196 234 277
#
# _framework density 17.265001999999999
#
# number of rings (size 3 to 8) (size 9 to 14) (size 15 to 20)
#    0.000    2.857    0.000    2.571    0.000    5.714 
#    0.000    3.571    0.000    4.714    0.000    2.000 
#    0.000    3.429    0.000    0.000    0.000    0.000 
#
# Total GULP energy -311805.077044 kJ/mol
# GULP energy per Si atom -5567.947804 kJ/mol
# Density = 1.722571 g / cm^3
# Si number density = 17.265002 Si / 1000 Ang^3
#
#
#
# Elastic Constant Matrix: (Units=GPa)
#
#
# Indices 1 2 3 4 5 6 
#
# 1 38.1912 31.6119 18.7997 0.0000 0.0000 0.0000
# 2 31.6119 83.6089 19.7602 0.0000 0.0000 0.0000
# 3 18.7997 19.7602 31.6745 0.0000 0.0000 0.0000
# 4 0.0000 0.0000 0.0000 13.8328 0.0000 0.0000
# 5 0.0000 0.0000 0.0000 0.0000 6.2631 0.0000
# 6 0.0000 0.0000 0.0000 0.0000 0.0000 12.5171
#
#
#
# Elastic Compliance Matrix: (Units=1/GPa)
#
#
# Indices 1 2 3 4 5 6 
#
# 1 0.046541 -0.012982 -0.019524 0.000000 0.000000 0.000000
# 2 -0.012982 0.017650 -0.003306 0.000000 0.000000 0.000000
# 3 -0.019524 -0.003306 0.045221 0.000000 0.000000 0.000000
# 4 0.000000 0.000000 0.000000 0.072292 0.000000 0.000000
# 5 0.000000 0.000000 0.000000 0.000000 0.159665 0.000000
# 6 0.000000 0.000000 0.000000 0.000000 0.000000 0.079891
#
#
# Mechanical properties :
#
#
# Convention : Reuss Voigt Hill
#
# Bulk Modulus (GPa) = 26.46342 32.64646 29.55494
# Shear Modulus (GPa) = 9.89159 12.07613 10.98386
#
# Velocity S-wave (km/s) = 2.39619 2.64759 2.52502
# Velocity P-wave (km/s) = 4.79757 5.31944 5.06523
#
# Compressibility (1/GPa) = 0.03778802
#
# Stress axis : x y z
#
# Youngs Moduli (GPa) = 21.48660 56.65644 22.11338
#
# Poissons Ratio (x) = 0.73553 0.43174
# Poissons Ratio (y) = 0.27895 0.07310
# Poissons Ratio (z) = 0.41951 0.18729
#
# Static dielectric constant tensor:
#      x y z
#    x 1.593340 0.000000 0.000000 
#    y 0.000000 1.654960 0.000000 
#    z 0.000000 0.000000 1.580080 
# 
# From -- ./inp_files/67207.got.cif
#   From: 2010.05.17/outbox.cif.g08.bks.cpg/sg74_34_cif.got.tgz:67207.got - 2010.06.03 17:57:02.
