data_PCOD9539488
_publ_section_title
;
Structure prediction by ZEFSAII (Michael W. Deem and Ramdas Pophale) SiO2 
 PCOD9539488
Probable space group: I M M A
;
_chemical_formula_sum "Si O2"
_cell_formula_units_Z 112
_cell_length_a 24.387632
_cell_length_b 14.069586
_cell_length_c 13.161009
_cell_angle_alpha 90.000000
_cell_angle_beta 90.000000
_cell_angle_gamma 90.000000
_cell_volume 4515.856549
_symmetry_space_group_name_H-M "I M M A"
_symmetry_group_IT_number 74
_symmetry_cell_setting 'orthorhombic'
loop_
_space_group_symop_operation_xyz
x,y,z
-x,1/2-y,z
x,-y,-z
-x,1/2+y,-z
-x,-y,-z
x,1/2+y,-z
-x,y,z
x,1/2-y,z
1/2+x,1/2+y,1/2+z
1/2-x,-y,1/2+z
1/2+x,1/2-y,1/2-z
1/2-x,y,1/2-z
1/2-x,1/2-y,1/2-z
1/2+x,y,1/2-z
1/2-x,1/2+y,1/2+z
1/2+x,-y,1/2+z
loop_
_atom_site_type_symbol
_atom_site_label
_atom_site_fract_x
_atom_site_fract_y
_atom_site_fract_z
Si Si1 0.835646 0.854308 0.680973
Si Si2 0.248537 0.142496 0.500770
Si Si3 0.082308 0.650241 0.303471
Si Si4 0.437541 0.005074 0.641741
Si Si5 0.695764 0.564242 0.191190
Si Si6 0.937591 0.891219 0.533101
Si Si7 0.376879 0.362543 0.478018
O O1 0.835744 0.750000 0.735380
O O2 0.783735 0.851182 0.604464
O O3 0.891021 0.860875 0.612554
O O4 0.825029 0.959825 0.725379
O O5 0.247743 0.250000 0.545117
O O6 0.214670 0.074196 0.574947
O O7 0.312026 0.116199 0.485511
O O8 0.063996 0.750000 0.255839
O O9 0.060382 0.555135 0.251059
O O10 0.147156 0.637429 0.291759
O O11 0.068807 0.654364 0.422046
O O12 0.500000 0.987522 0.611433
O O13 0.407896 0.082841 0.569399
O O14 0.404038 0.908484 0.622616
O O15 0.750000 0.589441 0.250000
O O16 0.000000 0.876877 0.570507
O O17 0.929113 0.000000 0.500000
O O18 0.384552 0.250000 0.483172
#
# Coordination Sequence:
#
# PCOD9539488 Si02
#       7
#    16  16  16  16  16  16  16
#     4  11  23  42  65  94 129 170 218 263 319 391
#     4  10  21  39  65  94 126 164 209 262 323 386
#     4  12  25  43  65  99 137 171 218 276 339 397
#     4  11  25  41  64  98 134 176 222 271 333 399
#     4  12  25  39  64  94 131 173 213 269 331 388
#     4  11  22  42  72 100 130 172 220 266 326 396
#     4  10  22  41  68  97 130 176 225 273 329 395
#
# _framework density 24.801496
#
# number of rings (size 3 to 8) (size 9 to 14) (size 15 to 20)
#    0.000    1.000    2.857    3.857    6.000    6.286 
#    0.000    0.714    0.000    0.000    0.000    0.000 
#    0.000    0.000    0.000    0.000    0.000    0.000 
#
# Total GULP energy -313333.697169 kJ/mol
# GULP energy per Si atom -5595.244592 kJ/mol
# Density = 2.474505 g / cm^3
# Si number density = 24.801496 Si / 1000 Ang^3
#
#
#
# Elastic Constant Matrix: (Units=GPa)
#
#
# Indices 1 2 3 4 5 6 
#
# 1 174.5319 27.3832 -6.0596 0.0000 0.0000 0.0000
# 2 27.3832 155.4385 -7.6024 0.0000 0.0000 0.0000
# 3 -6.0596 -7.6024 19.5809 0.0000 0.0000 0.0000
# 4 0.0000 0.0000 0.0000 23.8491 0.0000 0.0000
# 5 0.0000 0.0000 0.0000 0.0000 42.3554 0.0000
# 6 0.0000 0.0000 0.0000 0.0000 0.0000 -10.5566
#
#
#
# Elastic Compliance Matrix: (Units=1/GPa)
#
#
# Indices 1 2 3 4 5 6 
#
# 1 0.005933 -0.000974 0.001458 0.000000 0.000000 0.000000
# 2 -0.000974 0.006718 0.002307 0.000000 0.000000 0.000000
# 3 0.001458 0.002307 0.052417 0.000000 0.000000 0.000000
# 4 0.000000 0.000000 0.000000 0.041930 0.000000 0.000000
# 5 0.000000 0.000000 0.000000 0.000000 0.023610 0.000000
# 6 0.000000 0.000000 0.000000 0.000000 0.000000 -0.094728
#
#
# Mechanical properties :
#
#
# Convention : Reuss Voigt Hill
#
# Bulk Modulus (GPa) = 14.15433 41.88818 28.02125
# Shear Modulus (GPa) = 92.85347 33.51826 63.18586
#
# Velocity S-wave (km/s) = 6.12535 3.68021 5.05291
# Velocity P-wave (km/s) = 7.46633 5.91478 6.73538
#
# Compressibility (1/GPa) = 0.07064975
#
# Stress axis : x y z
#
# Youngs Moduli (GPa) = 168.54789 148.85807 19.07773
#
# Poissons Ratio (x) = 0.14497 -0.02781
# Poissons Ratio (y) = 0.16415 -0.04401
# Poissons Ratio (z) = -0.24573 -0.34339
#
# Static dielectric constant tensor:
#      x y z
#    x 1.903740 0.000000 0.000000 
#    y 0.000000 0.310950 0.000000 
#    z 0.000000 0.000000 2.031650 
# 
# From -- ./inp_files/36483.got.cif
#   From: 2010.05.17/outbox.cif.g08.bks.cpg/sg74_19_cif.got.tgz:36483.got - 2010.06.03 17:57:02.
