data_PCOD9539161
_publ_section_title
;
Structure prediction by ZEFSAII (Michael W. Deem and Ramdas Pophale) SiO2 
 PCOD9539161
Probable space group: I M M A
;
_chemical_formula_sum "Si O2"
_cell_formula_units_Z 64
_cell_length_a 10.844681
_cell_length_b 14.345636
_cell_length_c 20.702888
_cell_angle_alpha 90.000000
_cell_angle_beta 90.000000
_cell_angle_gamma 90.000000
_cell_volume 3220.827913
_symmetry_space_group_name_H-M "I M M A"
_symmetry_group_IT_number 74
_symmetry_cell_setting 'orthorhombic'
loop_
_space_group_symop_operation_xyz
x,y,z
-x,1/2-y,z
x,-y,-z
-x,1/2+y,-z
-x,-y,-z
x,1/2+y,-z
-x,y,z
x,1/2-y,z
1/2+x,1/2+y,1/2+z
1/2-x,-y,1/2+z
1/2+x,1/2-y,1/2-z
1/2-x,y,1/2-z
1/2-x,1/2-y,1/2-z
1/2+x,y,1/2-z
1/2-x,1/2+y,1/2+z
1/2+x,-y,1/2+z
loop_
_atom_site_type_symbol
_atom_site_label
_atom_site_fract_x
_atom_site_fract_y
_atom_site_fract_z
Si Si1 0.633031 0.250000 0.704845
Si Si2 0.851685 0.750000 0.656458
Si Si3 0.250000 0.590208 0.750000
Si Si4 0.860766 0.562170 0.436592
Si Si5 0.635091 0.041771 0.652042
Si Si6 0.850812 0.250000 0.492988
O O1 0.500000 0.250000 0.740020
O O2 0.750000 0.250000 0.750000
O O3 0.637583 0.152448 0.666811
O O4 0.805285 0.840546 0.695724
O O5 0.807612 0.750000 0.581522
O O6 0.000000 0.750000 0.656260
O O7 0.347308 0.520974 0.715975
O O8 0.870903 0.500000 0.500000
O O9 0.755918 0.522869 0.390374
O O10 0.817459 0.660884 0.464791
O O11 0.000000 0.568878 0.407885
O O12 0.500000 0.020394 0.623290
O O13 0.000000 0.250000 0.488681
#
# Coordination Sequence:
#
# PCOD9539161 Si02
#       6
#     8   8   8  16  16   8
#     4  10  21  38  56  82 118 153 191 234 288 351
#     4  10  21  38  61  87 115 153 200 250 296 348
#     4  11  22  37  60  86 122 161 196 241 298 364
#     4  10  21  37  59  85 113 152 199 246 297 350
#     4  11  23  38  59  88 123 159 196 242 298 359
#     4   9  18  36  59  83 111 144 195 252 296 345
#
# _framework density 19.870667000000001
#
# number of rings (size 3 to 8) (size 9 to 14) (size 15 to 20)
#    0.000    1.750    1.250    3.000    0.000    5.500 
#    0.000    0.000    0.000    3.000    0.000    0.000 
#    0.000    0.000    0.000    0.000    0.000    0.000 
#
# Total GULP energy -178437.398083 kJ/mol
# GULP energy per Si atom -5576.168690 kJ/mol
# Density = 1.982544 g / cm^3
# Si number density = 19.870667 Si / 1000 Ang^3
#
#
#
# Elastic Constant Matrix: (Units=GPa)
#
#
# Indices 1 2 3 4 5 6 
#
# 1 136.9338 12.1523 52.4248 0.0000 0.0000 0.0000
# 2 12.1523 105.1709 11.4949 0.0000 0.0000 0.0000
# 3 52.4248 11.4949 62.4574 0.0000 0.0000 0.0000
# 4 0.0000 0.0000 0.0000 -0.1148 0.0000 0.0000
# 5 0.0000 0.0000 0.0000 0.0000 33.4072 0.0000
# 6 0.0000 0.0000 0.0000 0.0000 0.0000 -0.3805
#
#
#
# Elastic Compliance Matrix: (Units=1/GPa)
#
#
# Indices 1 2 3 4 5 6 
#
# 1 0.010768 -0.000262 -0.008990 0.000000 0.000000 0.000000
# 2 -0.000262 0.009710 -0.001567 0.000000 0.000000 0.000000
# 3 -0.008990 -0.001567 0.023845 0.000000 0.000000 0.000000
# 4 0.000000 0.000000 0.000000 -8.710661 0.000000 0.000003
# 5 0.000000 0.000000 0.000000 0.000000 0.029934 0.000000
# 6 0.000000 0.000000 0.000000 0.000003 0.000000 -2.628054
#
#
# Mechanical properties :
#
#
# Convention : Reuss Voigt Hill
#
# Bulk Modulus (GPa) = 44.08227 50.74513 47.41370
# Shear Modulus (GPa) = -0.44503 21.81505 10.68501
#
# Velocity S-wave (km/s) = -0.47376 3.31698 2.32141
# Velocity P-wave (km/s) = 4.68332 6.34531 5.57658
#
# Compressibility (1/GPa) = 0.02268486
#
# Stress axis : x y z
#
# Youngs Moduli (GPa) = 92.86920 102.98788 41.93689
#
# Poissons Ratio (x) = 0.02694 0.37701
# Poissons Ratio (y) = 0.02430 0.06573
# Poissons Ratio (z) = 0.83490 0.16143
#
# Static dielectric constant tensor:
#      x y z
#    x 1.706520 0.000000 0.000000 
#    y 0.000000 1.602710 0.000000 
#    z 0.000000 0.000000 1.688890 
# 
# From -- ./inp_files/40778.got.cif
#   From: 2010.05.17/outbox.cif.g08.bks.cpg/sg74_21_cif.got.tgz:40778.got - 2010.06.03 17:57:02.
