data_PCOD9539868
_publ_section_title
;
Structure prediction by ZEFSAII (Michael W. Deem and Ramdas Pophale) SiO2 
 PCOD9539868
Probable space group: I M M A
;
_chemical_formula_sum "Si O2"
_cell_formula_units_Z 116
_cell_length_a 26.862864
_cell_length_b 15.210542
_cell_length_c 11.236075
_cell_angle_alpha 90.000000
_cell_angle_beta 90.000000
_cell_angle_gamma 90.000000
_cell_volume 4591.045875
_symmetry_space_group_name_H-M "I M M A"
_symmetry_group_IT_number 74
_symmetry_cell_setting 'orthorhombic'
loop_
_space_group_symop_operation_xyz
x,y,z
-x,1/2-y,z
x,-y,-z
-x,1/2+y,-z
-x,-y,-z
x,1/2+y,-z
-x,y,z
x,1/2-y,z
1/2+x,1/2+y,1/2+z
1/2-x,-y,1/2+z
1/2+x,1/2-y,1/2-z
1/2-x,y,1/2-z
1/2-x,1/2-y,1/2-z
1/2+x,y,1/2-z
1/2-x,1/2+y,1/2+z
1/2+x,-y,1/2+z
loop_
_atom_site_type_symbol
_atom_site_label
_atom_site_fract_x
_atom_site_fract_y
_atom_site_fract_z
Si Si1 0.054000 0.147357 0.556445
Si Si2 0.402817 0.919496 0.277640
Si Si3 0.208730 0.102763 0.850958
Si Si4 0.000000 0.250000 0.318139
Si Si5 0.239239 0.401515 0.112190
Si Si6 0.657199 0.151215 0.051852
Si Si7 0.591396 0.621014 0.752529
Si Si8 0.057336 0.150878 0.000873
O O1 0.049835 0.250000 0.520662
O O2 0.063846 0.142223 0.695747
O O3 0.106725 0.114250 0.506595
O O4 0.000000 0.106828 0.529919
O O5 0.346403 0.886285 0.295278
O O6 0.428688 0.919667 0.404575
O O7 0.407462 0.017117 0.226289
O O8 0.250000 0.131804 0.750000
O O9 0.216125 0.997079 0.863893
O O10 0.211886 0.136726 0.990175
O O11 0.956158 0.327269 0.302967
O O12 0.250000 0.364807 0.250000
O O13 0.294165 0.406117 0.053066
O O14 0.666855 0.250000 0.004395
O O15 0.640421 0.157807 0.187772
O O16 0.591387 0.638874 0.614029
O O17 0.063898 0.250000 0.953469
O O18 0.000000 0.143300 0.039768
#
# Coordination Sequence:
#
# PCOD9539868 Si02
#       8
#    16  16  16   4  16  16  16  16
#     4  10  24  46  70 104 147 187 229 290 358 427
#     4  12  26  39  73 103 131 182 242 286 344 439
#     4  10  22  43  68  95 137 181 231 302 376 422
#     4  12  24  44  62  98 150 196 220 294 348 420
#     4  10  22  40  66  95 134 177 236 305 363 418
#     4  11  24  43  70  95 137 188 235 287 360 433
#     4  12  24  41  65  96 137 181 234 275 343 414
#     4  11  23  42  63  94 141 181 218 278 346 411
#
# _framework density 25.266573000000001
#
# number of rings (size 3 to 8) (size 9 to 14) (size 15 to 20)
#    0.000    1.103    2.069    3.724    8.690    3.586 
#    0.000    2.069    0.000    3.724    0.000    0.000 
#    0.000    0.000    0.000    0.000    0.000    0.000 
#
# Total GULP energy -323224.175065 kJ/mol
# GULP energy per Si atom -5572.830605 kJ/mol
# Density = 2.520907 g / cm^3
# Si number density = 25.266573 Si / 1000 Ang^3
#
#
#
# Elastic Constant Matrix: (Units=GPa)
#
#
# Indices 1 2 3 4 5 6 
#
# 1 130.2290 7.5848 17.7888 0.0000 0.0000 0.0000
# 2 7.5848 64.7605 16.3050 0.0000 0.0000 0.0000
# 3 17.7888 16.3050 132.1985 0.0000 0.0000 0.0000
# 4 0.0000 0.0000 0.0000 -4.1103 0.0000 0.0000
# 5 0.0000 0.0000 0.0000 0.0000 34.9724 0.0000
# 6 0.0000 0.0000 0.0000 0.0000 0.0000 22.8277
#
#
#
# Elastic Compliance Matrix: (Units=1/GPa)
#
#
# Indices 1 2 3 4 5 6 
#
# 1 0.007851 -0.000674 -0.000973 0.000000 0.000000 0.000000
# 2 -0.000674 0.015994 -0.001882 0.000000 0.000000 0.000000
# 3 -0.000973 -0.001882 0.007927 0.000000 0.000000 0.000000
# 4 0.000000 0.000000 0.000000 -0.243294 0.000000 0.000000
# 5 0.000000 0.000000 0.000000 0.000000 0.028594 0.000000
# 6 0.000000 0.000000 0.000000 0.000000 0.000000 0.043806
#
#
# Mechanical properties :
#
#
# Convention : Reuss Voigt Hill
#
# Bulk Modulus (GPa) = 40.46378 45.61614 43.03996
# Shear Modulus (GPa) = -40.38014 29.77193 -5.30410
#
# Velocity S-wave (km/s) = -4.00204 3.43638 -1.45045
# Velocity P-wave (km/s) = 2.30339 5.81705 3.77707
#
# Compressibility (1/GPa) = 0.02471346
#
# Stress axis : x y z
#
# Youngs Moduli (GPa) = 127.37220 62.52213 126.14387
#
# Poissons Ratio (x) = 0.04217 0.12277
# Poissons Ratio (y) = 0.08591 0.23739
# Poissons Ratio (z) = 0.12397 0.11766
#
# Static dielectric constant tensor:
#      x y z
#    x 1.844880 0.000000 0.000000 
#    y 0.000000 2.261290 0.000000 
#    z 0.000000 0.000000 2.152240 
# 
# From -- ./inp_files/26414.got.cif
#   From: 2010.05.17/outbox.cif.g08.bks.cpg/sg74_14_cif.got.tgz:26414.got - 2010.06.03 17:57:02.
