data_PCOD9539694
_publ_section_title
;
Structure prediction by ZEFSAII (Michael W. Deem and Ramdas Pophale) SiO2 
 PCOD9539694
Probable space group: I M M A
;
_chemical_formula_sum "Si O2"
_cell_formula_units_Z 88
_cell_length_a 7.662079
_cell_length_b 20.934626
_cell_length_c 23.576510
_cell_angle_alpha 90.000000
_cell_angle_beta 90.000000
_cell_angle_gamma 90.000000
_cell_volume 3781.737234
_symmetry_space_group_name_H-M "I M M A"
_symmetry_group_IT_number 74
_symmetry_cell_setting 'orthorhombic'
loop_
_space_group_symop_operation_xyz
x,y,z
-x,1/2-y,z
x,-y,-z
-x,1/2+y,-z
-x,-y,-z
x,1/2+y,-z
-x,y,z
x,1/2-y,z
1/2+x,1/2+y,1/2+z
1/2-x,-y,1/2+z
1/2+x,1/2-y,1/2-z
1/2-x,y,1/2-z
1/2-x,1/2-y,1/2-z
1/2+x,y,1/2-z
1/2-x,1/2+y,1/2+z
1/2+x,-y,1/2+z
loop_
_atom_site_type_symbol
_atom_site_label
_atom_site_fract_x
_atom_site_fract_y
_atom_site_fract_z
Si Si1 0.288496 0.179576 0.844098
Si Si2 0.213289 0.645165 0.591165
Si Si3 0.197412 0.497831 0.424431
Si Si4 0.789778 0.750000 0.682130
Si Si5 0.788224 0.367857 0.532451
Si Si6 0.806239 0.046960 0.810051
O O1 0.500000 0.174423 0.840698
O O2 0.236660 0.250000 0.826261
O O3 0.236696 0.167625 0.910045
O O4 0.202337 0.123361 0.808979
O O5 0.276423 0.571632 0.588437
O O6 0.271696 0.688803 0.644016
O O7 0.260228 0.665678 0.526650
O O8 0.000000 0.645376 0.594768
O O9 0.270772 0.557092 0.461985
O O10 0.187935 0.528539 0.362211
O O11 0.000000 0.484958 0.443493
O O12 0.750000 0.750000 0.750000
O O13 0.000000 0.750000 0.679547
O O14 0.000000 0.370427 0.533433
O O15 0.750000 0.020173 0.750000
O O16 0.000000 0.025905 0.824117
#
# Coordination Sequence:
#
# PCOD9539694 Si02
#       6
#    16  16  16   8  16  16
#     4   9  18  32  52  79 110 141 173 214 261 312
#     4   9  17  30  54  83 108 138 175 218 268 322
#     4   9  17  32  53  80 110 137 171 218 273 326
#     4  10  22  38  54  76 108 144 187 230 267 316
#     4   8  14  26  50  83 112 133 165 216 267 318
#     4  11  22  36  53  73 101 138 181 225 266 313
#
# _framework density 23.269728000000001
#
# number of rings (size 3 to 8) (size 9 to 14) (size 15 to 20)
#    0.000    2.727    0.000    3.273    1.273    3.636 
#    0.000    2.727    0.000   13.091    0.000    0.000 
#    0.000    0.000    0.000    0.000    0.000    0.000 
#
# Total GULP energy -245248.912098 kJ/mol
# GULP energy per Si atom -5573.838911 kJ/mol
# Density = 2.321677 g / cm^3
# Si number density = 23.269728 Si / 1000 Ang^3
#
#
#
# Elastic Constant Matrix: (Units=GPa)
#
#
# Indices 1 2 3 4 5 6 
#
# 1 58.0774 4.9419 10.9934 0.0000 0.0000 0.0000
# 2 4.9419 84.3337 37.4410 0.0000 0.0000 0.0000
# 3 10.9934 37.4410 167.9553 0.0000 0.0000 0.0000
# 4 0.0000 0.0000 0.0000 9.7710 0.0000 0.0000
# 5 0.0000 0.0000 0.0000 0.0000 7.7332 0.0000
# 6 0.0000 0.0000 0.0000 0.0000 0.0000 -6.5587
#
#
#
# Elastic Compliance Matrix: (Units=1/GPa)
#
#
# Indices 1 2 3 4 5 6 
#
# 1 0.017459 -0.000572 -0.001015 0.000000 0.000000 0.000000
# 2 -0.000572 0.013179 -0.002900 0.000000 0.000000 0.000000
# 3 -0.001015 -0.002900 0.006667 0.000000 0.000000 0.000000
# 4 0.000000 0.000000 0.000000 0.102343 0.000000 0.000000
# 5 0.000000 0.000000 0.000000 0.000000 0.129312 0.000000
# 6 0.000000 0.000000 0.000000 0.000000 0.000000 -0.152469
#
#
# Mechanical properties :
#
#
# Convention : Reuss Voigt Hill
#
# Bulk Modulus (GPa) = 35.29933 46.34656 40.82294
# Shear Modulus (GPa) = 37.06164 19.32178 28.19171
#
# Velocity S-wave (km/s) = 3.99519 2.88469 3.48446
# Velocity P-wave (km/s) = 6.04025 5.57275 5.81121
#
# Compressibility (1/GPa) = 0.02832915
#
# Stress axis : x y z
#
# Youngs Moduli (GPa) = 57.27615 75.87906 149.99302
#
# Poissons Ratio (x) = 0.04343 0.15227
# Poissons Ratio (y) = 0.03279 0.43504
# Poissons Ratio (z) = 0.05815 0.22008
#
# Static dielectric constant tensor:
#      x y z
#    x 1.896360 0.000000 0.000000 
#    y 0.000000 1.928460 0.000000 
#    z 0.000000 0.000000 1.876880 
# 
# From -- ./inp_files/57029.got.cif
#   From: 2010.05.17/outbox.cif.g08.bks.cpg/sg74_29_cif.got.tgz:57029.got - 2010.06.03 17:57:02.
