data_PCOD9539537
_publ_section_title
;
Structure prediction by ZEFSAII (Michael W. Deem and Ramdas Pophale) SiO2 
 PCOD9539537
Probable space group: I M M A
;
_chemical_formula_sum "Si O2"
_cell_formula_units_Z 72
_cell_length_a 22.378050
_cell_length_b 8.673064
_cell_length_c 19.935144
_cell_angle_alpha 90.000000
_cell_angle_beta 90.000000
_cell_angle_gamma 90.000000
_cell_volume 3869.137538
_symmetry_space_group_name_H-M "I M M A"
_symmetry_group_IT_number 74
_symmetry_cell_setting 'orthorhombic'
loop_
_space_group_symop_operation_xyz
x,y,z
-x,1/2-y,z
x,-y,-z
-x,1/2+y,-z
-x,-y,-z
x,1/2+y,-z
-x,y,z
x,1/2-y,z
1/2+x,1/2+y,1/2+z
1/2-x,-y,1/2+z
1/2+x,1/2-y,1/2-z
1/2-x,y,1/2-z
1/2-x,1/2-y,1/2-z
1/2+x,y,1/2-z
1/2-x,1/2+y,1/2+z
1/2+x,-y,1/2+z
loop_
_atom_site_type_symbol
_atom_site_label
_atom_site_fract_x
_atom_site_fract_y
_atom_site_fract_z
Si Si1 0.429887 0.434704 0.800649
Si Si2 0.389235 0.435541 0.339386
Si Si3 0.859877 0.435342 0.426728
Si Si4 0.777925 0.435333 0.072704
Si Si5 0.000000 0.065193 0.924680
O O1 0.500000 0.475757 0.797007
O O2 0.425066 0.250000 0.798674
O O3 0.397642 0.505710 0.735941
O O4 0.401056 0.498045 0.868542
O O5 0.393599 0.250000 0.340681
O O6 0.325868 0.482336 0.371674
O O7 0.442042 0.505202 0.384788
O O8 0.876144 0.500000 0.500000
O O9 0.863164 0.250000 0.427398
O O10 0.790564 0.482032 0.413790
O O11 0.778721 0.250000 0.068882
O O12 0.795516 0.500000 0.000000
O O13 0.000000 0.250000 0.925956
O O14 0.000000 0.000000 0.000000
#
# Coordination Sequence:
#
# PCOD9539537 Si02
#       5
#    16  16  16  16   8
#     4  11  24  41  60  85 119 156 198 246 295 351
#     4  11  22  38  60  86 118 157 198 241 296 350
#     4  10  21  40  64  89 118 151 193 243 298 355
#     4   9  20  37  59  88 119 153 194 243 292 350
#     4  12  24  38  56  84 119 158 203 246 288 342
#
# _framework density 18.608799000000001
#
# number of rings (size 3 to 8) (size 9 to 14) (size 15 to 20)
#    0.000    1.556    1.111    3.667    0.000    7.111 
#    0.000    4.444    0.000    0.000    0.000    0.000 
#    0.000    0.000    0.000    0.000    0.000    0.000 
#
# Total GULP energy -201221.861506 kJ/mol
# GULP energy per Si atom -5589.496153 kJ/mol
# Density = 1.856644 g / cm^3
# Si number density = 18.608799 Si / 1000 Ang^3
#
#
#
# Elastic Constant Matrix: (Units=GPa)
#
#
# Indices 1 2 3 4 5 6 
#
# 1 62.5067 31.1575 64.0338 0.0000 0.0000 0.0000
# 2 31.1575 58.6645 42.6715 0.0000 0.0000 0.0000
# 3 64.0338 42.6715 149.2479 0.0000 0.0000 0.0000
# 4 0.0000 0.0000 0.0000 39.6160 0.0000 0.0000
# 5 0.0000 0.0000 0.0000 0.0000 -263.0981 0.0000
# 6 0.0000 0.0000 0.0000 0.0000 0.0000 15.7730
#
#
#
# Elastic Compliance Matrix: (Units=1/GPa)
#
#
# Indices 1 2 3 4 5 6 
#
# 1 0.031766 -0.008785 -0.011117 0.000000 0.000000 0.000000
# 2 -0.008785 0.023951 -0.003079 0.000000 0.000000 0.000000
# 3 -0.011117 -0.003079 0.012350 0.000000 0.000000 0.000000
# 4 0.000000 0.000000 0.000000 0.025242 0.000000 0.000000
# 5 0.000000 0.000000 0.000000 0.000000 -0.003801 0.000000
# 6 0.000000 0.000000 0.000000 0.000000 0.000000 0.063400
#
#
# Mechanical properties :
#
#
# Convention : Reuss Voigt Hill
#
# Bulk Modulus (GPa) = 45.23717 60.68276 52.95997
# Shear Modulus (GPa) = 24.24360 -32.70475 -4.23057
#
# Velocity S-wave (km/s) = 3.61335 -4.19679 -1.50942
# Velocity P-wave (km/s) = 6.46303 3.03257 5.04813
#
# Compressibility (1/GPa) = 0.02210571
#
# Stress axis : x y z
#
# Youngs Moduli (GPa) = 31.47989 41.75127 80.96916
#
# Poissons Ratio (x) = 0.36678 0.90017
# Poissons Ratio (y) = 0.27655 0.24929
# Poissons Ratio (z) = 0.34998 0.12855
#
# Static dielectric constant tensor:
#      x y z
#    x 1.641260 0.000000 0.000000 
#    y 0.000000 1.627100 0.000000 
#    z 0.000000 0.000000 1.599250 
# 
# From -- ./inp_files/39481.got.cif
#   From: 2010.05.17/outbox.cif.g08.bks.cpg/sg74_20_cif.got.tgz:39481.got - 2010.06.03 17:57:02.
