data_PCOD9539653
_publ_section_title
;
Structure prediction by ZEFSAII (Michael W. Deem and Ramdas Pophale) SiO2 
 PCOD9539653
Probable space group: I M M A
;
_chemical_formula_sum "Si O2"
_cell_formula_units_Z 64
_cell_length_a 25.378499
_cell_length_b 10.530103
_cell_length_c 12.429756
_cell_angle_alpha 90.000000
_cell_angle_beta 90.000000
_cell_angle_gamma 90.000000
_cell_volume 3321.705725
_symmetry_space_group_name_H-M "I M M A"
_symmetry_group_IT_number 74
_symmetry_cell_setting 'orthorhombic'
loop_
_space_group_symop_operation_xyz
x,y,z
-x,1/2-y,z
x,-y,-z
-x,1/2+y,-z
-x,-y,-z
x,1/2+y,-z
-x,y,z
x,1/2-y,z
1/2+x,1/2+y,1/2+z
1/2-x,-y,1/2+z
1/2+x,1/2-y,1/2-z
1/2-x,y,1/2-z
1/2-x,1/2-y,1/2-z
1/2+x,y,1/2-z
1/2-x,1/2+y,1/2+z
1/2+x,-y,1/2+z
loop_
_atom_site_type_symbol
_atom_site_label
_atom_site_fract_x
_atom_site_fract_y
_atom_site_fract_z
Si Si1 0.606794 0.510958 0.372181
Si Si2 0.191932 0.900639 0.293871
Si Si3 0.000000 0.888665 0.087681
Si Si4 0.562023 0.250000 0.028675
Si Si5 0.438168 0.250000 0.286058
Si Si6 0.632700 0.000000 0.000000
O O1 0.616881 0.500000 0.500000
O O2 0.653371 0.571829 0.305608
O O3 0.554045 0.592632 0.350328
O O4 0.591415 0.372246 0.330878
O O5 0.191387 0.750000 0.321954
O O6 0.250000 0.933404 0.250000
O O7 0.169947 0.982176 0.394862
O O8 0.000000 0.750000 0.038873
O O9 0.000000 0.000000 0.000000
O O10 0.500000 0.250000 0.993612
O O11 0.562749 0.250000 0.157853
O O12 0.594512 0.123504 0.997208
O O13 0.500000 0.250000 0.314670
#
# Coordination Sequence:
#
# PCOD9539653 Si02
#       6
#    16  16   8   8   8   8
#     4  11  24  38  64  96 135 170 223 264 336 399
#     4  11  26  47  68  94 133 181 227 281 341 397
#     4  10  22  36  60  91 132 171 214 267 327 395
#     4  11  24  44  70 104 144 181 229 279 348 416
#     4  11  22  40  61  98 137 179 210 274 330 408
#     4  12  23  48  72 102 136 181 232 288 342 412
#
# _framework density 19.267209000000001
#
# number of rings (size 3 to 8) (size 9 to 14) (size 15 to 20)
#    0.000    1.000    5.000    1.125   10.500    0.000 
#    2.250    2.500    0.000    0.000    0.000    0.000 
#    0.000    0.000    0.000    0.000    0.000    0.000 
#
# Total GULP energy -178665.261647 kJ/mol
# GULP energy per Si atom -5583.289426 kJ/mol
# Density = 1.922336 g / cm^3
# Si number density = 19.267209 Si / 1000 Ang^3
#
#
#
# Elastic Constant Matrix: (Units=GPa)
#
#
# Indices 1 2 3 4 5 6 
#
# 1 184.6911 45.6471 60.3385 0.0000 0.0000 0.0000
# 2 45.6471 117.5763 1.1783 0.0000 0.0000 0.0000
# 3 60.3385 1.1783 78.3536 0.0000 0.0000 0.0000
# 4 0.0000 0.0000 0.0000 -32.6424 0.0000 0.0000
# 5 0.0000 0.0000 0.0000 0.0000 39.8877 0.0000
# 6 0.0000 0.0000 0.0000 0.0000 0.0000 21.6436
#
#
#
# Elastic Compliance Matrix: (Units=1/GPa)
#
#
# Indices 1 2 3 4 5 6 
#
# 1 0.008251 -0.003140 -0.006307 0.000000 0.000000 0.000000
# 2 -0.003140 0.009701 0.002272 0.000000 0.000000 0.000000
# 3 -0.006307 0.002272 0.017585 0.000000 0.000000 0.000000
# 4 0.000000 0.000000 0.000000 -0.030635 0.000000 0.000000
# 5 0.000000 0.000000 0.000000 0.000000 0.025070 0.000000
# 6 0.000000 0.000000 0.000000 0.000000 0.000000 0.046203
#
#
# Mechanical properties :
#
#
# Convention : Reuss Voigt Hill
#
# Bulk Modulus (GPa) = 47.19554 66.10543 56.65049
# Shear Modulus (GPa) = 51.23602 24.00826 37.62214
#
# Velocity S-wave (km/s) = 5.16237 3.53380 4.42368
# Velocity P-wave (km/s) = 7.75125 7.14385 7.45374
#
# Compressibility (1/GPa) = 0.02118844
#
# Stress axis : x y z
#
# Youngs Moduli (GPa) = 121.19881 103.07764 56.86630
#
# Poissons Ratio (x) = 0.32367 0.35864
# Poissons Ratio (y) = 0.38057 -0.12921
# Poissons Ratio (z) = 0.76436 -0.23421
#
# Static dielectric constant tensor:
#      x y z
#    x 1.687800 0.000000 0.000000 
#    y 0.000000 1.673010 0.000000 
#    z 0.000000 0.000000 1.673300 
# 
# From -- ./inp_files/36018.got.cif
#   From: 2010.05.17/outbox.cif.g08.bks.cpg/sg74_19_cif.got.tgz:36018.got - 2010.06.03 17:57:02.
