data_PCOD9539838
_publ_section_title
;
Structure prediction by ZEFSAII (Michael W. Deem and Ramdas Pophale) SiO2 
 PCOD9539838
Probable space group: I M M A
;
_chemical_formula_sum "Si O2"
_cell_formula_units_Z 64
_cell_length_a 34.966654
_cell_length_b 17.501937
_cell_length_c 4.906402
_cell_angle_alpha 90.000000
_cell_angle_beta 90.000000
_cell_angle_gamma 90.000000
_cell_volume 3002.640382
_symmetry_space_group_name_H-M "I M M A"
_symmetry_group_IT_number 74
_symmetry_cell_setting 'orthorhombic'
loop_
_space_group_symop_operation_xyz
x,y,z
-x,1/2-y,z
x,-y,-z
-x,1/2+y,-z
-x,-y,-z
x,1/2+y,-z
-x,y,z
x,1/2-y,z
1/2+x,1/2+y,1/2+z
1/2-x,-y,1/2+z
1/2+x,1/2-y,1/2-z
1/2-x,y,1/2-z
1/2-x,1/2-y,1/2-z
1/2+x,y,1/2-z
1/2-x,1/2+y,1/2+z
1/2+x,-y,1/2+z
loop_
_atom_site_type_symbol
_atom_site_label
_atom_site_fract_x
_atom_site_fract_y
_atom_site_fract_z
Si Si1 0.159224 0.946871 0.253152
Si Si2 0.777506 0.836287 0.506558
Si Si3 0.081886 0.090557 0.000421
Si Si4 0.457020 0.658995 0.996775
O O1 0.189653 0.893076 0.404383
O O2 0.124771 0.900066 0.114462
O O3 0.143877 0.000000 0.500000
O O4 0.174192 0.000000 0.000000
O O5 0.708568 0.750000 0.918700
O O6 0.750000 0.828892 0.250000
O O7 0.750000 0.864713 0.750000
O O8 0.052892 0.132596 0.799483
O O9 0.074105 0.122744 0.297651
O O10 0.075018 0.000000 0.000000
O O11 0.500000 0.633636 0.922074
O O12 0.455501 0.750000 0.978179
#
# Coordination Sequence:
#
# PCOD9539838 Si02
#       4
#    16  16  16  16
#     4  11  23  41  63  90 125 163 207 256 306 367
#     4  10  22  40  62  91 124 157 199 249 301 362
#     4  11  23  41  63  91 125 163 211 260 310 371
#     4  11  24  41  62  91 126 164 210 262 314 372
#
# _framework density 21.314571999999998
#
# number of rings (size 3 to 8) (size 9 to 14) (size 15 to 20)
#    0.000    1.250    0.000    6.750    0.000    9.000 
#    0.000    2.500    0.000    0.000    0.000    0.000 
#    0.000    0.000    0.000    0.000    0.000    0.000 
#
# Total GULP energy -178809.271402 kJ/mol
# GULP energy per Si atom -5587.789731 kJ/mol
# Density = 2.126606 g / cm^3
# Si number density = 21.314572 Si / 1000 Ang^3
#
#
#
# Elastic Constant Matrix: (Units=GPa)
#
#
# Indices 1 2 3 4 5 6 
#
# 1 82.3070 41.1362 -9.4329 0.0018 0.0004 0.0001
# 2 41.1362 53.6609 3.9891 0.0048 -0.0028 0.0001
# 3 -9.4329 3.9891 61.8860 0.0126 -0.0292 -0.0040
# 4 0.0018 0.0048 0.0126 19.1568 -0.0095 -0.0008
# 5 0.0004 -0.0028 -0.0292 -0.0095 118.0635 -0.0034
# 6 0.0001 0.0001 -0.0040 -0.0008 -0.0034 33.7352
#
#
#
# Elastic Compliance Matrix: (Units=1/GPa)
#
#
# Indices 1 2 3 4 5 6 
#
# 1 0.020730 -0.016204 0.004204 -0.000001 0.000001 0.000000
# 2 -0.016204 0.031392 -0.004493 -0.000003 0.000000 -0.000001
# 3 0.004204 -0.004493 0.017089 -0.000011 0.000004 0.000002
# 4 -0.000001 -0.000003 -0.000011 0.052201 0.000004 0.000001
# 5 0.000001 0.000000 0.000004 0.000004 0.008470 0.000001
# 6 0.000000 -0.000001 0.000002 0.000001 0.000001 0.029643
#
#
# Mechanical properties :
#
#
# Convention : Reuss Voigt Hill
#
# Bulk Modulus (GPa) = 27.60567 29.91540 28.76054
# Shear Modulus (GPa) = 24.43964 45.00187 34.72076
#
# Velocity S-wave (km/s) = 3.38985 4.59989 4.04043
# Velocity P-wave (km/s) = 5.31988 6.50213 5.94049
#
# Compressibility (1/GPa) = 0.03622444
#
# Stress axis : x y z
#
# Youngs Moduli (GPa) = 48.23888 31.85566 58.51646
#
# Poissons Ratio (x) = 0.51619 -0.24602
# Poissons Ratio (y) = 0.78167 0.26294
# Poissons Ratio (z) = -0.20281 0.14314
#
# Static dielectric constant tensor:
#      x y z
#    x 1.767120 0.000000 0.000010 
#    y 0.000000 1.776900 0.000000 
#    z 0.000010 0.000000 1.782260 
# 
# From -- ./inp_files/4925.got.cif
#   From: 2010.05.17/outbox.cif.g08.bks.cpg/sg74_3_cif.got.tgz:4925.got - 2010.06.03 17:57:02.
