data_PCOD9539828
_publ_section_title
;
Structure prediction by ZEFSAII (Michael W. Deem and Ramdas Pophale) SiO2 
 PCOD9539828
Probable space group: I M M A
;
_chemical_formula_sum "Si O2"
_cell_formula_units_Z 72
_cell_length_a 25.566265
_cell_length_b 16.684479
_cell_length_c 8.928279
_cell_angle_alpha 90.000000
_cell_angle_beta 90.000000
_cell_angle_gamma 90.000000
_cell_volume 3808.445007
_symmetry_space_group_name_H-M "I M M A"
_symmetry_group_IT_number 74
_symmetry_cell_setting 'orthorhombic'
loop_
_space_group_symop_operation_xyz
x,y,z
-x,1/2-y,z
x,-y,-z
-x,1/2+y,-z
-x,-y,-z
x,1/2+y,-z
-x,y,z
x,1/2-y,z
1/2+x,1/2+y,1/2+z
1/2-x,-y,1/2+z
1/2+x,1/2-y,1/2-z
1/2-x,y,1/2-z
1/2-x,1/2-y,1/2-z
1/2+x,y,1/2-z
1/2-x,1/2+y,1/2+z
1/2+x,-y,1/2+z
loop_
_atom_site_type_symbol
_atom_site_label
_atom_site_fract_x
_atom_site_fract_y
_atom_site_fract_z
Si Si1 0.260937 0.250000 0.427371
Si Si2 0.707891 0.881405 0.143678
Si Si3 0.875287 0.000000 0.500000
Si Si4 0.859457 0.750000 0.216959
Si Si5 0.612860 0.250000 0.405834
Si Si6 0.559846 0.886229 0.795241
Si Si7 0.945386 0.250000 0.542337
O O1 0.250000 0.250000 0.250000
O O2 0.235338 0.325698 0.516289
O O3 0.324116 0.250000 0.424792
O O4 0.750000 0.926184 0.250000
O O5 0.678523 0.825169 0.264157
O O6 0.663835 0.933950 0.066379
O O7 0.909998 0.962449 0.635160
O O8 0.893956 0.750000 0.364071
O O9 0.899944 0.750000 0.081085
O O10 0.591091 0.170168 0.323402
O O11 0.500000 0.903906 0.744701
O O12 0.555321 0.826979 0.936709
O O13 0.000000 0.250000 0.629873
#
# Coordination Sequence:
#
# PCOD9539828 Si02
#       7
#     8  16   8   8   8  16   8
#     4  11  21  36  65  91 117 154 208 255 301 349
#     4  11  23  41  58  93 126 162 206 250 299 376
#     4  12  23  38  66  84 128 170 201 244 312 372
#     4  11  19  41  63  85 123 155 197 258 310 350
#     4  11  21  37  67  87 114 158 200 262 313 346
#     4  10  22  40  61  91 120 155 207 258 302 365
#     4   9  18  35  64  88 108 147 208 253 289 344
#
# _framework density 18.905353000000002
#
# number of rings (size 3 to 8) (size 9 to 14) (size 15 to 20)
#    0.000    1.333    4.444    3.333    3.111    3.556 
#    0.000    0.000    0.000    1.333    0.000    0.000 
#    0.000    0.000    0.000    0.000    0.000    0.000 
#
# Total GULP energy -200418.117135 kJ/mol
# GULP energy per Si atom -5567.169920 kJ/mol
# Density = 1.886232 g / cm^3
# Si number density = 18.905353 Si / 1000 Ang^3
#
#
#
# Elastic Constant Matrix: (Units=GPa)
#
#
# Indices 1 2 3 4 5 6 
#
# 1 128.7796 49.3257 41.5776 0.0000 0.0000 0.0000
# 2 49.3257 74.2896 28.9550 0.0000 0.0000 0.0000
# 3 41.5776 28.9550 97.0076 0.0000 0.0000 0.0000
# 4 0.0000 0.0000 0.0000 -2.0324 0.0000 0.0000
# 5 0.0000 0.0000 0.0000 0.0000 31.8782 0.0000
# 6 0.0000 0.0000 0.0000 0.0000 0.0000 17.5386
#
#
#
# Elastic Compliance Matrix: (Units=1/GPa)
#
#
# Indices 1 2 3 4 5 6 
#
# 1 0.011086 -0.006234 -0.002891 0.000000 0.000000 0.000000
# 2 -0.006234 0.018739 -0.002921 0.000000 0.000000 0.000000
# 3 -0.002891 -0.002921 0.012419 0.000000 0.000000 0.000000
# 4 0.000000 0.000000 0.000000 -0.492018 0.000000 0.000000
# 5 0.000000 0.000000 0.000000 0.000000 0.031369 0.000000
# 6 0.000000 0.000000 0.000000 0.000000 0.000000 0.057017
#
#
# Mechanical properties :
#
#
# Convention : Reuss Voigt Hill
#
# Bulk Modulus (GPa) = 55.09026 59.97702 57.53364
# Shear Modulus (GPa) = -15.09461 21.49145 3.19842
#
# Velocity S-wave (km/s) = -2.82872 3.37529 1.30211
# Velocity P-wave (km/s) = 4.30516 6.85448 5.72356
#
# Compressibility (1/GPa) = 0.01815203
#
# Stress axis : x y z
#
# Youngs Moduli (GPa) = 90.20053 53.36551 80.51918
#
# Poissons Ratio (x) = 0.33269 0.23277
# Poissons Ratio (y) = 0.56233 0.23521
# Poissons Ratio (z) = 0.26076 0.15589
#
# Static dielectric constant tensor:
#      x y z
#    x 1.714730 0.000000 0.000000 
#    y 0.000000 1.648280 0.000000 
#    z 0.000000 0.000000 1.744540 
# 
# From -- ./inp_files/13531.got.cif
#   From: 2010.05.17/outbox.cif.g08.bks.cpg/sg74_7_cif.got.tgz:13531.got - 2010.06.03 17:57:02.
