data_PCOD9539373
_publ_section_title
;
Structure prediction by ZEFSAII (Michael W. Deem and Ramdas Pophale) SiO2 
 PCOD9539373
Probable space group: I M M A
;
_chemical_formula_sum "Si O2"
_cell_formula_units_Z 68
_cell_length_a 7.190379
_cell_length_b 17.890281
_cell_length_c 23.084837
_cell_angle_alpha 90.000000
_cell_angle_beta 90.000000
_cell_angle_gamma 90.000000
_cell_volume 2969.584972
_symmetry_space_group_name_H-M "I M M A"
_symmetry_group_IT_number 74
_symmetry_cell_setting 'orthorhombic'
loop_
_space_group_symop_operation_xyz
x,y,z
-x,1/2-y,z
x,-y,-z
-x,1/2+y,-z
-x,-y,-z
x,1/2+y,-z
-x,y,z
x,1/2-y,z
1/2+x,1/2+y,1/2+z
1/2-x,-y,1/2+z
1/2+x,1/2-y,1/2-z
1/2-x,y,1/2-z
1/2-x,1/2-y,1/2-z
1/2+x,y,1/2-z
1/2-x,1/2+y,1/2+z
1/2+x,-y,1/2+z
loop_
_atom_site_type_symbol
_atom_site_label
_atom_site_fract_x
_atom_site_fract_y
_atom_site_fract_z
Si Si1 0.224801 0.582071 0.521677
Si Si2 0.274630 0.116220 0.154804
Si Si3 0.726660 0.666282 0.091251
Si Si4 0.280676 0.548646 0.185743
Si Si5 0.000000 0.250000 0.185832
O O1 0.286868 0.500000 0.500000
O O2 0.274000 0.606359 0.586404
O O3 0.281250 0.641272 0.473078
O O4 0.000000 0.578587 0.522026
O O5 0.500000 0.126386 0.160157
O O6 0.162329 0.184279 0.181420
O O7 0.216042 0.036616 0.181781
O O8 0.500000 0.666038 0.092434
O O9 0.786257 0.750000 0.105152
O O10 0.791536 0.604351 0.136884
O O11 0.500000 0.543284 0.174767
O O12 0.250000 0.578660 0.250000
#
# Coordination Sequence:
#
# PCOD9539373 Si02
#       5
#    16  16  16  16   4
#     4   9  15  30  59  89 120 159 207 251 306 370
#     4  10  22  41  64  92 124 167 213 256 317 385
#     4   9  17  30  55  94 125 159 208 256 302 371
#     4  10  21  38  63  86 117 163 212 257 313 377
#     4  12  26  40  64  94 132 156 208 268 328 368
#
# _framework density 22.898823
#
# number of rings (size 3 to 8) (size 9 to 14) (size 15 to 20)
#    0.000    2.353    2.353    0.353    3.294    0.471 
#    0.000    1.176    2.588    0.000    0.000    0.000 
#    0.000    0.000    0.000    0.000    0.000    0.000 
#
# Total GULP energy -189581.413264 kJ/mol
# GULP energy per Si atom -5575.923920 kJ/mol
# Density = 2.284670 g / cm^3
# Si number density = 22.898823 Si / 1000 Ang^3
#
#
#
# Elastic Constant Matrix: (Units=GPa)
#
#
# Indices 1 2 3 4 5 6 
#
# 1 137.2605 22.4935 -4.2814 0.0000 0.0000 0.0000
# 2 22.4935 141.8096 15.7462 0.0000 0.0000 0.0000
# 3 -4.2814 15.7462 95.8171 0.0000 0.0000 0.0000
# 4 0.0000 0.0000 0.0000 -13.5726 0.0000 0.0000
# 5 0.0000 0.0000 0.0000 0.0000 -4.7429 0.0000
# 6 0.0000 0.0000 0.0000 0.0000 0.0000 -31.0956
#
#
#
# Elastic Compliance Matrix: (Units=1/GPa)
#
#
# Indices 1 2 3 4 5 6 
#
# 1 0.007507 -0.001251 0.000541 0.000000 0.000000 0.000000
# 2 -0.001251 0.007391 -0.001271 0.000000 0.000000 0.000000
# 3 0.000541 -0.001271 0.010670 0.000000 0.000000 0.000000
# 4 0.000000 0.000000 0.000000 -0.073678 0.000000 0.000000
# 5 0.000000 0.000000 0.000000 0.000000 -0.210840 0.000000
# 6 0.000000 0.000000 0.000000 0.000000 0.000000 -0.032159
#
#
# Mechanical properties :
#
#
# Convention : Reuss Voigt Hill
#
# Bulk Modulus (GPa) = 46.28083 49.20044 47.74063
# Shear Modulus (GPa) = -17.86062 12.84635 -2.50713
#
# Velocity S-wave (km/s) = -2.79584 2.37112 -1.04750
# Velocity P-wave (km/s) = 3.13569 5.38785 4.40803
#
# Compressibility (1/GPa) = 0.02160722
#
# Stress axis : x y z
#
# Youngs Moduli (GPa) = 133.20414 135.29618 93.72491
#
# Poissons Ratio (x) = 0.16924 -0.05071
# Poissons Ratio (y) = 0.16662 0.11908
# Poissons Ratio (z) = -0.07206 0.17190
#
# Static dielectric constant tensor:
#      x y z
#    x 1.922480 0.000000 0.000000 
#    y 0.000000 1.795030 0.000000 
#    z 0.000000 0.000000 1.879550 
# 
# From -- ./inp_files/48123.got.cif
#   From: 2010.05.17/outbox.cif.g08.bks.cpg/sg74_25_cif.got.tgz:48123.got - 2010.06.03 17:57:02.
