data_PCOD9539429
_publ_section_title
;
Structure prediction by ZEFSAII (Michael W. Deem and Ramdas Pophale) SiO2 
 PCOD9539429
Probable space group: I M M A
;
_chemical_formula_sum "Si O2"
_cell_formula_units_Z 104
_cell_length_a 25.648391
_cell_length_b 21.247199
_cell_length_c 9.436639
_cell_angle_alpha 90.000000
_cell_angle_beta 90.000000
_cell_angle_gamma 90.000000
_cell_volume 5142.557456
_symmetry_space_group_name_H-M "I M M A"
_symmetry_group_IT_number 74
_symmetry_cell_setting 'orthorhombic'
loop_
_space_group_symop_operation_xyz
x,y,z
-x,1/2-y,z
x,-y,-z
-x,1/2+y,-z
-x,-y,-z
x,1/2+y,-z
-x,y,z
x,1/2-y,z
1/2+x,1/2+y,1/2+z
1/2-x,-y,1/2+z
1/2+x,1/2-y,1/2-z
1/2-x,y,1/2-z
1/2-x,1/2-y,1/2-z
1/2+x,y,1/2-z
1/2-x,1/2+y,1/2+z
1/2+x,-y,1/2+z
loop_
_atom_site_type_symbol
_atom_site_label
_atom_site_fract_x
_atom_site_fract_y
_atom_site_fract_z
Si Si1 0.200318 0.673912 0.653979
Si Si2 0.500000 0.902045 0.053443
Si Si3 0.000000 0.823233 0.731502
Si Si4 0.103033 0.616503 0.814736
Si Si5 0.199550 0.675363 0.328471
Si Si6 0.000000 0.175992 0.816393
Si Si7 0.113649 0.881539 0.137623
Si Si8 0.901626 0.987835 0.351428
O O1 0.200736 0.750000 0.653926
O O2 0.250000 0.653785 0.750000
O O3 0.147856 0.650084 0.726056
O O4 0.198096 0.651505 0.490270
O O5 0.500000 0.839680 0.149566
O O6 0.549008 0.946182 0.093233
O O7 0.500000 0.872506 0.898668
O O8 0.052088 0.839445 0.817469
O O9 0.000000 0.750000 0.689168
O O10 0.087830 0.552429 0.732051
O O11 0.124666 0.606931 0.973055
O O12 0.206806 0.750000 0.343338
O O13 0.250000 0.648052 0.250000
O O14 0.150085 0.666015 0.225503
O O15 0.946469 0.142015 0.862431
O O16 0.000000 0.250000 0.848959
O O17 0.122143 0.943739 0.231217
O O18 0.871965 0.000000 0.500000
#
# Coordination Sequence:
#
# PCOD9539429 Si02
#       8
#    16   8   8  16  16   8  16  16
#     4  10  22  41  65  94 127 168 215 266 326 388
#     4  10  21  39  60  89 122 168 215 260 310 375
#     4  12  25  39  62  97 135 172 215 270 332 391
#     4  12  24  40  62  93 131 167 215 266 323 389
#     4  10  21  39  64  91 123 166 214 266 323 387
#     4  10  22  37  58  86 126 166 205 255 312 377
#     4  11  24  39  60  92 127 169 212 263 322 383
#     4  11  21  40  64  85 120 167 217 261 312 372
#
# _framework density 20.223400000000002
#
# number of rings (size 3 to 8) (size 9 to 14) (size 15 to 20)
#    0.000    1.231    1.538    4.615    2.154    4.308 
#    0.000    3.846    0.000    0.000    0.000    0.000 
#    0.000    0.000    0.000    0.000    0.000    0.000 
#
# Total GULP energy -289907.570457 kJ/mol
# GULP energy per Si atom -5575.145586 kJ/mol
# Density = 2.017737 g / cm^3
# Si number density = 20.223400 Si / 1000 Ang^3
#
#
#
# Elastic Constant Matrix: (Units=GPa)
#
#
# Indices 1 2 3 4 5 6 
#
# 1 92.8243 9.2883 48.9515 0.0000 0.0000 0.0000
# 2 9.2883 67.0120 27.5747 0.0000 0.0000 0.0000
# 3 48.9515 27.5747 206.7347 0.0000 0.0000 0.0000
# 4 0.0000 0.0000 0.0000 27.6041 0.0000 0.0000
# 5 0.0000 0.0000 0.0000 0.0000 17.9271 0.0000
# 6 0.0000 0.0000 0.0000 0.0000 0.0000 -29.5945
#
#
#
# Elastic Compliance Matrix: (Units=1/GPa)
#
#
# Indices 1 2 3 4 5 6 
#
# 1 0.012328 -0.000537 -0.002848 0.000000 0.000000 0.000000
# 2 -0.000537 0.015813 -0.001982 0.000000 0.000000 0.000000
# 3 -0.002848 -0.001982 0.005776 0.000000 0.000000 0.000000
# 4 0.000000 0.000000 0.000000 0.036226 0.000000 0.000000
# 5 0.000000 0.000000 0.000000 0.000000 0.055781 0.000000
# 6 0.000000 0.000000 0.000000 0.000000 0.000000 -0.033790
#
#
# Mechanical properties :
#
#
# Convention : Reuss Voigt Hill
#
# Bulk Modulus (GPa) = 43.13371 59.80001 51.46686
# Shear Modulus (GPa) = 45.20970 21.90446 33.55708
#
# Velocity S-wave (km/s) = 4.73325 3.29466 4.07789
# Velocity P-wave (km/s) = 7.15866 6.64130 6.90483
#
# Compressibility (1/GPa) = 0.02318372
#
# Stress axis : x y z
#
# Youngs Moduli (GPa) = 81.11317 63.24037 173.13828
#
# Poissons Ratio (x) = 0.03396 0.49302
# Poissons Ratio (y) = 0.04356 0.34315
# Poissons Ratio (z) = 0.23097 0.12534
#
# Static dielectric constant tensor:
#      x y z
#    x 1.725760 0.000000 0.000000 
#    y 0.000000 1.731160 0.000000 
#    z 0.000000 0.000000 1.759770 
# 
# From -- ./inp_files/15258.got.cif
#   From: 2010.05.17/outbox.cif.g08.bks.cpg/sg74_8_cif.got.tgz:15258.got - 2010.06.03 17:57:02.
