data_PCOD9539064
_publ_section_title
;
Structure prediction by ZEFSAII (Michael W. Deem and Ramdas Pophale) SiO2 
 PCOD9539064
Probable space group: I M M A
;
_chemical_formula_sum "Si O2"
_cell_formula_units_Z 72
_cell_length_a 9.929095
_cell_length_b 26.186425
_cell_length_c 15.902517
_cell_angle_alpha 90.000000
_cell_angle_beta 90.000000
_cell_angle_gamma 90.000000
_cell_volume 4134.773713
_symmetry_space_group_name_H-M "I M M A"
_symmetry_group_IT_number 74
_symmetry_cell_setting 'orthorhombic'
loop_
_space_group_symop_operation_xyz
x,y,z
-x,1/2-y,z
x,-y,-z
-x,1/2+y,-z
-x,-y,-z
x,1/2+y,-z
-x,y,z
x,1/2-y,z
1/2+x,1/2+y,1/2+z
1/2-x,-y,1/2+z
1/2+x,1/2-y,1/2-z
1/2-x,y,1/2-z
1/2-x,1/2-y,1/2-z
1/2+x,y,1/2-z
1/2-x,1/2+y,1/2+z
1/2+x,-y,1/2+z
loop_
_atom_site_type_symbol
_atom_site_label
_atom_site_fract_x
_atom_site_fract_y
_atom_site_fract_z
Si Si1 0.500000 0.308277 0.545047
Si Si2 0.226639 0.806515 0.349454
Si Si3 0.283352 0.462192 0.340402
Si Si4 0.500000 0.499040 0.901954
Si Si5 0.500000 0.051068 0.657857
Si Si6 0.500000 0.112626 0.825346
Si Si7 0.500000 0.411940 0.462222
O O1 0.500000 0.250000 0.513688
O O2 0.633735 0.314602 0.601853
O O3 0.500000 0.351368 0.474489
O O4 0.173618 0.750000 0.375519
O O5 0.250000 0.803225 0.250000
O O6 0.126324 0.853844 0.355797
O O7 0.250000 0.437352 0.250000
O O8 0.370683 0.514360 0.326067
O O9 0.372079 0.431315 0.408149
O O10 0.136980 0.474798 0.373949
O O11 0.500000 0.441960 0.867697
O O12 0.500000 0.500000 0.000000
O O13 0.500000 0.097653 0.725151
O O14 0.500000 0.066463 0.558777
#
# Coordination Sequence:
#
# PCOD9539064 Si02
#       7
#     8  16  16   8   8   8   8
#     4  10  23  40  61  86 112 145 201 255 288 342
#     4  10  21  37  55  82 116 156 201 238 279 333
#     4  11  22  41  56  83 117 154 190 239 285 343
#     4  12  25  36  53  83 122 150 197 239 276 340
#     4  11  22  38  55  86 121 161 199 228 275 340
#     4  12  24  34  59  82 125 163 194 240 288 335
#     4  11  23  38  67  82 113 156 196 231 295 356
#
# _framework density 17.413287
#
# number of rings (size 3 to 8) (size 9 to 14) (size 15 to 20)
#    0.000    1.111    2.222    5.667    9.333    1.778 
#    0.000    0.000    0.000    0.667    0.000    0.000 
#    0.000    0.000    0.000    0.000    0.000    0.000 
#
# Total GULP energy -200885.120443 kJ/mol
# GULP energy per Si atom -5580.142235 kJ/mol
# Density = 1.737365 g / cm^3
# Si number density = 17.413287 Si / 1000 Ang^3
#
#
#
# Elastic Constant Matrix: (Units=GPa)
#
#
# Indices 1 2 3 4 5 6 
#
# 1 152.4432 67.3040 51.7944 0.0000 0.0000 0.0000
# 2 67.3040 117.8993 56.7410 0.0000 0.0000 0.0000
# 3 51.7944 56.7410 114.5322 0.0000 0.0000 0.0000
# 4 0.0000 0.0000 0.0000 36.8030 0.0000 0.0000
# 5 0.0000 0.0000 0.0000 0.0000 34.4662 0.0000
# 6 0.0000 0.0000 0.0000 0.0000 0.0000 16.4043
#
#
#
# Elastic Compliance Matrix: (Units=1/GPa)
#
#
# Indices 1 2 3 4 5 6 
#
# 1 0.009115 -0.004228 -0.002028 0.000000 0.000000 0.000000
# 2 -0.004228 0.013098 -0.004577 0.000000 0.000000 0.000000
# 3 -0.002028 -0.004577 0.011916 0.000000 0.000000 0.000000
# 4 0.000000 0.000000 0.000000 0.027172 0.000000 0.000000
# 5 0.000000 0.000000 0.000000 0.000000 0.029014 0.000000
# 6 0.000000 0.000000 0.000000 0.000000 0.000000 0.060960
#
#
# Mechanical properties :
#
#
# Convention : Reuss Voigt Hill
#
# Bulk Modulus (GPa) = 80.23072 81.83929 81.03501
# Shear Modulus (GPa) = 28.23360 31.47037 29.85198
#
# Velocity S-wave (km/s) = 4.03101 4.25580 4.14493
# Velocity P-wave (km/s) = 8.23649 8.44093 8.33934
#
# Compressibility (1/GPa) = 0.01246405
#
# Stress axis : x y z
#
# Youngs Moduli (GPa) = 109.70573 76.34727 83.92275
#
# Poissons Ratio (x) = 0.32277 0.17017
# Poissons Ratio (y) = 0.46380 0.38412
# Poissons Ratio (z) = 0.22245 0.34945
#
# Static dielectric constant tensor:
#      x y z
#    x 1.594470 0.000000 0.000000 
#    y 0.000000 1.593900 0.000000 
#    z 0.000000 0.000000 1.602110 
# 
# From -- ./inp_files/29268.got.cif
#   From: 2010.05.17/outbox.cif.g08.bks.cpg/sg74_15_cif.got.tgz:29268.got - 2010.06.03 17:57:02.
