data_PCOD9539507
_publ_section_title
;
Structure prediction by ZEFSAII (Michael W. Deem and Ramdas Pophale) SiO2 
 PCOD9539507
Probable space group: I M M A
;
_chemical_formula_sum "Si O2"
_cell_formula_units_Z 80
_cell_length_a 25.906973
_cell_length_b 14.259779
_cell_length_c 9.684686
_cell_angle_alpha 90.000000
_cell_angle_beta 90.000000
_cell_angle_gamma 90.000000
_cell_volume 3577.791367
_symmetry_space_group_name_H-M "I M M A"
_symmetry_group_IT_number 74
_symmetry_cell_setting 'orthorhombic'
loop_
_space_group_symop_operation_xyz
x,y,z
-x,1/2-y,z
x,-y,-z
-x,1/2+y,-z
-x,-y,-z
x,1/2+y,-z
-x,y,z
x,1/2-y,z
1/2+x,1/2+y,1/2+z
1/2-x,-y,1/2+z
1/2+x,1/2-y,1/2-z
1/2-x,y,1/2-z
1/2-x,1/2-y,1/2-z
1/2+x,y,1/2-z
1/2-x,1/2+y,1/2+z
1/2+x,-y,1/2+z
loop_
_atom_site_type_symbol
_atom_site_label
_atom_site_fract_x
_atom_site_fract_y
_atom_site_fract_z
Si Si1 0.092804 0.360923 0.811265
Si Si2 0.800210 0.636620 0.337528
Si Si3 0.738484 0.863841 0.594735
Si Si4 0.442045 0.973614 0.846017
Si Si5 0.378801 0.637903 0.617764
O O1 0.085969 0.250000 0.788486
O O2 0.148040 0.390263 0.742374
O O3 0.054490 0.427997 0.733124
O O4 0.090668 0.377681 0.975172
O O5 0.803117 0.750000 0.340508
O O6 0.750000 0.611100 0.250000
O O7 0.783546 0.605425 0.490676
O O8 0.737827 0.750000 0.583631
O O9 0.750000 0.890250 0.750000
O O10 0.679212 0.893531 0.576003
O O11 0.500000 0.931908 0.857692
O O12 0.404631 0.910574 0.750287
O O13 0.423175 0.000000 0.000000
O O14 0.376463 0.750000 0.643788
#
# Coordination Sequence:
#
# PCOD9539507 Si02
#       5
#    16  16  16  16  16
#     4  10  21  39  68  98 125 165 214 264 321 389
#     4   9  15  29  55  89 128 164 197 241 303 370
#     4   9  17  29  53  91 129 165 201 243 302 372
#     4  11  27  47  64  88 126 168 216 278 335 386
#     4  10  21  40  67  97 127 165 215 265 320 387
#
# _framework density 22.360164999999999
#
# number of rings (size 3 to 8) (size 9 to 14) (size 15 to 20)
#    0.000    2.200    2.000    0.600    2.800    3.200 
#    0.000    5.000    0.000    0.000    0.000    0.000 
#    0.000    0.000    0.000    0.000    0.000    0.000 
#
# Total GULP energy -223208.902447 kJ/mol
# GULP energy per Si atom -5580.222561 kJ/mol
# Density = 2.230927 g / cm^3
# Si number density = 22.360165 Si / 1000 Ang^3
#
#
#
# Elastic Constant Matrix: (Units=GPa)
#
#
# Indices 1 2 3 4 5 6 
#
# 1 76.9619 25.8623 40.2454 0.0000 0.0000 0.0000
# 2 25.8623 89.5948 40.7489 0.0000 0.0000 0.0000
# 3 40.2454 40.7489 152.1900 0.0000 0.0000 0.0000
# 4 0.0000 0.0000 0.0000 13.0005 0.0000 0.0000
# 5 0.0000 0.0000 0.0000 0.0000 -40.0652 0.0000
# 6 0.0000 0.0000 0.0000 0.0000 0.0000 26.4841
#
#
#
# Elastic Compliance Matrix: (Units=1/GPa)
#
#
# Indices 1 2 3 4 5 6 
#
# 1 0.015766 -0.003023 -0.003360 0.000000 0.000000 0.000000
# 2 -0.003023 0.013289 -0.002759 0.000000 0.000000 0.000000
# 3 -0.003360 -0.002759 0.008198 0.000000 0.000000 0.000000
# 4 0.000000 0.000000 0.000000 0.076920 0.000000 0.000000
# 5 0.000000 0.000000 0.000000 0.000000 -0.024959 0.000000
# 6 0.000000 0.000000 0.000000 0.000000 0.000000 0.037759
#
#
# Mechanical properties :
#
#
# Convention : Reuss Voigt Hill
#
# Bulk Modulus (GPa) = 52.71532 59.16220 55.93876
# Shear Modulus (GPa) = 32.98628 14.00987 23.49807
#
# Velocity S-wave (km/s) = 3.84503 2.50582 3.24526
# Velocity P-wave (km/s) = 6.58324 5.90664 6.25410
#
# Compressibility (1/GPa) = 0.01896982
#
# Stress axis : x y z
#
# Youngs Moduli (GPa) = 63.42665 75.25226 121.98326
#
# Poissons Ratio (x) = 0.22748 0.40985
# Poissons Ratio (y) = 0.19174 0.33651
# Poissons Ratio (z) = 0.21310 0.20759
#
# Static dielectric constant tensor:
#      x y z
#    x 1.855320 0.000000 0.000000 
#    y 0.000000 1.847810 0.000000 
#    z 0.000000 0.000000 1.894110 
# 
# From -- ./inp_files/14904.got.cif
#   From: 2010.05.17/outbox.cif.g08.bks.cpg/sg74_8_cif.got.tgz:14904.got - 2010.06.03 17:57:02.
