data_PCOD9539700
_publ_section_title
;
Structure prediction by ZEFSAII (Michael W. Deem and Ramdas Pophale) SiO2 
 PCOD9539700
Probable space group: I M M A
;
_chemical_formula_sum "Si O2"
_cell_formula_units_Z 96
_cell_length_a 19.696003
_cell_length_b 14.755663
_cell_length_c 15.113316
_cell_angle_alpha 90.000000
_cell_angle_beta 90.000000
_cell_angle_gamma 90.000000
_cell_volume 4392.346496
_symmetry_space_group_name_H-M "I M M A"
_symmetry_group_IT_number 74
_symmetry_cell_setting 'orthorhombic'
loop_
_space_group_symop_operation_xyz
x,y,z
-x,1/2-y,z
x,-y,-z
-x,1/2+y,-z
-x,-y,-z
x,1/2+y,-z
-x,y,z
x,1/2-y,z
1/2+x,1/2+y,1/2+z
1/2-x,-y,1/2+z
1/2+x,1/2-y,1/2-z
1/2-x,y,1/2-z
1/2-x,1/2-y,1/2-z
1/2+x,y,1/2-z
1/2-x,1/2+y,1/2+z
1/2+x,-y,1/2+z
loop_
_atom_site_type_symbol
_atom_site_label
_atom_site_fract_x
_atom_site_fract_y
_atom_site_fract_z
Si Si1 0.928556 0.355333 0.336207
Si Si2 0.169815 0.394154 0.484843
Si Si3 0.822676 0.553753 0.210491
Si Si4 0.645109 0.350673 0.335447
Si Si5 0.821254 0.392593 0.982274
Si Si6 0.419808 0.146068 0.846866
O O1 0.932602 0.250000 0.360317
O O2 0.862267 0.385913 0.388204
O O3 0.917750 0.359095 0.231361
O O4 0.000000 0.399883 0.362745
O O5 0.177086 0.500000 0.500000
O O6 0.245222 0.356076 0.498015
O O7 0.116847 0.359074 0.557705
O O8 0.750000 0.580960 0.250000
O O9 0.817227 0.446161 0.186008
O O10 0.836639 0.611525 0.121394
O O11 0.880718 0.577404 0.281555
O O12 0.675662 0.250000 0.315508
O O13 0.632019 0.352781 0.440414
O O14 0.821781 0.500000 0.000000
O O15 0.500000 0.127047 0.853996
O O16 0.411855 0.250000 0.814703
#
# Coordination Sequence:
#
# PCOD9539700 Si02
#       6
#    16  16  16  16  16  16
#     4  10  22  38  55  83 124 165 206 255 315 382
#     4  11  21  36  60  90 127 167 209 261 321 384
#     4  11  22  43  66  92 131 170 215 268 323 381
#     4  10  23  39  63  95 127 166 213 266 321 383
#     4   9  21  39  59  90 128 166 210 263 320 376
#     4  11  25  43  64  94 130 172 222 270 321 386
#
# _framework density 21.856199
#
# number of rings (size 3 to 8) (size 9 to 14) (size 15 to 20)
#    0.000    1.667    1.667    2.000    4.667    7.333 
#    0.000    0.833    0.000    5.000    0.000    0.000 
#    0.000    0.000    0.000    0.000    0.000    0.000 
#
# Total GULP energy -267618.527032 kJ/mol
# GULP energy per Si atom -5575.385980 kJ/mol
# Density = 2.180645 g / cm^3
# Si number density = 21.856199 Si / 1000 Ang^3
#
#
#
# Elastic Constant Matrix: (Units=GPa)
#
#
# Indices 1 2 3 4 5 6 
#
# 1 41.4262 4.8756 23.1302 0.0000 0.0000 0.0000
# 2 4.8756 95.5791 17.7471 0.0000 0.0000 0.0000
# 3 23.1302 17.7471 123.5810 0.0000 0.0000 0.0000
# 4 0.0000 0.0000 0.0000 28.6375 0.0000 0.0000
# 5 0.0000 0.0000 0.0000 0.0000 36.7728 0.0000
# 6 0.0000 0.0000 0.0000 0.0000 0.0000 5.8943
#
#
#
# Elastic Compliance Matrix: (Units=1/GPa)
#
#
# Indices 1 2 3 4 5 6 
#
# 1 0.026975 -0.000451 -0.004984 0.000000 0.000000 0.000000
# 2 -0.000451 0.010757 -0.001460 0.000000 0.000000 0.000000
# 3 -0.004984 -0.001460 0.009234 0.000000 0.000000 0.000000
# 4 0.000000 0.000000 0.000000 0.034919 0.000000 0.000000
# 5 0.000000 0.000000 0.000000 0.000000 0.027194 0.000000
# 6 0.000000 0.000000 0.000000 0.000000 0.000000 0.169656
#
#
# Mechanical properties :
#
#
# Convention : Reuss Voigt Hill
#
# Bulk Modulus (GPa) = 30.14220 39.12136 34.63178
# Shear Modulus (GPa) = 16.46985 28.58314 22.52649
#
# Velocity S-wave (km/s) = 2.74807 3.62025 3.21389
# Velocity P-wave (km/s) = 4.88777 5.95090 5.44534
#
# Compressibility (1/GPa) = 0.03317608
#
# Stress axis : x y z
#
# Youngs Moduli (GPa) = 37.07108 92.96540 108.29022
#
# Poissons Ratio (x) = 0.04189 0.53973
# Poissons Ratio (y) = 0.01670 0.15815
# Poissons Ratio (z) = 0.18477 0.13577
#
# Static dielectric constant tensor:
#      x y z
#    x 1.836040 0.000000 0.000000 
#    y 0.000000 1.851870 0.000000 
#    z 0.000000 0.000000 1.815360 
# 
# From -- ./inp_files/35300.got.cif
#   From: 2010.05.17/outbox.cif.g08.bks.cpg/sg74_18_cif.got.tgz:35300.got - 2010.06.03 17:57:02.
