data_PCOD9539275
_publ_section_title
;
Structure prediction by ZEFSAII (Michael W. Deem and Ramdas Pophale) SiO2 
 PCOD9539275
Probable space group: I M M A
;
_chemical_formula_sum "Si O2"
_cell_formula_units_Z 96
_cell_length_a 8.192090
_cell_length_b 21.748012
_cell_length_c 24.753728
_cell_angle_alpha 90.000000
_cell_angle_beta 90.000000
_cell_angle_gamma 90.000000
_cell_volume 4410.165559
_symmetry_space_group_name_H-M "I M M A"
_symmetry_group_IT_number 74
_symmetry_cell_setting 'orthorhombic'
loop_
_space_group_symop_operation_xyz
x,y,z
-x,1/2-y,z
x,-y,-z
-x,1/2+y,-z
-x,-y,-z
x,1/2+y,-z
-x,y,z
x,1/2-y,z
1/2+x,1/2+y,1/2+z
1/2-x,-y,1/2+z
1/2+x,1/2-y,1/2-z
1/2-x,y,1/2-z
1/2-x,1/2-y,1/2-z
1/2+x,y,1/2-z
1/2-x,1/2+y,1/2+z
1/2+x,-y,1/2+z
loop_
_atom_site_type_symbol
_atom_site_label
_atom_site_fract_x
_atom_site_fract_y
_atom_site_fract_z
Si Si1 0.190130 0.154011 0.191041
Si Si2 0.812657 0.676987 0.310220
Si Si3 0.306166 0.816829 0.925587
Si Si4 0.187656 0.915684 0.107158
Si Si5 0.194591 0.485686 0.307594
Si Si6 0.810189 0.068998 0.493624
O O1 0.250000 0.175029 0.250000
O O2 0.280969 0.179287 0.138652
O O3 0.220133 0.080532 0.189556
O O4 0.000000 0.167800 0.185741
O O5 0.808530 0.750000 0.318736
O O6 0.750000 0.665201 0.250000
O O7 0.705100 0.641916 0.353352
O O8 0.000000 0.655223 0.315186
O O9 0.500000 0.816913 0.937015
O O10 0.240461 0.750000 0.944238
O O11 0.238688 0.879116 0.953553
O O12 0.294116 0.905329 0.053999
O O13 0.000000 0.925541 0.091847
O O14 0.252497 0.973016 0.142180
O O15 0.250000 0.513915 0.250000
O O16 0.000000 0.477335 0.307497
O O17 0.000000 0.060300 0.477293
O O18 0.738024 0.000000 0.500000
#
# Coordination Sequence:
#
# PCOD9539275 Si02
#       6
#    16  16  16  16  16  16
#     4  11  22  38  62  92 125 159 197 241 295 357
#     4  10  21  38  59  83 115 155 199 248 303 362
#     4  10  22  41  64  90 122 160 202 250 305 364
#     4  12  24  37  57  86 119 155 198 247 300 361
#     4  11  21  36  58  86 122 159 199 247 300 358
#     4  10  22  41  64  88 117 158 205 253 306 363
#
# _framework density 21.767890999999999
#
# number of rings (size 3 to 8) (size 9 to 14) (size 15 to 20)
#    0.000    1.333    0.000    7.500    0.000    4.667 
#    0.000    1.667    0.000    0.000    0.000    0.000 
#    0.000    0.000    0.000    0.000    0.000    0.000 
#
# Total GULP energy -268320.103050 kJ/mol
# GULP energy per Si atom -5590.002147 kJ/mol
# Density = 2.171835 g / cm^3
# Si number density = 21.767891 Si / 1000 Ang^3
#
#
#
# Elastic Constant Matrix: (Units=GPa)
#
#
# Indices 1 2 3 4 5 6 
#
# 1 49.8231 1.2808 -20.3788 0.0000 0.0000 0.0000
# 2 1.2808 118.2527 47.7660 0.0000 0.0000 0.0000
# 3 -20.3788 47.7660 91.7378 0.0000 0.0000 0.0000
# 4 0.0000 0.0000 0.0000 -2.2380 0.0000 0.0000
# 5 0.0000 0.0000 0.0000 0.0000 24.5171 0.0000
# 6 0.0000 0.0000 0.0000 0.0000 0.0000 7.0878
#
#
#
# Elastic Compliance Matrix: (Units=1/GPa)
#
#
# Indices 1 2 3 4 5 6 
#
# 1 0.022841 -0.002909 0.006588 0.000000 0.000000 0.000000
# 2 -0.002909 0.011079 -0.006415 0.000000 0.000000 0.000000
# 3 0.006588 -0.006415 0.015704 0.000000 0.000000 0.000000
# 4 0.000000 0.000000 0.000000 -0.446834 0.000000 0.000000
# 5 0.000000 0.000000 0.000000 0.000000 0.040788 0.000000
# 6 0.000000 0.000000 0.000000 0.000000 0.000000 0.141087
#
#
# Mechanical properties :
#
#
# Convention : Reuss Voigt Hill
#
# Bulk Modulus (GPa) = 22.64817 35.23886 28.94352
# Shear Modulus (GPa) = -25.62162 21.28309 -2.16927
#
# Velocity S-wave (km/s) = -3.43452 3.13026 -0.99935
# Velocity P-wave (km/s) = 2.30237 5.41187 3.46319
#
# Compressibility (1/GPa) = 0.04415367
#
# Stress axis : x y z
#
# Youngs Moduli (GPa) = 43.78175 90.26000 63.67719
#
# Poissons Ratio (x) = 0.26253 -0.41952
# Poissons Ratio (y) = 0.12734 0.40848
# Poissons Ratio (z) = -0.28845 0.57900
#
# Static dielectric constant tensor:
#      x y z
#    x 1.777660 0.000000 0.000000 
#    y 0.000000 1.842360 0.000000 
#    z 0.000000 0.000000 1.771110 
# 
# From -- ./inp_files/57277.got.cif
#   From: 2010.05.17/outbox.cif.g08.bks.cpg/sg74_29_cif.got.tgz:57277.got - 2010.06.03 17:57:02.
