data_PCOD9539683
_publ_section_title
;
Structure prediction by ZEFSAII (Michael W. Deem and Ramdas Pophale) SiO2 
 PCOD9539683
Probable space group: I M M A
;
_chemical_formula_sum "Si O2"
_cell_formula_units_Z 72
_cell_length_a 19.049798
_cell_length_b 22.324800
_cell_length_c 8.741434
_cell_angle_alpha 90.000000
_cell_angle_beta 90.000000
_cell_angle_gamma 90.000000
_cell_volume 3717.582667
_symmetry_space_group_name_H-M "I M M A"
_symmetry_group_IT_number 74
_symmetry_cell_setting 'orthorhombic'
loop_
_space_group_symop_operation_xyz
x,y,z
-x,1/2-y,z
x,-y,-z
-x,1/2+y,-z
-x,-y,-z
x,1/2+y,-z
-x,y,z
x,1/2-y,z
1/2+x,1/2+y,1/2+z
1/2-x,-y,1/2+z
1/2+x,1/2-y,1/2-z
1/2-x,y,1/2-z
1/2-x,1/2-y,1/2-z
1/2+x,y,1/2-z
1/2-x,1/2+y,1/2+z
1/2+x,-y,1/2+z
loop_
_atom_site_type_symbol
_atom_site_label
_atom_site_fract_x
_atom_site_fract_y
_atom_site_fract_z
Si Si1 0.639520 0.250000 0.805151
Si Si2 0.358232 0.059055 0.094299
Si Si3 0.327246 0.976939 0.329651
Si Si4 0.721898 0.750000 0.513502
Si Si5 0.250000 0.149013 0.250000
Si Si6 0.078947 0.619638 0.309374
O O1 0.672594 0.250000 0.634510
O O2 0.595671 0.189507 0.820404
O O3 0.700511 0.250000 0.935196
O O4 0.300283 0.106393 0.149687
O O5 0.378993 0.025717 0.249560
O O6 0.410337 0.091519 0.978890
O O7 0.334384 0.000000 0.000000
O O8 0.250000 0.976310 0.250000
O O9 0.363670 0.913305 0.297908
O O10 0.319814 0.000000 0.500000
O O11 0.713831 0.692783 0.625533
O O12 0.000000 0.608954 0.256072
#
# Coordination Sequence:
#
# PCOD9539683 Si02
#       6
#     8  16  16   8   8  16
#     4  11  23  40  63  93 119 172 212 275 311 377
#     4  10  22  37  63  96 129 166 204 258 317 382
#     4  11  24  39  66 100 129 164 211 269 325 379
#     4  10  24  36  67  93 129 157 219 272 320 365
#     4  11  20  40  60 100 130 157 200 268 326 371
#     4  11  25  44  64  89 130 175 215 259 320 391
#
# _framework density 19.367424
#
# number of rings (size 3 to 8) (size 9 to 14) (size 15 to 20)
#    0.000    1.333    3.333    2.333    6.222    4.444 
#    0.000    0.000    0.000    0.000    0.000    0.000 
#    0.000    0.000    0.000    0.000    0.000    0.000 
#
# Total GULP energy -200553.363638 kJ/mol
# GULP energy per Si atom -5570.926768 kJ/mol
# Density = 1.932334 g / cm^3
# Si number density = 19.367424 Si / 1000 Ang^3
#
#
#
# Elastic Constant Matrix: (Units=GPa)
#
#
# Indices 1 2 3 4 5 6 
#
# 1 70.5534 34.1582 35.2101 0.0000 0.0000 0.0000
# 2 34.1582 148.2308 38.7894 0.0000 0.0000 0.0000
# 3 35.2101 38.7894 117.1330 0.0000 0.0000 0.0000
# 4 0.0000 0.0000 0.0000 18.8742 0.0000 0.0000
# 5 0.0000 0.0000 0.0000 0.0000 16.4142 0.0000
# 6 0.0000 0.0000 0.0000 0.0000 0.0000 -2.2658
#
#
#
# Elastic Compliance Matrix: (Units=1/GPa)
#
#
# Indices 1 2 3 4 5 6 
#
# 1 0.017784 -0.002955 -0.004367 0.000000 0.000000 0.000000
# 2 -0.002955 0.007877 -0.001720 0.000000 0.000000 0.000000
# 3 -0.004367 -0.001720 0.010420 0.000000 0.000000 0.000000
# 4 0.000000 0.000000 0.000000 0.052982 0.000000 0.000000
# 5 0.000000 0.000000 0.000000 0.000000 0.060923 0.000000
# 6 0.000000 0.000000 0.000000 0.000000 0.000000 -0.441341
#
#
# Mechanical properties :
#
#
# Convention : Reuss Voigt Hill
#
# Bulk Modulus (GPa) = 55.56924 61.35917 58.46421
# Shear Modulus (GPa) = -18.70761 21.78850 1.54044
#
# Velocity S-wave (km/s) = -3.11132 3.35775 0.89281
# Velocity P-wave (km/s) = 3.98087 6.83982 5.59600
#
# Compressibility (1/GPa) = 0.01799557
#
# Stress axis : x y z
#
# Youngs Moduli (GPa) = 56.23063 126.94501 95.97148
#
# Poissons Ratio (x) = 0.37516 0.41912
# Poissons Ratio (y) = 0.16618 0.16510
# Poissons Ratio (z) = 0.24557 0.21838
#
# Static dielectric constant tensor:
#      x y z
#    x 1.655410 0.000000 0.000000 
#    y 0.000000 1.723660 0.000000 
#    z 0.000000 0.000000 1.819110 
# 
# From -- ./inp_files/10714.got.cif
#   From: 2010.05.17/outbox.cif.g08.bks.cpg/sg74_6_cif.got.tgz:10714.got - 2010.06.03 17:57:02.
