data_PCOD9539657
_publ_section_title
;
Structure prediction by ZEFSAII (Michael W. Deem and Ramdas Pophale) SiO2 
 PCOD9539657
Probable space group: I M M A
;
_chemical_formula_sum "Si O2"
_cell_formula_units_Z 92
_cell_length_a 29.072768
_cell_length_b 7.632276
_cell_length_c 24.165655
_cell_angle_alpha 90.000000
_cell_angle_beta 90.000000
_cell_angle_gamma 90.000000
_cell_volume 5362.150765
_symmetry_space_group_name_H-M "I M M A"
_symmetry_group_IT_number 74
_symmetry_cell_setting 'orthorhombic'
loop_
_space_group_symop_operation_xyz
x,y,z
-x,1/2-y,z
x,-y,-z
-x,1/2+y,-z
-x,-y,-z
x,1/2+y,-z
-x,y,z
x,1/2-y,z
1/2+x,1/2+y,1/2+z
1/2-x,-y,1/2+z
1/2+x,1/2-y,1/2-z
1/2-x,y,1/2-z
1/2-x,1/2-y,1/2-z
1/2+x,y,1/2-z
1/2-x,1/2+y,1/2+z
1/2+x,-y,1/2+z
loop_
_atom_site_type_symbol
_atom_site_label
_atom_site_fract_x
_atom_site_fract_y
_atom_site_fract_z
Si Si1 0.176549 0.545793 0.935901
Si Si2 0.000000 0.542242 0.064531
Si Si3 0.000000 0.750000 0.287319
Si Si4 0.909609 0.454188 0.130803
Si Si5 0.073758 0.955877 0.744365
Si Si6 0.735284 0.539648 0.335924
Si Si7 0.676380 0.037173 0.769102
O O1 0.167042 0.750000 0.936869
O O2 0.133010 0.463652 0.902937
O O3 0.220352 0.513066 0.897055
O O4 0.181369 0.500000 0.000000
O O5 0.954598 0.468461 0.093246
O O6 0.000000 0.750000 0.072597
O O7 0.000000 0.500000 0.000000
O O8 0.960027 0.593248 0.284356
O O9 0.899248 0.250000 0.141212
O O10 0.921272 0.522814 0.191729
O O11 0.058692 0.750000 0.743749
O O12 0.125765 0.965262 0.721602
O O13 0.735452 0.750000 0.333558
O O14 0.697071 0.481240 0.290770
O O15 0.784964 0.482221 0.313545
O O16 0.674036 0.250000 0.769009
#
# Coordination Sequence:
#
# PCOD9539657 Si02
#       7
#    16   8   4  16  16  16  16
#     4  11  22  35  50  71  99 134 174 219 270 321
#     4  12  25  36  50  63  80 117 165 221 278 317
#     4  12  24  36  52  74 110 142 176 222 278 328
#     4  10  22  37  50  67  91 122 174 230 268 315
#     4  11  22  36  55  79 104 136 178 223 269 325
#     4   9  18  32  54  78 104 135 171 215 263 319
#     4   9  17  33  55  80 105 133 172 217 264 321
#
# _framework density 17.157295000000001
#
# number of rings (size 3 to 8) (size 9 to 14) (size 15 to 20)
#    0.000    1.739    2.609    3.652    2.435    4.870 
#    0.000    1.739    0.000    0.000    0.000    0.000 
#    0.000    0.000    0.000    0.783    3.826    1.043 
#
# Total GULP energy -256116.059812 kJ/mol
# GULP energy per Si atom -5567.740431 kJ/mol
# Density = 1.711824 g / cm^3
# Si number density = 17.157295 Si / 1000 Ang^3
#
#
#
# Elastic Constant Matrix: (Units=GPa)
#
#
# Indices 1 2 3 4 5 6 
#
# 1 97.9297 4.7118 17.0232 0.0000 0.0000 0.0000
# 2 4.7118 66.2011 -5.9622 0.0000 0.0000 0.0000
# 3 17.0232 -5.9622 33.4965 0.0000 0.0000 0.0000
# 4 0.0000 0.0000 0.0000 6.2868 0.0000 0.0000
# 5 0.0000 0.0000 0.0000 0.0000 75.4613 0.0000
# 6 0.0000 0.0000 0.0000 0.0000 0.0000 34.8824
#
#
#
# Elastic Compliance Matrix: (Units=1/GPa)
#
#
# Indices 1 2 3 4 5 6 
#
# 1 0.011318 -0.001345 -0.005991 0.000000 0.000000 0.000000
# 2 -0.001345 0.015511 0.003445 0.000000 0.000000 0.000000
# 3 -0.005991 0.003445 0.033512 0.000000 0.000000 0.000000
# 4 0.000000 0.000000 0.000000 0.159062 0.000000 0.000000
# 5 0.000000 0.000000 0.000000 0.000000 0.013252 0.000000
# 6 0.000000 0.000000 0.000000 0.000000 0.000000 0.028668
#
#
# Mechanical properties :
#
#
# Convention : Reuss Voigt Hill
#
# Bulk Modulus (GPa) = 19.02678 25.46366 22.24522
# Shear Modulus (GPa) = 17.44440 35.44976 26.44708
#
# Velocity S-wave (km/s) = 3.19209 4.55044 3.93039
# Velocity P-wave (km/s) = 4.96987 6.51783 5.79576
#
# Compressibility (1/GPa) = 0.05255749
#
# Stress axis : x y z
#
# Youngs Moduli (GPa) = 88.35828 64.46850 29.84028
#
# Poissons Ratio (x) = 0.08672 0.17878
# Poissons Ratio (y) = 0.11885 -0.10279
# Poissons Ratio (z) = 0.52936 -0.22207
#
# Static dielectric constant tensor:
#      x y z
#    x 1.582240 0.000000 0.000000 
#    y 0.000000 1.627070 0.000000 
#    z 0.000000 0.000000 1.626210 
# 
# From -- ./inp_files/55117.got.cif
#   From: 2010.05.17/outbox.cif.g08.bks.cpg/sg74_28_cif.got.tgz:55117.got - 2010.06.03 17:57:02.
