data_PCOD9539733
_publ_section_title
;
Structure prediction by ZEFSAII (Michael W. Deem and Ramdas Pophale) SiO2 
 PCOD9539733
Probable space group: I M M A
;
_chemical_formula_sum "Si O2"
_cell_formula_units_Z 116
_cell_length_a 28.218486
_cell_length_b 18.821343
_cell_length_c 11.752384
_cell_angle_alpha 90.000000
_cell_angle_beta 90.000000
_cell_angle_gamma 90.000000
_cell_volume 6241.806362
_symmetry_space_group_name_H-M "I M M A"
_symmetry_group_IT_number 74
_symmetry_cell_setting 'orthorhombic'
loop_
_space_group_symop_operation_xyz
x,y,z
-x,1/2-y,z
x,-y,-z
-x,1/2+y,-z
-x,-y,-z
x,1/2+y,-z
-x,y,z
x,1/2-y,z
1/2+x,1/2+y,1/2+z
1/2-x,-y,1/2+z
1/2+x,1/2-y,1/2-z
1/2-x,y,1/2-z
1/2-x,1/2-y,1/2-z
1/2+x,y,1/2-z
1/2-x,1/2+y,1/2+z
1/2+x,-y,1/2+z
loop_
_atom_site_type_symbol
_atom_site_label
_atom_site_fract_x
_atom_site_fract_y
_atom_site_fract_z
Si Si1 0.804605 0.829449 0.785780
Si Si2 0.500000 0.750000 0.062230
Si Si3 0.281305 0.460113 0.853948
Si Si4 0.831984 0.669516 0.226113
Si Si5 0.585216 0.859926 0.114490
Si Si6 0.310737 0.079308 0.509349
Si Si7 0.448775 0.491812 0.138343
Si Si8 0.358220 0.085207 0.107196
O O1 0.816996 0.750000 0.823473
O O2 0.750000 0.830487 0.750000
O O3 0.834226 0.851964 0.675737
O O4 0.812262 0.883859 0.887946
O O5 0.542683 0.811729 0.066995
O O6 0.250000 0.492020 0.750000
O O7 0.303106 0.387741 0.802131
O O8 0.243722 0.434124 0.948543
O O9 0.321087 0.518582 0.886961
O O10 0.812188 0.750000 0.218207
O O11 0.882096 0.674512 0.289712
O O12 0.833345 0.630746 0.103918
O O13 0.562052 0.928498 0.174117
O O14 0.621171 0.887444 0.013945
O O15 0.331840 0.000000 0.500000
O O16 0.500000 0.465662 0.174440
O O17 0.405339 0.442430 0.169756
O O18 0.449016 0.500000 0.000000
#
# Coordination Sequence:
#
# PCOD9539733 Si02
#       8
#    16   4  16  16  16  16  16  16
#     4  11  25  40  56  84 124 172 213 252 305 376
#     4  12  24  44  58 104 136 164 206 264 354 400
#     4  10  22  38  62  89 125 166 221 269 313 370
#     4  11  23  39  60  94 124 167 209 266 333 379
#     4  11  23  36  64  91 129 160 204 259 322 401
#     4  11  24  40  61  85 122 168 217 269 302 368
#     4   9  18  33  55  86 113 149 195 250 303 367
#     4  11  22  38  60  90 125 166 214 252 315 384
#
# _framework density 18.584363
#
# number of rings (size 3 to 8) (size 9 to 14) (size 15 to 20)
#    0.000    1.379    2.759    3.310    5.793    3.034 
#    0.000    0.000    0.000    0.000    1.793    2.414 
#    0.000    0.000    0.000    0.000    0.000    0.000 
#
# Total GULP energy -322881.978669 kJ/mol
# GULP energy per Si atom -5566.930667 kJ/mol
# Density = 1.854206 g / cm^3
# Si number density = 18.584363 Si / 1000 Ang^3
#
#
#
# Elastic Constant Matrix: (Units=GPa)
#
#
# Indices 1 2 3 4 5 6 
#
# 1 114.9055 32.2578 31.1562 0.0000 0.0000 0.0000
# 2 32.2578 125.1843 32.5471 0.0000 0.0000 0.0000
# 3 31.1562 32.5471 63.1677 0.0000 0.0000 0.0000
# 4 0.0000 0.0000 0.0000 -1.2307 0.0000 0.0000
# 5 0.0000 0.0000 0.0000 0.0000 12.4877 0.0000
# 6 0.0000 0.0000 0.0000 0.0000 0.0000 -4.6383
#
#
#
# Elastic Compliance Matrix: (Units=1/GPa)
#
#
# Indices 1 2 3 4 5 6 
#
# 1 0.010297 -0.001539 -0.004286 0.000000 0.000000 0.000000
# 2 -0.001539 0.009454 -0.004112 0.000000 0.000000 0.000000
# 3 -0.004286 -0.004112 0.020063 0.000000 0.000000 0.000000
# 4 0.000000 0.000000 0.000000 -0.812534 0.000000 0.000000
# 5 0.000000 0.000000 0.000000 0.000000 0.080079 0.000000
# 6 0.000000 0.000000 0.000000 0.000000 0.000000 -0.215595
#
#
# Mechanical properties :
#
#
# Convention : Reuss Voigt Hill
#
# Bulk Modulus (GPa) = 50.14884 55.01996 52.58440
# Shear Modulus (GPa) = -5.67076 15.14349 4.73636
#
# Velocity S-wave (km/s) = -1.74871 2.85766 1.59816
# Velocity P-wave (km/s) = 4.79225 6.36852 5.63577
#
# Compressibility (1/GPa) = 0.01994064
#
# Stress axis : x y z
#
# Youngs Moduli (GPa) = 97.11625 105.77633 49.84187
#
# Poissons Ratio (x) = 0.16280 0.21361
# Poissons Ratio (y) = 0.14947 0.20495
# Poissons Ratio (z) = 0.41622 0.43495
#
# Static dielectric constant tensor:
#      x y z
#    x 1.667040 0.000000 0.000000 
#    y 0.000000 1.707610 0.000000 
#    z 0.000000 0.000000 1.672670 
# 
# From -- ./inp_files/27384.got.cif
#   From: 2010.05.17/outbox.cif.g08.bks.cpg/sg74_14_cif.got.tgz:27384.got - 2010.06.03 17:57:02.
