data_PCOD9539284
_publ_section_title
;
Structure prediction by ZEFSAII (Michael W. Deem and Ramdas Pophale) SiO2 
 PCOD9539284
Probable space group: I M M A
;
_chemical_formula_sum "Si O2"
_cell_formula_units_Z 64
_cell_length_a 8.373938
_cell_length_b 12.277823
_cell_length_c 31.887551
_cell_angle_alpha 90.000000
_cell_angle_beta 90.000000
_cell_angle_gamma 90.000000
_cell_volume 3278.478013
_symmetry_space_group_name_H-M "I M M A"
_symmetry_group_IT_number 74
_symmetry_cell_setting 'orthorhombic'
loop_
_space_group_symop_operation_xyz
x,y,z
-x,1/2-y,z
x,-y,-z
-x,1/2+y,-z
-x,-y,-z
x,1/2+y,-z
-x,y,z
x,1/2-y,z
1/2+x,1/2+y,1/2+z
1/2-x,-y,1/2+z
1/2+x,1/2-y,1/2-z
1/2-x,y,1/2-z
1/2-x,1/2-y,1/2-z
1/2+x,y,1/2-z
1/2-x,1/2+y,1/2+z
1/2+x,-y,1/2+z
loop_
_atom_site_type_symbol
_atom_site_label
_atom_site_fract_x
_atom_site_fract_y
_atom_site_fract_z
Si Si1 0.689376 0.012648 0.294658
Si Si2 0.306863 0.375016 0.874308
Si Si3 0.808264 0.250000 0.317620
Si Si4 0.194339 0.250000 0.414948
Si Si5 0.804657 0.479203 0.452552
O O1 0.500000 0.009432 0.295367
O O2 0.750000 0.968634 0.250000
O O3 0.745675 0.137945 0.298429
O O4 0.754328 0.945320 0.334274
O O5 0.500000 0.374767 0.874689
O O6 0.251747 0.250000 0.871790
O O7 0.254220 0.433347 0.917491
O O8 0.758985 0.250000 0.366448
O O9 0.000000 0.250000 0.314955
O O10 0.247305 0.139898 0.437285
O O11 0.000000 0.250000 0.415651
O O12 0.751657 0.500000 0.500000
O O13 0.000000 0.480543 0.452816
#
# Coordination Sequence:
#
# PCOD9539284 Si02
#       5
#    16  16   8   8  16
#     4  12  25  41  62  88 118 155 198 244 299 360
#     4  10  21  38  59  86 120 158 200 250 301 351
#     4  11  20  38  63  91 126 156 192 243 297 351
#     4   9  16  28  52  83 119 156 189 237 294 341
#     4   9  17  29  51  86 122 155 195 245 297 345
#
# _framework density 19.521253999999999
#
# number of rings (size 3 to 8) (size 9 to 14) (size 15 to 20)
#    0.000    1.750    2.500    3.000    1.750    1.000 
#    0.000    0.000    0.000    0.750    0.000    0.000 
#    0.000    0.000    0.000    0.000    0.000    0.000 
#
# Total GULP energy -178762.927159 kJ/mol
# GULP energy per Si atom -5586.341474 kJ/mol
# Density = 1.947682 g / cm^3
# Si number density = 19.521254 Si / 1000 Ang^3
#
#
#
# Elastic Constant Matrix: (Units=GPa)
#
#
# Indices 1 2 3 4 5 6 
#
# 1 30.5841 20.2230 21.3458 0.0000 0.0000 0.0000
# 2 20.2230 153.3068 87.7868 0.0000 0.0000 0.0000
# 3 21.3458 87.7868 197.9378 0.0000 0.0000 0.0000
# 4 0.0000 0.0000 0.0000 -679.9203 0.0000 0.0000
# 5 0.0000 0.0000 0.0000 0.0000 19.3405 0.0000
# 6 0.0000 0.0000 0.0000 0.0000 0.0000 10.6080
#
#
#
# Elastic Compliance Matrix: (Units=1/GPa)
#
#
# Indices 1 2 3 4 5 6 
#
# 1 0.036670 -0.003449 -0.002425 0.000000 0.000000 0.000000
# 2 -0.003449 0.009068 -0.003650 0.000000 0.000000 0.000000
# 3 -0.002425 -0.003650 0.006932 0.000000 0.000000 0.000000
# 4 0.000000 0.000000 0.000000 -0.001471 0.000000 0.000000
# 5 0.000000 0.000000 0.000000 0.000000 0.051705 0.000000
# 6 0.000000 0.000000 0.000000 0.000000 0.000000 0.094269
#
#
# Mechanical properties :
#
#
# Convention : Reuss Voigt Hill
#
# Bulk Modulus (GPa) = 29.74157 71.17111 50.45634
# Shear Modulus (GPa) = 21.98511 -113.16284 -45.58886
#
# Velocity S-wave (km/s) = 3.35955 -7.62200 -4.83778
# Velocity P-wave (km/s) = 5.50612 6.39706 2.30273
#
# Compressibility (1/GPa) = 0.03362297
#
# Stress axis : x y z
#
# Youngs Moduli (GPa) = 27.27060 110.28205 144.25293
#
# Poissons Ratio (x) = 0.38031 0.34982
# Poissons Ratio (y) = 0.09404 0.52648
# Poissons Ratio (z) = 0.06613 0.40249
#
# Static dielectric constant tensor:
#      x y z
#    x 1.680400 0.000000 0.000000 
#    y 0.000000 1.682780 0.000000 
#    z 0.000000 0.000000 1.672820 
# 
# From -- ./inp_files/69770.got.cif
#   From: 2010.05.17/outbox.cif.g08.bks.cpg/sg74_35_cif.got.tgz:69770.got - 2010.06.03 17:57:02.
