data_PCOD9539367
_publ_section_title
;
Structure prediction by ZEFSAII (Michael W. Deem and Ramdas Pophale) SiO2 
 PCOD9539367
Probable space group: I M M A
;
_chemical_formula_sum "Si O2"
_cell_formula_units_Z 104
_cell_length_a 9.171675
_cell_length_b 21.514105
_cell_length_c 27.051928
_cell_angle_alpha 90.000000
_cell_angle_beta 90.000000
_cell_angle_gamma 90.000000
_cell_volume 5337.896685
_symmetry_space_group_name_H-M "I M M A"
_symmetry_group_IT_number 74
_symmetry_cell_setting 'orthorhombic'
loop_
_space_group_symop_operation_xyz
x,y,z
-x,1/2-y,z
x,-y,-z
-x,1/2+y,-z
-x,-y,-z
x,1/2+y,-z
-x,y,z
x,1/2-y,z
1/2+x,1/2+y,1/2+z
1/2-x,-y,1/2+z
1/2+x,1/2-y,1/2-z
1/2-x,y,1/2-z
1/2-x,1/2-y,1/2-z
1/2+x,y,1/2-z
1/2-x,1/2+y,1/2+z
1/2+x,-y,1/2+z
loop_
_atom_site_type_symbol
_atom_site_label
_atom_site_fract_x
_atom_site_fract_y
_atom_site_fract_z
Si Si1 0.500000 0.325366 0.283100
Si Si2 0.775636 0.114805 0.142972
Si Si3 0.160253 0.178247 0.045966
Si Si4 0.676844 0.869793 0.354830
Si Si5 0.171106 0.824135 0.448280
Si Si6 0.000000 0.678029 0.671106
Si Si7 0.678206 0.490178 0.804361
Si Si8 0.321718 0.250000 0.803925
O O1 0.500000 0.250000 0.285476
O O2 0.366184 0.353750 0.312880
O O3 0.500000 0.348773 0.226790
O O4 0.843453 0.128021 0.089804
O O5 0.634397 0.156439 0.140439
O O6 0.729259 0.046780 0.160379
O O7 0.177897 0.250000 0.065043
O O8 0.000000 0.177349 0.021426
O O9 0.280924 0.165729 0.004789
O O10 0.500000 0.869088 0.349909
O O11 0.728521 0.864040 0.411642
O O12 0.749245 0.928782 0.327842
O O13 0.755053 0.810271 0.330338
O O14 0.193399 0.750000 0.438740
O O15 0.000000 0.837430 0.440290
O O16 0.000000 0.750000 0.679036
O O17 0.500000 0.487037 0.801653
O O18 0.750000 0.499247 0.750000
O O19 0.500000 0.250000 0.803777
O O20 0.250000 0.250000 0.750000
#
# Coordination Sequence:
#
# PCOD9539367 Si02
#       8
#     8  16  16  16  16   8  16   8
#     4  11  22  38  60  88 123 167 217 279 338 396
#     4  12  24  39  62  89 131 173 223 272 332 390
#     4  10  21  38  62  93 130 173 221 273 332 395
#     4  12  25  43  70 100 134 172 218 270 329 397
#     4  10  21  39  67 100 134 169 211 269 334 396
#     4  11  22  36  58  90 123 163 217 277 338 394
#     4  12  27  46  67  93 130 179 228 271 328 401
#     4  12  24  42  68 102 142 174 214 270 329 388
#
# _framework density 19.483329999999999
#
# number of rings (size 3 to 8) (size 9 to 14) (size 15 to 20)
#    0.000    0.769    2.308    6.231    3.231    1.846 
#    0.000    0.769    0.000    3.692    0.000    0.000 
#    0.000    0.000    0.000    0.000    0.000    0.000 
#
# Total GULP energy -290224.574251 kJ/mol
# GULP energy per Si atom -5581.241813 kJ/mol
# Density = 1.943898 g / cm^3
# Si number density = 19.483330 Si / 1000 Ang^3
#
#
#
# Elastic Constant Matrix: (Units=GPa)
#
#
# Indices 1 2 3 4 5 6 
#
# 1 161.7313 44.9229 33.2608 0.0000 0.0000 0.0000
# 2 44.9229 101.7671 40.2234 0.0000 0.0000 0.0000
# 3 33.2608 40.2234 93.0748 0.0000 0.0000 0.0000
# 4 0.0000 0.0000 0.0000 23.6344 0.0000 0.0000
# 5 0.0000 0.0000 0.0000 0.0000 40.8510 0.0000
# 6 0.0000 0.0000 0.0000 0.0000 0.0000 22.4964
#
#
#
# Elastic Compliance Matrix: (Units=1/GPa)
#
#
# Indices 1 2 3 4 5 6 
#
# 1 0.007205 -0.002608 -0.001448 0.000000 0.000000 0.000000
# 2 -0.002608 0.012795 -0.004597 0.000000 0.000000 0.000000
# 3 -0.001448 -0.004597 0.013248 0.000000 0.000000 0.000000
# 4 0.000000 0.000000 0.000000 0.042311 0.000000 0.000000
# 5 0.000000 0.000000 0.000000 0.000000 0.024479 0.000000
# 6 0.000000 0.000000 0.000000 0.000000 0.000000 0.044452
#
#
# Mechanical properties :
#
#
# Convention : Reuss Voigt Hill
#
# Bulk Modulus (GPa) = 62.72892 65.93195 64.33044
# Shear Modulus (GPa) = 29.92025 33.27411 31.59718
#
# Velocity S-wave (km/s) = 3.92303 4.13707 4.03147
# Velocity P-wave (km/s) = 7.26542 7.53220 7.40001
#
# Compressibility (1/GPa) = 0.01594161
#
# Stress axis : x y z
#
# Youngs Moduli (GPa) = 138.78604 78.15609 75.48229
#
# Poissons Ratio (x) = 0.20387 0.10927
# Poissons Ratio (y) = 0.36202 0.34702
# Poissons Ratio (z) = 0.20090 0.35931
#
# Static dielectric constant tensor:
#      x y z
#    x 1.692310 0.000000 0.000000 
#    y 0.000000 1.678680 0.000000 
#    z 0.000000 0.000000 1.712460 
# 
# From -- ./inp_files/64557.got.cif
#   From: 2010.05.17/outbox.cif.g08.bks.cpg/sg74_33_cif.got.tgz:64557.got - 2010.06.03 17:57:02.
