data_PCOD9539754
_publ_section_title
;
Structure prediction by ZEFSAII (Michael W. Deem and Ramdas Pophale) SiO2 
 PCOD9539754
Probable space group: I M M A
;
_chemical_formula_sum "Si O2"
_cell_formula_units_Z 72
_cell_length_a 9.027686
_cell_length_b 22.919429
_cell_length_c 19.388359
_cell_angle_alpha 90.000000
_cell_angle_beta 90.000000
_cell_angle_gamma 90.000000
_cell_volume 4011.633889
_symmetry_space_group_name_H-M "I M M A"
_symmetry_group_IT_number 74
_symmetry_cell_setting 'orthorhombic'
loop_
_space_group_symop_operation_xyz
x,y,z
-x,1/2-y,z
x,-y,-z
-x,1/2+y,-z
-x,-y,-z
x,1/2+y,-z
-x,y,z
x,1/2-y,z
1/2+x,1/2+y,1/2+z
1/2-x,-y,1/2+z
1/2+x,1/2-y,1/2-z
1/2-x,y,1/2-z
1/2-x,1/2-y,1/2-z
1/2+x,y,1/2-z
1/2-x,1/2+y,1/2+z
1/2+x,-y,1/2+z
loop_
_atom_site_type_symbol
_atom_site_label
_atom_site_fract_x
_atom_site_fract_y
_atom_site_fract_z
Si Si1 0.000000 0.320450 0.163609
Si Si2 0.500000 0.819527 0.502240
Si Si3 0.000000 0.971957 0.703489
Si Si4 0.750000 0.613382 0.750000
Si Si5 0.500000 0.083847 0.700252
Si Si6 0.746268 0.129228 0.597325
Si Si7 0.000000 0.815395 0.315958
Si Si8 0.000000 0.543263 0.437400
O O1 0.855954 0.347484 0.201597
O O2 0.000000 0.250000 0.169045
O O3 0.000000 0.337319 0.082607
O O4 0.500000 0.750000 0.501020
O O5 0.641304 0.841941 0.459398
O O6 0.858620 0.929794 0.708545
O O7 0.000000 0.020164 0.764994
O O8 0.000000 0.008565 0.634078
O O9 0.643174 0.096053 0.652952
O O10 0.500000 0.133635 0.759168
O O11 0.853657 0.173975 0.637787
O O12 0.856215 0.083781 0.562153
O O13 0.000000 0.750000 0.286825
O O14 0.000000 0.500000 0.500000
#
# Coordination Sequence:
#
# PCOD9539754 Si02
#       8
#     8   8   8   8   8  16   8   8
#     4  10  22  43  65  92 120 147 189 244 306 354
#     4  10  22  40  62  83 118 158 192 240 292 359
#     4  11  21  38  61  87 121 154 198 237 299 347
#     4  10  23  38  66  92 115 150 192 244 290 370
#     4  11  21  38  60  86 120 162 196 251 298 335
#     4  10  22  39  58  84 120 156 204 240 299 346
#     4  11  22  35  58  88 120 159 209 249 291 342
#     4  11  24  38  59  84 119 160 193 255 292 354
#
# _framework density 17.947800000000001
#
# number of rings (size 3 to 8) (size 9 to 14) (size 15 to 20)
#    0.000    1.556    2.222    3.000    3.111    3.556 
#    0.000    1.111    0.000    6.667    0.000    0.000 
#    0.000    0.000    0.000    0.000    0.000    0.000 
#
# Total GULP energy -201069.642489 kJ/mol
# GULP energy per Si atom -5585.267847 kJ/mol
# Density = 1.790695 g / cm^3
# Si number density = 17.947800 Si / 1000 Ang^3
#
#
#
# Elastic Constant Matrix: (Units=GPa)
#
#
# Indices 1 2 3 4 5 6 
#
# 1 149.1098 55.4352 64.3405 0.0000 0.0000 0.0000
# 2 55.4352 106.8996 50.0200 0.0000 0.0000 0.0000
# 3 64.3405 50.0200 117.1293 0.0000 0.0000 0.0000
# 4 0.0000 0.0000 0.0000 36.7509 0.0000 0.0000
# 5 0.0000 0.0000 0.0000 0.0000 9.2650 0.0000
# 6 0.0000 0.0000 0.0000 0.0000 0.0000 4.7093
#
#
#
# Elastic Compliance Matrix: (Units=1/GPa)
#
#
# Indices 1 2 3 4 5 6 
#
# 1 0.009558 -0.003124 -0.003916 0.000000 0.000000 0.000000
# 2 -0.003124 0.012712 -0.003713 0.000000 0.000000 0.000000
# 3 -0.003916 -0.003713 0.012274 0.000000 0.000000 0.000000
# 4 0.000000 0.000000 0.000000 0.027210 0.000000 0.000000
# 5 0.000000 0.000000 0.000000 0.000000 0.107933 0.000000
# 6 0.000000 0.000000 0.000000 0.000000 0.000000 0.212345
#
#
# Mechanical properties :
#
#
# Convention : Reuss Voigt Hill
#
# Bulk Modulus (GPa) = 76.69611 79.19225 77.94418
# Shear Modulus (GPa) = 12.25843 23.70126 17.97984
#
# Velocity S-wave (km/s) = 2.61627 3.63790 3.16853
# Velocity P-wave (km/s) = 7.20778 7.86544 7.54378
#
# Compressibility (1/GPa) = 0.01303847
#
# Stress axis : x y z
#
# Youngs Moduli (GPa) = 104.62841 78.66765 81.47218
#
# Poissons Ratio (x) = 0.24575 0.31905
# Poissons Ratio (y) = 0.32685 0.30247
# Poissons Ratio (z) = 0.40973 0.29205
#
# Static dielectric constant tensor:
#      x y z
#    x 1.607450 0.000000 0.000000 
#    y 0.000000 1.681760 0.000000 
#    z 0.000000 0.000000 1.590790 
# 
# From -- ./inp_files/45873.got.cif
#   From: 2010.05.17/outbox.cif.g08.bks.cpg/sg74_23_cif.got.tgz:45873.got - 2010.06.03 17:57:02.
