data_PCOD9539338
_publ_section_title
;
Structure prediction by ZEFSAII (Michael W. Deem and Ramdas Pophale) SiO2 
 PCOD9539338
Probable space group: I M M A
;
_chemical_formula_sum "Si O2"
_cell_formula_units_Z 96
_cell_length_a 8.890132
_cell_length_b 26.757533
_cell_length_c 20.470798
_cell_angle_alpha 90.000000
_cell_angle_beta 90.000000
_cell_angle_gamma 90.000000
_cell_volume 4869.552494
_symmetry_space_group_name_H-M "I M M A"
_symmetry_group_IT_number 74
_symmetry_cell_setting 'orthorhombic'
loop_
_space_group_symop_operation_xyz
x,y,z
-x,1/2-y,z
x,-y,-z
-x,1/2+y,-z
-x,-y,-z
x,1/2+y,-z
-x,y,z
x,1/2-y,z
1/2+x,1/2+y,1/2+z
1/2-x,-y,1/2+z
1/2+x,1/2-y,1/2-z
1/2-x,y,1/2-z
1/2-x,1/2-y,1/2-z
1/2+x,y,1/2-z
1/2-x,1/2+y,1/2+z
1/2+x,-y,1/2+z
loop_
_atom_site_type_symbol
_atom_site_label
_atom_site_fract_x
_atom_site_fract_y
_atom_site_fract_z
Si Si1 0.678640 0.618992 0.320205
Si Si2 0.822787 0.689818 0.680841
Si Si3 0.179358 0.999488 0.179632
Si Si4 0.820946 0.849769 0.951123
Si Si5 0.179150 0.955298 0.550837
Si Si6 0.821231 0.193613 0.576119
O O1 0.500000 0.627036 0.318598
O O2 0.750000 0.631199 0.250000
O O3 0.704953 0.559896 0.331756
O O4 0.752201 0.652949 0.375416
O O5 0.805786 0.750000 0.674387
O O6 0.750000 0.675157 0.750000
O O7 0.742023 0.664050 0.620039
O O8 0.000000 0.678257 0.680386
O O9 0.250000 0.011954 0.250000
O O10 0.259425 0.028853 0.121567
O O11 0.000000 0.008506 0.179718
O O12 0.763375 0.904970 0.969417
O O13 0.000000 0.847540 0.951531
O O14 0.752182 0.813227 0.005238
O O15 0.000000 0.946657 0.552939
O O16 0.208929 0.000000 0.500000
O O17 0.793104 0.250000 0.600166
O O18 0.000000 0.186271 0.570702
#
# Coordination Sequence:
#
# PCOD9539338 Si02
#       6
#    16  16  16  16  16  16
#     4  10  21  38  62  90 121 157 196 241 292 349
#     4  10  21  39  63  90 121 156 195 240 290 346
#     4  10  21  38  61  89 120 154 194 239 289 346
#     4  12  25  40  61  88 119 155 196 243 293 349
#     4  11  24  41  62  87 117 154 195 241 293 349
#     4  11  24  41  61  86 118 156 198 245 295 348
#
# _framework density 19.714337
#
# number of rings (size 3 to 8) (size 9 to 14) (size 15 to 20)
#    0.000    1.333    0.000    5.500    0.000   11.333 
#    0.000    3.333    0.000    0.000    0.000    0.000 
#    0.000    0.000    0.000    0.000    0.000    0.000 
#
# Total GULP energy -268592.170545 kJ/mol
# GULP energy per Si atom -5595.670220 kJ/mol
# Density = 1.966947 g / cm^3
# Si number density = 19.714337 Si / 1000 Ang^3
#
#
#
# Elastic Constant Matrix: (Units=GPa)
#
#
# Indices 1 2 3 4 5 6 
#
# 1 81.0816 29.8139 10.7906 0.0000 0.0000 -0.0001
# 2 29.8139 33.2695 7.8738 0.0000 0.0000 -0.0001
# 3 10.7906 7.8738 57.2141 0.0000 0.0000 -0.0004
# 4 0.0000 0.0000 0.0000 35.0680 0.0000 -0.0001
# 5 0.0000 0.0000 0.0000 0.0000 37.8940 0.0000
# 6 -0.0001 -0.0001 -0.0004 -0.0001 0.0000 132.0226
#
#
#
# Elastic Compliance Matrix: (Units=1/GPa)
#
#
# Indices 1 2 3 4 5 6 
#
# 1 0.018480 -0.016265 -0.001247 0.000000 0.000000 0.000000
# 2 -0.016265 0.045386 -0.003178 0.000000 0.000000 0.000000
# 3 -0.001247 -0.003178 0.018151 0.000000 0.000000 0.000000
# 4 0.000000 0.000000 0.000000 0.028516 0.000000 0.000000
# 5 0.000000 0.000000 0.000000 0.000000 0.026389 0.000000
# 6 0.000000 0.000000 0.000000 0.000000 0.000000 0.007574
#
#
# Mechanical properties :
#
#
# Convention : Reuss Voigt Hill
#
# Bulk Modulus (GPa) = 24.60920 29.83575 27.22247
# Shear Modulus (GPa) = 25.07235 49.20271 37.13753
#
# Velocity S-wave (km/s) = 3.57008 5.00120 4.34497
# Velocity P-wave (km/s) = 5.43175 6.96536 6.24580
#
# Compressibility (1/GPa) = 0.04063521
#
# Stress axis : x y z
#
# Youngs Moduli (GPa) = 54.11245 22.03336 55.09403
#
# Poissons Ratio (x) = 0.35838 0.06870
# Poissons Ratio (y) = 0.88016 0.17511
# Poissons Ratio (z) = 0.06747 0.07003
#
# Static dielectric constant tensor:
#      x y z
#    x 1.648990 0.000000 0.000000 
#    y 0.000000 1.700730 0.000000 
#    z 0.000000 0.000000 1.664780 
# 
# From -- ./inp_files/49054.got.cif
#   From: 2010.05.17/outbox.cif.g08.bks.cpg/sg74_25_cif.got.tgz:49054.got - 2010.06.03 17:57:02.
