data_PCOD9539170
_publ_section_title
;
Structure prediction by ZEFSAII (Michael W. Deem and Ramdas Pophale) SiO2 
 PCOD9539170
Probable space group: I M M A
;
_chemical_formula_sum "Si O2"
_cell_formula_units_Z 96
_cell_length_a 14.417491
_cell_length_b 15.473750
_cell_length_c 19.317201
_cell_angle_alpha 90.000000
_cell_angle_beta 90.000000
_cell_angle_gamma 90.000000
_cell_volume 4309.525588
_symmetry_space_group_name_H-M "I M M A"
_symmetry_group_IT_number 74
_symmetry_cell_setting 'orthorhombic'
loop_
_space_group_symop_operation_xyz
x,y,z
-x,1/2-y,z
x,-y,-z
-x,1/2+y,-z
-x,-y,-z
x,1/2+y,-z
-x,y,z
x,1/2-y,z
1/2+x,1/2+y,1/2+z
1/2-x,-y,1/2+z
1/2+x,1/2-y,1/2-z
1/2-x,y,1/2-z
1/2-x,1/2-y,1/2-z
1/2+x,y,1/2-z
1/2-x,1/2+y,1/2+z
1/2+x,-y,1/2+z
loop_
_atom_site_type_symbol
_atom_site_label
_atom_site_fract_x
_atom_site_fract_y
_atom_site_fract_z
Si Si1 0.393516 0.983183 0.316754
Si Si2 0.718478 0.842985 0.670159
Si Si3 0.398608 0.394529 0.092520
Si Si4 0.601475 0.853329 0.444925
Si Si5 0.303960 0.149176 0.963152
Si Si6 0.394127 0.920676 0.166880
O O1 0.500000 0.010286 0.303190
O O2 0.394592 0.910879 0.375991
O O3 0.361272 0.940197 0.244687
O O4 0.338224 0.068563 0.339253
O O5 0.670369 0.750000 0.656249
O O6 0.750000 0.843889 0.750000
O O7 0.811800 0.846045 0.625477
O O8 0.500000 0.355235 0.103365
O O9 0.398398 0.486748 0.129467
O O10 0.376230 0.399968 0.011406
O O11 0.500000 0.870185 0.478387
O O12 0.605558 0.750000 0.430458
O O13 0.697999 0.875060 0.482447
O O14 0.316316 0.250000 0.977092
O O15 0.326495 0.133069 0.882617
O O16 0.500000 0.884825 0.168845
#
# Coordination Sequence:
#
# PCOD9539170 Si02
#       6
#    16  16  16  16  16  16
#     4  10  21  40  64  89 122 161 201 252 304 353
#     4  11  23  38  61  89 117 157 204 249 299 356
#     4  11  23  41  62  86 120 160 200 244 300 362
#     4   9  20  39  63  90 119 156 203 251 303 359
#     4  11  23  37  58  88 121 158 198 245 299 359
#     4  10  21  37  59  86 119 160 200 243 296 356
#
# _framework density 22.276233000000001
#
# number of rings (size 3 to 8) (size 9 to 14) (size 15 to 20)
#    0.000    1.667    1.667    2.500    0.000    4.667 
#    0.000    5.833    0.000    6.000    0.000    0.000 
#    0.000    0.000    0.000    0.000    0.000    0.000 
#
# Total GULP energy -268065.707769 kJ/mol
# GULP energy per Si atom -5584.702245 kJ/mol
# Density = 2.222553 g / cm^3
# Si number density = 22.276233 Si / 1000 Ang^3
#
#
#
# Elastic Constant Matrix: (Units=GPa)
#
#
# Indices 1 2 3 4 5 6 
#
# 1 119.0743 14.6801 19.5640 0.0000 0.0000 0.0000
# 2 14.6801 40.9513 3.4363 0.0000 0.0000 0.0000
# 3 19.5640 3.4363 47.4161 0.0000 0.0000 0.0000
# 4 0.0000 0.0000 0.0000 -16.2114 0.0000 0.0000
# 5 0.0000 0.0000 0.0000 0.0000 28.4419 0.0000
# 6 0.0000 0.0000 0.0000 0.0000 0.0000 -52.1543
#
#
#
# Elastic Compliance Matrix: (Units=1/GPa)
#
#
# Indices 1 2 3 4 5 6 
#
# 1 0.009374 -0.003054 -0.003646 0.000000 0.000000 0.000000
# 2 -0.003054 0.025564 -0.000592 0.000000 0.000000 0.000000
# 3 -0.003646 -0.000592 0.022637 0.000000 0.000000 0.000000
# 4 0.000000 0.000000 0.000000 -0.061685 0.000000 0.000000
# 5 0.000000 0.000000 0.000000 0.000000 0.035159 0.000000
# 6 0.000000 0.000000 0.000000 0.000000 0.000000 -0.019174
#
#
# Mechanical properties :
#
#
# Convention : Reuss Voigt Hill
#
# Bulk Modulus (GPa) = 23.26182 31.42247 27.34215
# Shear Modulus (GPa) = 122.57570 3.33267 62.95418
#
# Velocity S-wave (km/s) = 7.42595 1.22446 5.32185
# Velocity P-wave (km/s) = 9.16469 4.01691 7.07556
#
# Compressibility (1/GPa) = 0.04298890
#
# Stress axis : x y z
#
# Youngs Moduli (GPa) = 106.68088 39.11769 44.17497
#
# Poissons Ratio (x) = 0.11948 0.16107
# Poissons Ratio (y) = 0.32584 0.02617
# Poissons Ratio (z) = 0.38899 0.02317
#
# Static dielectric constant tensor:
#      x y z
#    x 1.874160 0.000000 0.000000 
#    y 0.000000 1.808440 0.000000 
#    z 0.000000 0.000000 1.859050 
# 
# From -- ./inp_files/51896.got.cif
#   From: 2010.05.17/outbox.cif.g08.bks.cpg/sg74_26_cif.got.tgz:51896.got - 2010.06.03 17:57:02.
