data_PCOD9539252
_publ_section_title
;
Structure prediction by ZEFSAII (Michael W. Deem and Ramdas Pophale) SiO2 
 PCOD9539252
Probable space group: I M M A
;
_chemical_formula_sum "Si O2"
_cell_formula_units_Z 80
_cell_length_a 18.353296
_cell_length_b 8.959418
_cell_length_c 27.408981
_cell_angle_alpha 90.000000
_cell_angle_beta 90.000000
_cell_angle_gamma 90.000000
_cell_volume 4506.991694
_symmetry_space_group_name_H-M "I M M A"
_symmetry_group_IT_number 74
_symmetry_cell_setting 'orthorhombic'
loop_
_space_group_symop_operation_xyz
x,y,z
-x,1/2-y,z
x,-y,-z
-x,1/2+y,-z
-x,-y,-z
x,1/2+y,-z
-x,y,z
x,1/2-y,z
1/2+x,1/2+y,1/2+z
1/2-x,-y,1/2+z
1/2+x,1/2-y,1/2-z
1/2-x,y,1/2-z
1/2-x,1/2-y,1/2-z
1/2+x,y,1/2-z
1/2-x,1/2+y,1/2+z
1/2+x,-y,1/2+z
loop_
_atom_site_type_symbol
_atom_site_label
_atom_site_fract_x
_atom_site_fract_y
_atom_site_fract_z
Si Si1 0.917614 0.926804 0.082537
Si Si2 0.270446 0.572655 0.550279
Si Si3 0.631998 0.574996 0.307180
Si Si4 0.287866 0.572108 0.148139
Si Si5 0.583845 0.072687 0.208659
O O1 0.904858 0.750000 0.072792
O O2 0.908056 0.946025 0.140985
O O3 0.000000 0.964805 0.068183
O O4 0.854522 0.022187 0.057845
O O5 0.244212 0.500000 0.500000
O O6 0.265232 0.750000 0.548697
O O7 0.227958 0.507195 0.596810
O O8 0.625290 0.750000 0.293722
O O9 0.716995 0.542512 0.317878
O O10 0.600686 0.476452 0.264037
O O11 0.290619 0.750000 0.140895
O O12 0.359461 0.511887 0.174175
O O13 0.500000 0.035664 0.197329
O O14 0.593777 0.250000 0.203708
#
# Coordination Sequence:
#
# PCOD9539252 Si02
#       5
#    16  16  16  16  16
#     4   9  18  33  52  76 109 146 183 222 262 307
#     4  11  22  37  57  79 104 135 174 220 269 320
#     4   9  18  33  53  77 106 143 183 218 255 305
#     4  10  21  38  58  79 104 137 179 222 264 313
#     4  11  23  35  50  78 113 144 176 216 261 311
#
# _framework density 17.750198999999999
#
# number of rings (size 3 to 8) (size 9 to 14) (size 15 to 20)
#    0.000    2.000    0.000    5.400    0.000    9.600 
#    0.000    0.000    0.000    0.600    0.000    0.000 
#    0.000    0.000    0.000    0.000    0.000    0.000 
#
# Total GULP energy -223498.137374 kJ/mol
# GULP energy per Si atom -5587.453434 kJ/mol
# Density = 1.770980 g / cm^3
# Si number density = 17.750199 Si / 1000 Ang^3
#
#
#
# Elastic Constant Matrix: (Units=GPa)
#
#
# Indices 1 2 3 4 5 6 
#
# 1 61.5093 32.8795 13.8527 0.0000 0.0000 0.0000
# 2 32.8795 68.5517 26.8366 0.0000 0.0000 0.0000
# 3 13.8527 26.8366 47.4423 0.0000 0.0000 0.0000
# 4 0.0000 0.0000 0.0000 31.8293 0.0000 0.0000
# 5 0.0000 0.0000 0.0000 0.0000 1.5679 0.0000
# 6 0.0000 0.0000 0.0000 0.0000 0.0000 24.9411
#
#
#
# Elastic Compliance Matrix: (Units=1/GPa)
#
#
# Indices 1 2 3 4 5 6 
#
# 1 0.021876 -0.010265 -0.000581 0.000000 0.000000 0.000000
# 2 -0.010265 0.023553 -0.010326 0.000000 0.000000 0.000000
# 3 -0.000581 -0.010326 0.027089 0.000000 0.000000 0.000000
# 4 0.000000 0.000000 0.000000 0.031418 0.000000 0.000000
# 5 0.000000 0.000000 0.000000 0.000000 0.637778 0.000000
# 6 0.000000 0.000000 0.000000 0.000000 0.000000 0.040094
#
#
# Mechanical properties :
#
#
# Convention : Reuss Voigt Hill
#
# Bulk Modulus (GPa) = 33.14101 36.07122 34.60611
# Shear Modulus (GPa) = 5.99370 18.59663 12.29516
#
# Velocity S-wave (km/s) = 1.83957 3.24031 2.63473
# Velocity P-wave (km/s) = 4.81906 5.86218 5.36603
#
# Compressibility (1/GPa) = 0.03017410
#
# Stress axis : x y z
#
# Youngs Moduli (GPa) = 45.71319 42.45690 36.91523
#
# Poissons Ratio (x) = 0.43581 0.02145
# Poissons Ratio (y) = 0.46923 0.38119
# Poissons Ratio (z) = 0.02656 0.43842
#
# Static dielectric constant tensor:
#      x y z
#    x 1.598290 0.000000 0.000000 
#    y 0.000000 1.587510 0.000000 
#    z 0.000000 0.000000 1.599930 
# 
# From -- ./inp_files/63920.got.cif
#   From: 2010.05.17/outbox.cif.g08.bks.cpg/sg74_32_cif.got.tgz:63920.got - 2010.06.03 17:57:02.
