data_PCOD9539394
_publ_section_title
;
Structure prediction by ZEFSAII (Michael W. Deem and Ramdas Pophale) SiO2 
 PCOD9539394
Probable space group: I M M A
;
_chemical_formula_sum "Si O2"
_cell_formula_units_Z 104
_cell_length_a 24.378969
_cell_length_b 9.159405
_cell_length_c 23.009582
_cell_angle_alpha 90.000000
_cell_angle_beta 90.000000
_cell_angle_gamma 90.000000
_cell_volume 5137.967193
_symmetry_space_group_name_H-M "I M M A"
_symmetry_group_IT_number 74
_symmetry_cell_setting 'orthorhombic'
loop_
_space_group_symop_operation_xyz
x,y,z
-x,1/2-y,z
x,-y,-z
-x,1/2+y,-z
-x,-y,-z
x,1/2+y,-z
-x,y,z
x,1/2-y,z
1/2+x,1/2+y,1/2+z
1/2-x,-y,1/2+z
1/2+x,1/2-y,1/2-z
1/2-x,y,1/2-z
1/2-x,1/2-y,1/2-z
1/2+x,y,1/2-z
1/2-x,1/2+y,1/2+z
1/2+x,-y,1/2+z
loop_
_atom_site_type_symbol
_atom_site_label
_atom_site_fract_x
_atom_site_fract_y
_atom_site_fract_z
Si Si1 0.500000 0.925570 0.562754
Si Si2 0.886020 0.421851 0.123748
Si Si3 0.500000 0.082293 0.777918
Si Si4 0.308340 0.918351 0.841017
Si Si5 0.890259 0.083679 0.447824
Si Si6 0.121871 0.925676 0.243886
Si Si7 0.500000 0.916645 0.082940
Si Si8 0.774686 0.922071 0.939155
O O1 0.500000 0.750000 0.555364
O O2 0.445191 0.964597 0.598373
O O3 0.500000 0.000000 0.500000
O O4 0.888101 0.250000 0.140832
O O5 0.869777 0.518397 0.178805
O O6 0.838940 0.435460 0.075396
O O7 0.500000 0.250000 0.756226
O O8 0.440599 0.020417 0.759461
O O9 0.500000 0.083819 0.847391
O O10 0.296910 0.750000 0.823248
O O11 0.356932 0.918430 0.888470
O O12 0.257891 0.973872 0.881049
O O13 0.332078 0.008222 0.786881
O O14 0.899335 0.250000 0.464888
O O15 0.860435 0.000000 0.500000
O O16 0.946512 0.000162 0.437457
O O17 0.122874 0.750000 0.248865
O O18 0.500000 0.750000 0.062660
O O19 0.760161 0.750000 0.944712
O O20 0.763038 0.000000 0.000000
#
# Coordination Sequence:
#
# PCOD9539394 Si02
#       8
#     8  16   8  16  16  16   8  16
#     4  10  21  38  64  96 127 160 197 240 294 355
#     4  10  22  40  61  90 125 159 193 235 294 356
#     4   9  19  35  55  81 113 148 188 237 291 337
#     4  10  22  39  58  82 113 154 198 241 293 349
#     4  11  22  35  52  77 107 143 192 243 295 348
#     4  11  22  38  61  88 118 155 200 247 293 347
#     4  11  20  35  54  73 104 142 183 235 293 344
#     4  10  22  41  64  88 118 155 196 242 294 350
#
# _framework density 20.241468999999999
#
# number of rings (size 3 to 8) (size 9 to 14) (size 15 to 20)
#    0.000    1.692    1.538    2.769    0.000    3.077 
#    0.000    4.231    0.000    0.000    0.000    0.000 
#    0.000    0.000    0.000    0.000    0.000    0.000 
#
# Total GULP energy -290316.192822 kJ/mol
# GULP energy per Si atom -5583.003708 kJ/mol
# Density = 2.019540 g / cm^3
# Si number density = 20.241469 Si / 1000 Ang^3
#
#
#
# Elastic Constant Matrix: (Units=GPa)
#
#
# Indices 1 2 3 4 5 6 
#
# 1 112.0425 32.3104 32.7751 0.0000 0.0000 0.0000
# 2 32.3104 80.2915 48.3286 0.0000 0.0000 0.0000
# 3 32.7751 48.3286 112.5871 0.0000 0.0000 0.0000
# 4 0.0000 0.0000 0.0000 37.2569 0.0000 0.0000
# 5 0.0000 0.0000 0.0000 0.0000 48.1704 0.0000
# 6 0.0000 0.0000 0.0000 0.0000 0.0000 25.2903
#
#
#
# Elastic Compliance Matrix: (Units=1/GPa)
#
#
# Indices 1 2 3 4 5 6 
#
# 1 0.010319 -0.003161 -0.001647 0.000000 0.000000 0.000000
# 2 -0.003161 0.017762 -0.006704 0.000000 0.000000 0.000000
# 3 -0.001647 -0.006704 0.012239 0.000000 0.000000 0.000000
# 4 0.000000 0.000000 0.000000 0.026841 0.000000 0.000000
# 5 0.000000 0.000000 0.000000 0.000000 0.020760 0.000000
# 6 0.000000 0.000000 0.000000 0.000000 0.000000 0.039541
#
#
# Mechanical properties :
#
#
# Convention : Reuss Voigt Hill
#
# Bulk Modulus (GPa) = 57.81865 59.08327 58.45096
# Shear Modulus (GPa) = 31.99991 34.91066 33.45528
#
# Velocity S-wave (km/s) = 3.98038 4.15747 4.06989
# Velocity P-wave (km/s) = 7.05344 7.23178 7.14317
#
# Compressibility (1/GPa) = 0.01729546
#
# Stress axis : x y z
#
# Youngs Moduli (GPa) = 96.91326 56.29986 81.70403
#
# Poissons Ratio (x) = 0.17796 0.13456
# Poissons Ratio (y) = 0.30634 0.54777
# Poissons Ratio (z) = 0.15961 0.37745
#
# Static dielectric constant tensor:
#      x y z
#    x 1.753300 0.000000 0.000000 
#    y 0.000000 1.706200 0.000000 
#    z 0.000000 0.000000 1.703210 
# 
# From -- ./inp_files/55300.got.cif
#   From: 2010.05.17/outbox.cif.g08.bks.cpg/sg74_28_cif.got.tgz:55300.got - 2010.06.03 17:57:02.
