data_PCOD9539000
_publ_section_title
;
Structure prediction by ZEFSAII (Michael W. Deem and Ramdas Pophale) SiO2 
 PCOD9539000
Probable space group: I M M A
;
_chemical_formula_sum "Si O2"
_cell_formula_units_Z 104
_cell_length_a 26.701133
_cell_length_b 23.246737
_cell_length_c 7.384493
_cell_angle_alpha 90.000000
_cell_angle_beta 90.000000
_cell_angle_gamma 90.000000
_cell_volume 4583.659786
_symmetry_space_group_name_H-M "I M M A"
_symmetry_group_IT_number 74
_symmetry_cell_setting 'orthorhombic'
loop_
_space_group_symop_operation_xyz
x,y,z
-x,1/2-y,z
x,-y,-z
-x,1/2+y,-z
-x,-y,-z
x,1/2+y,-z
-x,y,z
x,1/2-y,z
1/2+x,1/2+y,1/2+z
1/2-x,-y,1/2+z
1/2+x,1/2-y,1/2-z
1/2-x,y,1/2-z
1/2-x,1/2-y,1/2-z
1/2+x,y,1/2-z
1/2-x,1/2+y,1/2+z
1/2+x,-y,1/2+z
loop_
_atom_site_type_symbol
_atom_site_label
_atom_site_fract_x
_atom_site_fract_y
_atom_site_fract_z
Si Si1 0.055488 0.688087 0.714902
Si Si2 0.808008 0.394855 0.111288
Si Si3 0.741412 0.500000 0.000000
Si Si4 0.841981 0.086306 0.523204
Si Si5 0.725251 0.313899 0.947318
Si Si6 0.557128 0.388655 0.865052
Si Si7 0.383815 0.817072 0.419867
O O1 0.060578 0.750000 0.620931
O O2 0.058350 0.640876 0.561864
O O3 0.000000 0.684851 0.797157
O O4 0.093418 0.686656 0.878298
O O5 0.835522 0.406209 0.304335
O O6 0.779228 0.454429 0.084597
O O7 0.763115 0.348443 0.076794
O O8 0.845294 0.369857 0.959054
O O9 0.701336 0.543300 0.094217
O O10 0.825996 0.151070 0.576858
O O11 0.895230 0.069011 0.607637
O O12 0.716446 0.250000 0.016987
O O13 0.750000 0.311384 0.750000
O O14 0.500000 0.408846 0.829659
O O15 0.574555 0.341462 0.717495
O O16 0.367096 0.750000 0.376951
#
# Coordination Sequence:
#
# PCOD9539000 Si02
#       7
#    16  16   8  16  16  16  16
#     4   9  18  34  56  85 127 175 219 264 312 375
#     4  11  23  41  64  96 128 172 220 277 339 406
#     4  10  24  44  71  94 125 166 224 282 344 412
#     4  11  24  42  65  94 127 174 219 279 342 400
#     4  10  21  36  57  89 129 168 211 264 329 404
#     4  11  23  40  63  94 134 180 228 274 326 392
#     4  11  22  37  62  97 139 180 222 270 330 397
#
# _framework density 22.689295000000001
#
# number of rings (size 3 to 8) (size 9 to 14) (size 15 to 20)
#    0.000    1.538    1.538    4.154    0.000   13.231 
#    0.000    0.385    0.000    0.000    0.000    2.692 
#    0.000    0.000    0.000    0.000    0.000    0.000 
#
# Total GULP energy -289599.924350 kJ/mol
# GULP energy per Si atom -5569.229314 kJ/mol
# Density = 2.263765 g / cm^3
# Si number density = 22.689295 Si / 1000 Ang^3
#
#
#
# Elastic Constant Matrix: (Units=GPa)
#
#
# Indices 1 2 3 4 5 6 
#
# 1 135.3427 36.9486 28.5471 0.0000 0.0000 0.0000
# 2 36.9486 114.9206 26.6013 0.0000 0.0000 0.0000
# 3 28.5471 26.6013 84.9233 0.0000 0.0000 0.0000
# 4 0.0000 0.0000 0.0000 15.8268 0.0000 0.0000
# 5 0.0000 0.0000 0.0000 0.0000 31.0093 0.0000
# 6 0.0000 0.0000 0.0000 0.0000 0.0000 25.7523
#
#
#
# Elastic Compliance Matrix: (Units=1/GPa)
#
#
# Indices 1 2 3 4 5 6 
#
# 1 0.008447 -0.002219 -0.002144 0.000000 0.000000 0.000000
# 2 -0.002219 0.009965 -0.002375 0.000000 0.000000 0.000000
# 3 -0.002144 -0.002375 0.013240 0.000000 0.000000 0.000000
# 4 0.000000 0.000000 0.000000 0.063184 0.000000 0.000000
# 5 0.000000 0.000000 0.000000 0.000000 0.032248 0.000000
# 6 0.000000 0.000000 0.000000 0.000000 0.000000 0.038831
#
#
# Mechanical properties :
#
#
# Convention : Reuss Voigt Hill
#
# Bulk Modulus (GPa) = 55.02356 57.70895 56.36626
# Shear Modulus (GPa) = 26.96118 30.72366 28.84242
#
# Velocity S-wave (km/s) = 3.45088 3.68381 3.56924
# Velocity P-wave (km/s) = 6.33890 6.60179 6.47168
#
# Compressibility (1/GPa) = 0.01817403
#
# Stress axis : x y z
#
# Youngs Moduli (GPa) = 118.38772 100.35040 75.52773
#
# Poissons Ratio (x) = 0.22272 0.16195
# Poissons Ratio (y) = 0.26276 0.17941
# Poissons Ratio (z) = 0.25385 0.23837
#
# Static dielectric constant tensor:
#      x y z
#    x 1.972450 0.000000 0.000000 
#    y 0.000000 1.860910 0.000000 
#    z 0.000000 0.000000 1.936630 
# 
# From -- ./inp_files/15375.got.cif
#   From: 2010.05.17/outbox.cif.g08.bks.cpg/sg74_8_cif.got.tgz:15375.got - 2010.06.03 17:57:02.
