data_PCOD9539550
_publ_section_title
;
Structure prediction by ZEFSAII (Michael W. Deem and Ramdas Pophale) SiO2 
 PCOD9539550
Probable space group: I M M A
;
_chemical_formula_sum "Si O2"
_cell_formula_units_Z 112
_cell_length_a 15.145100
_cell_length_b 29.440088
_cell_length_c 11.442694
_cell_angle_alpha 90.000000
_cell_angle_beta 90.000000
_cell_angle_gamma 90.000000
_cell_volume 5101.989180
_symmetry_space_group_name_H-M "I M M A"
_symmetry_group_IT_number 74
_symmetry_cell_setting 'orthorhombic'
loop_
_space_group_symop_operation_xyz
x,y,z
-x,1/2-y,z
x,-y,-z
-x,1/2+y,-z
-x,-y,-z
x,1/2+y,-z
-x,y,z
x,1/2-y,z
1/2+x,1/2+y,1/2+z
1/2-x,-y,1/2+z
1/2+x,1/2-y,1/2-z
1/2-x,y,1/2-z
1/2-x,1/2-y,1/2-z
1/2+x,y,1/2-z
1/2-x,1/2+y,1/2+z
1/2+x,-y,1/2+z
loop_
_atom_site_type_symbol
_atom_site_label
_atom_site_fract_x
_atom_site_fract_y
_atom_site_fract_z
Si Si1 0.396921 0.049853 0.015261
Si Si2 0.352970 0.394353 0.243469
Si Si3 0.647910 0.929998 0.239899
Si Si4 0.895328 0.017876 0.122982
Si Si5 0.284150 0.304141 0.913582
Si Si6 0.842211 0.699509 0.680054
Si Si7 0.397222 0.337238 0.690704
O O1 0.500000 0.043344 0.038791
O O2 0.383744 0.074112 0.892422
O O3 0.365322 0.078591 0.123389
O O4 0.355217 0.000000 0.000000
O O5 0.250000 0.386444 0.250000
O O6 0.377274 0.430063 0.344313
O O7 0.392872 0.343855 0.234545
O O8 0.750000 0.918530 0.250000
O O9 0.599492 0.892056 0.315974
O O10 0.636142 0.981725 0.280793
O O11 0.000000 0.012955 0.120762
O O12 0.858616 0.000000 0.000000
O O13 0.282886 0.250000 0.894644
O O14 0.352020 0.324406 0.816704
O O15 0.182366 0.320849 0.895233
O O16 0.318626 0.312186 0.045008
O O17 0.883960 0.750000 0.683313
O O18 0.750000 0.703970 0.750000
O O19 0.500000 0.320655 0.679259
#
# Coordination Sequence:
#
# PCOD9539550 Si02
#       7
#    16  16  16  16  16  16  16
#     4  11  23  39  61  88 124 168 214 263 319 389
#     4  11  23  37  65  95 123 166 217 269 327 393
#     4  12  24  38  61  87 126 166 218 267 319 397
#     4  11  25  42  60  88 129 170 208 264 329 395
#     4  10  21  40  65  98 133 170 223 281 338 406
#     4   9  20  40  66  94 126 169 221 278 338 397
#     4  11  22  38  62  95 133 175 219 273 344 410
#
# _framework density 21.952221999999999
#
# number of rings (size 3 to 8) (size 9 to 14) (size 15 to 20)
#    0.000    1.286    2.857    3.857    2.000    2.286 
#    0.000    0.714    0.000    7.714    0.000   12.000 
#    0.000    0.000    0.000    0.000    0.000    0.000 
#
# Total GULP energy -312492.573008 kJ/mol
# GULP energy per Si atom -5580.224518 kJ/mol
# Density = 2.190226 g / cm^3
# Si number density = 21.952222 Si / 1000 Ang^3
#
#
#
# Elastic Constant Matrix: (Units=GPa)
#
#
# Indices 1 2 3 4 5 6 
#
# 1 104.4313 25.0567 -4.5155 0.0001 0.0000 0.0000
# 2 25.0567 165.1641 37.7091 -0.0002 -0.0001 0.0000
# 3 -4.5155 37.7091 71.3079 -0.0003 -0.0003 -0.0003
# 4 0.0001 -0.0002 -0.0003 31.2545 -0.0001 0.0000
# 5 0.0000 -0.0001 -0.0003 -0.0001 23.4008 0.0001
# 6 0.0000 0.0000 -0.0003 0.0000 0.0001 20.3538
#
#
#
# Elastic Compliance Matrix: (Units=1/GPa)
#
#
# Indices 1 2 3 4 5 6 
#
# 1 0.010105 -0.001910 0.001650 0.000000 0.000000 0.000000
# 2 -0.001910 0.007247 -0.003953 0.000000 0.000000 0.000000
# 3 0.001650 -0.003953 0.016219 0.000000 0.000000 0.000000
# 4 0.000000 0.000000 0.000000 0.031995 0.000000 0.000000
# 5 0.000000 0.000000 0.000000 0.000000 0.042734 0.000000
# 6 0.000000 0.000000 0.000000 0.000000 0.000000 0.049131
#
#
# Mechanical properties :
#
#
# Convention : Reuss Voigt Hill
#
# Bulk Modulus (GPa) = 39.77011 50.82266 45.29638
# Shear Modulus (GPa) = 28.69631 33.84535 31.27083
#
# Velocity S-wave (km/s) = 3.61947 3.93080 3.77834
# Velocity P-wave (km/s) = 5.96853 6.61841 6.30185
#
# Compressibility (1/GPa) = 0.02514451
#
# Stress axis : x y z
#
# Youngs Moduli (GPa) = 98.95881 137.99053 61.65718
#
# Poissons Ratio (x) = 0.26352 -0.10172
# Poissons Ratio (y) = 0.18898 0.24374
# Poissons Ratio (z) = -0.16326 0.54551
#
# Static dielectric constant tensor:
#      x y z
#    x 1.786300 0.000000 0.000000 
#    y 0.000000 1.912480 0.000000 
#    z 0.000000 0.000000 1.820100 
# 
# From -- ./inp_files/21146.got.cif
#   From: 2010.05.17/outbox.cif.g08.bks.cpg/sg74_11_cif.got.tgz:21146.got - 2010.06.03 17:57:02.
