data_PCOD9539472
_publ_section_title
;
Structure prediction by ZEFSAII (Michael W. Deem and Ramdas Pophale) SiO2 
 PCOD9539472
Probable space group: I M M A
;
_chemical_formula_sum "Si O2"
_cell_formula_units_Z 68
_cell_length_a 17.342568
_cell_length_b 7.592008
_cell_length_c 22.982320
_cell_angle_alpha 90.000000
_cell_angle_beta 90.000000
_cell_angle_gamma 90.000000
_cell_volume 3025.965209
_symmetry_space_group_name_H-M "I M M A"
_symmetry_group_IT_number 74
_symmetry_cell_setting 'orthorhombic'
loop_
_space_group_symop_operation_xyz
x,y,z
-x,1/2-y,z
x,-y,-z
-x,1/2+y,-z
-x,-y,-z
x,1/2+y,-z
-x,y,z
x,1/2-y,z
1/2+x,1/2+y,1/2+z
1/2-x,-y,1/2+z
1/2+x,1/2-y,1/2-z
1/2-x,y,1/2-z
1/2-x,1/2-y,1/2-z
1/2+x,y,1/2-z
1/2-x,1/2+y,1/2+z
1/2+x,-y,1/2+z
loop_
_atom_site_type_symbol
_atom_site_label
_atom_site_fract_x
_atom_site_fract_y
_atom_site_fract_z
Si Si1 0.165183 0.035907 0.271554
Si Si2 0.415473 0.537654 0.656552
Si Si3 0.000000 0.250000 0.563010
Si Si4 0.212432 0.047047 0.937989
Si Si5 0.622339 0.047861 0.097066
O O1 0.168406 0.250000 0.272787
O O2 0.250000 0.976560 0.250000
O O3 0.105954 0.979915 0.221683
O O4 0.138084 0.986559 0.335951
O O5 0.500000 0.473372 0.638973
O O6 0.417148 0.750000 0.657455
O O7 0.347532 0.487798 0.613195
O O8 0.067072 0.406743 0.567224
O O9 0.233208 0.250000 0.936926
O O10 0.292529 0.946697 0.930324
O O11 0.176316 0.000000 0.000000
O O12 0.592043 0.250000 0.096740
#
# Coordination Sequence:
#
# PCOD9539472 Si02
#       5
#    16  16   4  16  16
#     4   9  17  34  65  97 133 180 225 265 332 404
#     4  10  21  39  64 101 139 180 228 277 337 406
#     4  12  26  44  64 106 140 176 230 282 348 406
#     4  12  25  45  70  96 128 176 232 284 342 414
#     4  11  23  44  70 100 138 181 228 281 342 410
#
# _framework density 22.472168
#
# number of rings (size 3 to 8) (size 9 to 14) (size 15 to 20)
#    0.000    1.412    3.529    2.471    1.647    0.941 
#    2.118    2.353    0.000    0.000    0.000    0.000 
#    0.000    0.000    0.000    0.000    0.000    0.000 
#
# Total GULP energy -189635.881182 kJ/mol
# GULP energy per Si atom -5577.525917 kJ/mol
# Density = 2.242102 g / cm^3
# Si number density = 22.472168 Si / 1000 Ang^3
#
#
#
# Elastic Constant Matrix: (Units=GPa)
#
#
# Indices 1 2 3 4 5 6 
#
# 1 112.7938 26.5404 -4.1523 0.0000 0.0000 0.0000
# 2 26.5404 117.3256 3.0827 0.0000 0.0000 0.0000
# 3 -4.1523 3.0827 70.1215 0.0000 0.0000 0.0000
# 4 0.0000 0.0000 0.0000 6.4860 0.0000 0.0000
# 5 0.0000 0.0000 0.0000 0.0000 -7.6512 0.0000
# 6 0.0000 0.0000 0.0000 0.0000 0.0000 53.3528
#
#
#
# Elastic Compliance Matrix: (Units=1/GPa)
#
#
# Indices 1 2 3 4 5 6 
#
# 1 0.009394 -0.002142 0.000650 0.000000 0.000000 0.000000
# 2 -0.002142 0.009022 -0.000523 0.000000 0.000000 0.000000
# 3 0.000650 -0.000523 0.014322 0.000000 0.000000 0.000000
# 4 0.000000 0.000000 0.000000 0.154178 0.000000 0.000000
# 5 0.000000 0.000000 0.000000 0.000000 -0.130698 0.000000
# 6 0.000000 0.000000 0.000000 0.000000 0.000000 0.018743
#
#
# Mechanical properties :
#
#
# Convention : Reuss Voigt Hill
#
# Bulk Modulus (GPa) = 34.83395 39.02029 36.92712
# Shear Modulus (GPa) = 56.45885 28.75551 42.60718
#
# Velocity S-wave (km/s) = 5.01781 3.58104 4.35903
# Velocity P-wave (km/s) = 7.00756 5.87367 6.46552
#
# Compressibility (1/GPa) = 0.02870762
#
# Stress axis : x y z
#
# Youngs Moduli (GPa) = 106.45424 110.84504 69.82026
#
# Poissons Ratio (x) = 0.23744 -0.04541
# Poissons Ratio (y) = 0.22803 0.03655
# Poissons Ratio (z) = -0.06924 0.05802
#
# Static dielectric constant tensor:
#      x y z
#    x 1.813950 0.000000 0.000000 
#    y 0.000000 1.848220 0.000000 
#    z 0.000000 0.000000 1.891150 
# 
# From -- ./inp_files/52616.got.cif
#   From: 2010.05.17/outbox.cif.g08.bks.cpg/sg74_27_cif.got.tgz:52616.got - 2010.06.03 17:57:02.
