data_PCOD9539717
_publ_section_title
;
Structure prediction by ZEFSAII (Michael W. Deem and Ramdas Pophale) SiO2 
 PCOD9539717
Probable space group: I M M A
;
_chemical_formula_sum "Si O2"
_cell_formula_units_Z 108
_cell_length_a 27.304979
_cell_length_b 15.231717
_cell_length_c 11.527537
_cell_angle_alpha 90.000000
_cell_angle_beta 90.000000
_cell_angle_gamma 90.000000
_cell_volume 4794.322383
_symmetry_space_group_name_H-M "I M M A"
_symmetry_group_IT_number 74
_symmetry_cell_setting 'orthorhombic'
loop_
_space_group_symop_operation_xyz
x,y,z
-x,1/2-y,z
x,-y,-z
-x,1/2+y,-z
-x,-y,-z
x,1/2+y,-z
-x,y,z
x,1/2-y,z
1/2+x,1/2+y,1/2+z
1/2-x,-y,1/2+z
1/2+x,1/2-y,1/2-z
1/2-x,y,1/2-z
1/2-x,1/2-y,1/2-z
1/2+x,y,1/2-z
1/2-x,1/2+y,1/2+z
1/2+x,-y,1/2+z
loop_
_atom_site_type_symbol
_atom_site_label
_atom_site_fract_x
_atom_site_fract_y
_atom_site_fract_z
Si Si1 0.345676 0.853899 0.441234
Si Si2 0.095544 0.000000 0.500000
Si Si3 0.267092 0.148638 0.956363
Si Si4 0.660692 0.927672 0.211225
Si Si5 0.500000 0.750000 0.505264
Si Si6 0.199018 0.108590 0.302468
Si Si7 0.584838 0.852412 0.821323
Si Si8 0.568323 0.911769 0.568469
O O1 0.349109 0.750000 0.454207
O O2 0.288693 0.876152 0.438202
O O3 0.367200 0.885473 0.318606
O O4 0.374148 0.899990 0.543653
O O5 0.125862 0.957290 0.393663
O O6 0.072741 0.915131 0.568166
O O7 0.269100 0.250000 0.994199
O O8 0.299740 0.137629 0.843076
O O9 0.289100 0.094745 0.062288
O O10 0.689473 0.013928 0.252336
O O11 0.541932 0.827827 0.513026
O O12 0.250000 0.146894 0.250000
O O13 0.144659 0.151431 0.303821
O O14 0.568551 0.750000 0.829357
O O15 0.562549 0.899788 0.706809
O O16 0.553772 0.000000 0.500000
#
# Coordination Sequence:
#
# PCOD9539717 Si02
#       8
#    16   8  16  16   4  16  16  16
#     4  11  23  38  60  93 136 173 225 283 330 399
#     4  10  22  38  58  93 128 186 240 281 326 392
#     4  11  21  33  50  80 127 183 233 277 328 378
#     4  11  20  36  53  80 128 183 238 277 331 378
#     4  12  26  52  80 108 142 166 206 272 362 440
#     4  11  21  32  51  81 124 178 235 289 329 383
#     4  11  22  41  66  96 140 181 234 282 335 405
#     4  12  25  47  76 111 136 174 215 274 350 424
#
# _framework density 22.526646
#
# number of rings (size 3 to 8) (size 9 to 14) (size 15 to 20)
#    0.000    0.889    4.444    5.111    0.000    5.333 
#    0.000    0.000    0.000    0.444    0.000    2.074 
#    0.000    0.000    0.000    0.000    0.000    0.000 
#
# Total GULP energy -300937.010211 kJ/mol
# GULP energy per Si atom -5572.907597 kJ/mol
# Density = 2.247537 g / cm^3
# Si number density = 22.526646 Si / 1000 Ang^3
#
#
#
# Elastic Constant Matrix: (Units=GPa)
#
#
# Indices 1 2 3 4 5 6 
#
# 1 26.6414 16.3389 17.4903 0.0000 0.0000 0.0000
# 2 16.3389 163.7829 47.5350 0.0000 0.0000 0.0000
# 3 17.4903 47.5350 110.2051 0.0000 0.0000 0.0000
# 4 0.0000 0.0000 0.0000 19.4787 0.0000 0.0000
# 5 0.0000 0.0000 0.0000 0.0000 -51.5587 0.0000
# 6 0.0000 0.0000 0.0000 0.0000 0.0000 -6.7419
#
#
#
# Elastic Compliance Matrix: (Units=1/GPa)
#
#
# Indices 1 2 3 4 5 6 
#
# 1 0.042871 -0.002632 -0.005669 0.000000 0.000000 0.000000
# 2 -0.002632 0.007141 -0.002662 0.000000 0.000000 0.000000
# 3 -0.005669 -0.002662 0.011122 0.000000 0.000000 0.000000
# 4 0.000000 0.000000 0.000000 0.051338 0.000000 0.000000
# 5 0.000000 0.000000 0.000000 0.000000 -0.019395 0.000000
# 6 0.000000 0.000000 0.000000 0.000000 0.000000 -0.148326
#
#
# Mechanical properties :
#
#
# Convention : Reuss Voigt Hill
#
# Bulk Modulus (GPa) = 25.50472 51.48420 38.49446
# Shear Modulus (GPa) = -246.86333 6.85329 -120.00502
#
# Velocity S-wave (km/s) = -10.47975 1.74611 -7.30672
# Velocity P-wave (km/s) = 11.62269 5.19323 7.35246
#
# Compressibility (1/GPa) = 0.03920843
#
# Stress axis : x y z
#
# Youngs Moduli (GPa) = 23.32569 140.03851 89.91116
#
# Poissons Ratio (x) = 0.36851 0.50970
# Poissons Ratio (y) = 0.06138 0.23938
# Poissons Ratio (z) = 0.13223 0.37285
#
# Static dielectric constant tensor:
#      x y z
#    x 1.883450 0.000000 0.000000 
#    y 0.000000 1.835050 0.000000 
#    z 0.000000 0.000000 1.852900 
# 
# From -- ./inp_files/27276.got.cif
#   From: 2010.05.17/outbox.cif.g08.bks.cpg/sg74_14_cif.got.tgz:27276.got - 2010.06.03 17:57:02.
