data_PCOD9539075
_publ_section_title
;
Structure prediction by ZEFSAII (Michael W. Deem and Ramdas Pophale) SiO2 
 PCOD9539075
Probable space group: I M M A
;
_chemical_formula_sum "Si O2"
_cell_formula_units_Z 116
_cell_length_a 7.794576
_cell_length_b 27.770399
_cell_length_c 28.438348
_cell_angle_alpha 90.000000
_cell_angle_beta 90.000000
_cell_angle_gamma 90.000000
_cell_volume 6155.721740
_symmetry_space_group_name_H-M "I M M A"
_symmetry_group_IT_number 74
_symmetry_cell_setting 'orthorhombic'
loop_
_space_group_symop_operation_xyz
x,y,z
-x,1/2-y,z
x,-y,-z
-x,1/2+y,-z
-x,-y,-z
x,1/2+y,-z
-x,y,z
x,1/2-y,z
1/2+x,1/2+y,1/2+z
1/2-x,-y,1/2+z
1/2+x,1/2-y,1/2-z
1/2-x,y,1/2-z
1/2-x,1/2-y,1/2-z
1/2+x,y,1/2-z
1/2-x,1/2+y,1/2+z
1/2+x,-y,1/2+z
loop_
_atom_site_type_symbol
_atom_site_label
_atom_site_fract_x
_atom_site_fract_y
_atom_site_fract_z
Si Si1 0.198485 0.180709 0.804383
Si Si2 0.200229 0.423702 0.666474
Si Si3 0.203198 0.062240 0.039196
Si Si4 0.293471 0.972173 0.802665
Si Si5 0.791236 0.455126 0.935588
Si Si6 0.202515 0.110826 0.370831
Si Si7 0.796023 0.695447 0.802385
Si Si8 0.000000 0.750000 0.336308
O O1 0.250000 0.189427 0.750000
O O2 0.209501 0.123996 0.815335
O O3 0.345730 0.208408 0.833267
O O4 0.000000 0.195702 0.811604
O O5 0.270701 0.473832 0.687578
O O6 0.217867 0.430056 0.610359
O O7 0.000000 0.419658 0.679332
O O8 0.235672 0.104472 0.075968
O O9 0.000000 0.055809 0.034927
O O10 0.266166 0.011225 0.060697
O O11 0.264172 0.067577 0.985602
O O12 0.500000 0.973666 0.807426
O O13 0.250000 0.957134 0.750000
O O14 0.224104 0.933246 0.839631
O O15 0.000000 0.453599 0.931808
O O16 0.238332 0.159770 0.343175
O O17 0.000000 0.104684 0.372605
O O18 0.725676 0.750000 0.806828
O O19 0.750000 0.677432 0.750000
O O20 0.000000 0.697958 0.804613
#
# Coordination Sequence:
#
# PCOD9539075 Si02
#       8
#    16  16  16  16  16  16  16   4
#     4  12  24  39  62  88 117 152 193 244 293 347
#     4  11  21  37  53  81 117 152 190 232 285 342
#     4   9  18  33  53  80 110 146 190 234 278 335
#     4  10  22  34  48  71 110 152 184 221 263 330
#     4   9  18  33  54  79 111 148 189 232 282 338
#     4  11  21  34  52  80 110 145 190 226 277 336
#     4  10  21  37  56  79 108 142 184 233 282 327
#     4  12  24  44  62  90 116 148 198 242 300 338
#
# _framework density 18.844258
#
# number of rings (size 3 to 8) (size 9 to 14) (size 15 to 20)
#    0.000    1.655    2.759    3.310    0.000    5.793 
#    0.000    1.379    0.000    0.000    1.793    0.000 
#    0.000    0.000    0.000    0.000    0.000    0.000 
#
# Total GULP energy -323261.938305 kJ/mol
# GULP energy per Si atom -5573.481695 kJ/mol
# Density = 1.880137 g / cm^3
# Si number density = 18.844258 Si / 1000 Ang^3
#
#
#
# Elastic Constant Matrix: (Units=GPa)
#
#
# Indices 1 2 3 4 5 6 
#
# 1 74.1811 2.9270 -10.9331 0.0000 0.0000 0.0000
# 2 2.9270 56.9499 7.2996 0.0000 0.0000 0.0000
# 3 -10.9331 7.2996 71.6402 0.0000 0.0000 0.0000
# 4 0.0000 0.0000 0.0000 11.8075 0.0000 0.0000
# 5 0.0000 0.0000 0.0000 0.0000 23.5373 0.0000
# 6 0.0000 0.0000 0.0000 0.0000 0.0000 -37.8589
#
#
#
# Elastic Compliance Matrix: (Units=1/GPa)
#
#
# Indices 1 2 3 4 5 6 
#
# 1 0.013846 -0.000995 0.002215 0.000000 0.000000 0.000000
# 2 -0.000995 0.017863 -0.001972 0.000000 0.000000 0.000000
# 3 0.002215 -0.001972 0.014498 0.000000 0.000000 0.000000
# 4 0.000000 0.000000 0.000000 0.084692 0.000000 0.000000
# 5 0.000000 0.000000 0.000000 0.000000 0.042486 0.000000
# 6 0.000000 0.000000 0.000000 0.000000 0.000000 -0.026414
#
#
# Mechanical properties :
#
#
# Convention : Reuss Voigt Hill
#
# Bulk Modulus (GPa) = 22.37092 22.37314 22.37203
# Shear Modulus (GPa) = 30.60398 13.06235 21.83317
#
# Velocity S-wave (km/s) = 4.03432 2.63568 3.40753
# Velocity P-wave (km/s) = 5.79640 4.60009 5.23254
#
# Compressibility (1/GPa) = 0.04470089
#
# Stress axis : x y z
#
# Youngs Moduli (GPa) = 72.22201 55.98095 68.97726
#
# Poissons Ratio (x) = 0.05573 -0.15275
# Poissons Ratio (y) = 0.07190 0.13603
# Poissons Ratio (z) = -0.15994 0.11040
#
# Static dielectric constant tensor:
#      x y z
#    x 1.688470 0.000000 0.000000 
#    y 0.000000 1.677000 0.000000 
#    z 0.000000 0.000000 1.606530 
# 
# From -- ./inp_files/71071.got.cif
#   From: 2010.05.17/outbox.cif.g08.bks.cpg/sg74_36_cif.got.tgz:71071.got - 2010.06.03 17:57:02.
