data_PCOD9539473
_publ_section_title
;
Structure prediction by ZEFSAII (Michael W. Deem and Ramdas Pophale) SiO2 
 PCOD9539473
Probable space group: I M M A
;
_chemical_formula_sum "Si O2"
_cell_formula_units_Z 112
_cell_length_a 20.623961
_cell_length_b 23.924505
_cell_length_c 11.797529
_cell_angle_alpha 90.000000
_cell_angle_beta 90.000000
_cell_angle_gamma 90.000000
_cell_volume 5821.113849
_symmetry_space_group_name_H-M "I M M A"
_symmetry_group_IT_number 74
_symmetry_cell_setting 'orthorhombic'
loop_
_space_group_symop_operation_xyz
x,y,z
-x,1/2-y,z
x,-y,-z
-x,1/2+y,-z
-x,-y,-z
x,1/2+y,-z
-x,y,z
x,1/2-y,z
1/2+x,1/2+y,1/2+z
1/2-x,-y,1/2+z
1/2+x,1/2-y,1/2-z
1/2-x,y,1/2-z
1/2-x,1/2-y,1/2-z
1/2+x,y,1/2-z
1/2-x,1/2+y,1/2+z
1/2+x,-y,1/2+z
loop_
_atom_site_type_symbol
_atom_site_label
_atom_site_fract_x
_atom_site_fract_y
_atom_site_fract_z
Si Si1 0.606822 0.478793 0.115821
Si Si2 0.921974 0.585783 0.239211
Si Si3 0.070708 0.375456 0.230463
Si Si4 0.075361 0.814030 0.411823
Si Si5 0.329181 0.313898 0.126517
Si Si6 0.381869 0.563888 0.508580
Si Si7 0.757017 0.423844 0.383001
O O1 0.607752 0.531076 0.200692
O O2 0.574443 0.427132 0.180930
O O3 0.677506 0.455237 0.082060
O O4 0.574772 0.500000 0.000000
O O5 0.909506 0.639730 0.317494
O O6 0.893041 0.590753 0.113857
O O7 0.000000 0.578192 0.231879
O O8 0.128341 0.334445 0.266609
O O9 0.000000 0.348790 0.237374
O O10 0.082604 0.402140 0.107639
O O11 0.081255 0.750000 0.369475
O O12 0.122295 0.819548 0.519224
O O13 0.000000 0.822197 0.446574
O O14 0.308720 0.250000 0.136777
O O15 0.271730 0.357831 0.110105
O O16 0.406174 0.500000 0.500000
O O17 0.306827 0.561828 0.547518
O O18 0.750000 0.437988 0.250000
#
# Coordination Sequence:
#
# PCOD9539473 Si02
#       7
#    16  16  16  16  16  16  16
#     4  11  22  35  57  88 118 156 199 256 303 353
#     4  11  22  37  61  91 120 159 203 244 309 372
#     4  11  22  37  57  87 123 153 196 249 302 371
#     4   9  19  38  62  88 120 154 193 247 307 364
#     4  10  21  39  64  89 116 153 202 257 313 358
#     4  12  23  40  58  84 123 169 200 241 303 369
#     4  11  21  41  58  83 120 158 204 246 298 356
#
# _framework density 19.240303999999998
#
# number of rings (size 3 to 8) (size 9 to 14) (size 15 to 20)
#    0.000    1.286    4.286    3.429    0.000    4.000 
#    0.000    3.571    0.000    3.429    0.000    0.000 
#    0.000    0.000    0.000    0.000    0.000    0.000 
#
# Total GULP energy -312915.382696 kJ/mol
# GULP energy per Si atom -5587.774691 kJ/mol
# Density = 1.919651 g / cm^3
# Si number density = 19.240304 Si / 1000 Ang^3
#
#
#
# Elastic Constant Matrix: (Units=GPa)
#
#
# Indices 1 2 3 4 5 6 
#
# 1 48.6780 6.1582 4.6213 0.0000 0.0000 0.0000
# 2 6.1582 86.4279 23.4399 0.0000 0.0000 0.0000
# 3 4.6213 23.4399 93.0346 0.0000 0.0000 0.0000
# 4 0.0000 0.0000 0.0000 22.5949 0.0000 0.0000
# 5 0.0000 0.0000 0.0000 0.0000 46.1703 0.0000
# 6 0.0000 0.0000 0.0000 0.0000 0.0000 13.7740
#
#
#
# Elastic Compliance Matrix: (Units=1/GPa)
#
#
# Indices 1 2 3 4 5 6 
#
# 1 0.020773 -0.001288 -0.000707 0.000000 0.000000 0.000000
# 2 -0.001288 0.012499 -0.003085 0.000000 0.000000 0.000000
# 3 -0.000707 -0.003085 0.011561 0.000000 0.000000 0.000000
# 4 0.000000 0.000000 0.000000 0.044258 0.000000 0.000000
# 5 0.000000 0.000000 0.000000 0.000000 0.021659 0.000000
# 6 0.000000 0.000000 0.000000 0.000000 0.000000 0.072601
#
#
# Mechanical properties :
#
#
# Convention : Reuss Voigt Hill
#
# Bulk Modulus (GPa) = 28.84182 32.95325 30.89754
# Shear Modulus (GPa) = 24.38202 29.43592 26.90897
#
# Velocity S-wave (km/s) = 3.56369 3.91565 3.74381
# Velocity P-wave (km/s) = 5.65297 6.13249 5.89760
#
# Compressibility (1/GPa) = 0.03467188
#
# Stress axis : x y z
#
# Youngs Moduli (GPa) = 48.13877 80.00751 86.49694
#
# Poissons Ratio (x) = 0.10308 0.06118
# Poissons Ratio (y) = 0.06202 0.26685
# Poissons Ratio (z) = 0.03405 0.24683
#
# Static dielectric constant tensor:
#      x y z
#    x 1.689510 0.000000 0.000000 
#    y 0.000000 1.669210 0.000000 
#    z 0.000000 0.000000 1.678120 
# 
# From -- ./inp_files/24165.got.cif
#   From: 2010.05.17/outbox.cif.g08.bks.cpg/sg74_13_cif.got.tgz:24165.got - 2010.06.03 17:57:02.
