data_PCOD9539988
_publ_section_title
;
Structure prediction by ZEFSAII (Michael W. Deem and Ramdas Pophale) SiO2 
 PCOD9539988
Probable space group: I M M A
;
_chemical_formula_sum "Si O2"
_cell_formula_units_Z 52
_cell_length_a 9.671697
_cell_length_b 19.894535
_cell_length_c 12.475207
_cell_angle_alpha 90.000000
_cell_angle_beta 90.000000
_cell_angle_gamma 90.000000
_cell_volume 2400.403413
_symmetry_space_group_name_H-M "I M M A"
_symmetry_group_IT_number 74
_symmetry_cell_setting 'orthorhombic'
loop_
_space_group_symop_operation_xyz
x,y,z
-x,1/2-y,z
x,-y,-z
-x,1/2+y,-z
-x,-y,-z
x,1/2+y,-z
-x,y,z
x,1/2-y,z
1/2+x,1/2+y,1/2+z
1/2-x,-y,1/2+z
1/2+x,1/2-y,1/2-z
1/2-x,y,1/2-z
1/2-x,1/2-y,1/2-z
1/2+x,y,1/2-z
1/2-x,1/2+y,1/2+z
1/2+x,-y,1/2+z
loop_
_atom_site_type_symbol
_atom_site_label
_atom_site_fract_x
_atom_site_fract_y
_atom_site_fract_z
Si Si1 0.500000 0.930314 0.311900
Si Si2 0.203498 0.131917 0.400765
Si Si3 0.000000 0.074168 0.556149
Si Si4 0.250000 0.485282 0.250000
Si Si5 0.000000 0.250000 0.336845
Si Si6 0.500000 0.830809 0.511974
O O1 0.500000 0.919320 0.183630
O O2 0.500000 0.870409 0.398040
O O3 0.641444 0.972864 0.320704
O O4 0.132155 0.115034 0.513485
O O5 0.177610 0.065664 0.330907
O O6 0.120657 0.191786 0.346199
O O7 0.363422 0.148279 0.421729
O O8 0.000000 0.000000 0.500000
O O9 0.500000 0.750000 0.497799
#
# Coordination Sequence:
#
# PCOD9539988 Si02
#       6
#     8  16   8   8   4   8
#     4  12  25  42  71 104 139 176 237 278 362 406
#     4  11  24  44  71  98 142 178 238 282 355 411
#     4  11  21  45  70  96 134 184 226 284 333 433
#     4  12  24  43  69 112 130 182 234 298 348 414
#     4  10  22  46  66  92 128 196 226 268 344 430
#     4  12  27  47  66 107 147 188 221 301 350 419
#
# _framework density 21.663025000000001
#
# number of rings (size 3 to 8) (size 9 to 14) (size 15 to 20)
#    0.000    0.615    4.615    3.692    0.000    1.846 
#    8.308    2.308    0.000    0.000    0.000    0.000 
#    0.000    0.000    0.000    0.000    0.000    0.000 
#
# Total GULP energy -144764.803961 kJ/mol
# GULP energy per Si atom -5567.877075 kJ/mol
# Density = 2.161372 g / cm^3
# Si number density = 21.663025 Si / 1000 Ang^3
#
#
#
# Elastic Constant Matrix: (Units=GPa)
#
#
# Indices 1 2 3 4 5 6 
#
# 1 169.6576 47.1101 10.8841 0.0000 0.0000 0.0000
# 2 47.1101 102.3017 19.6681 0.0000 0.0000 0.0000
# 3 10.8841 19.6681 82.3106 0.0000 0.0000 0.0000
# 4 0.0000 0.0000 0.0000 -14.3816 0.0000 0.0000
# 5 0.0000 0.0000 0.0000 0.0000 18.2162 0.0000
# 6 0.0000 0.0000 0.0000 0.0000 0.0000 49.2668
#
#
#
# Elastic Compliance Matrix: (Units=1/GPa)
#
#
# Indices 1 2 3 4 5 6 
#
# 1 0.006760 -0.003083 -0.000157 0.000000 0.000000 0.000000
# 2 -0.003083 0.011652 -0.002376 0.000000 0.000000 0.000000
# 3 -0.000157 -0.002376 0.012738 0.000000 0.000000 0.000000
# 4 0.000000 0.000000 0.000000 -0.069533 0.000000 0.000000
# 5 0.000000 0.000000 0.000000 0.000000 0.054896 0.000000
# 6 0.000000 0.000000 0.000000 0.000000 0.000000 0.020298
#
#
# Mechanical properties :
#
#
# Convention : Reuss Voigt Hill
#
# Bulk Modulus (GPa) = 50.20996 56.62159 53.41578
# Shear Modulus (GPa) = 91.43713 29.06080 60.24896
#
# Velocity S-wave (km/s) = 6.50388 3.66661 5.27942
# Velocity P-wave (km/s) = 8.92349 6.64226 7.86601
#
# Compressibility (1/GPa) = 0.01991637
#
# Stress axis : x y z
#
# Youngs Moduli (GPa) = 147.92086 85.82523 78.50675
#
# Poissons Ratio (x) = 0.26459 0.01235
# Poissons Ratio (y) = 0.45603 0.18657
# Poissons Ratio (z) = 0.02326 0.20396
#
# Static dielectric constant tensor:
#      x y z
#    x 1.760460 0.000000 0.000000 
#    y 0.000000 1.751060 0.000000 
#    z 0.000000 0.000000 1.844700 
# 
# From -- ./inp_files/28458.got.cif
#   From: 2010.05.17/outbox.cif.g08.bks.cpg/sg74_15_cif.got.tgz:28458.got - 2010.06.03 17:57:02.
