data_PCOD9539444
_publ_section_title
;
Structure prediction by ZEFSAII (Michael W. Deem and Ramdas Pophale) SiO2 
 PCOD9539444
Probable space group: I M M A
;
_chemical_formula_sum "Si O2"
_cell_formula_units_Z 88
_cell_length_a 8.344471
_cell_length_b 22.169966
_cell_length_c 24.275020
_cell_angle_alpha 90.000000
_cell_angle_beta 90.000000
_cell_angle_gamma 90.000000
_cell_volume 4490.797096
_symmetry_space_group_name_H-M "I M M A"
_symmetry_group_IT_number 74
_symmetry_cell_setting 'orthorhombic'
loop_
_space_group_symop_operation_xyz
x,y,z
-x,1/2-y,z
x,-y,-z
-x,1/2+y,-z
-x,-y,-z
x,1/2+y,-z
-x,y,z
x,1/2-y,z
1/2+x,1/2+y,1/2+z
1/2-x,-y,1/2+z
1/2+x,1/2-y,1/2-z
1/2-x,y,1/2-z
1/2-x,1/2-y,1/2-z
1/2+x,y,1/2-z
1/2-x,1/2+y,1/2+z
1/2+x,-y,1/2+z
loop_
_atom_site_type_symbol
_atom_site_label
_atom_site_fract_x
_atom_site_fract_y
_atom_site_fract_z
Si Si1 0.808451 0.681129 0.812208
Si Si2 0.814046 0.973157 0.059344
Si Si3 0.692119 0.250000 0.686332
Si Si4 0.811898 0.315818 0.018848
Si Si5 0.817003 0.910997 0.599731
Si Si6 0.809949 0.845344 0.402020
O O1 0.769884 0.750000 0.828639
O O2 0.750000 0.673712 0.750000
O O3 0.723021 0.633028 0.850393
O O4 0.000000 0.674022 0.815936
O O5 0.728285 0.916415 0.088166
O O6 0.000000 0.956007 0.050439
O O7 0.796040 0.031133 0.098111
O O8 0.753128 0.000000 0.000000
O O9 0.500000 0.250000 0.685346
O O10 0.750000 0.250000 0.750000
O O11 0.753468 0.190649 0.652503
O O12 0.762695 0.250000 0.040106
O O13 0.716060 0.369800 0.046278
O O14 0.000000 0.324023 0.031069
O O15 0.781834 0.316846 0.954006
O O16 0.000000 0.931385 0.600557
O O17 0.000000 0.836166 0.407440
#
# Coordination Sequence:
#
# PCOD9539444 Si02
#       6
#    16  16   8  16  16  16
#     4  10  21  39  62  87 119 160 206 254 306 362
#     4  11  23  40  63  89 126 171 212 254 316 384
#     4  12  26  48  74 100 132 172 219 268 325 384
#     4  11  22  36  57  87 125 166 208 256 314 374
#     4  12  24  37  58  89 126 164 209 258 309 371
#     4  12  24  40  65  96 128 162 208 261 320 380
#
# _framework density 19.595631999999998
#
# number of rings (size 3 to 8) (size 9 to 14) (size 15 to 20)
#    0.000    0.727    2.727    6.273    0.000    5.091 
#    0.000    0.909    0.000    0.000    0.000    0.000 
#    0.000    0.000    0.000    0.000    0.000    0.000 
#
# Total GULP energy -245841.187691 kJ/mol
# GULP energy per Si atom -5587.299720 kJ/mol
# Density = 1.955103 g / cm^3
# Si number density = 19.595632 Si / 1000 Ang^3
#
#
#
# Elastic Constant Matrix: (Units=GPa)
#
#
# Indices 1 2 3 4 5 6 
#
# 1 56.0000 11.7922 0.0887 0.0000 0.0000 0.0000
# 2 11.7922 123.2199 39.0837 0.0000 0.0000 0.0000
# 3 0.0887 39.0837 105.0664 0.0000 0.0000 0.0000
# 4 0.0000 0.0000 0.0000 -11.4203 0.0000 0.0000
# 5 0.0000 0.0000 0.0000 0.0000 29.9272 0.0000
# 6 0.0000 0.0000 0.0000 0.0000 0.0000 5.3693
#
#
#
# Elastic Compliance Matrix: (Units=1/GPa)
#
#
# Indices 1 2 3 4 5 6 
#
# 1 0.018272 -0.001977 0.000720 0.000000 0.000000 0.000000
# 2 -0.001977 0.009415 -0.003501 0.000000 0.000000 0.000000
# 3 0.000720 -0.003501 0.010819 0.000000 0.000000 0.000000
# 4 0.000000 0.000000 0.000000 -0.087564 0.000000 0.000000
# 5 0.000000 0.000000 0.000000 0.000000 0.033414 0.000000
# 6 0.000000 0.000000 0.000000 0.000000 0.000000 0.186243
#
#
# Mechanical properties :
#
#
# Convention : Reuss Voigt Hill
#
# Bulk Modulus (GPa) = 34.49292 42.91283 38.70287
# Shear Modulus (GPa) = 26.34629 20.33003 23.33816
#
# Velocity S-wave (km/s) = 3.67072 3.22448 3.45481
# Velocity P-wave (km/s) = 5.96709 5.98413 5.97561
#
# Compressibility (1/GPa) = 0.02899146
#
# Stress axis : x y z
#
# Youngs Moduli (GPa) = 54.72758 106.21185 92.42656
#
# Poissons Ratio (x) = 0.20999 -0.06655
# Poissons Ratio (y) = 0.10820 0.32356
# Poissons Ratio (z) = -0.03941 0.37181
#
# Static dielectric constant tensor:
#      x y z
#    x 1.669770 0.000000 0.000000 
#    y 0.000000 1.716250 0.000000 
#    z 0.000000 0.000000 1.338250 
# 
# From -- ./inp_files/57015.got.cif
#   From: 2010.05.17/outbox.cif.g08.bks.cpg/sg74_29_cif.got.tgz:57015.got - 2010.06.03 17:57:02.
