data_PCOD9539787
_publ_section_title
;
Structure prediction by ZEFSAII (Michael W. Deem and Ramdas Pophale) SiO2 
 PCOD9539787
Probable space group: I M M A
;
_chemical_formula_sum "Si O2"
_cell_formula_units_Z 64
_cell_length_a 15.991075
_cell_length_b 15.257881
_cell_length_c 11.705127
_cell_angle_alpha 90.000000
_cell_angle_beta 90.000000
_cell_angle_gamma 90.000000
_cell_volume 2855.932993
_symmetry_space_group_name_H-M "I M M A"
_symmetry_group_IT_number 74
_symmetry_cell_setting 'orthorhombic'
loop_
_space_group_symop_operation_xyz
x,y,z
-x,1/2-y,z
x,-y,-z
-x,1/2+y,-z
-x,-y,-z
x,1/2+y,-z
-x,y,z
x,1/2-y,z
1/2+x,1/2+y,1/2+z
1/2-x,-y,1/2+z
1/2+x,1/2-y,1/2-z
1/2-x,y,1/2-z
1/2-x,1/2-y,1/2-z
1/2+x,y,1/2-z
1/2-x,1/2+y,1/2+z
1/2+x,-y,1/2+z
loop_
_atom_site_type_symbol
_atom_site_label
_atom_site_fract_x
_atom_site_fract_y
_atom_site_fract_z
Si Si1 0.500000 0.349340 0.670211
Si Si2 0.663546 0.350848 0.780888
Si Si3 0.652499 0.146613 0.265133
Si Si4 0.500000 0.589605 0.573286
Si Si5 0.404825 0.895237 0.987838
O O1 0.500000 0.250000 0.717723
O O2 0.583186 0.392930 0.720832
O O3 0.500000 0.344968 0.534564
O O4 0.667427 0.250000 0.738677
O O5 0.750000 0.395637 0.750000
O O6 0.652398 0.352773 0.915967
O O7 0.655235 0.250000 0.295747
O O8 0.750000 0.116884 0.250000
O O9 0.584658 0.102911 0.351705
O O10 0.614999 0.134439 0.138915
O O11 0.500000 0.500000 0.500000
O O12 0.500000 0.871224 0.016341
O O13 0.396501 0.000000 0.000000
#
# Coordination Sequence:
#
# PCOD9539787 Si02
#       5
#     8  16  16   8  16
#     4  10  22  41  63  89 130 174 220 282 347 421
#     4  10  22  39  64  95 129 171 221 276 341 413
#     4  11  26  47  72 102 140 192 247 296 360 443
#     4  12  28  45  71 100 143 188 234 303 369 433
#     4  11  24  41  68  97 136 176 228 288 345 418
#
# _framework density 22.409488
#
# number of rings (size 3 to 8) (size 9 to 14) (size 15 to 20)
#    0.000    1.250    2.500    1.875    7.000    3.000 
#    0.000    0.000    0.000    0.000    0.000    0.000 
#    0.000    0.000    0.000    0.000    0.000    0.000 
#
# Total GULP energy -178690.410304 kJ/mol
# GULP energy per Si atom -5584.075322 kJ/mol
# Density = 2.235848 g / cm^3
# Si number density = 22.409488 Si / 1000 Ang^3
#
#
#
# Elastic Constant Matrix: (Units=GPa)
#
#
# Indices 1 2 3 4 5 6 
#
# 1 206.1222 31.3393 77.8653 0.0000 0.0000 0.0000
# 2 31.3393 77.1354 4.4642 0.0000 0.0000 0.0000
# 3 77.8653 4.4642 145.6398 0.0000 0.0000 0.0000
# 4 0.0000 0.0000 0.0000 30.6361 0.0000 0.0000
# 5 0.0000 0.0000 0.0000 0.0000 25.7668 0.0000
# 6 0.0000 0.0000 0.0000 0.0000 0.0000 3.5951
#
#
#
# Elastic Compliance Matrix: (Units=1/GPa)
#
#
# Indices 1 2 3 4 5 6 
#
# 1 0.006510 -0.002448 -0.003406 0.000000 0.000000 0.000000
# 2 -0.002448 0.013908 0.000882 0.000000 0.000000 0.000000
# 3 -0.003406 0.000882 0.008660 0.000000 0.000000 0.000000
# 4 0.000000 0.000000 0.000000 0.032641 0.000000 0.000000
# 5 0.000000 0.000000 0.000000 0.000000 0.038810 0.000000
# 6 0.000000 0.000000 0.000000 0.000000 0.000000 0.278157
#
#
# Mechanical properties :
#
#
# Convention : Reuss Voigt Hill
#
# Bulk Modulus (GPa) = 52.25816 72.91503 62.58659
# Shear Modulus (GPa) = 12.65802 33.01485 22.83643
#
# Velocity S-wave (km/s) = 2.37924 3.84246 3.19572
# Velocity P-wave (km/s) = 5.56039 7.23147 6.45028
#
# Compressibility (1/GPa) = 0.01913577
#
# Stress axis : x y z
#
# Youngs Moduli (GPa) = 153.60547 71.90257 115.47372
#
# Poissons Ratio (x) = 0.17601 0.39326
# Poissons Ratio (y) = 0.37601 -0.10190
# Poissons Ratio (z) = 0.52312 -0.06345
#
# Static dielectric constant tensor:
#      x y z
#    x 1.722820 0.000000 0.000000 
#    y 0.000000 1.936540 0.000000 
#    z 0.000000 0.000000 1.754190 
# 
# From -- ./inp_files/19952.got.cif
#   From: 2010.05.17/outbox.cif.g08.bks.cpg/sg74_10_cif.got.tgz:19952.got - 2010.06.03 17:57:02.
