data_PCOD9539102
_publ_section_title
;
Structure prediction by ZEFSAII (Michael W. Deem and Ramdas Pophale) SiO2 
 PCOD9539102
Probable space group: I M M A
;
_chemical_formula_sum "Si O2"
_cell_formula_units_Z 104
_cell_length_a 8.834514
_cell_length_b 22.308271
_cell_length_c 27.528594
_cell_angle_alpha 90.000000
_cell_angle_beta 90.000000
_cell_angle_gamma 90.000000
_cell_volume 5425.410526
_symmetry_space_group_name_H-M "I M M A"
_symmetry_group_IT_number 74
_symmetry_cell_setting 'orthorhombic'
loop_
_space_group_symop_operation_xyz
x,y,z
-x,1/2-y,z
x,-y,-z
-x,1/2+y,-z
-x,-y,-z
x,1/2+y,-z
-x,y,z
x,1/2-y,z
1/2+x,1/2+y,1/2+z
1/2-x,-y,1/2+z
1/2+x,1/2-y,1/2-z
1/2-x,y,1/2-z
1/2-x,1/2-y,1/2-z
1/2+x,y,1/2-z
1/2-x,1/2+y,1/2+z
1/2+x,-y,1/2+z
loop_
_atom_site_type_symbol
_atom_site_label
_atom_site_fract_x
_atom_site_fract_y
_atom_site_fract_z
Si Si1 0.673562 0.178664 0.132098
Si Si2 0.682655 0.320401 0.473732
Si Si3 0.176499 0.559226 0.033856
Si Si4 0.679403 0.086871 0.302907
Si Si5 0.819531 0.014041 0.631908
Si Si6 0.817920 0.750000 0.304287
Si Si7 0.681903 0.876258 0.196754
O O1 0.500000 0.156423 0.132560
O O2 0.671736 0.250000 0.136912
O O3 0.748083 0.166357 0.079446
O O4 0.764429 0.150439 0.176723
O O5 0.500000 0.321299 0.470344
O O6 0.724736 0.250000 0.486851
O O7 0.724329 0.377286 0.508569
O O8 0.274934 0.538401 0.079413
O O9 0.000000 0.567207 0.048222
O O10 0.181717 0.500000 0.000000
O O11 0.500000 0.083619 0.298737
O O12 0.750000 0.072692 0.250000
O O13 0.737200 0.043478 0.346100
O O14 0.768386 0.067118 0.667335
O O15 0.000000 0.005266 0.634821
O O16 0.750000 0.750000 0.250000
O O17 0.772595 0.812866 0.327364
O O18 0.000000 0.750000 0.300237
O O19 0.500000 0.877774 0.200013
O O20 0.750000 0.878106 0.250000
#
# Coordination Sequence:
#
# PCOD9539102 Si02
#       7
#    16  16  16  16  16   8  16
#     4  10  21  38  62  92 123 154 191 236 288 349
#     4   9  18  35  59  86 119 158 199 244 297 356
#     4  10  21  37  57  81 110 148 194 242 293 350
#     4  12  25  41  61  85 117 157 197 241 291 346
#     4  11  23  38  56  83 113 146 189 239 294 345
#     4   8  14  28  48  70  98 132 172 212 254 308
#     4   9  18  32  52  76 104 139 178 221 270 324
#
# _framework density 19.169056999999999
#
# number of rings (size 3 to 8) (size 9 to 14) (size 15 to 20)
#    0.000    2.000    0.000    3.692    0.000    5.846 
#    1.385    0.000    0.000    0.000    0.000    0.000 
#    0.000    0.000    0.000    0.000    0.000    0.000 
#
# Total GULP energy -289779.574120 kJ/mol
# GULP energy per Si atom -5572.684118 kJ/mol
# Density = 1.912543 g / cm^3
# Si number density = 19.169057 Si / 1000 Ang^3
#
#
#
# Elastic Constant Matrix: (Units=GPa)
#
#
# Indices 1 2 3 4 5 6 
#
# 1 63.6504 29.9566 35.1986 0.0000 0.0000 0.0000
# 2 29.9566 83.5942 31.2994 0.0000 0.0000 0.0000
# 3 35.1986 31.2994 57.1046 0.0000 0.0000 0.0000
# 4 0.0000 0.0000 0.0000 24.9265 0.0000 0.0000
# 5 0.0000 0.0000 0.0000 0.0000 32.9210 0.0000
# 6 0.0000 0.0000 0.0000 0.0000 0.0000 22.2861
#
#
#
# Elastic Compliance Matrix: (Units=1/GPa)
#
#
# Indices 1 2 3 4 5 6 
#
# 1 0.024849 -0.003989 -0.013131 0.000000 0.000000 0.000000
# 2 -0.003989 0.015692 -0.006142 0.000000 0.000000 0.000000
# 3 -0.013131 -0.006142 0.028972 0.000000 0.000000 0.000000
# 4 0.000000 0.000000 0.000000 0.040118 0.000000 0.000000
# 5 0.000000 0.000000 0.000000 0.000000 0.030376 0.000000
# 6 0.000000 0.000000 0.000000 0.000000 0.000000 0.044871
#
#
# Mechanical properties :
#
#
# Convention : Reuss Voigt Hill
#
# Bulk Modulus (GPa) = 43.49715 44.13981 43.81848
# Shear Modulus (GPa) = 20.91492 23.21967 22.06730
#
# Velocity S-wave (km/s) = 3.30673 3.48416 3.39661
# Velocity P-wave (km/s) = 6.10900 6.26598 6.18799
#
# Compressibility (1/GPa) = 0.02299001
#
# Stress axis : x y z
#
# Youngs Moduli (GPa) = 40.24270 63.72814 34.51618
#
# Poissons Ratio (x) = 0.25418 0.45322
# Poissons Ratio (y) = 0.16051 0.21201
# Poissons Ratio (z) = 0.52841 0.39143
#
# Static dielectric constant tensor:
#      x y z
#    x 1.711420 0.000000 0.000000 
#    y 0.000000 1.769920 0.000000 
#    z 0.000000 0.000000 1.450970 
# 
# From -- ./inp_files/64433.got.cif
#   From: 2010.05.17/outbox.cif.g08.bks.cpg/sg74_33_cif.got.tgz:64433.got - 2010.06.03 17:57:02.
