data_PCOD9539453
_publ_section_title
;
Structure prediction by ZEFSAII (Michael W. Deem and Ramdas Pophale) SiO2 
 PCOD9539453
Probable space group: I M M A
;
_chemical_formula_sum "Si O2"
_cell_formula_units_Z 84
_cell_length_a 19.981360
_cell_length_b 14.271903
_cell_length_c 14.745277
_cell_angle_alpha 90.000000
_cell_angle_beta 90.000000
_cell_angle_gamma 90.000000
_cell_volume 4204.940600
_symmetry_space_group_name_H-M "I M M A"
_symmetry_group_IT_number 74
_symmetry_cell_setting 'orthorhombic'
loop_
_space_group_symop_operation_xyz
x,y,z
-x,1/2-y,z
x,-y,-z
-x,1/2+y,-z
-x,-y,-z
x,1/2+y,-z
-x,y,z
x,1/2-y,z
1/2+x,1/2+y,1/2+z
1/2-x,-y,1/2+z
1/2+x,1/2-y,1/2-z
1/2-x,y,1/2-z
1/2-x,1/2-y,1/2-z
1/2+x,y,1/2-z
1/2-x,1/2+y,1/2+z
1/2+x,-y,1/2+z
loop_
_atom_site_type_symbol
_atom_site_label
_atom_site_fract_x
_atom_site_fract_y
_atom_site_fract_z
Si Si1 0.000000 0.854916 0.647011
Si Si2 0.500000 0.250000 0.454677
Si Si3 0.781396 0.069854 0.086091
Si Si4 0.631516 0.056432 0.093146
Si Si5 0.181352 0.750000 0.192609
Si Si6 0.150632 0.250000 0.010665
Si Si7 0.500000 0.446815 0.341711
Si Si8 0.629603 0.955871 0.284887
O O1 0.067881 0.875971 0.593922
O O2 0.000000 0.915733 0.737250
O O3 0.000000 0.750000 0.679341
O O4 0.570925 0.250000 0.506476
O O5 0.500000 0.349692 0.398728
O O6 0.704916 0.101894 0.099774
O O7 0.807926 0.009611 0.170068
O O8 0.828454 0.158115 0.066359
O O9 0.783540 0.000000 0.000000
O O10 0.623810 0.990044 0.181279
O O11 0.629991 0.000000 0.000000
O O12 0.250000 0.750000 0.250000
O O13 0.191089 0.750000 0.083752
O O14 0.141564 0.654669 0.212989
O O15 0.433287 0.510228 0.346909
#
# Coordination Sequence:
#
# PCOD9539453 Si02
#       8
#     8   4  16  16   8   8   8  16
#     4  10  21  39  62  92 126 172 227 275 359 404
#     4  12  22  44  68 106 146 186 224 294 350 428
#     4  11  22  41  64  98 137 170 227 276 348 413
#     4  10  23  41  66  89 132 173 228 286 343 413
#     4  12  26  44  68  94 138 176 230 270 347 410
#     4  12  26  40  70 105 136 185 228 281 348 426
#     4  10  22  41  68  93 141 180 219 282 355 420
#     4  11  23  44  67  98 133 184 221 287 346 414
#
# _framework density 19.976502
#
# number of rings (size 3 to 8) (size 9 to 14) (size 15 to 20)
#    0.000    1.143    4.286    2.000    4.000    1.143 
#    1.714    2.857    0.000    0.000    0.000    0.000 
#    0.000    0.000    0.000    0.000    0.000    0.000 
#
# Total GULP energy -234455.435763 kJ/mol
# GULP energy per Si atom -5582.272280 kJ/mol
# Density = 1.993103 g / cm^3
# Si number density = 19.976502 Si / 1000 Ang^3
#
#
#
# Elastic Constant Matrix: (Units=GPa)
#
#
# Indices 1 2 3 4 5 6 
#
# 1 142.5453 48.4579 6.4115 0.0000 0.0000 0.0000
# 2 48.4579 118.0607 19.3593 0.0000 0.0000 0.0000
# 3 6.4115 19.3593 77.6390 0.0000 0.0000 0.0000
# 4 0.0000 0.0000 0.0000 16.9464 0.0000 0.0000
# 5 0.0000 0.0000 0.0000 0.0000 25.8198 0.0000
# 6 0.0000 0.0000 0.0000 0.0000 0.0000 24.2526
#
#
#
# Elastic Compliance Matrix: (Units=1/GPa)
#
#
# Indices 1 2 3 4 5 6 
#
# 1 0.008155 -0.003375 0.000168 0.000000 0.000000 0.000000
# 2 -0.003375 0.010228 -0.002272 0.000000 0.000000 0.000000
# 3 0.000168 -0.002272 0.013433 0.000000 0.000000 0.000000
# 4 0.000000 0.000000 0.000000 0.059009 0.000000 0.000000
# 5 0.000000 0.000000 0.000000 0.000000 0.038730 0.000000
# 6 0.000000 0.000000 0.000000 0.000000 0.000000 0.041233
#
#
# Mechanical properties :
#
#
# Convention : Reuss Voigt Hill
#
# Bulk Modulus (GPa) = 47.94124 54.07803 51.00964
# Shear Modulus (GPa) = 26.49746 31.00486 28.75116
#
# Velocity S-wave (km/s) = 3.64597 3.94390 3.79786
# Velocity P-wave (km/s) = 6.46336 6.91872 6.69492
#
# Compressibility (1/GPa) = 0.02085887
#
# Stress axis : x y z
#
# Youngs Moduli (GPa) = 122.62416 97.77191 74.44532
#
# Poissons Ratio (x) = 0.32996 -0.01251
# Poissons Ratio (y) = 0.41383 0.16911
# Poissons Ratio (z) = -0.02061 0.22210
#
# Static dielectric constant tensor:
#      x y z
#    x 1.770080 0.000000 0.000000 
#    y 0.000000 1.686600 0.000000 
#    z 0.000000 0.000000 1.691290 
# 
# From -- ./inp_files/35216.got.cif
#   From: 2010.05.17/outbox.cif.g08.bks.cpg/sg74_18_cif.got.tgz:35216.got - 2010.06.03 17:57:02.
