data_PCOD9539533
_publ_section_title
;
Structure prediction by ZEFSAII (Michael W. Deem and Ramdas Pophale) SiO2 
 PCOD9539533
Probable space group: I M M A
;
_chemical_formula_sum "Si O2"
_cell_formula_units_Z 64
_cell_length_a 15.305781
_cell_length_b 24.685906
_cell_length_c 8.680364
_cell_angle_alpha 90.000000
_cell_angle_beta 90.000000
_cell_angle_gamma 90.000000
_cell_volume 3279.763309
_symmetry_space_group_name_H-M "I M M A"
_symmetry_group_IT_number 74
_symmetry_cell_setting 'orthorhombic'
loop_
_space_group_symop_operation_xyz
x,y,z
-x,1/2-y,z
x,-y,-z
-x,1/2+y,-z
-x,-y,-z
x,1/2+y,-z
-x,y,z
x,1/2-y,z
1/2+x,1/2+y,1/2+z
1/2-x,-y,1/2+z
1/2+x,1/2-y,1/2-z
1/2-x,y,1/2-z
1/2-x,1/2-y,1/2-z
1/2+x,y,1/2-z
1/2-x,1/2+y,1/2+z
1/2+x,-y,1/2+z
loop_
_atom_site_type_symbol
_atom_site_label
_atom_site_fract_x
_atom_site_fract_y
_atom_site_fract_z
Si Si1 0.348484 0.364150 0.815393
Si Si2 0.655841 0.863582 0.816573
Si Si3 0.500000 0.437728 0.686379
Si Si4 0.104523 0.250000 0.164673
Si Si5 0.500000 0.934187 0.681460
Si Si6 0.650708 0.250000 0.689779
O O1 0.250000 0.371209 0.750000
O O2 0.414159 0.410213 0.758251
O O3 0.385583 0.306487 0.753802
O O4 0.343805 0.362967 0.999296
O O5 0.750000 0.878782 0.750000
O O6 0.633288 0.803692 0.754153
O O7 0.583725 0.904705 0.753159
O O8 0.500000 0.501924 0.713659
O O9 0.500000 0.427088 0.503065
O O10 0.000000 0.250000 0.147601
O O11 0.145643 0.250000 0.994246
O O12 0.750000 0.250000 0.750000
#
# Coordination Sequence:
#
# PCOD9539533 Si02
#       6
#    16  16   8   8   8   8
#     4  11  24  42  66  98 130 171 216 263 323 386
#     4  12  24  43  69  95 133 171 215 266 322 390
#     4  11  25  44  69  90 133 165 217 275 322 381
#     4  12  24  40  67 100 136 174 215 266 327 387
#     4  11  25  46  65  98 123 171 219 269 326 381
#     4  10  21  40  63  95 133 169 213 257 315 382
#
# _framework density 19.513603
#
# number of rings (size 3 to 8) (size 9 to 14) (size 15 to 20)
#    0.000    0.750    1.250    7.875    1.750    3.000 
#    0.000    0.000    0.000    0.000    0.000    0.000 
#    0.000    0.000    0.000    0.000    0.000    0.000 
#
# Total GULP energy -179116.989507 kJ/mol
# GULP energy per Si atom -5597.405922 kJ/mol
# Density = 1.946919 g / cm^3
# Si number density = 19.513603 Si / 1000 Ang^3
#
#
#
# Elastic Constant Matrix: (Units=GPa)
#
#
# Indices 1 2 3 4 5 6 
#
# 1 164.9296 85.0456 85.8227 0.0000 0.0000 0.0000
# 2 85.0456 151.7913 116.2150 0.0000 -0.0001 0.0002
# 3 85.8227 116.2150 219.9961 0.0011 0.0004 -0.0006
# 4 0.0000 0.0000 0.0011 23.6402 0.0001 0.0003
# 5 0.0000 -0.0001 0.0004 0.0001 34.6642 0.0000
# 6 0.0000 0.0002 -0.0006 0.0003 0.0000 -70.9082
#
#
#
# Elastic Compliance Matrix: (Units=1/GPa)
#
#
# Indices 1 2 3 4 5 6 
#
# 1 0.008771 -0.003853 -0.001386 0.000000 0.000000 0.000000
# 2 -0.003853 0.012754 -0.005235 0.000000 0.000000 0.000000
# 3 -0.001386 -0.005235 0.007852 0.000000 0.000000 0.000000
# 4 0.000000 0.000000 0.000000 0.042301 0.000000 0.000000
# 5 0.000000 0.000000 0.000000 0.000000 0.028848 0.000000
# 6 0.000000 0.000000 0.000000 0.000000 0.000000 -0.014103
#
#
# Mechanical properties :
#
#
# Convention : Reuss Voigt Hill
#
# Bulk Modulus (GPa) = 118.63089 123.43151 121.03120
# Shear Modulus (GPa) = 45.37966 14.12150 29.75058
#
# Velocity S-wave (km/s) = 4.82762 2.69304 3.90886
# Velocity P-wave (km/s) = 9.59169 8.54759 9.08465
#
# Compressibility (1/GPa) = 0.00842951
#
# Stress axis : x y z
#
# Youngs Moduli (GPa) = 114.00671 78.40413 127.36210
#
# Poissons Ratio (x) = 0.30209 0.17658
# Poissons Ratio (y) = 0.43926 0.66669
# Poissons Ratio (z) = 0.15807 0.41041
#
# Static dielectric constant tensor:
#      x y z
#    x 1.671730 0.000000 0.000000 
#    y 0.000000 1.672120 0.000000 
#    z 0.000000 0.000000 1.646400 
# 
# From -- ./inp_files/8903.got.cif
#   From: 2010.05.17/outbox.cif.g08.bks.cpg/sg74_5_cif.got.tgz:8903.got - 2010.06.03 17:57:02.
