data_PCOD9539228
_publ_section_title
;
Structure prediction by ZEFSAII (Michael W. Deem and Ramdas Pophale) SiO2 
 PCOD9539228
Probable space group: I M M A
;
_chemical_formula_sum "Si O2"
_cell_formula_units_Z 56
_cell_length_a 10.807785
_cell_length_b 11.195988
_cell_length_c 24.324672
_cell_angle_alpha 90.000000
_cell_angle_beta 90.000000
_cell_angle_gamma 90.000000
_cell_volume 2943.378504
_symmetry_space_group_name_H-M "I M M A"
_symmetry_group_IT_number 74
_symmetry_cell_setting 'orthorhombic'
loop_
_space_group_symop_operation_xyz
x,y,z
-x,1/2-y,z
x,-y,-z
-x,1/2+y,-z
-x,-y,-z
x,1/2+y,-z
-x,y,z
x,1/2-y,z
1/2+x,1/2+y,1/2+z
1/2-x,-y,1/2+z
1/2+x,1/2-y,1/2-z
1/2-x,y,1/2-z
1/2-x,1/2-y,1/2-z
1/2+x,y,1/2-z
1/2-x,1/2+y,1/2+z
1/2+x,-y,1/2+z
loop_
_atom_site_type_symbol
_atom_site_label
_atom_site_fract_x
_atom_site_fract_y
_atom_site_fract_z
Si Si1 0.367494 0.250000 0.452476
Si Si2 0.354187 0.114167 0.906270
Si Si3 0.639588 0.250000 0.131876
Si Si4 0.143078 0.010609 0.295279
Si Si5 0.201624 0.000000 0.000000
O O1 0.500000 0.250000 0.421764
O O2 0.248481 0.250000 0.412680
O O3 0.363791 0.126497 0.487189
O O4 0.500000 0.097705 0.915518
O O5 0.321336 0.250000 0.919920
O O6 0.332607 0.087855 0.842257
O O7 0.282495 0.026115 0.946048
O O8 0.500000 0.250000 0.106905
O O9 0.649071 0.365293 0.170995
O O10 0.250000 0.007259 0.250000
O O11 0.000000 0.997862 0.274995
#
# Coordination Sequence:
#
# PCOD9539228 Si02
#       5
#     8  16   8  16   8
#     4  12  26  41  63  94 132 167 206 257 315 377
#     4  10  21  37  62  94 124 159 209 262 310 368
#     4  10  21  39  63  90 120 157 209 257 304 369
#     4  10  21  38  60  89 122 159 204 256 309 370
#     4  12  22  42  64  90 127 168 209 254 317 372
#
# _framework density 19.025755
#
# number of rings (size 3 to 8) (size 9 to 14) (size 15 to 20)
#    0.000    1.429    4.286    1.286    0.000    2.857 
#    0.000    0.000    0.000    0.000    0.000    0.000 
#    0.000    0.000    0.000    0.000    0.000    0.000 
#
# Total GULP energy -156159.996166 kJ/mol
# GULP energy per Si atom -5577.142720 kJ/mol
# Density = 1.898245 g / cm^3
# Si number density = 19.025755 Si / 1000 Ang^3
#
#
#
# Elastic Constant Matrix: (Units=GPa)
#
#
# Indices 1 2 3 4 5 6 
#
# 1 145.6705 43.2113 80.5273 0.0000 0.0000 0.0000
# 2 43.2113 103.3733 23.7816 0.0000 0.0000 0.0000
# 3 80.5273 23.7816 67.6266 0.0000 0.0000 0.0000
# 4 0.0000 0.0000 0.0000 17.8514 0.0000 0.0000
# 5 0.0000 0.0000 0.0000 0.0000 47.2772 0.0000
# 6 0.0000 0.0000 0.0000 0.0000 0.0000 -1.5142
#
#
#
# Elastic Compliance Matrix: (Units=1/GPa)
#
#
# Indices 1 2 3 4 5 6 
#
# 1 0.021076 -0.003304 -0.023935 0.000000 0.000000 0.000000
# 2 -0.003304 0.011043 0.000051 0.000000 0.000000 0.000000
# 3 -0.023935 0.000051 0.043270 0.000000 0.000000 0.000000
# 4 0.000000 0.000000 0.000000 0.056018 0.000000 0.000000
# 5 0.000000 0.000000 0.000000 0.000000 0.021152 0.000000
# 6 0.000000 0.000000 0.000000 0.000000 0.000000 -0.660405
#
#
# Mechanical properties :
#
#
# Convention : Reuss Voigt Hill
#
# Bulk Modulus (GPa) = 47.58929 67.96787 57.77858
# Shear Modulus (GPa) = -11.19908 23.99957 6.40024
#
# Velocity S-wave (km/s) = -2.42880 3.55551 1.83611
# Velocity P-wave (km/s) = 4.14753 7.25653 5.91013
#
# Compressibility (1/GPa) = 0.02101313
#
# Stress axis : x y z
#
# Youngs Moduli (GPa) = 47.44712 90.55472 23.11069
#
# Poissons Ratio (x) = 0.29917 0.55315
# Poissons Ratio (y) = 0.15675 -0.00117
# Poissons Ratio (z) = 1.13564 -0.00458
#
# Static dielectric constant tensor:
#      x y z
#    x 1.660110 0.000000 0.000000 
#    y 0.000000 1.701690 0.000000 
#    z 0.000000 0.000000 1.634410 
# 
# From -- ./inp_files/58205.got.cif
#   From: 2010.05.17/outbox.cif.g08.bks.cpg/sg74_30_cif.got.tgz:58205.got - 2010.06.03 17:57:02.
