data_PCOD9539028
_publ_section_title
;
Structure prediction by ZEFSAII (Michael W. Deem and Ramdas Pophale) SiO2 
 PCOD9539028
Probable space group: I M M A
;
_chemical_formula_sum "Si O2"
_cell_formula_units_Z 104
_cell_length_a 24.738404
_cell_length_b 9.128093
_cell_length_c 21.170864
_cell_angle_alpha 90.000000
_cell_angle_beta 90.000000
_cell_angle_gamma 90.000000
_cell_volume 4780.687061
_symmetry_space_group_name_H-M "I M M A"
_symmetry_group_IT_number 74
_symmetry_cell_setting 'orthorhombic'
loop_
_space_group_symop_operation_xyz
x,y,z
-x,1/2-y,z
x,-y,-z
-x,1/2+y,-z
-x,-y,-z
x,1/2+y,-z
-x,y,z
x,1/2-y,z
1/2+x,1/2+y,1/2+z
1/2-x,-y,1/2+z
1/2+x,1/2-y,1/2-z
1/2-x,y,1/2-z
1/2-x,1/2-y,1/2-z
1/2+x,y,1/2-z
1/2-x,1/2+y,1/2+z
1/2+x,-y,1/2+z
loop_
_atom_site_type_symbol
_atom_site_label
_atom_site_fract_x
_atom_site_fract_y
_atom_site_fract_z
Si Si1 0.439262 0.581298 0.857180
Si Si2 0.205425 0.077159 0.804099
Si Si3 0.854378 0.075098 0.562765
Si Si4 0.905174 0.250000 0.980147
Si Si5 0.898833 0.913026 0.779025
Si Si6 0.763545 0.427603 0.065963
Si Si7 0.562430 0.511976 0.585669
O O1 0.500000 0.550263 0.879206
O O2 0.425199 0.750000 0.875720
O O3 0.395534 0.468426 0.882837
O O4 0.436532 0.576204 0.781594
O O5 0.211201 0.250000 0.818273
O O6 0.250000 0.040793 0.750000
O O7 0.147578 0.034169 0.776094
O O8 0.210709 0.983348 0.868779
O O9 0.845978 0.250000 0.556941
O O10 0.878263 0.000000 0.500000
O O11 0.797511 0.990465 0.571168
O O12 0.921383 0.371742 0.033517
O O13 0.898980 0.376303 0.926450
O O14 0.873221 0.750000 0.777435
O O15 0.930381 0.928604 0.844320
O O16 0.766679 0.250000 0.060299
O O17 0.785206 0.500000 0.000000
O O18 0.500000 0.462697 0.576339
#
# Coordination Sequence:
#
# PCOD9539028 Si02
#       7
#    16  16  16   8  16  16  16
#     4  10  22  41  63  90 126 167 210 258 309 365
#     4  11  25  45  66  90 123 162 206 257 311 372
#     4  11  22  39  66  97 128 163 202 246 304 373
#     4  10  21  36  60  86 118 164 210 252 300 354
#     4  11  24  40  61  91 121 163 208 254 312 365
#     4  11  22  41  68  97 128 162 204 255 311 373
#     4  11  20  37  59  87 121 161 208 253 300 355
#
# _framework density 21.754194999999999
#
# number of rings (size 3 to 8) (size 9 to 14) (size 15 to 20)
#    0.000    1.231    0.769    7.385    1.077    5.538 
#    2.769    0.000    0.000    0.000    0.000    0.000 
#    0.000    0.000    0.000    0.000    0.000    0.000 
#
# Total GULP energy -289546.206639 kJ/mol
# GULP energy per Si atom -5568.196282 kJ/mol
# Density = 2.170468 g / cm^3
# Si number density = 21.754195 Si / 1000 Ang^3
#
#
#
# Elastic Constant Matrix: (Units=GPa)
#
#
# Indices 1 2 3 4 5 6 
#
# 1 53.8411 18.2022 13.3084 0.0000 0.0000 0.0000
# 2 18.2022 160.8308 34.6951 0.0000 0.0000 0.0000
# 3 13.3084 34.6951 85.8937 0.0000 0.0000 0.0000
# 4 0.0000 0.0000 0.0000 34.9832 0.0000 0.0000
# 5 0.0000 0.0000 0.0000 0.0000 26.5166 0.0000
# 6 0.0000 0.0000 0.0000 0.0000 0.0000 29.6067
#
#
#
# Elastic Compliance Matrix: (Units=1/GPa)
#
#
# Indices 1 2 3 4 5 6 
#
# 1 0.019740 -0.001725 -0.002362 0.000000 0.000000 0.000000
# 2 -0.001725 0.006962 -0.002545 0.000000 0.000000 0.000000
# 3 -0.002362 -0.002545 0.013036 0.000000 0.000000 0.000000
# 4 0.000000 0.000000 0.000000 0.028585 0.000000 0.000000
# 5 0.000000 0.000000 0.000000 0.000000 0.037712 0.000000
# 6 0.000000 0.000000 0.000000 0.000000 0.000000 0.033776
#
#
# Mechanical properties :
#
#
# Convention : Reuss Voigt Hill
#
# Bulk Modulus (GPa) = 37.77104 48.10857 42.93980
# Shear Modulus (GPa) = 30.88333 33.84528 32.36431
#
# Velocity S-wave (km/s) = 3.77191 3.94865 3.86129
# Velocity P-wave (km/s) = 6.03076 6.55376 6.29769
#
# Compressibility (1/GPa) = 0.02647531
#
# Stress axis : x y z
#
# Youngs Moduli (GPa) = 50.65855 143.63901 76.70931
#
# Poissons Ratio (x) = 0.24772 0.18118
# Poissons Ratio (y) = 0.08736 0.19522
# Poissons Ratio (z) = 0.11965 0.36555
#
# Static dielectric constant tensor:
#      x y z
#    x 1.830200 0.000000 0.000000 
#    y 0.000000 1.787290 0.000000 
#    z 0.000000 0.000000 1.828980 
# 
# From -- ./inp_files/55181.got.cif
#   From: 2010.05.17/outbox.cif.g08.bks.cpg/sg74_28_cif.got.tgz:55181.got - 2010.06.03 17:57:02.
