data_PCOD9539924
_publ_section_title
;
Structure prediction by ZEFSAII (Michael W. Deem and Ramdas Pophale) SiO2 
 PCOD9539924
Probable space group: I M M A
;
_chemical_formula_sum "Si O2"
_cell_formula_units_Z 112
_cell_length_a 15.080342
_cell_length_b 14.644172
_cell_length_c 22.869318
_cell_angle_alpha 90.000000
_cell_angle_beta 90.000000
_cell_angle_gamma 90.000000
_cell_volume 5050.440109
_symmetry_space_group_name_H-M "I M M A"
_symmetry_group_IT_number 74
_symmetry_cell_setting 'orthorhombic'
loop_
_space_group_symop_operation_xyz
x,y,z
-x,1/2-y,z
x,-y,-z
-x,1/2+y,-z
-x,-y,-z
x,1/2+y,-z
-x,y,z
x,1/2-y,z
1/2+x,1/2+y,1/2+z
1/2-x,-y,1/2+z
1/2+x,1/2-y,1/2-z
1/2-x,y,1/2-z
1/2-x,1/2-y,1/2-z
1/2+x,y,1/2-z
1/2-x,1/2+y,1/2+z
1/2+x,-y,1/2+z
loop_
_atom_site_type_symbol
_atom_site_label
_atom_site_fract_x
_atom_site_fract_y
_atom_site_fract_z
Si Si1 0.899594 0.859085 0.376892
Si Si2 0.404467 0.852905 0.892035
Si Si3 0.721142 0.855570 0.447166
Si Si4 0.102472 0.480688 0.869001
Si Si5 0.857717 0.654010 0.743971
Si Si6 0.715014 0.358163 0.414768
Si Si7 0.356577 0.050522 0.751782
O O1 0.895595 0.750000 0.365538
O O2 0.820913 0.878637 0.423377
O O3 0.885366 0.909049 0.313938
O O4 0.000000 0.879608 0.397634
O O5 0.500000 0.895115 0.903878
O O6 0.404752 0.750000 0.918273
O O7 0.389452 0.841524 0.823091
O O8 0.314313 0.899158 0.910224
O O9 0.707425 0.750000 0.429754
O O10 0.701367 0.860638 0.516110
O O11 0.653153 0.923256 0.417588
O O12 0.152708 0.579443 0.874676
O O13 0.112442 0.415539 0.811283
O O14 0.000000 0.495927 0.880549
O O15 0.887674 0.750000 0.771697
O O16 0.750000 0.652234 0.750000
O O17 0.889938 0.553356 0.758005
O O18 0.714781 0.250000 0.396634
O O19 0.250000 0.052325 0.750000
#
# Coordination Sequence:
#
# PCOD9539924 Si02
#       7
#    16  16  16  16  16  16  16
#     4  10  22  41  66  97 131 168 214 269 328 392
#     4   9  18  33  56  87 122 160 201 248 302 363
#     4  10  23  44  68  92 123 167 214 268 330 382
#     4  12  26  43  64  94 128 166 216 269 322 383
#     4   9  18  33  54  83 122 165 208 251 297 358
#     4  10  22  42  66  93 129 169 212 264 321 383
#     4  11  21  38  64  91 128 174 210 261 325 388
#
# _framework density 22.176283999999999
#
# number of rings (size 3 to 8) (size 9 to 14) (size 15 to 20)
#    0.000    1.857    1.429    2.571    0.000    6.000 
#    0.000    4.286    0.000    1.714    0.000    0.000 
#    0.000    0.000    0.000    0.000    0.000    0.000 
#
# Total GULP energy -311983.463812 kJ/mol
# GULP energy per Si atom -5571.133282 kJ/mol
# Density = 2.212581 g / cm^3
# Si number density = 22.176284 Si / 1000 Ang^3
#
#
#
# Elastic Constant Matrix: (Units=GPa)
#
#
# Indices 1 2 3 4 5 6 
#
# 1 114.9903 8.1373 -20.4566 0.0000 0.0000 0.0000
# 2 8.1373 59.7436 2.2435 0.0000 0.0000 0.0000
# 3 -20.4566 2.2435 35.5954 0.0000 0.0000 0.0000
# 4 0.0000 0.0000 0.0000 21.8928 0.0000 0.0000
# 5 0.0000 0.0000 0.0000 0.0000 -13.5787 0.0000
# 6 0.0000 0.0000 0.0000 0.0000 0.0000 6.1140
#
#
#
# Elastic Compliance Matrix: (Units=1/GPa)
#
#
# Indices 1 2 3 4 5 6 
#
# 1 0.009829 -0.001554 0.005747 0.000000 0.000000 0.000000
# 2 -0.001554 0.017024 -0.001966 0.000000 0.000000 0.000000
# 3 0.005747 -0.001966 0.031520 0.000000 0.000000 0.000000
# 4 0.000000 0.000000 0.000000 0.045677 0.000000 0.000000
# 5 0.000000 0.000000 0.000000 0.000000 -0.073644 0.000000
# 6 0.000000 0.000000 0.000000 0.000000 0.000000 0.163559
#
#
# Mechanical properties :
#
#
# Convention : Reuss Voigt Hill
#
# Bulk Modulus (GPa) = 15.91755 21.13085 18.52420
# Shear Modulus (GPa) = 23.75814 17.57928 20.66871
#
# Velocity S-wave (km/s) = 3.27667 2.81856 3.05621
# Velocity P-wave (km/s) = 4.63775 4.48794 4.56346
#
# Compressibility (1/GPa) = 0.06282376
#
# Stress axis : x y z
#
# Youngs Moduli (GPa) = 101.74297 58.74142 31.72591
#
# Poissons Ratio (x) = 0.09131 -0.18231
# Poissons Ratio (y) = 0.15816 0.06238
# Poissons Ratio (z) = -0.58467 0.11551
#
# Static dielectric constant tensor:
#      x y z
#    x 1.825940 0.000000 0.000000 
#    y 0.000000 1.925260 0.000000 
#    z 0.000000 0.000000 1.866210 
# 
# From -- ./inp_files/60168.got.cif
#   From: 2010.05.17/outbox.cif.g08.bks.cpg/sg74_31_cif.got.tgz:60168.got - 2010.06.03 17:57:02.
