data_PCOD9539203
_publ_section_title
;
Structure prediction by ZEFSAII (Michael W. Deem and Ramdas Pophale) SiO2 
 PCOD9539203
Probable space group: I M M A
;
_chemical_formula_sum "Si O2"
_cell_formula_units_Z 96
_cell_length_a 13.326227
_cell_length_b 19.994967
_cell_length_c 14.626833
_cell_angle_alpha 90.000000
_cell_angle_beta 90.000000
_cell_angle_gamma 90.000000
_cell_volume 3897.428902
_symmetry_space_group_name_H-M "I M M A"
_symmetry_group_IT_number 74
_symmetry_cell_setting 'orthorhombic'
loop_
_space_group_symop_operation_xyz
x,y,z
-x,1/2-y,z
x,-y,-z
-x,1/2+y,-z
-x,-y,-z
x,1/2+y,-z
-x,y,z
x,1/2-y,z
1/2+x,1/2+y,1/2+z
1/2-x,-y,1/2+z
1/2+x,1/2-y,1/2-z
1/2-x,y,1/2-z
1/2-x,1/2-y,1/2-z
1/2+x,y,1/2-z
1/2-x,1/2+y,1/2+z
1/2+x,-y,1/2+z
loop_
_atom_site_type_symbol
_atom_site_label
_atom_site_fract_x
_atom_site_fract_y
_atom_site_fract_z
Si Si1 0.621200 0.750000 0.189937
Si Si2 0.616387 0.601569 0.174387
Si Si3 0.667155 0.046621 0.640911
Si Si4 0.182084 0.629917 0.977008
Si Si5 0.862207 0.597641 0.785222
Si Si6 0.890928 0.670169 0.597567
Si Si7 0.119285 0.250000 0.897096
O O1 0.500000 0.750000 0.194510
O O2 0.642621 0.677739 0.145694
O O3 0.658612 0.750000 0.294189
O O4 0.500000 0.584548 0.149899
O O5 0.624395 0.599438 0.285247
O O6 0.709436 0.552815 0.146976
O O7 0.648020 0.066570 0.536710
O O8 0.619394 0.977882 0.678709
O O9 0.129701 0.638379 0.879002
O O10 0.300440 0.631917 0.952149
O O11 0.156586 0.688443 0.044574
O O12 0.750000 0.590951 0.750000
O O13 0.902875 0.636835 0.697755
O O14 0.867528 0.750000 0.604693
O O15 0.000000 0.664051 0.551170
O O16 0.000000 0.250000 0.893613
#
# Coordination Sequence:
#
# PCOD9539203 Si02
#       7
#     8  16  16  16  16  16   8
#     4   9  18  36  58  86 123 164 214 265 318 382
#     4  10  21  37  60  89 126 172 221 268 317 389
#     4  11  22  40  62  93 128 176 218 269 328 404
#     4  11  23  39  65  94 133 168 213 277 334 397
#     4  10  22  41  63  90 124 168 218 267 323 391
#     4  10  23  44  70 101 134 173 224 281 343 406
#     4  11  22  37  59  93 128 168 212 269 337 395
#
# _framework density 24.631622
#
# number of rings (size 3 to 8) (size 9 to 14) (size 15 to 20)
#    0.000    1.667    4.167    0.500    1.167    5.000 
#    0.000    0.000    0.000    6.000    0.000    0.000 
#    0.000    0.000    0.000    0.000    0.000    0.000 
#
# Total GULP energy -267769.478068 kJ/mol
# GULP energy per Si atom -5578.530793 kJ/mol
# Density = 2.457556 g / cm^3
# Si number density = 24.631622 Si / 1000 Ang^3
#
#
#
# Elastic Constant Matrix: (Units=GPa)
#
#
# Indices 1 2 3 4 5 6 
#
# 1 105.5224 8.5286 13.7155 0.0000 0.0000 0.0000
# 2 8.5286 88.8823 11.8978 0.0000 -0.0001 0.0000
# 3 13.7155 11.8978 136.3185 0.0000 -0.0003 0.0000
# 4 0.0000 0.0000 0.0000 55.3227 0.0000 0.0000
# 5 0.0000 -0.0001 -0.0003 0.0000 -119.3085 0.0001
# 6 0.0000 0.0000 0.0000 0.0000 0.0001 31.9686
#
#
#
# Elastic Compliance Matrix: (Units=1/GPa)
#
#
# Indices 1 2 3 4 5 6 
#
# 1 0.009659 -0.000806 -0.000901 0.000000 0.000000 0.000000
# 2 -0.000806 0.011451 -0.000918 0.000000 0.000000 0.000000
# 3 -0.000901 -0.000918 0.007507 0.000000 0.000000 0.000000
# 4 0.000000 0.000000 0.000000 0.018076 0.000000 0.000000
# 5 0.000000 0.000000 0.000000 0.000000 -0.008382 0.000000
# 6 0.000000 0.000000 0.000000 0.000000 0.000000 0.031281
#
#
# Mechanical properties :
#
#
# Convention : Reuss Voigt Hill
#
# Bulk Modulus (GPa) = 42.79939 44.33410 43.56674
# Shear Modulus (GPa) = 60.50950 13.36865 36.93907
#
# Velocity S-wave (km/s) = 4.96176 2.33221 3.87675
# Velocity P-wave (km/s) = 7.08795 5.02894 6.14529
#
# Compressibility (1/GPa) = 0.02336482
#
# Stress axis : x y z
#
# Youngs Moduli (GPa) = 103.53059 87.32775 133.21592
#
# Poissons Ratio (x) = 0.07040 0.12009
# Poissons Ratio (y) = 0.08346 0.12234
# Poissons Ratio (z) = 0.09333 0.08020
#
# Static dielectric constant tensor:
#      x y z
#    x 2.020840 0.000000 0.000000 
#    y 0.000000 1.884550 0.000000 
#    z 0.000000 0.000000 1.942100 
# 
# From -- ./inp_files/32454.got.cif
#   From: 2010.05.17/outbox.cif.g08.bks.cpg/sg74_17_cif.got.tgz:32454.got - 2010.06.03 17:57:02.
