data_PCOD9539516
_publ_section_title
;
Structure prediction by ZEFSAII (Michael W. Deem and Ramdas Pophale) SiO2 
 PCOD9539516
Probable space group: I M M A
;
_chemical_formula_sum "Si O2"
_cell_formula_units_Z 64
_cell_length_a 13.259002
_cell_length_b 13.423081
_cell_length_c 16.147008
_cell_angle_alpha 90.000000
_cell_angle_beta 90.000000
_cell_angle_gamma 90.000000
_cell_volume 2873.790518
_symmetry_space_group_name_H-M "I M M A"
_symmetry_group_IT_number 74
_symmetry_cell_setting 'orthorhombic'
loop_
_space_group_symop_operation_xyz
x,y,z
-x,1/2-y,z
x,-y,-z
-x,1/2+y,-z
-x,-y,-z
x,1/2+y,-z
-x,y,z
x,1/2-y,z
1/2+x,1/2+y,1/2+z
1/2-x,-y,1/2+z
1/2+x,1/2-y,1/2-z
1/2-x,y,1/2-z
1/2-x,1/2-y,1/2-z
1/2+x,y,1/2-z
1/2-x,1/2+y,1/2+z
1/2+x,-y,1/2+z
loop_
_atom_site_type_symbol
_atom_site_label
_atom_site_fract_x
_atom_site_fract_y
_atom_site_fract_z
Si Si1 0.610536 0.871106 0.043378
Si Si2 0.797509 0.362734 0.841705
Si Si3 0.610350 0.565310 0.681304
Si Si4 0.328624 0.367234 0.139660
O O1 0.500000 0.902458 0.073848
O O2 0.610112 0.750000 0.044001
O O3 0.706769 0.896419 0.098396
O O4 0.626967 0.900601 0.948006
O O5 0.830373 0.250000 0.862676
O O6 0.750000 0.359843 0.750000
O O7 0.879697 0.449047 0.841528
O O8 0.500000 0.604109 0.658787
O O9 0.627278 0.578114 0.780028
O O10 0.707468 0.618558 0.641328
O O11 0.351091 0.250000 0.150018
#
# Coordination Sequence:
#
# PCOD9539516 Si02
#       4
#    16  16  16  16
#     4   9  19  38  66  93 117 152 199 254 310 354
#     4  10  21  40  60  84 122 158 199 250 298 357
#     4  11  22  38  59  88 124 163 203 239 299 368
#     4  10  21  40  63  93 125 152 199 258 305 355
#
# _framework density 22.270240000000001
#
# number of rings (size 3 to 8) (size 9 to 14) (size 15 to 20)
#    0.000    2.000    2.500    2.250    0.000    5.500 
#    0.000    6.250    0.000    4.500    0.000    0.000 
#    0.000    0.000    0.000    0.000    0.000    0.000 
#
# Total GULP energy -178925.938677 kJ/mol
# GULP energy per Si atom -5591.435584 kJ/mol
# Density = 2.221955 g / cm^3
# Si number density = 22.270240 Si / 1000 Ang^3
#
#
#
# Elastic Constant Matrix: (Units=GPa)
#
#
# Indices 1 2 3 4 5 6 
#
# 1 117.8381 12.5657 28.9515 0.0000 0.0000 0.0000
# 2 12.5657 101.2220 18.6897 0.0000 0.0000 0.0000
# 3 28.9515 18.6897 70.9571 0.0000 0.0000 0.0000
# 4 0.0000 0.0000 0.0000 28.5615 0.0000 0.0000
# 5 0.0000 0.0000 0.0000 0.0000 11.5975 0.0000
# 6 0.0000 0.0000 0.0000 0.0000 0.0000 15.9923
#
#
#
# Elastic Compliance Matrix: (Units=1/GPa)
#
#
# Indices 1 2 3 4 5 6 
#
# 1 0.009454 -0.000485 -0.003730 0.000000 0.000000 0.000000
# 2 -0.000485 0.010409 -0.002544 0.000000 0.000000 0.000000
# 3 -0.003730 -0.002544 0.016285 0.000000 0.000000 0.000000
# 4 0.000000 0.000000 0.000000 0.035012 0.000000 0.000000
# 5 0.000000 0.000000 0.000000 0.000000 0.086226 0.000000
# 6 0.000000 0.000000 0.000000 0.000000 0.000000 0.062530
#
#
# Mechanical properties :
#
#
# Convention : Reuss Voigt Hill
#
# Bulk Modulus (GPa) = 44.18684 45.60345 44.89515
# Shear Modulus (GPa) = 20.74885 26.55093 23.64989
#
# Velocity S-wave (km/s) = 3.05566 3.45659 3.26229
# Velocity P-wave (km/s) = 5.68627 6.03759 5.86456
#
# Compressibility (1/GPa) = 0.02263117
#
# Stress axis : x y z
#
# Youngs Moduli (GPa) = 105.77204 96.06901 61.40678
#
# Poissons Ratio (x) = 0.04659 0.22903
# Poissons Ratio (y) = 0.05130 0.15621
# Poissons Ratio (z) = 0.39450 0.24438
#
# Static dielectric constant tensor:
#      x y z
#    x 1.766630 0.000000 0.000000 
#    y 0.000000 1.901900 0.000000 
#    z 0.000000 0.000000 1.778570 
# 
# From -- ./inp_files/40698.got.cif
#   From: 2010.05.17/outbox.cif.g08.bks.cpg/sg74_21_cif.got.tgz:40698.got - 2010.06.03 17:57:02.
