data_PCOD9539665
_publ_section_title
;
Structure prediction by ZEFSAII (Michael W. Deem and Ramdas Pophale) SiO2 
 PCOD9539665
Probable space group: I M M A
;
_chemical_formula_sum "Si O2"
_cell_formula_units_Z 84
_cell_length_a 13.783422
_cell_length_b 24.214062
_cell_length_c 14.024332
_cell_angle_alpha 90.000000
_cell_angle_beta 90.000000
_cell_angle_gamma 90.000000
_cell_volume 4680.657757
_symmetry_space_group_name_H-M "I M M A"
_symmetry_group_IT_number 74
_symmetry_cell_setting 'orthorhombic'
loop_
_space_group_symop_operation_xyz
x,y,z
-x,1/2-y,z
x,-y,-z
-x,1/2+y,-z
-x,-y,-z
x,1/2+y,-z
-x,y,z
x,1/2-y,z
1/2+x,1/2+y,1/2+z
1/2-x,-y,1/2+z
1/2+x,1/2-y,1/2-z
1/2-x,y,1/2-z
1/2-x,1/2-y,1/2-z
1/2+x,y,1/2-z
1/2-x,1/2+y,1/2+z
1/2+x,-y,1/2+z
loop_
_atom_site_type_symbol
_atom_site_label
_atom_site_fract_x
_atom_site_fract_y
_atom_site_fract_z
Si Si1 0.000000 0.250000 0.228244
Si Si2 0.500000 0.146655 0.132002
Si Si3 0.000000 0.959350 0.403297
Si Si4 0.686164 0.524565 0.602143
Si Si5 0.292201 0.911698 0.147689
Si Si6 0.212567 0.138365 0.452414
Si Si7 0.792815 0.250000 0.143165
Si Si8 0.000000 0.456245 0.231058
O O1 0.000000 0.299827 0.302632
O O2 0.907035 0.250000 0.160804
O O3 0.402300 0.142243 0.069854
O O4 0.500000 0.099982 0.211878
O O5 0.904343 0.922487 0.383356
O O6 0.000000 0.000000 0.500000
O O7 0.000000 0.999762 0.314343
O O8 0.653445 0.500000 0.500000
O O9 0.749420 0.473672 0.639662
O O10 0.747907 0.580890 0.593237
O O11 0.594730 0.536643 0.667243
O O12 0.250000 0.892110 0.250000
O O13 0.260073 0.870463 0.063265
O O14 0.258804 0.193908 0.409025
O O15 0.750000 0.250000 0.250000
#
# Coordination Sequence:
#
# PCOD9539665 Si02
#       8
#     4   8   8  16  16  16   8   8
#     4  12  24  40  64  94 120 160 196 246 310 370
#     4  12  22  35  60  90 119 157 204 256 304 360
#     4  12  22  37  58  90 124 162 212 259 302 365
#     4  10  22  37  55  84 124 164 202 247 307 374
#     4  11  22  40  60  87 124 166 208 254 310 369
#     4  11  24  40  61  89 123 161 206 257 307 364
#     4  12  24  44  65  90 127 157 204 253 315 375
#     4  12  21  32  58  84 124 162 205 245 307 368
#
# _framework density 17.946196
#
# number of rings (size 3 to 8) (size 9 to 14) (size 15 to 20)
#    0.000    0.762    3.810    6.000    0.000    0.000 
#    0.000    2.857    0.000    0.000    0.000    0.000 
#    0.000    0.000    0.000    0.000    0.000    0.000 
#
# Total GULP energy -234185.032848 kJ/mol
# GULP energy per Si atom -5575.834115 kJ/mol
# Density = 1.790535 g / cm^3
# Si number density = 17.946196 Si / 1000 Ang^3
#
#
#
# Elastic Constant Matrix: (Units=GPa)
#
#
# Indices 1 2 3 4 5 6 
#
# 1 129.5355 32.1679 61.3887 0.0000 0.0000 0.0000
# 2 32.1679 122.3952 62.5791 0.0001 0.0000 0.0000
# 3 61.3887 62.5791 145.8112 0.0001 0.0000 0.0000
# 4 0.0000 0.0001 0.0001 48.7403 0.0000 0.0000
# 5 0.0000 0.0000 0.0000 0.0000 30.3909 0.0000
# 6 0.0000 0.0000 0.0000 0.0000 0.0000 28.3655
#
#
#
# Elastic Compliance Matrix: (Units=1/GPa)
#
#
# Indices 1 2 3 4 5 6 
#
# 1 0.009677 -0.000590 -0.003821 0.000000 0.000000 0.000000
# 2 -0.000590 0.010503 -0.004259 0.000000 0.000000 0.000000
# 3 -0.003821 -0.004259 0.010295 0.000000 0.000000 0.000000
# 4 0.000000 0.000000 0.000000 0.020517 0.000000 0.000000
# 5 0.000000 0.000000 0.000000 0.000000 0.032905 0.000000
# 6 0.000000 0.000000 0.000000 0.000000 0.000000 0.035254
#
#
# Mechanical properties :
#
#
# Convention : Reuss Voigt Hill
#
# Bulk Modulus (GPa) = 76.13394 78.89035 77.51214
# Shear Modulus (GPa) = 35.49381 37.60642 36.55011
#
# Velocity S-wave (km/s) = 4.45206 4.58264 4.51782
# Velocity P-wave (km/s) = 8.30321 8.48856 8.39640
#
# Compressibility (1/GPa) = 0.01313475
#
# Stress axis : x y z
#
# Youngs Moduli (GPa) = 103.33524 95.21078 97.13437
#
# Poissons Ratio (x) = 0.05614 0.37117
# Poissons Ratio (y) = 0.06093 0.41374
# Poissons Ratio (z) = 0.39486 0.40554
#
# Static dielectric constant tensor:
#      x y z
#    x 1.707300 0.000000 0.000000 
#    y 0.000000 1.559820 0.000000 
#    z 0.000000 0.000000 1.405870 
# 
# From -- ./inp_files/30851.got.cif
#   From: 2010.05.17/outbox.cif.g08.bks.cpg/sg74_16_cif.got.tgz:30851.got - 2010.06.03 17:57:02.
