data_PCOD9539384
_publ_section_title
;
Structure prediction by ZEFSAII (Michael W. Deem and Ramdas Pophale) SiO2 
 PCOD9539384
Probable space group: I M M A
;
_chemical_formula_sum "Si O2"
_cell_formula_units_Z 112
_cell_length_a 26.359550
_cell_length_b 15.426595
_cell_length_c 12.776725
_cell_angle_alpha 90.000000
_cell_angle_beta 90.000000
_cell_angle_gamma 90.000000
_cell_volume 5195.503207
_symmetry_space_group_name_H-M "I M M A"
_symmetry_group_IT_number 74
_symmetry_cell_setting 'orthorhombic'
loop_
_space_group_symop_operation_xyz
x,y,z
-x,1/2-y,z
x,-y,-z
-x,1/2+y,-z
-x,-y,-z
x,1/2+y,-z
-x,y,z
x,1/2-y,z
1/2+x,1/2+y,1/2+z
1/2-x,-y,1/2+z
1/2+x,1/2-y,1/2-z
1/2-x,y,1/2-z
1/2-x,1/2-y,1/2-z
1/2+x,y,1/2-z
1/2-x,1/2+y,1/2+z
1/2+x,-y,1/2+z
loop_
_atom_site_type_symbol
_atom_site_label
_atom_site_fract_x
_atom_site_fract_y
_atom_site_fract_z
Si Si1 0.749970 0.854536 0.540150
Si Si2 0.939622 0.101819 0.529639
Si Si3 0.889863 0.037634 0.172244
Si Si4 0.716195 0.024863 0.648760
Si Si5 0.060017 0.652423 0.001650
Si Si6 0.640265 0.845481 0.865975
Si Si7 0.442439 0.882822 0.264510
O O1 0.738619 0.750000 0.543876
O O2 0.722676 0.922369 0.618531
O O3 0.809238 0.866806 0.568344
O O4 0.736115 0.903210 0.432541
O O5 0.906967 0.151223 0.444234
O O6 0.920565 0.126018 0.647233
O O7 0.000000 0.118648 0.524069
O O8 0.932332 0.000000 0.500000
O O9 0.844291 0.969202 0.156669
O O10 0.905956 0.089827 0.069250
O O11 0.870663 0.094346 0.268365
O O12 0.938515 0.985148 0.212466
O O13 0.750000 0.037912 0.750000
O O14 0.063950 0.750000 0.959376
O O15 0.000000 0.626831 0.998125
O O16 0.075339 0.654648 0.124104
O O17 0.648468 0.750000 0.822852
O O18 0.500000 0.852779 0.254860
#
# Coordination Sequence:
#
# PCOD9539384 Si02
#       7
#    16  16  16  16  16  16  16
#     4  10  25  46  67  96 133 172 222 276 333 400
#     4  10  21  38  63  95 129 168 215 266 319 389
#     4  12  23  40  64  97 128 167 221 270 325 401
#     4  11  25  43  69  97 129 177 218 273 338 394
#     4  10  23  42  63  91 132 176 217 270 330 388
#     4  11  24  41  66  96 130 173 212 269 340 397
#     4  10  22  39  64  91 125 172 217 265 322 386
#
# _framework density 21.557103000000001
#
# number of rings (size 3 to 8) (size 9 to 14) (size 15 to 20)
#    0.000    1.429    2.857    1.286    8.000    4.286 
#    0.000    1.429    0.000    0.000    0.000    0.000 
#    0.000    0.000    0.000    0.000    0.000    0.000 
#
# Total GULP energy -312225.732190 kJ/mol
# GULP energy per Si atom -5575.459503 kJ/mol
# Density = 2.150804 g / cm^3
# Si number density = 21.557103 Si / 1000 Ang^3
#
#
#
# Elastic Constant Matrix: (Units=GPa)
#
#
# Indices 1 2 3 4 5 6 
#
# 1 74.2303 36.8968 30.4432 0.0000 0.0000 0.0000
# 2 36.8968 85.1755 31.7383 0.0000 0.0000 0.0000
# 3 30.4432 31.7383 126.6678 0.0000 0.0000 0.0000
# 4 0.0000 0.0000 0.0000 -23.0870 0.0000 0.0000
# 5 0.0000 0.0000 0.0000 0.0000 26.6850 0.0000
# 6 0.0000 0.0000 0.0000 0.0000 0.0000 -13.8465
#
#
#
# Elastic Compliance Matrix: (Units=1/GPa)
#
#
# Indices 1 2 3 4 5 6 
#
# 1 0.017915 -0.006790 -0.002604 0.000000 0.000000 0.000000
# 2 -0.006790 0.015523 -0.002258 0.000000 0.000000 0.000000
# 3 -0.002604 -0.002258 0.009086 0.000000 0.000000 0.000000
# 4 0.000000 0.000000 0.000000 -0.043314 0.000000 0.000000
# 5 0.000000 0.000000 0.000000 0.000000 0.037474 0.000000
# 6 0.000000 0.000000 0.000000 0.000000 0.000000 -0.072221
#
#
# Mechanical properties :
#
#
# Convention : Reuss Voigt Hill
#
# Bulk Modulus (GPa) = 52.02848 53.80334 52.91591
# Shear Modulus (GPa) = -858.15078 10.41667 -423.86705
#
# Velocity S-wave (km/s) = -19.97365 2.20059 -14.03752
# Velocity P-wave (km/s) = 22.53312 5.60977 15.43166
#
# Compressibility (1/GPa) = 0.01922024
#
# Stress axis : x y z
#
# Youngs Moduli (GPa) = 55.82024 64.42053 110.05646
#
# Poissons Ratio (x) = 0.43741 0.28662
# Poissons Ratio (y) = 0.37902 0.24846
# Poissons Ratio (z) = 0.14537 0.14544
#
# Static dielectric constant tensor:
#      x y z
#    x 1.839130 0.000000 0.000000 
#    y 0.000000 1.807170 0.000000 
#    z 0.000000 0.000000 1.792070 
# 
# From -- ./inp_files/27208.got.cif
#   From: 2010.05.17/outbox.cif.g08.bks.cpg/sg74_14_cif.got.tgz:27208.got - 2010.06.03 17:57:02.
