data_PCOD9539310
_publ_section_title
;
Structure prediction by ZEFSAII (Michael W. Deem and Ramdas Pophale) SiO2 
 PCOD9539310
Probable space group: I M M A
;
_chemical_formula_sum "Si O2"
_cell_formula_units_Z 80
_cell_length_a 15.940465
_cell_length_b 8.652329
_cell_length_c 29.723334
_cell_angle_alpha 90.000000
_cell_angle_beta 90.000000
_cell_angle_gamma 90.000000
_cell_volume 4099.506059
_symmetry_space_group_name_H-M "I M M A"
_symmetry_group_IT_number 74
_symmetry_cell_setting 'orthorhombic'
loop_
_space_group_symop_operation_xyz
x,y,z
-x,1/2-y,z
x,-y,-z
-x,1/2+y,-z
-x,-y,-z
x,1/2+y,-z
-x,y,z
x,1/2-y,z
1/2+x,1/2+y,1/2+z
1/2-x,-y,1/2+z
1/2+x,1/2-y,1/2-z
1/2-x,y,1/2-z
1/2-x,1/2-y,1/2-z
1/2+x,y,1/2-z
1/2-x,1/2+y,1/2+z
1/2+x,-y,1/2+z
loop_
_atom_site_type_symbol
_atom_site_label
_atom_site_fract_x
_atom_site_fract_y
_atom_site_fract_z
Si Si1 0.343460 0.434272 0.046949
Si Si2 0.345971 0.065386 0.547393
Si Si3 0.406886 0.064059 0.860978
Si Si4 0.752833 0.936885 0.198060
Si Si5 0.906349 0.934660 0.859476
O O1 0.337865 0.250000 0.044515
O O2 0.249725 0.504339 0.051795
O O3 0.393954 0.487354 0.090526
O O4 0.378236 0.500000 0.000000
O O5 0.345418 0.250000 0.546232
O O6 0.378906 0.000000 0.500000
O O7 0.394232 0.005200 0.590914
O O8 0.500000 0.028202 0.843415
O O9 0.400918 0.250000 0.866461
O O10 0.331471 0.015184 0.828320
O O11 0.756708 0.750000 0.196786
O O12 0.750000 0.985591 0.250000
O O13 0.833580 0.001133 0.172334
O O14 0.898418 0.750000 0.862715
O O15 0.000000 0.972680 0.842882
#
# Coordination Sequence:
#
# PCOD9539310 Si02
#       5
#    16  16  16  16  16
#     4  11  21  35  58  87 121 161 203 247 297 356
#     4  11  21  36  60  89 123 163 205 249 301 359
#     4  10  21  38  60  88 123 161 201 248 301 361
#     4  10  22  41  66  93 121 157 202 254 310 365
#     4  11  24  41  62  91 126 164 205 251 304 362
#
# _framework density 19.514545999999999
#
# number of rings (size 3 to 8) (size 9 to 14) (size 15 to 20)
#    0.000    1.400    2.000    5.400    0.000    4.000 
#    0.000    2.000    0.000    0.000    0.000    0.000 
#    0.000    0.000    0.000    0.000    0.000    0.000 
#
# Total GULP energy -223630.318443 kJ/mol
# GULP energy per Si atom -5590.757961 kJ/mol
# Density = 1.947013 g / cm^3
# Si number density = 19.514546 Si / 1000 Ang^3
#
#
#
# Elastic Constant Matrix: (Units=GPa)
#
#
# Indices 1 2 3 4 5 6 
#
# 1 148.1272 52.6847 90.1896 0.0000 0.0000 0.0000
# 2 52.6847 64.7857 47.3806 0.0000 0.0000 0.0000
# 3 90.1896 47.3806 156.1815 0.0000 0.0000 0.0000
# 4 0.0000 0.0000 0.0000 28.3014 0.0000 0.0000
# 5 0.0000 0.0000 0.0000 0.0000 -4.9681 0.0000
# 6 0.0000 0.0000 0.0000 0.0000 0.0000 -5.8852
#
#
#
# Elastic Compliance Matrix: (Units=1/GPa)
#
#
# Indices 1 2 3 4 5 6 
#
# 1 0.012001 -0.006029 -0.005101 0.000000 0.000000 0.000000
# 2 -0.006029 0.022865 -0.003455 0.000000 0.000000 0.000000
# 3 -0.005101 -0.003455 0.010397 0.000000 0.000000 0.000000
# 4 0.000000 0.000000 0.000000 0.035334 0.000000 0.000000
# 5 0.000000 0.000000 0.000000 0.000000 -0.201286 0.000000
# 6 0.000000 0.000000 0.000000 0.000000 0.000000 -0.169917
#
#
# Mechanical properties :
#
#
# Convention : Reuss Voigt Hill
#
# Bulk Modulus (GPa) = 62.14025 83.28937 72.71481
# Shear Modulus (GPa) = -19.52584 15.41225 -2.05679
#
# Velocity S-wave (km/s) = -3.16662 2.81336 -1.02775
# Velocity P-wave (km/s) = 4.30606 7.30251 5.99453
#
# Compressibility (1/GPa) = 0.01609263
#
# Stress axis : x y z
#
# Youngs Moduli (GPa) = 83.32448 43.73481 96.18266
#
# Poissons Ratio (x) = 0.26367 0.49067
# Poissons Ratio (y) = 0.50234 0.33233
# Poissons Ratio (z) = 0.42507 0.15111
#
# Static dielectric constant tensor:
#      x y z
#    x 1.699590 0.000000 0.000000 
#    y 0.000000 1.655960 0.000000 
#    z 0.000000 0.000000 1.660370 
# 
# From -- ./inp_files/72851.got.cif
#   From: 2010.05.17/outbox.cif.g08.bks.cpg/sg74_37_cif.got.tgz:72851.got - 2010.06.03 17:57:02.
