data_PCOD9539476
_publ_section_title
;
Structure prediction by ZEFSAII (Michael W. Deem and Ramdas Pophale) SiO2 
 PCOD9539476
Probable space group: I M M A
;
_chemical_formula_sum "Si O2"
_cell_formula_units_Z 112
_cell_length_a 23.835698
_cell_length_b 13.746139
_cell_length_c 16.918135
_cell_angle_alpha 90.000000
_cell_angle_beta 90.000000
_cell_angle_gamma 90.000000
_cell_volume 5543.206933
_symmetry_space_group_name_H-M "I M M A"
_symmetry_group_IT_number 74
_symmetry_cell_setting 'orthorhombic'
loop_
_space_group_symop_operation_xyz
x,y,z
-x,1/2-y,z
x,-y,-z
-x,1/2+y,-z
-x,-y,-z
x,1/2+y,-z
-x,y,z
x,1/2-y,z
1/2+x,1/2+y,1/2+z
1/2-x,-y,1/2+z
1/2+x,1/2-y,1/2-z
1/2-x,y,1/2-z
1/2-x,1/2-y,1/2-z
1/2+x,y,1/2-z
1/2-x,1/2+y,1/2+z
1/2+x,-y,1/2+z
loop_
_atom_site_type_symbol
_atom_site_label
_atom_site_fract_x
_atom_site_fract_y
_atom_site_fract_z
Si Si1 0.836033 0.862112 0.556638
Si Si2 0.272851 0.140301 0.553423
Si Si3 0.121101 0.633535 0.279616
Si Si4 0.433448 0.042435 0.623761
Si Si5 0.722923 0.506846 0.173902
Si Si6 0.936554 0.868067 0.444842
Si Si7 0.388168 0.361991 0.466991
O O1 0.841482 0.750000 0.583174
O O2 0.786888 0.863836 0.490588
O O3 0.893003 0.894181 0.513797
O O4 0.814812 0.932916 0.624452
O O5 0.280277 0.250000 0.586351
O O6 0.269631 0.056976 0.618609
O O7 0.322962 0.125468 0.491472
O O8 0.120734 0.750000 0.272434
O O9 0.094988 0.586278 0.201475
O O10 0.183223 0.593589 0.295400
O O11 0.085974 0.604941 0.358082
O O12 0.500000 0.034075 0.634587
O O13 0.420854 0.110908 0.547893
O O14 0.407501 0.938557 0.598514
O O15 0.750000 0.457686 0.250000
O O16 0.936437 0.750000 0.444968
O O17 0.000000 0.900940 0.457080
O O18 0.397584 0.250000 0.445171
#
# Coordination Sequence:
#
# PCOD9539476 Si02
#       7
#    16  16  16  16  16  16  16
#     4  10  22  41  63  92 126 165 211 256 309 378
#     4  10  21  39  64  91 122 160 204 258 318 374
#     4  11  23  40  60  92 130 163 208 265 325 378
#     4  11  24  39  61  92 126 168 214 260 324 390
#     4  12  25  37  62  92 128 170 208 258 316 379
#     4   9  18  37  66  94 122 160 204 252 310 373
#     4  10  22  39  63  91 123 166 216 267 318 381
#
# _framework density 20.204910000000002
#
# number of rings (size 3 to 8) (size 9 to 14) (size 15 to 20)
#    0.000    1.571    1.429    3.429    6.000    5.143 
#    0.000    2.857    0.000    0.000    0.000    0.000 
#    0.000    0.000    0.000    0.000    0.000    0.000 
#
# Total GULP energy -313189.096620 kJ/mol
# GULP energy per Si atom -5592.662440 kJ/mol
# Density = 2.015892 g / cm^3
# Si number density = 20.204910 Si / 1000 Ang^3
#
#
#
# Elastic Constant Matrix: (Units=GPa)
#
#
# Indices 1 2 3 4 5 6 
#
# 1 79.9308 24.8987 29.3354 0.0000 0.0000 0.0000
# 2 24.8987 120.9645 60.9384 0.0000 0.0000 0.0000
# 3 29.3354 60.9384 115.5877 0.0000 0.0000 0.0000
# 4 0.0000 0.0000 0.0000 18.6593 0.0000 0.0000
# 5 0.0000 0.0000 0.0000 0.0000 21.5202 0.0000
# 6 0.0000 0.0000 0.0000 0.0000 0.0000 21.7582
#
#
#
# Elastic Compliance Matrix: (Units=1/GPa)
#
#
# Indices 1 2 3 4 5 6 
#
# 1 0.013989 -0.001485 -0.002767 0.000000 0.000000 0.000000
# 2 -0.001485 0.011414 -0.005641 0.000000 0.000000 0.000000
# 3 -0.002767 -0.005641 0.012328 0.000000 0.000000 0.000000
# 4 0.000000 0.000000 0.000000 0.053592 0.000000 0.000000
# 5 0.000000 0.000000 0.000000 0.000000 0.046468 0.000000
# 6 0.000000 0.000000 0.000000 0.000000 0.000000 0.045960
#
#
# Mechanical properties :
#
#
# Convention : Reuss Voigt Hill
#
# Bulk Modulus (GPa) = 55.72798 60.75866 58.24332
# Shear Modulus (GPa) = 23.86418 25.80824 24.83621
#
# Velocity S-wave (km/s) = 3.44045 3.57785 3.50982
# Velocity P-wave (km/s) = 6.58966 6.87055 6.73157
#
# Compressibility (1/GPa) = 0.01794431
#
# Stress axis : x y z
#
# Youngs Moduli (GPa) = 71.48409 87.60996 81.11929
#
# Poissons Ratio (x) = 0.13014 0.22448
# Poissons Ratio (y) = 0.10618 0.45757
# Poissons Ratio (z) = 0.19781 0.49418
#
# Static dielectric constant tensor:
#      x y z
#    x 1.721330 0.000000 0.000000 
#    y 0.000000 1.730010 0.000000 
#    z 0.000000 0.000000 1.702590 
# 
# From -- ./inp_files/36482.got.cif
#   From: 2010.05.17/outbox.cif.g08.bks.cpg/sg74_19_cif.got.tgz:36482.got - 2010.06.03 17:57:02.
