data_PCOD9539423
_publ_section_title
;
Structure prediction by ZEFSAII (Michael W. Deem and Ramdas Pophale) SiO2 
 PCOD9539423
Probable space group: I M M A
;
_chemical_formula_sum "Si O2"
_cell_formula_units_Z 84
_cell_length_a 21.220643
_cell_length_b 8.860285
_cell_length_c 24.403385
_cell_angle_alpha 90.000000
_cell_angle_beta 90.000000
_cell_angle_gamma 90.000000
_cell_volume 4588.347506
_symmetry_space_group_name_H-M "I M M A"
_symmetry_group_IT_number 74
_symmetry_cell_setting 'orthorhombic'
loop_
_space_group_symop_operation_xyz
x,y,z
-x,1/2-y,z
x,-y,-z
-x,1/2+y,-z
-x,-y,-z
x,1/2+y,-z
-x,y,z
x,1/2-y,z
1/2+x,1/2+y,1/2+z
1/2-x,-y,1/2+z
1/2+x,1/2-y,1/2-z
1/2-x,y,1/2-z
1/2-x,1/2-y,1/2-z
1/2+x,y,1/2-z
1/2-x,1/2+y,1/2+z
1/2+x,-y,1/2+z
loop_
_atom_site_type_symbol
_atom_site_label
_atom_site_fract_x
_atom_site_fract_y
_atom_site_fract_z
Si Si1 0.500000 0.250000 0.130946
Si Si2 0.630988 0.917597 0.862926
Si Si3 0.075462 0.922543 0.055877
Si Si4 0.825898 0.923727 0.251240
Si Si5 0.163787 0.427568 0.135666
Si Si6 0.273407 0.930772 0.060464
O O1 0.556993 0.120392 0.131848
O O2 0.662045 0.750000 0.861457
O O3 0.648184 0.002635 0.806767
O O4 0.661452 0.008680 0.913131
O O5 0.098344 0.750000 0.059809
O O6 0.000000 0.919520 0.055109
O O7 0.100813 0.022897 0.104654
O O8 0.097993 0.000000 0.000000
O O9 0.847277 0.750000 0.246827
O O10 0.750000 0.922987 0.250000
O O11 0.843116 0.018341 0.197752
O O12 0.174331 0.250000 0.132603
O O13 0.219643 0.512864 0.102865
O O14 0.272845 0.750000 0.057625
O O15 0.263791 0.000000 0.000000
#
# Coordination Sequence:
#
# PCOD9539423 Si02
#       6
#     4  16  16  16  16  16
#     4   8  24  44  70  92 130 164 214 266 320 386
#     4  10  21  43  67  92 127 163 207 259 321 378
#     4  10  21  39  60  83 121 168 212 256 303 363
#     4  11  22  38  64  96 126 163 202 253 311 377
#     4  12  24  38  60  94 128 167 210 259 316 372
#     4  12  24  40  65  96 128 164 208 268 324 383
#
# _framework density 18.307244000000001
#
# number of rings (size 3 to 8) (size 9 to 14) (size 15 to 20)
#    0.571    0.571    1.905    5.714    0.000    1.905 
#    1.714    2.381    0.000    0.000    0.000    0.000 
#    0.000    0.000    0.000    0.000    0.000    0.000 
#
# Total GULP energy -233937.984750 kJ/mol
# GULP energy per Si atom -5569.952018 kJ/mol
# Density = 1.826558 g / cm^3
# Si number density = 18.307244 Si / 1000 Ang^3
#
#
#
# Elastic Constant Matrix: (Units=GPa)
#
#
# Indices 1 2 3 4 5 6 
#
# 1 52.7750 28.1588 10.0522 0.0000 0.0000 0.0000
# 2 28.1588 168.9443 41.2925 0.0000 0.0000 0.0000
# 3 10.0522 41.2925 89.5462 0.0000 0.0000 0.0000
# 4 0.0000 0.0000 0.0000 34.2063 0.0000 0.0000
# 5 0.0000 0.0000 0.0000 0.0000 -5.7857 0.0000
# 6 0.0000 0.0000 0.0000 0.0000 0.0000 15.3257
#
#
#
# Elastic Compliance Matrix: (Units=1/GPa)
#
#
# Indices 1 2 3 4 5 6 
#
# 1 0.020853 -0.003272 -0.000832 0.000000 0.000000 0.000000
# 2 -0.003272 0.007184 -0.002946 0.000000 0.000000 0.000000
# 3 -0.000832 -0.002946 0.012619 0.000000 0.000000 0.000000
# 4 0.000000 0.000000 0.000000 0.029234 0.000000 0.000000
# 5 0.000000 0.000000 0.000000 0.000000 -0.172840 0.000000
# 6 0.000000 0.000000 0.000000 0.000000 0.000000 0.065250
#
#
# Mechanical properties :
#
#
# Convention : Reuss Voigt Hill
#
# Bulk Modulus (GPa) = 37.65530 52.25250 44.95390
# Shear Modulus (GPa) = -339.04168 24.20006 -157.42081
#
# Velocity S-wave (km/s) = -13.62341 3.63972 -9.28305
# Velocity P-wave (km/s) = 15.06154 6.80201 9.50218
#
# Compressibility (1/GPa) = 0.02655668
#
# Stress axis : x y z
#
# Youngs Moduli (GPa) = 47.95515 139.18887 79.24476
#
# Poissons Ratio (x) = 0.45547 0.06593
# Poissons Ratio (y) = 0.15692 0.23343
# Poissons Ratio (z) = 0.03989 0.41000
#
# Static dielectric constant tensor:
#      x y z
#    x 1.647620 0.000000 0.000000 
#    y 0.000000 1.630000 0.000000 
#    z 0.000000 0.000000 1.440470 
# 
# From -- ./inp_files/54424.got.cif
#   From: 2010.05.17/outbox.cif.g08.bks.cpg/sg74_28_cif.got.tgz:54424.got - 2010.06.03 17:57:02.
