data_PCOD9539179
_publ_section_title
;
Structure prediction by ZEFSAII (Michael W. Deem and Ramdas Pophale) SiO2 
 PCOD9539179
Probable space group: I M M A
;
_chemical_formula_sum "Si O2"
_cell_formula_units_Z 88
_cell_length_a 8.660767
_cell_length_b 22.893981
_cell_length_c 25.075656
_cell_angle_alpha 90.000000
_cell_angle_beta 90.000000
_cell_angle_gamma 90.000000
_cell_volume 4971.986908
_symmetry_space_group_name_H-M "I M M A"
_symmetry_group_IT_number 74
_symmetry_cell_setting 'orthorhombic'
loop_
_space_group_symop_operation_xyz
x,y,z
-x,1/2-y,z
x,-y,-z
-x,1/2+y,-z
-x,-y,-z
x,1/2+y,-z
-x,y,z
x,1/2-y,z
1/2+x,1/2+y,1/2+z
1/2-x,-y,1/2+z
1/2+x,1/2-y,1/2-z
1/2-x,y,1/2-z
1/2-x,1/2-y,1/2-z
1/2+x,y,1/2-z
1/2-x,1/2+y,1/2+z
1/2+x,-y,1/2+z
loop_
_atom_site_type_symbol
_atom_site_label
_atom_site_fract_x
_atom_site_fract_y
_atom_site_fract_z
Si Si1 0.185991 0.361090 0.374438
Si Si2 0.316548 0.181326 0.604243
Si Si3 0.815842 0.181032 0.490168
Si Si4 0.185137 0.250000 0.190006
Si Si5 0.816304 0.096007 0.692156
Si Si6 0.315275 0.967522 0.691254
O O1 0.228364 0.352621 0.436502
O O2 0.254135 0.307063 0.340959
O O3 0.249963 0.420668 0.350019
O O4 0.000000 0.359275 0.370549
O O5 0.500000 0.175423 0.611345
O O6 0.275689 0.250000 0.609893
O O7 0.269764 0.163633 0.544216
O O8 0.230332 0.142458 0.647595
O O9 0.785550 0.250000 0.480712
O O10 0.000000 0.174552 0.498341
O O11 0.250000 0.250000 0.250000
O O12 0.000000 0.250000 0.191191
O O13 0.750000 0.113568 0.750000
O O14 0.000000 0.089860 0.695919
O O15 0.742901 0.032889 0.679200
O O16 0.500000 0.966106 0.692518
O O17 0.250000 0.952583 0.750000
#
# Coordination Sequence:
#
# PCOD9539179 Si02
#       6
#    16  16  16   8  16  16
#     4  11  21  37  57  81 112 149 192 237 285 338
#     4  10  21  37  59  88 119 149 183 228 278 334
#     4   9  18  35  57  81 111 150 189 230 281 336
#     4  12  24  36  52  78 112 148 191 242 293 336
#     4  11  22  39  62  86 114 149 186 229 279 337
#     4  11  22  38  58  82 112 149 190 234 283 341
#
# _framework density 17.699162000000001
#
# number of rings (size 3 to 8) (size 9 to 14) (size 15 to 20)
#    0.000    1.455    0.909    6.818    0.000    2.909 
#    0.000    0.909    0.000    5.455    0.000    0.000 
#    0.000    0.000    0.000    0.000    0.000    0.000 
#
# Total GULP energy -245909.452747 kJ/mol
# GULP energy per Si atom -5588.851199 kJ/mol
# Density = 1.765888 g / cm^3
# Si number density = 17.699162 Si / 1000 Ang^3
#
#
#
# Elastic Constant Matrix: (Units=GPa)
#
#
# Indices 1 2 3 4 5 6 
#
# 1 123.2282 47.9855 66.2935 0.0000 0.0000 0.0000
# 2 47.9855 70.1880 79.6066 0.0000 0.0000 0.0000
# 3 66.2935 79.6066 133.1868 0.0000 0.0000 0.0000
# 4 0.0000 0.0000 0.0000 8.9022 0.0000 0.0000
# 5 0.0000 0.0000 0.0000 0.0000 33.2530 0.0000
# 6 0.0000 0.0000 0.0000 0.0000 0.0000 30.6331
#
#
#
# Elastic Compliance Matrix: (Units=1/GPa)
#
#
# Indices 1 2 3 4 5 6 
#
# 1 0.011476 -0.004245 -0.003175 0.000000 0.000000 0.000000
# 2 -0.004245 0.045805 -0.025265 0.000000 0.000000 0.000000
# 3 -0.003175 -0.025265 0.024190 0.000000 0.000000 0.000000
# 4 0.000000 0.000000 0.000000 0.112332 0.000000 0.000000
# 5 0.000000 0.000000 0.000000 0.000000 0.030072 0.000000
# 6 0.000000 0.000000 0.000000 0.000000 0.000000 0.032644
#
#
# Mechanical properties :
#
#
# Convention : Reuss Voigt Hill
#
# Bulk Modulus (GPa) = 62.10816 79.37492 70.74154
# Shear Modulus (GPa) = 15.27854 23.40548 19.34201
#
# Velocity S-wave (km/s) = 2.94127 3.64044 3.30937
# Velocity P-wave (km/s) = 6.83389 7.91293 7.39312
#
# Compressibility (1/GPa) = 0.01610094
#
# Stress axis : x y z
#
# Youngs Moduli (GPa) = 87.13804 21.83175 41.33982
#
# Poissons Ratio (x) = 0.09267 0.13126
# Poissons Ratio (y) = 0.36987 1.04445
# Poissons Ratio (z) = 0.27667 0.55158
#
# Static dielectric constant tensor:
#      x y z
#    x 1.592910 0.000000 0.000000 
#    y 0.000000 1.578850 0.000000 
#    z 0.000000 0.000000 1.583950 
# 
# From -- ./inp_files/56991.got.cif
#   From: 2010.05.17/outbox.cif.g08.bks.cpg/sg74_29_cif.got.tgz:56991.got - 2010.06.03 17:57:02.
