data_PCOD9539359
_publ_section_title
;
Structure prediction by ZEFSAII (Michael W. Deem and Ramdas Pophale) SiO2 
 PCOD9539359
Probable space group: I M M A
;
_chemical_formula_sum "Si O2"
_cell_formula_units_Z 104
_cell_length_a 25.964685
_cell_length_b 9.702065
_cell_length_c 22.630061
_cell_angle_alpha 90.000000
_cell_angle_beta 90.000000
_cell_angle_gamma 90.000000
_cell_volume 5700.762690
_symmetry_space_group_name_H-M "I M M A"
_symmetry_group_IT_number 74
_symmetry_cell_setting 'orthorhombic'
loop_
_space_group_symop_operation_xyz
x,y,z
-x,1/2-y,z
x,-y,-z
-x,1/2+y,-z
-x,-y,-z
x,1/2+y,-z
-x,y,z
x,1/2-y,z
1/2+x,1/2+y,1/2+z
1/2-x,-y,1/2+z
1/2+x,1/2-y,1/2-z
1/2-x,y,1/2-z
1/2-x,1/2-y,1/2-z
1/2+x,y,1/2-z
1/2-x,1/2+y,1/2+z
1/2+x,-y,1/2+z
loop_
_atom_site_type_symbol
_atom_site_label
_atom_site_fract_x
_atom_site_fract_y
_atom_site_fract_z
Si Si1 0.000000 0.092249 0.057473
Si Si2 0.110055 0.967054 0.370845
Si Si3 0.561700 0.250000 0.096707
Si Si4 0.439058 0.095235 0.747537
Si Si5 0.438719 0.250000 0.957781
Si Si6 0.401029 0.086154 0.358696
Si Si7 0.172417 0.585707 0.059809
Si Si8 0.704824 0.911338 0.057958
O O1 0.949971 0.070504 0.097825
O O2 0.000000 0.250000 0.037590
O O3 0.000000 0.000000 0.000000
O O4 0.092776 0.907669 0.308234
O O5 0.083499 0.880824 0.423509
O O6 0.170196 0.959083 0.387004
O O7 0.087103 0.117955 0.374460
O O8 0.500000 0.250000 0.103598
O O9 0.573644 0.250000 0.026769
O O10 0.500000 0.072492 0.759748
O O11 0.434428 0.250000 0.721316
O O12 0.417891 0.980082 0.703324
O O13 0.500000 0.250000 0.951897
O O14 0.388870 0.250000 0.354705
O O15 0.356335 0.993521 0.387593
O O16 0.159401 0.750000 0.055200
O O17 0.234110 0.575504 0.067949
O O18 0.159525 0.500000 0.000000
O O19 0.693896 0.750000 0.047002
O O20 0.691233 0.000000 0.000000
#
# Coordination Sequence:
#
# PCOD9539359 Si02
#       8
#     8  16   8  16   8  16  16  16
#     4  10  22  38  60  92 126 156 189 240 303 365
#     4  12  23  38  58  87 121 163 209 254 309 368
#     4  11  24  36  54  86 119 158 200 259 328 373
#     4  11  23  40  62  86 120 166 215 254 300 364
#     4  11  20  36  58  82 119 154 200 259 312 373
#     4  11  23  41  62  91 124 163 202 251 304 368
#     4  10  21  39  64  95 127 161 201 251 311 370
#     4  10  21  38  62  90 123 161 206 259 312 366
#
# _framework density 18.243172999999999
#
# number of rings (size 3 to 8) (size 9 to 14) (size 15 to 20)
#    0.000    1.231    2.308    4.154    2.154    4.308 
#    0.000    0.769    0.000    3.692    0.000    0.000 
#    0.000    0.000    0.000    0.000    0.000    0.000 
#
# Total GULP energy -290478.547027 kJ/mol
# GULP energy per Si atom -5586.125904 kJ/mol
# Density = 1.820165 g / cm^3
# Si number density = 18.243173 Si / 1000 Ang^3
#
#
#
# Elastic Constant Matrix: (Units=GPa)
#
#
# Indices 1 2 3 4 5 6 
#
# 1 71.9110 47.5906 40.4514 0.0000 0.0000 0.0000
# 2 47.5906 142.7148 46.3896 0.0000 0.0000 0.0000
# 3 40.4514 46.3896 81.6782 0.0000 0.0000 0.0000
# 4 0.0000 0.0000 0.0000 31.8342 0.0000 0.0000
# 5 0.0000 0.0000 0.0000 0.0000 17.2865 0.0000
# 6 0.0000 0.0000 0.0000 0.0000 0.0000 38.9378
#
#
#
# Elastic Compliance Matrix: (Units=1/GPa)
#
#
# Indices 1 2 3 4 5 6 
#
# 1 0.021427 -0.004533 -0.008037 0.000000 0.000000 0.000000
# 2 -0.004533 0.009552 -0.003180 0.000000 0.000000 0.000000
# 3 -0.008037 -0.003180 0.018030 0.000000 0.000000 0.000000
# 4 0.000000 0.000000 0.000000 0.031413 0.000000 0.000000
# 5 0.000000 0.000000 0.000000 0.000000 0.057849 0.000000
# 6 0.000000 0.000000 0.000000 0.000000 0.000000 0.025682
#
#
# Mechanical properties :
#
#
# Convention : Reuss Voigt Hill
#
# Bulk Modulus (GPa) = 57.11582 62.79635 59.95609
# Shear Modulus (GPa) = 24.83977 28.40317 26.62147
#
# Velocity S-wave (km/s) = 3.69398 3.95006 3.82417
# Velocity P-wave (km/s) = 7.04060 7.43644 7.24122
#
# Compressibility (1/GPa) = 0.01750828
#
# Stress axis : x y z
#
# Youngs Moduli (GPa) = 46.67017 104.68709 55.46272
#
# Poissons Ratio (x) = 0.47450 0.44578
# Poissons Ratio (y) = 0.21154 0.17640
# Poissons Ratio (z) = 0.37511 0.33296
#
# Static dielectric constant tensor:
#      x y z
#    x 1.640630 0.000000 0.000000 
#    y 0.000000 1.564810 0.000000 
#    z 0.000000 0.000000 1.598950 
# 
# From -- ./inp_files/62403.got.cif
#   From: 2010.05.17/outbox.cif.g08.bks.cpg/sg74_32_cif.got.tgz:62403.got - 2010.06.03 17:57:02.
