data_PCOD9539194
_publ_section_title
;
Structure prediction by ZEFSAII (Michael W. Deem and Ramdas Pophale) SiO2 
 PCOD9539194
Probable space group: I M M A
;
_chemical_formula_sum "Si O2"
_cell_formula_units_Z 112
_cell_length_a 29.627375
_cell_length_b 15.736400
_cell_length_c 12.449800
_cell_angle_alpha 90.000000
_cell_angle_beta 90.000000
_cell_angle_gamma 90.000000
_cell_volume 5804.448143
_symmetry_space_group_name_H-M "I M M A"
_symmetry_group_IT_number 74
_symmetry_cell_setting 'orthorhombic'
loop_
_space_group_symop_operation_xyz
x,y,z
-x,1/2-y,z
x,-y,-z
-x,1/2+y,-z
-x,-y,-z
x,1/2+y,-z
-x,y,z
x,1/2-y,z
1/2+x,1/2+y,1/2+z
1/2-x,-y,1/2+z
1/2+x,1/2-y,1/2-z
1/2-x,y,1/2-z
1/2-x,1/2-y,1/2-z
1/2+x,y,1/2-z
1/2-x,1/2+y,1/2+z
1/2+x,-y,1/2+z
loop_
_atom_site_type_symbol
_atom_site_label
_atom_site_fract_x
_atom_site_fract_y
_atom_site_fract_z
Si Si1 0.049319 0.651066 0.281803
Si Si2 0.803328 0.152131 0.233042
Si Si3 0.353455 0.150154 0.721461
Si Si4 0.951578 0.399326 0.473939
Si Si5 0.807925 0.597846 0.009937
Si Si6 0.646989 0.913148 0.928157
Si Si7 0.712871 0.847081 0.097068
O O1 0.048598 0.750000 0.248609
O O2 0.096770 0.612261 0.242588
O O3 0.051323 0.645985 0.410766
O O4 0.000000 0.613623 0.250787
O O5 0.814471 0.250000 0.261753
O O6 0.750000 0.140046 0.250000
O O7 0.811785 0.138398 0.107212
O O8 0.829523 0.088759 0.312470
O O9 0.356446 0.250000 0.750907
O O10 0.338917 0.140641 0.599456
O O11 0.313060 0.117636 0.798312
O O12 0.952811 0.500000 0.500000
O O13 0.904745 0.384928 0.414547
O O14 0.000000 0.376667 0.423202
O O15 0.820362 0.500000 0.000000
O O16 0.756649 0.604241 0.054794
O O17 0.675859 0.850249 0.002936
O O18 0.647980 0.000000 0.000000
O O19 0.727656 0.750000 0.117652
#
# Coordination Sequence:
#
# PCOD9539194 Si02
#       7
#    16  16  16  16  16  16  16
#     4   9  17  31  55  86 113 140 182 235 285 335
#     4  11  24  40  57  77 112 159 197 232 287 354
#     4  10  21  37  60  85 114 147 185 237 292 338
#     4   9  18  32  52  81 116 149 179 224 286 344
#     4  12  26  38  57  81 116 153 199 240 279 335
#     4  11  22  35  59  85 114 148 191 237 279 337
#     4  11  21  37  58  82 112 148 185 232 289 336
#
# _framework density 19.295546999999999
#
# number of rings (size 3 to 8) (size 9 to 14) (size 15 to 20)
#    0.000    1.571    2.857    2.571    2.000    1.714 
#    0.000    0.000    0.000    1.286    0.000    0.000 
#    0.000    0.000    0.000    0.000    0.000    0.000 
#
# Total GULP energy -312429.378959 kJ/mol
# GULP energy per Si atom -5579.096053 kJ/mol
# Density = 1.925163 g / cm^3
# Si number density = 19.295547 Si / 1000 Ang^3
#
#
#
# Elastic Constant Matrix: (Units=GPa)
#
#
# Indices 1 2 3 4 5 6 
#
# 1 113.0524 13.9604 43.3827 0.0000 0.0000 0.0000
# 2 13.9604 25.0936 5.6564 0.0000 0.0000 0.0000
# 3 43.3827 5.6564 113.9798 0.0000 0.0000 0.0000
# 4 0.0000 0.0000 0.0000 17.3143 0.0000 0.0000
# 5 0.0000 0.0000 0.0000 0.0000 14.3105 0.0000
# 6 0.0000 0.0000 0.0000 0.0000 0.0000 20.0765
#
#
#
# Elastic Compliance Matrix: (Units=1/GPa)
#
#
# Indices 1 2 3 4 5 6 
#
# 1 0.010999 -0.005234 -0.003926 0.000000 0.000000 0.000000
# 2 -0.005234 0.042792 -0.000132 0.000000 0.000000 0.000000
# 3 -0.003926 -0.000132 0.010275 0.000000 0.000000 0.000000
# 4 0.000000 0.000000 0.000000 0.057756 0.000000 0.000000
# 5 0.000000 0.000000 0.000000 0.000000 0.069879 0.000000
# 6 0.000000 0.000000 0.000000 0.000000 0.000000 0.049809
#
#
# Mechanical properties :
#
#
# Convention : Reuss Voigt Hill
#
# Bulk Modulus (GPa) = 21.98694 42.01390 32.00042
# Shear Modulus (GPa) = 18.16509 22.94868 20.55689
#
# Velocity S-wave (km/s) = 3.07158 3.45240 3.26754
# Velocity P-wave (km/s) = 4.89888 6.14111 5.55483
#
# Compressibility (1/GPa) = 0.04548154
#
# Stress axis : x y z
#
# Youngs Moduli (GPa) = 90.92146 23.36875 97.32832
#
# Poissons Ratio (x) = 0.12231 0.38216
# Poissons Ratio (y) = 0.47586 0.01281
# Poissons Ratio (z) = 0.35700 0.00307
#
# Static dielectric constant tensor:
#      x y z
#    x 1.717150 0.000000 0.000000 
#    y 0.000000 1.606230 0.000000 
#    z 0.000000 0.000000 1.667460 
# 
# From -- ./inp_files/21172.got.cif
#   From: 2010.05.17/outbox.cif.g08.bks.cpg/sg74_11_cif.got.tgz:21172.got - 2010.06.03 17:57:02.
