data_PCOD9539289
_publ_section_title
;
Structure prediction by ZEFSAII (Michael W. Deem and Ramdas Pophale) SiO2 
 PCOD9539289
Probable space group: I M M A
;
_chemical_formula_sum "Si O2"
_cell_formula_units_Z 96
_cell_length_a 15.856529
_cell_length_b 21.566808
_cell_length_c 14.179288
_cell_angle_alpha 90.000000
_cell_angle_beta 90.000000
_cell_angle_gamma 90.000000
_cell_volume 4848.957994
_symmetry_space_group_name_H-M "I M M A"
_symmetry_group_IT_number 74
_symmetry_cell_setting 'orthorhombic'
loop_
_space_group_symop_operation_xyz
x,y,z
-x,1/2-y,z
x,-y,-z
-x,1/2+y,-z
-x,-y,-z
x,1/2+y,-z
-x,y,z
x,1/2-y,z
1/2+x,1/2+y,1/2+z
1/2-x,-y,1/2+z
1/2+x,1/2-y,1/2-z
1/2-x,y,1/2-z
1/2-x,1/2-y,1/2-z
1/2+x,y,1/2-z
1/2-x,1/2+y,1/2+z
1/2+x,-y,1/2+z
loop_
_atom_site_type_symbol
_atom_site_label
_atom_site_fract_x
_atom_site_fract_y
_atom_site_fract_z
Si Si1 0.500000 0.820339 0.430636
Si Si2 0.151949 0.018481 0.745855
Si Si3 0.594886 0.888602 0.777406
Si Si4 0.098336 0.063695 0.550384
Si Si5 0.170107 0.319860 0.444456
Si Si6 0.500000 0.034247 0.606309
Si Si7 0.867663 0.181649 0.094928
O O1 0.500000 0.750000 0.384400
O O2 0.500000 0.889950 0.388998
O O3 0.581295 0.821448 0.498557
O O4 0.250000 0.039040 0.750000
O O5 0.109261 0.056762 0.661913
O O6 0.086986 0.017644 0.835558
O O7 0.154036 0.947454 0.710074
O O8 0.500000 0.908340 0.800101
O O9 0.622610 0.834256 0.846723
O O10 0.600700 0.867101 0.670261
O O11 0.144092 0.124816 0.513235
O O12 0.000000 0.069582 0.526394
O O13 0.129221 0.000000 0.500000
O O14 0.151338 0.250000 0.477671
O O15 0.269171 0.324569 0.423656
O O16 0.500000 0.000000 0.500000
O O17 0.883836 0.250000 0.135941
#
# Coordination Sequence:
#
# PCOD9539289 Si02
#       7
#     8  16  16  16  16   8  16
#     4  10  22  42  66  88 125 174 216 274 347 393
#     4  12  26  44  68 100 136 176 223 281 349 404
#     4  12  21  37  59  92 134 171 216 270 338 417
#     4  11  23  44  66  90 130 176 215 260 327 398
#     4  11  24  38  62  95 128 171 227 273 326 406
#     4  12  26  46  73 108 135 173 241 294 329 411
#     4  10  21  38  59  91 131 170 212 272 346 408
#
# _framework density 19.798067
#
# number of rings (size 3 to 8) (size 9 to 14) (size 15 to 20)
#    0.000    0.833    4.167    3.500    2.333    4.000 
#    0.000    0.833    0.000    1.000    0.000    0.000 
#    0.000    0.000    0.000    0.000    0.000    0.000 
#
# Total GULP energy -267718.605256 kJ/mol
# GULP energy per Si atom -5577.470943 kJ/mol
# Density = 1.975301 g / cm^3
# Si number density = 19.798067 Si / 1000 Ang^3
#
#
#
# Elastic Constant Matrix: (Units=GPa)
#
#
# Indices 1 2 3 4 5 6 
#
# 1 79.5994 20.4838 24.8139 0.0000 0.0000 0.0000
# 2 20.4838 119.9534 33.6310 0.0000 0.0000 0.0000
# 3 24.8139 33.6310 75.3813 0.0000 0.0000 0.0000
# 4 0.0000 0.0000 0.0000 40.2900 0.0000 0.0000
# 5 0.0000 0.0000 0.0000 0.0000 27.1665 0.0000
# 6 0.0000 0.0000 0.0000 0.0000 0.0000 82.8013
#
#
#
# Elastic Compliance Matrix: (Units=1/GPa)
#
#
# Indices 1 2 3 4 5 6 
#
# 1 0.014167 -0.001271 -0.004097 0.000000 0.000000 0.000000
# 2 -0.001271 0.009642 -0.003884 0.000000 0.000000 0.000000
# 3 -0.004097 -0.003884 0.016347 0.000000 0.000000 0.000000
# 4 0.000000 0.000000 0.000000 0.024820 0.000000 0.000000
# 5 0.000000 0.000000 0.000000 0.000000 0.036810 0.000000
# 6 0.000000 0.000000 0.000000 0.000000 0.000000 0.012077
#
#
# Mechanical properties :
#
#
# Convention : Reuss Voigt Hill
#
# Bulk Modulus (GPa) = 46.17938 48.08794 47.13366
# Shear Modulus (GPa) = 35.82087 43.11861 39.46974
#
# Velocity S-wave (km/s) = 4.25822 4.67188 4.46984
# Velocity P-wave (km/s) = 6.89582 7.31053 7.10620
#
# Compressibility (1/GPa) = 0.02165468
#
# Stress axis : x y z
#
# Youngs Moduli (GPa) = 70.58698 103.70860 61.17317
#
# Poissons Ratio (x) = 0.13178 0.25060
# Poissons Ratio (y) = 0.08969 0.23757
# Poissons Ratio (z) = 0.28916 0.40277
#
# Static dielectric constant tensor:
#      x y z
#    x 1.896000 0.000000 0.000000 
#    y 0.000000 1.729910 0.000000 
#    z 0.000000 0.000000 1.706520 
# 
# From -- ./inp_files/32431.got.cif
#   From: 2010.05.17/outbox.cif.g08.bks.cpg/sg74_17_cif.got.tgz:32431.got - 2010.06.03 17:57:02.
