data_PCOD9539646
_publ_section_title
;
Structure prediction by ZEFSAII (Michael W. Deem and Ramdas Pophale) SiO2 
 PCOD9539646
Probable space group: I M M A
;
_chemical_formula_sum "Si O2"
_cell_formula_units_Z 104
_cell_length_a 25.461364
_cell_length_b 7.758876
_cell_length_c 23.315757
_cell_angle_alpha 90.000000
_cell_angle_beta 90.000000
_cell_angle_gamma 90.000000
_cell_volume 4606.064309
_symmetry_space_group_name_H-M "I M M A"
_symmetry_group_IT_number 74
_symmetry_cell_setting 'orthorhombic'
loop_
_space_group_symop_operation_xyz
x,y,z
-x,1/2-y,z
x,-y,-z
-x,1/2+y,-z
-x,-y,-z
x,1/2+y,-z
-x,y,z
x,1/2-y,z
1/2+x,1/2+y,1/2+z
1/2-x,-y,1/2+z
1/2+x,1/2-y,1/2-z
1/2-x,y,1/2-z
1/2-x,1/2-y,1/2-z
1/2+x,y,1/2-z
1/2-x,1/2+y,1/2+z
1/2+x,-y,1/2+z
loop_
_atom_site_type_symbol
_atom_site_label
_atom_site_fract_x
_atom_site_fract_y
_atom_site_fract_z
Si Si1 0.887800 0.951714 0.606709
Si Si2 0.500000 0.043464 0.065933
Si Si3 0.265796 0.448616 0.687981
Si Si4 0.775806 0.554626 0.433666
Si Si5 0.059684 0.543376 0.937409
Si Si6 0.882290 0.044893 0.173372
Si Si7 0.440553 0.543696 0.215389
O O1 0.884173 0.750000 0.591281
O O2 0.944465 0.025050 0.588288
O O3 0.838370 0.041417 0.578007
O O4 0.894343 0.970154 0.675022
O O5 0.500000 0.250000 0.076274
O O6 0.500000 0.000000 0.000000
O O7 0.245480 0.250000 0.688520
O O8 0.250000 0.526989 0.750000
O O9 0.247552 0.526944 0.625960
O O10 0.328449 0.452955 0.688268
O O11 0.765641 0.500000 0.500000
O O12 0.756964 0.750000 0.432128
O O13 0.056942 0.750000 0.931927
O O14 0.096189 0.479647 0.887064
O O15 0.000000 0.475605 0.933038
O O16 0.080372 0.500000 0.000000
O O17 0.872220 0.250000 0.170663
O O18 0.926530 0.010708 0.220645
O O19 0.500000 0.482583 0.200356
O O20 0.439872 0.750000 0.210819
#
# Coordination Sequence:
#
# PCOD9539646 Si02
#       7
#    16   8  16  16  16  16  16
#     4  11  22  39  61  88 122 160 203 251 304 359
#     4  10  22  36  54  82 116 154 193 236 287 342
#     4  10  23  44  66  88 119 159 208 264 317 371
#     4  11  24  42  65  93 126 166 211 262 318 377
#     4   9  19  36  57  84 119 157 194 236 292 355
#     4  11  23  38  61  90 120 155 199 254 310 368
#     4  11  23  38  59  89 125 166 207 248 301 368
#
# _framework density 22.578931000000001
#
# number of rings (size 3 to 8) (size 9 to 14) (size 15 to 20)
#    0.000    1.538    0.769    3.692    0.000    8.615 
#    0.000    4.615    0.000    0.000    0.000    0.000 
#    0.000    0.000    0.000    0.000    0.000    0.000 
#
# Total GULP energy -290269.150907 kJ/mol
# GULP energy per Si atom -5582.099056 kJ/mol
# Density = 2.252754 g / cm^3
# Si number density = 22.578931 Si / 1000 Ang^3
#
#
#
# Elastic Constant Matrix: (Units=GPa)
#
#
# Indices 1 2 3 4 5 6 
#
# 1 49.0480 -3.1440 33.6220 0.0000 0.0000 0.0000
# 2 -3.1440 43.7812 4.2670 0.0000 0.0000 0.0000
# 3 33.6220 4.2670 177.9670 0.0000 0.0000 0.0000
# 4 0.0000 0.0000 0.0000 26.6184 0.0000 0.0000
# 5 0.0000 0.0000 0.0000 0.0000 9.5318 0.0000
# 6 0.0000 0.0000 0.0000 0.0000 0.0000 15.9275
#
#
#
# Elastic Compliance Matrix: (Units=1/GPa)
#
#
# Indices 1 2 3 4 5 6 
#
# 1 0.023619 0.002136 -0.004513 0.000000 0.000000 0.000000
# 2 0.002136 0.023088 -0.000957 0.000000 0.000000 0.000000
# 3 -0.004513 -0.000957 0.006495 0.000000 0.000000 0.000000
# 4 0.000000 0.000000 0.000000 0.037568 0.000000 0.000000
# 5 0.000000 0.000000 0.000000 0.000000 0.104912 0.000000
# 6 0.000000 0.000000 0.000000 0.000000 0.000000 0.062785
#
#
# Mechanical properties :
#
#
# Convention : Reuss Voigt Hill
#
# Bulk Modulus (GPa) = 21.49047 37.80957 29.65002
# Shear Modulus (GPa) = 17.81610 26.15230 21.98420
#
# Velocity S-wave (km/s) = 2.81207 3.40702 3.12374
# Velocity P-wave (km/s) = 4.48132 5.67969 5.11572
#
# Compressibility (1/GPa) = 0.04653226
#
# Stress axis : x y z
#
# Youngs Moduli (GPa) = 42.33883 43.31341 153.97303
#
# Poissons Ratio (x) = -0.09252 0.69494
# Poissons Ratio (y) = -0.09044 0.14737
# Poissons Ratio (z) = 0.19109 0.04146
#
# Static dielectric constant tensor:
#      x y z
#    x 1.680180 0.000000 0.000000 
#    y 0.000000 1.846170 0.000000 
#    z 0.000000 0.000000 1.899120 
# 
# From -- ./inp_files/55230.got.cif
#   From: 2010.05.17/outbox.cif.g08.bks.cpg/sg74_28_cif.got.tgz:55230.got - 2010.06.03 17:57:02.
