data_PCOD9539116
_publ_section_title
;
Structure prediction by ZEFSAII (Michael W. Deem and Ramdas Pophale) SiO2 
 PCOD9539116
Probable space group: I M M A
;
_chemical_formula_sum "Si O2"
_cell_formula_units_Z 68
_cell_length_a 9.111789
_cell_length_b 20.956038
_cell_length_c 21.088433
_cell_angle_alpha 90.000000
_cell_angle_beta 90.000000
_cell_angle_gamma 90.000000
_cell_volume 4026.772943
_symmetry_space_group_name_H-M "I M M A"
_symmetry_group_IT_number 74
_symmetry_cell_setting 'orthorhombic'
loop_
_space_group_symop_operation_xyz
x,y,z
-x,1/2-y,z
x,-y,-z
-x,1/2+y,-z
-x,-y,-z
x,1/2+y,-z
-x,y,z
x,1/2-y,z
1/2+x,1/2+y,1/2+z
1/2-x,-y,1/2+z
1/2+x,1/2-y,1/2-z
1/2-x,y,1/2-z
1/2-x,1/2-y,1/2-z
1/2+x,y,1/2-z
1/2-x,1/2+y,1/2+z
1/2+x,-y,1/2+z
loop_
_atom_site_type_symbol
_atom_site_label
_atom_site_fract_x
_atom_site_fract_y
_atom_site_fract_z
Si Si1 0.170710 0.363561 0.846908
Si Si2 0.250000 0.750000 0.250000
Si Si3 0.675857 0.822884 0.491382
Si Si4 0.176707 0.944800 0.550349
Si Si5 0.675082 0.494967 0.814975
O O1 0.194912 0.305617 0.799393
O O2 0.205448 0.339816 0.917802
O O3 0.271258 0.422917 0.827991
O O4 0.000000 0.383658 0.844816
O O5 0.500000 0.825911 0.500130
O O6 0.723253 0.750000 0.504374
O O7 0.752822 0.877572 0.532026
O O8 0.215210 0.966061 0.621624
O O9 0.000000 0.940280 0.546004
O O10 0.223052 0.000000 0.500000
O O11 0.500000 0.496022 0.807920
O O12 0.750000 0.517557 0.750000
#
# Coordination Sequence:
#
# PCOD9539116 Si02
#       5
#    16   4  16  16  16
#     4  11  22  35  52  78 114 153 193 228 268 326
#     4  12  22  32  52  78 118 164 194 220 262 324
#     4  10  21  37  57  83 114 149 190 237 283 333
#     4  10  21  38  58  84 115 148 190 239 286 339
#     4  11  23  38  57  81 113 147 188 236 282 335
#
# _framework density 16.886972
#
# number of rings (size 3 to 8) (size 9 to 14) (size 15 to 20)
#    0.000    1.412    4.706    1.059    0.000    3.765 
#    0.000    0.000    0.000    0.706    0.000    0.000 
#    0.000    0.000    0.000    0.000    0.000    0.000 
#
# Total GULP energy -189329.482739 kJ/mol
# GULP energy per Si atom -5568.514198 kJ/mol
# Density = 1.684854 g / cm^3
# Si number density = 16.886972 Si / 1000 Ang^3
#
#
#
# Elastic Constant Matrix: (Units=GPa)
#
#
# Indices 1 2 3 4 5 6 
#
# 1 35.0652 38.1014 57.4014 0.0000 0.0000 0.0000
# 2 38.1014 101.5636 72.5066 0.0000 0.0000 0.0000
# 3 57.4014 72.5066 134.3634 0.0000 0.0000 0.0000
# 4 0.0000 0.0000 0.0000 24.2753 0.0000 0.0000
# 5 0.0000 0.0000 0.0000 0.0000 25.5612 0.0000
# 6 0.0000 0.0000 0.0000 0.0000 0.0000 7.3144
#
#
#
# Elastic Compliance Matrix: (Units=1/GPa)
#
#
# Indices 1 2 3 4 5 6 
#
# 1 0.102781 -0.011730 -0.037579 0.000000 0.000000 0.000000
# 2 -0.011730 0.017355 -0.004354 0.000000 0.000000 0.000000
# 3 -0.037579 -0.004354 0.025846 0.000000 0.000000 0.000000
# 4 0.000000 0.000000 0.000000 0.041194 0.000000 0.000000
# 5 0.000000 0.000000 0.000000 0.000000 0.039122 0.000000
# 6 0.000000 0.000000 0.000000 0.000000 0.000000 0.136717
#
#
# Mechanical properties :
#
#
# Convention : Reuss Voigt Hill
#
# Bulk Modulus (GPa) = 25.86958 67.44567 46.65762
# Shear Modulus (GPa) = 10.34712 18.29570 14.32141
#
# Velocity S-wave (km/s) = 2.47802 3.29511 2.91533
# Velocity P-wave (km/s) = 4.85180 7.38262 6.24672
#
# Compressibility (1/GPa) = 0.03865544
#
# Stress axis : x y z
#
# Youngs Moduli (GPa) = 9.72944 57.62049 38.69042
#
# Poissons Ratio (x) = 0.67590 1.45395
# Poissons Ratio (y) = 0.11413 0.16846
# Poissons Ratio (z) = 0.36562 0.25088
#
# Static dielectric constant tensor:
#      x y z
#    x 1.576950 0.000000 0.000000 
#    y 0.000000 1.537750 0.000000 
#    z 0.000000 0.000000 1.576060 
# 
# From -- ./inp_files/39214.got.cif
#   From: 2010.05.17/outbox.cif.g08.bks.cpg/sg74_20_cif.got.tgz:39214.got - 2010.06.03 17:57:02.
