data_PCOD9539209
_publ_section_title
;
Structure prediction by ZEFSAII (Michael W. Deem and Ramdas Pophale) SiO2 
 PCOD9539209
Probable space group: I M M A
;
_chemical_formula_sum "Si O2"
_cell_formula_units_Z 72
_cell_length_a 8.653616
_cell_length_b 13.216351
_cell_length_c 27.917061
_cell_angle_alpha 90.000000
_cell_angle_beta 90.000000
_cell_angle_gamma 90.000000
_cell_volume 3192.852672
_symmetry_space_group_name_H-M "I M M A"
_symmetry_group_IT_number 74
_symmetry_cell_setting 'orthorhombic'
loop_
_space_group_symop_operation_xyz
x,y,z
-x,1/2-y,z
x,-y,-z
-x,1/2+y,-z
-x,-y,-z
x,1/2+y,-z
-x,y,z
x,1/2-y,z
1/2+x,1/2+y,1/2+z
1/2-x,-y,1/2+z
1/2+x,1/2-y,1/2-z
1/2-x,y,1/2-z
1/2-x,1/2-y,1/2-z
1/2+x,y,1/2-z
1/2-x,1/2+y,1/2+z
1/2+x,-y,1/2+z
loop_
_atom_site_type_symbol
_atom_site_label
_atom_site_fract_x
_atom_site_fract_y
_atom_site_fract_z
Si Si1 0.173791 0.626605 0.531085
Si Si2 0.250000 0.506182 0.750000
Si Si3 0.824174 0.873050 0.066347
Si Si4 0.825653 0.365869 0.662979
Si Si5 0.500000 0.369873 0.307364
Si Si6 0.000000 0.628468 0.920634
O O1 0.172805 0.750000 0.534313
O O2 0.205131 0.599478 0.475472
O O3 0.332775 0.594317 0.558156
O O4 0.000000 0.595130 0.546767
O O5 0.176983 0.432776 0.710277
O O6 0.358030 0.578043 0.719047
O O7 0.820330 0.750000 0.067956
O O8 0.780618 0.904928 0.119959
O O9 0.000000 0.900924 0.053692
O O10 0.780887 0.250000 0.674852
O O11 0.000000 0.364049 0.643642
O O12 0.500000 0.250000 0.300308
O O13 0.500000 0.389000 0.363976
O O14 0.000000 0.750000 0.929474
#
# Coordination Sequence:
#
# PCOD9539209 Si02
#       6
#    16   8  16  16   8   8
#     4   9  15  27  52  88 130 173 212 260 325 398
#     4  12  24  46  68  92 124 168 220 282 356 402
#     4   9  16  27  50  88 135 180 216 252 308 395
#     4  10  21  37  60  96 137 176 218 264 322 406
#     4  11  26  48  72  94 122 165 227 297 352 399
#     4   9  18  36  59  90 126 162 220 283 337 397
#
# _framework density 22.550366
#
# number of rings (size 3 to 8) (size 9 to 14) (size 15 to 20)
#    0.000    2.222    2.222    1.333    1.556    2.667 
#    2.000    0.000    0.000    2.667    0.000    3.111 
#    0.000    0.000    0.000    0.000    0.444    0.000 
#
# Total GULP energy -201202.658262 kJ/mol
# GULP energy per Si atom -5588.962729 kJ/mol
# Density = 2.249904 g / cm^3
# Si number density = 22.550366 Si / 1000 Ang^3
#
#
#
# Elastic Constant Matrix: (Units=GPa)
#
#
# Indices 1 2 3 4 5 6 
#
# 1 159.1615 45.7399 69.7537 0.0000 0.0000 0.0000
# 2 45.7399 104.5513 41.3916 0.0000 0.0000 0.0000
# 3 69.7537 41.3916 117.3587 0.0000 0.0000 0.0000
# 4 0.0000 0.0000 0.0000 35.0722 0.0000 0.0000
# 5 0.0000 0.0000 0.0000 0.0000 63.0554 0.0000
# 6 0.0000 0.0000 0.0000 0.0000 0.0000 35.1361
#
#
#
# Elastic Compliance Matrix: (Units=1/GPa)
#
#
# Indices 1 2 3 4 5 6 
#
# 1 0.008870 -0.002084 -0.004537 0.000000 0.000000 0.000000
# 2 -0.002084 0.011607 -0.002855 0.000000 0.000000 0.000000
# 3 -0.004537 -0.002855 0.012224 0.000000 0.000000 0.000000
# 4 0.000000 0.000000 0.000000 0.028513 0.000000 0.000000
# 5 0.000000 0.000000 0.000000 0.000000 0.015859 0.000000
# 6 0.000000 0.000000 0.000000 0.000000 0.000000 0.028461
#
#
# Mechanical properties :
#
#
# Convention : Reuss Voigt Hill
#
# Bulk Modulus (GPa) = 72.73207 77.20465 74.96836
# Shear Modulus (GPa) = 38.73885 41.59849 40.16867
#
# Velocity S-wave (km/s) = 4.14923 4.29965 4.22511
# Velocity P-wave (km/s) = 7.43492 7.67855 7.55772
#
# Compressibility (1/GPa) = 0.01374909
#
# Stress axis : x y z
#
# Youngs Moduli (GPa) = 112.73511 86.15657 81.80384
#
# Poissons Ratio (x) = 0.17959 0.37115
# Poissons Ratio (y) = 0.23499 0.23353
# Poissons Ratio (z) = 0.51148 0.24595
#
# Static dielectric constant tensor:
#      x y z
#    x 1.862550 0.000000 0.000000 
#    y 0.000000 1.910700 0.000000 
#    z 0.000000 0.000000 1.745090 
# 
# From -- ./inp_files/63693.got.cif
#   From: 2010.05.17/outbox.cif.g08.bks.cpg/sg74_32_cif.got.tgz:63693.got - 2010.06.03 17:57:02.
