data_PCOD9539627
_publ_section_title
;
Structure prediction by ZEFSAII (Michael W. Deem and Ramdas Pophale) SiO2 
 PCOD9539627
Probable space group: I M M A
;
_chemical_formula_sum "Si O2"
_cell_formula_units_Z 72
_cell_length_a 20.682233
_cell_length_b 8.154017
_cell_length_c 22.000834
_cell_angle_alpha 90.000000
_cell_angle_beta 90.000000
_cell_angle_gamma 90.000000
_cell_volume 3710.292797
_symmetry_space_group_name_H-M "I M M A"
_symmetry_group_IT_number 74
_symmetry_cell_setting 'orthorhombic'
loop_
_space_group_symop_operation_xyz
x,y,z
-x,1/2-y,z
x,-y,-z
-x,1/2+y,-z
-x,-y,-z
x,1/2+y,-z
-x,y,z
x,1/2-y,z
1/2+x,1/2+y,1/2+z
1/2-x,-y,1/2+z
1/2+x,1/2-y,1/2-z
1/2-x,y,1/2-z
1/2-x,1/2-y,1/2-z
1/2+x,y,1/2-z
1/2-x,1/2+y,1/2+z
1/2+x,-y,1/2+z
loop_
_atom_site_type_symbol
_atom_site_label
_atom_site_fract_x
_atom_site_fract_y
_atom_site_fract_z
Si Si1 0.693275 0.055645 0.298730
Si Si2 0.235113 0.561390 0.068326
Si Si3 0.923578 0.556426 0.266412
Si Si4 0.500000 0.553541 0.932401
Si Si5 0.134031 0.943340 0.613847
O O1 0.688027 0.250000 0.289028
O O2 0.750000 0.996175 0.250000
O O3 0.712427 0.027696 0.369489
O O4 0.622386 0.973306 0.291523
O O5 0.215700 0.750000 0.072487
O O6 0.312003 0.541245 0.078230
O O7 0.218536 0.500000 0.000000
O O8 0.924739 0.750000 0.279814
O O9 0.876563 0.464006 0.314482
O O10 0.000000 0.501590 0.264596
O O11 0.500000 0.750000 0.923815
O O12 0.564925 0.488322 0.905083
O O13 0.500000 0.500000 0.000000
O O14 0.142453 0.750000 0.599926
#
# Coordination Sequence:
#
# PCOD9539627 Si02
#       5
#    16  16  16   8  16
#     4  11  23  40  65  93 123 162 208 257 308 366
#     4  12  25  41  62  89 123 160 203 254 309 367
#     4  11  23  38  60  91 124 161 204 252 307 366
#     4  10  22  34  48  70 106 154 201 244 289 348
#     4  11  21  36  55  81 116 159 204 247 299 358
#
# _framework density 19.405477999999999
#
# number of rings (size 3 to 8) (size 9 to 14) (size 15 to 20)
#    0.000    0.889    3.333    4.667    0.000    5.778 
#    0.000    0.000    0.000    0.667    0.000    0.000 
#    0.000    0.000    0.000    0.000    0.000    0.000 
#
# Total GULP energy -200404.271176 kJ/mol
# GULP energy per Si atom -5566.785310 kJ/mol
# Density = 1.936131 g / cm^3
# Si number density = 19.405478 Si / 1000 Ang^3
#
#
#
# Elastic Constant Matrix: (Units=GPa)
#
#
# Indices 1 2 3 4 5 6 
#
# 1 57.1025 3.0544 21.2861 0.0000 0.0000 0.0000
# 2 3.0544 56.4403 5.4602 0.0000 0.0000 0.0000
# 3 21.2861 5.4602 97.6373 0.0000 0.0000 0.0000
# 4 0.0000 0.0000 0.0000 29.5469 0.0000 0.0000
# 5 0.0000 0.0000 0.0000 0.0000 10.8804 0.0000
# 6 0.0000 0.0000 0.0000 0.0000 0.0000 23.6969
#
#
#
# Elastic Compliance Matrix: (Units=1/GPa)
#
#
# Indices 1 2 3 4 5 6 
#
# 1 0.019084 -0.000634 -0.004125 0.000000 0.000000 0.000000
# 2 -0.000634 0.017835 -0.000859 0.000000 0.000000 0.000000
# 3 -0.004125 -0.000859 0.011189 0.000000 0.000000 0.000000
# 4 0.000000 0.000000 0.000000 0.033844 0.000000 0.000000
# 5 0.000000 0.000000 0.000000 0.000000 0.091908 0.000000
# 6 0.000000 0.000000 0.000000 0.000000 0.000000 0.042200
#
#
# Mechanical properties :
#
#
# Convention : Reuss Voigt Hill
#
# Bulk Modulus (GPa) = 27.12048 30.08682 28.60365
# Shear Modulus (GPa) = 20.86919 24.91681 22.89300
#
# Velocity S-wave (km/s) = 3.28293 3.58719 3.43843
# Velocity P-wave (km/s) = 5.32693 5.71798 5.52591
#
# Compressibility (1/GPa) = 0.03687250
#
# Stress axis : x y z
#
# Youngs Moduli (GPa) = 52.39994 56.06872 89.37061
#
# Poissons Ratio (x) = 0.03553 0.36866
# Poissons Ratio (y) = 0.03321 0.07679
# Poissons Ratio (z) = 0.21615 0.04818
#
# Static dielectric constant tensor:
#      x y z
#    x 1.696900 0.000000 0.000000 
#    y 0.000000 1.659940 0.000000 
#    z 0.000000 0.000000 1.979400 
# 
# From -- ./inp_files/48349.got.cif
#   From: 2010.05.17/outbox.cif.g08.bks.cpg/sg74_25_cif.got.tgz:48349.got - 2010.06.03 17:57:02.
