data_PCOD9539931
_publ_section_title
;
Structure prediction by ZEFSAII (Michael W. Deem and Ramdas Pophale) SiO2 
 PCOD9539931
Probable space group: I M M A
;
_chemical_formula_sum "Si O2"
_cell_formula_units_Z 68
_cell_length_a 20.908152
_cell_length_b 25.477776
_cell_length_c 5.042563
_cell_angle_alpha 90.000000
_cell_angle_beta 90.000000
_cell_angle_gamma 90.000000
_cell_volume 2686.139087
_symmetry_space_group_name_H-M "I M M A"
_symmetry_group_IT_number 74
_symmetry_cell_setting 'orthorhombic'
loop_
_space_group_symop_operation_xyz
x,y,z
-x,1/2-y,z
x,-y,-z
-x,1/2+y,-z
-x,-y,-z
x,1/2+y,-z
-x,y,z
x,1/2-y,z
1/2+x,1/2+y,1/2+z
1/2-x,-y,1/2+z
1/2+x,1/2-y,1/2-z
1/2-x,y,1/2-z
1/2-x,1/2-y,1/2-z
1/2+x,y,1/2-z
1/2-x,1/2+y,1/2+z
1/2+x,-y,1/2+z
loop_
_atom_site_type_symbol
_atom_site_label
_atom_site_fract_x
_atom_site_fract_y
_atom_site_fract_z
Si Si1 0.346434 0.053216 0.412957
Si Si2 0.250000 0.750000 0.250000
Si Si3 0.810186 0.331006 0.067748
Si Si4 0.428492 0.191562 0.061183
Si Si5 0.426968 0.576855 0.102189
O O1 0.307270 0.106555 0.465457
O O2 0.376629 0.057875 0.120554
O O3 0.311002 0.000000 0.500000
O O4 0.405750 0.054986 0.616967
O O5 0.302598 0.796511 0.308425
O O6 0.750000 0.312630 0.250000
O O7 0.874303 0.316011 0.219608
O O8 0.500000 0.186997 0.181864
O O9 0.425109 0.250000 0.945606
O O10 0.422519 0.140218 0.878844
O O11 0.500000 0.563506 0.032824
#
# Coordination Sequence:
#
# PCOD9539931 Si02
#       5
#    16   4  16  16  16
#     4  11  25  45  67 101 144 191 243 302 359 431
#     4  12  26  44  78 102 136 184 240 300 358 442
#     4  11  26  45  71 104 143 188 242 296 363 436
#     4   9  19  40  68 100 143 187 233 298 364 429
#     4  10  22  41  69 104 142 190 246 299 366 434
#
# _framework density 25.315142999999999
#
# number of rings (size 3 to 8) (size 9 to 14) (size 15 to 20)
#    0.000    1.647    1.176    1.765    6.588    3.765 
#    2.118    0.000    0.000    7.059    0.000    0.000 
#    0.000    0.000    0.000    0.000    0.000    0.000 
#
# Total GULP energy -189837.522758 kJ/mol
# GULP energy per Si atom -5583.456552 kJ/mol
# Density = 2.525752 g / cm^3
# Si number density = 25.315143 Si / 1000 Ang^3
#
#
#
# Elastic Constant Matrix: (Units=GPa)
#
#
# Indices 1 2 3 4 5 6 
#
# 1 105.8630 23.3474 16.8960 0.0000 0.0000 0.0000
# 2 23.3474 213.3533 15.7786 0.0000 0.0000 0.0000
# 3 16.8960 15.7786 71.2886 0.0000 0.0000 0.0000
# 4 0.0000 0.0000 0.0000 -141.0037 0.0000 0.0000
# 5 0.0000 0.0000 0.0000 0.0000 35.7886 0.0000
# 6 0.0000 0.0000 0.0000 0.0000 0.0000 11.7717
#
#
#
# Elastic Compliance Matrix: (Units=1/GPa)
#
#
# Indices 1 2 3 4 5 6 
#
# 1 0.009997 -0.000934 -0.002163 0.000000 0.000000 0.000000
# 2 -0.000934 0.004852 -0.000853 0.000000 0.000000 0.000000
# 3 -0.002163 -0.000853 0.014729 0.000000 0.000000 0.000000
# 4 0.000000 0.000000 0.000000 -0.007092 0.000000 0.000000
# 5 0.000000 0.000000 0.000000 0.000000 0.027942 0.000000
# 6 0.000000 0.000000 0.000000 0.000000 0.000000 0.084950
#
#
# Mechanical properties :
#
#
# Convention : Reuss Voigt Hill
#
# Bulk Modulus (GPa) = 46.12613 55.83877 50.98245
# Shear Modulus (GPa) = 33.22184 3.61017 18.41601
#
# Velocity S-wave (km/s) = 3.62654 1.19549 2.70009
# Velocity P-wave (km/s) = 5.98298 4.90009 5.46841
#
# Compressibility (1/GPa) = 0.02167969
#
# Stress axis : x y z
#
# Youngs Moduli (GPa) = 100.02655 206.08646 67.89428
#
# Poissons Ratio (x) = 0.19250 0.14684
# Poissons Ratio (y) = 0.09343 0.05789
# Poissons Ratio (z) = 0.21633 0.17571
#
# Static dielectric constant tensor:
#      x y z
#    x 1.989350 0.000000 0.000000 
#    y 0.000000 2.083510 0.000000 
#    z 0.000000 0.000000 2.061330 
# 
# From -- ./inp_files/3091.got.cif
#   From: 2010.05.17/outbox.cif.g08.bks.cpg/sg74_2_cif.got.tgz:3091.got - 2010.06.03 17:57:02.
