data_PCOD9539502
_publ_section_title
;
Structure prediction by ZEFSAII (Michael W. Deem and Ramdas Pophale) SiO2 
 PCOD9539502
Probable space group: I M M A
;
_chemical_formula_sum "Si O2"
_cell_formula_units_Z 68
_cell_length_a 7.574471
_cell_length_b 17.457873
_cell_length_c 22.673702
_cell_angle_alpha 90.000000
_cell_angle_beta 90.000000
_cell_angle_gamma 90.000000
_cell_volume 2998.237774
_symmetry_space_group_name_H-M "I M M A"
_symmetry_group_IT_number 74
_symmetry_cell_setting 'orthorhombic'
loop_
_space_group_symop_operation_xyz
x,y,z
-x,1/2-y,z
x,-y,-z
-x,1/2+y,-z
-x,-y,-z
x,1/2+y,-z
-x,y,z
x,1/2-y,z
1/2+x,1/2+y,1/2+z
1/2-x,-y,1/2+z
1/2+x,1/2-y,1/2-z
1/2-x,y,1/2-z
1/2-x,1/2-y,1/2-z
1/2+x,y,1/2-z
1/2-x,1/2+y,1/2+z
1/2+x,-y,1/2+z
loop_
_atom_site_type_symbol
_atom_site_label
_atom_site_fract_x
_atom_site_fract_y
_atom_site_fract_z
Si Si1 0.750000 0.250000 0.250000
Si Si2 0.796164 0.877494 0.843717
Si Si3 0.786256 0.664548 0.412617
Si Si4 0.289948 0.546655 0.186166
Si Si5 0.206922 0.578947 0.971705
O O1 0.710123 0.182716 0.200294
O O2 0.720360 0.890252 0.909635
O O3 0.000000 0.849834 0.847805
O O4 0.793408 0.962867 0.817561
O O5 0.728949 0.750000 0.396829
O O6 0.724864 0.600915 0.366217
O O7 0.724891 0.641414 0.477501
O O8 0.000000 0.663106 0.412383
O O9 0.500000 0.537153 0.179768
O O10 0.250000 0.581134 0.250000
O O11 0.000000 0.563233 0.959303
O O12 0.282015 0.500000 0.000000
#
# Coordination Sequence:
#
# PCOD9539502 Si02
#       5
#     4  16  16  16  16
#     4  12  26  40  64  94 136 184 216 268 322 380
#     4  11  24  42  63  93 132 169 215 264 317 387
#     4  10  23  42  62  92 131 167 209 263 318 382
#     4  11  23  40  65  91 122 164 211 260 317 380
#     4  10  21  39  66  96 126 166 213 267 325 382
#
# _framework density 22.67999
#
# number of rings (size 3 to 8) (size 9 to 14) (size 15 to 20)
#    0.000    1.412    3.529    1.059    1.647    4.235 
#    0.000    0.000    0.000    0.000    0.000    0.000 
#    0.000    0.000    0.000    0.000    0.000    0.000 
#
# Total GULP energy -189553.632332 kJ/mol
# GULP energy per Si atom -5575.106833 kJ/mol
# Density = 2.262837 g / cm^3
# Si number density = 22.679990 Si / 1000 Ang^3
#
#
#
# Elastic Constant Matrix: (Units=GPa)
#
#
# Indices 1 2 3 4 5 6 
#
# 1 62.1369 6.9709 0.4383 0.0000 0.0000 0.0000
# 2 6.9709 155.0581 68.1100 0.0000 0.0000 0.0000
# 3 0.4383 68.1100 196.3479 0.0000 0.0000 0.0000
# 4 0.0000 0.0000 0.0000 49.2457 0.0000 0.0000
# 5 0.0000 0.0000 0.0000 0.0000 10.0881 0.0000
# 6 0.0000 0.0000 0.0000 0.0000 0.0000 1.6880
#
#
#
# Elastic Compliance Matrix: (Units=1/GPa)
#
#
# Indices 1 2 3 4 5 6 
#
# 1 0.016186 -0.000840 0.000255 0.000000 0.000000 0.000000
# 2 -0.000840 0.007652 -0.002653 0.000000 0.000000 0.000000
# 3 0.000255 -0.002653 0.006013 0.000000 0.000000 0.000000
# 4 0.000000 0.000000 0.000000 0.020306 0.000000 0.000000
# 5 0.000000 0.000000 0.000000 0.000000 0.099127 0.000000
# 6 0.000000 0.000000 0.000000 0.000000 0.000000 0.592411
#
#
# Mechanical properties :
#
#
# Convention : Reuss Voigt Hill
#
# Bulk Modulus (GPa) = 42.77832 62.73126 52.75479
# Shear Modulus (GPa) = 6.61410 34.73927 20.67668
#
# Velocity S-wave (km/s) = 1.70956 3.91796 3.02266
# Velocity P-wave (km/s) = 4.77488 6.94165 5.95760
#
# Compressibility (1/GPa) = 0.02337633
#
# Stress axis : x y z
#
# Youngs Moduli (GPa) = 61.78217 130.68354 166.31899
#
# Poissons Ratio (x) = 0.10974 -0.04244
# Poissons Ratio (y) = 0.05188 0.44116
# Poissons Ratio (z) = -0.01576 0.34664
#
# Static dielectric constant tensor:
#      x y z
#    x 1.924710 0.000000 0.000000 
#    y 0.000000 1.797000 0.000000 
#    z 0.000000 0.000000 1.850780 
# 
# From -- ./inp_files/48106.got.cif
#   From: 2010.05.17/outbox.cif.g08.bks.cpg/sg74_25_cif.got.tgz:48106.got - 2010.06.03 17:57:02.
