data_PCOD9539151
_publ_section_title
;
Structure prediction by ZEFSAII (Michael W. Deem and Ramdas Pophale) SiO2 
 PCOD9539151
Probable space group: I M M A
;
_chemical_formula_sum "Si O2"
_cell_formula_units_Z 112
_cell_length_a 29.691395
_cell_length_b 16.664082
_cell_length_c 11.614460
_cell_angle_alpha 90.000000
_cell_angle_beta 90.000000
_cell_angle_gamma 90.000000
_cell_volume 5746.600672
_symmetry_space_group_name_H-M "I M M A"
_symmetry_group_IT_number 74
_symmetry_cell_setting 'orthorhombic'
loop_
_space_group_symop_operation_xyz
x,y,z
-x,1/2-y,z
x,-y,-z
-x,1/2+y,-z
-x,-y,-z
x,1/2+y,-z
-x,y,z
x,1/2-y,z
1/2+x,1/2+y,1/2+z
1/2-x,-y,1/2+z
1/2+x,1/2-y,1/2-z
1/2-x,y,1/2-z
1/2-x,1/2-y,1/2-z
1/2+x,y,1/2-z
1/2-x,1/2+y,1/2+z
1/2+x,-y,1/2+z
loop_
_atom_site_type_symbol
_atom_site_label
_atom_site_fract_x
_atom_site_fract_y
_atom_site_fract_z
Si Si1 0.049670 0.378013 0.362034
Si Si2 0.117920 0.659268 0.445072
Si Si3 0.048152 0.841493 0.903305
Si Si4 0.213242 0.918717 0.421770
Si Si5 0.116368 0.924847 0.063286
Si Si6 0.799556 0.345429 0.829275
Si Si7 0.946951 0.941333 0.279686
O O1 0.089188 0.344872 0.438779
O O2 0.051563 0.344077 0.233746
O O3 0.053357 0.473784 0.346180
O O4 0.000000 0.359698 0.411715
O O5 0.126497 0.750000 0.408099
O O6 0.166097 0.617963 0.465492
O O7 0.084823 0.617413 0.353117
O O8 0.047044 0.750000 0.942271
O O9 0.000000 0.880771 0.933073
O O10 0.089017 0.882862 0.963119
O O11 0.204052 0.906287 0.281736
O O12 0.260094 0.868788 0.420304
O O13 0.219393 0.000000 0.500000
O O14 0.152380 0.865599 0.117802
O O15 0.079198 0.950181 0.158663
O O16 0.139510 0.000000 0.000000
O O17 0.796066 0.250000 0.799547
O O18 0.000000 0.918044 0.267043
#
# Coordination Sequence:
#
# PCOD9539151 Si02
#       7
#    16  16  16  16  16  16  16
#     4  10  21  39  60  86 125 172 217 262 316 379
#     4  12  24  39  62  93 127 167 210 263 324 385
#     4  10  21  37  58  86 123 169 217 266 321 383
#     4  11  23  42  69  96 126 163 210 261 317 389
#     4  12  23  38  64  93 126 169 218 270 323 384
#     4  11  24  45  69  99 134 169 211 269 332 390
#     4  11  23  38  59  88 125 167 215 267 316 373
#
# _framework density 19.489782999999999
#
# number of rings (size 3 to 8) (size 9 to 14) (size 15 to 20)
#    0.000    1.000    2.857    5.143    0.000    4.000 
#    0.000    0.000    0.000    0.000    0.000   18.000 
#    0.000    0.000    0.000    0.000    0.000    0.000 
#
# Total GULP energy -312044.245348 kJ/mol
# GULP energy per Si atom -5572.218667 kJ/mol
# Density = 1.944542 g / cm^3
# Si number density = 19.489783 Si / 1000 Ang^3
#
#
#
# Elastic Constant Matrix: (Units=GPa)
#
#
# Indices 1 2 3 4 5 6 
#
# 1 138.5651 38.1874 37.9491 0.0000 0.0000 0.0000
# 2 38.1874 102.8234 28.8790 0.0000 0.0000 0.0000
# 3 37.9491 28.8790 56.9531 0.0000 0.0000 0.0000
# 4 0.0000 0.0000 0.0000 432.3921 0.0000 0.0000
# 5 0.0000 0.0000 0.0000 0.0000 16.2088 0.0000
# 6 0.0000 0.0000 0.0000 0.0000 0.0000 0.2963
#
#
#
# Elastic Compliance Matrix: (Units=1/GPa)
#
#
# Indices 1 2 3 4 5 6 
#
# 1 0.009157 -0.001967 -0.005104 0.000000 0.000000 0.000000
# 2 -0.001967 0.011763 -0.004654 0.000000 0.000000 0.000000
# 3 -0.005104 -0.004654 0.023319 0.000000 0.000000 0.000000
# 4 0.000000 0.000000 0.000000 0.002313 0.000000 0.000000
# 5 0.000000 0.000000 0.000000 0.000000 0.061695 0.000000
# 6 0.000000 0.000000 0.000000 0.000000 0.000000 3.375401
#
#
# Mechanical properties :
#
#
# Convention : Reuss Voigt Hill
#
# Bulk Modulus (GPa) = 48.10255 56.48584 52.29419
# Shear Modulus (GPa) = 1.42287 102.66785 52.04536
#
# Velocity S-wave (km/s) = 0.85536 7.26582 5.17319
# Velocity P-wave (km/s) = 5.07050 9.97170 7.91027
#
# Compressibility (1/GPa) = 0.02078892
#
# Stress axis : x y z
#
# Youngs Moduli (GPa) = 109.20875 85.01156 42.88372
#
# Poissons Ratio (x) = 0.16724 0.21887
# Poissons Ratio (y) = 0.21484 0.19957
# Poissons Ratio (z) = 0.55738 0.39563
#
# Static dielectric constant tensor:
#      x y z
#    x 1.694030 0.000000 0.000000 
#    y 0.000000 1.731070 0.000000 
#    z 0.000000 0.000000 1.697230 
# 
# From -- ./inp_files/27186.got.cif
#   From: 2010.05.17/outbox.cif.g08.bks.cpg/sg74_14_cif.got.tgz:27186.got - 2010.06.03 17:57:02.
