data_PCOD9539438
_publ_section_title
;
Structure prediction by ZEFSAII (Michael W. Deem and Ramdas Pophale) SiO2 
 PCOD9539438
Probable space group: I M M A
;
_chemical_formula_sum "Si O2"
_cell_formula_units_Z 64
_cell_length_a 21.567081
_cell_length_b 15.162219
_cell_length_c 8.728776
_cell_angle_alpha 90.000000
_cell_angle_beta 90.000000
_cell_angle_gamma 90.000000
_cell_volume 2854.351696
_symmetry_space_group_name_H-M "I M M A"
_symmetry_group_IT_number 74
_symmetry_cell_setting 'orthorhombic'
loop_
_space_group_symop_operation_xyz
x,y,z
-x,1/2-y,z
x,-y,-z
-x,1/2+y,-z
-x,-y,-z
x,1/2+y,-z
-x,y,z
x,1/2-y,z
1/2+x,1/2+y,1/2+z
1/2-x,-y,1/2+z
1/2+x,1/2-y,1/2-z
1/2-x,y,1/2-z
1/2-x,1/2-y,1/2-z
1/2+x,y,1/2-z
1/2-x,1/2+y,1/2+z
1/2+x,-y,1/2+z
loop_
_atom_site_type_symbol
_atom_site_label
_atom_site_fract_x
_atom_site_fract_y
_atom_site_fract_z
Si Si1 0.500000 0.897937 0.948264
Si Si2 0.871036 0.901195 0.431860
Si Si3 0.120798 0.648309 0.091908
Si Si4 0.755206 0.400924 0.067346
Si Si5 0.500000 0.142936 0.405391
O O1 0.500000 0.893053 0.765815
O O2 0.564184 0.859155 0.013495
O O3 0.500000 0.000000 0.000000
O O4 0.869482 0.904149 0.248787
O O5 0.807539 0.860105 0.495753
O O6 0.871025 0.000000 0.500000
O O7 0.109314 0.750000 0.136568
O O8 0.182029 0.644173 0.988901
O O9 0.061411 0.616239 0.997459
O O10 0.750000 0.402289 0.250000
O O11 0.759486 0.500000 0.000000
O O12 0.500000 0.250000 0.394224
#
# Coordination Sequence:
#
# PCOD9539438 Si02
#       5
#     8  16  16  16   8
#     4  10  21  40  64  93 121 155 206 250 295 360
#     4  10  21  39  61  91 125 159 202 251 308 363
#     4  11  24  42  64  90 122 163 208 253 304 365
#     4  11  22  39  62  90 126 163 203 253 309 364
#     4  10  23  42  62  89 127 165 200 250 312 362
#
# _framework density 22.421904000000001
#
# number of rings (size 3 to 8) (size 9 to 14) (size 15 to 20)
#    0.000    1.500    0.000    6.000    0.000    5.500 
#    0.000    5.625    0.000    0.000    0.000    0.000 
#    0.000    0.000    0.000    0.000    0.000    0.000 
#
# Total GULP energy -179030.943955 kJ/mol
# GULP energy per Si atom -5594.716999 kJ/mol
# Density = 2.237087 g / cm^3
# Si number density = 22.421904 Si / 1000 Ang^3
#
#
#
# Elastic Constant Matrix: (Units=GPa)
#
#
# Indices 1 2 3 4 5 6 
#
# 1 236.9752 5.7878 95.8658 0.0000 0.0000 0.0000
# 2 5.7878 62.6992 25.0336 0.0000 0.0000 0.0000
# 3 95.8658 25.0336 242.8371 0.0000 0.0000 0.0000
# 4 0.0000 0.0000 0.0000 -23.2185 0.0000 0.0000
# 5 0.0000 0.0000 0.0000 0.0000 46.4135 0.0000
# 6 0.0000 0.0000 0.0000 0.0000 0.0000 10.7237
#
#
#
# Elastic Compliance Matrix: (Units=1/GPa)
#
#
# Indices 1 2 3 4 5 6 
#
# 1 0.005029 0.000343 -0.002021 0.000000 0.000000 0.000000
# 2 0.000343 0.016657 -0.001852 0.000000 0.000000 0.000000
# 3 -0.002021 -0.001852 0.005107 0.000000 0.000000 0.000000
# 4 0.000000 0.000000 0.000000 -0.043069 0.000000 0.000000
# 5 0.000000 0.000000 0.000000 0.000000 0.021545 0.000000
# 6 0.000000 0.000000 0.000000 0.000000 0.000000 0.093251
#
#
# Mechanical properties :
#
#
# Convention : Reuss Voigt Hill
#
# Bulk Modulus (GPa) = 50.67963 88.43174 69.55569
# Shear Modulus (GPa) = 44.57981 34.50538 39.54259
#
# Velocity S-wave (km/s) = 4.46379 3.92715 4.20404
# Velocity P-wave (km/s) = 7.01563 7.75170 7.39283
#
# Compressibility (1/GPa) = 0.01973179
#
# Stress axis : x y z
#
# Youngs Moduli (GPa) = 198.85091 60.03433 195.82422
#
# Poissons Ratio (x) = -0.02056 0.39568
# Poissons Ratio (y) = -0.06811 0.36274
# Poissons Ratio (z) = 0.40180 0.11121
#
# Static dielectric constant tensor:
#      x y z
#    x 1.883040 0.000000 0.000000 
#    y 0.000000 1.637930 0.000000 
#    z 0.000000 0.000000 1.746680 
# 
# From -- ./inp_files/11815.got.cif
#   From: 2010.05.17/outbox.cif.g08.bks.cpg/sg74_6_cif.got.tgz:11815.got - 2010.06.03 17:57:02.
