data_PCOD9540112
_publ_section_title
;
Structure prediction by ZEFSAII (Michael W. Deem and Ramdas Pophale) SiO2 
 PCOD9540112
Probable space group: I M M A
;
_chemical_formula_sum "Si O2"
_cell_formula_units_Z 76
_cell_length_a 10.015254
_cell_length_b 25.453566
_cell_length_c 16.577597
_cell_angle_alpha 90.000000
_cell_angle_beta 90.000000
_cell_angle_gamma 90.000000
_cell_volume 4226.026156
_symmetry_space_group_name_H-M "I M M A"
_symmetry_group_IT_number 74
_symmetry_cell_setting 'orthorhombic'
loop_
_space_group_symop_operation_xyz
x,y,z
-x,1/2-y,z
x,-y,-z
-x,1/2+y,-z
-x,-y,-z
x,1/2+y,-z
-x,y,z
x,1/2-y,z
1/2+x,1/2+y,1/2+z
1/2-x,-y,1/2+z
1/2+x,1/2-y,1/2-z
1/2-x,y,1/2-z
1/2-x,1/2-y,1/2-z
1/2+x,y,1/2-z
1/2-x,1/2+y,1/2+z
1/2+x,-y,1/2+z
loop_
_atom_site_type_symbol
_atom_site_label
_atom_site_fract_x
_atom_site_fract_y
_atom_site_fract_z
Si Si1 0.000000 0.098027 0.624294
Si Si2 0.216249 0.135994 0.931874
Si Si3 0.500000 0.029070 0.121986
Si Si4 0.500000 0.750000 0.232551
Si Si5 0.709408 0.449797 0.442407
Si Si6 0.728953 0.750000 0.375355
Si Si7 0.500000 0.471513 0.307596
Si Si8 0.500000 0.402641 0.692114
O O1 0.867343 0.118607 0.583630
O O2 0.000000 0.118364 0.716943
O O3 0.000000 0.034684 0.622670
O O4 0.208428 0.198212 0.929375
O O5 0.128652 0.116300 0.856214
O O6 0.171716 0.102776 0.009403
O O7 0.366098 0.047500 0.077951
O O8 0.500000 0.046832 0.215375
O O9 0.617652 0.750000 0.304524
O O10 0.377845 0.750000 0.163801
O O11 0.677666 0.500000 0.500000
O O12 0.627751 0.454970 0.359921
O O13 0.500000 0.534744 0.304691
#
# Coordination Sequence:
#
# PCOD9540112 Si02
#       8
#     8  16   8   4  16   8   8   8
#     4  11  22  34  53  83 113 154 184 234 271 328
#     4  12  24  36  57  77 115 148 198 229 280 322
#     4  11  22  38  57  85 119 145 190 225 288 344
#     4  10  24  42  60  70 120 150 210 234 260 320
#     4  12  21  38  57  86 111 153 183 236 282 343
#     4  11  26  40  52  86 105 160 194 240 273 328
#     4  11  22  38  57  85 119 145 190 225 288 344
#     4  11  22  34  53  83 113 154 184 234 271 328
#
# _framework density 17.983798
#
# number of rings (size 3 to 8) (size 9 to 14) (size 15 to 20)
#    0.000    0.632    4.211    4.421    8.842    3.368 
#    0.000    0.000    0.000    0.000    0.000    4.421 
#    0.000    0.000    0.000    0.000    0.000    0.000 
#
# Total GULP energy -212037.100142 kJ/mol
# GULP energy per Si atom -5579.923688 kJ/mol
# Density = 1.794287 g / cm^3
# Si number density = 17.983798 Si / 1000 Ang^3
#
#
#
# Elastic Constant Matrix: (Units=GPa)
#
#
# Indices 1 2 3 4 5 6 
#
# 1 88.1558 5.9522 -1.9200 0.0000 0.0000 0.0000
# 2 5.9522 108.1230 42.9778 0.0000 0.0000 0.0000
# 3 -1.9200 42.9778 81.5888 0.0001 0.0000 0.0000
# 4 0.0000 0.0000 0.0001 10.9068 0.0000 0.0000
# 5 0.0000 0.0000 0.0000 0.0000 46.2313 0.0000
# 6 0.0000 0.0000 0.0000 0.0000 0.0000 3.9874
#
#
#
# Elastic Compliance Matrix: (Units=1/GPa)
#
#
# Indices 1 2 3 4 5 6 
#
# 1 0.011423 -0.000931 0.000759 0.000000 0.000000 0.000000
# 2 -0.000931 0.011774 -0.006224 0.000000 0.000000 0.000000
# 3 0.000759 -0.006224 0.015553 0.000000 0.000000 0.000000
# 4 0.000000 0.000000 0.000000 0.091686 0.000000 0.000000
# 5 0.000000 0.000000 0.000000 0.000000 0.021630 0.000000
# 6 0.000000 0.000000 0.000000 0.000000 0.000000 0.250787
#
#
# Mechanical properties :
#
#
# Convention : Reuss Voigt Hill
#
# Bulk Modulus (GPa) = 38.52252 41.32083 39.92167
# Shear Modulus (GPa) = 11.78420 27.61561 19.69991
#
# Velocity S-wave (km/s) = 2.56260 3.92290 3.31331
# Velocity P-wave (km/s) = 5.49755 6.59890 6.07324
#
# Compressibility (1/GPa) = 0.02595884
#
# Stress axis : x y z
#
# Youngs Moduli (GPa) = 87.54332 84.93366 64.29641
#
# Poissons Ratio (x) = 0.07903 -0.04880
# Poissons Ratio (y) = 0.08146 0.40018
# Poissons Ratio (z) = -0.06644 0.52862
#
# Static dielectric constant tensor:
#      x y z
#    x 1.628190 0.000000 0.000000 
#    y 0.000000 1.658560 0.000000 
#    z 0.000000 0.000000 1.605450 
# 
# From -- ./inp_files/39875.got.cif
#   From: 2010.05.17/outbox.cif.g08.bks.cpg/sg74_20_cif.got.tgz:39875.got - 2010.06.03 17:57:02.
