data_PCOD9540886
_publ_section_title
;
Structure prediction by ZEFSAII (Michael W. Deem and Ramdas Pophale) SiO2 
 PCOD9540886
Probable space group: I M M A
;
_chemical_formula_sum "Si O2"
_cell_formula_units_Z 44
_cell_length_a 9.000000
_cell_length_b 18.000000
_cell_length_c 30.000000
_cell_angle_alpha 90.000000
_cell_angle_beta 90.000000
_cell_angle_gamma 90.000000
_cell_volume 4860.000000
_symmetry_space_group_name_H-M "I M M A"
_symmetry_group_IT_number 74
_symmetry_cell_setting 'orthorhombic'
loop_
_space_group_symop_operation_xyz
x,y,z
-x,1/2-y,z
x,-y,-z
-x,1/2+y,-z
-x,-y,-z
x,1/2+y,-z
-x,y,z
x,1/2-y,z
1/2+x,1/2+y,1/2+z
1/2-x,-y,1/2+z
1/2+x,1/2-y,1/2-z
1/2-x,y,1/2-z
1/2-x,1/2-y,1/2-z
1/2+x,y,1/2-z
1/2-x,1/2+y,1/2+z
1/2+x,-y,1/2+z
loop_
_atom_site_type_symbol
_atom_site_label
_atom_site_fract_x
_atom_site_fract_y
_atom_site_fract_z
Si Si1 0.320594 0.381641 0.632694
Si Si2 0.318978 0.947329 0.630700
Si Si3 0.820619 0.162954 0.051557
Si Si4 0.679978 0.250000 0.700657
Si Si5 0.177992 0.830939 0.798054
Si Si6 0.332413 0.338878 0.959289
O O1 0.500000 0.379300 0.630955
O O2 0.272651 0.467600 0.637135
O O3 0.276628 0.323199 0.671500
O O4 0.255228 0.357300 0.585422
O O5 0.500000 0.947920 0.629793
O O6 0.273354 0.898750 0.587695
O O7 0.268709 0.898111 0.672166
O O8 0.778095 0.250000 0.061264
O O9 0.000000 0.162622 0.049771
O O10 0.754449 0.139827 0.003968
O O11 0.500000 0.250000 0.704614
O O12 0.750000 0.250000 0.750000
O O13 0.210805 0.750000 0.818892
O O14 0.250000 0.833143 0.750000
O O15 0.000000 0.835642 0.793945
O O16 0.500000 0.369502 0.958373
O O17 0.342316 0.250000 0.961117
#
# Coordination Sequence:
#
# PCOD9540886 Si02
#       6
#    16  16  16   8  16  16
#     4  10  20  36  56  77 101 133 174 215 258 309
#     4   9  18  32  52  77 104 134 172 217 257 301
#     4   9  17  31  53  78 103 137 177 213 251 299
#     4  10  22  38  58  80 102 132 172 220 269 316
#     4   9  17  31  51  74 101 134 171 208 250 302
#     4  10  20  34  53  76 104 138 173 211 258 311
#
# _framework density 9.0534979999999994
#
# number of rings (size 3 to 8) (size 9 to 14) (size 15 to 20)
#    0.000    2.545    0.909    1.091    0.000    5.091 
#    0.000    6.364    0.000    4.364    0.000    0.000 
#    0.000    0.000    0.000    0.000    0.000    0.000 
#
# Total GULP energy -245089.737138 kJ/mol
# GULP energy per Si atom -5570.221299 kJ/mol
# Density = 0.903289 g / cm^3
# Si number density = 9.053498 Si / 1000 Ang^3
#
#
#
# Elastic Constant Matrix: (Units=GPa)
#
#
# Indices 1 2 3 4 5 6 
#
# 1 8.4953 32.0603 26.4393 0.0000 0.0000 0.0000
# 2 32.0603 132.2311 94.9671 0.0000 0.0000 0.0000
# 3 26.4393 94.9671 143.4013 0.0000 0.0000 0.0000
# 4 0.0000 0.0000 0.0000 -2.7673 0.0000 0.0000
# 5 0.0000 0.0000 0.0000 0.0000 20.2747 0.0000
# 6 0.0000 0.0000 0.0000 0.0000 0.0000 11.4147
#
#
#
# Elastic Compliance Matrix: (Units=1/GPa)
#
#
# Indices 1 2 3 4 5 6 
#
# 1 1.763322 -0.370036 -0.080053 0.000000 0.000000 0.000000
# 2 -0.370036 0.092075 0.007248 0.000000 0.000000 0.000000
# 3 -0.080053 0.007248 0.016933 0.000000 0.000000 0.000000
# 4 0.000000 0.000000 0.000000 -0.361361 0.000000 0.000000
# 5 0.000000 0.000000 0.000000 0.000000 0.049322 0.000000
# 6 0.000000 0.000000 0.000000 0.000000 0.000000 0.087606
#
#
# Mechanical properties :
#
#
# Convention : Reuss Voigt Hill
#
# Bulk Modulus (GPa) = 1.01353 65.67347 33.34350
# Shear Modulus (GPa) = 1.74675 14.49516 8.12096
#
# Velocity S-wave (km/s) = 0.98325 2.83243 2.12008
# Velocity P-wave (km/s) = 1.36015 6.85896 4.94446
#
# Compressibility (1/GPa) = 0.98664787
#
# Stress axis : x y z
#
# Youngs Moduli (GPa) = 0.56711 10.86077 59.05711
#
# Poissons Ratio (x) = 4.01888 4.72770
# Poissons Ratio (y) = 0.20985 -0.42807
# Poissons Ratio (z) = 0.04540 -0.07872
#
# Static dielectric constant tensor:
#      x y z
#    x 1.619150 0.000000 0.000000 
#    y 0.000000 1.647540 0.000000 
#    z 0.000000 0.000000 1.599030 
# 
# From -- ./inp_files/70289.got.cif
#   From: 2010.05.17/outbox.ucp.g08.bks.cvg/sg74_36_cif.got.tgz:70289.got - 2010.06.11 16:37:44.
