data_PCOD9540503
_publ_section_title
;
Structure prediction by ZEFSAII (Michael W. Deem and Ramdas Pophale) SiO2 
 PCOD9540503
Probable space group: I M M A
;
_chemical_formula_sum "Si O2"
_cell_formula_units_Z 56
_cell_length_a 8.454259
_cell_length_b 37.755889
_cell_length_c 9.237433
_cell_angle_alpha 90.000000
_cell_angle_beta 90.000000
_cell_angle_gamma 90.000000
_cell_volume 2948.570733
_symmetry_space_group_name_H-M "I M M A"
_symmetry_group_IT_number 74
_symmetry_cell_setting 'orthorhombic'
loop_
_space_group_symop_operation_xyz
x,y,z
-x,1/2-y,z
x,-y,-z
-x,1/2+y,-z
-x,-y,-z
x,1/2+y,-z
-x,y,z
x,1/2-y,z
1/2+x,1/2+y,1/2+z
1/2-x,-y,1/2+z
1/2+x,1/2-y,1/2-z
1/2-x,y,1/2-z
1/2-x,1/2-y,1/2-z
1/2+x,y,1/2-z
1/2-x,1/2+y,1/2+z
1/2+x,-y,1/2+z
loop_
_atom_site_type_symbol
_atom_site_label
_atom_site_fract_x
_atom_site_fract_y
_atom_site_fract_z
Si Si1 0.310210 0.035155 0.586186
Si Si2 0.689832 0.896676 0.913378
Si Si3 0.191450 0.827224 0.415347
Si Si4 0.690776 0.750000 0.084478
O O1 0.500000 0.035906 0.586739
O O2 0.250000 0.034087 0.750000
O O3 0.248502 0.069975 0.505556
O O4 0.257880 0.000000 0.500000
O O5 0.500000 0.896733 0.912978
O O6 0.750000 0.899176 0.750000
O O7 0.745642 0.860188 0.988648
O O8 0.250000 0.830936 0.250000
O O9 0.242683 0.788380 0.474229
O O10 0.000000 0.827716 0.412176
O O11 0.500000 0.750000 0.082679
O O12 0.750000 0.750000 0.250000
#
# Coordination Sequence:
#
# PCOD9540503 Si02
#       4
#    16  16  16   8
#     4  11  24  41  62  87 114 145 181 222 269 322
#     4  11  23  38  56  80 111 147 186 228 275 325
#     4   9  18  32  53  79 106 139 179 224 272 324
#     4   8  14  28  49  74 104 136 174 220 269 320
#
# _framework density 18.992252000000001
#
# number of rings (size 3 to 8) (size 9 to 14) (size 15 to 20)
#    0.000    2.000    0.000    3.429    0.000    9.143 
#    0.000    0.714    0.000    0.000    0.000    0.000 
#    0.000    0.000    0.000    0.000    0.000    0.000 
#
# Total GULP energy -156292.218030 kJ/mol
# GULP energy per Si atom -5581.864930 kJ/mol
# Density = 1.894902 g / cm^3
# Si number density = 18.992252 Si / 1000 Ang^3
#
#
#
# Elastic Constant Matrix: (Units=GPa)
#
#
# Indices 1 2 3 4 5 6 
#
# 1 28.6729 37.9841 24.6721 -0.0002 0.0000 0.0001
# 2 37.9841 237.4239 113.0179 -0.0007 0.0000 0.0001
# 3 24.6721 113.0179 146.4366 -0.0010 0.0000 0.0007
# 4 -0.0002 -0.0007 -0.0010 33.5956 0.0000 0.0000
# 5 0.0000 0.0000 0.0000 0.0000 31.1044 -0.0001
# 6 0.0001 0.0001 0.0007 0.0000 -0.0001 39.7246
#
#
#
# Elastic Compliance Matrix: (Units=1/GPa)
#
#
# Indices 1 2 3 4 5 6 
#
# 1 0.045193 -0.005700 -0.003215 0.000000 0.000000 0.000000
# 2 -0.005700 0.007377 -0.004733 0.000000 0.000000 0.000000
# 3 -0.003215 -0.004733 0.011023 0.000000 0.000000 0.000000
# 4 0.000000 0.000000 0.000000 0.029766 0.000000 0.000000
# 5 0.000000 0.000000 0.000000 0.000000 0.032150 0.000000
# 6 0.000000 0.000000 0.000000 0.000000 0.000000 0.025173
#
#
# Mechanical properties :
#
#
# Convention : Reuss Voigt Hill
#
# Bulk Modulus (GPa) = 27.55005 84.87574 56.21289
# Shear Modulus (GPa) = 26.30503 36.67552 31.49028
#
# Velocity S-wave (km/s) = 3.72565 4.39917 4.07634
# Velocity P-wave (km/s) = 5.74845 8.40180 7.19844
#
# Compressibility (1/GPa) = 0.03629758
#
# Stress axis : x y z
#
# Youngs Moduli (GPa) = 22.12712 135.56199 90.71560
#
# Poissons Ratio (x) = 0.77266 0.29169
# Poissons Ratio (y) = 0.12612 0.42935
# Poissons Ratio (z) = 0.07115 0.64161
#
# Static dielectric constant tensor:
#      x y z
#    x 1.649780 0.000000 0.000000 
#    y 0.000000 1.697480 0.000000 
#    z 0.000000 0.000000 1.598170 
# 
# From -- ./inp_files/17469.got.cif
#   From: 2010.05.17/outbox.cif.g08.bks.cpg/sg74_9_cif.got.tgz:17469.got - 2010.06.03 17:57:02.
