data_PCOD9540063
_publ_section_title
;
Structure prediction by ZEFSAII (Michael W. Deem and Ramdas Pophale) SiO2 
 PCOD9540063
Probable space group: I M M A
;
_chemical_formula_sum "Si O2"
_cell_formula_units_Z 84
_cell_length_a 23.067818
_cell_length_b 15.155557
_cell_length_c 11.818474
_cell_angle_alpha 90.000000
_cell_angle_beta 90.000000
_cell_angle_gamma 90.000000
_cell_volume 4131.805055
_symmetry_space_group_name_H-M "I M M A"
_symmetry_group_IT_number 74
_symmetry_cell_setting 'orthorhombic'
loop_
_space_group_symop_operation_xyz
x,y,z
-x,1/2-y,z
x,-y,-z
-x,1/2+y,-z
-x,-y,-z
x,1/2+y,-z
-x,y,z
x,1/2-y,z
1/2+x,1/2+y,1/2+z
1/2-x,-y,1/2+z
1/2+x,1/2-y,1/2-z
1/2-x,y,1/2-z
1/2-x,1/2-y,1/2-z
1/2+x,y,1/2-z
1/2-x,1/2+y,1/2+z
1/2+x,-y,1/2+z
loop_
_atom_site_type_symbol
_atom_site_label
_atom_site_fract_x
_atom_site_fract_y
_atom_site_fract_z
Si Si1 0.378873 0.343295 0.250018
Si Si2 0.842498 0.394198 0.501083
Si Si3 0.225522 0.649240 0.123039
Si Si4 0.500000 0.250000 0.251806
Si Si5 0.381928 0.521360 0.379617
Si Si6 0.066034 0.850633 0.303699
O O1 0.352758 0.250000 0.292886
O O2 0.447952 0.325229 0.251523
O O3 0.364902 0.429329 0.321509
O O4 0.359411 0.358778 0.121541
O O5 0.843018 0.500000 0.500000
O O6 0.779474 0.362430 0.539701
O O7 0.888986 0.363176 0.594397
O O8 0.204035 0.750000 0.119177
O O9 0.250000 0.633450 0.250000
O O10 0.174976 0.580422 0.098963
O O11 0.410471 0.500000 0.500000
O O12 0.419950 0.578858 0.293198
O O13 0.072000 0.750000 0.260630
O O14 0.000000 0.861644 0.344333
#
# Coordination Sequence:
#
# PCOD9540063 Si02
#       6
#    16  16  16   4  16  16
#     4  10  23  43  69 103 139 179 227 285 356 425
#     4  12  22  40  72 104 140 175 223 283 359 426
#     4  11  22  41  69  99 138 179 225 282 344 408
#     4   8  24  44  72 100 148 180 228 286 374 424
#     4  12  26  44  66  94 135 184 237 284 338 408
#     4  11  25  42  66 100 133 172 226 286 352 424
#
# _framework density 20.330096999999999
#
# number of rings (size 3 to 8) (size 9 to 14) (size 15 to 20)
#    0.571    0.381    3.810    2.857    2.667    2.286 
#    0.000    0.000    0.000    4.000    0.000    0.000 
#    0.000    0.000    0.000    0.000    0.000    0.000 
#
# Total GULP energy -234217.043615 kJ/mol
# GULP energy per Si atom -5576.596277 kJ/mol
# Density = 2.028382 g / cm^3
# Si number density = 20.330097 Si / 1000 Ang^3
#
#
#
# Elastic Constant Matrix: (Units=GPa)
#
#
# Indices 1 2 3 4 5 6 
#
# 1 85.2234 14.2324 -4.4314 0.0000 0.0000 0.0000
# 2 14.2324 133.3912 18.6150 0.0000 0.0000 0.0000
# 3 -4.4314 18.6150 70.1310 0.0000 0.0000 0.0000
# 4 0.0000 0.0000 0.0000 -27.6350 0.0000 0.0000
# 5 0.0000 0.0000 0.0000 0.0000 163.9631 0.0000
# 6 0.0000 0.0000 0.0000 0.0000 0.0000 43.1271
#
#
#
# Elastic Compliance Matrix: (Units=1/GPa)
#
#
# Indices 1 2 3 4 5 6 
#
# 1 0.012034 -0.001444 0.001144 0.000000 0.000000 0.000000
# 2 -0.001444 0.007958 -0.002204 0.000000 0.000000 0.000000
# 3 0.001144 -0.002204 0.014916 0.000000 0.000000 0.000000
# 4 0.000000 0.000000 0.000000 -0.036186 0.000000 0.000000
# 5 0.000000 0.000000 0.000000 0.000000 0.006099 0.000000
# 6 0.000000 0.000000 0.000000 0.000000 0.000000 0.023187
#
#
# Mechanical properties :
#
#
# Convention : Reuss Voigt Hill
#
# Bulk Modulus (GPa) = 33.44293 38.39750 35.92021
# Shear Modulus (GPa) = 116.32334 53.24633 84.78484
#
# Velocity S-wave (km/s) = 7.57242 5.12326 6.46488
# Velocity P-wave (km/s) = 9.64059 7.34337 8.56931
#
# Compressibility (1/GPa) = 0.02990169
#
# Stress axis : x y z
#
# Youngs Moduli (GPa) = 83.09495 125.65504 67.04116
#
# Poissons Ratio (x) = 0.18140 -0.07667
# Poissons Ratio (y) = 0.11996 0.14773
# Poissons Ratio (z) = -0.09503 0.27689
#
# Static dielectric constant tensor:
#      x y z
#    x 1.691800 0.000000 0.000000 
#    y 0.000000 1.745480 0.000000 
#    z 0.000000 0.000000 1.708530 
# 
# From -- ./inp_files/24977.got.cif
#   From: 2010.05.17/outbox.cif.g08.bks.cpg/sg74_13_cif.got.tgz:24977.got - 2010.06.03 17:57:02.
