data_PCOD9540193
_publ_section_title
;
Structure prediction by ZEFSAII (Michael W. Deem and Ramdas Pophale) SiO2 
 PCOD9540193
Probable space group: I M M A
;
_chemical_formula_sum "Si O2"
_cell_formula_units_Z 64
_cell_length_a 11.110106
_cell_length_b 15.200789
_cell_length_c 19.628391
_cell_angle_alpha 90.000000
_cell_angle_beta 90.000000
_cell_angle_gamma 90.000000
_cell_volume 3314.889330
_symmetry_space_group_name_H-M "I M M A"
_symmetry_group_IT_number 74
_symmetry_cell_setting 'orthorhombic'
loop_
_space_group_symop_operation_xyz
x,y,z
-x,1/2-y,z
x,-y,-z
-x,1/2+y,-z
-x,-y,-z
x,1/2+y,-z
-x,y,z
x,1/2-y,z
1/2+x,1/2+y,1/2+z
1/2-x,-y,1/2+z
1/2+x,1/2-y,1/2-z
1/2-x,y,1/2-z
1/2-x,1/2-y,1/2-z
1/2+x,y,1/2-z
1/2-x,1/2+y,1/2+z
1/2+x,-y,1/2+z
loop_
_atom_site_type_symbol
_atom_site_label
_atom_site_fract_x
_atom_site_fract_y
_atom_site_fract_z
Si Si1 0.500000 0.477461 0.292037
Si Si2 0.000000 0.845083 0.914045
Si Si3 0.250000 0.021343 0.750000
Si Si4 0.357280 0.647688 0.133971
Si Si5 0.194104 0.398254 0.978461
Si Si6 0.500000 0.648278 0.365373
O O1 0.500000 0.426586 0.363351
O O2 0.630564 0.462167 0.259944
O O3 0.500000 0.583050 0.302625
O O4 0.000000 0.750000 0.879302
O O5 0.880154 0.852048 0.960885
O O6 0.285975 0.083402 0.814166
O O7 0.500000 0.633248 0.141794
O O8 0.330133 0.750000 0.150013
O O9 0.319973 0.630712 0.054699
O O10 0.110385 0.376279 0.913788
O O11 0.197352 0.500000 0.000000
O O12 0.500000 0.750000 0.346958
#
# Coordination Sequence:
#
# PCOD9540193 Si02
#       6
#     8   8   8  16  16   8
#     4  12  24  41  62  92 121 162 206 256 301 370
#     4  11  21  39  66  92 116 155 209 261 305 354
#     4  12  23  40  59  84 124 162 210 244 304 356
#     4  11  23  36  53  85 125 165 202 244 305 371
#     4  11  19  35  57  86 120 150 197 251 300 361
#     4  11  19  31  56  84 114 147 188 243 295 344
#
# _framework density 19.306829
#
# number of rings (size 3 to 8) (size 9 to 14) (size 15 to 20)
#    0.000    0.750    6.250    4.125    0.000    1.500 
#    0.000    0.625    0.000    0.000    0.000    0.000 
#    0.000    0.000    0.000    0.000    0.000    0.000 
#
# Total GULP energy -178317.331801 kJ/mol
# GULP energy per Si atom -5572.416619 kJ/mol
# Density = 1.926289 g / cm^3
# Si number density = 19.306829 Si / 1000 Ang^3
#
#
#
# Elastic Constant Matrix: (Units=GPa)
#
#
# Indices 1 2 3 4 5 6 
#
# 1 116.3347 16.4634 37.5383 0.0000 0.0000 0.0000
# 2 16.4634 60.5986 18.6342 0.0000 0.0000 0.0000
# 3 37.5383 18.6342 65.4132 0.0000 0.0000 0.0000
# 4 0.0000 0.0000 0.0000 5.8646 0.0000 0.0000
# 5 0.0000 0.0000 0.0000 0.0000 41.8113 0.0000
# 6 0.0000 0.0000 0.0000 0.0000 0.0000 29.3515
#
#
#
# Elastic Compliance Matrix: (Units=1/GPa)
#
#
# Indices 1 2 3 4 5 6 
#
# 1 0.010617 -0.001108 -0.005777 0.000000 0.000000 0.000000
# 2 -0.001108 0.018202 -0.004549 0.000000 0.000000 0.000000
# 3 -0.005777 -0.004549 0.019899 0.000000 0.000000 0.000000
# 4 0.000000 0.000000 0.000000 0.170515 0.000000 0.000000
# 5 0.000000 0.000000 0.000000 0.000000 0.023917 0.000000
# 6 0.000000 0.000000 0.000000 0.000000 0.000000 0.034070
#
#
# Mechanical properties :
#
#
# Convention : Reuss Voigt Hill
#
# Bulk Modulus (GPa) = 38.68650 43.06868 40.87759
# Shear Modulus (GPa) = 16.19675 26.71952 21.45814
#
# Velocity S-wave (km/s) = 2.89954 3.72417 3.33742
# Velocity P-wave (km/s) = 5.59384 6.39129 6.00581
#
# Compressibility (1/GPa) = 0.02584881
#
# Stress axis : x y z
#
# Youngs Moduli (GPa) = 94.19075 54.93905 50.25485
#
# Poissons Ratio (x) = 0.06087 0.29032
# Poissons Ratio (y) = 0.10436 0.22863
# Poissons Ratio (z) = 0.54414 0.24994
#
# Static dielectric constant tensor:
#      x y z
#    x 1.891690 0.000000 0.000000 
#    y 0.000000 1.663000 0.000000 
#    z 0.000000 0.000000 1.680670 
# 
# From -- ./inp_files/40777.got.cif
#   From: 2010.05.17/outbox.cif.g08.bks.cpg/sg74_21_cif.got.tgz:40777.got - 2010.06.03 17:57:02.
