data_PCOD9540013
_publ_section_title
;
Structure prediction by ZEFSAII (Michael W. Deem and Ramdas Pophale) SiO2 
 PCOD9540013
Probable space group: I M M A
;
_chemical_formula_sum "Si O2"
_cell_formula_units_Z 88
_cell_length_a 14.682850
_cell_length_b 15.067284
_cell_length_c 22.449663
_cell_angle_alpha 90.000000
_cell_angle_beta 90.000000
_cell_angle_gamma 90.000000
_cell_volume 4966.554007
_symmetry_space_group_name_H-M "I M M A"
_symmetry_group_IT_number 74
_symmetry_cell_setting 'orthorhombic'
loop_
_space_group_symop_operation_xyz
x,y,z
-x,1/2-y,z
x,-y,-z
-x,1/2+y,-z
-x,-y,-z
x,1/2+y,-z
-x,y,z
x,1/2-y,z
1/2+x,1/2+y,1/2+z
1/2-x,-y,1/2+z
1/2+x,1/2-y,1/2-z
1/2-x,y,1/2-z
1/2-x,1/2-y,1/2-z
1/2+x,y,1/2-z
1/2-x,1/2+y,1/2+z
1/2+x,-y,1/2+z
loop_
_atom_site_type_symbol
_atom_site_label
_atom_site_fract_x
_atom_site_fract_y
_atom_site_fract_z
Si Si1 0.500000 0.850871 0.853841
Si Si2 0.701457 0.146364 0.123561
Si Si3 0.500000 0.909711 0.722010
Si Si4 0.186993 0.002077 0.804186
Si Si5 0.000000 0.146795 0.088003
Si Si6 0.822950 0.900483 0.981849
Si Si7 0.892178 0.149045 0.890588
O O1 0.500000 0.750000 0.875786
O O2 0.597358 0.887651 0.874464
O O3 0.500000 0.853568 0.782119
O O4 0.704821 0.250000 0.143984
O O5 0.762069 0.081176 0.164334
O O6 0.743772 0.142038 0.057560
O O7 0.408924 0.967897 0.721197
O O8 0.500000 0.858363 0.659215
O O9 0.250000 0.033395 0.750000
O O10 0.162937 0.078831 0.851131
O O11 0.911475 0.100292 0.060957
O O12 0.000000 0.250000 0.069515
O O13 0.853494 0.853613 0.042422
O O14 0.798323 0.000000 0.000000
O O15 0.885112 0.250000 0.867862
O O16 0.000000 0.124896 0.892126
#
# Coordination Sequence:
#
# PCOD9540013 Si02
#       7
#     8  16   8  16   8  16  16
#     4  10  23  40  58  81 119 167 207 243 286 358
#     4  11  23  39  59  88 122 158 200 245 300 360
#     4  12  21  35  56  89 126 161 191 245 293 358
#     4  12  24  39  62  89 122 159 201 248 295 355
#     4  12  22  31  52  92 129 156 190 239 299 362
#     4  12  22  36  59  88 124 158 192 243 303 366
#     4  11  23  40  63  91 122 158 199 250 307 357
#
# _framework density 17.718523000000001
#
# number of rings (size 3 to 8) (size 9 to 14) (size 15 to 20)
#    0.000    0.545    7.273    2.182    0.000    1.455 
#    0.000    0.455    0.000    0.000    0.000    1.273 
#    0.000    0.000    0.000    0.000    0.000    0.000 
#
# Total GULP energy -245727.175765 kJ/mol
# GULP energy per Si atom -5584.708540 kJ/mol
# Density = 1.767819 g / cm^3
# Si number density = 17.718523 Si / 1000 Ang^3
#
#
#
# Elastic Constant Matrix: (Units=GPa)
#
#
# Indices 1 2 3 4 5 6 
#
# 1 147.3234 33.2964 56.1540 0.0000 0.0000 0.0000
# 2 33.2964 71.1331 27.4734 0.0000 0.0000 0.0000
# 3 56.1540 27.4734 97.9913 0.0000 0.0000 0.0000
# 4 0.0000 0.0000 0.0000 11.4552 0.0000 0.0000
# 5 0.0000 0.0000 0.0000 0.0000 31.4506 0.0000
# 6 0.0000 0.0000 0.0000 0.0000 0.0000 10.3652
#
#
#
# Elastic Compliance Matrix: (Units=1/GPa)
#
#
# Indices 1 2 3 4 5 6 
#
# 1 0.009067 -0.002509 -0.004493 0.000000 0.000000 0.000000
# 2 -0.002509 0.016460 -0.003177 0.000000 0.000000 0.000000
# 3 -0.004493 -0.003177 0.013670 0.000000 0.000000 0.000000
# 4 0.000000 0.000000 0.000000 0.087297 0.000000 0.000000
# 5 0.000000 0.000000 0.000000 0.000000 0.031796 0.000000
# 6 0.000000 0.000000 0.000000 0.000000 0.000000 0.096477
#
#
# Mechanical properties :
#
#
# Convention : Reuss Voigt Hill
#
# Bulk Modulus (GPa) = 53.07860 61.14391 57.11125
# Shear Modulus (GPa) = 17.76808 23.95580 20.86194
#
# Velocity S-wave (km/s) = 3.17013 3.68097 3.43506
# Velocity P-wave (km/s) = 6.58948 7.25599 6.93075
#
# Compressibility (1/GPa) = 0.01883999
#
# Stress axis : x y z
#
# Youngs Moduli (GPa) = 110.28709 60.75471 73.15231
#
# Poissons Ratio (x) = 0.15244 0.32864
# Poissons Ratio (y) = 0.27672 0.23239
# Poissons Ratio (z) = 0.49547 0.19301
#
# Static dielectric constant tensor:
#      x y z
#    x 1.612580 0.000000 0.000000 
#    y 0.000000 1.618640 0.000000 
#    z 0.000000 0.000000 1.603030 
# 
# From -- ./inp_files/58686.got.cif
#   From: 2010.05.17/outbox.cif.g08.bks.cpg/sg74_30_cif.got.tgz:58686.got - 2010.06.03 17:57:02.
