data_PCOD9540836
_publ_section_title
;
Structure prediction by ZEFSAII (Michael W. Deem and Ramdas Pophale) SiO2 
 PCOD9540836
Probable space group: I M M A
;
_chemical_formula_sum "Si O2"
_cell_formula_units_Z 44
_cell_length_a 30.000000
_cell_length_b 9.000000
_cell_length_c 18.000000
_cell_angle_alpha 90.000000
_cell_angle_beta 90.000000
_cell_angle_gamma 90.000000
_cell_volume 4860.000000
_symmetry_space_group_name_H-M "I M M A"
_symmetry_group_IT_number 74
_symmetry_cell_setting 'orthorhombic'
loop_
_space_group_symop_operation_xyz
x,y,z
-x,1/2-y,z
x,-y,-z
-x,1/2+y,-z
-x,-y,-z
x,1/2+y,-z
-x,y,z
x,1/2-y,z
1/2+x,1/2+y,1/2+z
1/2-x,-y,1/2+z
1/2+x,1/2-y,1/2-z
1/2-x,y,1/2-z
1/2-x,1/2-y,1/2-z
1/2+x,y,1/2-z
1/2-x,1/2+y,1/2+z
1/2+x,-y,1/2+z
loop_
_atom_site_type_symbol
_atom_site_label
_atom_site_fract_x
_atom_site_fract_y
_atom_site_fract_z
Si Si1 0.500000 0.427823 0.580248
Si Si2 0.828550 0.930123 0.083285
Si Si3 0.947511 0.576271 0.674091
Si Si4 0.271202 0.571681 0.081671
Si Si5 0.914602 0.075227 0.156482
Si Si6 0.130696 0.571870 0.418454
O O1 0.500000 0.250000 0.578639
O O2 0.500000 0.500000 0.500000
O O3 0.455304 0.488856 0.618335
O O4 0.833111 0.750000 0.079465
O O5 0.778156 0.965913 0.112967
O O6 0.867981 0.000093 0.132705
O O7 0.832187 0.000000 0.000000
O O8 0.946967 0.750000 0.651530
O O9 0.927112 0.567942 0.756762
O O10 0.912758 0.486123 0.624142
O O11 0.000000 0.528865 0.673147
O O12 0.271279 0.750000 0.074745
O O13 0.319918 0.531673 0.115614
O O14 0.271331 0.500000 0.000000
O O15 0.914198 0.250000 0.134679
O O16 0.130013 0.500000 0.500000
O O17 0.128828 0.750000 0.423356
#
# Coordination Sequence:
#
# PCOD9540836 Si02
#       6
#     8  16  16  16  16  16
#     4  12  24  38  58  82 109 144 189 234 276 326
#     4  10  19  33  54  82 113 148 187 229 273 325
#     4  10  22  41  60  78 107 147 184 228 283 332
#     4   8  16  31  52  79 112 144 178 222 274 323
#     4  11  22  39  57  78 110 148 187 231 279 326
#     4  10  20  36  60  88 113 142 181 227 275 332
#
# _framework density 9.0534979999999994
#
# number of rings (size 3 to 8) (size 9 to 14) (size 15 to 20)
#    0.000    2.000    0.909    3.000    0.000    3.636 
#    0.000    0.909    0.000    5.455    0.000    0.000 
#    0.000    0.000    0.000    0.000    0.000    0.000 
#
# Total GULP energy -245200.149309 kJ/mol
# GULP energy per Si atom -5572.730666 kJ/mol
# Density = 0.903289 g / cm^3
# Si number density = 9.053498 Si / 1000 Ang^3
#
#
#
# Elastic Constant Matrix: (Units=GPa)
#
#
# Indices 1 2 3 4 5 6 
#
# 1 226.7155 77.1157 55.5344 0.0000 0.0000 0.0000
# 2 77.1157 102.0377 39.3164 0.0000 0.0000 0.0000
# 3 55.5344 39.3164 40.6733 0.0000 0.0000 0.0000
# 4 0.0000 0.0000 0.0000 26.3616 0.0000 0.0000
# 5 0.0000 0.0000 0.0000 0.0000 126.7326 0.0000
# 6 0.0000 0.0000 0.0000 0.0000 0.0000 33.1706
#
#
#
# Elastic Compliance Matrix: (Units=1/GPa)
#
#
# Indices 1 2 3 4 5 6 
#
# 1 0.007027 -0.002572 -0.007108 0.000000 0.000000 0.000000
# 2 -0.002572 0.016558 -0.012495 0.000000 0.000000 0.000000
# 3 -0.007108 -0.012495 0.046369 0.000000 0.000000 0.000000
# 4 0.000000 0.000000 0.000000 0.037934 0.000000 0.000000
# 5 0.000000 0.000000 0.000000 0.000000 0.007891 0.000000
# 6 0.000000 0.000000 0.000000 0.000000 0.000000 0.030147
#
#
# Mechanical properties :
#
#
# Convention : Reuss Voigt Hill
#
# Bulk Modulus (GPa) = 39.05441 79.26217 59.15829
# Shear Modulus (GPa) = 25.14965 50.41696 37.78330
#
# Velocity S-wave (km/s) = 3.73090 5.28246 4.57296
# Velocity P-wave (km/s) = 6.33838 9.00418 7.78621
#
# Compressibility (1/GPa) = 0.02560530
#
# Stress axis : x y z
#
# Youngs Moduli (GPa) = 142.31414 60.39348 21.56596
#
# Poissons Ratio (x) = 0.15531 0.15330
# Poissons Ratio (y) = 0.36597 0.26946
# Poissons Ratio (z) = 1.01162 0.75459
#
# Static dielectric constant tensor:
#      x y z
#    x 1.821630 0.000000 0.000000 
#    y 0.000000 1.608050 0.000000 
#    z 0.000000 0.000000 1.599730 
# 
# From -- ./inp_files/47061.got.cif
#   From: 2010.05.17/outbox.ucp.g08.bks.cvg/sg74_24_cif.got.tgz:47061.got - 2010.06.11 16:37:44.
