data_PCOD9540280
_publ_section_title
;
Structure prediction by ZEFSAII (Michael W. Deem and Ramdas Pophale) SiO2 
 PCOD9540280
Probable space group: I M M A
;
_chemical_formula_sum "Si O2"
_cell_formula_units_Z 104
_cell_length_a 7.569804
_cell_length_b 25.763228
_cell_length_c 34.288968
_cell_angle_alpha 90.000000
_cell_angle_beta 90.000000
_cell_angle_gamma 90.000000
_cell_volume 6687.123223
_symmetry_space_group_name_H-M "I M M A"
_symmetry_group_IT_number 74
_symmetry_cell_setting 'orthorhombic'
loop_
_space_group_symop_operation_xyz
x,y,z
-x,1/2-y,z
x,-y,-z
-x,1/2+y,-z
-x,-y,-z
x,1/2+y,-z
-x,y,z
x,1/2-y,z
1/2+x,1/2+y,1/2+z
1/2-x,-y,1/2+z
1/2+x,1/2-y,1/2-z
1/2-x,y,1/2-z
1/2-x,1/2-y,1/2-z
1/2+x,y,1/2-z
1/2-x,1/2+y,1/2+z
1/2+x,-y,1/2+z
loop_
_atom_site_type_symbol
_atom_site_label
_atom_site_fract_x
_atom_site_fract_y
_atom_site_fract_z
Si Si1 0.286859 0.863427 0.295620
Si Si2 0.713416 0.807542 0.091740
Si Si3 0.783618 0.418140 0.482081
Si Si4 0.298448 0.584503 0.368612
Si Si5 0.292685 0.480561 0.942195
Si Si6 0.214819 0.806501 0.500389
Si Si7 0.788850 0.250000 0.796289
O O1 0.500000 0.861779 0.299296
O O2 0.250000 0.871466 0.250000
O O3 0.218497 0.906461 0.325702
O O4 0.218656 0.806228 0.308773
O O5 0.500000 0.810250 0.094749
O O6 0.769514 0.750000 0.106117
O O7 0.789642 0.857917 0.112489
O O8 0.757261 0.810350 0.045717
O O9 0.725676 0.441561 0.524099
O O10 0.724964 0.461355 0.450736
O O11 0.722408 0.358897 0.478862
O O12 0.000000 0.415598 0.481769
O O13 0.500000 0.568676 0.363514
O O14 0.224970 0.544351 0.399902
O O15 0.500000 0.483802 0.950199
O O16 0.276869 0.750000 0.514488
O O17 0.000000 0.805912 0.502330
O O18 0.750000 0.250000 0.750000
O O19 0.000000 0.250000 0.802349
#
# Coordination Sequence:
#
# PCOD9540280 Si02
#       7
#    16  16  16  16  16  16   8
#     4   9  19  32  44  55  70  93 120 152 191 233
#     4   9  17  28  41  56  73  97 129 160 191 230
#     4   8  13  23  40  57  74  99 130 162 192 216
#     4  11  21  29  40  58  79  98 120 155 201 240
#     4   9  16  27  42  56  73 100 132 161 185 221
#     4   8  12  20  37  58  76  93 122 163 196 221
#     4   8  14  28  44  54  66  86 114 146 184 230
#
# _framework density 15.552279
#
# number of rings (size 3 to 8) (size 9 to 14) (size 15 to 20)
#    0.000    3.077    1.538    2.308    1.077    1.538 
#    0.000    1.538    0.000    0.000    0.000    0.000 
#    0.000    0.000    0.000    0.000    0.000    0.769 
#
# Total GULP energy -289571.942290 kJ/mol
# GULP energy per Si atom -5568.691198 kJ/mol
# Density = 1.551688 g / cm^3
# Si number density = 15.552279 Si / 1000 Ang^3
#
#
#
# Elastic Constant Matrix: (Units=GPa)
#
#
# Indices 1 2 3 4 5 6 
#
# 1 32.8277 0.8710 -0.5299 0.0000 0.0000 0.0000
# 2 0.8710 123.3040 53.0052 0.0000 0.0000 0.0000
# 3 -0.5299 53.0052 71.4406 0.0000 0.0000 0.0000
# 4 0.0000 0.0000 0.0000 27.1258 0.0000 0.0000
# 5 0.0000 0.0000 0.0000 0.0000 154.3264 0.0000
# 6 0.0000 0.0000 0.0000 0.0000 0.0000 2.1922
#
#
#
# Elastic Compliance Matrix: (Units=1/GPa)
#
#
# Indices 1 2 3 4 5 6 
#
# 1 0.030483 -0.000459 0.000567 0.000000 0.000000 0.000000
# 2 -0.000459 0.011915 -0.008844 0.000000 0.000000 0.000000
# 3 0.000567 -0.008844 0.020563 0.000000 0.000000 0.000000
# 4 0.000000 0.000000 0.000000 0.036865 0.000000 0.000000
# 5 0.000000 0.000000 0.000000 0.000000 0.006480 0.000000
# 6 0.000000 0.000000 0.000000 0.000000 0.000000 0.456158
#
#
# Mechanical properties :
#
#
# Convention : Reuss Voigt Hill
#
# Bulk Modulus (GPa) = 21.98297 37.14055 29.56176
# Shear Modulus (GPa) = 8.40195 48.34397 28.37296
#
# Velocity S-wave (km/s) = 2.32683 5.58142 4.27589
# Velocity P-wave (km/s) = 4.62433 8.09131 6.58991
#
# Compressibility (1/GPa) = 0.04548976
#
# Stress axis : x y z
#
# Youngs Moduli (GPa) = 32.80476 83.92821 48.63014
#
# Poissons Ratio (x) = 0.03851 -0.02755
# Poissons Ratio (y) = 0.01505 0.43007
# Poissons Ratio (z) = -0.01859 0.74223
#
# Static dielectric constant tensor:
#      x y z
#    x 1.571400 0.000000 0.000000 
#    y 0.000000 1.552670 0.000000 
#    z 0.000000 0.000000 1.523830 
# 
# From -- ./inp_files/71007.got.cif
#   From: 2010.05.17/outbox.cif.g08.bks.cpg/sg74_36_cif.got.tgz:71007.got - 2010.06.03 17:57:02.
