data_PCOD9540349
_publ_section_title
;
Structure prediction by ZEFSAII (Michael W. Deem and Ramdas Pophale) SiO2 
 PCOD9540349
Probable space group: I M M A
;
_chemical_formula_sum "Si O2"
_cell_formula_units_Z 104
_cell_length_a 14.647031
_cell_length_b 21.939063
_cell_length_c 14.870991
_cell_angle_alpha 90.000000
_cell_angle_beta 90.000000
_cell_angle_gamma 90.000000
_cell_volume 4778.676010
_symmetry_space_group_name_H-M "I M M A"
_symmetry_group_IT_number 74
_symmetry_cell_setting 'orthorhombic'
loop_
_space_group_symop_operation_xyz
x,y,z
-x,1/2-y,z
x,-y,-z
-x,1/2+y,-z
-x,-y,-z
x,1/2+y,-z
-x,y,z
x,1/2-y,z
1/2+x,1/2+y,1/2+z
1/2-x,-y,1/2+z
1/2+x,1/2-y,1/2-z
1/2-x,y,1/2-z
1/2-x,1/2-y,1/2-z
1/2+x,y,1/2-z
1/2-x,1/2+y,1/2+z
1/2+x,-y,1/2+z
loop_
_atom_site_type_symbol
_atom_site_label
_atom_site_fract_x
_atom_site_fract_y
_atom_site_fract_z
Si Si1 0.759925 0.493164 0.399094
Si Si2 0.643531 0.181578 0.277168
Si Si3 0.250000 0.097416 0.750000
Si Si4 0.106532 0.901800 0.948425
Si Si5 0.096315 0.601117 0.620303
Si Si6 0.398387 0.180861 0.945016
Si Si7 0.309219 0.678078 0.387337
O O1 0.800379 0.500000 0.500000
O O2 0.765172 0.551450 0.334687
O O3 0.661677 0.462930 0.420411
O O4 0.821217 0.441842 0.353256
O O5 0.617267 0.250000 0.298566
O O6 0.750000 0.180614 0.250000
O O7 0.620164 0.140802 0.362130
O O8 0.594831 0.155573 0.190347
O O9 0.326142 0.142715 0.706509
O O10 0.000000 0.913381 0.965518
O O11 0.150250 0.863550 0.031914
O O12 0.108551 0.631420 0.523563
O O13 0.000000 0.567015 0.622939
O O14 0.500000 0.172922 0.901757
O O15 0.398845 0.250000 0.982914
O O16 0.301920 0.177326 0.894136
O O17 0.336967 0.750000 0.390744
#
# Coordination Sequence:
#
# PCOD9540349 Si02
#       7
#    16  16   8  16  16  16  16
#     4  12  24  46  69  94 138 176 230 286 346 410
#     4  11  21  36  61  94 137 183 226 277 339 406
#     4  12  25  46  72  98 135 186 236 292 348 420
#     4  12  25  44  69 100 138 187 239 286 347 419
#     4  11  21  36  61  95 131 172 221 277 346 413
#     4   9  17  33  62  96 131 170 216 278 350 416
#     4  11  23  45  70  98 134 177 231 294 356 414
#
# _framework density 21.763349000000002
#
# number of rings (size 3 to 8) (size 9 to 14) (size 15 to 20)
#    0.000    0.923    4.615    2.538    0.000    5.846 
#    0.000    3.077    0.000    1.846    0.000    0.000 
#    0.000    0.000    0.000    0.000    0.000    0.000 
#
# Total GULP energy -289950.578549 kJ/mol
# GULP energy per Si atom -5575.972664 kJ/mol
# Density = 2.171382 g / cm^3
# Si number density = 21.763349 Si / 1000 Ang^3
#
#
#
# Elastic Constant Matrix: (Units=GPa)
#
#
# Indices 1 2 3 4 5 6 
#
# 1 121.7208 28.6550 5.9354 0.0000 0.0000 0.0000
# 2 28.6550 80.1989 13.3728 -0.0002 0.0000 0.0000
# 3 5.9354 13.3728 75.5500 -0.0003 0.0001 0.0000
# 4 0.0000 -0.0002 -0.0003 35.9032 0.0000 0.0000
# 5 0.0000 0.0000 0.0001 0.0000 -0.9478 0.0000
# 6 0.0000 0.0000 0.0000 0.0000 0.0000 -1.9889
#
#
#
# Elastic Compliance Matrix: (Units=1/GPa)
#
#
# Indices 1 2 3 4 5 6 
#
# 1 0.008971 -0.003182 -0.000142 0.000000 0.000000 0.000000
# 2 -0.003182 0.013977 -0.002224 0.000000 0.000001 0.000000
# 3 -0.000142 -0.002224 0.013641 0.000000 0.000001 0.000000
# 4 0.000000 0.000000 0.000000 0.027853 0.000001 0.000000
# 5 0.000000 0.000001 0.000001 0.000001 -1.055070 0.000001
# 6 0.000000 0.000000 0.000000 0.000000 0.000001 -0.502802
#
#
# Mechanical properties :
#
#
# Convention : Reuss Voigt Hill
#
# Bulk Modulus (GPa) = 39.22445 41.48844 40.35645
# Shear Modulus (GPa) = -3.39251 21.89374 9.25062
#
# Velocity S-wave (km/s) = -1.24988 3.17518 2.06392
# Velocity P-wave (km/s) = 3.99742 5.70501 4.92578
#
# Compressibility (1/GPa) = 0.02549430
#
# Stress axis : x y z
#
# Youngs Moduli (GPa) = 111.46415 71.54755 73.30813
#
# Poissons Ratio (x) = 0.22766 0.01038
# Poissons Ratio (y) = 0.35467 0.16304
# Poissons Ratio (z) = 0.01578 0.15912
#
# Static dielectric constant tensor:
#      x y z
#    x 1.106230 0.000000 -0.000010 
#    y 0.000000 1.818930 0.000000 
#    z -0.000010 0.000000 2.025030 
# 
# From -- ./inp_files/32732.got.cif
#   From: 2010.05.17/outbox.cif.g08.bks.cpg/sg74_17_cif.got.tgz:32732.got - 2010.06.03 17:57:02.
