data_PCOD9540315
_publ_section_title
;
Structure prediction by ZEFSAII (Michael W. Deem and Ramdas Pophale) SiO2 
 PCOD9540315
Probable space group: I M M A
;
_chemical_formula_sum "Si O2"
_cell_formula_units_Z 80
_cell_length_a 14.393761
_cell_length_b 14.422542
_cell_length_c 21.705087
_cell_angle_alpha 90.000000
_cell_angle_beta 90.000000
_cell_angle_gamma 90.000000
_cell_volume 4505.859343
_symmetry_space_group_name_H-M "I M M A"
_symmetry_group_IT_number 74
_symmetry_cell_setting 'orthorhombic'
loop_
_space_group_symop_operation_xyz
x,y,z
-x,1/2-y,z
x,-y,-z
-x,1/2+y,-z
-x,-y,-z
x,1/2+y,-z
-x,y,z
x,1/2-y,z
1/2+x,1/2+y,1/2+z
1/2-x,-y,1/2+z
1/2+x,1/2-y,1/2-z
1/2-x,y,1/2-z
1/2-x,1/2-y,1/2-z
1/2+x,y,1/2-z
1/2-x,1/2+y,1/2+z
1/2+x,-y,1/2+z
loop_
_atom_site_type_symbol
_atom_site_label
_atom_site_fract_x
_atom_site_fract_y
_atom_site_fract_z
Si Si1 0.895485 0.988592 0.083103
Si Si2 0.132852 0.143007 0.807582
Si Si3 0.197877 0.355764 0.016878
Si Si4 0.396983 0.401865 0.966036
Si Si5 0.645881 0.355844 0.831575
O O1 0.825280 0.074902 0.073593
O O2 0.000000 0.019623 0.067598
O O3 0.899891 0.938219 0.148358
O O4 0.858987 0.907625 0.037401
O O5 0.103235 0.250000 0.820493
O O6 0.243541 0.143635 0.820466
O O7 0.109344 0.121748 0.736511
O O8 0.168084 0.250000 0.026711
O O9 0.305185 0.354902 0.994753
O O10 0.500000 0.359726 0.974967
O O11 0.380945 0.411791 0.892365
O O12 0.398410 0.500000 0.000000
O O13 0.618195 0.250000 0.845979
#
# Coordination Sequence:
#
# PCOD9540315 Si02
#       5
#    16  16  16  16  16
#     4  11  22  35  52  78 109 141 184 225 266 320
#     4   9  17  31  53  78 110 148 174 210 270 327
#     4  11  21  36  54  74 108 144 177 222 270 314
#     4  11  21  34  54  79 109 143 180 219 265 320
#     4   9  17  31  51  78 110 141 176 215 265 326
#
# _framework density 17.754660000000001
#
# number of rings (size 3 to 8) (size 9 to 14) (size 15 to 20)
#    0.000    1.800    4.000    3.600    0.000    5.200 
#    0.000    2.000    0.000    0.000    0.000   12.600 
#    0.000   12.800    0.000    0.000    0.000    0.000 
#
# Total GULP energy -222763.107376 kJ/mol
# GULP energy per Si atom -5569.077684 kJ/mol
# Density = 1.771425 g / cm^3
# Si number density = 17.754660 Si / 1000 Ang^3
#
#
#
# Elastic Constant Matrix: (Units=GPa)
#
#
# Indices 1 2 3 4 5 6 
#
# 1 117.2006 23.0164 22.7441 0.0000 0.0000 0.0000
# 2 23.0164 114.9572 62.9883 0.0000 0.0000 0.0000
# 3 22.7441 62.9883 119.8056 0.0000 0.0000 0.0000
# 4 0.0000 0.0000 0.0000 22.6671 0.0000 0.0000
# 5 0.0000 0.0000 0.0000 0.0000 4.1787 0.0000
# 6 0.0000 0.0000 0.0000 0.0000 0.0000 63.7703
#
#
#
# Elastic Compliance Matrix: (Units=1/GPa)
#
#
# Indices 1 2 3 4 5 6 
#
# 1 0.008978 -0.001213 -0.001067 0.000000 0.000000 0.000000
# 2 -0.001213 0.012383 -0.006280 0.000000 0.000000 0.000000
# 3 -0.001067 -0.006280 0.011851 0.000000 0.000000 0.000000
# 4 0.000000 0.000000 0.000000 0.044117 0.000000 0.000000
# 5 0.000000 0.000000 0.000000 0.000000 0.239311 0.000000
# 6 0.000000 0.000000 0.000000 0.000000 0.000000 0.015681
#
#
# Mechanical properties :
#
#
# Convention : Reuss Voigt Hill
#
# Bulk Modulus (GPa) = 62.14199 63.27345 62.70772
# Shear Modulus (GPa) = 14.09231 34.33753 24.21492
#
# Velocity S-wave (km/s) = 2.82037 4.40250 3.69706
# Velocity P-wave (km/s) = 6.75887 7.84587 7.32257
#
# Compressibility (1/GPa) = 0.01609218
#
# Stress axis : x y z
#
# Youngs Moduli (GPa) = 111.38854 80.75746 84.38060
#
# Poissons Ratio (x) = 0.09796 0.09000
# Poissons Ratio (y) = 0.13512 0.52991
# Poissons Ratio (z) = 0.11880 0.50716
#
# Static dielectric constant tensor:
#      x y z
#    x 1.698050 0.000000 0.000000 
#    y 0.000000 1.586290 0.000000 
#    z 0.000000 0.000000 1.648750 
# 
# From -- ./inp_files/51658.got.cif
#   From: 2010.05.17/outbox.cif.g08.bks.cpg/sg74_26_cif.got.tgz:51658.got - 2010.06.03 17:57:02.
