data_PCOD9540861
_publ_section_title
;
Structure prediction by ZEFSAII (Michael W. Deem and Ramdas Pophale) SiO2 
 PCOD9540861
Probable space group: I M M A
;
_chemical_formula_sum "Si O2"
_cell_formula_units_Z 44
_cell_length_a 24.000000
_cell_length_b 9.000000
_cell_length_c 21.000000
_cell_angle_alpha 90.000000
_cell_angle_beta 90.000000
_cell_angle_gamma 90.000000
_cell_volume 4536.000000
_symmetry_space_group_name_H-M "I M M A"
_symmetry_group_IT_number 74
_symmetry_cell_setting 'orthorhombic'
loop_
_space_group_symop_operation_xyz
x,y,z
-x,1/2-y,z
x,-y,-z
-x,1/2+y,-z
-x,-y,-z
x,1/2+y,-z
-x,y,z
x,1/2-y,z
1/2+x,1/2+y,1/2+z
1/2-x,-y,1/2+z
1/2+x,1/2-y,1/2-z
1/2-x,y,1/2-z
1/2-x,1/2-y,1/2-z
1/2+x,y,1/2-z
1/2-x,1/2+y,1/2+z
1/2+x,-y,1/2+z
loop_
_atom_site_type_symbol
_atom_site_label
_atom_site_fract_x
_atom_site_fract_y
_atom_site_fract_z
Si Si1 0.500000 0.426913 0.431866
Si Si2 0.890664 0.423552 0.148600
Si Si3 0.937207 0.082161 0.739797
Si Si4 0.438037 0.076303 0.109883
Si Si5 0.173395 0.574478 0.431676
Si Si6 0.778887 0.924086 0.931644
O O1 0.500000 0.250000 0.439395
O O2 0.500000 0.500000 0.500000
O O3 0.556318 0.464908 0.394517
O O4 0.897760 0.250000 0.167923
O O5 0.893276 0.531338 0.208559
O O6 0.834147 0.436666 0.109868
O O7 0.927107 0.250000 0.715441
O O8 0.000000 0.082179 0.767445
O O9 0.938436 0.961031 0.684437
O O10 0.500000 0.038337 0.085061
O O11 0.427762 0.250000 0.097345
O O12 0.387968 0.976273 0.086344
O O13 0.181043 0.500000 0.500000
O O14 0.177730 0.750000 0.432227
O O15 0.226441 0.502226 0.396723
O O16 0.766160 0.750000 0.941495
O O17 0.790626 0.000000 0.000000
#
# Coordination Sequence:
#
# PCOD9540861 Si02
#       6
#     8  16  16  16  16  16
#     4  10  20  32  48  74 108 142 183 232 281 324
#     4  10  20  34  53  76 107 147 188 230 276 328
#     4  10  20  34  54  81 111 145 184 227 274 326
#     4  10  21  38  61  86 113 144 177 219 271 327
#     4  11  22  38  60  84 113 146 180 222 269 325
#     4  10  20  35  55  79 108 146 188 229 276 329
#
# _framework density 9.7001760000000008
#
# number of rings (size 3 to 8) (size 9 to 14) (size 15 to 20)
#    0.000    1.818    0.909    4.909    0.000    4.364 
#    0.000    0.909    0.000    5.455    0.000    0.000 
#    0.000    0.000    0.000    0.000    0.000    0.000 
#
# Total GULP energy -245143.273057 kJ/mol
# GULP energy per Si atom -5571.438024 kJ/mol
# Density = 0.967810 g / cm^3
# Si number density = 9.700176 Si / 1000 Ang^3
#
#
#
# Elastic Constant Matrix: (Units=GPa)
#
#
# Indices 1 2 3 4 5 6 
#
# 1 118.7779 59.6444 13.2947 0.0000 0.0000 0.0000
# 2 59.6444 88.8644 7.1246 0.0000 0.0000 0.0000
# 3 13.2947 7.1246 11.5756 0.0000 0.0000 0.0000
# 4 0.0000 0.0000 0.0000 25.3200 0.0000 0.0000
# 5 0.0000 0.0000 0.0000 0.0000 17.1137 0.0000
# 6 0.0000 0.0000 0.0000 0.0000 0.0000 36.0104
#
#
#
# Elastic Compliance Matrix: (Units=1/GPa)
#
#
# Indices 1 2 3 4 5 6 
#
# 1 0.013858 -0.008442 -0.010720 0.000000 0.000000 0.000000
# 2 -0.008442 0.016980 -0.000755 0.000000 0.000000 0.000000
# 3 -0.010720 -0.000755 0.099166 0.000000 0.000000 0.000000
# 4 0.000000 0.000000 0.000000 0.039494 0.000000 0.000000
# 5 0.000000 0.000000 0.000000 0.000000 0.058433 0.000000
# 6 0.000000 0.000000 0.000000 0.000000 0.000000 0.027770
#
#
# Mechanical properties :
#
#
# Convention : Reuss Voigt Hill
#
# Bulk Modulus (GPa) = 11.09029 42.14946 26.61987
# Shear Modulus (GPa) = 15.35666 24.96576 20.16121
#
# Velocity S-wave (km/s) = 2.81653 3.59119 3.22719
# Velocity P-wave (km/s) = 4.03808 6.24250 5.25713
#
# Compressibility (1/GPa) = 0.09016898
#
# Stress axis : x y z
#
# Youngs Moduli (GPa) = 72.16010 58.89396 10.08411
#
# Poissons Ratio (x) = 0.49717 0.10811
# Poissons Ratio (y) = 0.60916 0.00761
# Poissons Ratio (z) = 0.77359 0.04447
#
# Static dielectric constant tensor:
#      x y z
#    x 1.838380 0.000000 0.000000 
#    y 0.000000 1.665010 0.000000 
#    z 0.000000 0.000000 1.595140 
# 
# From -- ./inp_files/48770.got.cif
#   From: 2010.05.17/outbox.ucp.g08.bks.cvg/sg74_25_cif.got.tgz:48770.got - 2010.06.11 16:37:44.
