data_PCOD9540775
_publ_section_title
;
Structure prediction by ZEFSAII (Michael W. Deem and Ramdas Pophale) SiO2 
 PCOD9540775
Probable space group: I M M A
;
_chemical_formula_sum "Si O2"
_cell_formula_units_Z 80
_cell_length_a 19.818448
_cell_length_b 7.563456
_cell_length_c 22.705280
_cell_angle_alpha 90.000000
_cell_angle_beta 90.000000
_cell_angle_gamma 90.000000
_cell_volume 3403.429730
_symmetry_space_group_name_H-M "I M M A"
_symmetry_group_IT_number 74
_symmetry_cell_setting 'orthorhombic'
loop_
_space_group_symop_operation_xyz
x,y,z
-x,1/2-y,z
x,-y,-z
-x,1/2+y,-z
-x,-y,-z
x,1/2+y,-z
-x,y,z
x,1/2-y,z
1/2+x,1/2+y,1/2+z
1/2-x,-y,1/2+z
1/2+x,1/2-y,1/2-z
1/2-x,y,1/2-z
1/2-x,1/2-y,1/2-z
1/2+x,y,1/2-z
1/2-x,1/2+y,1/2+z
1/2+x,-y,1/2+z
loop_
_atom_site_type_symbol
_atom_site_label
_atom_site_fract_x
_atom_site_fract_y
_atom_site_fract_z
Si Si1 0.427663 0.461986 0.069328
Si Si2 0.000000 0.456582 0.877268
Si Si3 0.209888 0.466794 0.373846
Si Si4 0.000000 0.037433 0.742531
Si Si5 0.855024 0.538152 0.876526
Si Si6 0.352501 0.456867 0.242920
O O1 0.500000 0.530864 0.092724
O O2 0.427691 0.250000 0.078095
O O3 0.357271 0.531226 0.094247
O O4 0.427393 0.500000 0.000000
O O5 0.072594 0.498260 0.905260
O O6 0.000000 0.250000 0.868904
O O7 0.000000 0.535076 0.810665
O O8 0.208799 0.250000 0.374546
O O9 0.282145 0.522388 0.399831
O O10 0.199685 0.523213 0.305717
O O11 0.000000 0.250000 0.741832
O O12 0.071405 0.974105 0.717320
O O13 0.852866 0.750000 0.874594
O O14 0.855927 0.467404 0.808781
O O15 0.337310 0.250000 0.250136
#
# Coordination Sequence:
#
# PCOD9540775 Si02
#       6
#    16   8  16   8  16  16
#     4   9  18  33  51  69  92 123 156 193 235 276
#     4   9  17  29  43  59  88 127 158 181 216 265
#     4   9  17  28  47  71  92 116 152 194 236 278
#     4   9  17  27  37  55  86 123 158 189 218 259
#     4   9  16  28  45  68  93 120 155 192 226 268
#     4   9  16  26  43  64  89 121 154 190 227 270
#
# _framework density 23.505700999999998
#
# number of rings (size 3 to 8) (size 9 to 14) (size 15 to 20)
#    0.000    3.000    0.000    1.200    1.400    4.800 
#    0.000    3.000    0.000    4.800    0.000    0.700 
#    0.000    0.000    0.000    0.000    0.000    0.000 
#
# Total GULP energy -222987.169150 kJ/mol
# GULP energy per Si atom -5574.679229 kJ/mol
# Density = 2.345220 g / cm^3
# Si number density = 23.505701 Si / 1000 Ang^3
#
#
#
# Elastic Constant Matrix: (Units=GPa)
#
#
# Indices 1 2 3 4 5 6 
#
# 1 252.6219 7.9931 21.4588 0.0000 0.0000 0.0000
# 2 7.9931 64.3057 -3.7052 0.0000 0.0000 0.0000
# 3 21.4588 -3.7052 13.3381 0.0000 0.0000 0.0000
# 4 0.0000 0.0000 0.0000 6.8996 0.0000 0.0000
# 5 0.0000 0.0000 0.0000 0.0000 25.8105 0.0000
# 6 0.0000 0.0000 0.0000 0.0000 0.0000 -68.3478
#
#
#
# Elastic Compliance Matrix: (Units=1/GPa)
#
#
# Indices 1 2 3 4 5 6 
#
# 1 0.004651 -0.001026 -0.007767 0.000000 0.000000 0.000000
# 2 -0.001026 0.016030 0.006103 0.000000 0.000000 0.000000
# 3 -0.007767 0.006103 0.089165 0.000000 0.000000 0.000000
# 4 0.000000 0.000000 0.000000 0.144936 0.000000 0.000000
# 5 0.000000 0.000000 0.000000 0.000000 0.038744 0.000000
# 6 0.000000 0.000000 0.000000 0.000000 0.000000 -0.014631
#
#
# Mechanical properties :
#
#
# Convention : Reuss Voigt Hill
#
# Bulk Modulus (GPa) = 9.57253 42.41767 25.99510
# Shear Modulus (GPa) = 15.66927 13.17372 14.42149
#
# Velocity S-wave (km/s) = 2.58469 2.36995 2.47964
# Velocity P-wave (km/s) = 3.60399 5.05705 4.39104
#
# Compressibility (1/GPa) = 0.10446560
#
# Stress axis : x y z
#
# Youngs Moduli (GPa) = 215.02092 62.38368 11.21521
#
# Poissons Ratio (x) = 0.06398 0.08711
# Poissons Ratio (y) = 0.22053 -0.06845
# Poissons Ratio (z) = 1.67010 -0.38072
#
# Static dielectric constant tensor:
#      x y z
#    x 1.999310 0.000000 0.000000 
#    y 0.000000 1.867800 0.000000 
#    z 0.000000 0.000000 1.892640 
# 
# From -- ./inp_files/64027.got.cif
#   From: 2010.05.17/outbox.cif.g08.bks.cpg/sg74_33_cif.got.tgz:64027.got - 2010.06.03 17:57:02.
