data_PCOD9540187
_publ_section_title
;
Structure prediction by ZEFSAII (Michael W. Deem and Ramdas Pophale) SiO2 
 PCOD9540187
Probable space group: I M M A
;
_chemical_formula_sum "Si O2"
_cell_formula_units_Z 88
_cell_length_a 13.723196
_cell_length_b 22.953346
_cell_length_c 18.197399
_cell_angle_alpha 90.000000
_cell_angle_beta 90.000000
_cell_angle_gamma 90.000000
_cell_volume 5732.058144
_symmetry_space_group_name_H-M "I M M A"
_symmetry_group_IT_number 74
_symmetry_cell_setting 'orthorhombic'
loop_
_space_group_symop_operation_xyz
x,y,z
-x,1/2-y,z
x,-y,-z
-x,1/2+y,-z
-x,-y,-z
x,1/2+y,-z
-x,y,z
x,1/2-y,z
1/2+x,1/2+y,1/2+z
1/2-x,-y,1/2+z
1/2+x,1/2-y,1/2-z
1/2-x,y,1/2-z
1/2-x,1/2-y,1/2-z
1/2+x,y,1/2-z
1/2-x,1/2+y,1/2+z
1/2+x,-y,1/2+z
loop_
_atom_site_type_symbol
_atom_site_label
_atom_site_fract_x
_atom_site_fract_y
_atom_site_fract_z
Si Si1 0.250000 0.487645 0.250000
Si Si2 0.885550 0.009082 0.878116
Si Si3 0.606155 0.813841 0.705282
Si Si4 0.889086 0.097579 0.339009
Si Si5 0.115029 0.596831 0.987399
Si Si6 0.239951 0.681997 0.575286
O O1 0.175891 0.519179 0.195047
O O2 0.184263 0.451263 0.308593
O O3 0.000000 0.009438 0.860435
O O4 0.867465 0.057081 0.940951
O O5 0.867086 0.946078 0.917143
O O6 0.500000 0.817898 0.667173
O O7 0.612009 0.750000 0.740524
O O8 0.608156 0.860469 0.768271
O O9 0.693020 0.818617 0.648649
O O10 0.847367 0.137618 0.405002
O O11 0.000000 0.077538 0.353697
O O12 0.000000 0.612190 0.987015
O O13 0.188007 0.651075 0.982840
O O14 0.215244 0.750000 0.560259
#
# Coordination Sequence:
#
# PCOD9540187 Si02
#       6
#     8  16  16  16  16  16
#     4  12  18  30  49  70  91 122 162 202 238 280
#     4   9  18  31  51  71  91 122 157 197 242 280
#     4   9  16  25  37  56  84 118 153 183 214 258
#     4  11  20  28  40  61  91 124 156 191 225 268
#     4   9  17  32  49  69  94 121 157 196 237 281
#     4  11  19  28  43  64  92 125 154 184 229 281
#
# _framework density 15.352251000000001
#
# number of rings (size 3 to 8) (size 9 to 14) (size 15 to 20)
#    0.000    2.000    3.636    2.727    0.000    6.545 
#    0.000    0.000    0.000    3.273    0.000    0.636 
#    0.000    0.000    0.000    0.000    0.000    0.000 
#
# Total GULP energy -245048.554045 kJ/mol
# GULP energy per Si atom -5569.285319 kJ/mol
# Density = 1.531731 g / cm^3
# Si number density = 15.352251 Si / 1000 Ang^3
#
#
#
# Elastic Constant Matrix: (Units=GPa)
#
#
# Indices 1 2 3 4 5 6 
#
# 1 76.9515 16.6749 26.0459 0.0000 0.0000 0.0000
# 2 16.6749 34.8649 16.3759 0.0000 0.0000 0.0000
# 3 26.0459 16.3759 51.9683 0.0000 0.0000 0.0000
# 4 0.0000 0.0000 0.0000 12.3549 0.0000 0.0000
# 5 0.0000 0.0000 0.0000 0.0000 27.4908 0.0000
# 6 0.0000 0.0000 0.0000 0.0000 0.0000 19.2091
#
#
#
# Elastic Compliance Matrix: (Units=1/GPa)
#
#
# Indices 1 2 3 4 5 6 
#
# 1 0.016264 -0.004636 -0.006691 0.000000 0.000000 0.000000
# 2 -0.004636 0.034986 -0.008701 0.000000 0.000000 0.000000
# 3 -0.006691 -0.008701 0.025338 0.000000 0.000000 0.000000
# 4 0.000000 0.000000 0.000000 0.080940 0.000000 0.000000
# 5 0.000000 0.000000 0.000000 0.000000 0.036376 0.000000
# 6 0.000000 0.000000 0.000000 0.000000 0.000000 0.052059
#
#
# Mechanical properties :
#
#
# Convention : Reuss Voigt Hill
#
# Bulk Modulus (GPa) = 27.37283 31.33090 29.35186
# Shear Modulus (GPa) = 16.76752 18.79016 17.77884
#
# Velocity S-wave (km/s) = 3.30841 3.50227 3.40672
# Velocity P-wave (km/s) = 5.69760 6.06687 5.88513
#
# Compressibility (1/GPa) = 0.03653258
#
# Stress axis : x y z
#
# Youngs Moduli (GPa) = 61.48393 28.58261 39.46713
#
# Poissons Ratio (x) = 0.13252 0.26406
# Poissons Ratio (y) = 0.28506 0.34340
# Poissons Ratio (z) = 0.41136 0.24870
#
# Static dielectric constant tensor:
#      x y z
#    x 1.588380 0.000000 0.000000 
#    y 0.000000 1.543990 0.000000 
#    z 0.000000 0.000000 1.496070 
# 
# From -- ./inp_files/43097.got.cif
#   From: 2010.05.17/outbox.cif.g08.bks.cpg/sg74_22_cif.got.tgz:43097.got - 2010.06.03 17:57:02.
