data_PCOD9540811
_publ_section_title
;
Structure prediction by ZEFSAII (Michael W. Deem and Ramdas Pophale) SiO2 
 PCOD9540811
Probable space group: I M M A
;
_chemical_formula_sum "Si O2"
_cell_formula_units_Z 36
_cell_length_a 9.000000
_cell_length_b 15.000000
_cell_length_c 30.000000
_cell_angle_alpha 90.000000
_cell_angle_beta 90.000000
_cell_angle_gamma 90.000000
_cell_volume 4050.000000
_symmetry_space_group_name_H-M "I M M A"
_symmetry_group_IT_number 74
_symmetry_cell_setting 'orthorhombic'
loop_
_space_group_symop_operation_xyz
x,y,z
-x,1/2-y,z
x,-y,-z
-x,1/2+y,-z
-x,-y,-z
x,1/2+y,-z
-x,y,z
x,1/2-y,z
1/2+x,1/2+y,1/2+z
1/2-x,-y,1/2+z
1/2+x,1/2-y,1/2-z
1/2-x,y,1/2-z
1/2-x,1/2-y,1/2-z
1/2+x,y,1/2-z
1/2-x,1/2+y,1/2+z
1/2+x,-y,1/2+z
loop_
_atom_site_type_symbol
_atom_site_label
_atom_site_fract_x
_atom_site_fract_y
_atom_site_fract_z
Si Si1 0.677728 0.250000 0.485155
Si Si2 0.679366 0.055978 0.201441
Si Si3 0.178138 0.433915 0.458306
Si Si4 0.319106 0.250000 0.916694
Si Si5 0.680417 0.938492 0.122516
Si Si6 0.821892 0.750000 0.701000
O O1 0.500000 0.250000 0.486189
O O2 0.738782 0.159550 0.462851
O O3 0.745961 0.250000 0.534905
O O4 0.500000 0.052328 0.205178
O O5 0.750000 0.050378 0.250000
O O6 0.717856 0.153837 0.180838
O O7 0.731072 0.976936 0.169589
O O8 0.205832 0.500000 0.500000
O O9 0.222732 0.490361 0.415143
O O10 0.000000 0.417013 0.457093
O O11 0.500000 0.250000 0.921927
O O12 0.273846 0.339499 0.890909
O O13 0.500000 0.937484 0.123013
O O14 0.750000 0.750000 0.750000
O O15 0.000000 0.750000 0.705429
#
# Coordination Sequence:
#
# PCOD9540811 Si02
#       6
#     8  16  16   8  16   8
#     4  12  24  35  51  80 116 147 171 213 278 335
#     4   9  17  31  50  76 103 135 170 213 267 315
#     4  10  19  35  58  80 101 136 185 227 260 307
#     4  10  18  36  58  76  99 138 188 227 259 314
#     4   9  18  32  56  81 101 131 181 230 265 303
#     4   8  14  25  44  66  94 125 159 196 246 309
#
# _framework density 8.8888890000000007
#
# number of rings (size 3 to 8) (size 9 to 14) (size 15 to 20)
#    0.000    2.444    2.222    1.000    0.000    1.333 
#    0.000    6.111    0.000    5.333    0.000    0.000 
#    0.000    0.000    0.000    0.000    0.000    0.000 
#
# Total GULP energy -200606.890979 kJ/mol
# GULP energy per Si atom -5572.413638 kJ/mol
# Density = 0.886866 g / cm^3
# Si number density = 8.888889 Si / 1000 Ang^3
#
#
#
# Elastic Constant Matrix: (Units=GPa)
#
#
# Indices 1 2 3 4 5 6 
#
# 1 26.2656 41.4207 16.0944 0.0000 0.0000 0.0000
# 2 41.4207 193.6857 77.2684 0.0000 0.0000 0.0000
# 3 16.0944 77.2684 88.0075 0.0000 0.0000 0.0000
# 4 0.0000 0.0000 0.0000 16.3514 0.0000 0.0000
# 5 0.0000 0.0000 0.0000 0.0000 12.9914 0.0000
# 6 0.0000 0.0000 0.0000 0.0000 0.0000 6.5025
#
#
#
# Elastic Compliance Matrix: (Units=1/GPa)
#
#
# Indices 1 2 3 4 5 6 
#
# 1 0.057457 -0.012460 0.000432 0.000000 0.000000 0.000000
# 2 -0.012460 0.010648 -0.007070 0.000000 0.000000 0.000000
# 3 0.000432 -0.007070 0.017491 0.000000 0.000000 0.000000
# 4 0.000000 0.000000 0.000000 0.061157 0.000000 0.000000
# 5 0.000000 0.000000 0.000000 0.000000 0.076974 0.000000
# 6 0.000000 0.000000 0.000000 0.000000 0.000000 0.153788
#
#
# Mechanical properties :
#
#
# Convention : Reuss Voigt Hill
#
# Bulk Modulus (GPa) = 21.09704 64.16956 42.63330
# Shear Modulus (GPa) = 11.58719 18.71409 15.15064
#
# Velocity S-wave (km/s) = 2.55577 3.24800 2.92245
# Velocity P-wave (km/s) = 4.53895 7.08800 5.95155
#
# Compressibility (1/GPa) = 0.04740001
#
# Stress axis : x y z
#
# Youngs Moduli (GPa) = 17.40435 93.91288 57.17170
#
# Poissons Ratio (x) = 1.17013 -0.02469
# Poissons Ratio (y) = 0.21685 0.40422
# Poissons Ratio (z) = -0.00752 0.66399
#
# Static dielectric constant tensor:
#      x y z
#    x 1.589800 0.000000 0.000000 
#    y 0.000000 1.696750 0.000000 
#    z 0.000000 0.000000 1.598810 
# 
# From -- ./inp_files/70026.got.cif
#   From: 2010.05.17/outbox.ucp.g08.bks.cvg/sg74_36_cif.got.tgz:70026.got - 2010.06.11 16:37:44.
