data_PCOD9540821
_publ_section_title
;
Structure prediction by ZEFSAII (Michael W. Deem and Ramdas Pophale) SiO2 
 PCOD9540821
Probable space group: I M M A
;
_chemical_formula_sum "Si O2"
_cell_formula_units_Z 48
_cell_length_a 24.000000
_cell_length_b 9.000000
_cell_length_c 27.000000
_cell_angle_alpha 90.000000
_cell_angle_beta 90.000000
_cell_angle_gamma 90.000000
_cell_volume 5832.000000
_symmetry_space_group_name_H-M "I M M A"
_symmetry_group_IT_number 74
_symmetry_cell_setting 'orthorhombic'
loop_
_space_group_symop_operation_xyz
x,y,z
-x,1/2-y,z
x,-y,-z
-x,1/2+y,-z
-x,-y,-z
x,1/2+y,-z
-x,y,z
x,1/2-y,z
1/2+x,1/2+y,1/2+z
1/2-x,-y,1/2+z
1/2+x,1/2-y,1/2-z
1/2-x,y,1/2-z
1/2-x,1/2-y,1/2-z
1/2+x,y,1/2-z
1/2-x,1/2+y,1/2+z
1/2+x,-y,1/2+z
loop_
_atom_site_type_symbol
_atom_site_label
_atom_site_fract_x
_atom_site_fract_y
_atom_site_fract_z
Si Si1 0.290073 0.072621 0.642000
Si Si2 0.388225 0.074870 0.108565
Si Si3 0.000000 0.571796 0.749653
Si Si4 0.223154 0.427936 0.447401
Si Si5 0.176999 0.079404 0.693105
Si Si6 0.000000 0.927359 0.361061
Si Si7 0.890190 0.924161 0.206067
O O1 0.293075 0.250000 0.633053
O O2 0.242347 0.051884 0.684289
O O3 0.351101 0.024115 0.660589
O O4 0.264554 0.991565 0.594422
O O5 0.400281 0.250000 0.105339
O O6 0.340738 0.034783 0.068520
O O7 0.357294 0.035182 0.159894
O O8 0.445115 0.983003 0.110161
O O9 0.000000 0.499843 0.694279
O O10 0.944897 0.515118 0.778674
O O11 0.000000 0.750000 0.745164
O O12 0.235528 0.500000 0.500000
O O13 0.227352 0.250000 0.448878
O O14 0.166478 0.250000 0.675228
O O15 0.152450 0.071570 0.747628
O O16 0.000000 0.750000 0.355522
O O17 0.905541 0.750000 0.198852
#
# Coordination Sequence:
#
# PCOD9540821 Si02
#       7
#    16  16   8  16  16   8  16
#     4   9  18  32  52  78 105 134 169 212 259 308
#     4  10  20  33  50  74 102 134 173 218 261 301
#     4  12  24  34  48  71 106 147 182 218 253 291
#     4  10  21  37  57  79 104 132 167 214 267 318
#     4   9  16  28  48  73 103 137 171 206 248 301
#     4  12  22  34  51  71  98 139 184 218 254 305
#     4  10  19  32  50  74 105 140 178 211 248 302
#
# _framework density 8.2304530000000007
#
# number of rings (size 3 to 8) (size 9 to 14) (size 15 to 20)
#    0.000    2.000    1.667    3.000    0.000    4.667 
#    0.000    0.417    0.000    5.000    0.000    0.583 
#    0.000    0.000    0.000    0.000    0.000    0.000 
#
# Total GULP energy -267671.878515 kJ/mol
# GULP energy per Si atom -5576.497469 kJ/mol
# Density = 0.821172 g / cm^3
# Si number density = 8.230453 Si / 1000 Ang^3
#
#
#
# Elastic Constant Matrix: (Units=GPa)
#
#
# Indices 1 2 3 4 5 6 
#
# 1 91.4528 44.8496 50.3524 0.0000 0.0000 0.0000
# 2 44.8496 71.4498 35.7124 0.0000 0.0000 0.0000
# 3 50.3524 35.7124 73.5689 0.0000 0.0000 0.0000
# 4 0.0000 0.0000 0.0000 18.6697 0.0000 0.0000
# 5 0.0000 0.0000 0.0000 0.0000 12.2532 0.0000
# 6 0.0000 0.0000 0.0000 0.0000 0.0000 26.4382
#
#
#
# Elastic Compliance Matrix: (Units=1/GPa)
#
#
# Indices 1 2 3 4 5 6 
#
# 1 0.020286 -0.007650 -0.010171 0.000000 0.000000 0.000000
# 2 -0.007650 0.021364 -0.005135 0.000000 0.000000 0.000000
# 3 -0.010171 -0.005135 0.023046 0.000000 0.000000 0.000000
# 4 0.000000 0.000000 0.000000 0.053563 0.000000 0.000000
# 5 0.000000 0.000000 0.000000 0.000000 0.081612 0.000000
# 6 0.000000 0.000000 0.000000 0.000000 0.000000 0.037824
#
#
# Mechanical properties :
#
#
# Convention : Reuss Voigt Hill
#
# Bulk Modulus (GPa) = 53.23294 55.36671 54.29982
# Shear Modulus (GPa) = 17.24916 18.50935 17.87926
#
# Velocity S-wave (km/s) = 3.24062 3.35691 3.29928
# Velocity P-wave (km/s) = 6.81259 6.98093 6.89727
#
# Compressibility (1/GPa) = 0.01878536
#
# Stress axis : x y z
#
# Youngs Moduli (GPa) = 49.29461 46.80662 43.39056
#
# Poissons Ratio (x) = 0.35808 0.44132
# Poissons Ratio (y) = 0.37711 0.22281
# Poissons Ratio (z) = 0.50136 0.24035
#
# Static dielectric constant tensor:
#      x y z
#    x 1.561540 0.000000 0.000000 
#    y 0.000000 1.555250 0.000000 
#    z 0.000000 0.000000 1.547930 
# 
# From -- ./inp_files/57318.got.cif
#   From: 2010.05.17/outbox.ucp.g08.bks.cvg/sg74_29_cif.got.tgz:57318.got - 2010.06.11 16:37:44.
