data_PCOD9540355
_publ_section_title
;
Structure prediction by ZEFSAII (Michael W. Deem and Ramdas Pophale) SiO2 
 PCOD9540355
Probable space group: I M M A
;
_chemical_formula_sum "Si O2"
_cell_formula_units_Z 72
_cell_length_a 14.842564
_cell_length_b 8.646164
_cell_length_c 28.045380
_cell_angle_alpha 90.000000
_cell_angle_beta 90.000000
_cell_angle_gamma 90.000000
_cell_volume 3599.098462
_symmetry_space_group_name_H-M "I M M A"
_symmetry_group_IT_number 74
_symmetry_cell_setting 'orthorhombic'
loop_
_space_group_symop_operation_xyz
x,y,z
-x,1/2-y,z
x,-y,-z
-x,1/2+y,-z
-x,-y,-z
x,1/2+y,-z
-x,y,z
x,1/2-y,z
1/2+x,1/2+y,1/2+z
1/2-x,-y,1/2+z
1/2+x,1/2-y,1/2-z
1/2-x,y,1/2-z
1/2-x,1/2-y,1/2-z
1/2+x,y,1/2-z
1/2-x,1/2+y,1/2+z
1/2+x,-y,1/2+z
loop_
_atom_site_type_symbol
_atom_site_label
_atom_site_fract_x
_atom_site_fract_y
_atom_site_fract_z
Si Si1 0.000000 0.570271 0.166155
Si Si2 0.000000 0.927313 0.393097
Si Si3 0.687919 0.934933 0.628437
Si Si4 0.327983 0.433859 0.052825
Si Si5 0.682535 0.070804 0.793542
Si Si6 0.000000 0.497401 0.720029
O O1 0.910671 0.492827 0.143836
O O2 0.000000 0.750000 0.153390
O O3 0.000000 0.564498 0.224601
O O4 0.000000 0.750000 0.408265
O O5 0.000000 0.933456 0.335442
O O6 0.089931 0.004062 0.414539
O O7 0.691765 0.750000 0.635794
O O8 0.730090 0.968485 0.576333
O O9 0.759381 0.021907 0.661848
O O10 0.337275 0.250000 0.051181
O O11 0.335864 0.500000 0.000000
O O12 0.647474 0.250000 0.797044
O O13 0.750000 0.071510 0.750000
O O14 0.603112 0.949301 0.782387
#
# Coordination Sequence:
#
# PCOD9540355 Si02
#       6
#     8   8  16  16  16   8
#     4  12  24  43  68  95 128 171 218 256 303 373
#     4  12  23  38  65  97 132 171 213 257 312 373
#     4  11  25  43  62  92 129 163 206 265 325 375
#     4  11  25  45  67  92 126 164 211 266 323 381
#     4  11  21  37  61  89 127 173 221 261 301 366
#     4  12  23  37  62  98 134 174 220 261 297 362
#
# _framework density 20.005011
#
# number of rings (size 3 to 8) (size 9 to 14) (size 15 to 20)
#    0.000    0.667    4.444    4.333    0.000    3.111 
#    0.000    3.333    0.000    0.000    0.000    0.000 
#    0.000    0.000    0.000    0.000    0.000    0.000 
#
# Total GULP energy -200459.416999 kJ/mol
# GULP energy per Si atom -5568.317139 kJ/mol
# Density = 1.995948 g / cm^3
# Si number density = 20.005011 Si / 1000 Ang^3
#
#
#
# Elastic Constant Matrix: (Units=GPa)
#
#
# Indices 1 2 3 4 5 6 
#
# 1 160.2286 34.4236 67.9619 0.0000 0.0000 0.0000
# 2 34.4236 74.4357 49.9097 0.0000 0.0000 0.0000
# 3 67.9619 49.9097 127.5026 0.0000 0.0000 0.0000
# 4 0.0000 0.0000 0.0000 6.9315 0.0000 0.0000
# 5 0.0000 0.0000 0.0000 0.0000 22.7389 0.0000
# 6 0.0000 0.0000 0.0000 0.0000 0.0000 34.3502
#
#
#
# Elastic Compliance Matrix: (Units=1/GPa)
#
#
# Indices 1 2 3 4 5 6 
#
# 1 0.008137 -0.001159 -0.003884 0.000000 0.000000 0.000000
# 2 -0.001159 0.018380 -0.006577 0.000000 0.000000 0.000000
# 3 -0.003884 -0.006577 0.012488 0.000000 0.000000 0.000000
# 4 0.000000 0.000000 0.000000 0.144269 0.000000 0.000000
# 5 0.000000 0.000000 0.000000 0.000000 0.043977 0.000000
# 6 0.000000 0.000000 0.000000 0.000000 0.000000 0.029112
#
#
# Mechanical properties :
#
#
# Convention : Reuss Voigt Hill
#
# Bulk Modulus (GPa) = 63.42882 74.08415 68.75649
# Shear Modulus (GPa) = 17.55255 26.79556 22.17406
#
# Velocity S-wave (km/s) = 2.96532 3.66381 3.33291
# Velocity P-wave (km/s) = 6.59541 7.41695 7.01821
#
# Compressibility (1/GPa) = 0.01576570
#
# Stress axis : x y z
#
# Youngs Moduli (GPa) = 122.88929 54.40578 80.07978
#
# Poissons Ratio (x) = 0.06307 0.31100
# Poissons Ratio (y) = 0.14245 0.52668
# Poissons Ratio (z) = 0.47726 0.35782
#
# Static dielectric constant tensor:
#      x y z
#    x 1.731130 0.000000 0.000000 
#    y 0.000000 1.738180 0.000000 
#    z 0.000000 0.000000 1.703900 
# 
# From -- ./inp_files/66782.got.cif
#   From: 2010.05.17/outbox.cif.g08.bks.cpg/sg74_34_cif.got.tgz:66782.got - 2010.06.03 17:57:02.
