data_PCOD9540724
_publ_section_title
;
Structure prediction by ZEFSAII (Michael W. Deem and Ramdas Pophale) SiO2 
 PCOD9540724
Probable space group: I M M A
;
_chemical_formula_sum "Si O2"
_cell_formula_units_Z 96
_cell_length_a 9.683854
_cell_length_b 14.941418
_cell_length_c 32.506638
_cell_angle_alpha 90.000000
_cell_angle_beta 90.000000
_cell_angle_gamma 90.000000
_cell_volume 4703.402046
_symmetry_space_group_name_H-M "I M M A"
_symmetry_group_IT_number 74
_symmetry_cell_setting 'orthorhombic'
loop_
_space_group_symop_operation_xyz
x,y,z
-x,1/2-y,z
x,-y,-z
-x,1/2+y,-z
-x,-y,-z
x,1/2+y,-z
-x,y,z
x,1/2-y,z
1/2+x,1/2+y,1/2+z
1/2-x,-y,1/2+z
1/2+x,1/2-y,1/2-z
1/2-x,y,1/2-z
1/2-x,1/2-y,1/2-z
1/2+x,y,1/2-z
1/2-x,1/2+y,1/2+z
1/2+x,-y,1/2+z
loop_
_atom_site_type_symbol
_atom_site_label
_atom_site_fract_x
_atom_site_fract_y
_atom_site_fract_z
Si Si1 0.660984 0.642624 0.623231
Si Si2 0.339288 0.640607 0.533161
Si Si3 0.157486 0.101847 0.212811
Si Si4 0.843879 0.611649 0.213187
Si Si5 0.658752 0.640193 0.044642
Si Si6 0.157109 0.856712 0.120594
O O1 0.500000 0.614351 0.624234
O O2 0.664092 0.750000 0.622816
O O3 0.713523 0.612644 0.578519
O O4 0.720461 0.615016 0.667240
O O5 0.500000 0.613314 0.527992
O O6 0.340446 0.750000 0.532743
O O7 0.243576 0.611799 0.495691
O O8 0.250000 0.137950 0.250000
O O9 0.000000 0.138025 0.213586
O O10 0.147709 0.995237 0.218302
O O11 0.750000 0.646577 0.250000
O O12 0.791520 0.628015 0.166970
O O13 0.000000 0.647229 0.215068
O O14 0.500000 0.610882 0.044258
O O15 0.657630 0.750000 0.044800
O O16 0.741703 0.610014 0.085167
O O17 0.147227 0.750000 0.114976
O O18 0.000000 0.893282 0.117261
#
# Coordination Sequence:
#
# PCOD9540724 Si02
#       6
#    16  16  16  16  16  16
#     4   8  14  25  43  66  88 111 141 175 208 242
#     4   8  13  23  40  60  82 110 141 169 200 242
#     4   9  17  30  46  63  85 112 142 174 208 250
#     4   9  18  31  46  63  83 110 142 174 210 251
#     4   9  16  25  39  62  89 112 135 168 210 251
#     4   9  17  29  44  62  84 110 141 175 209 247
#
# _framework density 20.410758999999999
#
# number of rings (size 3 to 8) (size 9 to 14) (size 15 to 20)
#    0.000    3.333    0.000    1.500    0.000    3.333 
#    0.000    0.833    0.000    2.000    0.000    7.000 
#    0.000    0.000    0.000    0.000    0.000    0.000 
#
# Total GULP energy -267495.385684 kJ/mol
# GULP energy per Si atom -5572.820535 kJ/mol
# Density = 2.036430 g / cm^3
# Si number density = 20.410759 Si / 1000 Ang^3
#
#
#
# Elastic Constant Matrix: (Units=GPa)
#
#
# Indices 1 2 3 4 5 6 
#
# 1 89.4357 6.5140 112.0170 0.0000 0.0000 0.0000
# 2 6.5140 44.9629 3.0238 0.0000 0.0000 0.0000
# 3 112.0170 3.0238 250.1164 0.0000 0.0000 0.0000
# 4 0.0000 0.0000 0.0000 28.4894 0.0000 0.0000
# 5 0.0000 0.0000 0.0000 0.0000 32.6248 0.0000
# 6 0.0000 0.0000 0.0000 0.0000 0.0000 -2.8829
#
#
#
# Elastic Compliance Matrix: (Units=1/GPa)
#
#
# Indices 1 2 3 4 5 6 
#
# 1 0.025856 -0.002970 -0.011544 0.000000 0.000000 0.000000
# 2 -0.002970 0.022600 0.001057 0.000000 0.000000 0.000000
# 3 -0.011544 0.001057 0.009156 0.000000 0.000000 0.000000
# 4 0.000000 0.000000 0.000000 0.035101 0.000000 0.000000
# 5 0.000000 0.000000 0.000000 0.000000 0.030652 0.000000
# 6 0.000000 0.000000 0.000000 0.000000 0.000000 -0.346869
#
#
# Mechanical properties :
#
#
# Convention : Reuss Voigt Hill
#
# Bulk Modulus (GPa) = 32.57577 69.73606 51.15591
# Shear Modulus (GPa) = -26.83004 29.17692 1.17344
#
# Velocity S-wave (km/s) = -3.62954 3.78496 0.75905
# Velocity P-wave (km/s) = 1.25301 7.30354 5.08781
#
# Compressibility (1/GPa) = 0.03069766
#
# Stress axis : x y z
#
# Youngs Moduli (GPa) = 38.67521 44.24831 109.22394
#
# Poissons Ratio (x) = 0.13140 1.26089
# Poissons Ratio (y) = 0.11485 -0.11542
# Poissons Ratio (z) = 0.44647 -0.04676
#
# Static dielectric constant tensor:
#      x y z
#    x 1.708800 0.000000 0.000000 
#    y 0.000000 1.765590 0.000000 
#    z 0.000000 0.000000 1.743400 
# 
# From -- ./inp_files/57256.got.cif
#   From: 2010.05.17/outbox.cif.g08.bks.cpg/sg74_29_cif.got.tgz:57256.got - 2010.06.03 17:57:02.
