data_PCOD9540575
_publ_section_title
;
Structure prediction by ZEFSAII (Michael W. Deem and Ramdas Pophale) SiO2 
 PCOD9540575
Probable space group: I M M A
;
_chemical_formula_sum "Si O2"
_cell_formula_units_Z 104
_cell_length_a 26.188850
_cell_length_b 9.015012
_cell_length_c 21.896966
_cell_angle_alpha 90.000000
_cell_angle_beta 90.000000
_cell_angle_gamma 90.000000
_cell_volume 5169.715949
_symmetry_space_group_name_H-M "I M M A"
_symmetry_group_IT_number 74
_symmetry_cell_setting 'orthorhombic'
loop_
_space_group_symop_operation_xyz
x,y,z
-x,1/2-y,z
x,-y,-z
-x,1/2+y,-z
-x,-y,-z
x,1/2+y,-z
-x,y,z
x,1/2-y,z
1/2+x,1/2+y,1/2+z
1/2-x,-y,1/2+z
1/2+x,1/2-y,1/2-z
1/2-x,y,1/2-z
1/2-x,1/2-y,1/2-z
1/2+x,y,1/2-z
1/2-x,1/2+y,1/2+z
1/2+x,-y,1/2+z
loop_
_atom_site_type_symbol
_atom_site_label
_atom_site_fract_x
_atom_site_fract_y
_atom_site_fract_z
Si Si1 0.000000 0.071414 0.067470
Si Si2 0.776828 0.920201 0.661108
Si Si3 0.366342 0.418799 0.060213
Si Si4 0.791793 0.576809 0.063240
Si Si5 0.141282 0.570505 0.756543
Si Si6 0.601708 0.925107 0.380022
Si Si7 0.557446 0.569118 0.844756
O O1 0.000000 0.250000 0.064232
O O2 0.949083 0.013169 0.101367
O O3 0.000000 0.000000 0.000000
O O4 0.759215 0.750000 0.669778
O O5 0.823412 0.917994 0.612330
O O6 0.805010 0.970937 0.723550
O O7 0.734411 0.010800 0.624301
O O8 0.376952 0.250000 0.043169
O O9 0.416667 0.483877 0.092521
O O10 0.349447 0.500000 0.000000
O O11 0.779116 0.750000 0.059797
O O12 0.852808 0.559928 0.070725
O O13 0.775527 0.500000 0.000000
O O14 0.142004 0.750000 0.763600
O O15 0.126601 0.490727 0.818640
O O16 0.095555 0.531436 0.709922
O O17 0.590266 0.750000 0.373370
O O18 0.500000 0.517438 0.835699
O O19 0.557153 0.750000 0.847243
#
# Coordination Sequence:
#
# PCOD9540575 Si02
#       7
#     8  16  16  16  16  16  16
#     4  12  26  46  72  98 126 162 203 248 303 368
#     4   9  19  36  57  83 118 156 198 249 299 354
#     4   9  17  29  46  71 103 141 185 235 289 345
#     4  11  24  40  61  88 119 157 200 246 302 365
#     4   9  19  36  59  88 117 154 204 249 298 358
#     4  11  25  43  63  92 127 160 197 249 307 364
#     4   8  15  29  49  72 102 140 186 238 288 343
#
# _framework density 20.117159000000001
#
# number of rings (size 3 to 8) (size 9 to 14) (size 15 to 20)
#    0.000    2.308    0.000    4.385    1.077    7.077 
#    0.000    5.385    0.000    0.923    0.000    0.000 
#    0.000    0.000    0.000    0.000    0.000    0.000 
#
# Total GULP energy -290187.404876 kJ/mol
# GULP energy per Si atom -5580.527017 kJ/mol
# Density = 2.007137 g / cm^3
# Si number density = 20.117159 Si / 1000 Ang^3
#
#
#
# Elastic Constant Matrix: (Units=GPa)
#
#
# Indices 1 2 3 4 5 6 
#
# 1 130.3099 58.3243 42.4070 0.0000 0.0000 0.0000
# 2 58.3243 92.6230 58.3332 0.0000 0.0000 0.0000
# 3 42.4070 58.3332 117.7547 0.0000 0.0000 0.0000
# 4 0.0000 0.0000 0.0000 28.3243 0.0000 0.0000
# 5 0.0000 0.0000 0.0000 0.0000 21.2274 0.0000
# 6 0.0000 0.0000 0.0000 0.0000 0.0000 18.2418
#
#
#
# Elastic Compliance Matrix: (Units=1/GPa)
#
#
# Indices 1 2 3 4 5 6 
#
# 1 0.010731 -0.006284 -0.000752 0.000000 0.000000 0.000000
# 2 -0.006284 0.019372 -0.007333 0.000000 0.000000 0.000000
# 3 -0.000752 -0.007333 0.012396 0.000000 0.000000 0.000000
# 4 0.000000 0.000000 0.000000 0.035305 0.000000 0.000000
# 5 0.000000 0.000000 0.000000 0.000000 0.047109 0.000000
# 6 0.000000 0.000000 0.000000 0.000000 0.000000 0.054819
#
#
# Mechanical properties :
#
#
# Convention : Reuss Voigt Hill
#
# Bulk Modulus (GPa) = 72.67031 73.20183 72.93607
# Shear Modulus (GPa) = 23.46784 25.66691 24.56738
#
# Velocity S-wave (km/s) = 3.41920 3.57581 3.49838
# Velocity P-wave (km/s) = 7.19652 7.31542 7.25621
#
# Compressibility (1/GPa) = 0.01376078
#
# Stress axis : x y z
#
# Youngs Moduli (GPa) = 93.18579 51.62087 80.67282
#
# Poissons Ratio (x) = 0.32439 0.06064
# Poissons Ratio (y) = 0.58558 0.59161
# Poissons Ratio (z) = 0.07004 0.37856
#
# Static dielectric constant tensor:
#      x y z
#    x 1.742200 0.000000 0.000000 
#    y 0.000000 1.675640 0.000000 
#    z 0.000000 0.000000 1.719230 
# 
# From -- ./inp_files/55241.got.cif
#   From: 2010.05.17/outbox.cif.g08.bks.cpg/sg74_28_cif.got.tgz:55241.got - 2010.06.03 17:57:02.
