data_PCOD9540785
_publ_section_title
;
Structure prediction by ZEFSAII (Michael W. Deem and Ramdas Pophale) SiO2 
 PCOD9540785
Probable space group: I M M A
;
_chemical_formula_sum "Si O2"
_cell_formula_units_Z 56
_cell_length_a 27.000000
_cell_length_b 15.000000
_cell_length_c 15.000000
_cell_angle_alpha 90.000000
_cell_angle_beta 90.000000
_cell_angle_gamma 90.000000
_cell_volume 6075.000000
_symmetry_space_group_name_H-M "I M M A"
_symmetry_group_IT_number 74
_symmetry_cell_setting 'orthorhombic'
loop_
_space_group_symop_operation_xyz
x,y,z
-x,1/2-y,z
x,-y,-z
-x,1/2+y,-z
-x,-y,-z
x,1/2+y,-z
-x,y,z
x,1/2-y,z
1/2+x,1/2+y,1/2+z
1/2-x,-y,1/2+z
1/2+x,1/2-y,1/2-z
1/2-x,y,1/2-z
1/2-x,1/2-y,1/2-z
1/2+x,y,1/2-z
1/2-x,1/2+y,1/2+z
1/2+x,-y,1/2+z
loop_
_atom_site_type_symbol
_atom_site_label
_atom_site_fract_x
_atom_site_fract_y
_atom_site_fract_z
Si Si1 0.926626 0.645591 0.943873
Si Si2 0.183811 0.463066 0.815499
Si Si3 0.052654 0.644408 0.310564
Si Si4 0.248192 0.145866 0.953137
Si Si5 0.928016 0.545963 0.127207
Si Si6 0.813859 0.350004 0.127067
Si Si7 0.841289 0.644901 0.359424
O O1 0.942838 0.750000 0.930650
O O2 0.943700 0.557631 0.887136
O O3 0.867644 0.647921 0.922023
O O4 0.939031 0.610398 0.043396
O O5 0.222685 0.417062 0.880753
O O6 0.131367 0.453706 0.865455
O O7 0.190617 0.568815 0.804596
O O8 0.179707 0.411178 0.723186
O O9 0.055391 0.750000 0.288080
O O10 0.054443 0.588849 0.219208
O O11 0.101059 0.622599 0.367515
O O12 0.000000 0.628419 0.355829
O O13 0.237441 0.250000 0.930477
O O14 0.306716 0.131348 0.944323
O O15 0.225865 0.131345 0.049861
O O16 0.807328 0.250000 0.163035
O O17 0.837734 0.750000 0.336012
#
# Coordination Sequence:
#
# PCOD9540785 Si02
#       7
#    16  16  16  16  16  16  16
#     4   9  15  24  36  54  80 108 135 166 201 237
#     4  10  16  25  39  59  86 112 139 169 202 246
#     4   9  17  29  43  57  76 103 134 169 209 252
#     4  10  17  25  39  61  87 110 136 173 209 244
#     4   9  16  24  38  56  75 105 139 169 197 240
#     4   9  17  26  39  58  83 116 148 171 197 238
#     4   9  18  28  41  63  86 109 139 174 213 250
#
# _framework density 9.2181069999999998
#
# number of rings (size 3 to 8) (size 9 to 14) (size 15 to 20)
#    0.000    2.714    1.429    1.714    0.000    2.286 
#    0.000    1.429    0.000    3.000    0.000    0.000 
#    0.000    2.286    0.000    0.571    0.000    0.286 
#
# Total GULP energy -311759.259367 kJ/mol
# GULP energy per Si atom -5567.129632 kJ/mol
# Density = 0.919713 g / cm^3
# Si number density = 9.218107 Si / 1000 Ang^3
#
#
#
# Elastic Constant Matrix: (Units=GPa)
#
#
# Indices 1 2 3 4 5 6 
#
# 1 113.8382 32.6002 22.2482 0.0000 0.0000 0.0000
# 2 32.6002 71.0382 4.3329 0.0000 0.0000 0.0000
# 3 22.2482 4.3329 3.8198 0.0000 0.0000 0.0000
# 4 0.0000 0.0000 0.0000 6.5153 0.0000 0.0000
# 5 0.0000 0.0000 0.0000 0.0000 33.1746 0.0000
# 6 0.0000 0.0000 0.0000 0.0000 0.0000 -34.5778
#
#
#
# Elastic Compliance Matrix: (Units=1/GPa)
#
#
# Indices 1 2 3 4 5 6 
#
# 1 -0.060370 0.006723 0.343992 0.000000 0.000000 0.000000
# 2 0.006723 0.014375 -0.055461 0.000000 0.000000 0.000000
# 3 0.343992 -0.055461 -1.678847 0.000000 0.000000 0.000000
# 4 0.000000 0.000000 0.000000 0.153486 0.000000 0.000000
# 5 0.000000 0.000000 0.000000 0.000000 0.030144 0.000000
# 6 0.000000 0.000000 0.000000 0.000000 0.000000 -0.028920
#
#
# Mechanical properties :
#
#
# Convention : Reuss Voigt Hill
#
# Bulk Modulus (GPa) = -0.88157 34.11767 16.61805
# Shear Modulus (GPa) = -1.96947 9.65675 3.84364
#
# Velocity S-wave (km/s) = -1.03469 2.29113 1.44546
# Velocity P-wave (km/s) = 1.38082 5.05421 3.43790
#
# Compressibility (1/GPa) = -1.13433487
#
# Stress axis : x y z
#
# Youngs Moduli (GPa) = -16.56461 69.56681 -0.59565
#
# Poissons Ratio (x) = -0.46767 0.20490
# Poissons Ratio (y) = 0.11136 -0.03304
# Poissons Ratio (z) = 5.69809 3.85824
#
# Static dielectric constant tensor:
#      x y z
#    x 1.714110 0.000000 0.000000 
#    y 0.000000 1.655940 0.000000 
#    z 0.000000 0.000000 1.577100 
# 
# From -- ./inp_files/21145.got.cif
#   From: 2010.05.17/outbox.ucp.g08.bks.cvg/sg74_11_cif.got.tgz:21145.got - 2010.06.11 16:37:44.
