data_PCOD9540059
_publ_section_title
;
Structure prediction by ZEFSAII (Michael W. Deem and Ramdas Pophale) SiO2 
 PCOD9540059
Probable space group: I M M A
;
_chemical_formula_sum "Si O2"
_cell_formula_units_Z 72
_cell_length_a 9.009859
_cell_length_b 27.163341
_cell_length_c 14.847252
_cell_angle_alpha 90.000000
_cell_angle_beta 90.000000
_cell_angle_gamma 90.000000
_cell_volume 3633.684865
_symmetry_space_group_name_H-M "I M M A"
_symmetry_group_IT_number 74
_symmetry_cell_setting 'orthorhombic'
loop_
_space_group_symop_operation_xyz
x,y,z
-x,1/2-y,z
x,-y,-z
-x,1/2+y,-z
-x,-y,-z
x,1/2+y,-z
-x,y,z
x,1/2-y,z
1/2+x,1/2+y,1/2+z
1/2-x,-y,1/2+z
1/2+x,1/2-y,1/2-z
1/2-x,y,1/2-z
1/2-x,1/2-y,1/2-z
1/2+x,y,1/2-z
1/2-x,1/2+y,1/2+z
1/2+x,-y,1/2+z
loop_
_atom_site_type_symbol
_atom_site_label
_atom_site_fract_x
_atom_site_fract_y
_atom_site_fract_z
Si Si1 0.821372 0.379424 0.153984
Si Si2 0.327485 0.580417 0.333588
Si Si3 0.173931 0.333146 0.969398
Si Si4 0.672308 0.483082 0.104003
Si Si5 0.823286 0.750000 0.349533
O O1 0.750000 0.366584 0.250000
O O2 0.759016 0.433024 0.125250
O O3 0.000000 0.381799 0.160214
O O4 0.783427 0.341366 0.073404
O O5 0.500000 0.572805 0.314605
O O6 0.250000 0.607404 0.250000
O O7 0.314498 0.613589 0.421982
O O8 0.245442 0.529018 0.346098
O O9 0.269211 0.296222 0.909528
O O10 0.000000 0.318286 0.965109
O O11 0.500000 0.476511 0.129262
O O12 0.678777 0.500000 0.000000
O O13 0.750000 0.750000 0.250000
O O14 0.000000 0.750000 0.338933
#
# Coordination Sequence:
#
# PCOD9540059 Si02
#       5
#    16  16  16  16   8
#     4  11  23  41  64  91 125 167 211 258 309 365
#     4  11  22  37  58  86 120 160 204 251 305 363
#     4  10  23  43  66  91 123 161 204 255 310 367
#     4  11  22  36  57  86 122 165 210 257 304 359
#     4  12  26  44  71 100 129 160 197 248 310 376
#
# _framework density 19.814598
#
# number of rings (size 3 to 8) (size 9 to 14) (size 15 to 20)
#    0.000    1.111    2.222    4.333    0.000    6.222 
#    0.000    0.556    0.000    0.000    0.000    0.000 
#    0.000    0.000    0.000    0.000    0.000    0.000 
#
# Total GULP energy -201216.565766 kJ/mol
# GULP energy per Si atom -5589.349049 kJ/mol
# Density = 1.976950 g / cm^3
# Si number density = 19.814598 Si / 1000 Ang^3
#
#
#
# Elastic Constant Matrix: (Units=GPa)
#
#
# Indices 1 2 3 4 5 6 
#
# 1 130.8447 52.8813 88.9142 0.0000 0.0000 0.0000
# 2 52.8813 74.3456 47.9055 0.0000 0.0000 0.0000
# 3 88.9142 47.9055 168.5570 0.0000 0.0000 0.0000
# 4 0.0000 0.0000 0.0000 27.0782 0.0000 0.0000
# 5 0.0000 0.0000 0.0000 0.0000 32.4898 0.0000
# 6 0.0000 0.0000 0.0000 0.0000 0.0000 29.4768
#
#
#
# Elastic Compliance Matrix: (Units=1/GPa)
#
#
# Indices 1 2 3 4 5 6 
#
# 1 0.014008 -0.006369 -0.005579 0.000000 0.000000 0.000000
# 2 -0.006369 0.019362 -0.002143 0.000000 0.000000 0.000000
# 3 -0.005579 -0.002143 0.009485 0.000000 0.000000 0.000000
# 4 0.000000 0.000000 0.000000 0.036930 0.000000 0.000000
# 5 0.000000 0.000000 0.000000 0.000000 0.030779 0.000000
# 6 0.000000 0.000000 0.000000 0.000000 0.000000 0.033925
#
#
# Mechanical properties :
#
#
# Convention : Reuss Voigt Hill
#
# Bulk Modulus (GPa) = 68.15593 83.68326 75.91959
# Shear Modulus (GPa) = 28.15932 30.07872 29.11902
#
# Velocity S-wave (km/s) = 3.77389 3.90039 3.83766
# Velocity P-wave (km/s) = 7.31171 7.91258 7.61807
#
# Compressibility (1/GPa) = 0.01467224
#
# Stress axis : x y z
#
# Youngs Moduli (GPa) = 71.38896 51.64835 105.43122
#
# Poissons Ratio (x) = 0.32893 0.58821
# Poissons Ratio (y) = 0.45465 0.22597
# Poissons Ratio (z) = 0.39829 0.11070
#
# Static dielectric constant tensor:
#      x y z
#    x 1.667890 0.000000 0.000000 
#    y 0.000000 1.675400 0.000000 
#    z 0.000000 0.000000 1.765080 
# 
# From -- ./inp_files/29165.got.cif
#   From: 2010.05.17/outbox.cif.g08.bks.cpg/sg74_15_cif.got.tgz:29165.got - 2010.06.03 17:57:02.
