data_PCOD9540949
_publ_section_title
;
Structure prediction by ZEFSAII (Michael W. Deem and Ramdas Pophale) SiO2 
 PCOD9540949
Probable space group: I M M A
;
_chemical_formula_sum "Si O2"
_cell_formula_units_Z 44
_cell_length_a 15.000000
_cell_length_b 15.000000
_cell_length_c 21.000000
_cell_angle_alpha 90.000000
_cell_angle_beta 90.000000
_cell_angle_gamma 90.000000
_cell_volume 4725.000000
_symmetry_space_group_name_H-M "I M M A"
_symmetry_group_IT_number 74
_symmetry_cell_setting 'orthorhombic'
loop_
_space_group_symop_operation_xyz
x,y,z
-x,1/2-y,z
x,-y,-z
-x,1/2+y,-z
-x,-y,-z
x,1/2+y,-z
-x,y,z
x,1/2-y,z
1/2+x,1/2+y,1/2+z
1/2-x,-y,1/2+z
1/2+x,1/2-y,1/2-z
1/2-x,y,1/2-z
1/2-x,1/2-y,1/2-z
1/2+x,y,1/2-z
1/2-x,1/2+y,1/2+z
1/2+x,-y,1/2+z
loop_
_atom_site_type_symbol
_atom_site_label
_atom_site_fract_x
_atom_site_fract_y
_atom_site_fract_z
Si Si1 0.896180 0.853948 0.196631
Si Si2 0.500000 0.642265 0.710754
Si Si3 0.901760 0.647173 0.350045
Si Si4 0.637565 0.500000 0.500000
Si Si5 0.169302 0.352021 0.298402
Si Si6 0.753969 0.019921 0.871732
Si Si7 0.500000 0.359820 0.443378
O O1 0.874263 0.750000 0.177900
O O2 0.893708 0.855933 0.273247
O O3 0.827391 0.928923 0.172663
O O4 0.000000 0.871050 0.177166
O O5 0.500000 0.750000 0.708662
O O6 0.414286 0.616554 0.754148
O O7 0.500000 0.617505 0.634355
O O8 0.893659 0.750000 0.368606
O O9 0.826302 0.588123 0.379024
O O10 0.000000 0.614495 0.366874
O O11 0.697046 0.488221 0.561802
O O12 0.580316 0.411777 0.479720
O O13 0.150158 0.250000 0.323907
O O14 0.250000 0.341262 0.250000
O O15 0.208317 0.428333 0.345610
O O16 0.500000 0.250000 0.448856
#
# Coordination Sequence:
#
# PCOD9540949 Si02
#       7
#    16   8  16   8  16  16   8
#     4   9  19  35  59  92 124 150 187 247 311 370
#     4   9  19  39  69  97 120 154 206 267 332 380
#     4   9  19  36  59  91 122 149 193 250 307 363
#     4  11  28  42  55  92 126 166 225 244 275 388
#     4  10  21  37  60  92 122 155 203 262 325 375
#     4  12  23  38  58  85 122 168 206 248 296 359
#     4  10  23  45  66  87 128 169 201 262 319 363
#
# _framework density 9.3121690000000008
#
# number of rings (size 3 to 8) (size 9 to 14) (size 15 to 20)
#    0.000    2.000    0.000    4.364    3.818    5.091 
#    1.636    0.455    0.000    0.000    0.000    0.000 
#    0.000    0.000    0.000    0.000    0.000    0.000 
#
# Total GULP energy -245149.315280 kJ/mol
# GULP energy per Si atom -5571.575347 kJ/mol
# Density = 0.929097 g / cm^3
# Si number density = 9.312169 Si / 1000 Ang^3
#
#
#
# Elastic Constant Matrix: (Units=GPa)
#
#
# Indices 1 2 3 4 5 6 
#
# 1 136.3037 69.9451 49.3080 0.0000 0.0000 0.0000
# 2 69.9451 100.2992 46.3234 0.0000 0.0000 0.0000
# 3 49.3080 46.3234 69.1171 0.0000 0.0000 0.0000
# 4 0.0000 0.0000 0.0000 5.9706 0.0000 0.0000
# 5 0.0000 0.0000 0.0000 0.0000 27.3038 0.0000
# 6 0.0000 0.0000 0.0000 0.0000 0.0000 28.4928
#
#
#
# Elastic Compliance Matrix: (Units=1/GPa)
#
#
# Indices 1 2 3 4 5 6 
#
# 1 0.012275 -0.006540 -0.004374 0.000000 0.000000 0.000000
# 2 -0.006540 0.017924 -0.007348 0.000000 0.000000 0.000000
# 3 -0.004374 -0.007348 0.022513 0.000000 0.000000 0.000000
# 4 0.000000 0.000000 0.000000 0.167486 0.000000 0.000000
# 5 0.000000 0.000000 0.000000 0.000000 0.036625 0.000000
# 6 0.000000 0.000000 0.000000 0.000000 0.000000 0.035097
#
#
# Mechanical properties :
#
#
# Convention : Reuss Voigt Hill
#
# Bulk Modulus (GPa) = 61.76807 70.76367 66.26587
# Shear Modulus (GPa) = 14.97728 21.69634 18.33681
#
# Velocity S-wave (km/s) = 2.83888 3.41683 3.14118
# Velocity P-wave (km/s) = 6.63196 7.32421 6.98666
#
# Compressibility (1/GPa) = 0.01618959
#
# Stress axis : x y z
#
# Youngs Moduli (GPa) = 81.46796 55.78966 44.41921
#
# Poissons Ratio (x) = 0.36487 0.19427
# Poissons Ratio (y) = 0.53280 0.32637
# Poissons Ratio (z) = 0.35630 0.40992
#
# Static dielectric constant tensor:
#      x y z
#    x 1.688420 0.000000 0.000000 
#    y 0.000000 1.694100 0.000000 
#    z 0.000000 0.000000 1.650560 
# 
# From -- ./inp_files/51773.got.cif
#   From: 2010.05.17/outbox.ucp.g08.bks.cvg/sg74_26_cif.got.tgz:51773.got - 2010.06.11 16:37:44.
