data_PCOD9540343
_publ_section_title
;
Structure prediction by ZEFSAII (Michael W. Deem and Ramdas Pophale) SiO2 
 PCOD9540343
Probable space group: I M M A
;
_chemical_formula_sum "Si O2"
_cell_formula_units_Z 72
_cell_length_a 8.587668
_cell_length_b 27.152517
_cell_length_c 15.037864
_cell_angle_alpha 90.000000
_cell_angle_beta 90.000000
_cell_angle_gamma 90.000000
_cell_volume 3506.481027
_symmetry_space_group_name_H-M "I M M A"
_symmetry_group_IT_number 74
_symmetry_cell_setting 'orthorhombic'
loop_
_space_group_symop_operation_xyz
x,y,z
-x,1/2-y,z
x,-y,-z
-x,1/2+y,-z
-x,-y,-z
x,1/2+y,-z
-x,y,z
x,1/2-y,z
1/2+x,1/2+y,1/2+z
1/2-x,-y,1/2+z
1/2+x,1/2-y,1/2-z
1/2-x,y,1/2-z
1/2-x,1/2-y,1/2-z
1/2+x,y,1/2-z
1/2-x,1/2+y,1/2+z
1/2+x,-y,1/2+z
loop_
_atom_site_type_symbol
_atom_site_label
_atom_site_fract_x
_atom_site_fract_y
_atom_site_fract_z
Si Si1 0.686524 0.519581 0.905856
Si Si2 0.684531 0.162307 0.527594
Si Si3 0.814305 0.250000 0.649271
Si Si4 0.316247 0.586411 0.157914
Si Si5 0.812784 0.872354 0.653210
O O1 0.500000 0.526907 0.918211
O O2 0.707134 0.472256 0.844012
O O3 0.744684 0.571551 0.868876
O O4 0.750247 0.500000 0.000000
O O5 0.500000 0.168248 0.523656
O O6 0.756379 0.203297 0.592399
O O7 0.730851 0.111170 0.575171
O O8 0.754127 0.160920 0.428518
O O9 0.750000 0.250000 0.750000
O O10 0.000000 0.250000 0.654000
O O11 0.500000 0.596252 0.150116
O O12 0.250000 0.606888 0.250000
O O13 0.750000 0.858118 0.750000
O O14 0.000000 0.871952 0.654763
#
# Coordination Sequence:
#
# PCOD9540343 Si02
#       5
#    16  16   8  16  16
#     4   9  17  33  57  85 122 168 215 262 311 364
#     4  12  25  43  65  94 127 163 208 259 314 378
#     4  12  26  48  75 102 129 162 200 252 318 382
#     4  11  21  36  58  87 124 166 210 259 312 371
#     4  11  22  40  64  92 128 172 218 265 317 371
#
# _framework density 20.533405999999999
#
# number of rings (size 3 to 8) (size 9 to 14) (size 15 to 20)
#    0.000    1.111    2.222    5.667    0.000    0.000 
#    0.000    5.000    0.000    0.000    0.000    0.000 
#    0.000    0.000    0.000    0.000    0.000    0.000 
#
# Total GULP energy -201173.967003 kJ/mol
# GULP energy per Si atom -5588.165750 kJ/mol
# Density = 2.048667 g / cm^3
# Si number density = 20.533406 Si / 1000 Ang^3
#
#
#
# Elastic Constant Matrix: (Units=GPa)
#
#
# Indices 1 2 3 4 5 6 
#
# 1 122.3800 47.8133 81.5979 0.0000 0.0000 0.0000
# 2 47.8133 54.9534 26.4920 0.0000 0.0000 0.0000
# 3 81.5979 26.4920 191.3005 -0.0001 0.0000 0.0000
# 4 0.0000 0.0000 -0.0001 20.9224 0.0000 0.0000
# 5 0.0000 0.0000 0.0000 0.0000 33.5040 0.0000
# 6 0.0000 0.0000 0.0000 0.0000 0.0000 13.9476
#
#
#
# Elastic Compliance Matrix: (Units=1/GPa)
#
#
# Indices 1 2 3 4 5 6 
#
# 1 0.016239 -0.011562 -0.005326 0.000000 0.000000 0.000000
# 2 -0.011562 0.027731 0.001091 0.000000 0.000000 0.000000
# 3 -0.005326 0.001091 0.007348 0.000000 0.000000 0.000000
# 4 0.000000 0.000000 0.000000 0.047796 0.000000 0.000000
# 5 0.000000 0.000000 0.000000 0.000000 0.029847 0.000000
# 6 0.000000 0.000000 0.000000 0.000000 0.000000 0.071697
#
#
# Mechanical properties :
#
#
# Convention : Reuss Voigt Hill
#
# Bulk Modulus (GPa) = 50.69547 75.60447 63.14997
# Shear Modulus (GPa) = 20.93576 27.85685 24.39631
#
# Velocity S-wave (km/s) = 3.19657 3.68728 3.45066
# Velocity P-wave (km/s) = 6.19411 7.41810 6.83356
#
# Compressibility (1/GPa) = 0.01972563
#
# Stress axis : x y z
#
# Youngs Moduli (GPa) = 61.57849 36.06087 136.09414
#
# Poissons Ratio (x) = 0.41694 0.72479
# Poissons Ratio (y) = 0.71197 -0.14854
# Poissons Ratio (z) = 0.32795 -0.03936
#
# Static dielectric constant tensor:
#      x y z
#    x 1.692020 0.000000 0.000000 
#    y 0.000000 1.777910 0.000000 
#    z 0.000000 0.000000 1.287590 
# 
# From -- ./inp_files/29181.got.cif
#   From: 2010.05.17/outbox.cif.g08.bks.cpg/sg74_15_cif.got.tgz:29181.got - 2010.06.03 17:57:02.
