data_PCOD9540012
_publ_section_title
;
Structure prediction by ZEFSAII (Michael W. Deem and Ramdas Pophale) SiO2 
 PCOD9540012
Probable space group: I M M A
;
_chemical_formula_sum "Si O2"
_cell_formula_units_Z 48
_cell_length_a 27.868561
_cell_length_b 11.159532
_cell_length_c 7.292493
_cell_angle_alpha 90.000000
_cell_angle_beta 90.000000
_cell_angle_gamma 90.000000
_cell_volume 2267.966040
_symmetry_space_group_name_H-M "I M M A"
_symmetry_group_IT_number 74
_symmetry_cell_setting 'orthorhombic'
loop_
_space_group_symop_operation_xyz
x,y,z
-x,1/2-y,z
x,-y,-z
-x,1/2+y,-z
-x,-y,-z
x,1/2+y,-z
-x,y,z
x,1/2-y,z
1/2+x,1/2+y,1/2+z
1/2-x,-y,1/2+z
1/2+x,1/2-y,1/2-z
1/2-x,y,1/2-z
1/2-x,1/2-y,1/2-z
1/2+x,y,1/2-z
1/2-x,1/2+y,1/2+z
1/2+x,-y,1/2+z
loop_
_atom_site_type_symbol
_atom_site_label
_atom_site_fract_x
_atom_site_fract_y
_atom_site_fract_z
Si Si1 0.201744 0.384633 0.868722
Si Si2 0.902348 0.120513 0.711974
Si Si3 0.557113 0.621141 0.799058
O O1 0.201316 0.250000 0.957346
O O2 0.250000 0.392235 0.750000
O O3 0.154503 0.388661 0.741443
O O4 0.199718 0.500000 0.000000
O O5 0.918390 0.250000 0.786975
O O6 0.917664 0.122699 0.498661
O O7 0.925698 0.000937 0.792808
O O8 0.500000 0.614861 0.826190
O O9 0.568668 0.750000 0.711324
#
# Coordination Sequence:
#
# PCOD9540012 Si02
#       3
#    16  16  16
#     4  10  23  40  57  81 112 147 191 236 281 334
#     4   9  17  30  49  74 107 140 175 220 271 323
#     4   9  17  29  51  84 113 140 182 230 274 326
#
# _framework density 21.164339999999999
#
# number of rings (size 3 to 8) (size 9 to 14) (size 15 to 20)
#    0.000    2.667    0.000    2.000    4.667    4.000 
#    0.000    0.000    0.000    4.000    0.000    4.667 
#    0.000    0.000    0.000    0.000    0.000    0.000 
#
# Total GULP energy -133719.912376 kJ/mol
# GULP energy per Si atom -5571.663016 kJ/mol
# Density = 2.111617 g / cm^3
# Si number density = 21.164340 Si / 1000 Ang^3
#
#
#
# Elastic Constant Matrix: (Units=GPa)
#
#
# Indices 1 2 3 4 5 6 
#
# 1 105.8055 85.5194 28.0424 0.0000 0.0000 0.0000
# 2 85.5194 270.1942 37.5245 0.0000 0.0000 0.0000
# 3 28.0424 37.5245 72.2365 0.0000 0.0000 0.0000
# 4 0.0000 0.0000 0.0000 -6.5313 0.0000 0.0000
# 5 0.0000 0.0000 0.0000 0.0000 12.1748 0.0000
# 6 0.0000 0.0000 0.0000 0.0000 0.0000 37.8693
#
#
#
# Elastic Compliance Matrix: (Units=1/GPa)
#
#
# Indices 1 2 3 4 5 6 
#
# 1 0.013362 -0.003782 -0.003223 0.000000 0.000000 0.000000
# 2 -0.003782 0.005059 -0.001160 0.000000 0.000000 0.000000
# 3 -0.003223 -0.001160 0.015697 0.000000 0.000000 0.000000
# 4 0.000000 0.000000 0.000000 -0.153109 0.000000 0.000000
# 5 0.000000 0.000000 0.000000 0.000000 0.082137 0.000000
# 6 0.000000 0.000000 0.000000 0.000000 0.000000 0.026407
#
#
# Mechanical properties :
#
#
# Convention : Reuss Voigt Hill
#
# Bulk Modulus (GPa) = 56.21311 83.37876 69.79594
# Shear Modulus (GPa) = 423.30564 28.51253 225.90908
#
# Velocity S-wave (km/s) = 14.15779 3.67440 10.34273
# Velocity P-wave (km/s) = 17.14280 7.58176 13.25440
#
# Compressibility (1/GPa) = 0.01778944
#
# Stress axis : x y z
#
# Youngs Moduli (GPa) = 74.83872 197.66444 63.70624
#
# Poissons Ratio (x) = 0.74750 0.20531
# Poissons Ratio (y) = 0.28302 0.07390
# Poissons Ratio (z) = 0.24119 0.22929
#
# Static dielectric constant tensor:
#      x y z
#    x 1.705870 0.000000 0.000000 
#    y 0.000000 1.882660 0.000000 
#    z 0.000000 0.000000 1.707280 
# 
# From -- ./inp_files/6858.got.cif
#   From: 2010.05.17/outbox.cif.g08.bks.cpg/sg74_4_cif.got.tgz:6858.got - 2010.06.03 17:57:02.
