data_PCOD9540358
_publ_section_title
;
Structure prediction by ZEFSAII (Michael W. Deem and Ramdas Pophale) SiO2 
 PCOD9540358
Probable space group: I M M A
;
_chemical_formula_sum "Si O2"
_cell_formula_units_Z 72
_cell_length_a 14.422302
_cell_length_b 18.394032
_cell_length_c 14.672589
_cell_angle_alpha 90.000000
_cell_angle_beta 90.000000
_cell_angle_gamma 90.000000
_cell_volume 3892.407275
_symmetry_space_group_name_H-M "I M M A"
_symmetry_group_IT_number 74
_symmetry_cell_setting 'orthorhombic'
loop_
_space_group_symop_operation_xyz
x,y,z
-x,1/2-y,z
x,-y,-z
-x,1/2+y,-z
-x,-y,-z
x,1/2+y,-z
-x,y,z
x,1/2-y,z
1/2+x,1/2+y,1/2+z
1/2-x,-y,1/2+z
1/2+x,1/2-y,1/2-z
1/2-x,y,1/2-z
1/2-x,1/2-y,1/2-z
1/2+x,y,1/2-z
1/2-x,1/2+y,1/2+z
1/2+x,-y,1/2+z
loop_
_atom_site_type_symbol
_atom_site_label
_atom_site_fract_x
_atom_site_fract_y
_atom_site_fract_z
Si Si1 0.202692 0.404978 0.846289
Si Si2 0.500000 0.983659 0.891658
Si Si3 0.318673 0.834152 0.529597
Si Si4 0.207332 0.940837 0.648547
Si Si5 0.000000 0.069673 0.067458
Si Si6 0.500000 0.047755 0.710190
O O1 0.250000 0.387408 0.750000
O O2 0.209951 0.346001 0.924776
O O3 0.248883 0.480906 0.881216
O O4 0.094355 0.418264 0.826693
O O5 0.403174 0.945875 0.863482
O O6 0.500000 0.050646 0.819757
O O7 0.500000 0.000000 0.000000
O O8 0.332285 0.750000 0.550608
O O9 0.242413 0.873531 0.590650
O O10 0.410822 0.881332 0.548599
O O11 0.250000 0.933274 0.750000
O O12 0.000000 0.034238 0.168262
O O13 0.000000 0.000000 0.000000
#
# Coordination Sequence:
#
# PCOD9540358 Si02
#       6
#    16   8  16  16   8   8
#     4  11  21  37  63  88 123 159 213 265 313 365
#     4  12  22  36  63  97 124 156 212 274 320 363
#     4  12  24  38  59  93 131 169 202 253 331 394
#     4  11  22  40  64  92 122 164 221 270 315 365
#     4  12  19  38  67  90 123 156 212 266 310 362
#     4  12  20  36  62  99 115 152 202 276 314 361
#
# _framework density 18.49755
#
# number of rings (size 3 to 8) (size 9 to 14) (size 15 to 20)
#    0.000    0.444    8.889    2.333    0.000    0.889 
#    0.000    0.556    0.000    0.000    0.000    0.000 
#    0.000    0.000    0.000    0.000    0.000    0.000 
#
# Total GULP energy -200955.811283 kJ/mol
# GULP energy per Si atom -5582.105869 kJ/mol
# Density = 1.845545 g / cm^3
# Si number density = 18.497550 Si / 1000 Ang^3
#
#
#
# Elastic Constant Matrix: (Units=GPa)
#
#
# Indices 1 2 3 4 5 6 
#
# 1 170.8121 45.0402 40.0207 0.0000 0.0000 0.0000
# 2 45.0402 64.7985 19.6928 0.0000 0.0000 -0.0002
# 3 40.0207 19.6928 104.6847 0.0000 0.0000 -0.0002
# 4 0.0000 0.0000 0.0000 4.5047 0.0000 -0.0001
# 5 0.0000 0.0000 0.0000 0.0000 11.5134 0.0001
# 6 0.0000 -0.0002 -0.0002 -0.0001 0.0001 239.0244
#
#
#
# Elastic Compliance Matrix: (Units=1/GPa)
#
#
# Indices 1 2 3 4 5 6 
#
# 1 0.007548 -0.004635 -0.002014 0.000000 0.000000 0.000000
# 2 -0.004635 0.019214 -0.001843 0.000000 0.000000 0.000000
# 3 -0.002014 -0.001843 0.010669 0.000000 0.000000 0.000000
# 4 0.000000 0.000000 0.000000 0.221988 0.000000 0.000000
# 5 0.000000 0.000000 0.000000 0.000000 0.086855 0.000000
# 6 0.000000 0.000000 0.000000 0.000000 0.000000 0.004184
#
#
# Mechanical properties :
#
#
# Convention : Reuss Voigt Hill
#
# Bulk Modulus (GPa) = 48.90219 61.08917 54.99568
# Shear Modulus (GPa) = 13.35981 66.71128 40.03554
#
# Velocity S-wave (km/s) = 2.69038 6.01192 4.65733
# Velocity P-wave (km/s) = 6.01210 9.01600 7.66269
#
# Compressibility (1/GPa) = 0.02044898
#
# Stress axis : x y z
#
# Youngs Moduli (GPa) = 132.48011 52.04560 93.72946
#
# Poissons Ratio (x) = 0.24121 0.18876
# Poissons Ratio (y) = 0.61400 0.17271
# Poissons Ratio (z) = 0.26679 0.09590
#
# Static dielectric constant tensor:
#      x y z
#    x 1.716060 0.000000 0.000000 
#    y 0.000000 1.608240 0.000000 
#    z 0.000000 0.000000 1.704080 
# 
# From -- ./inp_files/31976.got.cif
#   From: 2010.05.17/outbox.cif.g08.bks.cpg/sg74_16_cif.got.tgz:31976.got - 2010.06.03 17:57:02.
