data_PCOD9540881
_publ_section_title
;
Structure prediction by ZEFSAII (Michael W. Deem and Ramdas Pophale) SiO2 
 PCOD9540881
Probable space group: I M M A
;
_chemical_formula_sum "Si O2"
_cell_formula_units_Z 40
_cell_length_a 18.000000
_cell_length_b 9.000000
_cell_length_c 27.000000
_cell_angle_alpha 90.000000
_cell_angle_beta 90.000000
_cell_angle_gamma 90.000000
_cell_volume 4374.000000
_symmetry_space_group_name_H-M "I M M A"
_symmetry_group_IT_number 74
_symmetry_cell_setting 'orthorhombic'
loop_
_space_group_symop_operation_xyz
x,y,z
-x,1/2-y,z
x,-y,-z
-x,1/2+y,-z
-x,-y,-z
x,1/2+y,-z
-x,y,z
x,1/2-y,z
1/2+x,1/2+y,1/2+z
1/2-x,-y,1/2+z
1/2+x,1/2-y,1/2-z
1/2-x,y,1/2-z
1/2-x,1/2-y,1/2-z
1/2+x,y,1/2-z
1/2-x,1/2+y,1/2+z
1/2+x,-y,1/2+z
loop_
_atom_site_type_symbol
_atom_site_label
_atom_site_fract_x
_atom_site_fract_y
_atom_site_fract_z
Si Si1 0.088878 0.924823 0.349038
Si Si2 0.345343 0.576950 0.050026
Si Si3 0.409414 0.078314 0.250310
Si Si4 0.333275 0.422265 0.550449
Si Si5 0.913118 0.570637 0.858340
O O1 0.105483 0.750000 0.347534
O O2 0.122779 0.988780 0.399304
O O3 0.000000 0.942896 0.350974
O O4 0.116999 0.995297 0.298293
O O5 0.366613 0.750000 0.047657
O O6 0.256140 0.567837 0.051961
O O7 0.371638 0.500000 0.000000
O O8 0.500000 0.073382 0.250770
O O9 0.387858 0.250000 0.246763
O O10 0.386533 0.018825 0.304012
O O11 0.358900 0.500000 0.500000
O O12 0.354250 0.250000 0.550079
O O13 0.366787 0.502483 0.597672
O O14 0.908677 0.750000 0.858743
O O15 0.000000 0.531386 0.864065
#
# Coordination Sequence:
#
# PCOD9540881 Si02
#       5
#    16  16  16  16  16
#     4   9  17  30  49  72  97 124 156 195 235 276
#     4   9  19  34  49  68  95 126 159 195 236 279
#     4   8  15  29  48  70  96 124 153 188 232 278
#     4  10  20  34  51  69  93 126 160 194 234 281
#     4   9  18  33  52  73  97 123 154 195 236 275
#
# _framework density 9.1449470000000002
#
# number of rings (size 3 to 8) (size 9 to 14) (size 15 to 20)
#    0.000    3.000    0.000    1.800    0.000    3.600 
#    0.000    3.000    0.000    6.000    0.000    0.000 
#    0.000    0.000    0.000    0.000    0.000    0.000 
#
# Total GULP energy -222811.710170 kJ/mol
# GULP energy per Si atom -5570.292754 kJ/mol
# Density = 0.912413 g / cm^3
# Si number density = 9.144947 Si / 1000 Ang^3
#
#
#
# Elastic Constant Matrix: (Units=GPa)
#
#
# Indices 1 2 3 4 5 6 
#
# 1 -86.3862 22.3417 -25.6078 0.0000 0.0000 0.0000
# 2 22.3417 31.1717 68.2773 0.0000 0.0000 0.0000
# 3 -25.6078 68.2773 179.7715 0.0000 0.0000 0.0000
# 4 0.0000 0.0000 0.0000 35.0278 0.0000 0.0000
# 5 0.0000 0.0000 0.0000 0.0000 24.7875 0.0000
# 6 0.0000 0.0000 0.0000 0.0000 0.0000 11.2312
#
#
#
# Elastic Compliance Matrix: (Units=1/GPa)
#
#
# Indices 1 2 3 4 5 6 
#
# 1 -0.003493 0.021377 -0.008617 0.000000 0.000000 0.000000
# 2 0.021377 0.060019 -0.019750 0.000000 0.000000 0.000000
# 3 -0.008617 -0.019750 0.011836 0.000000 0.000000 0.000000
# 4 0.000000 0.000000 0.000000 0.028549 0.000000 0.000000
# 5 0.000000 0.000000 0.000000 0.000000 0.040343 0.000000
# 6 0.000000 0.000000 0.000000 0.000000 0.000000 0.089037
#
#
# Mechanical properties :
#
#
# Convention : Reuss Voigt Hill
#
# Bulk Modulus (GPa) = 18.38820 28.28660 23.33740
# Shear Modulus (GPa) = 19.34999 18.17901 18.76450
#
# Velocity S-wave (km/s) = 3.25616 3.15610 3.20652
# Velocity P-wave (km/s) = 4.92060 5.36475 5.14747
#
# Compressibility (1/GPa) = 0.05438271
#
# Stress axis : x y z
#
# Youngs Moduli (GPa) = -286.28475 16.66147 84.48581
#
# Poissons Ratio (x) = -0.35617 0.72798
# Poissons Ratio (y) = 6.11991 1.66860
# Poissons Ratio (z) = -2.46679 0.32907
#
# Static dielectric constant tensor:
#      x y z
#    x 1.609610 0.000000 0.000000 
#    y 0.000000 1.617810 0.000000 
#    z 0.000000 0.000000 1.646450 
# 
# From -- ./inp_files/63905.got.cif
#   From: 2010.05.17/outbox.ucp.g08.bks.cvg/sg74_32_cif.got.tgz:63905.got - 2010.06.11 16:37:44.
