data_PCOD9540119
_publ_section_title
;
Structure prediction by ZEFSAII (Michael W. Deem and Ramdas Pophale) SiO2 
 PCOD9540119
Probable space group: I M M A
;
_chemical_formula_sum "Si O2"
_cell_formula_units_Z 44
_cell_length_a 28.997255
_cell_length_b 14.648527
_cell_length_c 4.885136
_cell_angle_alpha 90.000000
_cell_angle_beta 90.000000
_cell_angle_gamma 90.000000
_cell_volume 2075.044919
_symmetry_space_group_name_H-M "I M M A"
_symmetry_group_IT_number 74
_symmetry_cell_setting 'orthorhombic'
loop_
_space_group_symop_operation_xyz
x,y,z
-x,1/2-y,z
x,-y,-z
-x,1/2+y,-z
-x,-y,-z
x,1/2+y,-z
-x,y,z
x,1/2-y,z
1/2+x,1/2+y,1/2+z
1/2-x,-y,1/2+z
1/2+x,1/2-y,1/2-z
1/2-x,y,1/2-z
1/2-x,1/2-y,1/2-z
1/2+x,y,1/2-z
1/2-x,1/2+y,1/2+z
1/2+x,-y,1/2+z
loop_
_atom_site_type_symbol
_atom_site_label
_atom_site_fract_x
_atom_site_fract_y
_atom_site_fract_z
Si Si1 0.072612 0.750000 0.740287
Si Si2 0.145321 0.599193 0.598160
Si Si3 0.704849 0.144780 0.593106
Si Si4 0.500000 0.750000 0.260321
O O1 0.105725 0.661657 0.725586
O O2 0.040074 0.750000 0.477492
O O3 0.040466 0.750000 0.003061
O O4 0.129201 0.500000 0.500000
O O5 0.165929 0.644558 0.326422
O O6 0.185722 0.593526 0.826713
O O7 0.714205 0.250000 0.509338
O O8 0.750000 0.108599 0.750000
#
# Coordination Sequence:
#
# PCOD9540119 Si02
#       4
#     8  16  16   4
#     4  11  22  46  65  98 130 164 219 272 336 415
#     4  12  24  41  68  98 133 177 220 273 327 387
#     4  11  22  40  64  95 135 180 224 272 318 373
#     4  10  24  42  74  90 126 176 200 274 358 398
#
# _framework density 21.204359
#
# number of rings (size 3 to 8) (size 9 to 14) (size 15 to 20)
#    0.000    0.727    3.636    4.364    0.000    5.818 
#    0.000    5.455    0.000    0.000    0.000    0.000 
#    0.000    0.000    0.000    0.000    0.000    0.000 
#
# Total GULP energy -122567.312352 kJ/mol
# GULP energy per Si atom -5571.241471 kJ/mol
# Density = 2.115610 g / cm^3
# Si number density = 21.204359 Si / 1000 Ang^3
#
#
#
# Elastic Constant Matrix: (Units=GPa)
#
#
# Indices 1 2 3 4 5 6 
#
# 1 113.9676 43.1244 41.9400 0.0000 -0.0001 0.0000
# 2 43.1244 108.0351 19.8107 0.0000 0.0000 0.0000
# 3 41.9400 19.8107 173.5153 0.0001 0.0008 0.0000
# 4 0.0000 0.0000 0.0001 -4.5124 0.0002 0.0000
# 5 -0.0001 0.0000 0.0008 0.0002 -167.9703 0.0000
# 6 0.0000 0.0000 0.0000 0.0000 0.0000 -4.3246
#
#
#
# Elastic Compliance Matrix: (Units=1/GPa)
#
#
# Indices 1 2 3 4 5 6 
#
# 1 0.011119 -0.004030 -0.002227 0.000000 0.000000 0.000000
# 2 -0.004030 0.010915 -0.000272 0.000000 0.000000 0.000000
# 3 -0.002227 -0.000272 0.006333 0.000000 0.000000 0.000000
# 4 0.000000 0.000000 0.000000 -0.221612 0.000000 0.000000
# 5 0.000000 0.000000 0.000000 0.000000 -0.005953 0.000000
# 6 0.000000 0.000000 0.000000 0.000000 0.000000 -0.231236
#
#
# Mechanical properties :
#
#
# Convention : Reuss Voigt Hill
#
# Bulk Modulus (GPa) = 65.32756 67.25202 66.28979
# Shear Modulus (GPa) = -12.12788 -15.98525 -14.05657
#
# Velocity S-wave (km/s) = -2.39415 -2.74864 -2.57750
# Velocity P-wave (km/s) = 4.82005 4.65957 4.74049
#
# Compressibility (1/GPa) = 0.01530747
#
# Stress axis : x y z
#
# Youngs Moduli (GPa) = 89.93604 91.61890 157.91214
#
# Poissons Ratio (x) = 0.36922 0.35174
# Poissons Ratio (y) = 0.36244 0.04297
# Poissons Ratio (z) = 0.20033 0.02493
#
# Static dielectric constant tensor:
#      x y z
#    x 1.789710 0.000000 0.000000 
#    y 0.000000 1.834100 0.000000 
#    z 0.000000 0.000000 1.724160 
# 
# From -- ./inp_files/4126.got.cif
#   From: 2010.05.17/outbox.cif.g08.bks.cpg/sg74_3_cif.got.tgz:4126.got - 2010.06.03 17:57:02.
