data_PCOD9540095
_publ_section_title
;
Structure prediction by ZEFSAII (Michael W. Deem and Ramdas Pophale) SiO2 
 PCOD9540095
Probable space group: I M M A
;
_chemical_formula_sum "Si O2"
_cell_formula_units_Z 68
_cell_length_a 23.623801
_cell_length_b 9.150148
_cell_length_c 16.085925
_cell_angle_alpha 90.000000
_cell_angle_beta 90.000000
_cell_angle_gamma 90.000000
_cell_volume 3477.154065
_symmetry_space_group_name_H-M "I M M A"
_symmetry_group_IT_number 74
_symmetry_cell_setting 'orthorhombic'
loop_
_space_group_symop_operation_xyz
x,y,z
-x,1/2-y,z
x,-y,-z
-x,1/2+y,-z
-x,-y,-z
x,1/2+y,-z
-x,y,z
x,1/2-y,z
1/2+x,1/2+y,1/2+z
1/2-x,-y,1/2+z
1/2+x,1/2-y,1/2-z
1/2-x,y,1/2-z
1/2-x,1/2-y,1/2-z
1/2+x,y,1/2-z
1/2-x,1/2+y,1/2+z
1/2+x,-y,1/2+z
loop_
_atom_site_type_symbol
_atom_site_label
_atom_site_fract_x
_atom_site_fract_y
_atom_site_fract_z
Si Si1 0.342914 0.418528 0.837347
Si Si2 0.118459 0.075258 0.176458
Si Si3 0.000000 0.925263 0.910175
Si Si4 0.089204 0.500000 0.500000
Si Si5 0.276129 0.424933 0.588095
Si Si6 0.000000 0.750000 0.544332
O O1 0.347376 0.250000 0.808967
O O2 0.372562 0.521529 0.770383
O O3 0.276810 0.453508 0.850928
O O4 0.372605 0.434688 0.926460
O O5 0.125276 0.250000 0.170587
O O6 0.056624 0.036590 0.140847
O O7 0.166742 0.994149 0.123783
O O8 0.000000 0.750000 0.921501
O O9 0.000000 0.000000 0.000000
O O10 0.049294 0.623156 0.539058
O O11 0.263966 0.500000 0.500000
O O12 0.281289 0.250000 0.578630
#
# Coordination Sequence:
#
# PCOD9540095 Si02
#       6
#    16  16   8   8  16   4
#     4  11  24  42  65  95 135 170 217 266 328 385
#     4  11  25  43  65  97 130 169 216 272 329 386
#     4  10  24  46  68  94 127 165 212 263 318 385
#     4  11  22  44  62  96 128 179 216 272 314 387
#     4  11  23  41  67  96 131 170 216 269 326 390
#     4  10  24  38  64  88 126 166 226 252 308 378
#
# _framework density 19.556222999999999
#
# number of rings (size 3 to 8) (size 9 to 14) (size 15 to 20)
#    0.000    1.176    2.353    2.824    1.647   10.353 
#    2.118    0.000    0.000    0.000    0.000    0.000 
#    0.000    0.000    0.000    0.000    0.000    0.000 
#
# Total GULP energy -189558.984248 kJ/mol
# GULP energy per Si atom -5575.264243 kJ/mol
# Density = 1.951171 g / cm^3
# Si number density = 19.556223 Si / 1000 Ang^3
#
#
#
# Elastic Constant Matrix: (Units=GPa)
#
#
# Indices 1 2 3 4 5 6 
#
# 1 172.3413 64.5197 56.0625 0.0000 0.0000 0.0000
# 2 64.5197 81.8170 35.7527 0.0000 0.0000 0.0000
# 3 56.0625 35.7527 105.1999 0.0000 0.0000 0.0000
# 4 0.0000 0.0000 0.0000 27.7934 0.0000 0.0000
# 5 0.0000 0.0000 0.0000 0.0000 58.7151 0.0000
# 6 0.0000 0.0000 0.0000 0.0000 0.0000 50.2237
#
#
#
# Elastic Compliance Matrix: (Units=1/GPa)
#
#
# Indices 1 2 3 4 5 6 
#
# 1 0.008866 -0.005786 -0.002758 0.000000 0.000000 0.000000
# 2 -0.005786 0.018130 -0.003078 0.000000 0.000000 0.000000
# 3 -0.002758 -0.003078 0.012022 0.000000 0.000000 0.000000
# 4 0.000000 0.000000 0.000000 0.035980 0.000000 0.000000
# 5 0.000000 0.000000 0.000000 0.000000 0.017031 0.000000
# 6 0.000000 0.000000 0.000000 0.000000 0.000000 0.019911
#
#
# Mechanical properties :
#
#
# Convention : Reuss Voigt Hill
#
# Bulk Modulus (GPa) = 63.40038 74.66980 69.03509
# Shear Modulus (GPa) = 35.60161 40.88132 38.24147
#
# Velocity S-wave (km/s) = 4.27133 4.57711 4.42686
# Velocity P-wave (km/s) = 7.53761 8.13623 7.84263
#
# Compressibility (1/GPa) = 0.01577278
#
# Stress axis : x y z
#
# Youngs Moduli (GPa) = 112.79175 55.15594 83.18236
#
# Poissons Ratio (x) = 0.31914 0.22944
# Poissons Ratio (y) = 0.65263 0.25605
# Poissons Ratio (z) = 0.31111 0.16978
#
# Static dielectric constant tensor:
#      x y z
#    x 1.667230 0.000000 0.000000 
#    y 0.000000 1.657720 0.000000 
#    z 0.000000 0.000000 1.684520 
# 
# From -- ./inp_files/44889.got.cif
#   From: 2010.05.17/outbox.cif.g08.bks.cpg/sg74_23_cif.got.tgz:44889.got - 2010.06.03 17:57:02.
