data_PCOD9540725
_publ_section_title
;
Structure prediction by ZEFSAII (Michael W. Deem and Ramdas Pophale) SiO2 
 PCOD9540725
Probable space group: I M M A
;
_chemical_formula_sum "Si O2"
_cell_formula_units_Z 96
_cell_length_a 13.995108
_cell_length_b 14.374909
_cell_length_c 21.975480
_cell_angle_alpha 90.000000
_cell_angle_beta 90.000000
_cell_angle_gamma 90.000000
_cell_volume 4420.991992
_symmetry_space_group_name_H-M "I M M A"
_symmetry_group_IT_number 74
_symmetry_cell_setting 'orthorhombic'
loop_
_space_group_symop_operation_xyz
x,y,z
-x,1/2-y,z
x,-y,-z
-x,1/2+y,-z
-x,-y,-z
x,1/2+y,-z
-x,y,z
x,1/2-y,z
1/2+x,1/2+y,1/2+z
1/2-x,-y,1/2+z
1/2+x,1/2-y,1/2-z
1/2-x,y,1/2-z
1/2-x,1/2-y,1/2-z
1/2+x,y,1/2-z
1/2-x,1/2+y,1/2+z
1/2+x,-y,1/2+z
loop_
_atom_site_type_symbol
_atom_site_label
_atom_site_fract_x
_atom_site_fract_y
_atom_site_fract_z
Si Si1 0.392006 0.136723 0.974471
Si Si2 0.795893 0.636433 0.969504
Si Si3 0.616730 0.142942 0.838539
Si Si4 0.885297 0.359289 0.903420
Si Si5 0.116617 0.536196 0.219431
Si Si6 0.884826 0.855925 0.842202
O O1 0.500000 0.105471 0.985461
O O2 0.394031 0.250000 0.973328
O O3 0.357780 0.110752 0.906524
O O4 0.314632 0.108560 0.024168
O O5 0.801621 0.750000 0.969800
O O6 0.845093 0.608931 0.906961
O O7 0.845531 0.605322 0.032123
O O8 0.500000 0.143750 0.838827
O O9 0.646983 0.250000 0.829600
O O10 0.649330 0.080630 0.782468
O O11 0.860467 0.250000 0.898906
O O12 0.853638 0.408289 0.841262
O O13 0.000000 0.366762 0.906298
O O14 0.142749 0.429121 0.209256
O O15 0.000000 0.541522 0.220469
O O16 0.853062 0.750000 0.831440
O O17 0.000000 0.855362 0.846868
#
# Coordination Sequence:
#
# PCOD9540725 Si02
#       6
#    16  16  16  16  16  16
#     4   8  14  25  42  63  87 117 150 182 220 268
#     4   9  16  26  39  57  86 121 151 180 217 262
#     4   8  13  23  40  62  90 121 148 178 220 269
#     4   9  16  25  38  59  88 119 149 179 212 261
#     4   9  16  25  39  59  85 120 154 180 215 264
#     4   9  17  28  41  60  90 125 155 183 216 259
#
# _framework density 21.714585
#
# number of rings (size 3 to 8) (size 9 to 14) (size 15 to 20)
#    0.000    3.333    0.000    2.000    0.000    4.667 
#    0.000    3.333    0.000    4.000    0.000    2.333 
#    0.000    8.000    0.000    2.667    0.000    1.667 
#
# Total GULP energy -268106.398560 kJ/mol
# GULP energy per Si atom -5585.549970 kJ/mol
# Density = 2.166516 g / cm^3
# Si number density = 21.714585 Si / 1000 Ang^3
#
#
#
# Elastic Constant Matrix: (Units=GPa)
#
#
# Indices 1 2 3 4 5 6 
#
# 1 52.1009 18.3744 26.5368 0.0000 0.0000 0.0000
# 2 18.3744 74.7490 37.9613 0.0000 0.0000 0.0000
# 3 26.5368 37.9613 55.9086 0.0000 0.0000 0.0000
# 4 0.0000 0.0000 0.0000 21.1927 0.0000 0.0000
# 5 0.0000 0.0000 0.0000 0.0000 22.0817 0.0000
# 6 0.0000 0.0000 0.0000 0.0000 0.0000 1.9363
#
#
#
# Elastic Compliance Matrix: (Units=1/GPa)
#
#
# Indices 1 2 3 4 5 6 
#
# 1 0.025315 -0.000184 -0.011891 0.000000 0.000000 0.000000
# 2 -0.000184 0.020420 -0.013778 0.000000 0.000000 0.000000
# 3 -0.011891 -0.013778 0.032885 0.000000 0.000000 0.000000
# 4 0.000000 0.000000 0.000000 0.047186 0.000000 0.000000
# 5 0.000000 0.000000 0.000000 0.000000 0.045286 0.000000
# 6 0.000000 0.000000 0.000000 0.000000 0.000000 0.516450
#
#
# Mechanical properties :
#
#
# Convention : Reuss Voigt Hill
#
# Bulk Modulus (GPa) = 37.15362 38.72264 37.93813
# Shear Modulus (GPa) = 6.68253 15.70118 11.19186
#
# Velocity S-wave (km/s) = 1.75617 2.69191 2.27272
# Velocity P-wave (km/s) = 4.61078 5.24720 4.93925
#
# Compressibility (1/GPa) = 0.02691528
#
# Stress axis : x y z
#
# Youngs Moduli (GPa) = 39.50270 48.97049 30.40885
#
# Poissons Ratio (x) = 0.00902 0.36158
# Poissons Ratio (y) = 0.00727 0.41897
# Poissons Ratio (z) = 0.46971 0.67471
#
# Static dielectric constant tensor:
#      x y z
#    x 1.817090 0.000000 0.000000 
#    y 0.000000 1.819330 0.000000 
#    z 0.000000 0.000000 1.734040 
# 
# From -- ./inp_files/51855.got.cif
#   From: 2010.05.17/outbox.cif.g08.bks.cpg/sg74_26_cif.got.tgz:51855.got - 2010.06.03 17:57:02.
