data_PCOD9540856
_publ_section_title
;
Structure prediction by ZEFSAII (Michael W. Deem and Ramdas Pophale) SiO2 
 PCOD9540856
Probable space group: I M M A
;
_chemical_formula_sum "Si O2"
_cell_formula_units_Z 56
_cell_length_a 24.000000
_cell_length_b 15.000000
_cell_length_c 15.000000
_cell_angle_alpha 90.000000
_cell_angle_beta 90.000000
_cell_angle_gamma 90.000000
_cell_volume 5400.000000
_symmetry_space_group_name_H-M "I M M A"
_symmetry_group_IT_number 74
_symmetry_cell_setting 'orthorhombic'
loop_
_space_group_symop_operation_xyz
x,y,z
-x,1/2-y,z
x,-y,-z
-x,1/2+y,-z
-x,-y,-z
x,1/2+y,-z
-x,y,z
x,1/2-y,z
1/2+x,1/2+y,1/2+z
1/2-x,-y,1/2+z
1/2+x,1/2-y,1/2-z
1/2-x,y,1/2-z
1/2-x,1/2-y,1/2-z
1/2+x,y,1/2-z
1/2-x,1/2+y,1/2+z
1/2+x,-y,1/2+z
loop_
_atom_site_type_symbol
_atom_site_label
_atom_site_fract_x
_atom_site_fract_y
_atom_site_fract_z
Si Si1 0.636131 0.643356 0.200971
Si Si2 0.225913 0.856580 0.434571
Si Si3 0.655800 0.351435 0.101247
Si Si4 0.811429 0.142947 0.213572
Si Si5 0.063440 0.604300 0.473821
Si Si6 0.154830 0.396261 0.008937
Si Si7 0.064530 0.645568 0.130511
O O1 0.643613 0.750000 0.215175
O O2 0.694893 0.610127 0.155768
O O3 0.594086 0.625783 0.118720
O O4 0.605879 0.607897 0.291026
O O5 0.215595 0.750000 0.434614
O O6 0.196250 0.893456 0.525421
O O7 0.291436 0.868920 0.449201
O O8 0.677016 0.250000 0.112116
O O9 0.652167 0.388923 0.201156
O O10 0.596898 0.349780 0.053158
O O11 0.812020 0.250000 0.208488
O O12 0.750000 0.116191 0.250000
O O13 0.830397 0.118650 0.113575
O O14 0.065981 0.500000 0.500000
O O15 0.000000 0.632421 0.467606
O O16 0.148228 0.500000 0.000000
O O17 0.098747 0.358739 0.962793
O O18 0.058775 0.750000 0.152009
O O19 0.000000 0.609882 0.128124
#
# Coordination Sequence:
#
# PCOD9540856 Si02
#       7
#    16  16  16  16  16  16  16
#     4   9  19  36  60  85 109 148 197 243 291 341
#     4   9  17  34  57  84 116 145 185 238 289 345
#     4   9  18  33  56  81 102 142 196 243 285 328
#     4  10  19  38  63  80 106 152 199 237 280 346
#     4  10  20  32  49  79 119 156 187 226 289 355
#     4  12  25  38  55  90 123 157 187 236 304 358
#     4  10  22  42  65  85 110 154 211 256 289 341
#
# _framework density 10.370369999999999
#
# number of rings (size 3 to 8) (size 9 to 14) (size 15 to 20)
#    0.000    2.143    1.429    3.000    0.000    6.000 
#    2.571    2.857    0.000    0.857    0.000    0.000 
#    0.000    0.000    0.000    0.000    0.000    0.000 
#
# Total GULP energy -311874.289283 kJ/mol
# GULP energy per Si atom -5569.183737 kJ/mol
# Density = 1.034677 g / cm^3
# Si number density = 10.370370 Si / 1000 Ang^3
#
#
#
# Elastic Constant Matrix: (Units=GPa)
#
#
# Indices 1 2 3 4 5 6 
#
# 1 100.0536 -4.7063 52.3496 0.0000 0.0000 0.0000
# 2 -4.7063 36.0540 5.2600 0.0000 0.0000 0.0000
# 3 52.3496 5.2600 139.7726 0.0000 0.0000 0.0000
# 4 0.0000 0.0000 0.0000 14.1999 0.0000 0.0000
# 5 0.0000 0.0000 0.0000 0.0000 16.4849 0.0000
# 6 0.0000 0.0000 0.0000 0.0000 0.0000 29.0924
#
#
#
# Elastic Compliance Matrix: (Units=1/GPa)
#
#
# Indices 1 2 3 4 5 6 
#
# 1 0.012626 0.002351 -0.004817 0.000000 0.000000 0.000000
# 2 0.002351 0.028327 -0.001947 0.000000 0.000000 0.000000
# 3 -0.004817 -0.001947 0.009032 0.000000 0.000000 0.000000
# 4 0.000000 0.000000 0.000000 0.070423 0.000000 0.000000
# 5 0.000000 0.000000 0.000000 0.000000 0.060661 0.000000
# 6 0.000000 0.000000 0.000000 0.000000 0.000000 0.034373
#
#
# Mechanical properties :
#
#
# Convention : Reuss Voigt Hill
#
# Bulk Modulus (GPa) = 24.29605 42.40967 33.35286
# Shear Modulus (GPa) = 21.00949 26.82058 23.91504
#
# Velocity S-wave (km/s) = 3.18615 3.59992 3.39934
# Velocity P-wave (km/s) = 5.02743 6.14582 5.61454
#
# Compressibility (1/GPa) = 0.04115895
#
# Stress axis : x y z
#
# Youngs Moduli (GPa) = 79.20379 35.30197 110.71822
#
# Poissons Ratio (x) = -0.08299 0.53335
# Poissons Ratio (y) = -0.18620 0.21551
# Poissons Ratio (z) = 0.38154 0.06872
#
# Static dielectric constant tensor:
#      x y z
#    x 1.584540 0.000000 0.000000 
#    y 0.000000 1.726290 0.000000 
#    z 0.000000 0.000000 1.796340 
# 
# From -- ./inp_files/36560.got.cif
#   From: 2010.05.17/outbox.ucp.g08.bks.cvg/sg74_19_cif.got.tgz:36560.got - 2010.06.11 16:37:44.
