data_PCOD9540847
_publ_section_title
;
Structure prediction by ZEFSAII (Michael W. Deem and Ramdas Pophale) SiO2 
 PCOD9540847
Probable space group: I M M A
;
_chemical_formula_sum "Si O2"
_cell_formula_units_Z 44
_cell_length_a 9.000000
_cell_length_b 18.000000
_cell_length_c 30.000000
_cell_angle_alpha 90.000000
_cell_angle_beta 90.000000
_cell_angle_gamma 90.000000
_cell_volume 4860.000000
_symmetry_space_group_name_H-M "I M M A"
_symmetry_group_IT_number 74
_symmetry_cell_setting 'orthorhombic'
loop_
_space_group_symop_operation_xyz
x,y,z
-x,1/2-y,z
x,-y,-z
-x,1/2+y,-z
-x,-y,-z
x,1/2+y,-z
-x,y,z
x,1/2-y,z
1/2+x,1/2+y,1/2+z
1/2-x,-y,1/2+z
1/2+x,1/2-y,1/2-z
1/2-x,y,1/2-z
1/2-x,1/2-y,1/2-z
1/2+x,y,1/2-z
1/2-x,1/2+y,1/2+z
1/2+x,-y,1/2+z
loop_
_atom_site_type_symbol
_atom_site_label
_atom_site_fract_x
_atom_site_fract_y
_atom_site_fract_z
Si Si1 0.827088 0.076180 0.028083
Si Si2 0.179605 0.750000 0.299615
Si Si3 0.819554 0.453852 0.129201
Si Si4 0.668763 0.661462 0.047756
Si Si5 0.821638 0.378144 0.860347
Si Si6 0.320933 0.836035 0.702658
O O1 0.771892 0.061119 0.078266
O O2 0.000000 0.100666 0.030267
O O3 0.731459 0.132547 0.998978
O O4 0.823875 0.000000 0.000000
O O5 0.250000 0.750000 0.250000
O O6 0.238462 0.821389 0.327486
O O7 0.000000 0.750000 0.297634
O O8 0.779261 0.535709 0.146629
O O9 0.771070 0.390259 0.163242
O O10 0.000000 0.453387 0.127574
O O11 0.500000 0.633871 0.055159
O O12 0.665475 0.750000 0.047696
O O13 0.773464 0.637822 0.088723
O O14 0.000000 0.369173 0.855627
O O15 0.500000 0.840804 0.706074
O O16 0.282563 0.750000 0.693324
O O17 0.250000 0.856568 0.750000
#
# Coordination Sequence:
#
# PCOD9540847 Si02
#       6
#    16   8  16  16  16  16
#     4  10  19  35  57  83 112 147 192 240 285 340
#     4  12  26  44  62  88 120 154 200 252 303 360
#     4   9  19  35  58  88 117 146 190 243 289 344
#     4  11  23  37  54  81 117 155 196 240 286 348
#     4  11  21  38  62  85 113 153 196 243 296 349
#     4   9  18  35  58  82 111 146 182 227 285 342
#
# _framework density 9.0534979999999994
#
# number of rings (size 3 to 8) (size 9 to 14) (size 15 to 20)
#    0.000    1.818    2.727    1.909    0.000    2.909 
#    0.000    6.364    0.000    2.182    0.000    0.000 
#    0.000    0.000    0.000    0.000    0.000    0.000 
#
# Total GULP energy -245561.235279 kJ/mol
# GULP energy per Si atom -5580.937165 kJ/mol
# Density = 0.903289 g / cm^3
# Si number density = 9.053498 Si / 1000 Ang^3
#
#
#
# Elastic Constant Matrix: (Units=GPa)
#
#
# Indices 1 2 3 4 5 6 
#
# 1 65.9593 29.6698 34.8026 0.0000 0.0000 0.0000
# 2 29.6698 93.4125 81.4103 0.0000 0.0000 0.0000
# 3 34.8026 81.4103 158.9581 0.0000 0.0000 0.0000
# 4 0.0000 0.0000 0.0000 35.4823 0.0000 0.0000
# 5 0.0000 0.0000 0.0000 0.0000 19.3814 0.0000
# 6 0.0000 0.0000 0.0000 0.0000 0.0000 14.2820
#
#
#
# Elastic Compliance Matrix: (Units=1/GPa)
#
#
# Indices 1 2 3 4 5 6 
#
# 1 0.017977 -0.004118 -0.001827 0.000000 0.000000 0.000000
# 2 -0.004118 0.020279 -0.009484 0.000000 0.000000 0.000000
# 3 -0.001827 -0.009484 0.011548 0.000000 0.000000 0.000000
# 4 0.000000 0.000000 0.000000 0.028183 0.000000 0.000000
# 5 0.000000 0.000000 0.000000 0.000000 0.051596 0.000000
# 6 0.000000 0.000000 0.000000 0.000000 0.000000 0.070018
#
#
# Mechanical properties :
#
#
# Convention : Reuss Voigt Hill
#
# Bulk Modulus (GPa) = 52.78071 67.78836 60.28454
# Shear Modulus (GPa) = 21.11718 25.32564 23.22141
#
# Velocity S-wave (km/s) = 3.41874 3.74393 3.58502
# Velocity P-wave (km/s) = 6.69300 7.49722 7.10650
#
# Compressibility (1/GPa) = 0.01894631
#
# Stress axis : x y z
#
# Youngs Moduli (GPa) = 55.62635 49.31309 86.59277
#
# Poissons Ratio (x) = 0.20305 0.15822
# Poissons Ratio (y) = 0.22904 0.82126
# Poissons Ratio (z) = 0.10164 0.46769
#
# Static dielectric constant tensor:
#      x y z
#    x 1.621200 0.000000 0.000000 
#    y 0.000000 1.632890 0.000000 
#    z 0.000000 0.000000 1.597430 
# 
# From -- ./inp_files/70225.got.cif
#   From: 2010.05.17/outbox.ucp.g08.bks.cvg/sg74_36_cif.got.tgz:70225.got - 2010.06.11 16:37:44.
