data_PCOD9540863
_publ_section_title
;
Structure prediction by ZEFSAII (Michael W. Deem and Ramdas Pophale) SiO2 
 PCOD9540863
Probable space group: I M M A
;
_chemical_formula_sum "Si O2"
_cell_formula_units_Z 56
_cell_length_a 30.000000
_cell_length_b 15.000000
_cell_length_c 12.000000
_cell_angle_alpha 90.000000
_cell_angle_beta 90.000000
_cell_angle_gamma 90.000000
_cell_volume 5400.000000
_symmetry_space_group_name_H-M "I M M A"
_symmetry_group_IT_number 74
_symmetry_cell_setting 'orthorhombic'
loop_
_space_group_symop_operation_xyz
x,y,z
-x,1/2-y,z
x,-y,-z
-x,1/2+y,-z
-x,-y,-z
x,1/2+y,-z
-x,y,z
x,1/2-y,z
1/2+x,1/2+y,1/2+z
1/2-x,-y,1/2+z
1/2+x,1/2-y,1/2-z
1/2-x,y,1/2-z
1/2-x,1/2-y,1/2-z
1/2+x,y,1/2-z
1/2-x,1/2+y,1/2+z
1/2+x,-y,1/2+z
loop_
_atom_site_type_symbol
_atom_site_label
_atom_site_fract_x
_atom_site_fract_y
_atom_site_fract_z
Si Si1 0.689357 0.450065 0.369848
Si Si2 0.401893 0.855273 0.564130
Si Si3 0.830220 0.645256 0.417595
Si Si4 0.354033 0.049776 0.146715
Si Si5 0.051508 0.151447 0.829792
Si Si6 0.449089 0.953751 0.757171
Si Si7 0.726040 0.855254 0.434292
O O1 0.641797 0.416400 0.420429
O O2 0.681136 0.427527 0.242623
O O3 0.723860 0.387858 0.436740
O O4 0.701192 0.556168 0.382203
O O5 0.394599 0.750000 0.594126
O O6 0.416984 0.856842 0.436476
O O7 0.439408 0.900983 0.641820
O O8 0.844389 0.750000 0.402074
O O9 0.839104 0.607917 0.541710
O O10 0.851560 0.559355 0.355412
O O11 0.777101 0.644109 0.394348
O O12 0.405900 0.072640 0.170136
O O13 0.059801 0.250000 0.777097
O O14 0.000000 0.152949 0.869052
O O15 0.054941 0.060701 0.760219
O O16 0.500000 0.935170 0.795054
O O17 0.709976 0.750000 0.421610
#
# Coordination Sequence:
#
# PCOD9540863 Si02
#       7
#    16  16  16  16  16  16  16
#     4  10  21  35  56  87 123 154 192 229 283 344
#     4  10  20  32  50  78 117 162 198 229 272 334
#     4  10  23  44  63  83 110 146 197 253 304 351
#     4  10  22  39  62  85 112 154 192 241 297 350
#     4   9  18  32  50  75 111 155 196 232 279 341
#     4  10  21  35  55  84 116 149 192 244 293 342
#     4  10  22  38  59  88 123 154 187 234 286 348
#
# _framework density 10.370369999999999
#
# number of rings (size 3 to 8) (size 9 to 14) (size 15 to 20)
#    0.000    2.143    0.000    3.000    8.000    8.286 
#    0.000    4.286    0.000    0.857    0.000    0.000 
#    0.000    0.000    0.000    0.000    0.000    0.000 
#
# Total GULP energy -311822.699867 kJ/mol
# GULP energy per Si atom -5568.262498 kJ/mol
# Density = 1.034677 g / cm^3
# Si number density = 10.370370 Si / 1000 Ang^3
#
#
#
# Elastic Constant Matrix: (Units=GPa)
#
#
# Indices 1 2 3 4 5 6 
#
# 1 79.4116 10.4285 7.1861 0.0000 0.0000 0.0000
# 2 10.4285 88.4560 -23.5315 0.0000 0.0000 0.0000
# 3 7.1861 -23.5315 19.8521 0.0000 0.0000 0.0000
# 4 0.0000 0.0000 0.0000 11.3745 0.0000 0.0000
# 5 0.0000 0.0000 0.0000 0.0000 30.1667 0.0000
# 6 0.0000 0.0000 0.0000 0.0000 0.0000 35.5586
#
#
#
# Elastic Compliance Matrix: (Units=1/GPa)
#
#
# Indices 1 2 3 4 5 6 
#
# 1 0.014108 -0.004413 -0.010338 0.000000 0.000000 0.000000
# 2 -0.004413 0.017892 0.022806 0.000000 0.000000 0.000000
# 3 -0.010338 0.022806 0.081148 0.000000 0.000000 0.000000
# 4 0.000000 0.000000 0.000000 0.087916 0.000000 0.000000
# 5 0.000000 0.000000 0.000000 0.000000 0.033149 0.000000
# 6 0.000000 0.000000 0.000000 0.000000 0.000000 0.028123
#
#
# Mechanical properties :
#
#
# Convention : Reuss Voigt Hill
#
# Bulk Modulus (GPa) = 7.73654 19.54288 13.63971
# Shear Modulus (GPa) = 17.28237 28.32905 22.80571
#
# Velocity S-wave (km/s) = 2.88975 3.69977 3.31956
# Velocity P-wave (km/s) = 3.85648 5.26251 4.61337
#
# Compressibility (1/GPa) = 0.12925671
#
# Stress axis : x y z
#
# Youngs Moduli (GPa) = 70.88316 55.88979 12.32322
#
# Poissons Ratio (x) = 0.24667 0.12740
# Poissons Ratio (y) = 0.31284 -0.28104
# Poissons Ratio (z) = 0.73280 -1.27463
#
# Static dielectric constant tensor:
#      x y z
#    x 1.770740 0.000000 0.000000 
#    y 0.000000 1.740760 0.000000 
#    z 0.000000 0.000000 1.811660 
# 
# From -- ./inp_files/27240.got.cif
#   From: 2010.05.17/outbox.ucp.g08.bks.cvg/sg74_14_cif.got.tgz:27240.got - 2010.06.11 16:37:44.
