data_PCOD9540021
_publ_section_title
;
Structure prediction by ZEFSAII (Michael W. Deem and Ramdas Pophale) SiO2 
 PCOD9540021
Probable space group: I M M A
;
_chemical_formula_sum "Si O2"
_cell_formula_units_Z 40
_cell_length_a 9.815243
_cell_length_b 16.376161
_cell_length_c 11.905099
_cell_angle_alpha 90.000000
_cell_angle_beta 90.000000
_cell_angle_gamma 90.000000
_cell_volume 1913.577988
_symmetry_space_group_name_H-M "I M M A"
_symmetry_group_IT_number 74
_symmetry_cell_setting 'orthorhombic'
loop_
_space_group_symop_operation_xyz
x,y,z
-x,1/2-y,z
x,-y,-z
-x,1/2+y,-z
-x,-y,-z
x,1/2+y,-z
-x,y,z
x,1/2-y,z
1/2+x,1/2+y,1/2+z
1/2-x,-y,1/2+z
1/2+x,1/2-y,1/2-z
1/2-x,y,1/2-z
1/2-x,1/2-y,1/2-z
1/2+x,y,1/2-z
1/2-x,1/2+y,1/2+z
1/2+x,-y,1/2+z
loop_
_atom_site_type_symbol
_atom_site_label
_atom_site_fract_x
_atom_site_fract_y
_atom_site_fract_z
Si Si1 0.250000 0.541364 0.250000
Si Si2 0.655195 0.619004 0.650295
Si Si3 0.848666 0.154735 0.555764
O O1 0.340627 0.478012 0.322052
O O2 0.169865 0.597915 0.336410
O O3 0.500000 0.647708 0.651069
O O4 0.750000 0.654501 0.750000
O O5 0.732924 0.635531 0.534862
O O6 0.839957 0.250000 0.586997
O O7 0.000000 0.139919 0.506113
#
# Coordination Sequence:
#
# PCOD9540021 Si02
#       3
#     8  16  16
#     4  10  23  40  69  90 124 162 214 256 303 370
#     4  10  23  41  66  94 125 164 211 259 310 370
#     4  11  24  42  65  94 129 166 206 257 315 371
#
# _framework density 20.903251000000001
#
# number of rings (size 3 to 8) (size 9 to 14) (size 15 to 20)
#    1.200    0.400    0.000    4.200    0.000    8.000 
#    0.000    0.000    0.000    0.000    0.000    0.000 
#    0.000    0.000    0.000    0.000    0.000    0.000 
#
# Total GULP energy -111618.713974 kJ/mol
# GULP energy per Si atom -5580.935699 kJ/mol
# Density = 2.085567 g / cm^3
# Si number density = 20.903251 Si / 1000 Ang^3
#
#
#
# Elastic Constant Matrix: (Units=GPa)
#
#
# Indices 1 2 3 4 5 6 
#
# 1 180.0422 44.1668 33.4594 0.0004 0.0000 -0.0001
# 2 44.1668 114.2529 43.3029 0.0002 0.0000 0.0001
# 3 33.4594 43.3029 47.6813 0.0012 0.0000 -0.0002
# 4 0.0004 0.0002 0.0012 180.3180 -0.0001 -0.0008
# 5 0.0000 0.0000 0.0000 -0.0001 31.5477 0.0000
# 6 -0.0001 0.0001 -0.0002 -0.0008 0.0000 222.9852
#
#
#
# Elastic Compliance Matrix: (Units=1/GPa)
#
#
# Indices 1 2 3 4 5 6 
#
# 1 0.006492 -0.001194 -0.003471 0.000000 0.000000 0.000000
# 2 -0.001194 0.013566 -0.011482 0.000000 0.000000 0.000000
# 3 -0.003471 -0.011482 0.033837 0.000000 0.000000 0.000000
# 4 0.000000 0.000000 0.000000 0.005546 0.000000 0.000000
# 5 0.000000 0.000000 0.000000 0.000000 0.031698 0.000000
# 6 0.000000 0.000000 0.000000 0.000000 0.000000 0.004485
#
#
# Mechanical properties :
#
#
# Convention : Reuss Voigt Hill
#
# Bulk Modulus (GPa) = 46.29807 64.87049 55.58428
# Shear Modulus (GPa) = 37.00440 101.70667 69.35553
#
# Velocity S-wave (km/s) = 4.21202 6.98295 5.76640
# Velocity P-wave (km/s) = 6.77139 9.80390 8.42520
#
# Compressibility (1/GPa) = 0.02159917
#
# Stress axis : x y z
#
# Youngs Moduli (GPa) = 154.02840 73.71350 29.55370
#
# Poissons Ratio (x) = 0.08801 0.10260
# Poissons Ratio (y) = 0.18391 0.33935
# Poissons Ratio (z) = 0.53471 0.84641
#
# Static dielectric constant tensor:
#      x y z
#    x 1.745230 0.000000 0.000000 
#    y 0.000000 1.755370 0.000000 
#    z 0.000000 0.000000 1.708210 
# 
# From -- ./inp_files/16808.got.cif
#   From: 2010.05.17/outbox.cif.g08.bks.cpg/sg74_9_cif.got.tgz:16808.got - 2010.06.03 17:57:02.
