data_PCOD9540232
_publ_section_title
;
Structure prediction by ZEFSAII (Michael W. Deem and Ramdas Pophale) SiO2 
 PCOD9540232
Probable space group: I M M A
;
_chemical_formula_sum "Si O2"
_cell_formula_units_Z 116
_cell_length_a 17.572879
_cell_length_b 18.405634
_cell_length_c 18.409350
_cell_angle_alpha 90.000000
_cell_angle_beta 90.000000
_cell_angle_gamma 90.000000
_cell_volume 5954.319781
_symmetry_space_group_name_H-M "I M M A"
_symmetry_group_IT_number 74
_symmetry_cell_setting 'orthorhombic'
loop_
_space_group_symop_operation_xyz
x,y,z
-x,1/2-y,z
x,-y,-z
-x,1/2+y,-z
-x,-y,-z
x,1/2+y,-z
-x,y,z
x,1/2-y,z
1/2+x,1/2+y,1/2+z
1/2-x,-y,1/2+z
1/2+x,1/2-y,1/2-z
1/2-x,y,1/2-z
1/2-x,1/2-y,1/2-z
1/2+x,y,1/2-z
1/2-x,1/2+y,1/2+z
1/2+x,-y,1/2+z
loop_
_atom_site_type_symbol
_atom_site_label
_atom_site_fract_x
_atom_site_fract_y
_atom_site_fract_z
Si Si1 0.275245 0.664013 0.168671
Si Si2 0.169950 0.479955 0.081602
Si Si3 0.613784 0.625993 0.374536
Si Si4 0.087800 0.586112 0.288427
Si Si5 0.000000 0.750000 0.076288
Si Si6 0.694702 0.952954 0.814250
Si Si7 0.910185 0.666667 0.872715
Si Si8 0.586446 0.834239 0.802970
O O1 0.282410 0.750000 0.171416
O O2 0.250000 0.637759 0.250000
O O3 0.203421 0.644309 0.119605
O O4 0.357913 0.630094 0.156442
O O5 0.108393 0.541173 0.105050
O O6 0.246800 0.486370 0.128700
O O7 0.136420 0.399084 0.092155
O O8 0.188451 0.500000 0.000000
O O9 0.590528 0.627998 0.289133
O O10 0.565545 0.685161 0.417202
O O11 0.132598 0.509698 0.283491
O O12 0.000000 0.577286 0.309006
O O13 0.750000 0.928350 0.750000
O O14 0.647369 0.884672 0.841493
O O15 0.887087 0.750000 0.891320
O O16 0.904496 0.659161 0.784865
O O17 0.000000 0.660766 0.891661
O O18 0.500000 0.856044 0.819798
O O19 0.596192 0.750000 0.820722
#
# Coordination Sequence:
#
# PCOD9540232 Si02
#       8
#    16  16  16  16   4  16  16  16
#     4   9  17  30  50  77 117 149 183 242 296 334
#     4  12  26  42  59  83 122 164 210 252 305 362
#     4  11  21  38  55  87 121 158 198 247 293 351
#     4  11  20  31  57  87 117 150 197 247 308 355
#     4  12  24  36  64  92 124 168 216 244 286 368
#     4  12  20  36  60  87 118 157 200 250 307 368
#     4   9  19  38  61  91 125 159 194 245 306 371
#     4   9  18  33  60  96 129 149 186 251 319 375
#
# _framework density 19.481655
#
# number of rings (size 3 to 8) (size 9 to 14) (size 15 to 20)
#    0.000    1.517    5.517    1.655    1.931    2.483 
#    1.241    0.000    0.000    1.655    0.000    0.000 
#    0.000    0.000    0.000    0.000    0.000    0.000 
#
# Total GULP energy -323019.123661 kJ/mol
# GULP energy per Si atom -5569.295236 kJ/mol
# Density = 1.943731 g / cm^3
# Si number density = 19.481655 Si / 1000 Ang^3
#
#
#
# Elastic Constant Matrix: (Units=GPa)
#
#
# Indices 1 2 3 4 5 6 
#
# 1 128.3172 56.4616 -1.7941 0.0000 0.0000 0.0000
# 2 56.4616 103.1456 -4.3050 0.0000 0.0000 0.0000
# 3 -1.7941 -4.3050 15.0508 0.0000 0.0000 0.0000
# 4 0.0000 0.0000 0.0000 6.5317 0.0000 0.0000
# 5 0.0000 0.0000 0.0000 0.0000 4.1847 0.0000
# 6 0.0000 0.0000 0.0000 0.0000 0.0000 44.9035
#
#
#
# Elastic Compliance Matrix: (Units=1/GPa)
#
#
# Indices 1 2 3 4 5 6 
#
# 1 0.010268 -0.005637 -0.000388 0.000000 0.000000 0.000000
# 2 -0.005637 0.012907 0.003020 0.000000 0.000000 0.000000
# 3 -0.000388 0.003020 0.067259 0.000000 0.000000 0.000000
# 4 0.000000 0.000000 0.000000 0.153100 0.000000 0.000000
# 5 0.000000 0.000000 0.000000 0.000000 0.238966 0.000000
# 6 0.000000 0.000000 0.000000 0.000000 0.000000 0.022270
#
#
# Mechanical properties :
#
#
# Convention : Reuss Voigt Hill
#
# Bulk Modulus (GPa) = 11.84513 38.58210 25.21361
# Shear Modulus (GPa) = 9.27778 24.20071 16.73924
#
# Velocity S-wave (km/s) = 2.18464 3.52835 2.93444
# Velocity P-wave (km/s) = 3.52943 6.03708 4.94486
#
# Compressibility (1/GPa) = 0.08442289
#
# Stress axis : x y z
#
# Youngs Moduli (GPa) = 97.38902 77.47907 14.86786
#
# Poissons Ratio (x) = 0.43674 0.00577
# Poissons Ratio (y) = 0.54898 -0.04490
# Poissons Ratio (z) = 0.03782 -0.23397
#
# Static dielectric constant tensor:
#      x y z
#    x 1.695420 0.000000 0.000000 
#    y 0.000000 1.723410 0.000000 
#    z 0.000000 0.000000 1.707810 
# 
# From -- ./inp_files/44265.got.cif
#   From: 2010.05.17/outbox.cif.g08.bks.cpg/sg74_23_cif.got.tgz:44265.got - 2010.06.03 17:57:02.
