data_PCOD9540985
_publ_section_title
;
Structure prediction by ZEFSAII (Michael W. Deem and Ramdas Pophale) SiO2 
 PCOD9540985
Probable space group: I M M A
;
_chemical_formula_sum "Si O2"
_cell_formula_units_Z 36
_cell_length_a 9.000000
_cell_length_b 18.000000
_cell_length_c 24.000000
_cell_angle_alpha 90.000000
_cell_angle_beta 90.000000
_cell_angle_gamma 90.000000
_cell_volume 3888.000000
_symmetry_space_group_name_H-M "I M M A"
_symmetry_group_IT_number 74
_symmetry_cell_setting 'orthorhombic'
loop_
_space_group_symop_operation_xyz
x,y,z
-x,1/2-y,z
x,-y,-z
-x,1/2+y,-z
-x,-y,-z
x,1/2+y,-z
-x,y,z
x,1/2-y,z
1/2+x,1/2+y,1/2+z
1/2-x,-y,1/2+z
1/2+x,1/2-y,1/2-z
1/2-x,y,1/2-z
1/2-x,1/2-y,1/2-z
1/2+x,y,1/2-z
1/2-x,1/2+y,1/2+z
1/2+x,-y,1/2+z
loop_
_atom_site_type_symbol
_atom_site_label
_atom_site_fract_x
_atom_site_fract_y
_atom_site_fract_z
Si Si1 0.177009 0.837068 0.504562
Si Si2 0.679342 0.470459 0.689018
Si Si3 0.678127 0.334847 0.611360
Si Si4 0.320205 0.391287 0.125600
Si Si5 0.319865 0.750000 0.688339
O O1 0.214953 0.750000 0.514933
O O2 0.256406 0.860286 0.447847
O O3 0.213221 0.882826 0.559901
O O4 0.000000 0.841034 0.496185
O O5 0.500000 0.478854 0.691454
O O6 0.750000 0.475005 0.750000
O O7 0.716261 0.391861 0.660073
O O8 0.751690 0.534803 0.651611
O O9 0.500000 0.333670 0.606801
O O10 0.729718 0.250000 0.621408
O O11 0.500000 0.388248 0.132592
O O12 0.243745 0.322038 0.156699
O O13 0.500000 0.750000 0.689993
O O14 0.250000 0.750000 0.750000
#
# Coordination Sequence:
#
# PCOD9540985 Si02
#       5
#    16  16  16  16   8
#     4   9  18  35  59  87 118 151 192 237 284 344
#     4  11  24  41  59  84 117 153 198 246 296 351
#     4   9  20  39  62  87 116 151 192 242 297 354
#     4  11  22  39  60  85 120 157 196 240 289 344
#     4  12  24  38  58  84 116 158 203 242 287 340
#
# _framework density 9.2592590000000001
#
# number of rings (size 3 to 8) (size 9 to 14) (size 15 to 20)
#    0.000    1.778    1.111    3.000    0.000    4.889 
#    0.000    4.444    0.000    0.000    0.000    0.000 
#    0.000    0.000    0.000    0.000    0.000    0.000 
#
# Total GULP energy -201080.629971 kJ/mol
# GULP energy per Si atom -5585.573055 kJ/mol
# Density = 0.923818 g / cm^3
# Si number density = 9.259259 Si / 1000 Ang^3
#
#
#
# Elastic Constant Matrix: (Units=GPa)
#
#
# Indices 1 2 3 4 5 6 
#
# 1 63.0904 30.1727 18.5956 0.0000 0.0000 0.0000
# 2 30.1727 85.6524 36.4789 0.0000 0.0000 0.0000
# 3 18.5956 36.4789 57.7542 0.0000 0.0000 0.0000
# 4 0.0000 0.0000 0.0000 65.2321 0.0000 0.0000
# 5 0.0000 0.0000 0.0000 0.0000 34.6090 0.0000
# 6 0.0000 0.0000 0.0000 0.0000 0.0000 22.7643
#
#
#
# Elastic Compliance Matrix: (Units=1/GPa)
#
#
# Indices 1 2 3 4 5 6 
#
# 1 0.019350 -0.005695 -0.002633 0.000000 0.000000 0.000000
# 2 -0.005695 0.017648 -0.009313 0.000000 0.000000 0.000000
# 3 -0.002633 -0.009313 0.024045 0.000000 0.000000 0.000000
# 4 0.000000 0.000000 0.000000 0.015330 0.000000 0.000000
# 5 0.000000 0.000000 0.000000 0.000000 0.028894 0.000000
# 6 0.000000 0.000000 0.000000 0.000000 0.000000 0.043928
#
#
# Mechanical properties :
#
#
# Convention : Reuss Voigt Hill
#
# Bulk Modulus (GPa) = 38.81957 41.88792 40.35374
# Shear Modulus (GPa) = 25.89814 32.60441 29.25127
#
# Velocity S-wave (km/s) = 3.74371 4.20055 3.97869
# Velocity P-wave (km/s) = 6.30041 6.79667 6.55324
#
# Compressibility (1/GPa) = 0.02576020
#
# Stress axis : x y z
#
# Youngs Moduli (GPa) = 51.67970 56.66490 41.58884
#
# Poissons Ratio (x) = 0.32270 0.10951
# Poissons Ratio (y) = 0.29431 0.38732
# Poissons Ratio (z) = 0.13608 0.52772
#
# Static dielectric constant tensor:
#      x y z
#    x 1.616520 0.000000 0.000000 
#    y 0.000000 1.645120 0.000000 
#    z 0.000000 0.000000 1.613200 
# 
# From -- ./inp_files/56669.got.cif
#   From: 2010.05.17/outbox.ucp.g08.bks.cvg/sg74_29_cif.got.tgz:56669.got - 2010.06.11 16:37:44.
