data_PCOD9540787
_publ_section_title
;
Structure prediction by ZEFSAII (Michael W. Deem and Ramdas Pophale) SiO2 
 PCOD9540787
Probable space group: I M M A
;
_chemical_formula_sum "Si O2"
_cell_formula_units_Z 36
_cell_length_a 15.000000
_cell_length_b 30.000000
_cell_length_c 9.000000
_cell_angle_alpha 90.000000
_cell_angle_beta 90.000000
_cell_angle_gamma 90.000000
_cell_volume 4050.000000
_symmetry_space_group_name_H-M "I M M A"
_symmetry_group_IT_number 74
_symmetry_cell_setting 'orthorhombic'
loop_
_space_group_symop_operation_xyz
x,y,z
-x,1/2-y,z
x,-y,-z
-x,1/2+y,-z
-x,-y,-z
x,1/2+y,-z
-x,y,z
x,1/2-y,z
1/2+x,1/2+y,1/2+z
1/2-x,-y,1/2+z
1/2+x,1/2-y,1/2-z
1/2-x,y,1/2-z
1/2-x,1/2-y,1/2-z
1/2+x,y,1/2-z
1/2-x,1/2+y,1/2+z
1/2+x,-y,1/2+z
loop_
_atom_site_type_symbol
_atom_site_label
_atom_site_fract_x
_atom_site_fract_y
_atom_site_fract_z
Si Si1 0.000000 0.623946 0.480901
Si Si2 0.708228 0.622314 0.913837
Si Si3 0.500000 0.172644 0.678673
Si Si4 0.302480 0.456563 0.598945
Si Si5 0.000000 0.572633 0.186467
Si Si6 0.799717 0.301612 0.903192
O O1 0.097945 0.623624 0.565563
O O2 0.000000 0.664979 0.359343
O O3 0.000000 0.581968 0.365120
O O4 0.750000 0.614567 0.750000
O O5 0.751941 0.584265 0.018140
O O6 0.753894 0.667702 0.973470
O O7 0.500000 0.122267 0.618526
O O8 0.406298 0.192964 0.624416
O O9 0.295610 0.500000 0.500000
O O10 0.250000 0.464024 0.750000
O O11 0.406876 0.448303 0.635684
O O12 0.781717 0.250000 0.933788
O O13 0.750000 0.314421 0.750000
#
# Coordination Sequence:
#
# PCOD9540787 Si02
#       6
#     8  16   8  16   8  16
#     4  10  20  40  67  92 120 175 204 262 311 376
#     4  12  24  42  64  91 133 170 208 258 318 374
#     4  10  17  36  67  91 123 164 211 264 307 368
#     4  12  23  42  65  97 127 166 211 262 312 374
#     4  10  19  38  72  87 130 159 218 258 311 366
#     4  11  21  37  64  95 125 165 214 260 310 371
#
# _framework density 8.8888890000000007
#
# number of rings (size 3 to 8) (size 9 to 14) (size 15 to 20)
#    0.667    0.222    6.667    2.000    0.000    2.222 
#    0.000    5.000    0.000    0.000    0.000    0.000 
#    0.000    0.000    0.000    0.000    0.000    0.000 
#
# Total GULP energy -200524.851795 kJ/mol
# GULP energy per Si atom -5570.134772 kJ/mol
# Density = 0.886866 g / cm^3
# Si number density = 8.888889 Si / 1000 Ang^3
#
#
#
# Elastic Constant Matrix: (Units=GPa)
#
#
# Indices 1 2 3 4 5 6 
#
# 1 180.6963 15.5713 58.6430 0.0003 -0.0004 -0.0005
# 2 15.5713 43.7009 40.8835 -0.0013 0.0004 0.0011
# 3 58.6430 40.8835 112.4501 -0.0059 0.0040 0.0027
# 4 0.0003 -0.0013 -0.0059 29.6295 0.0008 0.0010
# 5 -0.0004 0.0004 0.0040 0.0008 30.3442 0.0001
# 6 -0.0005 0.0011 0.0027 0.0010 0.0001 20.9421
#
#
#
# Elastic Compliance Matrix: (Units=1/GPa)
#
#
# Indices 1 2 3 4 5 6 
#
# 1 0.006713 0.001338 -0.003987 -0.000001 0.000001 0.000001
# 2 0.001338 0.034945 -0.013403 -0.000001 0.000001 0.000000
# 3 -0.003987 -0.013403 0.015845 0.000003 -0.000002 -0.000001
# 4 -0.000001 -0.000001 0.000003 0.033750 -0.000001 -0.000002
# 5 0.000001 0.000001 -0.000002 -0.000001 0.032955 0.000000
# 6 0.000001 0.000000 -0.000001 -0.000002 0.000000 0.047751
#
#
# Mechanical properties :
#
#
# Convention : Reuss Voigt Hill
#
# Bulk Modulus (GPa) = 39.37147 63.00479 51.18813
# Shear Modulus (GPa) = 23.52621 30.96645 27.24633
#
# Velocity S-wave (km/s) = 3.64173 4.17809 3.91910
# Velocity P-wave (km/s) = 6.31486 7.66762 7.02388
#
# Compressibility (1/GPa) = 0.02539910
#
# Stress axis : x y z
#
# Youngs Moduli (GPa) = 148.96746 28.61661 63.11079
#
# Poissons Ratio (x) = -0.03830 0.25165
# Poissons Ratio (y) = -0.19938 0.84587
# Poissons Ratio (z) = 0.59399 0.38354
#
# Static dielectric constant tensor:
#      x y z
#    x 1.624170 0.000000 0.000000 
#    y 0.000000 1.616460 0.000000 
#    z 0.000000 0.000000 1.630110 
# 
# From -- ./inp_files/9358.got.cif
#   From: 2010.05.17/outbox.ucp.g08.bks.cvg/sg74_5_cif.got.tgz:9358.got - 2010.06.11 16:37:44.
