data_PCOD9540908
_publ_section_title
;
Structure prediction by ZEFSAII (Michael W. Deem and Ramdas Pophale) SiO2 
 PCOD9540908
Probable space group: I M M A
;
_chemical_formula_sum "Si O2"
_cell_formula_units_Z 56
_cell_length_a 15.000000
_cell_length_b 30.000000
_cell_length_c 12.000000
_cell_angle_alpha 90.000000
_cell_angle_beta 90.000000
_cell_angle_gamma 90.000000
_cell_volume 5400.000000
_symmetry_space_group_name_H-M "I M M A"
_symmetry_group_IT_number 74
_symmetry_cell_setting 'orthorhombic'
loop_
_space_group_symop_operation_xyz
x,y,z
-x,1/2-y,z
x,-y,-z
-x,1/2+y,-z
-x,-y,-z
x,1/2+y,-z
-x,y,z
x,1/2-y,z
1/2+x,1/2+y,1/2+z
1/2-x,-y,1/2+z
1/2+x,1/2-y,1/2-z
1/2-x,y,1/2-z
1/2-x,1/2-y,1/2-z
1/2+x,y,1/2-z
1/2-x,1/2+y,1/2+z
1/2+x,-y,1/2+z
loop_
_atom_site_type_symbol
_atom_site_label
_atom_site_fract_x
_atom_site_fract_y
_atom_site_fract_z
Si Si1 0.105099 0.852488 0.541007
Si Si2 0.100931 0.052408 0.058054
Si Si3 0.898129 0.860858 0.794152
Si Si4 0.173528 0.530653 0.168092
Si Si5 0.718914 0.301766 0.444610
Si Si6 0.899507 0.888934 0.311090
Si Si7 0.653554 0.300633 0.690571
O O1 0.113309 0.872532 0.664410
O O2 0.176913 0.813051 0.540622
O O3 0.133513 0.883314 0.437497
O O4 0.000000 0.840567 0.523961
O O5 0.111743 0.096452 0.128605
O O6 0.000000 0.053236 0.008965
O O7 0.109156 0.011028 0.142826
O O8 0.175293 0.048074 0.960941
O O9 0.826982 0.826718 0.842521
O O10 0.000000 0.843471 0.805822
O O11 0.250000 0.511790 0.250000
O O12 0.147411 0.574533 0.236516
O O13 0.708451 0.250000 0.427194
O O14 0.669045 0.312822 0.561241
O O15 0.895870 0.840473 0.253233
O O16 0.000000 0.904500 0.319505
O O17 0.616512 0.250000 0.698081
O O18 0.750000 0.299294 0.750000
#
# Coordination Sequence:
#
# PCOD9540908 Si02
#       7
#    16  16  16  16  16  16  16
#     4  10  23  40  59  87 124 169 214 255 311 381
#     4  10  22  45  69  90 124 170 212 254 315 390
#     4  10  23  43  65  89 121 165 212 262 317 379
#     4  11  23  38  63  98 125 153 204 260 313 370
#     4  11  23  39  63  91 122 164 214 269 323 374
#     4  11  22  38  61  89 124 164 206 256 315 377
#     4  10  20  36  57  83 118 154 198 253 307 367
#
# _framework density 10.370369999999999
#
# number of rings (size 3 to 8) (size 9 to 14) (size 15 to 20)
#    0.000    1.571    1.429    3.429    2.000    4.857 
#    2.571    4.286    0.000    3.429    0.000    0.000 
#    0.000    0.000    0.000    0.000    0.000    0.000 
#
# Total GULP energy -312004.328801 kJ/mol
# GULP energy per Si atom -5571.505871 kJ/mol
# Density = 1.034677 g / cm^3
# Si number density = 10.370370 Si / 1000 Ang^3
#
#
#
# Elastic Constant Matrix: (Units=GPa)
#
#
# Indices 1 2 3 4 5 6 
#
# 1 50.1198 31.7248 47.6275 0.0002 0.0000 0.0000
# 2 31.7248 29.0497 54.5443 -0.0004 0.0000 0.0000
# 3 47.6275 54.5443 143.0580 -0.0018 0.0001 0.0000
# 4 0.0002 -0.0004 -0.0018 10.1854 0.0002 0.0001
# 5 0.0000 0.0000 0.0001 0.0002 31.4837 0.0001
# 6 0.0000 0.0000 0.0000 0.0001 0.0001 23.1041
#
#
#
# Elastic Compliance Matrix: (Units=1/GPa)
#
#
# Indices 1 2 3 4 5 6 
#
# 1 0.083569 -0.137359 0.024549 -0.000003 0.000000 0.000000
# 2 -0.137359 0.346935 -0.086547 0.000001 0.000000 0.000001
# 3 0.024549 -0.086547 0.031815 0.000002 0.000000 0.000000
# 4 -0.000003 0.000001 0.000002 0.098180 -0.000001 0.000000
# 5 0.000000 0.000000 0.000000 -0.000001 0.031762 0.000000
# 6 0.000000 0.000001 0.000000 0.000000 0.000000 0.043282
#
#
# Mechanical properties :
#
#
# Convention : Reuss Voigt Hill
#
# Bulk Modulus (GPa) = 15.72198 54.44676 35.08437
# Shear Modulus (GPa) = 4.73727 18.84336 11.79031
#
# Velocity S-wave (km/s) = 1.51294 3.01743 2.38683
# Velocity P-wave (km/s) = 3.26323 6.20064 4.95463
#
# Compressibility (1/GPa) = 0.06360523
#
# Stress axis : x y z
#
# Youngs Moduli (GPa) = 11.96610 2.88239 31.43154
#
# Poissons Ratio (x) = 0.39592 -0.77162
# Poissons Ratio (y) = 1.64366 2.72030
# Poissons Ratio (z) = -0.29376 0.24946
#
# Static dielectric constant tensor:
#      x y z
#    x 1.799480 0.000000 0.000000 
#    y 0.000000 1.726110 0.000000 
#    z 0.000000 0.000000 1.774500 
# 
# From -- ./inp_files/21143.got.cif
#   From: 2010.05.17/outbox.ucp.g08.bks.cvg/sg74_11_cif.got.tgz:21143.got - 2010.06.11 16:37:44.
