data_PCOD9540590
_publ_section_title
;
Structure prediction by ZEFSAII (Michael W. Deem and Ramdas Pophale) SiO2 
 PCOD9540590
Probable space group: I M M A
;
_chemical_formula_sum "Si O2"
_cell_formula_units_Z 56
_cell_length_a 8.333742
_cell_length_b 27.056736
_cell_length_c 11.084538
_cell_angle_alpha 90.000000
_cell_angle_beta 90.000000
_cell_angle_gamma 90.000000
_cell_volume 2499.384383
_symmetry_space_group_name_H-M "I M M A"
_symmetry_group_IT_number 74
_symmetry_cell_setting 'orthorhombic'
loop_
_space_group_symop_operation_xyz
x,y,z
-x,1/2-y,z
x,-y,-z
-x,1/2+y,-z
-x,-y,-z
x,1/2+y,-z
-x,y,z
x,1/2-y,z
1/2+x,1/2+y,1/2+z
1/2-x,-y,1/2+z
1/2+x,1/2-y,1/2-z
1/2-x,y,1/2-z
1/2-x,1/2-y,1/2-z
1/2+x,y,1/2-z
1/2-x,1/2+y,1/2+z
1/2+x,-y,1/2+z
loop_
_atom_site_type_symbol
_atom_site_label
_atom_site_fract_x
_atom_site_fract_y
_atom_site_fract_z
Si Si1 0.317300 0.442262 0.990621
Si Si2 0.686024 0.146457 0.386095
Si Si3 0.500000 0.192828 0.706121
Si Si4 0.750000 0.615504 0.250000
Si Si5 0.500000 0.305205 0.997509
O O1 0.500000 0.435246 0.036603
O O2 0.316076 0.420291 0.854295
O O3 0.280251 0.500000 0.000000
O O4 0.196504 0.410054 0.069495
O O5 0.500000 0.164358 0.397645
O O6 0.750000 0.150428 0.250000
O O7 0.832800 0.171538 0.459420
O O8 0.500000 0.250000 0.662272
O O9 0.356917 0.155525 0.677872
O O10 0.500000 0.195553 0.852082
O O11 0.500000 0.250000 0.045150
#
# Coordination Sequence:
#
# PCOD9540590 Si02
#       5
#    16  16   8   8   8
#     4  11  25  45  69  99 140 187 233 289 354 415
#     4  12  24  45  70  98 140 183 232 287 348 418
#     4  11  24  42  68  98 142 185 225 289 356 420
#     4  12  21  44  68  98 140 174 233 288 344 422
#     4  11  24  48  69 100 141 183 236 288 348 418
#
# _framework density 22.405518000000001
#
# number of rings (size 3 to 8) (size 9 to 14) (size 15 to 20)
#    0.000    0.571    7.143    0.429    4.000    1.714 
#    0.000    0.000    0.000    0.000    0.000    0.000 
#    0.000    0.000    0.000    0.000    0.000    0.000 
#
# Total GULP energy -156153.732011 kJ/mol
# GULP energy per Si atom -5576.919000 kJ/mol
# Density = 2.235452 g / cm^3
# Si number density = 22.405518 Si / 1000 Ang^3
#
#
#
# Elastic Constant Matrix: (Units=GPa)
#
#
# Indices 1 2 3 4 5 6 
#
# 1 166.8387 68.3635 32.8900 0.0000 0.0001 0.0005
# 2 68.3635 170.7838 23.3961 0.0000 0.0001 0.0001
# 3 32.8900 23.3961 81.8896 0.0000 0.0007 0.0017
# 4 0.0000 0.0000 0.0000 23.8480 0.0000 0.0001
# 5 0.0001 0.0001 0.0007 0.0000 35.0704 0.0002
# 6 0.0005 0.0001 0.0017 0.0001 0.0002 -8.5456
#
#
#
# Elastic Compliance Matrix: (Units=1/GPa)
#
#
# Indices 1 2 3 4 5 6 
#
# 1 0.007551 -0.002713 -0.002257 0.000000 0.000000 0.000000
# 2 -0.002713 0.007069 -0.000930 0.000000 0.000000 0.000000
# 3 -0.002257 -0.000930 0.013384 0.000000 0.000000 0.000002
# 4 0.000000 0.000000 0.000000 0.041932 0.000000 0.000001
# 5 0.000000 0.000000 0.000000 0.000000 0.028514 0.000001
# 6 0.000000 0.000000 0.000002 0.000001 0.000001 -0.117019
#
#
# Mechanical properties :
#
#
# Convention : Reuss Voigt Hill
#
# Bulk Modulus (GPa) = 61.71956 74.31238 68.01597
# Shear Modulus (GPa) = -3655.07727 29.73205 -1812.67261
#
# Velocity S-wave (km/s) = -40.43353 3.64675 -28.47430
# Velocity P-wave (km/s) = 46.39204 7.13938 32.41335
#
# Compressibility (1/GPa) = 0.01620232
#
# Stress axis : x y z
#
# Youngs Moduli (GPa) = 132.43996 141.46649 74.71666
#
# Poissons Ratio (x) = 0.38383 0.16867
# Poissons Ratio (y) = 0.35934 0.06948
# Poissons Ratio (z) = 0.29897 0.13154
#
# Static dielectric constant tensor:
#      x y z
#    x 0.984730 0.000000 0.000000 
#    y 0.000000 1.838380 0.000000 
#    z 0.000000 0.000000 1.838860 
# 
# From -- ./inp_files/17345.got.cif
#   From: 2010.05.17/outbox.cif.g08.bks.cpg/sg74_9_cif.got.tgz:17345.got - 2010.06.03 17:57:02.
