data_PCOD9540676
_publ_section_title
;
Structure prediction by ZEFSAII (Michael W. Deem and Ramdas Pophale) SiO2 
 PCOD9540676
Probable space group: I M M A
;
_chemical_formula_sum "Si O2"
_cell_formula_units_Z 64
_cell_length_a 7.334783
_cell_length_b 9.923806
_cell_length_c 43.789011
_cell_angle_alpha 90.000000
_cell_angle_beta 90.000000
_cell_angle_gamma 90.000000
_cell_volume 3187.356725
_symmetry_space_group_name_H-M "I M M A"
_symmetry_group_IT_number 74
_symmetry_cell_setting 'orthorhombic'
loop_
_space_group_symop_operation_xyz
x,y,z
-x,1/2-y,z
x,-y,-z
-x,1/2+y,-z
-x,-y,-z
x,1/2+y,-z
-x,y,z
x,1/2-y,z
1/2+x,1/2+y,1/2+z
1/2-x,-y,1/2+z
1/2+x,1/2-y,1/2-z
1/2-x,y,1/2-z
1/2-x,1/2-y,1/2-z
1/2+x,y,1/2-z
1/2-x,1/2+y,1/2+z
1/2+x,-y,1/2+z
loop_
_atom_site_type_symbol
_atom_site_label
_atom_site_fract_x
_atom_site_fract_y
_atom_site_fract_z
Si Si1 0.712203 0.086230 0.094505
Si Si2 0.723368 0.405944 0.161252
Si Si3 0.782521 0.596735 0.284466
Si Si4 0.277006 0.906040 0.972220
O O1 0.500000 0.045694 0.094479
O O2 0.718025 0.250000 0.094528
O O3 0.786124 0.045886 0.127617
O O4 0.786577 0.046177 0.061396
O O5 0.500000 0.406695 0.160604
O O6 0.776701 0.250000 0.165526
O O7 0.785219 0.499416 0.188929
O O8 0.711317 0.750000 0.286553
O O9 0.750000 0.546998 0.250000
O O10 0.000000 0.603799 0.288263
O O11 0.500000 0.907329 0.971478
O O12 0.223767 0.750000 0.976574
O O13 0.219090 0.000000 0.000000
#
# Coordination Sequence:
#
# PCOD9540676 Si02
#       4
#    16  16  16  16
#     4   7  10  17  28  40  55  77 104 134 168 202
#     4   8  13  22  36  51  65  84 113 146 176 207
#     4   9  17  28  40  54  73  95 117 143 177 214
#     4   8  12  17  24  34  50  73 101 132 164 196
#
# _framework density 20.079336000000001
#
# number of rings (size 3 to 8) (size 9 to 14) (size 15 to 20)
#    0.000    4.000    0.000    3.000    0.000    0.500 
#    0.000    1.250    0.000    7.500    0.000    0.000 
#    0.000    0.000    0.000    0.000    0.000    1.250 
#
# Total GULP energy -178176.553802 kJ/mol
# GULP energy per Si atom -5568.017306 kJ/mol
# Density = 2.003363 g / cm^3
# Si number density = 20.079336 Si / 1000 Ang^3
#
#
#
# Elastic Constant Matrix: (Units=GPa)
#
#
# Indices 1 2 3 4 5 6 
#
# 1 76.3287 3.4005 8.7798 0.0000 0.0000 0.0000
# 2 3.4005 64.3428 106.8855 0.0000 0.0000 0.0000
# 3 8.7798 106.8855 274.7874 0.0000 0.0000 0.0000
# 4 0.0000 0.0000 0.0000 34.0902 0.0000 0.0000
# 5 0.0000 0.0000 0.0000 0.0000 -3.4029 0.0000
# 6 0.0000 0.0000 0.0000 0.0000 0.0000 -12.0787
#
#
#
# Elastic Compliance Matrix: (Units=1/GPa)
#
#
# Indices 1 2 3 4 5 6 
#
# 1 0.013150 0.000008 -0.000423 0.000000 0.000000 0.000000
# 2 0.000008 0.043923 -0.017085 0.000000 0.000000 0.000000
# 3 -0.000423 -0.017085 0.010298 0.000000 0.000000 0.000000
# 4 0.000000 0.000000 0.000000 0.029334 0.000000 0.000000
# 5 0.000000 0.000000 0.000000 0.000000 -0.293869 0.000000
# 6 0.000000 0.000000 0.000000 0.000000 0.000000 -0.082791
#
#
# Mechanical properties :
#
#
# Convention : Reuss Voigt Hill
#
# Bulk Modulus (GPa) = 30.89218 72.62114 51.75666
# Shear Modulus (GPa) = -21.35261 23.48127 1.06433
#
# Velocity S-wave (km/s) = -3.26454 3.42340 0.72884
# Velocity P-wave (km/s) = 1.09948 7.20221 5.15173
#
# Compressibility (1/GPa) = 0.03237065
#
# Stress axis : x y z
#
# Youngs Moduli (GPa) = 76.04819 22.76703 97.10190
#
# Poissons Ratio (x) = -0.00019 0.04112
# Poissons Ratio (y) = -0.00064 1.65901
# Poissons Ratio (z) = 0.03220 0.38898
#
# Static dielectric constant tensor:
#      x y z
#    x 0.230490 0.000000 0.000000 
#    y 0.000000 1.661240 0.000000 
#    z 0.000000 0.000000 1.737410 
# 
# From -- ./inp_files/71384.got.cif
#   From: 2010.05.17/outbox.cif.g08.bks.cpg/sg74_36_cif.got.tgz:71384.got - 2010.06.03 17:57:02.
