data_PCOD9540500
_publ_section_title
;
Structure prediction by ZEFSAII (Michael W. Deem and Ramdas Pophale) SiO2 
 PCOD9540500
Probable space group: I M M A
;
_chemical_formula_sum "Si O2"
_cell_formula_units_Z 72
_cell_length_a 8.351167
_cell_length_b 26.650322
_cell_length_c 16.818830
_cell_angle_alpha 90.000000
_cell_angle_beta 90.000000
_cell_angle_gamma 90.000000
_cell_volume 3743.220495
_symmetry_space_group_name_H-M "I M M A"
_symmetry_group_IT_number 74
_symmetry_cell_setting 'orthorhombic'
loop_
_space_group_symop_operation_xyz
x,y,z
-x,1/2-y,z
x,-y,-z
-x,1/2+y,-z
-x,-y,-z
x,1/2+y,-z
-x,y,z
x,1/2-y,z
1/2+x,1/2+y,1/2+z
1/2-x,-y,1/2+z
1/2+x,1/2-y,1/2-z
1/2-x,y,1/2-z
1/2-x,1/2-y,1/2-z
1/2+x,y,1/2-z
1/2-x,1/2+y,1/2+z
1/2+x,-y,1/2+z
loop_
_atom_site_type_symbol
_atom_site_label
_atom_site_fract_x
_atom_site_fract_y
_atom_site_fract_z
Si Si1 0.185687 0.958970 0.161638
Si Si2 0.750000 0.875593 0.750000
Si Si3 0.813065 0.125498 0.551789
Si Si4 0.000000 0.191571 0.967756
Si Si5 0.500000 0.308335 0.341108
Si Si6 0.322650 0.557068 0.897960
O O1 0.250000 0.968690 0.250000
O O2 0.287787 0.915171 0.121041
O O3 0.000000 0.944462 0.163475
O O4 0.205533 0.010396 0.112240
O O5 0.645094 0.838509 0.697073
O O6 0.674066 0.912052 0.815742
O O7 0.666799 0.165073 0.558567
O O8 0.785600 0.094885 0.469501
O O9 0.000000 0.143575 0.551231
O O10 0.000000 0.250000 0.944304
O O11 0.000000 0.188911 0.063951
O O12 0.500000 0.250000 0.318095
O O13 0.500000 0.535922 0.912628
#
# Coordination Sequence:
#
# PCOD9540500 Si02
#       6
#    16   8  16   8   8  16
#     4  12  25  39  64  96 130 169 210 262 320 393
#     4  12  21  36  58  84 126 168 213 260 314 362
#     4  11  24  44  66  95 130 171 214 264 323 386
#     4  11  24  44  68  96 125 166 223 275 328 382
#     4  11  24  40  59  87 123 169 228 273 315 370
#     4  11  23  37  58  90 130 171 213 257 310 381
#
# _framework density 19.234774999999999
#
# number of rings (size 3 to 8) (size 9 to 14) (size 15 to 20)
#    0.000    0.667    5.556    3.000    3.111    3.111 
#    0.000    0.000    0.000    0.667    0.000    0.000 
#    0.000    0.000    0.000    0.000    0.000    0.000 
#
# Total GULP energy -200975.977257 kJ/mol
# GULP energy per Si atom -5582.666035 kJ/mol
# Density = 1.919100 g / cm^3
# Si number density = 19.234775 Si / 1000 Ang^3
#
#
#
# Elastic Constant Matrix: (Units=GPa)
#
#
# Indices 1 2 3 4 5 6 
#
# 1 123.5105 59.6570 18.5949 0.0000 0.0000 0.0000
# 2 59.6570 105.4890 19.1821 0.0000 0.0000 0.0000
# 3 18.5949 19.1821 34.7313 0.0000 0.0000 -0.0001
# 4 0.0000 0.0000 0.0000 27.6125 0.0000 0.0000
# 5 0.0000 0.0000 0.0000 0.0000 21.8607 0.0000
# 6 0.0000 0.0000 -0.0001 0.0000 0.0000 1.6716
#
#
#
# Elastic Compliance Matrix: (Units=1/GPa)
#
#
# Indices 1 2 3 4 5 6 
#
# 1 0.011383 -0.005924 -0.002822 0.000000 0.000000 0.000000
# 2 -0.005924 0.013621 -0.004351 0.000000 0.000000 0.000000
# 3 -0.002822 -0.004351 0.032707 0.000000 0.000000 0.000002
# 4 0.000000 0.000000 0.000000 0.036215 0.000000 0.000001
# 5 0.000000 0.000000 0.000000 0.000000 0.045744 0.000001
# 6 0.000000 0.000000 0.000002 0.000001 0.000001 0.598237
#
#
# Mechanical properties :
#
#
# Convention : Reuss Voigt Hill
#
# Bulk Modulus (GPa) = 31.73066 50.95542 41.34304
# Shear Modulus (GPa) = 6.45488 21.31541 13.88515
#
# Velocity S-wave (km/s) = 1.83388 3.33253 2.68969
# Velocity P-wave (km/s) = 4.58437 6.43090 5.58449
#
# Compressibility (1/GPa) = 0.03151526
#
# Stress axis : x y z
#
# Youngs Moduli (GPa) = 87.85192 73.41535 30.57469
#
# Poissons Ratio (x) = 0.43492 0.08629
# Poissons Ratio (y) = 0.52044 0.13304
# Poissons Ratio (z) = 0.24795 0.31945
#
# Static dielectric constant tensor:
#      x y z
#    x 1.807330 0.000000 0.000000 
#    y 0.000000 1.637160 0.000000 
#    z 0.000000 0.000000 1.649890 
# 
# From -- ./inp_files/29252.got.cif
#   From: 2010.05.17/outbox.cif.g08.bks.cpg/sg74_15_cif.got.tgz:29252.got - 2010.06.03 17:57:02.
