data_PCOD9540099
_publ_section_title
;
Structure prediction by ZEFSAII (Michael W. Deem and Ramdas Pophale) SiO2 
 PCOD9540099
Probable space group: I M M A
;
_chemical_formula_sum "Si O2"
_cell_formula_units_Z 52
_cell_length_a 10.191066
_cell_length_b 10.750574
_cell_length_c 23.926989
_cell_angle_alpha 90.000000
_cell_angle_beta 90.000000
_cell_angle_gamma 90.000000
_cell_volume 2621.436349
_symmetry_space_group_name_H-M "I M M A"
_symmetry_group_IT_number 74
_symmetry_cell_setting 'orthorhombic'
loop_
_space_group_symop_operation_xyz
x,y,z
-x,1/2-y,z
x,-y,-z
-x,1/2+y,-z
-x,-y,-z
x,1/2+y,-z
-x,y,z
x,1/2-y,z
1/2+x,1/2+y,1/2+z
1/2-x,-y,1/2+z
1/2+x,1/2-y,1/2-z
1/2-x,y,1/2-z
1/2-x,1/2-y,1/2-z
1/2+x,y,1/2-z
1/2-x,1/2+y,1/2+z
1/2+x,-y,1/2+z
loop_
_atom_site_type_symbol
_atom_site_label
_atom_site_fract_x
_atom_site_fract_y
_atom_site_fract_z
Si Si1 0.500000 0.750000 0.347536
Si Si2 0.000000 0.106260 0.294109
Si Si3 0.211896 0.021136 0.377620
Si Si4 0.150870 0.750000 0.540947
Si Si5 0.263112 0.250000 0.919316
Si Si6 0.000000 0.480322 0.171161
O O1 0.623797 0.750000 0.388298
O O2 0.500000 0.874287 0.311663
O O3 0.127798 0.044749 0.321809
O O4 0.000000 0.250000 0.311503
O O5 0.000000 0.097350 0.227617
O O6 0.173963 0.127330 0.421923
O O7 0.178793 0.882980 0.400103
O O8 0.366406 0.036925 0.363699
O O9 0.240700 0.750000 0.486144
O O10 0.000000 0.750000 0.521378
#
# Coordination Sequence:
#
# PCOD9540099 Si02
#       6
#     4   8  16   8   8   8
#     4   8  20  48  56  96 124 152 204 264 300 370
#     4  12  24  42  60  93 129 162 202 259 305 358
#     4  11  23  43  61  96 124 160 209 253 299 373
#     4  12  24  42  60  93 129 162 202 259 305 358
#     4  10  24  39  69  87 125 164 203 252 313 357
#     4  10  24  39  69  87 125 164 203 252 313 357
#
# _framework density 19.836454
#
# number of rings (size 3 to 8) (size 9 to 14) (size 15 to 20)
#    0.000    1.231    3.077    1.846    4.308    4.923 
#    0.000    9.231    0.000    0.000    0.000    0.000 
#    0.000    0.000    0.000    0.000    0.000    0.000 
#
# Total GULP energy -145176.057890 kJ/mol
# GULP energy per Si atom -5583.694534 kJ/mol
# Density = 1.979130 g / cm^3
# Si number density = 19.836454 Si / 1000 Ang^3
#
#
#
# Elastic Constant Matrix: (Units=GPa)
#
#
# Indices 1 2 3 4 5 6 
#
# 1 73.4181 13.1920 -2.7112 0.0000 0.0000 0.0000
# 2 13.1920 148.0000 34.5427 0.0000 0.0000 0.0000
# 3 -2.7112 34.5427 69.2974 0.0000 0.0000 0.0000
# 4 0.0000 0.0000 0.0000 21.4825 0.0000 0.0000
# 5 0.0000 0.0000 0.0000 0.0000 1.4996 0.0000
# 6 0.0000 0.0000 0.0000 0.0000 0.0000 28.7748
#
#
#
# Elastic Compliance Matrix: (Units=1/GPa)
#
#
# Indices 1 2 3 4 5 6 
#
# 1 0.013948 -0.001551 0.001319 0.000000 0.000000 0.000000
# 2 -0.001551 0.007819 -0.003958 0.000000 0.000000 0.000000
# 3 0.001319 -0.003958 0.016455 0.000000 0.000000 0.000000
# 4 0.000000 0.000000 0.000000 0.046549 0.000000 0.000000
# 5 0.000000 0.000000 0.000000 0.000000 0.666839 0.000000
# 6 0.000000 0.000000 0.000000 0.000000 0.000000 0.034753
#
#
# Mechanical properties :
#
#
# Convention : Reuss Voigt Hill
#
# Bulk Modulus (GPa) = 33.51059 42.30697 37.90878
# Shear Modulus (GPa) = 6.21357 26.73086 16.47221
#
# Velocity S-wave (km/s) = 1.77178 3.67490 2.88479
# Velocity P-wave (km/s) = 4.59518 6.27540 5.49984
#
# Compressibility (1/GPa) = 0.02984131
#
# Stress axis : x y z
#
# Youngs Moduli (GPa) = 71.69478 127.89637 60.77115
#
# Poissons Ratio (x) = 0.19838 -0.08015
# Poissons Ratio (y) = 0.11120 0.24054
# Poissons Ratio (z) = -0.09456 0.50623
#
# Static dielectric constant tensor:
#      x y z
#    x 1.695450 0.000000 0.000000 
#    y 0.000000 1.710890 0.000000 
#    z 0.000000 0.000000 1.627080 
# 
# From -- ./inp_files/49970.got.cif
#   From: 2010.05.17/outbox.cif.g08.bks.cpg/sg74_25_cif.got.tgz:49970.got - 2010.06.03 17:57:02.
