data_PCOD9540600
_publ_section_title
;
Structure prediction by ZEFSAII (Michael W. Deem and Ramdas Pophale) SiO2 
 PCOD9540600
Probable space group: I M M A
;
_chemical_formula_sum "Si O2"
_cell_formula_units_Z 64
_cell_length_a 28.622764
_cell_length_b 10.285999
_cell_length_c 11.564998
_cell_angle_alpha 90.000000
_cell_angle_beta 90.000000
_cell_angle_gamma 90.000000
_cell_volume 3404.894105
_symmetry_space_group_name_H-M "I M M A"
_symmetry_group_IT_number 74
_symmetry_cell_setting 'orthorhombic'
loop_
_space_group_symop_operation_xyz
x,y,z
-x,1/2-y,z
x,-y,-z
-x,1/2+y,-z
-x,-y,-z
x,1/2+y,-z
-x,y,z
x,1/2-y,z
1/2+x,1/2+y,1/2+z
1/2-x,-y,1/2+z
1/2+x,1/2-y,1/2-z
1/2-x,y,1/2-z
1/2-x,1/2-y,1/2-z
1/2+x,y,1/2-z
1/2-x,1/2+y,1/2+z
1/2+x,-y,1/2+z
loop_
_atom_site_type_symbol
_atom_site_label
_atom_site_fract_x
_atom_site_fract_y
_atom_site_fract_z
Si Si1 0.553367 0.750000 0.769275
Si Si2 0.944838 0.250000 0.752942
Si Si3 0.914074 0.250000 0.019862
Si Si4 0.393698 0.996506 0.138121
Si Si5 0.804701 0.093857 0.765685
Si Si6 0.649967 0.000000 0.500000
O O1 0.500000 0.750000 0.813223
O O2 0.552402 0.750000 0.629869
O O3 0.581970 0.625054 0.812194
O O4 0.921026 0.375418 0.695222
O O5 0.000000 0.250000 0.732044
O O6 0.935649 0.250000 0.891235
O O7 0.882469 0.378142 0.031076
O O8 0.339922 0.977282 0.177554
O O9 0.397116 0.000000 0.000000
O O10 0.812159 0.250000 0.756546
O O11 0.750000 0.067694 0.750000
O O12 0.819804 0.045278 0.891684
#
# Coordination Sequence:
#
# PCOD9540600 Si02
#       6
#     8   8   8  16  16   8
#     4  12  26  42  65  99 133 169 217 277 327 382
#     4  12  24  44  69  93 129 181 225 265 333 398
#     4  12  21  42  68  96 134 162 222 272 331 386
#     4  12  25  44  64  96 134 172 223 271 323 393
#     4  11  24  44  69  98 131 175 218 270 338 396
#     4  12  20  42  69  96 132 170 209 280 330 380
#
# _framework density 18.796472999999999
#
# number of rings (size 3 to 8) (size 9 to 14) (size 15 to 20)
#    0.000    0.250    7.500    1.875    1.750    3.000 
#    0.000    6.250    0.000    0.000    0.000    0.000 
#    0.000    0.000    0.000    0.000    0.000    0.000 
#
# Total GULP energy -178932.427499 kJ/mol
# GULP energy per Si atom -5591.638359 kJ/mol
# Density = 1.875369 g / cm^3
# Si number density = 18.796473 Si / 1000 Ang^3
#
#
#
# Elastic Constant Matrix: (Units=GPa)
#
#
# Indices 1 2 3 4 5 6 
#
# 1 168.6309 79.0644 58.3553 0.0000 0.0000 0.0000
# 2 79.0644 157.0022 40.9343 0.0000 0.0000 0.0000
# 3 58.3553 40.9343 156.0179 0.0000 0.0000 0.0000
# 4 0.0000 0.0000 0.0000 0.8170 0.0000 0.0000
# 5 0.0000 0.0000 0.0000 0.0000 -0.6943 0.0000
# 6 0.0000 0.0000 0.0000 0.0000 0.0000 10.4434
#
#
#
# Elastic Compliance Matrix: (Units=1/GPa)
#
#
# Indices 1 2 3 4 5 6 
#
# 1 0.008402 -0.003662 -0.002182 0.000000 0.000000 0.000000
# 2 -0.003662 0.008433 -0.000843 0.000000 0.000000 0.000000
# 3 -0.002182 -0.000843 0.007447 0.000000 0.000000 0.000000
# 4 0.000000 0.000000 0.000000 1.223932 0.000000 0.000000
# 5 0.000000 0.000000 0.000000 0.000000 -1.440317 0.000000
# 6 0.000000 0.000000 0.000000 0.000000 0.000000 0.095755
#
#
# Mechanical properties :
#
#
# Convention : Reuss Voigt Hill
#
# Bulk Modulus (GPa) = 91.67299 93.15099 92.41199
# Shear Modulus (GPa) = -63.02127 22.33302 -20.34413
#
# Velocity S-wave (km/s) = -5.79664 3.45069 -3.29346
# Velocity P-wave (km/s) = 2.01888 8.09578 5.89990
#
# Compressibility (1/GPa) = 0.01090834
#
# Stress axis : x y z
#
# Youngs Moduli (GPa) = 119.01491 118.57546 134.28754
#
# Poissons Ratio (x) = 0.43428 0.29299
# Poissons Ratio (y) = 0.43589 0.11318
# Poissons Ratio (z) = 0.25967 0.09994
#
# Static dielectric constant tensor:
#      x y z
#    x 1.635470 0.000000 0.000000 
#    y 0.000000 1.632190 0.000000 
#    z 0.000000 0.000000 1.641020 
# 
# From -- ./inp_files/17639.got.cif
#   From: 2010.05.17/outbox.cif.g08.bks.cpg/sg74_9_cif.got.tgz:17639.got - 2010.06.03 17:57:02.
