data_PCOD9540598
_publ_section_title
;
Structure prediction by ZEFSAII (Michael W. Deem and Ramdas Pophale) SiO2 
 PCOD9540598
Probable space group: I M M A
;
_chemical_formula_sum "Si O2"
_cell_formula_units_Z 48
_cell_length_a 19.370061
_cell_length_b 19.998765
_cell_length_c 5.305613
_cell_angle_alpha 90.000000
_cell_angle_beta 90.000000
_cell_angle_gamma 90.000000
_cell_volume 2055.274028
_symmetry_space_group_name_H-M "I M M A"
_symmetry_group_IT_number 74
_symmetry_cell_setting 'orthorhombic'
loop_
_space_group_symop_operation_xyz
x,y,z
-x,1/2-y,z
x,-y,-z
-x,1/2+y,-z
-x,-y,-z
x,1/2+y,-z
-x,y,z
x,1/2-y,z
1/2+x,1/2+y,1/2+z
1/2-x,-y,1/2+z
1/2+x,1/2-y,1/2-z
1/2-x,y,1/2-z
1/2-x,1/2-y,1/2-z
1/2+x,y,1/2-z
1/2-x,1/2+y,1/2+z
1/2+x,-y,1/2+z
loop_
_atom_site_type_symbol
_atom_site_label
_atom_site_fract_x
_atom_site_fract_y
_atom_site_fract_z
Si Si1 0.250000 0.467199 0.250000
Si Si2 0.579740 0.750000 0.110745
Si Si3 0.500000 0.952835 0.742015
Si Si4 0.312824 0.750000 0.456824
Si Si5 0.861399 0.632723 0.710804
O O1 0.283250 0.500000 0.500000
O O2 0.189633 0.424479 0.378700
O O3 0.500000 0.750000 0.065209
O O4 0.615836 0.685288 0.998376
O O5 0.604214 0.750000 0.394333
O O6 0.432355 0.905124 0.718710
O O7 0.500000 0.000000 0.500000
O O8 0.500000 0.000000 0.000000
O O9 0.250000 0.750000 0.250000
O O10 0.314820 0.820835 0.601602
#
# Coordination Sequence:
#
# PCOD9540598 Si02
#       5
#     8   8   8   8  16
#     4  12  28  47  74 105 148 202 246 300 364 444
#     4  11  24  43  76 107 147 191 243 316 379 444
#     4  12  28  47  74 109 150 204 250 306 372 460
#     4  11  26  44  77 106 147 197 249 328 380 451
#     4  11  26  46  72 107 149 190 255 305 383 442
#
# _framework density 23.354548999999999
#
# number of rings (size 3 to 8) (size 9 to 14) (size 15 to 20)
#    0.000    0.667    1.667    4.000   14.000    2.667 
#    0.000    0.000    0.000    0.000    0.000    0.000 
#    0.000    0.000    0.000    0.000    0.000    0.000 
#
# Total GULP energy -133668.005545 kJ/mol
# GULP energy per Si atom -5569.500231 kJ/mol
# Density = 2.330139 g / cm^3
# Si number density = 23.354549 Si / 1000 Ang^3
#
#
#
# Elastic Constant Matrix: (Units=GPa)
#
#
# Indices 1 2 3 4 5 6 
#
# 1 135.9847 26.0249 5.4313 0.0000 0.0000 0.0000
# 2 26.0249 94.8137 22.2768 0.0000 0.0000 0.0000
# 3 5.4313 22.2768 68.8682 0.0000 0.0000 0.0000
# 4 0.0000 0.0000 0.0000 -60.2928 0.0000 0.0000
# 5 0.0000 0.0000 0.0000 0.0000 40.1554 0.0000
# 6 0.0000 0.0000 0.0000 0.0000 0.0000 10.5091
#
#
#
# Elastic Compliance Matrix: (Units=1/GPa)
#
#
# Indices 1 2 3 4 5 6 
#
# 1 0.007762 -0.002150 0.000083 0.000000 0.000000 0.000000
# 2 -0.002150 0.012010 -0.003715 0.000000 0.000000 0.000000
# 3 0.000083 -0.003715 0.015716 0.000000 0.000000 0.000000
# 4 0.000000 0.000000 0.000000 -0.016586 0.000000 0.000000
# 5 0.000000 0.000000 0.000000 0.000000 0.024903 0.000000
# 6 0.000000 0.000000 0.000000 0.000000 0.000000 0.095155
#
#
# Mechanical properties :
#
#
# Convention : Reuss Voigt Hill
#
# Bulk Modulus (GPa) = 41.79980 45.23694 43.51837
# Shear Modulus (GPa) = 31.54586 14.46991 23.00789
#
# Velocity S-wave (km/s) = 3.67923 2.49183 3.14213
# Velocity P-wave (km/s) = 5.99881 5.26219 5.64253
#
# Compressibility (1/GPa) = 0.02392356
#
# Stress axis : x y z
#
# Youngs Moduli (GPa) = 128.83396 83.26319 63.63053
#
# Poissons Ratio (x) = 0.17903 -0.00530
# Poissons Ratio (y) = 0.27701 0.23641
# Poissons Ratio (z) = -0.01074 0.30935
#
# Static dielectric constant tensor:
#      x y z
#    x 1.158530 0.000000 0.000000 
#    y 0.000000 1.040440 0.000000 
#    z 0.000000 0.000000 2.017930 
# 
# From -- ./inp_files/2712.got.cif
#   From: 2010.05.17/outbox.cif.g08.bks.cpg/sg74_2_cif.got.tgz:2712.got - 2010.06.03 17:57:02.
