data_PCOD9540988
_publ_section_title
;
Structure prediction by ZEFSAII (Michael W. Deem and Ramdas Pophale) SiO2 
 PCOD9540988
Probable space group: P 4
;
_chemical_formula_sum "Si O2"
_cell_formula_units_Z 25
_cell_length_a 11.830182
_cell_length_b 11.830182
_cell_length_c 7.382700
_cell_angle_alpha 90.000000
_cell_angle_beta 90.000000
_cell_angle_gamma 90.000000
_cell_volume 1033.232535
_symmetry_space_group_name_H-M "P 4"
_symmetry_group_IT_number 75
_symmetry_cell_setting 'tetragonal'
loop_
_space_group_symop_operation_xyz
x,y,z
-y,x,z
-x,-y,z
y,-x,z
loop_
_atom_site_type_symbol
_atom_site_label
_atom_site_fract_x
_atom_site_fract_y
_atom_site_fract_z
Si Si1 0.312614 0.489181 0.484360
Si Si2 0.500000 0.500000 0.923451
Si Si3 0.868840 0.310113 0.193171
Si Si4 0.246414 0.480078 0.053643
Si Si5 0.584021 0.901275 0.551185
Si Si6 0.735111 0.098527 0.065755
Si Si7 0.815787 0.992087 0.704358
O O1 0.399655 0.387982 0.522403
O O2 0.282864 0.467638 0.268992
O O3 0.200857 0.500621 0.608651
O O4 0.361821 0.486199 0.945876
O O5 0.824535 0.403197 0.051011
O O6 0.835596 0.353625 0.389059
O O7 0.816353 0.190208 0.152232
O O8 0.003609 0.306870 0.202537
O O9 0.167910 0.374536 0.002070
O O10 0.500000 0.000000 0.492297
O O11 0.687746 0.959128 0.654374
O O12 0.800129 0.025163 0.915315
O O13 0.886705 0.104135 0.645878
#
# Coordination Sequence:
#
# PCOD9540988 Si02
#       7
#     4   1   4   4   4   4   4
#     4  10  18  36  66 105 147 181 221 300 380 448
#     4  12  16  32  60 104 148 186 212 288 392 446
#     4  11  24  39  68 105 139 177 246 317 365 442
#     4  11  19  35  63 104 143 179 225 293 384 443
#     4  11  26  42  71 107 144 189 246 311 379 458
#     4  12  23  43  70  98 141 191 245 308 376 445
#     4  11  27  51  70  95 144 206 255 309 379 455
#
# _framework density 24.195907999999999
#
# number of rings (size 3 to 8) (size 9 to 14) (size 15 to 20)
#    0.000    0.960    4.800    3.360    4.480    1.600 
#    0.000    0.000    0.000    0.000    0.000    0.000 
#    0.000    0.000    0.000    0.000    0.000    0.000 
#
# Total GULP energy -139287.262598 kJ/mol
# GULP energy per Si atom -5571.490504 kJ/mol
# Density = 2.414084 g / cm^3
# Si number density = 24.195908 Si / 1000 Ang^3
#
#
#
# Elastic Constant Matrix: (Units=GPa)
#
#
# Indices 1 2 3 4 5 6 
#
# 1 142.1649 72.0746 10.1519 0.0000 0.0000 -0.3277
# 2 72.0746 142.1649 10.1519 0.0000 0.0000 0.3277
# 3 10.1519 10.1519 28.8836 0.0000 0.0000 0.0000
# 4 0.0000 0.0000 0.0000 26.0803 0.0000 0.0000
# 5 0.0000 0.0000 0.0000 0.0000 26.0803 0.0000
# 6 -0.3277 0.3277 0.0000 0.0000 0.0000 44.1545
#
#
#
# Elastic Compliance Matrix: (Units=1/GPa)
#
#
# Indices 1 2 3 4 5 6 
#
# 1 0.009548 -0.004720 -0.001697 0.000000 0.000000 0.000106
# 2 -0.004720 0.009548 -0.001697 0.000000 0.000000 -0.000106
# 3 -0.001697 -0.001697 0.035815 0.000000 0.000000 0.000000
# 4 0.000000 0.000000 0.000000 0.038343 0.000000 0.000000
# 5 0.000000 0.000000 0.000000 0.000000 0.038343 0.000000
# 6 0.000106 -0.000106 0.000000 0.000000 0.000000 0.022649
#
#
# Mechanical properties :
#
#
# Convention : Reuss Voigt Hill
#
# Bulk Modulus (GPa) = 25.85097 55.33003 40.59050
# Shear Modulus (GPa) = 27.26732 33.98536 30.62634
#
# Velocity S-wave (km/s) = 3.36063 3.75185 3.56162
# Velocity P-wave (km/s) = 5.07599 6.45645 5.80738
#
# Compressibility (1/GPa) = 0.03868326
#
# Stress axis : x y z
#
# Youngs Moduli (GPa) = 104.72952 104.72952 27.92152
#
# Poissons Ratio (x) = 0.49431 0.04739
# Poissons Ratio (y) = 0.49431 0.04739
# Poissons Ratio (z) = 0.17774 0.17774
#
# Static dielectric constant tensor:
#      x y z
#    x 1.964410 0.000000 0.000000 
#    y 0.000000 1.964410 0.000000 
#    z 0.000000 0.000000 2.142030 
# 
# From -- ./inp_files/369.got.cif
#   From: 2010.05.17/outbox.cif.g08.bks.cpg/sg75_cif.got.tgz:369.got - 2010.06.03 18:42:43.
