data_PCOD9540682
_publ_section_title
;
Structure prediction by ZEFSAII (Michael W. Deem and Ramdas Pophale) SiO2 
 PCOD9540682
Probable space group: I M M A
;
_chemical_formula_sum "Si O2"
_cell_formula_units_Z 96
_cell_length_a 23.548112
_cell_length_b 7.258748
_cell_length_c 28.604911
_cell_angle_alpha 90.000000
_cell_angle_beta 90.000000
_cell_angle_gamma 90.000000
_cell_volume 4889.432028
_symmetry_space_group_name_H-M "I M M A"
_symmetry_group_IT_number 74
_symmetry_cell_setting 'orthorhombic'
loop_
_space_group_symop_operation_xyz
x,y,z
-x,1/2-y,z
x,-y,-z
-x,1/2+y,-z
-x,-y,-z
x,1/2+y,-z
-x,y,z
x,1/2-y,z
1/2+x,1/2+y,1/2+z
1/2-x,-y,1/2+z
1/2+x,1/2-y,1/2-z
1/2-x,y,1/2-z
1/2-x,1/2-y,1/2-z
1/2+x,y,1/2-z
1/2-x,1/2+y,1/2+z
1/2+x,-y,1/2+z
loop_
_atom_site_type_symbol
_atom_site_label
_atom_site_fract_x
_atom_site_fract_y
_atom_site_fract_z
Si Si1 0.737135 0.531048 0.553625
Si Si2 0.883445 0.974609 0.719295
Si Si3 0.500000 0.525038 0.622543
Si Si4 0.802893 0.474338 0.356798
Si Si5 0.188800 0.027416 0.193864
Si Si6 0.623009 0.973010 0.600461
Si Si7 0.000000 0.525432 0.767798
O O1 0.751629 0.500000 0.500000
O O2 0.734379 0.750000 0.560711
O O3 0.783015 0.463906 0.591752
O O4 0.673445 0.462226 0.566259
O O5 0.884703 0.750000 0.719359
O O6 0.860954 0.032523 0.668360
O O7 0.836410 0.033402 0.757270
O O8 0.943975 0.033096 0.739598
O O9 0.500000 0.750000 0.622887
O O10 0.441902 0.464702 0.597475
O O11 0.500000 0.469887 0.677521
O O12 0.804167 0.250000 0.357694
O O13 0.750625 0.530439 0.323157
O O14 0.191267 0.250000 0.196014
O O15 0.145317 0.980790 0.152370
O O16 0.621555 0.750000 0.597176
O O17 0.000000 0.750000 0.768934
#
# Coordination Sequence:
#
# PCOD9540682 Si02
#       7
#    16  16   8  16  16  16   8
#     4   9  17  29  42  56  73  96 127 163 198 227
#     4   9  13  17  25  43  71 100 125 144 172 220
#     4   9  12  18  29  45  72 107 133 145 171 222
#     4   8  14  21  31  47  68  94 122 152 186 223
#     4   8  11  16  26  42  66  95 121 144 174 217
#     4   8  13  20  32  49  71  99 129 154 180 219
#     4   9  14  16  24  43  72 109 131 139 165 220
#
# _framework density 19.634181999999999
#
# number of rings (size 3 to 8) (size 9 to 14) (size 15 to 20)
#    0.000    3.500    1.667    2.500    0.000    2.000 
#    0.000    0.417    0.000    0.000    0.000    0.583 
#    0.000   10.667    0.000    0.333    0.000    0.000 
#
# Total GULP energy -267504.404593 kJ/mol
# GULP energy per Si atom -5573.008429 kJ/mol
# Density = 1.958949 g / cm^3
# Si number density = 19.634182 Si / 1000 Ang^3
#
#
#
# Elastic Constant Matrix: (Units=GPa)
#
#
# Indices 1 2 3 4 5 6 
#
# 1 41.0445 -1.5679 46.3905 0.0000 0.0000 0.0000
# 2 -1.5679 85.2042 -1.6119 0.0000 0.0000 0.0000
# 3 46.3905 -1.6119 119.6848 0.0000 0.0000 0.0000
# 4 0.0000 0.0000 0.0000 -4.2424 0.0000 0.0000
# 5 0.0000 0.0000 0.0000 0.0000 12.1254 0.0000
# 6 0.0000 0.0000 0.0000 0.0000 0.0000 -16.8064
#
#
#
# Elastic Compliance Matrix: (Units=1/GPa)
#
#
# Indices 1 2 3 4 5 6 
#
# 1 0.043379 0.000480 -0.016807 0.000000 0.000000 0.000000
# 2 0.000480 0.011745 -0.000028 0.000000 0.000000 0.000000
# 3 -0.016807 -0.000028 0.014870 0.000000 0.000000 0.000000
# 4 0.000000 0.000000 0.000000 -0.235716 0.000000 0.000000
# 5 0.000000 0.000000 0.000000 0.000000 0.082472 0.000000
# 6 0.000000 0.000000 0.000000 0.000000 0.000000 -0.059501
#
#
# Mechanical properties :
#
#
# Convention : Reuss Voigt Hill
#
# Bulk Modulus (GPa) = 26.82193 36.92832 31.87512
# Shear Modulus (GPa) = -51.22174 11.73017 -19.74579
#
# Velocity S-wave (km/s) = -5.11319 2.44690 -3.17469
# Velocity P-wave (km/s) = 4.60099 5.17997 1.68271
#
# Compressibility (1/GPa) = 0.03728292
#
# Stress axis : x y z
#
# Youngs Moduli (GPa) = 23.05279 85.14394 67.25162
#
# Poissons Ratio (x) = -0.04089 1.13032
# Poissons Ratio (y) = -0.01107 0.00188
# Poissons Ratio (z) = 0.38746 0.00238
#
# Static dielectric constant tensor:
#      x y z
#    x 1.696600 0.000000 0.000000 
#    y 0.000000 1.819630 0.000000 
#    z 0.000000 0.000000 1.678660 
# 
# From -- ./inp_files/62024.got.cif
#   From: 2010.05.17/outbox.cif.g08.bks.cpg/sg74_32_cif.got.tgz:62024.got - 2010.06.03 17:57:02.
