data_PCOD9540283
_publ_section_title
;
Structure prediction by ZEFSAII (Michael W. Deem and Ramdas Pophale) SiO2 
 PCOD9540283
Probable space group: I M M A
;
_chemical_formula_sum "Si O2"
_cell_formula_units_Z 96
_cell_length_a 13.994714
_cell_length_b 14.062680
_cell_length_c 28.327170
_cell_angle_alpha 90.000000
_cell_angle_beta 90.000000
_cell_angle_gamma 90.000000
_cell_volume 5574.877269
_symmetry_space_group_name_H-M "I M M A"
_symmetry_group_IT_number 74
_symmetry_cell_setting 'orthorhombic'
loop_
_space_group_symop_operation_xyz
x,y,z
-x,1/2-y,z
x,-y,-z
-x,1/2+y,-z
-x,-y,-z
x,1/2+y,-z
-x,y,z
x,1/2-y,z
1/2+x,1/2+y,1/2+z
1/2-x,-y,1/2+z
1/2+x,1/2-y,1/2-z
1/2-x,y,1/2-z
1/2-x,1/2-y,1/2-z
1/2+x,y,1/2-z
1/2-x,1/2+y,1/2+z
1/2+x,-y,1/2+z
loop_
_atom_site_type_symbol
_atom_site_label
_atom_site_fract_x
_atom_site_fract_y
_atom_site_fract_z
Si Si1 0.244363 0.860095 0.348365
Si Si2 0.109111 0.987533 0.826466
Si Si3 0.614660 0.440286 0.930637
Si Si4 0.274547 0.644308 0.806157
Si Si5 0.115060 0.643028 0.535030
Si Si6 0.892382 0.531817 0.285435
O O1 0.267136 0.750000 0.347735
O O2 0.338398 0.924945 0.351471
O O3 0.172801 0.887233 0.390502
O O4 0.185078 0.891901 0.301909
O O5 0.000000 0.970861 0.840695
O O6 0.179877 0.897651 0.830600
O O7 0.109209 0.014081 0.770564
O O8 0.500000 0.437205 0.922837
O O9 0.645709 0.551377 0.934398
O O10 0.632838 0.388759 0.980841
O O11 0.300040 0.750000 0.821877
O O12 0.250000 0.648188 0.750000
O O13 0.358060 0.566511 0.809873
O O14 0.151684 0.750000 0.544739
O O15 0.000000 0.646484 0.539946
O O16 0.000000 0.557199 0.299338
#
# Coordination Sequence:
#
# PCOD9540283 Si02
#       6
#    16  16  16  16  16  16
#     4  11  21  31  45  65  89 118 155 198 238 273
#     4   9  19  34  47  61  86 120 159 200 235 269
#     4   9  17  28  44  70  99 121 146 181 220 271
#     4   8  14  26  45  66  84 106 142 185 226 269
#     4   8  14  27  47  68  93 125 151 171 209 272
#     4   9  18  31  45  64  92 123 153 187 229 276
#
# _framework density 17.220110999999999
#
# number of rings (size 3 to 8) (size 9 to 14) (size 15 to 20)
#    0.000    3.000    0.000    3.500    0.000    4.333 
#    0.000    8.333    0.000    4.000    0.000    2.333 
#    0.000    1.333    0.000    0.000    0.000    0.000 
#
# Total GULP energy -267410.290860 kJ/mol
# GULP energy per Si atom -5571.047726 kJ/mol
# Density = 1.718092 g / cm^3
# Si number density = 17.220111 Si / 1000 Ang^3
#
#
#
# Elastic Constant Matrix: (Units=GPa)
#
#
# Indices 1 2 3 4 5 6 
#
# 1 60.8197 6.9020 -2.2472 0.0000 0.0000 0.0000
# 2 6.9020 105.6891 -4.5401 0.0000 0.0000 0.0000
# 3 -2.2472 -4.5401 17.0505 0.0000 0.0000 0.0000
# 4 0.0000 0.0000 0.0000 13.4374 0.0000 0.0000
# 5 0.0000 0.0000 0.0000 0.0000 9.0536 0.0000
# 6 0.0000 0.0000 0.0000 0.0000 0.0000 9.9983
#
#
#
# Elastic Compliance Matrix: (Units=1/GPa)
#
#
# Indices 1 2 3 4 5 6 
#
# 1 0.016627 -0.001003 0.001924 0.000000 0.000000 0.000000
# 2 -0.001003 0.009632 0.002432 0.000000 0.000000 0.000000
# 3 0.001924 0.002432 0.059550 0.000000 0.000000 0.000000
# 4 0.000000 0.000000 0.000000 0.074419 0.000000 0.000000
# 5 0.000000 0.000000 0.000000 0.000000 0.110454 0.000000
# 6 0.000000 0.000000 0.000000 0.000000 0.000000 0.100017
#
#
# Mechanical properties :
#
#
# Convention : Reuss Voigt Hill
#
# Bulk Modulus (GPa) = 10.80892 20.42098 15.61495
# Shear Modulus (GPa) = 12.66364 18.72748 15.69556
#
# Velocity S-wave (km/s) = 2.71476 3.30136 3.02233
# Velocity P-wave (km/s) = 4.01462 5.13970 4.61160
#
# Compressibility (1/GPa) = 0.09251620
#
# Stress axis : x y z
#
# Youngs Moduli (GPa) = 60.14318 103.82364 16.79249
#
# Poissons Ratio (x) = 0.10415 -0.03231
# Poissons Ratio (y) = 0.06033 -0.04085
# Poissons Ratio (z) = -0.11573 -0.25254
#
# Static dielectric constant tensor:
#      x y z
#    x 1.560700 0.000000 0.000000 
#    y 0.000000 1.608180 0.000000 
#    z 0.000000 0.000000 1.627550 
# 
# From -- ./inp_files/72563.got.cif
#   From: 2010.05.17/outbox.cif.g08.bks.cpg/sg74_37_cif.got.tgz:72563.got - 2010.06.03 17:57:02.
