data_PCOD9540544
_publ_section_title
;
Structure prediction by ZEFSAII (Michael W. Deem and Ramdas Pophale) SiO2 
 PCOD9540544
Probable space group: I M M A
;
_chemical_formula_sum "Si O2"
_cell_formula_units_Z 116
_cell_length_a 19.447917
_cell_length_b 16.566122
_cell_length_c 17.721811
_cell_angle_alpha 90.000000
_cell_angle_beta 90.000000
_cell_angle_gamma 90.000000
_cell_volume 5709.552205
_symmetry_space_group_name_H-M "I M M A"
_symmetry_group_IT_number 74
_symmetry_cell_setting 'orthorhombic'
loop_
_space_group_symop_operation_xyz
x,y,z
-x,1/2-y,z
x,-y,-z
-x,1/2+y,-z
-x,-y,-z
x,1/2+y,-z
-x,y,z
x,1/2-y,z
1/2+x,1/2+y,1/2+z
1/2-x,-y,1/2+z
1/2+x,1/2-y,1/2-z
1/2-x,y,1/2-z
1/2-x,1/2-y,1/2-z
1/2+x,y,1/2-z
1/2-x,1/2+y,1/2+z
1/2+x,-y,1/2+z
loop_
_atom_site_type_symbol
_atom_site_label
_atom_site_fract_x
_atom_site_fract_y
_atom_site_fract_z
Si Si1 0.421331 0.346985 0.010257
Si Si2 0.184071 0.344531 0.067870
Si Si3 0.823686 0.346006 0.894605
Si Si4 0.672208 0.092336 0.873695
Si Si5 0.824202 0.598653 0.632455
Si Si6 0.388260 0.606347 0.715323
Si Si7 0.079226 0.420322 0.769936
Si Si8 0.500000 0.250000 0.274462
O O1 0.500000 0.372251 0.995985
O O2 0.418519 0.250000 0.009167
O O3 0.369538 0.381168 0.947748
O O4 0.395103 0.377572 0.091225
O O5 0.165638 0.250000 0.072590
O O6 0.263638 0.355070 0.090048
O O7 0.142199 0.391650 0.131338
O O8 0.172132 0.371924 0.982291
O O9 0.834518 0.250000 0.891232
O O10 0.745896 0.364929 0.868220
O O11 0.879512 0.389517 0.842795
O O12 0.623005 0.108504 0.802409
O O13 0.686650 0.996758 0.876846
O O14 0.830243 0.617933 0.720539
O O15 0.418667 0.517778 0.730812
O O16 0.440909 0.678890 0.723857
O O17 0.000000 0.393309 0.767987
#
# Coordination Sequence:
#
# PCOD9540544 Si02
#       8
#    16  16  16  16  16  16  16   4
#     4  11  24  38  60  94 132 174 219 267 326 396
#     4  11  23  42  64  97 131 169 222 274 320 389
#     4  11  25  45  70  98 130 174 224 279 335 393
#     4  11  23  43  67  94 130 172 216 272 335 396
#     4  11  24  38  66  96 133 170 218 269 327 394
#     4  11  25  42  68  97 132 180 220 269 332 395
#     4  11  25  46  67  98 134 169 224 281 334 398
#     4  12  24  44  66  98 140 180 222 266 332 406
#
# _framework density 20.316828999999998
#
# number of rings (size 3 to 8) (size 9 to 14) (size 15 to 20)
#    0.000    0.966    2.759    3.310    2.897    8.000 
#    1.241    0.690    0.000    0.000    0.000    0.000 
#    0.000    0.000    0.000    0.000    0.000    0.000 
#
# Total GULP energy -323867.889027 kJ/mol
# GULP energy per Si atom -5583.929121 kJ/mol
# Density = 2.027059 g / cm^3
# Si number density = 20.316829 Si / 1000 Ang^3
#
#
#
# Elastic Constant Matrix: (Units=GPa)
#
#
# Indices 1 2 3 4 5 6 
#
# 1 54.6495 6.9201 47.2258 0.0000 0.0000 0.0000
# 2 6.9201 53.3790 24.9562 0.0000 0.0000 0.0000
# 3 47.2258 24.9562 133.0157 0.0000 0.0000 0.0000
# 4 0.0000 0.0000 0.0000 64.4362 0.0000 0.0000
# 5 0.0000 0.0000 0.0000 0.0000 -53.3358 0.0000
# 6 0.0000 0.0000 0.0000 0.0000 0.0000 -0.6322
#
#
#
# Elastic Compliance Matrix: (Units=1/GPa)
#
#
# Indices 1 2 3 4 5 6 
#
# 1 0.026451 0.001054 -0.009589 0.000000 0.000000 0.000000
# 2 0.001054 0.020577 -0.004235 0.000000 0.000000 0.000000
# 3 -0.009589 -0.004235 0.011717 0.000000 0.000000 0.000000
# 4 0.000000 0.000000 0.000000 0.015519 0.000000 0.000000
# 5 0.000000 0.000000 0.000000 0.000000 -0.018749 0.000000
# 6 0.000000 0.000000 0.000000 0.000000 0.000000 -1.581902
#
#
# Mechanical properties :
#
#
# Convention : Reuss Voigt Hill
#
# Bulk Modulus (GPa) = 30.11527 44.36094 37.23810
# Shear Modulus (GPa) = -3.35621 12.88979 4.76679
#
# Velocity S-wave (km/s) = -1.28667 2.52154 1.53340
# Velocity P-wave (km/s) = 3.55635 5.50995 4.63720
#
# Compressibility (1/GPa) = 0.03320574
#
# Stress axis : x y z
#
# Youngs Moduli (GPa) = 37.80512 48.59733 85.34647
#
# Poissons Ratio (x) = -0.05122 0.81839
# Poissons Ratio (y) = -0.03985 0.36143
# Poissons Ratio (z) = 0.36252 0.20580
#
# Static dielectric constant tensor:
#      x y z
#    x 1.704460 0.000000 0.000000 
#    y 0.000000 1.698160 0.000000 
#    z 0.000000 0.000000 1.720350 
# 
# From -- ./inp_files/44251.got.cif
#   From: 2010.05.17/outbox.cif.g08.bks.cpg/sg74_23_cif.got.tgz:44251.got - 2010.06.03 17:57:02.
