data_PCOD9540692
_publ_section_title
;
Structure prediction by ZEFSAII (Michael W. Deem and Ramdas Pophale) SiO2 
 PCOD9540692
Probable space group: I M M A
;
_chemical_formula_sum "Si O2"
_cell_formula_units_Z 80
_cell_length_a 18.756057
_cell_length_b 7.277793
_cell_length_c 28.291361
_cell_angle_alpha 90.000000
_cell_angle_beta 90.000000
_cell_angle_gamma 90.000000
_cell_volume 3861.847173
_symmetry_space_group_name_H-M "I M M A"
_symmetry_group_IT_number 74
_symmetry_cell_setting 'orthorhombic'
loop_
_space_group_symop_operation_xyz
x,y,z
-x,1/2-y,z
x,-y,-z
-x,1/2+y,-z
-x,-y,-z
x,1/2+y,-z
-x,y,z
x,1/2-y,z
1/2+x,1/2+y,1/2+z
1/2-x,-y,1/2+z
1/2+x,1/2-y,1/2-z
1/2-x,y,1/2-z
1/2-x,1/2-y,1/2-z
1/2+x,y,1/2-z
1/2-x,1/2+y,1/2+z
1/2+x,-y,1/2+z
loop_
_atom_site_type_symbol
_atom_site_label
_atom_site_fract_x
_atom_site_fract_y
_atom_site_fract_z
Si Si1 0.631220 0.472841 0.185148
Si Si2 0.079749 0.474273 0.212177
Si Si3 0.286170 0.473823 0.348549
Si Si4 0.230457 0.531873 0.552049
Si Si5 0.077581 0.026521 0.417521
O O1 0.630187 0.250000 0.185605
O O2 0.597899 0.533156 0.234353
O O3 0.713830 0.527344 0.178901
O O4 0.589793 0.525607 0.137463
O O5 0.080645 0.250000 0.212303
O O6 0.142337 0.535125 0.177191
O O7 0.000000 0.531013 0.198981
O O8 0.287636 0.250000 0.348030
O O9 0.274829 0.534601 0.402743
O O10 0.259937 0.500000 0.500000
O O11 0.225811 0.750000 0.558331
O O12 0.148763 0.462261 0.555853
O O13 0.077046 0.250000 0.419370
O O14 0.000000 0.963697 0.434365
#
# Coordination Sequence:
#
# PCOD9540692 Si02
#       5
#    16  16  16  16  16
#     4   8  12  18  29  46  71 102 127 143 170 220
#     4   9  14  18  28  48  73  99 123 147 180 224
#     4   8  14  23  33  47  70  98 124 151 185 223
#     4   9  17  28  41  55  72  98 129 159 192 225
#     4   8  13  21  33  51  76 102 125 150 182 221
#
# _framework density 20.715475999999999
#
# number of rings (size 3 to 8) (size 9 to 14) (size 15 to 20)
#    0.000    3.600    0.000    3.600    0.000    5.200 
#    0.000    0.000    0.000    0.600    0.000    0.000 
#    0.000   12.800    0.000    3.200    0.000    0.000 
#
# Total GULP energy -223175.846372 kJ/mol
# GULP energy per Si atom -5579.396159 kJ/mol
# Density = 2.066833 g / cm^3
# Si number density = 20.715476 Si / 1000 Ang^3
#
#
#
# Elastic Constant Matrix: (Units=GPa)
#
#
# Indices 1 2 3 4 5 6 
#
# 1 84.1502 -1.9140 25.6936 0.0000 0.0000 0.0000
# 2 -1.9140 88.1436 -4.5449 0.0000 0.0000 0.0000
# 3 25.6936 -4.5449 77.9490 0.0000 0.0000 0.0000
# 4 0.0000 0.0000 0.0000 -0.1820 0.0000 0.0000
# 5 0.0000 0.0000 0.0000 0.0000 4.3463 0.0000
# 6 0.0000 0.0000 0.0000 0.0000 0.0000 -49.3331
#
#
#
# Elastic Compliance Matrix: (Units=1/GPa)
#
#
# Indices 1 2 3 4 5 6 
#
# 1 0.013214 0.000063 -0.004352 0.000000 0.000000 0.000000
# 2 0.000063 0.011380 0.000643 0.000000 0.000000 0.000000
# 3 -0.004352 0.000643 0.014301 0.000000 0.000000 0.000000
# 4 0.000000 0.000000 0.000000 -5.495164 0.000000 0.000000
# 5 0.000000 0.000000 0.000000 0.000000 0.230079 0.000000
# 6 0.000000 0.000000 0.000000 0.000000 0.000000 -0.020270
#
#
# Mechanical properties :
#
#
# Convention : Reuss Voigt Hill
#
# Bulk Modulus (GPa) = 31.64427 32.07914 31.86170
# Shear Modulus (GPa) = -0.95627 6.36678 2.70526
#
# Velocity S-wave (km/s) = -0.68016 1.75503 1.14400
# Velocity P-wave (km/s) = 3.83301 4.43013 4.14234
#
# Compressibility (1/GPa) = 0.03160130
#
# Stress axis : x y z
#
# Youngs Moduli (GPa) = 75.67915 87.87633 69.92594
#
# Poissons Ratio (x) = -0.00550 0.30431
# Poissons Ratio (y) = -0.00473 -0.04495
# Poissons Ratio (z) = 0.32934 -0.05649
#
# Static dielectric constant tensor:
#      x y z
#    x 1.712790 0.000000 0.000000 
#    y 0.000000 1.907390 0.000000 
#    z 0.000000 0.000000 1.727270 
# 
# From -- ./inp_files/52178.got.cif
#   From: 2010.05.17/outbox.cif.g08.bks.cpg/sg74_27_cif.got.tgz:52178.got - 2010.06.03 17:57:02.
