data_PCOD9540817
_publ_section_title
;
Structure prediction by ZEFSAII (Michael W. Deem and Ramdas Pophale) SiO2 
 PCOD9540817
Probable space group: I M M A
;
_chemical_formula_sum "Si O2"
_cell_formula_units_Z 36
_cell_length_a 9.000000
_cell_length_b 24.000000
_cell_length_c 18.000000
_cell_angle_alpha 90.000000
_cell_angle_beta 90.000000
_cell_angle_gamma 90.000000
_cell_volume 3888.000000
_symmetry_space_group_name_H-M "I M M A"
_symmetry_group_IT_number 74
_symmetry_cell_setting 'orthorhombic'
loop_
_space_group_symop_operation_xyz
x,y,z
-x,1/2-y,z
x,-y,-z
-x,1/2+y,-z
-x,-y,-z
x,1/2+y,-z
-x,y,z
x,1/2-y,z
1/2+x,1/2+y,1/2+z
1/2-x,-y,1/2+z
1/2+x,1/2-y,1/2-z
1/2-x,y,1/2-z
1/2-x,1/2-y,1/2-z
1/2+x,y,1/2-z
1/2-x,1/2+y,1/2+z
1/2+x,-y,1/2+z
loop_
_atom_site_type_symbol
_atom_site_label
_atom_site_fract_x
_atom_site_fract_y
_atom_site_fract_z
Si Si1 0.821098 0.873763 0.667045
Si Si2 0.677959 0.750000 0.831193
Si Si3 0.171389 0.583126 0.171209
Si Si4 0.673552 0.972346 0.575711
Si Si5 0.822343 0.810622 0.332754
O O1 0.750000 0.880111 0.750000
O O2 0.782906 0.811148 0.637430
O O3 0.759203 0.920855 0.612040
O O4 0.000000 0.878384 0.673687
O O5 0.500000 0.750000 0.824378
O O6 0.750000 0.750000 0.750000
O O7 0.250000 0.576133 0.250000
O O8 0.177440 0.524263 0.131560
O O9 0.253847 0.634387 0.130545
O O10 0.000000 0.599082 0.181052
O O11 0.500000 0.956379 0.563169
O O12 0.733114 0.000000 0.500000
O O13 0.788291 0.750000 0.366988
O O14 0.750000 0.809609 0.250000
O O15 0.000000 0.815518 0.327154
#
# Coordination Sequence:
#
# PCOD9540817 Si02
#       5
#    16   8  16  16  16
#     4  10  19  33  56  84 111 141 177 219 268 321
#     4   8  16  30  50  80 112 136 167 214 265 318
#     4  10  19  31  50  73  97 128 164 209 255 301
#     4  10  22  38  53  72 104 141 178 220 264 311
#     4   9  16  26  43  68  96 123 154 196 243 288
#
# _framework density 9.2592590000000001
#
# number of rings (size 3 to 8) (size 9 to 14) (size 15 to 20)
#    0.000    2.444    0.000    4.000    0.000    6.222 
#    0.000    0.000    2.444    0.000    0.000    0.000 
#    0.000    0.000    0.000    0.000    0.000    0.000 
#
# Total GULP energy -200449.411947 kJ/mol
# GULP energy per Si atom -5568.039221 kJ/mol
# Density = 0.923818 g / cm^3
# Si number density = 9.259259 Si / 1000 Ang^3
#
#
#
# Elastic Constant Matrix: (Units=GPa)
#
#
# Indices 1 2 3 4 5 6 
#
# 1 86.1330 58.3515 23.4194 0.0000 0.0000 0.0000
# 2 58.3515 164.1631 44.2633 0.0000 0.0000 0.0000
# 3 23.4194 44.2633 48.2307 -0.0001 0.0000 0.0000
# 4 0.0000 0.0000 -0.0001 0.9986 0.0000 0.0000
# 5 0.0000 0.0000 0.0000 0.0000 14.4753 0.0000
# 6 0.0000 0.0000 0.0000 0.0000 0.0000 43.8294
#
#
#
# Elastic Compliance Matrix: (Units=1/GPa)
#
#
# Indices 1 2 3 4 5 6 
#
# 1 0.015683 -0.004679 -0.003321 0.000000 0.000000 0.000000
# 2 -0.004679 0.009490 -0.006438 0.000000 0.000000 0.000000
# 3 -0.003321 -0.006438 0.028254 0.000002 0.000000 0.000000
# 4 0.000000 0.000000 0.000002 1.001434 0.000000 0.000000
# 5 0.000000 0.000000 0.000000 0.000000 0.069083 0.000000
# 6 0.000000 0.000000 0.000000 0.000000 0.000000 0.022816
#
#
# Mechanical properties :
#
#
# Convention : Reuss Voigt Hill
#
# Bulk Modulus (GPa) = 40.72965 61.17724 50.95344
# Shear Modulus (GPa) = 4.22361 23.36015 13.79188
#
# Velocity S-wave (km/s) = 1.51185 3.55554 2.73199
# Velocity P-wave (km/s) = 5.00893 7.06847 6.12587
#
# Compressibility (1/GPa) = 0.02455214
#
# Stress axis : x y z
#
# Youngs Moduli (GPa) = 63.76440 105.36900 35.39261
#
# Poissons Ratio (x) = 0.49302 0.11754
# Poissons Ratio (y) = 0.29835 0.22785
# Poissons Ratio (z) = 0.21176 0.67835
#
# Static dielectric constant tensor:
#      x y z
#    x 1.630840 0.000000 0.000000 
#    y 0.000000 1.717540 0.000000 
#    z 0.000000 0.000000 1.601940 
# 
# From -- ./inp_files/39443.got.cif
#   From: 2010.05.17/outbox.ucp.g08.bks.cvg/sg74_20_cif.got.tgz:39443.got - 2010.06.11 16:37:44.
