data_PCOD9540878
_publ_section_title
;
Structure prediction by ZEFSAII (Michael W. Deem and Ramdas Pophale) SiO2 
 PCOD9540878
Probable space group: I M M A
;
_chemical_formula_sum "Si O2"
_cell_formula_units_Z 48
_cell_length_a 15.000000
_cell_length_b 21.000000
_cell_length_c 15.000000
_cell_angle_alpha 90.000000
_cell_angle_beta 90.000000
_cell_angle_gamma 90.000000
_cell_volume 4725.000000
_symmetry_space_group_name_H-M "I M M A"
_symmetry_group_IT_number 74
_symmetry_cell_setting 'orthorhombic'
loop_
_space_group_symop_operation_xyz
x,y,z
-x,1/2-y,z
x,-y,-z
-x,1/2+y,-z
-x,-y,-z
x,1/2+y,-z
-x,y,z
x,1/2-y,z
1/2+x,1/2+y,1/2+z
1/2-x,-y,1/2+z
1/2+x,1/2-y,1/2-z
1/2-x,y,1/2-z
1/2-x,1/2-y,1/2-z
1/2+x,y,1/2-z
1/2-x,1/2+y,1/2+z
1/2+x,-y,1/2+z
loop_
_atom_site_type_symbol
_atom_site_label
_atom_site_fract_x
_atom_site_fract_y
_atom_site_fract_z
Si Si1 0.757266 0.423674 0.988708
Si Si2 0.894259 0.250000 0.063946
Si Si3 0.102986 0.517907 0.775046
Si Si4 0.595688 0.963152 0.093466
Si Si5 0.892948 0.614616 0.144118
Si Si6 0.208539 0.638237 0.842333
Si Si7 0.392050 0.250000 0.645223
O O1 0.729470 0.385273 0.076556
O O2 0.770816 0.500000 0.000000
O O3 0.679253 0.417433 0.916021
O O4 0.848587 0.395353 0.951847
O O5 0.856206 0.189957 0.116523
O O6 0.000000 0.250000 0.064920
O O7 0.867112 0.250000 0.959821
O O8 0.109275 0.515531 0.669067
O O9 0.134431 0.447988 0.802942
O O10 0.158240 0.573421 0.817298
O O11 0.000000 0.524866 0.801337
O O12 0.500000 0.931942 0.112795
O O13 0.590707 0.000000 0.000000
O O14 0.862974 0.682196 0.183143
O O15 0.000000 0.614611 0.137423
O O16 0.250000 0.661819 0.750000
O O17 0.500000 0.250000 0.649734
#
# Coordination Sequence:
#
# PCOD9540878 Si02
#       7
#    16   8  16  16  16  16   8
#     4  11  20  33  54  82 113 151 183 239 294 340
#     4  11  23  39  57  76 112 160 194 231 292 357
#     4  10  21  36  58  87 117 147 188 245 290 340
#     4   9  19  36  55  79 112 151 193 234 287 344
#     4  10  20  33  55  87 117 147 184 230 292 358
#     4  12  23  36  55  84 114 147 195 241 288 345
#     4   9  18  35  55  79 116 155 185 220 282 360
#
# _framework density 10.15873
#
# number of rings (size 3 to 8) (size 9 to 14) (size 15 to 20)
#    0.000    1.667    3.333    2.750    0.000    1.000 
#    0.000    0.833    0.000    3.000    0.000    5.250 
#    0.000    6.667    0.000    0.000    0.000    0.000 
#
# Total GULP energy -267274.258004 kJ/mol
# GULP energy per Si atom -5568.213708 kJ/mol
# Density = 1.013561 g / cm^3
# Si number density = 10.158730 Si / 1000 Ang^3
#
#
#
# Elastic Constant Matrix: (Units=GPa)
#
#
# Indices 1 2 3 4 5 6 
#
# 1 42.5501 31.6928 12.6323 0.0001 0.0000 0.0000
# 2 31.6928 110.8427 12.9998 -0.0001 0.0000 0.0000
# 3 12.6323 12.9998 15.2277 -0.0003 0.0000 0.0001
# 4 0.0001 -0.0001 -0.0003 31.7322 0.0000 0.0000
# 5 0.0000 0.0000 0.0000 0.0000 20.3859 0.0000
# 6 0.0000 0.0000 0.0001 0.0000 0.0000 7.0602
#
#
#
# Elastic Compliance Matrix: (Units=1/GPa)
#
#
# Indices 1 2 3 4 5 6 
#
# 1 0.036117 -0.007571 -0.023498 0.000000 0.000000 0.000000
# 2 -0.007571 0.011613 -0.003633 0.000000 0.000000 0.000000
# 3 -0.023498 -0.003633 0.088264 0.000001 0.000000 -0.000001
# 4 0.000000 0.000000 0.000001 0.031514 0.000000 0.000000
# 5 0.000000 0.000000 0.000000 0.000000 0.049054 0.000000
# 6 0.000000 0.000000 -0.000001 0.000000 0.000000 0.141640
#
#
# Mechanical properties :
#
#
# Convention : Reuss Voigt Hill
#
# Bulk Modulus (GPa) = 15.01728 31.47446 23.24587
# Shear Modulus (GPa) = 11.11603 19.25535 15.18569
#
# Velocity S-wave (km/s) = 2.34159 3.08185 2.73687
# Velocity P-wave (km/s) = 3.83642 5.30931 4.63178
#
# Compressibility (1/GPa) = 0.06658997
#
# Stress axis : x y z
#
# Youngs Moduli (GPa) = 27.68794 86.11338 11.32964
#
# Poissons Ratio (x) = 0.65195 0.26622
# Poissons Ratio (y) = 0.20962 0.04116
# Poissons Ratio (z) = 0.65060 0.31286
#
# Static dielectric constant tensor:
#      x y z
#    x 1.810840 0.000000 0.000000 
#    y 0.000000 1.644440 0.000000 
#    z 0.000000 0.000000 1.933070 
# 
# From -- ./inp_files/32459.got.cif
#   From: 2010.05.17/outbox.ucp.g08.bks.cvg/sg74_17_cif.got.tgz:32459.got - 2010.06.11 16:37:44.
