data_PCOD9540434
_publ_section_title
;
Structure prediction by ZEFSAII (Michael W. Deem and Ramdas Pophale) SiO2 
 PCOD9540434
Probable space group: I M M A
;
_chemical_formula_sum "Si O2"
_cell_formula_units_Z 48
_cell_length_a 26.189487
_cell_length_b 15.700844
_cell_length_c 4.781022
_cell_angle_alpha 90.000000
_cell_angle_beta 90.000000
_cell_angle_gamma 90.000000
_cell_volume 1965.942142
_symmetry_space_group_name_H-M "I M M A"
_symmetry_group_IT_number 74
_symmetry_cell_setting 'orthorhombic'
loop_
_space_group_symop_operation_xyz
x,y,z
-x,1/2-y,z
x,-y,-z
-x,1/2+y,-z
-x,-y,-z
x,1/2+y,-z
-x,y,z
x,1/2-y,z
1/2+x,1/2+y,1/2+z
1/2-x,-y,1/2+z
1/2+x,1/2-y,1/2-z
1/2-x,y,1/2-z
1/2-x,1/2-y,1/2-z
1/2+x,y,1/2-z
1/2-x,1/2+y,1/2+z
1/2+x,-y,1/2+z
loop_
_atom_site_type_symbol
_atom_site_label
_atom_site_fract_x
_atom_site_fract_y
_atom_site_fract_z
Si Si1 0.286009 0.347152 0.484680
Si Si2 0.387102 0.153094 0.779737
Si Si3 0.941712 0.084422 0.186719
O O1 0.298265 0.250000 0.384017
O O2 0.250000 0.389493 0.250000
O O3 0.338695 0.383483 0.606359
O O4 0.250000 0.340668 0.750000
O O5 0.374442 0.250000 0.865733
O O6 0.431532 0.154656 0.549299
O O7 0.405022 0.101225 0.050553
O O8 0.000000 0.084164 0.288527
O O9 0.933274 0.000000 0.000000
#
# Coordination Sequence:
#
# PCOD9540434 Si02
#       3
#    16  16  16
#     4   9  17  31  53  84 121 155 191 244 312 381
#     4  11  22  37  62  93 121 159 217 275 321 375
#     4  11  24  41  59  83 123 173 218 265 330 396
#
# _framework density 24.415773000000002
#
# number of rings (size 3 to 8) (size 9 to 14) (size 15 to 20)
#    0.000    1.667    0.000    5.000    0.000   12.000 
#    0.000    0.000    0.000    6.000    0.000    0.000 
#    0.000    0.000    0.000    0.000    0.000   23.000 
#
# Total GULP energy -134013.794460 kJ/mol
# GULP energy per Si atom -5583.908102 kJ/mol
# Density = 2.436020 g / cm^3
# Si number density = 24.415773 Si / 1000 Ang^3
#
#
#
# Elastic Constant Matrix: (Units=GPa)
#
#
# Indices 1 2 3 4 5 6 
#
# 1 161.9791 38.9675 87.1340 0.0000 0.0000 0.0000
# 2 38.9675 63.1065 35.9013 0.0000 0.0000 0.0000
# 3 87.1340 35.9013 200.0989 0.0000 0.0000 -0.0001
# 4 0.0000 0.0000 0.0000 31.8109 0.0000 0.0000
# 5 0.0000 0.0000 0.0000 0.0000 67.3766 0.0000
# 6 0.0000 0.0000 -0.0001 0.0000 0.0000 59.3603
#
#
#
# Elastic Compliance Matrix: (Units=1/GPa)
#
#
# Indices 1 2 3 4 5 6 
#
# 1 0.008739 -0.003599 -0.003160 0.000000 0.000000 0.000000
# 2 -0.003599 0.019129 -0.001865 0.000000 0.000000 0.000000
# 3 -0.003160 -0.001865 0.006708 0.000000 0.000000 0.000000
# 4 0.000000 0.000000 0.000000 0.031436 0.000000 0.000000
# 5 0.000000 0.000000 0.000000 0.000000 0.014842 0.000000
# 6 0.000000 0.000000 0.000000 0.000000 0.000000 0.016846
#
#
# Mechanical properties :
#
#
# Convention : Reuss Voigt Hill
#
# Bulk Modulus (GPa) = 57.70521 83.24335 70.47428
# Shear Modulus (GPa) = 41.41665 49.25501 45.33583
#
# Velocity S-wave (km/s) = 4.12309 4.49636 4.31376
# Velocity P-wave (km/s) = 6.80825 7.81821 7.33064
#
# Compressibility (1/GPa) = 0.01732946
#
# Stress axis : x y z
#
# Youngs Moduli (GPa) = 114.42743 52.27550 149.07288
#
# Poissons Ratio (x) = 0.18812 0.47105
# Poissons Ratio (y) = 0.41179 0.27803
# Poissons Ratio (z) = 0.36157 0.09750
#
# Static dielectric constant tensor:
#      x y z
#    x 2.022920 0.000000 0.000000 
#    y 0.000000 2.095640 0.000000 
#    z 0.000000 0.000000 1.908300 
# 
# From -- ./inp_files/3431.got.cif
#   From: 2010.05.17/outbox.cif.g08.bks.cpg/sg74_2_cif.got.tgz:3431.got - 2010.06.03 17:57:02.
