data_PCOD9540030
_publ_section_title
;
Structure prediction by ZEFSAII (Michael W. Deem and Ramdas Pophale) SiO2 
 PCOD9540030
Probable space group: I M M A
;
_chemical_formula_sum "Si O2"
_cell_formula_units_Z 60
_cell_length_a 14.356839
_cell_length_b 15.360621
_cell_length_c 14.053096
_cell_angle_alpha 90.000000
_cell_angle_beta 90.000000
_cell_angle_gamma 90.000000
_cell_volume 3099.128736
_symmetry_space_group_name_H-M "I M M A"
_symmetry_group_IT_number 74
_symmetry_cell_setting 'orthorhombic'
loop_
_space_group_symop_operation_xyz
x,y,z
-x,1/2-y,z
x,-y,-z
-x,1/2+y,-z
-x,-y,-z
x,1/2+y,-z
-x,y,z
x,1/2-y,z
1/2+x,1/2+y,1/2+z
1/2-x,-y,1/2+z
1/2+x,1/2-y,1/2-z
1/2-x,y,1/2-z
1/2-x,1/2-y,1/2-z
1/2+x,y,1/2-z
1/2-x,1/2+y,1/2+z
1/2+x,-y,1/2+z
loop_
_atom_site_type_symbol
_atom_site_label
_atom_site_fract_x
_atom_site_fract_y
_atom_site_fract_z
Si Si1 0.360878 0.346119 0.391245
Si Si2 0.000000 0.576155 0.752293
Si Si3 0.338094 0.750000 0.179671
Si Si4 0.500000 0.750000 0.871237
Si Si5 0.000000 0.883648 0.269496
Si Si6 0.802216 0.250000 0.459889
Si Si7 0.000000 0.097918 0.958188
O O1 0.388688 0.250000 0.353682
O O2 0.408120 0.414277 0.320269
O O3 0.252103 0.332582 0.412225
O O4 0.410540 0.358666 0.492518
O O5 0.000000 0.660483 0.687146
O O6 0.000000 0.484379 0.699843
O O7 0.250000 0.750000 0.250000
O O8 0.408007 0.668311 0.197357
O O9 0.297155 0.750000 0.073179
O O10 0.408195 0.750000 0.933597
O O11 0.000000 0.890162 0.154009
O O12 0.000000 0.000000 0.000000
#
# Coordination Sequence:
#
# PCOD9540030 Si02
#       7
#    16   8   8   4   8   8   8
#     4   9  19  36  62  89 126 154 211 258 319 384
#     4  11  20  40  63 104 124 160 203 281 338 378
#     4  11  24  46  63  87 129 176 225 256 314 381
#     4  12  22  42  64  88 134 170 210 252 324 390
#     4  11  24  38  65  93 130 167 213 271 319 383
#     4  10  23  41  64  85 121 187 213 252 306 389
#     4  11  17  31  59  96 124 149 200 270 330 370
#
# _framework density 19.360279999999999
#
# number of rings (size 3 to 8) (size 9 to 14) (size 15 to 20)
#    0.800    0.800    4.000    3.600    3.733    2.133 
#    4.800    2.667    0.000    0.000    0.000    0.000 
#    0.000    0.000    0.000    0.000    0.000    0.000 
#
# Total GULP energy -167072.880369 kJ/mol
# GULP energy per Si atom -5569.096012 kJ/mol
# Density = 1.931622 g / cm^3
# Si number density = 19.360280 Si / 1000 Ang^3
#
#
#
# Elastic Constant Matrix: (Units=GPa)
#
#
# Indices 1 2 3 4 5 6 
#
# 1 149.9332 31.0057 24.6895 0.0000 0.0000 0.0000
# 2 31.0057 118.4173 16.0371 0.0000 0.0000 0.0000
# 3 24.6895 16.0371 53.8976 0.0000 0.0000 0.0000
# 4 0.0000 0.0000 0.0000 21.8069 0.0000 0.0000
# 5 0.0000 0.0000 0.0000 0.0000 44.0587 0.0000
# 6 0.0000 0.0000 0.0000 0.0000 0.0000 -12.9518
#
#
#
# Elastic Compliance Matrix: (Units=1/GPa)
#
#
# Indices 1 2 3 4 5 6 
#
# 1 0.007480 -0.001557 -0.002963 0.000000 0.000000 0.000000
# 2 -0.001557 0.009123 -0.002001 0.000000 0.000000 0.000000
# 3 -0.002963 -0.002001 0.020506 0.000000 0.000000 0.000000
# 4 0.000000 0.000000 0.000000 0.045857 0.000000 0.000000
# 5 0.000000 0.000000 0.000000 0.000000 0.022697 0.000000
# 6 0.000000 0.000000 0.000000 0.000000 0.000000 -0.077210
#
#
# Mechanical properties :
#
#
# Convention : Reuss Voigt Hill
#
# Bulk Modulus (GPa) = 41.55130 51.74585 46.64858
# Shear Modulus (GPa) = 100.97144 27.28383 64.12764
#
# Velocity S-wave (km/s) = 7.22960 3.75810 5.76153
# Velocity P-wave (km/s) = 9.54978 6.75403 8.27089
#
# Compressibility (1/GPa) = 0.02406664
#
# Stress axis : x y z
#
# Youngs Moduli (GPa) = 133.69775 109.60751 48.76506
#
# Poissons Ratio (x) = 0.17067 0.14449
# Poissons Ratio (y) = 0.20819 0.09760
# Poissons Ratio (z) = 0.39614 0.21936
#
# Static dielectric constant tensor:
#      x y z
#    x 1.635330 0.000000 0.000000 
#    y 0.000000 1.712900 0.000000 
#    z 0.000000 0.000000 1.693840 
# 
# From -- ./inp_files/31748.got.cif
#   From: 2010.05.17/outbox.cif.g08.bks.cpg/sg74_16_cif.got.tgz:31748.got - 2010.06.03 17:57:02.
