data_PCOD9540094
_publ_section_title
;
Structure prediction by ZEFSAII (Michael W. Deem and Ramdas Pophale) SiO2 
 PCOD9540094
Probable space group: I M M A
;
_chemical_formula_sum "Si O2"
_cell_formula_units_Z 56
_cell_length_a 24.631774
_cell_length_b 10.812441
_cell_length_c 10.488861
_cell_angle_alpha 90.000000
_cell_angle_beta 90.000000
_cell_angle_gamma 90.000000
_cell_volume 2793.494187
_symmetry_space_group_name_H-M "I M M A"
_symmetry_group_IT_number 74
_symmetry_cell_setting 'orthorhombic'
loop_
_space_group_symop_operation_xyz
x,y,z
-x,1/2-y,z
x,-y,-z
-x,1/2+y,-z
-x,-y,-z
x,1/2+y,-z
-x,y,z
x,1/2-y,z
1/2+x,1/2+y,1/2+z
1/2-x,-y,1/2+z
1/2+x,1/2-y,1/2-z
1/2-x,y,1/2-z
1/2-x,1/2-y,1/2-z
1/2+x,y,1/2-z
1/2-x,1/2+y,1/2+z
1/2+x,-y,1/2+z
loop_
_atom_site_type_symbol
_atom_site_label
_atom_site_fract_x
_atom_site_fract_y
_atom_site_fract_z
Si Si1 0.316359 0.500000 0.000000
Si Si2 0.936422 0.250000 0.861453
Si Si3 0.563709 0.250000 0.331400
Si Si4 0.279499 0.118763 0.387179
Si Si5 0.124690 0.495388 0.769509
O O1 0.271149 0.606789 0.982022
O O2 0.351729 0.485600 0.873684
O O3 0.908462 0.374257 0.808278
O O4 0.000000 0.250000 0.826652
O O5 0.933005 0.250000 0.014845
O O6 0.500000 0.250000 0.296840
O O7 0.590965 0.123283 0.280782
O O8 0.307667 0.250000 0.409736
O O9 0.250000 0.121995 0.250000
O O10 0.324173 0.013435 0.365385
#
# Coordination Sequence:
#
# PCOD9540094 Si02
#       5
#     8   8   8  16  16
#     4  10  24  38  63 102 139 164 208 266 320 406
#     4  11  26  45  66  94 129 167 225 285 325 375
#     4  11  24  45  70  90 119 171 233 275 319 383
#     4   9  19  37  59  88 128 172 207 243 303 386
#     4  11  23  42  67  99 131 174 213 269 331 382
#
# _framework density 20.046579000000001
#
# number of rings (size 3 to 8) (size 9 to 14) (size 15 to 20)
#    0.000    1.714    1.429    1.714    8.000    2.286 
#    0.000    6.429    0.000    0.000    0.000    0.000 
#    0.000    0.000    0.000    0.000    0.000    0.000 
#
# Total GULP energy -156127.089525 kJ/mol
# GULP energy per Si atom -5575.967483 kJ/mol
# Density = 2.000095 g / cm^3
# Si number density = 20.046579 Si / 1000 Ang^3
#
#
#
# Elastic Constant Matrix: (Units=GPa)
#
#
# Indices 1 2 3 4 5 6 
#
# 1 165.9479 95.6768 74.4778 0.0000 0.0000 0.0000
# 2 95.6768 174.1902 53.5909 0.0000 0.0000 0.0000
# 3 74.4778 53.5909 127.3949 0.0000 0.0000 0.0000
# 4 0.0000 0.0000 0.0000 -10.4944 0.0000 0.0000
# 5 0.0000 0.0000 0.0000 0.0000 39.7689 0.0000
# 6 0.0000 0.0000 0.0000 0.0000 0.0000 41.1070
#
#
#
# Elastic Compliance Matrix: (Units=1/GPa)
#
#
# Indices 1 2 3 4 5 6 
#
# 1 0.010515 -0.004462 -0.004270 0.000000 0.000000 0.000000
# 2 -0.004462 0.008487 -0.000962 0.000000 0.000000 0.000000
# 3 -0.004270 -0.000962 0.010751 0.000000 0.000000 0.000000
# 4 0.000000 0.000000 0.000000 -0.095289 0.000000 0.000000
# 5 0.000000 0.000000 0.000000 0.000000 0.025145 0.000000
# 6 0.000000 0.000000 0.000000 0.000000 0.000000 0.024327
#
#
# Mechanical properties :
#
#
# Convention : Reuss Voigt Hill
#
# Bulk Modulus (GPa) = 96.47741 101.66936 99.07338
# Shear Modulus (GPa) = 737.56965 30.32882 383.94924
#
# Velocity S-wave (km/s) = 19.20226 3.89384 13.85440
# Velocity P-wave (km/s) = 23.23503 8.42868 17.47726
#
# Compressibility (1/GPa) = 0.01036512
#
# Stress axis : x y z
#
# Youngs Moduli (GPa) = 95.10312 117.82074 93.01600
#
# Poissons Ratio (x) = 0.52568 0.39721
# Poissons Ratio (y) = 0.42432 0.08948
# Poissons Ratio (z) = 0.40612 0.11334
#
# Static dielectric constant tensor:
#      x y z
#    x 1.699360 0.000000 0.000000 
#    y 0.000000 1.817280 0.000000 
#    z 0.000000 0.000000 1.721540 
# 
# From -- ./inp_files/26724.got.cif
#   From: 2010.05.17/outbox.cif.g08.bks.cpg/sg74_14_cif.got.tgz:26724.got - 2010.06.03 17:57:02.
