data_PCOD9540860
_publ_section_title
;
Structure prediction by ZEFSAII (Michael W. Deem and Ramdas Pophale) SiO2 
 PCOD9540860
Probable space group: I M M A
;
_chemical_formula_sum "Si O2"
_cell_formula_units_Z 44
_cell_length_a 9.000000
_cell_length_b 18.000000
_cell_length_c 30.000000
_cell_angle_alpha 90.000000
_cell_angle_beta 90.000000
_cell_angle_gamma 90.000000
_cell_volume 4860.000000
_symmetry_space_group_name_H-M "I M M A"
_symmetry_group_IT_number 74
_symmetry_cell_setting 'orthorhombic'
loop_
_space_group_symop_operation_xyz
x,y,z
-x,1/2-y,z
x,-y,-z
-x,1/2+y,-z
-x,-y,-z
x,1/2+y,-z
-x,y,z
x,1/2-y,z
1/2+x,1/2+y,1/2+z
1/2-x,-y,1/2+z
1/2+x,1/2-y,1/2-z
1/2-x,y,1/2-z
1/2-x,1/2-y,1/2-z
1/2+x,y,1/2-z
1/2-x,1/2+y,1/2+z
1/2+x,-y,1/2+z
loop_
_atom_site_type_symbol
_atom_site_label
_atom_site_fract_x
_atom_site_fract_y
_atom_site_fract_z
Si Si1 0.819956 0.059714 0.300363
Si Si2 0.178974 0.596802 0.348532
Si Si3 0.179830 0.160199 0.388189
Si Si4 0.821199 0.919869 0.976356
Si Si5 0.678309 0.335787 0.566750
Si Si6 0.821235 0.250000 0.701642
O O1 0.750000 0.069468 0.250000
O O2 0.782080 0.120288 0.339990
O O3 0.000000 0.061505 0.295283
O O4 0.778719 0.978255 0.321495
O O5 0.249109 0.608268 0.397473
O O6 0.221645 0.673208 0.322971
O O7 0.000000 0.594996 0.352766
O O8 0.219771 0.250000 0.389371
O O9 0.247910 0.112008 0.430156
O O10 0.000000 0.156391 0.391997
O O11 0.000000 0.924028 0.968739
O O12 0.790305 0.861139 0.016184
O O13 0.778733 0.000000 0.000000
O O14 0.500000 0.338578 0.572598
O O15 0.727255 0.250000 0.574112
O O16 0.750000 0.250000 0.750000
O O17 0.000000 0.250000 0.704709
#
# Coordination Sequence:
#
# PCOD9540860 Si02
#       6
#    16  16  16  16  16   8
#     4  10  22  39  59  83 111 144 185 237 291 342
#     4  10  20  35  53  77 109 144 186 232 279 337
#     4  10  22  40  60  85 117 152 193 239 286 340
#     4  10  21  37  58  86 118 151 189 234 284 341
#     4  10  20  33  51  78 111 146 184 226 272 326
#     4  10  20  32  48  72 102 138 182 228 273 328
#
# _framework density 9.0534979999999994
#
# number of rings (size 3 to 8) (size 9 to 14) (size 15 to 20)
#    0.000    2.000    0.909    2.182    0.000    4.727 
#    0.000    0.000    0.000    0.000    0.000    0.000 
#    0.000    0.000    0.000    0.000    0.000    0.000 
#
# Total GULP energy -245276.049214 kJ/mol
# GULP energy per Si atom -5574.455664 kJ/mol
# Density = 0.903289 g / cm^3
# Si number density = 9.053498 Si / 1000 Ang^3
#
#
#
# Elastic Constant Matrix: (Units=GPa)
#
#
# Indices 1 2 3 4 5 6 
#
# 1 27.6907 25.0261 39.7537 0.0000 0.0000 0.0000
# 2 25.0261 139.6865 68.2043 0.0000 0.0000 0.0000
# 3 39.7537 68.2043 181.1970 0.0000 0.0000 0.0000
# 4 0.0000 0.0000 0.0000 40.9031 0.0000 0.0000
# 5 0.0000 0.0000 0.0000 0.0000 41.6147 0.0000
# 6 0.0000 0.0000 0.0000 0.0000 0.0000 23.0656
#
#
#
# Elastic Compliance Matrix: (Units=1/GPa)
#
#
# Indices 1 2 3 4 5 6 
#
# 1 0.055307 -0.004881 -0.010297 0.000000 0.000000 0.000000
# 2 -0.004881 0.009202 -0.002393 0.000000 0.000000 0.000000
# 3 -0.010297 -0.002393 0.008679 0.000000 0.000000 0.000000
# 4 0.000000 0.000000 0.000000 0.024448 0.000000 0.000000
# 5 0.000000 0.000000 0.000000 0.000000 0.024030 0.000000
# 6 0.000000 0.000000 0.000000 0.000000 0.000000 0.043355
#
#
# Mechanical properties :
#
#
# Convention : Reuss Voigt Hill
#
# Bulk Modulus (GPa) = 26.28393 68.28247 47.28320
# Shear Modulus (GPa) = 23.49145 35.48934 29.49039
#
# Velocity S-wave (km/s) = 3.60581 4.43197 4.04006
# Velocity P-wave (km/s) = 5.64652 7.99889 6.92334
#
# Compressibility (1/GPa) = 0.03804606
#
# Stress axis : x y z
#
# Youngs Moduli (GPa) = 18.08084 108.67590 115.22672
#
# Poissons Ratio (x) = 0.53047 1.18646
# Poissons Ratio (y) = 0.08826 0.27570
# Poissons Ratio (z) = 0.18617 0.26003
#
# Static dielectric constant tensor:
#      x y z
#    x 1.617050 0.000000 0.000000 
#    y 0.000000 1.657570 0.000000 
#    z 0.000000 0.000000 1.621980 
# 
# From -- ./inp_files/70206.got.cif
#   From: 2010.05.17/outbox.ucp.g08.bks.cvg/sg74_36_cif.got.tgz:70206.got - 2010.06.11 16:37:44.
