data_PCOD9540776
_publ_section_title
;
Structure prediction by ZEFSAII (Michael W. Deem and Ramdas Pophale) SiO2 
 PCOD9540776
Probable space group: I M M A
;
_chemical_formula_sum "Si O2"
_cell_formula_units_Z 64
_cell_length_a 19.092468
_cell_length_b 28.276484
_cell_length_c 5.357562
_cell_angle_alpha 90.000000
_cell_angle_beta 90.000000
_cell_angle_gamma 90.000000
_cell_volume 2892.375563
_symmetry_space_group_name_H-M "I M M A"
_symmetry_group_IT_number 74
_symmetry_cell_setting 'orthorhombic'
loop_
_space_group_symop_operation_xyz
x,y,z
-x,1/2-y,z
x,-y,-z
-x,1/2+y,-z
-x,-y,-z
x,1/2+y,-z
-x,y,z
x,1/2-y,z
1/2+x,1/2+y,1/2+z
1/2-x,-y,1/2+z
1/2+x,1/2-y,1/2-z
1/2-x,y,1/2-z
1/2-x,1/2-y,1/2-z
1/2+x,y,1/2-z
1/2-x,1/2+y,1/2+z
1/2+x,-y,1/2+z
loop_
_atom_site_type_symbol
_atom_site_label
_atom_site_fract_x
_atom_site_fract_y
_atom_site_fract_z
Si Si1 0.085480 0.553617 0.566185
Si Si2 0.080963 0.804102 0.775096
Si Si3 0.714610 0.806807 0.003100
Si Si4 0.415195 0.395321 0.570990
O O1 0.105032 0.500000 0.500000
O O2 0.108679 0.572286 0.836808
O O3 0.000000 0.555257 0.572461
O O4 0.110365 0.586405 0.337419
O O5 0.090635 0.750000 0.861943
O O6 0.132126 0.811999 0.543241
O O7 0.098768 0.841721 0.987459
O O8 0.000000 0.810762 0.703042
O O9 0.727422 0.750000 0.006297
O O10 0.750000 0.826781 0.250000
O O11 0.750000 0.825379 0.750000
O O12 0.500000 0.399459 0.581239
#
# Coordination Sequence:
#
# PCOD9540776 Si02
#       4
#    16  16  16  16
#     4   9  16  27  43  63  91 128 167 210 263 318
#     4   9  18  33  52  76 108 145 184 231 288 344
#     4   9  18  33  51  70  96 135 182 227 271 324
#     4   9  17  28  43  66  95 128 169 214 263 323
#
# _framework density 22.127141000000002
#
# number of rings (size 3 to 8) (size 9 to 14) (size 15 to 20)
#    0.000    3.000    0.000    0.750    0.000    5.000 
#    0.000    7.500    0.000   21.000    0.000    0.000 
#    0.000    6.000    0.000    0.250    0.000    0.500 
#
# Total GULP energy -178703.799246 kJ/mol
# GULP energy per Si atom -5584.493726 kJ/mol
# Density = 2.207678 g / cm^3
# Si number density = 22.127141 Si / 1000 Ang^3
#
#
#
# Elastic Constant Matrix: (Units=GPa)
#
#
# Indices 1 2 3 4 5 6 
#
# 1 58.2949 13.4477 22.3725 0.0000 0.0000 0.0000
# 2 13.4477 90.7621 23.7845 0.0000 0.0000 0.0000
# 3 22.3725 23.7845 114.4576 0.0000 0.0000 0.0000
# 4 0.0000 0.0000 0.0000 24.2441 0.0000 0.0000
# 5 0.0000 0.0000 0.0000 0.0000 17.3692 0.0000
# 6 0.0000 0.0000 0.0000 0.0000 0.0000 4.0637
#
#
#
# Elastic Compliance Matrix: (Units=1/GPa)
#
#
# Indices 1 2 3 4 5 6 
#
# 1 0.018861 -0.001934 -0.003285 0.000000 0.000000 0.000000
# 2 -0.001934 0.011851 -0.002085 0.000000 0.000000 0.000000
# 3 -0.003285 -0.002085 0.009812 0.000000 0.000000 0.000000
# 4 0.000000 0.000000 0.000000 0.041247 0.000000 0.000000
# 5 0.000000 0.000000 0.000000 0.000000 0.057573 0.000000
# 6 0.000000 0.000000 0.000000 0.000000 0.000000 0.246083
#
#
# Mechanical properties :
#
#
# Convention : Reuss Voigt Hill
#
# Bulk Modulus (GPa) = 38.58424 42.52490 40.55457
# Shear Modulus (GPa) = 12.23473 22.72937 17.48205
#
# Velocity S-wave (km/s) = 2.35399 3.20850 2.81387
# Velocity P-wave (km/s) = 4.98636 5.74335 5.37819
#
# Compressibility (1/GPa) = 0.02591732
#
# Stress axis : x y z
#
# Youngs Moduli (GPa) = 53.01975 84.38392 101.91482
#
# Poissons Ratio (x) = 0.16317 0.33477
# Poissons Ratio (y) = 0.10253 0.21245
# Poissons Ratio (z) = 0.17416 0.17591
#
# Static dielectric constant tensor:
#      x y z
#    x 1.828770 0.000000 0.000000 
#    y 0.000000 1.830390 0.000000 
#    z 0.000000 0.000000 1.820240 
# 
# From -- ./inp_files/3180.got.cif
#   From: 2010.05.17/outbox.cif.g08.bks.cpg/sg74_2_cif.got.tgz:3180.got - 2010.06.03 17:57:02.
