data_PCOD9540319
_publ_section_title
;
Structure prediction by ZEFSAII (Michael W. Deem and Ramdas Pophale) SiO2 
 PCOD9540319
Probable space group: I M M A
;
_chemical_formula_sum "Si O2"
_cell_formula_units_Z 96
_cell_length_a 8.727020
_cell_length_b 20.698887
_cell_length_c 29.287272
_cell_angle_alpha 90.000000
_cell_angle_beta 90.000000
_cell_angle_gamma 90.000000
_cell_volume 5290.441123
_symmetry_space_group_name_H-M "I M M A"
_symmetry_group_IT_number 74
_symmetry_cell_setting 'orthorhombic'
loop_
_space_group_symop_operation_xyz
x,y,z
-x,1/2-y,z
x,-y,-z
-x,1/2+y,-z
-x,-y,-z
x,1/2+y,-z
-x,y,z
x,1/2-y,z
1/2+x,1/2+y,1/2+z
1/2-x,-y,1/2+z
1/2+x,1/2-y,1/2-z
1/2-x,y,1/2-z
1/2-x,1/2-y,1/2-z
1/2+x,y,1/2-z
1/2-x,1/2+y,1/2+z
1/2+x,-y,1/2+z
loop_
_atom_site_type_symbol
_atom_site_label
_atom_site_fract_x
_atom_site_fract_y
_atom_site_fract_z
Si Si1 0.684916 0.181203 0.699327
Si Si2 0.822359 0.399428 0.467057
Si Si3 0.683132 0.674209 0.618515
Si Si4 0.178803 0.049906 0.561933
Si Si5 0.681247 0.046008 0.659164
Si Si6 0.682860 0.914341 0.800689
O O1 0.500000 0.179206 0.700301
O O2 0.729277 0.250000 0.676898
O O3 0.750000 0.182530 0.750000
O O4 0.738197 0.114461 0.678059
O O5 0.732889 0.358274 0.429492
O O6 0.771003 0.404178 0.519950
O O7 0.819881 0.474723 0.452697
O O8 0.000000 0.378335 0.466377
O O9 0.500000 0.668867 0.622889
O O10 0.725350 0.750000 0.619221
O O11 0.757883 0.635748 0.660868
O O12 0.284934 0.051077 0.605702
O O13 0.000000 0.065098 0.572619
O O14 0.500000 0.038378 0.667728
O O15 0.765099 0.985208 0.681906
O O16 0.500000 0.911532 0.798595
O O17 0.750000 0.902363 0.750000
#
# Coordination Sequence:
#
# PCOD9540319 Si02
#       6
#    16  16  16  16  16  16
#     4   9  19  35  53  75 106 145 186 226 273 332
#     4   9  18  35  58  84 113 148 188 230 278 334
#     4  11  24  41  61  87 119 153 194 243 295 353
#     4   9  18  33  56  85 115 146 184 231 279 330
#     4  11  21  34  56  87 118 151 189 235 290 342
#     4  12  25  41  61  85 116 152 195 246 295 349
#
# _framework density 18.145935999999999
#
# number of rings (size 3 to 8) (size 9 to 14) (size 15 to 20)
#    0.000    1.833    1.667    4.000    0.000    5.000 
#    0.000    2.500    0.000    3.000    0.000    0.000 
#    0.000    0.000    0.000    0.000    0.000    0.000 
#
# Total GULP energy -267642.787482 kJ/mol
# GULP energy per Si atom -5575.891406 kJ/mol
# Density = 1.810464 g / cm^3
# Si number density = 18.145936 Si / 1000 Ang^3
#
#
#
# Elastic Constant Matrix: (Units=GPa)
#
#
# Indices 1 2 3 4 5 6 
#
# 1 59.4262 43.7336 28.4986 0.0000 0.0000 0.0000
# 2 43.7336 120.9828 42.9748 0.0000 0.0000 0.0000
# 3 28.4986 42.9748 73.4871 0.0000 0.0000 0.0000
# 4 0.0000 0.0000 0.0000 9.2875 0.0000 0.0000
# 5 0.0000 0.0000 0.0000 0.0000 33.2882 0.0000
# 6 0.0000 0.0000 0.0000 0.0000 0.0000 -39.8172
#
#
#
# Elastic Compliance Matrix: (Units=1/GPa)
#
#
# Indices 1 2 3 4 5 6 
#
# 1 0.024552 -0.006933 -0.005467 0.000000 0.000000 0.000000
# 2 -0.006933 0.012391 -0.004557 0.000000 0.000000 0.000000
# 3 -0.005467 -0.004557 0.018393 0.000000 0.000000 0.000000
# 4 0.000000 0.000000 0.000000 0.107672 0.000000 0.000000
# 5 0.000000 0.000000 0.000000 0.000000 0.030041 0.000000
# 6 0.000000 0.000000 0.000000 0.000000 0.000000 -0.025115
#
#
# Mechanical properties :
#
#
# Convention : Reuss Voigt Hill
#
# Bulk Modulus (GPa) = 46.68354 53.81223 50.24788
# Shear Modulus (GPa) = 23.92484 9.79763 16.86123
#
# Velocity S-wave (km/s) = 3.63501 2.32617 3.05159
# Velocity P-wave (km/s) = 6.58789 6.07737 6.33777
#
# Compressibility (1/GPa) = 0.02142083
#
# Stress axis : x y z
#
# Youngs Moduli (GPa) = 40.73052 80.70551 54.36874
#
# Poissons Ratio (x) = 0.55955 0.29722
# Poissons Ratio (y) = 0.28239 0.24777
# Poissons Ratio (z) = 0.22266 0.36780
#
# Static dielectric constant tensor:
#      x y z
#    x 1.617970 0.000000 0.000000 
#    y 0.000000 1.642280 0.000000 
#    z 0.000000 0.000000 2.023930 
# 
# From -- ./inp_files/64258.got.cif
#   From: 2010.05.17/outbox.cif.g08.bks.cpg/sg74_33_cif.got.tgz:64258.got - 2010.06.03 17:57:02.
