data_PCOD9540910
_publ_section_title
;
Structure prediction by ZEFSAII (Michael W. Deem and Ramdas Pophale) SiO2 
 PCOD9540910
Probable space group: I M M A
;
_chemical_formula_sum "Si O2"
_cell_formula_units_Z 48
_cell_length_a 27.000000
_cell_length_b 9.000000
_cell_length_c 21.000000
_cell_angle_alpha 90.000000
_cell_angle_beta 90.000000
_cell_angle_gamma 90.000000
_cell_volume 5103.000000
_symmetry_space_group_name_H-M "I M M A"
_symmetry_group_IT_number 74
_symmetry_cell_setting 'orthorhombic'
loop_
_space_group_symop_operation_xyz
x,y,z
-x,1/2-y,z
x,-y,-z
-x,1/2+y,-z
-x,-y,-z
x,1/2+y,-z
-x,y,z
x,1/2-y,z
1/2+x,1/2+y,1/2+z
1/2-x,-y,1/2+z
1/2+x,1/2-y,1/2-z
1/2-x,y,1/2-z
1/2-x,1/2-y,1/2-z
1/2+x,y,1/2-z
1/2-x,1/2+y,1/2+z
1/2+x,-y,1/2+z
loop_
_atom_site_type_symbol
_atom_site_label
_atom_site_fract_x
_atom_site_fract_y
_atom_site_fract_z
Si Si1 0.440518 0.425571 0.067126
Si Si2 0.710520 0.572105 0.806040
Si Si3 0.127739 0.927598 0.066372
Si Si4 0.245017 0.428094 0.932495
Si Si5 0.555221 0.069304 0.677275
Si Si6 0.894862 0.928691 0.307773
O O1 0.500000 0.444408 0.074278
O O2 0.429725 0.250000 0.065948
O O3 0.413773 0.503044 0.126224
O O4 0.426242 0.500000 0.000000
O O5 0.704771 0.750000 0.811329
O O6 0.750000 0.541507 0.750000
O O7 0.728529 0.504094 0.872925
O O8 0.658671 0.494112 0.791080
O O9 0.122181 0.750000 0.061423
O O10 0.186100 0.957208 0.075258
O O11 0.095495 0.981841 0.125910
O O12 0.111843 0.000000 0.000000
O O13 0.252988 0.250000 0.933084
O O14 0.260230 0.500000 0.000000
O O15 0.500000 0.018711 0.661126
O O16 0.555706 0.250000 0.675449
O O17 0.569434 0.029149 0.749213
O O18 0.892854 0.750000 0.312564
#
# Coordination Sequence:
#
# PCOD9540910 Si02
#       6
#    16  16  16  16  16  16
#     4  10  21  38  60  86 117 151 187 229 278 333
#     4  11  24  40  58  82 113 147 185 233 287 341
#     4   9  18  33  54  80 110 144 181 222 267 317
#     4  10  20  36  58  83 112 146 186 229 276 332
#     4   9  18  33  54  80 110 144 182 223 267 318
#     4  11  22  37  59  84 111 146 189 234 280 334
#
# _framework density 9.4062319999999993
#
# number of rings (size 3 to 8) (size 9 to 14) (size 15 to 20)
#    0.000    2.000    0.000    3.500    0.000    6.000 
#    0.000    5.000    0.000    2.000    0.000    0.000 
#    0.000    0.000    0.000    0.000    0.000    0.000 
#
# Total GULP energy -268113.519864 kJ/mol
# GULP energy per Si atom -5585.698330 kJ/mol
# Density = 0.938482 g / cm^3
# Si number density = 9.406232 Si / 1000 Ang^3
#
#
#
# Elastic Constant Matrix: (Units=GPa)
#
#
# Indices 1 2 3 4 5 6 
#
# 1 24.9953 12.1163 -5.0504 0.0000 0.0000 0.0000
# 2 12.1163 50.0409 5.6727 0.0000 0.0000 0.0000
# 3 -5.0504 5.6727 48.3530 0.0000 0.0000 0.0000
# 4 0.0000 0.0000 0.0000 29.7340 0.0000 0.0000
# 5 0.0000 0.0000 0.0000 0.0000 20.9535 0.0000
# 6 0.0000 0.0000 0.0000 0.0000 0.0000 24.3999
#
#
#
# Elastic Compliance Matrix: (Units=1/GPa)
#
#
# Indices 1 2 3 4 5 6 
#
# 1 0.047177 -0.012143 0.006352 0.000000 0.000000 0.000000
# 2 -0.012143 0.023378 -0.004011 0.000000 0.000000 0.000000
# 3 0.006352 -0.004011 0.021815 0.000000 0.000000 0.000000
# 4 0.000000 0.000000 0.000000 0.033632 0.000000 0.000000
# 5 0.000000 0.000000 0.000000 0.000000 0.047725 0.000000
# 6 0.000000 0.000000 0.000000 0.000000 0.000000 0.040984
#
#
# Mechanical properties :
#
#
# Convention : Reuss Voigt Hill
#
# Bulk Modulus (GPa) = 13.74242 16.54071 15.14157
# Shear Modulus (GPa) = 19.33708 22.39418 20.86563
#
# Velocity S-wave (km/s) = 3.20954 3.45395 3.33399
# Velocity P-wave (km/s) = 4.58865 4.97170 4.78401
#
# Compressibility (1/GPa) = 0.07276736
#
# Stress axis : x y z
#
# Youngs Moduli (GPa) = 21.19666 42.77437 45.83943
#
# Poissons Ratio (x) = 0.51941 -0.29118
# Poissons Ratio (y) = 0.25739 0.18386
# Poissons Ratio (z) = -0.13465 0.17157
#
# Static dielectric constant tensor:
#      x y z
#    x 1.659410 0.000000 0.000000 
#    y 0.000000 1.621580 0.000000 
#    z 0.000000 0.000000 1.626320 
# 
# From -- ./inp_files/55086.got.cif
#   From: 2010.05.17/outbox.ucp.g08.bks.cvg/sg74_28_cif.got.tgz:55086.got - 2010.06.11 16:37:44.
