data_PCOD9540036
_publ_section_title
;
Structure prediction by ZEFSAII (Michael W. Deem and Ramdas Pophale) SiO2 
 PCOD9540036
Probable space group: I M M A
;
_chemical_formula_sum "Si O2"
_cell_formula_units_Z 80
_cell_length_a 25.975292
_cell_length_b 8.785255
_cell_length_c 18.650825
_cell_angle_alpha 90.000000
_cell_angle_beta 90.000000
_cell_angle_gamma 90.000000
_cell_volume 4256.110132
_symmetry_space_group_name_H-M "I M M A"
_symmetry_group_IT_number 74
_symmetry_cell_setting 'orthorhombic'
loop_
_space_group_symop_operation_xyz
x,y,z
-x,1/2-y,z
x,-y,-z
-x,1/2+y,-z
-x,-y,-z
x,1/2+y,-z
-x,y,z
x,1/2-y,z
1/2+x,1/2+y,1/2+z
1/2-x,-y,1/2+z
1/2+x,1/2-y,1/2-z
1/2-x,y,1/2-z
1/2-x,1/2-y,1/2-z
1/2+x,y,1/2-z
1/2-x,1/2+y,1/2+z
1/2+x,-y,1/2+z
loop_
_atom_site_type_symbol
_atom_site_label
_atom_site_fract_x
_atom_site_fract_y
_atom_site_fract_z
Si Si1 0.808893 0.932482 0.334185
Si Si2 0.189763 0.566860 0.166566
Si Si3 0.500000 0.566196 0.824111
Si Si4 0.403632 0.431711 0.420456
Si Si5 0.500000 0.432070 0.665484
Si Si6 0.597877 0.568406 0.921294
O O1 0.813728 0.750000 0.341241
O O2 0.819370 0.969636 0.250569
O O3 0.749313 0.971305 0.349527
O O4 0.849402 0.012041 0.385448
O O5 0.183756 0.750000 0.158500
O O6 0.149575 0.481257 0.116905
O O7 0.500000 0.750000 0.813788
O O8 0.500000 0.485709 0.747646
O O9 0.550475 0.524317 0.869771
O O10 0.406154 0.500000 0.500000
O O11 0.408133 0.250000 0.422962
O O12 0.449908 0.501345 0.373849
O O13 0.500000 0.250000 0.661018
O O14 0.598186 0.750000 0.926703
O O15 0.591268 0.500000 0.000000
#
# Coordination Sequence:
#
# PCOD9540036 Si02
#       6
#    16  16   8  16   8  16
#     4   9  19  37  61  87 118 153 194 241 289 344
#     4   9  19  38  62  88 117 153 195 240 289 344
#     4  10  23  42  62  88 117 150 194 242 289 344
#     4  12  25  41  61  87 120 155 193 240 289 343
#     4  12  25  42  65  90 117 152 191 234 287 348
#     4  11  23  38  58  84 118 155 195 241 291 345
#
# _framework density 18.796506999999998
#
# number of rings (size 3 to 8) (size 9 to 14) (size 15 to 20)
#    0.000    1.600    0.000    6.300    0.000    7.200 
#    0.000    2.000    0.000    0.000    0.000    0.000 
#    0.000    0.000    0.000    0.000    0.000    0.000 
#
# Total GULP energy -223676.417819 kJ/mol
# GULP energy per Si atom -5591.910445 kJ/mol
# Density = 1.875373 g / cm^3
# Si number density = 18.796507 Si / 1000 Ang^3
#
#
#
# Elastic Constant Matrix: (Units=GPa)
#
#
# Indices 1 2 3 4 5 6 
#
# 1 133.5339 74.9363 117.3975 0.0000 0.0000 0.0000
# 2 74.9363 100.0948 91.1733 0.0000 0.0000 0.0000
# 3 117.3975 91.1733 179.7979 0.0000 0.0000 0.0000
# 4 0.0000 0.0000 0.0000 -88.0614 0.0000 0.0000
# 5 0.0000 0.0000 0.0000 0.0000 246.7413 0.0000
# 6 0.0000 0.0000 0.0000 0.0000 0.0000 69.6800
#
#
#
# Elastic Compliance Matrix: (Units=1/GPa)
#
#
# Indices 1 2 3 4 5 6 
#
# 1 0.019057 -0.005451 -0.009679 0.000000 0.000000 0.000000
# 2 -0.005451 0.020125 -0.006646 0.000000 0.000000 0.000000
# 3 -0.009679 -0.006646 0.015252 0.000000 0.000000 0.000000
# 4 0.000000 0.000000 0.000000 -0.011356 0.000000 0.000000
# 5 0.000000 0.000000 0.000000 0.000000 0.004053 0.000000
# 6 0.000000 0.000000 0.000000 0.000000 0.000000 0.014351
#
#
# Mechanical properties :
#
#
# Convention : Reuss Voigt Hill
#
# Bulk Modulus (GPa) = 91.89530 108.93786 100.41658
# Shear Modulus (GPa) = 46.01440 54.33329 50.17384
#
# Velocity S-wave (km/s) = 4.95312 5.38227 5.17215
# Velocity P-wave (km/s) = 9.03919 9.83399 9.44495
#
# Compressibility (1/GPa) = 0.01088195
#
# Stress axis : x y z
#
# Youngs Moduli (GPa) = 52.47404 49.68955 65.56556
#
# Poissons Ratio (x) = 0.27084 0.63462
# Poissons Ratio (y) = 0.28602 0.43576
# Poissons Ratio (z) = 0.50791 0.33024
#
# Static dielectric constant tensor:
#      x y z
#    x 1.633550 0.000000 0.000000 
#    y 0.000000 1.625940 0.000000 
#    z 0.000000 0.000000 1.615380 
# 
# From -- ./inp_files/46533.got.cif
#   From: 2010.05.17/outbox.cif.g08.bks.cpg/sg74_24_cif.got.tgz:46533.got - 2010.06.03 17:57:02.
