data_PCOD9540839
_publ_section_title
;
Structure prediction by ZEFSAII (Michael W. Deem and Ramdas Pophale) SiO2 
 PCOD9540839
Probable space group: I M M A
;
_chemical_formula_sum "Si O2"
_cell_formula_units_Z 48
_cell_length_a 9.000000
_cell_length_b 21.000000
_cell_length_c 27.000000
_cell_angle_alpha 90.000000
_cell_angle_beta 90.000000
_cell_angle_gamma 90.000000
_cell_volume 5103.000000
_symmetry_space_group_name_H-M "I M M A"
_symmetry_group_IT_number 74
_symmetry_cell_setting 'orthorhombic'
loop_
_space_group_symop_operation_xyz
x,y,z
-x,1/2-y,z
x,-y,-z
-x,1/2+y,-z
-x,-y,-z
x,1/2+y,-z
-x,y,z
x,1/2-y,z
1/2+x,1/2+y,1/2+z
1/2-x,-y,1/2+z
1/2+x,1/2-y,1/2-z
1/2-x,y,1/2-z
1/2-x,1/2-y,1/2-z
1/2+x,y,1/2-z
1/2-x,1/2+y,1/2+z
1/2+x,-y,1/2+z
loop_
_atom_site_type_symbol
_atom_site_label
_atom_site_fract_x
_atom_site_fract_y
_atom_site_fract_z
Si Si1 0.678888 0.588462 0.300564
Si Si2 0.321517 0.176457 0.883940
Si Si3 0.824158 0.592619 0.475142
Si Si4 0.823291 0.182462 0.303613
Si Si5 0.168045 0.461416 0.056735
Si Si6 0.167612 0.447152 0.172934
O O1 0.500000 0.590450 0.299705
O O2 0.750000 0.613693 0.250000
O O3 0.739839 0.629881 0.345913
O O4 0.724459 0.514104 0.305669
O O5 0.500000 0.171322 0.876421
O O6 0.278759 0.250000 0.877476
O O7 0.290169 0.151288 0.939417
O O8 0.741108 0.529866 0.454713
O O9 0.765985 0.593327 0.531134
O O10 0.000000 0.581841 0.474187
O O11 0.783122 0.250000 0.329824
O O12 0.750000 0.186366 0.250000
O O13 0.765036 0.115305 0.322161
O O14 0.000000 0.180279 0.300238
O O15 0.159745 0.457947 0.114837
O O16 0.000000 0.455123 0.038022
O O17 0.000000 0.435677 0.192828
#
# Coordination Sequence:
#
# PCOD9540839 Si02
#       6
#    16  16  16  16  16  16
#     4  11  23  39  58  84 114 147 191 240 289 340
#     4  10  22  40  60  82 112 151 193 238 288 341
#     4  10  19  33  55  83 110 142 182 223 272 328
#     4  10  21  36  55  79 108 145 186 226 273 331
#     4  10  19  33  55  82 113 142 177 225 272 325
#     4  10  21  36  56  84 114 148 186 230 280 329
#
# _framework density 9.4062319999999993
#
# number of rings (size 3 to 8) (size 9 to 14) (size 15 to 20)
#    0.000    1.833    1.667    3.500    0.000    6.333 
#    0.000    0.833    0.000    3.000    0.000    0.000 
#    0.000    0.000    0.000    0.000    0.000    0.000 
#
# Total GULP energy -267316.658043 kJ/mol
# GULP energy per Si atom -5569.097043 kJ/mol
# Density = 0.938482 g / cm^3
# Si number density = 9.406232 Si / 1000 Ang^3
#
#
#
# Elastic Constant Matrix: (Units=GPa)
#
#
# Indices 1 2 3 4 5 6 
#
# 1 53.0542 40.4414 9.7697 0.0000 0.0000 0.0000
# 2 40.4414 105.2756 18.2887 0.0000 0.0000 0.0000
# 3 9.7697 18.2887 57.0041 0.0000 0.0000 0.0000
# 4 0.0000 0.0000 0.0000 -149.3566 0.0000 0.0000
# 5 0.0000 0.0000 0.0000 0.0000 19.5794 0.0000
# 6 0.0000 0.0000 0.0000 0.0000 0.0000 22.2553
#
#
#
# Elastic Compliance Matrix: (Units=1/GPa)
#
#
# Indices 1 2 3 4 5 6 
#
# 1 0.026753 -0.010040 -0.001364 0.000000 0.000000 0.000000
# 2 -0.010040 0.013828 -0.002716 0.000000 0.000000 0.000000
# 3 -0.001364 -0.002716 0.018648 0.000000 0.000000 0.000000
# 4 0.000000 0.000000 0.000000 -0.006695 0.000000 0.000000
# 5 0.000000 0.000000 0.000000 0.000000 0.051074 0.000000
# 6 0.000000 0.000000 0.000000 0.000000 0.000000 0.044933
#
#
# Mechanical properties :
#
#
# Convention : Reuss Voigt Hill
#
# Bulk Modulus (GPa) = 32.26960 39.14819 35.70889
# Shear Modulus (GPa) = 26.72236 -11.71545 7.50346
#
# Velocity S-wave (km/s) = 3.77299 -2.49820 1.99930
# Velocity P-wave (km/s) = 6.01424 3.54027 4.93481
#
# Compressibility (1/GPa) = 0.03098892
#
# Stress axis : x y z
#
# Youngs Moduli (GPa) = 37.37883 72.31933 53.62624
#
# Poissons Ratio (x) = 0.72610 0.07314
# Poissons Ratio (y) = 0.37529 0.14563
# Poissons Ratio (z) = 0.05098 0.19639
#
# Static dielectric constant tensor:
#      x y z
#    x 1.635990 0.000000 0.000000 
#    y 0.000000 1.697890 0.000000 
#    z 0.000000 0.000000 1.693810 
# 
# From -- ./inp_files/64345.got.cif
#   From: 2010.05.17/outbox.ucp.g08.bks.cvg/sg74_33_cif.got.tgz:64345.got - 2010.06.11 16:37:44.
