data_PCOD9540272
_publ_section_title
;
Structure prediction by ZEFSAII (Michael W. Deem and Ramdas Pophale) SiO2 
 PCOD9540272
Probable space group: I M M A
;
_chemical_formula_sum "Si O2"
_cell_formula_units_Z 96
_cell_length_a 17.571546
_cell_length_b 23.436539
_cell_length_c 12.453076
_cell_angle_alpha 90.000000
_cell_angle_beta 90.000000
_cell_angle_gamma 90.000000
_cell_volume 5128.378725
_symmetry_space_group_name_H-M "I M M A"
_symmetry_group_IT_number 74
_symmetry_cell_setting 'orthorhombic'
loop_
_space_group_symop_operation_xyz
x,y,z
-x,1/2-y,z
x,-y,-z
-x,1/2+y,-z
-x,-y,-z
x,1/2+y,-z
-x,y,z
x,1/2-y,z
1/2+x,1/2+y,1/2+z
1/2-x,-y,1/2+z
1/2+x,1/2-y,1/2-z
1/2-x,y,1/2-z
1/2-x,1/2-y,1/2-z
1/2+x,y,1/2-z
1/2-x,1/2+y,1/2+z
1/2+x,-y,1/2+z
loop_
_atom_site_type_symbol
_atom_site_label
_atom_site_fract_x
_atom_site_fract_y
_atom_site_fract_z
Si Si1 0.651885 0.133758 0.580035
Si Si2 0.333074 0.073345 0.784955
Si Si3 0.330871 0.866336 0.008762
Si Si4 0.171181 0.057994 0.299718
Si Si5 0.911639 0.050330 0.076139
Si Si6 0.091857 0.250000 0.813617
Si Si7 0.591668 0.250000 0.944657
O O1 0.627509 0.087292 0.672727
O O2 0.740068 0.134234 0.537842
O O3 0.605608 0.110802 0.478841
O O4 0.628417 0.194188 0.630548
O O5 0.250000 0.096717 0.750000
O O6 0.319835 0.009254 0.825616
O O7 0.367655 0.106348 0.884261
O O8 0.345997 0.904906 0.904285
O O9 0.368050 0.804603 0.002380
O O10 0.250000 0.079867 0.250000
O O11 0.116169 0.054592 0.197975
O O12 0.000000 0.038927 0.080284
O O13 0.875096 0.000000 0.000000
O O14 0.107424 0.250000 0.684845
O O15 0.000000 0.250000 0.827159
O O16 0.500000 0.250000 0.958220
#
# Coordination Sequence:
#
# PCOD9540272 Si02
#       7
#    16  16  16  16  16   8   8
#     4  11  20  38  64  95 123 158 212 267 316 374
#     4   9  19  32  60  94 127 157 196 255 316 371
#     4  11  22  38  64  94 122 165 211 265 314 377
#     4  11  21  38  62  93 128 167 209 252 310 383
#     4  11  23  39  61  92 131 170 207 259 324 380
#     4  11  23  39  62  88 126 167 209 266 324 374
#     4  11  25  43  61  87 126 171 214 266 324 383
#
# _framework density 18.719366000000001
#
# number of rings (size 3 to 8) (size 9 to 14) (size 15 to 20)
#    0.000    1.333    5.000    1.500    0.000    1.333 
#    0.000    2.083    0.000    3.000    0.000    0.000 
#    0.000    0.000    0.000    0.000    0.000    0.000 
#
# Total GULP energy -267217.508259 kJ/mol
# GULP energy per Si atom -5567.031422 kJ/mol
# Density = 1.867676 g / cm^3
# Si number density = 18.719366 Si / 1000 Ang^3
#
#
#
# Elastic Constant Matrix: (Units=GPa)
#
#
# Indices 1 2 3 4 5 6 
#
# 1 52.8121 7.6802 34.3220 0.0000 0.0000 0.0000
# 2 7.6802 87.9144 55.0691 0.0000 0.0000 0.0000
# 3 34.3220 55.0691 91.4016 0.0000 0.0000 0.0000
# 4 0.0000 0.0000 0.0000 35.4679 0.0000 0.0000
# 5 0.0000 0.0000 0.0000 0.0000 23.9685 0.0000
# 6 0.0000 0.0000 0.0000 0.0000 0.0000 11.5215
#
#
#
# Elastic Compliance Matrix: (Units=1/GPa)
#
#
# Indices 1 2 3 4 5 6 
#
# 1 0.027147 0.006447 -0.014078 0.000000 0.000000 0.000000
# 2 0.006447 0.019801 -0.014351 0.000000 0.000000 0.000000
# 3 -0.014078 -0.014351 0.024873 0.000000 0.000000 0.000000
# 4 0.000000 0.000000 0.000000 0.028195 0.000000 0.000000
# 5 0.000000 0.000000 0.000000 0.000000 0.041721 0.000000
# 6 0.000000 0.000000 0.000000 0.000000 0.000000 0.086794
#
#
# Mechanical properties :
#
#
# Convention : Reuss Voigt Hill
#
# Bulk Modulus (GPa) = 35.89754 47.36341 41.63048
# Shear Modulus (GPa) = 17.74432 23.19536 20.46984
#
# Velocity S-wave (km/s) = 3.08216 3.52392 3.31042
# Velocity P-wave (km/s) = 5.64664 6.47411 6.07448
#
# Compressibility (1/GPa) = 0.02785706
#
# Stress axis : x y z
#
# Youngs Moduli (GPa) = 36.83694 50.50321 40.20363
#
# Poissons Ratio (x) = -0.32559 0.56599
# Poissons Ratio (y) = -0.23748 0.57695
# Poissons Ratio (z) = 0.51859 0.72476
#
# Static dielectric constant tensor:
#      x y z
#    x 1.687410 0.000000 0.000000 
#    y 0.000000 1.680670 0.000000 
#    z 0.000000 0.000000 1.734090 
# 
# From -- ./inp_files/22504.got.cif
#   From: 2010.05.17/outbox.cif.g08.bks.cpg/sg74_12_cif.got.tgz:22504.got - 2010.06.03 17:57:02.
