data_PCOD9540361
_publ_section_title
;
Structure prediction by ZEFSAII (Michael W. Deem and Ramdas Pophale) SiO2 
 PCOD9540361
Probable space group: I M M A
;
_chemical_formula_sum "Si O2"
_cell_formula_units_Z 88
_cell_length_a 20.494628
_cell_length_b 14.188603
_cell_length_c 14.792826
_cell_angle_alpha 90.000000
_cell_angle_beta 90.000000
_cell_angle_gamma 90.000000
_cell_volume 4301.607948
_symmetry_space_group_name_H-M "I M M A"
_symmetry_group_IT_number 74
_symmetry_cell_setting 'orthorhombic'
loop_
_space_group_symop_operation_xyz
x,y,z
-x,1/2-y,z
x,-y,-z
-x,1/2+y,-z
-x,-y,-z
x,1/2+y,-z
-x,y,z
x,1/2-y,z
1/2+x,1/2+y,1/2+z
1/2-x,-y,1/2+z
1/2+x,1/2-y,1/2-z
1/2-x,y,1/2-z
1/2-x,1/2-y,1/2-z
1/2+x,y,1/2-z
1/2-x,1/2+y,1/2+z
1/2+x,-y,1/2+z
loop_
_atom_site_type_symbol
_atom_site_label
_atom_site_fract_x
_atom_site_fract_y
_atom_site_fract_z
Si Si1 0.500000 0.893567 0.622184
Si Si2 0.500000 0.883545 0.412849
Si Si3 0.633224 0.647034 0.321394
Si Si4 0.579161 0.041928 0.853818
Si Si5 0.173591 0.000000 0.500000
Si Si6 0.620079 0.144060 0.252042
Si Si7 0.777074 0.982817 0.845134
O O1 0.500000 0.867722 0.518687
O O2 0.562229 0.857904 0.675575
O O3 0.500000 0.007122 0.619014
O O4 0.433881 0.844581 0.374221
O O5 0.665089 0.750000 0.314565
O O6 0.609233 0.607071 0.224716
O O7 0.674825 0.567217 0.373307
O O8 0.500000 0.050428 0.861870
O O9 0.597881 0.934924 0.821278
O O10 0.621654 0.063000 0.943490
O O11 0.223189 0.963501 0.578629
O O12 0.629579 0.250000 0.216677
O O13 0.682325 0.106226 0.308400
O O14 0.750000 0.022881 0.750000
#
# Coordination Sequence:
#
# PCOD9540361 Si02
#       7
#     8   8  16  16   8  16  16
#     4  11  21  37  63  96 130 165 211 268 328 387
#     4  11  21  37  63  96 130 165 211 268 328 387
#     4  11  22  40  66  94 130 169 210 264 330 390
#     4  11  22  45  69  98 125 169 215 272 329 383
#     4  12  25  46  68  91 134 174 226 270 316 395
#     4  11  22  40  66  94 130 169 210 264 330 390
#     4  11  24  45  63  89 127 171 213 261 319 384
#
# _framework density 20.457466
#
# number of rings (size 3 to 8) (size 9 to 14) (size 15 to 20)
#    0.000    0.909    9.091    0.818    2.545    2.182 
#    0.000    2.727    0.000    2.182    0.000    0.000 
#    0.000    0.000    0.000    0.000    0.000    0.000 
#
# Total GULP energy -245203.988370 kJ/mol
# GULP energy per Si atom -5572.817917 kJ/mol
# Density = 2.041090 g / cm^3
# Si number density = 20.457466 Si / 1000 Ang^3
#
#
#
# Elastic Constant Matrix: (Units=GPa)
#
#
# Indices 1 2 3 4 5 6 
#
# 1 119.8718 11.0661 31.6834 0.0000 0.0000 0.0000
# 2 11.0661 98.8360 2.5705 0.0000 0.0000 0.0000
# 3 31.6834 2.5705 72.5395 0.0000 0.0000 0.0000
# 4 0.0000 0.0000 0.0000 -15.5737 0.0000 0.0000
# 5 0.0000 0.0000 0.0000 0.0000 62.4724 0.0000
# 6 0.0000 0.0000 0.0000 0.0000 0.0000 -13.6704
#
#
#
# Elastic Compliance Matrix: (Units=1/GPa)
#
#
# Indices 1 2 3 4 5 6 
#
# 1 0.009521 -0.000959 -0.004125 0.000000 0.000000 0.000000
# 2 -0.000959 0.010224 0.000056 0.000000 0.000000 0.000000
# 3 -0.004125 0.000056 0.015585 0.000000 0.000000 0.000000
# 4 0.000000 0.000000 0.000000 -0.064211 0.000000 0.000000
# 5 0.000000 0.000000 0.000000 0.000000 0.016007 0.000000
# 6 0.000000 0.000000 0.000000 0.000000 0.000000 -0.073151
#
#
# Mechanical properties :
#
#
# Convention : Reuss Voigt Hill
#
# Bulk Modulus (GPa) = 39.56310 42.43191 40.99750
# Shear Modulus (GPa) = -74.02346 23.04082 -25.49132
#
# Velocity S-wave (km/s) = -6.02185 3.35965 -3.53379
# Velocity P-wave (km/s) = 5.38229 5.98634 1.85300
#
# Compressibility (1/GPa) = 0.02527608
#
# Stress axis : x y z
#
# Youngs Moduli (GPa) = 105.03202 97.81243 64.16394
#
# Poissons Ratio (x) = 0.09378 0.26464
# Poissons Ratio (y) = 0.10070 -0.00362
# Poissons Ratio (z) = 0.43321 -0.00552
#
# Static dielectric constant tensor:
#      x y z
#    x 1.806650 0.000000 0.000000 
#    y 0.000000 1.825480 0.000000 
#    z 0.000000 0.000000 1.745210 
# 
# From -- ./inp_files/35196.got.cif
#   From: 2010.05.17/outbox.cif.g08.bks.cpg/sg74_18_cif.got.tgz:35196.got - 2010.06.03 17:57:02.
