data_PCOD9540302
_publ_section_title
;
Structure prediction by ZEFSAII (Michael W. Deem and Ramdas Pophale) SiO2 
 PCOD9540302
Probable space group: I M M A
;
_chemical_formula_sum "Si O2"
_cell_formula_units_Z 96
_cell_length_a 8.611695
_cell_length_b 26.076014
_cell_length_c 23.911110
_cell_angle_alpha 90.000000
_cell_angle_beta 90.000000
_cell_angle_gamma 90.000000
_cell_volume 5369.447284
_symmetry_space_group_name_H-M "I M M A"
_symmetry_group_IT_number 74
_symmetry_cell_setting 'orthorhombic'
loop_
_space_group_symop_operation_xyz
x,y,z
-x,1/2-y,z
x,-y,-z
-x,1/2+y,-z
-x,-y,-z
x,1/2+y,-z
-x,y,z
x,1/2-y,z
1/2+x,1/2+y,1/2+z
1/2-x,-y,1/2+z
1/2+x,1/2-y,1/2-z
1/2-x,y,1/2-z
1/2-x,1/2-y,1/2-z
1/2+x,y,1/2-z
1/2-x,1/2+y,1/2+z
1/2+x,-y,1/2+z
loop_
_atom_site_type_symbol
_atom_site_label
_atom_site_fract_x
_atom_site_fract_y
_atom_site_fract_z
Si Si1 0.313473 0.309909 0.568691
Si Si2 0.326186 0.560343 0.502832
Si Si3 0.187031 0.691696 0.937764
Si Si4 0.315098 0.592835 0.114710
Si Si5 0.685617 0.499718 0.312530
Si Si6 0.180154 0.406585 0.385712
O O1 0.500000 0.316421 0.572227
O O2 0.278148 0.250000 0.578017
O O3 0.269635 0.320802 0.503011
O O4 0.233515 0.347248 0.613716
O O5 0.341063 0.500000 0.500000
O O6 0.500000 0.581534 0.515151
O O7 0.265094 0.576714 0.443170
O O8 0.207286 0.572810 0.551620
O O9 0.240541 0.750000 0.926970
O O10 0.250110 0.650510 0.893382
O O11 0.000000 0.691903 0.935752
O O12 0.500000 0.588292 0.112685
O O13 0.251985 0.552017 0.159660
O O14 0.500000 0.502512 0.313297
O O15 0.750000 0.495699 0.250000
O O16 0.737218 0.448704 0.346594
O O17 0.000000 0.404344 0.370798
#
# Coordination Sequence:
#
# PCOD9540302 Si02
#       6
#    16  16  16  16  16  16
#     4   9  18  33  54  81 117 159 196 230 277 338
#     4  11  21  33  52  79 113 154 190 228 282 341
#     4   9  18  33  54  81 117 159 196 230 277 338
#     4  12  23  35  56  86 118 151 188 235 286 343
#     4  12  26  45  64  83 110 148 192 240 288 342
#     4  12  23  35  56  86 118 151 188 235 286 343
#
# _framework density 17.878934000000001
#
# number of rings (size 3 to 8) (size 9 to 14) (size 15 to 20)
#    0.000    1.167    3.333    6.000    0.000    1.333 
#    0.000    1.667    0.000    1.000    0.000    0.000 
#    0.000    0.000    0.000    0.000    0.000    0.000 
#
# Total GULP energy -267739.821410 kJ/mol
# GULP energy per Si atom -5577.912946 kJ/mol
# Density = 1.783824 g / cm^3
# Si number density = 17.878934 Si / 1000 Ang^3
#
#
#
# Elastic Constant Matrix: (Units=GPa)
#
#
# Indices 1 2 3 4 5 6 
#
# 1 78.6882 31.3577 -1.0105 0.0000 0.0000 0.0000
# 2 31.3577 140.0361 32.7872 0.0000 0.0000 0.0000
# 3 -1.0105 32.7872 58.2413 0.0000 0.0000 0.0000
# 4 0.0000 0.0000 0.0000 9.6095 0.0000 0.0000
# 5 0.0000 0.0000 0.0000 0.0000 -1.3229 0.0000
# 6 0.0000 0.0000 0.0000 0.0000 0.0000 17.2947
#
#
#
# Elastic Compliance Matrix: (Units=1/GPa)
#
#
# Indices 1 2 3 4 5 6 
#
# 1 0.014227 -0.003736 0.002350 0.000000 0.000000 0.000000
# 2 -0.003736 0.009206 -0.005248 0.000000 0.000000 0.000000
# 3 0.002350 -0.005248 0.020165 0.000000 0.000000 0.000000
# 4 0.000000 0.000000 0.000000 0.104064 0.000000 0.000000
# 5 0.000000 0.000000 0.000000 0.000000 -0.755918 0.000000
# 6 0.000000 0.000000 0.000000 0.000000 0.000000 0.057821
#
#
# Mechanical properties :
#
#
# Convention : Reuss Voigt Hill
#
# Bulk Modulus (GPa) = 32.96908 44.80384 38.88646
# Shear Modulus (GPa) = -9.48664 19.37167 4.94252
#
# Velocity S-wave (km/s) = -2.30598 3.29521 1.66446
# Velocity P-wave (km/s) = 3.37493 6.29221 5.04886
#
# Compressibility (1/GPa) = 0.03033145
#
# Stress axis : x y z
#
# Youngs Moduli (GPa) = 70.28672 108.62179 49.59129
#
# Poissons Ratio (x) = 0.40583 -0.11655
# Poissons Ratio (y) = 0.26260 0.26023
# Poissons Ratio (z) = -0.16518 0.57000
#
# Static dielectric constant tensor:
#      x y z
#    x 1.606150 0.000000 0.000000 
#    y 0.000000 1.719120 0.000000 
#    z 0.000000 0.000000 1.577580 
# 
# From -- ./inp_files/57503.got.cif
#   From: 2010.05.17/outbox.cif.g08.bks.cpg/sg74_29_cif.got.tgz:57503.got - 2010.06.03 17:57:02.
