data_PCOD9540986
_publ_section_title
;
Structure prediction by ZEFSAII (Michael W. Deem and Ramdas Pophale) SiO2 
 PCOD9540986
Probable space group: I M M A
;
_chemical_formula_sum "Si O2"
_cell_formula_units_Z 40
_cell_length_a 18.000000
_cell_length_b 27.000000
_cell_length_c 9.000000
_cell_angle_alpha 90.000000
_cell_angle_beta 90.000000
_cell_angle_gamma 90.000000
_cell_volume 4374.000000
_symmetry_space_group_name_H-M "I M M A"
_symmetry_group_IT_number 74
_symmetry_cell_setting 'orthorhombic'
loop_
_space_group_symop_operation_xyz
x,y,z
-x,1/2-y,z
x,-y,-z
-x,1/2+y,-z
-x,-y,-z
x,1/2+y,-z
-x,y,z
x,1/2-y,z
1/2+x,1/2+y,1/2+z
1/2-x,-y,1/2+z
1/2+x,1/2-y,1/2-z
1/2-x,y,1/2-z
1/2-x,1/2-y,1/2-z
1/2+x,y,1/2-z
1/2-x,1/2+y,1/2+z
1/2+x,-y,1/2+z
loop_
_atom_site_type_symbol
_atom_site_label
_atom_site_fract_x
_atom_site_fract_y
_atom_site_fract_z
Si Si1 0.814828 0.462242 0.130807
Si Si2 0.911846 0.250000 0.489006
Si Si3 0.087590 0.468399 0.650850
Si Si4 0.315946 0.146696 0.516483
Si Si5 0.830242 0.750000 0.827312
Si Si6 0.352399 0.145799 0.862841
O O1 0.750000 0.452394 0.250000
O O2 0.873644 0.497681 0.220505
O O3 0.788966 0.500000 0.000000
O O4 0.835946 0.407097 0.062504
O O5 0.884752 0.250000 0.316140
O O6 0.886543 0.302592 0.567924
O O7 0.000000 0.250000 0.492789
O O8 0.097756 0.500000 0.500000
O O9 0.115266 0.411120 0.624078
O O10 0.000000 0.465075 0.684347
O O11 0.334069 0.197667 0.422680
O O12 0.349790 0.151893 0.682995
O O13 0.227984 0.143839 0.555773
O O14 0.750000 0.750000 0.750000
#
# Coordination Sequence:
#
# PCOD9540986 Si02
#       6
#    16   8  16  16   8  16
#     4  12  23  40  65  99 131 170 220 272 326 381
#     4  12  27  45  69  97 135 174 216 272 337 405
#     4  11  25  43  64  94 136 179 218 264 329 402
#     4  11  23  40  70  99 127 167 221 282 319 380
#     4  12  23  43  66 101 126 165 217 276 329 383
#     4  11  22  45  67  98 129 172 224 269 328 388
#
# _framework density 9.1449470000000002
#
# number of rings (size 3 to 8) (size 9 to 14) (size 15 to 20)
#    0.000    0.600    4.000    4.800    2.800    2.000 
#    0.000    3.000    0.000    0.000    0.000    0.000 
#    0.000    0.000    0.000    0.000    0.000    0.000 
#
# Total GULP energy -222811.575028 kJ/mol
# GULP energy per Si atom -5570.289376 kJ/mol
# Density = 0.912413 g / cm^3
# Si number density = 9.144947 Si / 1000 Ang^3
#
#
#
# Elastic Constant Matrix: (Units=GPa)
#
#
# Indices 1 2 3 4 5 6 
#
# 1 90.6895 57.1973 42.1655 0.0000 0.0000 0.0000
# 2 57.1973 237.0741 88.5308 0.0000 0.0000 0.0000
# 3 42.1655 88.5308 137.2386 0.0000 0.0000 0.0000
# 4 0.0000 0.0000 0.0000 62.4345 0.0000 0.0000
# 5 0.0000 0.0000 0.0000 0.0000 26.5896 0.0000
# 6 0.0000 0.0000 0.0000 0.0000 0.0000 30.5363
#
#
#
# Elastic Compliance Matrix: (Units=1/GPa)
#
#
# Indices 1 2 3 4 5 6 
#
# 1 0.013749 -0.002292 -0.002746 0.000000 0.000000 0.000000
# 2 -0.002292 0.005939 -0.003127 0.000000 0.000000 0.000000
# 3 -0.002746 -0.003127 0.010147 0.000000 0.000000 0.000000
# 4 0.000000 0.000000 0.000000 0.016017 0.000000 0.000000
# 5 0.000000 0.000000 0.000000 0.000000 0.037609 0.000000
# 6 0.000000 0.000000 0.000000 0.000000 0.000000 0.032748
#
#
# Mechanical properties :
#
#
# Convention : Reuss Voigt Hill
#
# Bulk Modulus (GPa) = 74.04178 93.42103 83.73140
# Shear Modulus (GPa) = 36.48607 42.38599 39.43603
#
# Velocity S-wave (km/s) = 4.47125 4.81922 4.64849
# Velocity P-wave (km/s) = 8.19917 9.06396 8.64238
#
# Compressibility (1/GPa) = 0.01350589
#
# Stress axis : x y z
#
# Youngs Moduli (GPa) = 72.73456 168.38867 98.54840
#
# Poissons Ratio (x) = 0.38589 0.27060
# Poissons Ratio (y) = 0.16668 0.30815
# Poissons Ratio (z) = 0.19972 0.52653
#
# Static dielectric constant tensor:
#      x y z
#    x 1.657690 0.000000 0.000000 
#    y 0.000000 1.633920 0.000000 
#    z 0.000000 0.000000 1.661320 
# 
# From -- ./inp_files/11034.got.cif
#   From: 2010.05.17/outbox.ucp.g08.bks.cvg/sg74_6_cif.got.tgz:11034.got - 2010.06.11 16:37:44.
