data_PCOD9540708
_publ_section_title
;
Structure prediction by ZEFSAII (Michael W. Deem and Ramdas Pophale) SiO2 
 PCOD9540708
Probable space group: I M M A
;
_chemical_formula_sum "Si O2"
_cell_formula_units_Z 96
_cell_length_a 20.198506
_cell_length_b 7.264551
_cell_length_c 28.616821
_cell_angle_alpha 90.000000
_cell_angle_beta 90.000000
_cell_angle_gamma 90.000000
_cell_volume 4199.034198
_symmetry_space_group_name_H-M "I M M A"
_symmetry_group_IT_number 74
_symmetry_cell_setting 'orthorhombic'
loop_
_space_group_symop_operation_xyz
x,y,z
-x,1/2-y,z
x,-y,-z
-x,1/2+y,-z
-x,-y,-z
x,1/2+y,-z
-x,y,z
x,1/2-y,z
1/2+x,1/2+y,1/2+z
1/2-x,-y,1/2+z
1/2+x,1/2-y,1/2-z
1/2-x,y,1/2-z
1/2-x,1/2-y,1/2-z
1/2+x,y,1/2-z
1/2-x,1/2+y,1/2+z
1/2+x,-y,1/2+z
loop_
_atom_site_type_symbol
_atom_site_label
_atom_site_fract_x
_atom_site_fract_y
_atom_site_fract_z
Si Si1 0.358639 0.530239 0.555625
Si Si2 0.213023 0.967665 0.554821
Si Si3 0.428250 0.526140 0.911005
Si Si4 0.178159 0.025854 0.230402
Si Si5 0.924652 0.025644 0.149657
Si Si6 0.429667 0.027199 0.197323
O O1 0.371919 0.500000 0.500000
O O2 0.355857 0.750000 0.559295
O O3 0.284984 0.460999 0.570148
O O4 0.409003 0.469412 0.595967
O O5 0.212058 0.750000 0.566296
O O6 0.141558 0.041412 0.569675
O O7 0.215543 0.000000 0.500000
O O8 0.500000 0.465985 0.930832
O O9 0.428311 0.750000 0.914610
O O10 0.427151 0.475645 0.856566
O O11 0.181948 0.250000 0.227065
O O12 0.250000 0.967190 0.250000
O O13 0.136886 0.969719 0.183609
O O14 0.130059 0.966270 0.271897
O O15 0.925230 0.250000 0.151721
O O16 0.000000 0.968733 0.162735
O O17 0.500000 0.969098 0.217395
O O18 0.428217 0.250000 0.197920
#
# Coordination Sequence:
#
# PCOD9540708 Si02
#       6
#    16  16  16  16  16  16
#     4   9  18  31  47  66  89 119 152 186 225 267
#     4   9  17  28  42  59  82 110 142 180 220 260
#     4   8  14  23  36  54  76 106 141 174 211 256
#     4   9  16  22  33  55  81 111 144 175 210 257
#     4   9  17  28  41  59  86 118 148 181 223 267
#     4   8  13  21  32  47  72 105 136 166 202 248
#
# _framework density 22.862400999999998
#
# number of rings (size 3 to 8) (size 9 to 14) (size 15 to 20)
#    0.000    3.333    0.000    1.500    2.333    2.667 
#    0.000    0.000    0.000    0.000    0.000    0.000 
#    0.000    2.000    0.000    4.167    0.000    3.333 
#
# Total GULP energy -267240.018507 kJ/mol
# GULP energy per Si atom -5567.500386 kJ/mol
# Density = 2.281036 g / cm^3
# Si number density = 22.862401 Si / 1000 Ang^3
#
#
#
# Elastic Constant Matrix: (Units=GPa)
#
#
# Indices 1 2 3 4 5 6 
#
# 1 192.6304 2.8733 72.6967 0.0000 0.0000 0.0000
# 2 2.8733 99.7350 -6.2523 0.0000 0.0000 0.0000
# 3 72.6967 -6.2523 52.2350 0.0000 0.0000 0.0000
# 4 0.0000 0.0000 0.0000 -21.2205 0.0000 0.0000
# 5 0.0000 0.0000 0.0000 0.0000 44.0177 0.0000
# 6 0.0000 0.0000 0.0000 0.0000 0.0000 -20.7463
#
#
#
# Elastic Compliance Matrix: (Units=1/GPa)
#
#
# Indices 1 2 3 4 5 6 
#
# 1 0.011098 -0.001298 -0.015601 0.000000 0.000000 0.000000
# 2 -0.001298 0.010254 0.003034 0.000000 0.000000 0.000000
# 3 -0.015601 0.003034 0.041220 0.000000 0.000000 0.000000
# 4 0.000000 0.000000 0.000000 -0.047124 0.000000 0.000000
# 5 0.000000 0.000000 0.000000 0.000000 0.022718 0.000000
# 6 0.000000 0.000000 0.000000 0.000000 0.000000 -0.048201
#
#
# Mechanical properties :
#
#
# Convention : Reuss Voigt Hill
#
# Bulk Modulus (GPa) = 28.70137 53.69286 41.19711
# Shear Modulus (GPa) = 170.58929 18.76234 94.67582
#
# Velocity S-wave (km/s) = 8.64741 2.86783 6.44213
# Velocity P-wave (km/s) = 10.59645 5.87385 8.56700
#
# Compressibility (1/GPa) = 0.03484154
#
# Stress axis : x y z
#
# Youngs Moduli (GPa) = 90.10299 97.52174 24.26003
#
# Poissons Ratio (x) = 0.12656 0.37849
# Poissons Ratio (y) = 0.11693 -0.07359
# Poissons Ratio (z) = 1.40572 -0.29583
#
# Static dielectric constant tensor:
#      x y z
#    x 2.104810 0.000000 0.000000 
#    y 0.000000 1.979660 0.000000 
#    z 0.000000 0.000000 1.815460 
# 
# From -- ./inp_files/66298.got.cif
#   From: 2010.05.17/outbox.cif.g08.bks.cpg/sg74_34_cif.got.tgz:66298.got - 2010.06.03 17:57:02.
