data_PCOD9540472
_publ_section_title
;
Structure prediction by ZEFSAII (Michael W. Deem and Ramdas Pophale) SiO2 
 PCOD9540472
Probable space group: I M M A
;
_chemical_formula_sum "Si O2"
_cell_formula_units_Z 60
_cell_length_a 10.966576
_cell_length_b 15.036475
_cell_length_c 18.890308
_cell_angle_alpha 90.000000
_cell_angle_beta 90.000000
_cell_angle_gamma 90.000000
_cell_volume 3114.986209
_symmetry_space_group_name_H-M "I M M A"
_symmetry_group_IT_number 74
_symmetry_cell_setting 'orthorhombic'
loop_
_space_group_symop_operation_xyz
x,y,z
-x,1/2-y,z
x,-y,-z
-x,1/2+y,-z
-x,-y,-z
x,1/2+y,-z
-x,y,z
x,1/2-y,z
1/2+x,1/2+y,1/2+z
1/2-x,-y,1/2+z
1/2+x,1/2-y,1/2-z
1/2-x,y,1/2-z
1/2-x,1/2-y,1/2-z
1/2+x,y,1/2-z
1/2-x,1/2+y,1/2+z
1/2+x,-y,1/2+z
loop_
_atom_site_type_symbol
_atom_site_label
_atom_site_fract_x
_atom_site_fract_y
_atom_site_fract_z
Si Si1 0.752023 0.938226 0.833765
Si Si2 0.145114 0.250000 0.380503
Si Si3 0.639373 0.937844 0.063344
Si Si4 0.000000 0.947539 0.922765
Si Si5 0.263624 0.750000 0.040434
Si Si6 0.000000 0.250000 0.018615
O O1 0.750000 0.949230 0.750000
O O2 0.711564 0.837598 0.851323
O O3 0.878646 0.962617 0.874763
O O4 0.651827 0.002371 0.868036
O O5 0.167518 0.250000 0.464678
O O6 0.000000 0.250000 0.365250
O O7 0.500000 0.919324 0.043731
O O8 0.701992 0.843480 0.074614
O O9 0.691948 0.000000 0.000000
O O10 0.000000 0.841723 0.938265
O O11 0.000000 0.000000 0.000000
O O12 0.120959 0.750000 0.027102
#
# Coordination Sequence:
#
# PCOD9540472 Si02
#       6
#    16   8  16   8   8   4
#     4  12  26  42  64  99 135 177 219 271 340 401
#     4  12  23  40  67  95 135 169 215 270 339 408
#     4  11  22  40  66  93 128 167 219 273 325 395
#     4  12  24  44  68  94 135 177 226 274 326 407
#     4  12  22  39  65 102 121 171 221 279 324 388
#     4  12  20  38  64  90 136 160 218 270 320 388
#
# _framework density 19.261724000000001
#
# number of rings (size 3 to 8) (size 9 to 14) (size 15 to 20)
#    0.000    0.267    5.333    4.800    3.733    0.000 
#    0.000    0.667    0.000    0.000    0.000    0.000 
#    0.000    0.000    0.000    0.000    0.000    0.000 
#
# Total GULP energy -167558.782225 kJ/mol
# GULP energy per Si atom -5585.292741 kJ/mol
# Density = 1.921788 g / cm^3
# Si number density = 19.261724 Si / 1000 Ang^3
#
#
#
# Elastic Constant Matrix: (Units=GPa)
#
#
# Indices 1 2 3 4 5 6 
#
# 1 115.7045 10.9343 13.8427 0.0000 0.0000 0.0000
# 2 10.9343 126.2550 39.6018 0.0000 0.0000 0.0000
# 3 13.8427 39.6018 119.0475 0.0000 0.0000 0.0000
# 4 0.0000 0.0000 0.0000 -36.0736 0.0000 0.0000
# 5 0.0000 0.0000 0.0000 0.0000 19.2793 0.0000
# 6 0.0000 0.0000 0.0000 0.0000 0.0000 13.4625
#
#
#
# Elastic Compliance Matrix: (Units=1/GPa)
#
#
# Indices 1 2 3 4 5 6 
#
# 1 0.008792 -0.000492 -0.000859 0.000000 0.000000 0.000000
# 2 -0.000492 0.008871 -0.002894 0.000000 0.000000 0.000000
# 3 -0.000859 -0.002894 0.009462 0.000000 0.000000 0.000000
# 4 0.000000 0.000000 0.000000 -0.027721 0.000000 0.000000
# 5 0.000000 0.000000 0.000000 0.000000 0.051869 0.000000
# 6 0.000000 0.000000 0.000000 0.000000 0.000000 0.074280
#
#
# Mechanical properties :
#
#
# Convention : Reuss Voigt Hill
#
# Bulk Modulus (GPa) = 53.65863 54.41826 54.03845
# Shear Modulus (GPa) = 35.64950 19.10885 27.37917
#
# Velocity S-wave (km/s) = 4.30675 3.15312 3.77427
# Velocity P-wave (km/s) = 7.25596 6.44745 6.86362
#
# Compressibility (1/GPa) = 0.01863633
#
# Stress axis : x y z
#
# Youngs Moduli (GPa) = 113.74058 112.73017 105.68091
#
# Poissons Ratio (x) = 0.05548 0.09074
# Poissons Ratio (y) = 0.05597 0.30581
# Poissons Ratio (z) = 0.09766 0.32620
#
# Static dielectric constant tensor:
#      x y z
#    x 1.751910 0.000000 0.000000 
#    y 0.000000 1.684020 0.000000 
#    z 0.000000 0.000000 1.667530 
# 
# From -- ./inp_files/40650.got.cif
#   From: 2010.05.17/outbox.cif.g08.bks.cpg/sg74_21_cif.got.tgz:40650.got - 2010.06.03 17:57:02.
