data_PCOD9540054
_publ_section_title
;
Structure prediction by ZEFSAII (Michael W. Deem and Ramdas Pophale) SiO2 
 PCOD9540054
Probable space group: I M M A
;
_chemical_formula_sum "Si O2"
_cell_formula_units_Z 88
_cell_length_a 15.872101
_cell_length_b 21.980264
_cell_length_c 12.210411
_cell_angle_alpha 90.000000
_cell_angle_beta 90.000000
_cell_angle_gamma 90.000000
_cell_volume 4259.882353
_symmetry_space_group_name_H-M "I M M A"
_symmetry_group_IT_number 74
_symmetry_cell_setting 'orthorhombic'
loop_
_space_group_symop_operation_xyz
x,y,z
-x,1/2-y,z
x,-y,-z
-x,1/2+y,-z
-x,-y,-z
x,1/2+y,-z
-x,y,z
x,1/2-y,z
1/2+x,1/2+y,1/2+z
1/2-x,-y,1/2+z
1/2+x,1/2-y,1/2-z
1/2-x,y,1/2-z
1/2-x,1/2-y,1/2-z
1/2+x,y,1/2-z
1/2-x,1/2+y,1/2+z
1/2+x,-y,1/2+z
loop_
_atom_site_type_symbol
_atom_site_label
_atom_site_fract_x
_atom_site_fract_y
_atom_site_fract_z
Si Si1 0.361791 0.910765 0.089999
Si Si2 0.181914 0.568589 0.042512
Si Si3 0.403229 0.045147 0.153292
Si Si4 0.000000 0.894183 0.093495
Si Si5 0.000000 0.677290 0.315968
Si Si6 0.500000 0.317436 0.372953
Si Si7 0.171164 0.633612 0.813543
O O1 0.262061 0.910273 0.112999
O O2 0.417917 0.854513 0.129146
O O3 0.396615 0.973064 0.141717
O O4 0.374692 0.922971 0.959821
O O5 0.089216 0.570343 0.096980
O O6 0.197937 0.500000 0.000000
O O7 0.184042 0.614928 0.939204
O O8 0.500000 0.060935 0.173816
O O9 0.347453 0.070907 0.250066
O O10 0.000000 0.844770 0.189749
O O11 0.000000 0.864393 0.973187
O O12 0.000000 0.750000 0.326035
O O13 0.500000 0.250000 0.419533
O O14 0.414310 0.327897 0.306523
O O15 0.250000 0.662070 0.750000
#
# Coordination Sequence:
#
# PCOD9540054 Si02
#       7
#    16  16  16   8   8   8  16
#     4  11  21  39  63  95 131 166 210 261 322 380
#     4  11  22  39  64 100 132 163 204 262 331 391
#     4  11  19  37  64  95 132 161 195 261 331 392
#     4  10  26  44  63  89 131 169 219 268 309 377
#     4  12  27  46  67  91 126 180 233 269 312 375
#     4  10  23  43  62  83 119 168 212 256 305 364
#     4  11  21  36  63  94 129 156 197 256 319 388
#
# _framework density 20.657847
#
# number of rings (size 3 to 8) (size 9 to 14) (size 15 to 20)
#    0.000    1.091    6.364    1.091    2.545    1.091 
#    0.000    7.273    0.000    0.000    0.000    0.000 
#    0.000    0.000    0.000    0.000    0.000    0.000 
#
# Total GULP energy -245775.579994 kJ/mol
# GULP energy per Si atom -5585.808636 kJ/mol
# Density = 2.061083 g / cm^3
# Si number density = 20.657847 Si / 1000 Ang^3
#
#
#
# Elastic Constant Matrix: (Units=GPa)
#
#
# Indices 1 2 3 4 5 6 
#
# 1 204.4972 38.6192 28.8478 0.0000 0.0000 0.0000
# 2 38.6192 71.3406 7.2434 0.0000 0.0000 0.0000
# 3 28.8478 7.2434 54.3307 0.0000 0.0000 0.0000
# 4 0.0000 0.0000 0.0000 14.6668 0.0000 0.0000
# 5 0.0000 0.0000 0.0000 0.0000 -12.0900 0.0000
# 6 0.0000 0.0000 0.0000 0.0000 0.0000 2.0504
#
#
#
# Elastic Compliance Matrix: (Units=1/GPa)
#
#
# Indices 1 2 3 4 5 6 
#
# 1 0.005814 -0.002873 -0.002704 0.000000 0.000000 0.000000
# 2 -0.002873 0.015629 -0.000558 0.000000 0.000000 0.000000
# 3 -0.002704 -0.000558 0.019916 0.000000 0.000000 0.000000
# 4 0.000000 0.000000 0.000000 0.068181 0.000000 0.000000
# 5 0.000000 0.000000 0.000000 0.000000 -0.082713 0.000000
# 6 0.000000 0.000000 0.000000 0.000000 0.000000 0.487721
#
#
# Mechanical properties :
#
#
# Convention : Reuss Voigt Hill
#
# Bulk Modulus (GPa) = 34.37749 53.28770 43.83260
# Shear Modulus (GPa) = 9.31941 17.95598 13.63770
#
# Velocity S-wave (km/s) = 2.12629 2.95143 2.57217
# Velocity P-wave (km/s) = 4.76504 6.12095 5.48505
#
# Compressibility (1/GPa) = 0.02908880
#
# Stress axis : x y z
#
# Youngs Moduli (GPa) = 171.99809 63.98329 50.21087
#
# Poissons Ratio (x) = 0.18381 0.13577
# Poissons Ratio (y) = 0.49411 0.02803
# Poissons Ratio (z) = 0.46509 0.03572
#
# Static dielectric constant tensor:
#      x y z
#    x 1.802610 0.000000 0.000000 
#    y 0.000000 1.680890 0.000000 
#    z 0.000000 0.000000 1.755210 
# 
# From -- ./inp_files/20705.got.cif
#   From: 2010.05.17/outbox.cif.g08.bks.cpg/sg74_11_cif.got.tgz:20705.got - 2010.06.03 17:57:02.
