data_PCOD9540569
_publ_section_title
;
Structure prediction by ZEFSAII (Michael W. Deem and Ramdas Pophale) SiO2 
 PCOD9540569
Probable space group: I M M A
;
_chemical_formula_sum "Si O2"
_cell_formula_units_Z 88
_cell_length_a 32.116378
_cell_length_b 10.357497
_cell_length_c 14.072350
_cell_angle_alpha 90.000000
_cell_angle_beta 90.000000
_cell_angle_gamma 90.000000
_cell_volume 4681.100930
_symmetry_space_group_name_H-M "I M M A"
_symmetry_group_IT_number 74
_symmetry_cell_setting 'orthorhombic'
loop_
_space_group_symop_operation_xyz
x,y,z
-x,1/2-y,z
x,-y,-z
-x,1/2+y,-z
-x,-y,-z
x,1/2+y,-z
-x,y,z
x,1/2-y,z
1/2+x,1/2+y,1/2+z
1/2-x,-y,1/2+z
1/2+x,1/2-y,1/2-z
1/2-x,y,1/2-z
1/2-x,1/2-y,1/2-z
1/2+x,y,1/2-z
1/2-x,1/2+y,1/2+z
1/2+x,-y,1/2+z
loop_
_atom_site_type_symbol
_atom_site_label
_atom_site_fract_x
_atom_site_fract_y
_atom_site_fract_z
Si Si1 0.366671 0.598493 0.655217
Si Si2 0.072702 0.898323 0.578408
Si Si3 0.762488 0.602990 0.361140
Si Si4 0.545383 0.905546 0.704499
Si Si5 0.806281 0.500000 0.000000
Si Si6 0.667186 0.901144 0.857278
O O1 0.371948 0.750000 0.673798
O O2 0.413620 0.544229 0.649963
O O3 0.337116 0.580370 0.566568
O O4 0.343993 0.551685 0.750491
O O5 0.062181 0.750000 0.554071
O O6 0.054360 0.925313 0.683193
O O7 0.123076 0.906360 0.588754
O O8 0.058642 0.000000 0.500000
O O9 0.778017 0.750000 0.371936
O O10 0.750000 0.584664 0.250000
O O11 0.723051 0.581272 0.429603
O O12 0.796697 0.496626 0.389241
O O13 0.500000 0.958822 0.678558
O O14 0.543379 0.750000 0.691263
O O15 0.680732 0.750000 0.856728
#
# Coordination Sequence:
#
# PCOD9540569 Si02
#       6
#    16  16  16  16   8  16
#     4   9  18  34  55  77 101 136 181 222 270 330
#     4   9  18  31  50  79 111 143 180 221 271 324
#     4  11  24  39  54  80 113 144 185 237 288 332
#     4   8  15  31  55  79 104 136 177 226 274 325
#     4  12  22  36  55  78 108 148 185 234 276 340
#     4   9  19  37  55  72 102 145 186 223 265 323
#
# _framework density 18.798995999999999
#
# number of rings (size 3 to 8) (size 9 to 14) (size 15 to 20)
#    0.000    2.545    1.818    2.727    1.273    2.909 
#    0.000    0.455    0.000    0.000    0.000    0.000 
#    0.000    0.000    0.000    0.000    0.000    0.000 
#
# Total GULP energy -245177.430206 kJ/mol
# GULP energy per Si atom -5572.214323 kJ/mol
# Density = 1.875621 g / cm^3
# Si number density = 18.798996 Si / 1000 Ang^3
#
#
#
# Elastic Constant Matrix: (Units=GPa)
#
#
# Indices 1 2 3 4 5 6 
#
# 1 127.9577 32.1084 26.7637 0.0000 0.0000 0.0000
# 2 32.1084 46.5291 8.9086 0.0000 0.0000 0.0000
# 3 26.7637 8.9086 64.9211 0.0000 0.0000 0.0000
# 4 0.0000 0.0000 0.0000 9.5358 0.0000 0.0000
# 5 0.0000 0.0000 0.0000 0.0000 -32.0878 0.0000
# 6 0.0000 0.0000 0.0000 0.0000 0.0000 11.8286
#
#
#
# Elastic Compliance Matrix: (Units=1/GPa)
#
#
# Indices 1 2 3 4 5 6 
#
# 1 0.010093 -0.006335 -0.003292 0.000000 0.000000 0.000000
# 2 -0.006335 0.026048 -0.000963 0.000000 0.000000 0.000000
# 3 -0.003292 -0.000963 0.016892 0.000000 0.000000 0.000000
# 4 0.000000 0.000000 0.000000 0.104868 0.000000 0.000000
# 5 0.000000 0.000000 0.000000 0.000000 -0.031165 0.000000
# 6 0.000000 0.000000 0.000000 0.000000 0.000000 0.084541
#
#
# Mechanical properties :
#
#
# Convention : Reuss Voigt Hill
#
# Bulk Modulus (GPa) = 31.39240 41.66326 36.52783
# Shear Modulus (GPa) = 20.56987 9.29713 14.93350
#
# Velocity S-wave (km/s) = 3.31146 2.22627 2.82153
# Velocity P-wave (km/s) = 5.59966 5.36833 5.48522
#
# Compressibility (1/GPa) = 0.03185485
#
# Stress axis : x y z
#
# Youngs Moduli (GPa) = 99.07708 38.39103 59.19820
#
# Poissons Ratio (x) = 0.24320 0.19486
# Poissons Ratio (y) = 0.62763 0.05700
# Poissons Ratio (z) = 0.32612 0.03696
#
# Static dielectric constant tensor:
#      x y z
#    x 1.702460 0.000000 0.000000 
#    y 0.000000 1.636280 0.000000 
#    z 0.000000 0.000000 1.730700 
# 
# From -- ./inp_files/37715.got.cif
#   From: 2010.05.17/outbox.cif.g08.bks.cpg/sg74_19_cif.got.tgz:37715.got - 2010.06.03 17:57:02.
