data_PCOD9540465
_publ_section_title
;
Structure prediction by ZEFSAII (Michael W. Deem and Ramdas Pophale) SiO2 
 PCOD9540465
Probable space group: I M M A
;
_chemical_formula_sum "Si O2"
_cell_formula_units_Z 56
_cell_length_a 20.879921
_cell_length_b 14.969964
_cell_length_c 8.288744
_cell_angle_alpha 90.000000
_cell_angle_beta 90.000000
_cell_angle_gamma 90.000000
_cell_volume 2590.826519
_symmetry_space_group_name_H-M "I M M A"
_symmetry_group_IT_number 74
_symmetry_cell_setting 'orthorhombic'
loop_
_space_group_symop_operation_xyz
x,y,z
-x,1/2-y,z
x,-y,-z
-x,1/2+y,-z
-x,-y,-z
x,1/2+y,-z
-x,y,z
x,1/2-y,z
1/2+x,1/2+y,1/2+z
1/2-x,-y,1/2+z
1/2+x,1/2-y,1/2-z
1/2-x,y,1/2-z
1/2-x,1/2-y,1/2-z
1/2+x,y,1/2-z
1/2-x,1/2+y,1/2+z
1/2+x,-y,1/2+z
loop_
_atom_site_type_symbol
_atom_site_label
_atom_site_fract_x
_atom_site_fract_y
_atom_site_fract_z
Si Si1 0.091548 0.250000 0.466158
Si Si2 0.337984 0.599797 0.439668
Si Si3 0.571263 0.930346 0.141616
Si Si4 0.928040 0.750000 0.911783
Si Si5 0.243063 0.750000 0.551701
O O1 0.066772 0.336292 0.554659
O O2 0.072671 0.250000 0.280235
O O3 0.168246 0.250000 0.478365
O O4 0.324461 0.500000 0.500000
O O5 0.371649 0.581164 0.268485
O O6 0.391111 0.660715 0.531998
O O7 0.276549 0.663587 0.468698
O O8 0.500000 0.953550 0.210883
O O9 0.586281 0.000000 0.000000
O O10 0.000000 0.750000 0.976651
O O11 0.250000 0.750000 0.750000
#
# Coordination Sequence:
#
# PCOD9540465 Si02
#       5
#     8  16  16   8   8
#     4  12  23  43  66  90 139 178 222 284 354 405
#     4  11  24  44  70  98 134 183 229 288 347 418
#     4  11  25  42  66 103 140 176 226 285 349 420
#     4  11  22  39  70 104 134 177 230 286 352 426
#     4  11  25  47  68  98 136 178 238 298 341 409
#
# _framework density 21.614723000000001
#
# number of rings (size 3 to 8) (size 9 to 14) (size 15 to 20)
#    0.000    0.857    2.857    5.571    0.000    8.000 
#    0.000    0.000    0.000    0.000    0.000    0.000 
#    0.000    0.000    0.000    0.000    0.000    0.000 
#
# Total GULP energy -156399.775611 kJ/mol
# GULP energy per Si atom -5585.706272 kJ/mol
# Density = 2.156553 g / cm^3
# Si number density = 21.614723 Si / 1000 Ang^3
#
#
#
# Elastic Constant Matrix: (Units=GPa)
#
#
# Indices 1 2 3 4 5 6 
#
# 1 168.5605 37.9080 32.3089 0.0000 0.0000 0.0000
# 2 37.9080 190.4926 44.9215 0.0000 0.0000 0.0000
# 3 32.3089 44.9215 95.7262 0.0000 0.0000 0.0000
# 4 0.0000 0.0000 0.0000 28.4160 0.0000 0.0000
# 5 0.0000 0.0000 0.0000 0.0000 35.8538 0.0000
# 6 0.0000 0.0000 0.0000 0.0000 0.0000 28.7112
#
#
#
# Elastic Compliance Matrix: (Units=1/GPa)
#
#
# Indices 1 2 3 4 5 6 
#
# 1 0.006468 -0.000868 -0.001776 0.000000 0.000000 0.000000
# 2 -0.000868 0.006019 -0.002532 0.000000 0.000000 0.000000
# 3 -0.001776 -0.002532 0.012234 0.000000 0.000000 0.000000
# 4 0.000000 0.000000 0.000000 0.035191 0.000000 0.000000
# 5 0.000000 0.000000 0.000000 0.000000 0.027891 0.000000
# 6 0.000000 0.000000 0.000000 0.000000 0.000000 0.034830
#
#
# Mechanical properties :
#
#
# Convention : Reuss Voigt Hill
#
# Bulk Modulus (GPa) = 69.58903 76.11735 72.85319
# Shear Modulus (GPa) = 36.29110 41.23890 38.76500
#
# Velocity S-wave (km/s) = 4.10200 4.37270 4.23951
# Velocity P-wave (km/s) = 7.39597 7.79653 7.59889
#
# Compressibility (1/GPa) = 0.01437008
#
# Stress axis : x y z
#
# Youngs Moduli (GPa) = 154.60165 166.13038 81.74110
#
# Poissons Ratio (x) = 0.14428 0.14514
# Poissons Ratio (y) = 0.13427 0.20694
# Poissons Ratio (z) = 0.27451 0.42057
#
# Static dielectric constant tensor:
#      x y z
#    x 2.446970 0.000000 0.000000 
#    y 0.000000 1.736370 0.000000 
#    z 0.000000 0.000000 1.810500 
# 
# From -- ./inp_files/13233.got.cif
#   From: 2010.05.17/outbox.cif.g08.bks.cpg/sg74_7_cif.got.tgz:13233.got - 2010.06.03 17:57:02.
