data_PCOD9540934
_publ_section_title
;
Structure prediction by ZEFSAII (Michael W. Deem and Ramdas Pophale) SiO2 
 PCOD9540934
Probable space group: I M M A
;
_chemical_formula_sum "Si O2"
_cell_formula_units_Z 52
_cell_length_a 30.000000
_cell_length_b 9.000000
_cell_length_c 21.000000
_cell_angle_alpha 90.000000
_cell_angle_beta 90.000000
_cell_angle_gamma 90.000000
_cell_volume 5670.000000
_symmetry_space_group_name_H-M "I M M A"
_symmetry_group_IT_number 74
_symmetry_cell_setting 'orthorhombic'
loop_
_space_group_symop_operation_xyz
x,y,z
-x,1/2-y,z
x,-y,-z
-x,1/2+y,-z
-x,-y,-z
x,1/2+y,-z
-x,y,z
x,1/2-y,z
1/2+x,1/2+y,1/2+z
1/2-x,-y,1/2+z
1/2+x,1/2-y,1/2-z
1/2-x,y,1/2-z
1/2-x,1/2-y,1/2-z
1/2+x,y,1/2-z
1/2-x,1/2+y,1/2+z
1/2+x,-y,1/2+z
loop_
_atom_site_type_symbol
_atom_site_label
_atom_site_fract_x
_atom_site_fract_y
_atom_site_fract_z
Si Si1 0.684660 0.416919 0.938279
Si Si2 0.353386 0.429787 0.181613
Si Si3 0.566704 0.418489 0.346403
Si Si4 0.291051 0.085268 0.561819
Si Si5 0.829408 0.421911 0.179070
Si Si6 0.952188 0.572464 0.697591
Si Si7 0.500000 0.921557 0.433197
O O1 0.666951 0.250000 0.932423
O O2 0.674522 0.512462 0.876645
O O3 0.737853 0.406482 0.945675
O O4 0.666169 0.500000 0.000000
O O5 0.354657 0.250000 0.184605
O O6 0.332513 0.480076 0.248805
O O7 0.404536 0.483994 0.173547
O O8 0.554048 0.250000 0.363887
O O9 0.619808 0.427708 0.345753
O O10 0.551108 0.443359 0.273935
O O11 0.542734 0.529621 0.392745
O O12 0.310098 0.250000 0.562728
O O13 0.308987 0.000000 0.500000
O O14 0.300400 0.007688 0.628480
O O15 0.815124 0.250000 0.181137
O O16 0.952717 0.750000 0.684987
O O17 0.000000 0.510723 0.675600
O O18 0.500000 0.750000 0.443683
O O19 0.500000 0.000000 0.500000
#
# Coordination Sequence:
#
# PCOD9540934 Si02
#       7
#    16  16  16  16  16  16   8
#     4  10  21  37  56  77 103 138 175 214 261 313
#     4   9  18  32  53  83 110 136 172 211 257 310
#     4   9  17  33  53  70  94 129 166 207 253 300
#     4  10  21  36  54  74 100 138 180 219 264 314
#     4   9  19  34  54  80 107 136 172 214 261 311
#     4   8  13  26  53  79 100 130 165 201 245 300
#     4  12  24  34  46  66  92 128 173 216 259 304
#
# _framework density 9.1710759999999993
#
# number of rings (size 3 to 8) (size 9 to 14) (size 15 to 20)
#    0.000    2.615    0.769    3.462    0.000    4.308 
#    0.000    5.385    0.000    0.462    0.000    0.000 
#    0.000    0.000    0.000    0.000    0.000    0.000 
#
# Total GULP energy -289555.181614 kJ/mol
# GULP energy per Si atom -5568.368877 kJ/mol
# Density = 0.915020 g / cm^3
# Si number density = 9.171076 Si / 1000 Ang^3
#
#
#
# Elastic Constant Matrix: (Units=GPa)
#
#
# Indices 1 2 3 4 5 6 
#
# 1 2.6180 14.2185 11.9402 0.0000 0.0000 0.0000
# 2 14.2185 51.1755 44.1693 0.0000 0.0000 0.0000
# 3 11.9402 44.1693 85.7735 0.0000 0.0000 0.0000
# 4 0.0000 0.0000 0.0000 16.8824 0.0000 0.0000
# 5 0.0000 0.0000 0.0000 0.0000 -6.9112 0.0000
# 6 0.0000 0.0000 0.0000 0.0000 0.0000 -2.2201
#
#
#
# Elastic Compliance Matrix: (Units=1/GPa)
#
#
# Indices 1 2 3 4 5 6 
#
# 1 -0.749233 0.212667 -0.005216 0.000000 0.000000 0.000000
# 2 0.212667 -0.025191 -0.016632 0.000000 0.000000 0.000000
# 3 -0.005216 -0.016632 0.020950 0.000000 0.000000 0.000000
# 4 0.000000 0.000000 0.000000 0.059233 0.000000 0.000000
# 5 0.000000 0.000000 0.000000 0.000000 -0.144693 0.000000
# 6 0.000000 0.000000 0.000000 0.000000 0.000000 -0.450437
#
#
# Mechanical properties :
#
#
# Convention : Reuss Voigt Hill
#
# Bulk Modulus (GPa) = -2.68935 31.13587 14.22326
# Shear Modulus (GPa) = -2.78559 6.16616 1.69029
#
# Velocity S-wave (km/s) = -1.23368 1.83550 0.96101
# Velocity P-wave (km/s) = 1.87048 4.63723 3.00044
#
# Compressibility (1/GPa) = -0.37183717
#
# Stress axis : x y z
#
# Youngs Moduli (GPa) = -1.33470 -39.69679 47.73373
#
# Poissons Ratio (x) = 8.44219 0.24898
# Poissons Ratio (y) = 0.28385 0.79392
# Poissons Ratio (z) = -0.00696 -0.66025
#
# Static dielectric constant tensor:
#      x y z
#    x 1.697490 0.000000 0.000000 
#    y 0.000000 1.644150 0.000000 
#    z 0.000000 0.000000 1.589900 
# 
# From -- ./inp_files/55641.got.cif
#   From: 2010.05.17/outbox.ucp.g08.bks.cvg/sg74_28_cif.got.tgz:55641.got - 2010.06.11 16:37:44.
