data_PCOD9540543
_publ_section_title
;
Structure prediction by ZEFSAII (Michael W. Deem and Ramdas Pophale) SiO2 
 PCOD9540543
Probable space group: I M M A
;
_chemical_formula_sum "Si O2"
_cell_formula_units_Z 48
_cell_length_a 9.419364
_cell_length_b 21.800635
_cell_length_c 12.219558
_cell_angle_alpha 90.000000
_cell_angle_beta 90.000000
_cell_angle_gamma 90.000000
_cell_volume 2509.263220
_symmetry_space_group_name_H-M "I M M A"
_symmetry_group_IT_number 74
_symmetry_cell_setting 'orthorhombic'
loop_
_space_group_symop_operation_xyz
x,y,z
-x,1/2-y,z
x,-y,-z
-x,1/2+y,-z
-x,-y,-z
x,1/2+y,-z
-x,y,z
x,1/2-y,z
1/2+x,1/2+y,1/2+z
1/2-x,-y,1/2+z
1/2+x,1/2-y,1/2-z
1/2-x,y,1/2-z
1/2-x,1/2-y,1/2-z
1/2+x,y,1/2-z
1/2-x,1/2+y,1/2+z
1/2+x,-y,1/2+z
loop_
_atom_site_type_symbol
_atom_site_label
_atom_site_fract_x
_atom_site_fract_y
_atom_site_fract_z
Si Si1 0.671327 0.750000 0.399666
Si Si2 0.000000 0.577727 0.882143
Si Si3 0.152266 0.750000 0.600019
Si Si4 0.750000 0.858700 0.250000
Si Si5 0.000000 0.931093 0.139698
Si Si6 0.250000 0.856708 0.750000
O O1 0.500000 0.750000 0.376167
O O2 0.707336 0.750000 0.526294
O O3 0.750143 0.809360 0.349214
O O4 0.000000 0.504321 0.867572
O O5 0.859923 0.604517 0.823095
O O6 0.000000 0.591945 0.012855
O O7 0.161908 0.810624 0.673119
O O8 0.000000 0.750000 0.539872
O O9 0.629002 0.903896 0.291054
#
# Coordination Sequence:
#
# PCOD9540543 Si02
#       6
#     8   8   8   8   8   8
#     4  11  24  40  66  95 131 169 208 261 324 383
#     4  11  24  45  65  94 124 173 214 264 317 375
#     4  11  24  38  64  97 127 169 207 267 319 384
#     4  11  23  42  62  98 123 167 210 262 316 383
#     4  11  24  43  69  90 128 169 216 264 317 377
#     4  11  23  42  64  92 131 163 218 260 320 379
#
# _framework density 19.129121999999999
#
# number of rings (size 3 to 8) (size 9 to 14) (size 15 to 20)
#    0.000    1.000    3.333    3.000    4.667    0.000 
#    0.000    0.000    0.000    8.000    0.000    0.000 
#    0.000    0.000    0.000    0.000    0.000    0.000 
#
# Total GULP energy -133721.384023 kJ/mol
# GULP energy per Si atom -5571.724334 kJ/mol
# Density = 1.908558 g / cm^3
# Si number density = 19.129122 Si / 1000 Ang^3
#
#
#
# Elastic Constant Matrix: (Units=GPa)
#
#
# Indices 1 2 3 4 5 6 
#
# 1 140.4112 65.9666 82.9131 0.0000 0.0000 0.0000
# 2 65.9666 117.9643 51.5541 0.0000 0.0000 0.0000
# 3 82.9131 51.5541 105.9480 -0.0001 0.0000 -0.0001
# 4 0.0000 0.0000 -0.0001 4.1116 0.0000 0.0000
# 5 0.0000 0.0000 0.0000 0.0000 31.8446 0.0000
# 6 0.0000 0.0000 -0.0001 0.0000 0.0000 5.2758
#
#
#
# Elastic Compliance Matrix: (Units=1/GPa)
#
#
# Indices 1 2 3 4 5 6 
#
# 1 0.014608 -0.004030 -0.009471 0.000000 0.000000 0.000000
# 2 -0.004030 0.011878 -0.002626 0.000000 0.000000 0.000000
# 3 -0.009471 -0.002626 0.018128 0.000000 0.000000 0.000000
# 4 0.000000 0.000000 0.000000 0.243217 0.000000 0.000000
# 5 0.000000 0.000000 0.000000 0.000000 0.031402 0.000000
# 6 0.000000 0.000000 0.000000 0.000000 0.000000 0.189545
#
#
# Mechanical properties :
#
#
# Convention : Reuss Voigt Hill
#
# Bulk Modulus (GPa) = 80.90334 85.02123 82.96229
# Shear Modulus (GPa) = 9.17174 19.17237 14.17205
#
# Velocity S-wave (km/s) = 2.19204 3.16928 2.72483
# Velocity P-wave (km/s) = 6.98512 7.61150 7.30503
#
# Compressibility (1/GPa) = 0.01236043
#
# Stress axis : x y z
#
# Youngs Moduli (GPa) = 68.45698 84.18629 55.16206
#
# Poissons Ratio (x) = 0.33924 0.52244
# Poissons Ratio (y) = 0.27586 0.14488
# Poissons Ratio (z) = 0.64835 0.22111
#
# Static dielectric constant tensor:
#      x y z
#    x 1.657310 0.000000 0.000000 
#    y 0.000000 1.656870 0.000000 
#    z 0.000000 0.000000 1.662400 
# 
# From -- ./inp_files/18316.got.cif
#   From: 2010.05.17/outbox.cif.g08.bks.cpg/sg74_10_cif.got.tgz:18316.got - 2010.06.03 17:57:02.
