data_PCOD9540712
_publ_section_title
;
Structure prediction by ZEFSAII (Michael W. Deem and Ramdas Pophale) SiO2 
 PCOD9540712
Probable space group: I M M A
;
_chemical_formula_sum "Si O2"
_cell_formula_units_Z 96
_cell_length_a 15.043122
_cell_length_b 14.335740
_cell_length_c 17.928123
_cell_angle_alpha 90.000000
_cell_angle_beta 90.000000
_cell_angle_gamma 90.000000
_cell_volume 3866.276561
_symmetry_space_group_name_H-M "I M M A"
_symmetry_group_IT_number 74
_symmetry_cell_setting 'orthorhombic'
loop_
_space_group_symop_operation_xyz
x,y,z
-x,1/2-y,z
x,-y,-z
-x,1/2+y,-z
-x,-y,-z
x,1/2+y,-z
-x,y,z
x,1/2-y,z
1/2+x,1/2+y,1/2+z
1/2-x,-y,1/2+z
1/2+x,1/2-y,1/2-z
1/2-x,y,1/2-z
1/2-x,1/2-y,1/2-z
1/2+x,y,1/2-z
1/2-x,1/2+y,1/2+z
1/2+x,-y,1/2+z
loop_
_atom_site_type_symbol
_atom_site_label
_atom_site_fract_x
_atom_site_fract_y
_atom_site_fract_z
Si Si1 0.891131 0.350351 0.695253
Si Si2 0.211362 0.386032 0.004603
Si Si3 0.604906 0.059254 0.190128
Si Si4 0.101088 0.118990 0.863501
Si Si5 0.397127 0.605248 0.650146
Si Si6 0.596171 0.391098 0.023739
O O1 0.862443 0.250000 0.663293
O O2 0.858540 0.454417 0.672484
O O3 0.866886 0.349515 0.782832
O O4 0.000000 0.352105 0.688753
O O5 0.166094 0.360177 0.083650
O O6 0.312013 0.353905 0.994000
O O7 0.212461 0.500000 0.000000
O O8 0.154851 0.352884 0.935176
O O9 0.500000 0.045104 0.207647
O O10 0.638052 0.111660 0.264387
O O11 0.607360 0.113817 0.113084
O O12 0.000000 0.148962 0.871318
O O13 0.100302 0.006541 0.860531
O O14 0.500000 0.639094 0.643595
O O15 0.500000 0.352527 0.001358
O O16 0.592278 0.500000 0.000000
#
# Coordination Sequence:
#
# PCOD9540712 Si02
#       6
#    16  16  16  16  16  16
#     4   8  13  22  38  60  85 113 137 155 188 240
#     4   9  15  22  34  52  70  97 128 155 190 231
#     4   8  14  24  36  52  76 103 132 166 196 228
#     4   8  13  21  34  55  82 104 124 151 181 227
#     4   8  13  21  34  53  75  97 120 148 188 237
#     4   9  17  27  36  48  67  94 131 171 207 237
#
# _framework density 24.830090999999999
#
# number of rings (size 3 to 8) (size 9 to 14) (size 15 to 20)
#    0.000    3.667    0.000    2.500    0.000    2.667 
#    0.000    0.000    0.000    0.000    0.000   37.333 
#    0.000    2.000    0.000    4.833    0.000   54.333 
#
# Total GULP energy -267881.516585 kJ/mol
# GULP energy per Si atom -5580.864929 kJ/mol
# Density = 2.477358 g / cm^3
# Si number density = 24.830091 Si / 1000 Ang^3
#
#
#
# Elastic Constant Matrix: (Units=GPa)
#
#
# Indices 1 2 3 4 5 6 
#
# 1 80.7521 -0.0240 42.4587 0.0000 0.0000 0.0000
# 2 -0.0240 81.7178 -3.3502 0.0000 0.0000 0.0000
# 3 42.4587 -3.3502 136.9374 0.0000 0.0000 0.0000
# 4 0.0000 0.0000 0.0000 -10.5761 0.0000 0.0000
# 5 0.0000 0.0000 0.0000 0.0000 -4.3882 0.0000
# 6 0.0000 0.0000 0.0000 0.0000 0.0000 -34.1323
#
#
#
# Elastic Compliance Matrix: (Units=1/GPa)
#
#
# Indices 1 2 3 4 5 6 
#
# 1 0.014798 -0.000184 -0.004593 0.000000 0.000000 0.000000
# 2 -0.000184 0.012252 0.000357 0.000000 0.000000 0.000000
# 3 -0.004593 0.000357 0.008735 0.000000 0.000000 0.000000
# 4 0.000000 0.000000 0.000000 -0.094553 0.000000 0.000000
# 5 0.000000 0.000000 0.000000 0.000000 -0.227886 0.000000
# 6 0.000000 0.000000 0.000000 0.000000 0.000000 -0.029298
#
#
# Mechanical properties :
#
#
# Convention : Reuss Voigt Hill
#
# Bulk Modulus (GPa) = 37.11192 41.95291 39.53242
# Shear Modulus (GPa) = -16.77127 7.53556 -4.61785
#
# Velocity S-wave (km/s) = -2.60174 1.74397 -1.36522
# Velocity P-wave (km/s) = 2.43995 4.58126 3.67024
#
# Compressibility (1/GPa) = 0.02694552
#
# Stress axis : x y z
#
# Youngs Moduli (GPa) = 67.57482 81.62062 114.47671
#
# Poissons Ratio (x) = 0.01501 0.52578
# Poissons Ratio (y) = 0.01243 -0.04084
# Poissons Ratio (z) = 0.31036 -0.02912
#
# Static dielectric constant tensor:
#      x y z
#    x 1.956770 0.000000 0.000000 
#    y 0.000000 1.991170 0.000000 
#    z 0.000000 0.000000 1.957080 
# 
# From -- ./inp_files/44514.got.cif
#   From: 2010.05.17/outbox.cif.g08.bks.cpg/sg74_23_cif.got.tgz:44514.got - 2010.06.03 17:57:02.
