data_PCOD9540799
_publ_section_title
;
Structure prediction by ZEFSAII (Michael W. Deem and Ramdas Pophale) SiO2 
 PCOD9540799
Probable space group: I M M A
;
_chemical_formula_sum "Si O2"
_cell_formula_units_Z 48
_cell_length_a 9.000000
_cell_length_b 27.000000
_cell_length_c 21.000000
_cell_angle_alpha 90.000000
_cell_angle_beta 90.000000
_cell_angle_gamma 90.000000
_cell_volume 5103.000000
_symmetry_space_group_name_H-M "I M M A"
_symmetry_group_IT_number 74
_symmetry_cell_setting 'orthorhombic'
loop_
_space_group_symop_operation_xyz
x,y,z
-x,1/2-y,z
x,-y,-z
-x,1/2+y,-z
-x,-y,-z
x,1/2+y,-z
-x,y,z
x,1/2-y,z
1/2+x,1/2+y,1/2+z
1/2-x,-y,1/2+z
1/2+x,1/2-y,1/2-z
1/2-x,y,1/2-z
1/2-x,1/2-y,1/2-z
1/2+x,y,1/2-z
1/2-x,1/2+y,1/2+z
1/2+x,-y,1/2+z
loop_
_atom_site_type_symbol
_atom_site_label
_atom_site_fract_x
_atom_site_fract_y
_atom_site_fract_z
Si Si1 0.331277 0.810624 0.185567
Si Si2 0.180387 0.026724 0.682569
Si Si3 0.327905 0.691186 0.442017
Si Si4 0.818150 0.416083 0.184316
Si Si5 0.172910 0.367442 0.052781
Si Si6 0.674593 0.956763 0.451870
O O1 0.500000 0.827545 0.187410
O O2 0.330319 0.750000 0.185346
O O3 0.250000 0.826108 0.250000
O O4 0.255524 0.827797 0.120460
O O5 0.250000 0.046598 0.750000
O O6 0.237614 0.048786 0.614721
O O7 0.000000 0.027289 0.686061
O O8 0.246288 0.970684 0.678565
O O9 0.500000 0.674429 0.438382
O O10 0.328878 0.750000 0.437058
O O11 0.261895 0.677041 0.510848
O O12 0.750000 0.395049 0.250000
O O13 0.771211 0.386082 0.120838
O O14 0.000000 0.419587 0.186973
O O15 0.000000 0.355524 0.065699
O O16 0.179737 0.410090 0.999009
O O17 0.500000 0.967270 0.436265
O O18 0.728938 0.000000 0.500000
#
# Coordination Sequence:
#
# PCOD9540799 Si02
#       6
#    16  16  16  16  16  16
#     4   9  16  27  45  69  95 124 159 200 244 291
#     4  11  21  33  50  74 103 135 171 207 247 294
#     4   9  17  31  51  74  98 127 166 210 250 293
#     4  10  18  32  51  74 100 131 168 205 247 294
#     4   9  18  32  52  75 100 131 166 201 249 302
#     4  10  18  33  53  72  99 134 164 200 248 297
#
# _framework density 9.4062319999999993
#
# number of rings (size 3 to 8) (size 9 to 14) (size 15 to 20)
#    0.000    2.333    1.667    3.500    0.000    2.333 
#    0.000    3.333    0.000    0.500    0.000    0.000 
#    0.000    0.000    0.000    0.000    0.000    0.667 
#
# Total GULP energy -267343.881344 kJ/mol
# GULP energy per Si atom -5569.664195 kJ/mol
# Density = 0.938482 g / cm^3
# Si number density = 9.406232 Si / 1000 Ang^3
#
#
#
# Elastic Constant Matrix: (Units=GPa)
#
#
# Indices 1 2 3 4 5 6 
#
# 1 94.9646 15.4011 60.0796 0.0000 0.0000 0.0000
# 2 15.4011 27.8265 26.1563 0.0000 0.0000 0.0000
# 3 60.0796 26.1563 196.4255 0.0000 0.0000 0.0000
# 4 0.0000 0.0000 0.0000 23.3006 0.0000 0.0000
# 5 0.0000 0.0000 0.0000 0.0000 34.4656 0.0000
# 6 0.0000 0.0000 0.0000 0.0000 0.0000 7.1615
#
#
#
# Elastic Compliance Matrix: (Units=1/GPa)
#
#
# Indices 1 2 3 4 5 6 
#
# 1 0.013452 -0.004090 -0.003570 0.000000 0.000000 0.000000
# 2 -0.004090 0.042322 -0.004385 0.000000 0.000000 0.000000
# 3 -0.003570 -0.004385 0.006767 0.000000 0.000000 0.000000
# 4 0.000000 0.000000 0.000000 0.042917 0.000000 0.000000
# 5 0.000000 0.000000 0.000000 0.000000 0.029014 0.000000
# 6 0.000000 0.000000 0.000000 0.000000 0.000000 0.139635
#
#
# Mechanical properties :
#
#
# Convention : Reuss Voigt Hill
#
# Bulk Modulus (GPa) = 26.00634 58.05453 42.03043
# Shear Modulus (GPa) = 16.07645 27.49085 21.78365
#
# Velocity S-wave (km/s) = 2.92646 3.82686 3.40654
# Velocity P-wave (km/s) = 5.02722 7.10303 6.15329
#
# Compressibility (1/GPa) = 0.03845217
#
# Stress axis : x y z
#
# Youngs Moduli (GPa) = 74.33846 23.62833 147.78071
#
# Poissons Ratio (x) = 0.09663 0.52756
# Poissons Ratio (y) = 0.30402 0.64799
# Poissons Ratio (z) = 0.26538 0.10361
#
# Static dielectric constant tensor:
#      x y z
#    x 1.682820 0.000000 0.000000 
#    y 0.000000 1.759100 0.000000 
#    z 0.000000 0.000000 1.683810 
# 
# From -- ./inp_files/49044.got.cif
#   From: 2010.05.17/outbox.ucp.g08.bks.cvg/sg74_25_cif.got.tgz:49044.got - 2010.06.11 16:37:44.
