data_PCOD9540482
_publ_section_title
;
Structure prediction by ZEFSAII (Michael W. Deem and Ramdas Pophale) SiO2 
 PCOD9540482
Probable space group: I M M A
;
_chemical_formula_sum "Si O2"
_cell_formula_units_Z 80
_cell_length_a 18.205572
_cell_length_b 25.393330
_cell_length_c 8.948185
_cell_angle_alpha 90.000000
_cell_angle_beta 90.000000
_cell_angle_gamma 90.000000
_cell_volume 4136.746799
_symmetry_space_group_name_H-M "I M M A"
_symmetry_group_IT_number 74
_symmetry_cell_setting 'orthorhombic'
loop_
_space_group_symop_operation_xyz
x,y,z
-x,1/2-y,z
x,-y,-z
-x,1/2+y,-z
-x,-y,-z
x,1/2+y,-z
-x,y,z
x,1/2-y,z
1/2+x,1/2+y,1/2+z
1/2-x,-y,1/2+z
1/2+x,1/2-y,1/2-z
1/2-x,y,1/2-z
1/2-x,1/2-y,1/2-z
1/2+x,y,1/2-z
1/2-x,1/2+y,1/2+z
1/2+x,-y,1/2+z
loop_
_atom_site_type_symbol
_atom_site_label
_atom_site_fract_x
_atom_site_fract_y
_atom_site_fract_z
Si Si1 0.914491 0.442530 0.199661
Si Si2 0.413648 0.617847 0.397367
Si Si3 0.331096 0.454339 0.817339
Si Si4 0.276293 0.188658 0.577760
Si Si5 0.306598 0.897124 0.884061
O O1 0.869669 0.493156 0.255165
O O2 0.884232 0.394224 0.299561
O O3 0.000000 0.452421 0.222682
O O4 0.902867 0.425933 0.028070
O O5 0.500000 0.630601 0.391643
O O6 0.383449 0.591818 0.246193
O O7 0.358704 0.665569 0.432937
O O8 0.250000 0.450442 0.750000
O O9 0.317355 0.441987 0.990885
O O10 0.273015 0.250000 0.538576
O O11 0.250000 0.182779 0.750000
O O12 0.225285 0.153084 0.470817
O O13 0.250000 0.910384 0.750000
#
# Coordination Sequence:
#
# PCOD9540482 Si02
#       5
#    16  16  16  16  16
#     4  11  25  39  58  94 136 173 212 259 316 385
#     4  11  22  42  66  94 131 170 213 264 326 384
#     4  12  22  38  63  94 127 171 217 259 306 379
#     4  11  23  45  70  95 120 159 221 276 327 380
#     4  12  22  41  64  93 127 174 214 260 323 381
#
# _framework density 19.338868000000002
#
# number of rings (size 3 to 8) (size 9 to 14) (size 15 to 20)
#    0.000    0.600    6.000    2.400    0.000    6.400 
#    0.000    0.000    0.000    0.600    0.000    0.000 
#    0.000    0.000    0.000    0.000    0.000    0.000 
#
# Total GULP energy -223320.623824 kJ/mol
# GULP energy per Si atom -5583.015596 kJ/mol
# Density = 1.929485 g / cm^3
# Si number density = 19.338868 Si / 1000 Ang^3
#
#
#
# Elastic Constant Matrix: (Units=GPa)
#
#
# Indices 1 2 3 4 5 6 
#
# 1 77.5642 36.8581 32.1713 0.0000 0.0000 0.0000
# 2 36.8581 111.5233 27.5818 0.0000 0.0000 0.0000
# 3 32.1713 27.5818 113.0800 0.0000 0.0000 0.0000
# 4 0.0000 0.0000 0.0000 21.7875 0.0000 0.0000
# 5 0.0000 0.0000 0.0000 0.0000 29.1114 0.0000
# 6 0.0000 0.0000 0.0000 0.0000 0.0000 18.0685
#
#
#
# Elastic Compliance Matrix: (Units=1/GPa)
#
#
# Indices 1 2 3 4 5 6 
#
# 1 0.016562 -0.004585 -0.003593 0.000000 0.000000 0.000000
# 2 -0.004585 0.010812 -0.001333 0.000000 0.000000 0.000000
# 3 -0.003593 -0.001333 0.010191 0.000000 0.000000 0.000000
# 4 0.000000 0.000000 0.000000 0.045898 0.000000 0.000000
# 5 0.000000 0.000000 0.000000 0.000000 0.034351 0.000000
# 6 0.000000 0.000000 0.000000 0.000000 0.000000 0.055345
#
#
# Mechanical properties :
#
#
# Convention : Reuss Voigt Hill
#
# Bulk Modulus (GPa) = 53.93187 55.04333 54.48760
# Shear Modulus (GPa) = 25.20664 27.49723 26.35193
#
# Velocity S-wave (km/s) = 3.61421 3.77485 3.69540
# Velocity P-wave (km/s) = 6.73535 6.89374 6.81501
#
# Compressibility (1/GPa) = 0.01854191
#
# Stress axis : x y z
#
# Youngs Moduli (GPa) = 60.38024 92.49303 98.12856
#
# Poissons Ratio (x) = 0.42407 0.35262
# Poissons Ratio (y) = 0.27683 0.13078
# Poissons Ratio (z) = 0.21698 0.12327
#
# Static dielectric constant tensor:
#      x y z
#    x 1.664930 0.000000 0.000000 
#    y 0.000000 1.697840 0.000000 
#    z 0.000000 0.000000 1.744260 
# 
# From -- ./inp_files/10897.got.cif
#   From: 2010.05.17/outbox.cif.g08.bks.cpg/sg74_6_cif.got.tgz:10897.got - 2010.06.03 17:57:02.
