data_PCOD9540292
_publ_section_title
;
Structure prediction by ZEFSAII (Michael W. Deem and Ramdas Pophale) SiO2 
 PCOD9540292
Probable space group: I M M A
;
_chemical_formula_sum "Si O2"
_cell_formula_units_Z 80
_cell_length_a 19.444535
_cell_length_b 7.884599
_cell_length_c 27.558336
_cell_angle_alpha 90.000000
_cell_angle_beta 90.000000
_cell_angle_gamma 90.000000
_cell_volume 4225.033563
_symmetry_space_group_name_H-M "I M M A"
_symmetry_group_IT_number 74
_symmetry_cell_setting 'orthorhombic'
loop_
_space_group_symop_operation_xyz
x,y,z
-x,1/2-y,z
x,-y,-z
-x,1/2+y,-z
-x,-y,-z
x,1/2+y,-z
-x,y,z
x,1/2-y,z
1/2+x,1/2+y,1/2+z
1/2-x,-y,1/2+z
1/2+x,1/2-y,1/2-z
1/2-x,y,1/2-z
1/2-x,1/2-y,1/2-z
1/2+x,y,1/2-z
1/2-x,1/2+y,1/2+z
1/2+x,-y,1/2+z
loop_
_atom_site_type_symbol
_atom_site_label
_atom_site_fract_x
_atom_site_fract_y
_atom_site_fract_z
Si Si1 0.423937 0.950006 0.345140
Si Si2 0.860180 0.052271 0.054433
Si Si3 0.218147 0.955485 0.401186
Si Si4 0.924755 0.954491 0.443442
Si Si5 0.283961 0.457589 0.699952
O O1 0.500000 0.024170 0.338235
O O2 0.427857 0.750000 0.334380
O O3 0.361344 0.018140 0.312268
O O4 0.400525 0.965116 0.401308
O O5 0.872804 0.250000 0.059918
O O6 0.779385 0.015706 0.063774
O O7 0.879217 0.000000 0.000000
O O8 0.218666 0.750000 0.403216
O O9 0.143066 0.017758 0.416406
O O10 0.238862 0.006166 0.346800
O O11 0.924928 0.750000 0.439347
O O12 0.000000 0.016062 0.426435
O O13 0.918695 0.000000 0.500000
O O14 0.285693 0.250000 0.701030
O O15 0.250000 0.515000 0.750000
#
# Coordination Sequence:
#
# PCOD9540292 Si02
#       5
#    16  16  16  16  16
#     4   9  18  33  51  71  97 128 161 196 234 278
#     4  11  21  32  48  70  96 126 160 196 236 284
#     4   9  17  30  47  67  94 126 160 197 234 278
#     4   9  17  28  42  62  89 121 154 188 228 272
#     4   8  14  27  48  71  93 119 152 191 233 273
#
# _framework density 18.934761999999999
#
# number of rings (size 3 to 8) (size 9 to 14) (size 15 to 20)
#    0.000    2.800    0.000    3.600    0.000    3.200 
#    0.000    1.000    0.000   15.600    0.000    0.000 
#    0.000    6.400    0.000    0.000    0.000    0.000 
#
# Total GULP energy -222986.435845 kJ/mol
# GULP energy per Si atom -5574.660896 kJ/mol
# Density = 1.889167 g / cm^3
# Si number density = 18.934762 Si / 1000 Ang^3
#
#
#
# Elastic Constant Matrix: (Units=GPa)
#
#
# Indices 1 2 3 4 5 6 
#
# 1 169.3675 -0.5896 59.5838 0.0000 0.0000 0.0000
# 2 -0.5896 20.8072 -5.6706 0.0000 0.0000 0.0000
# 3 59.5838 -5.6706 95.2992 0.0000 0.0000 0.0000
# 4 0.0000 0.0000 0.0000 11.9715 0.0000 0.0000
# 5 0.0000 0.0000 0.0000 0.0000 5.5479 0.0000
# 6 0.0000 0.0000 0.0000 0.0000 0.0000 5.2348
#
#
#
# Elastic Compliance Matrix: (Units=1/GPa)
#
#
# Indices 1 2 3 4 5 6 
#
# 1 0.007594 -0.001097 -0.004813 0.000000 0.000000 0.000000
# 2 -0.001097 0.049011 0.003602 0.000000 0.000000 0.000000
# 3 -0.004813 0.003602 0.013717 0.000000 0.000000 0.000000
# 4 0.000000 0.000000 0.000000 0.083532 0.000000 0.000000
# 5 0.000000 0.000000 0.000000 0.000000 0.180249 0.000000
# 6 0.000000 0.000000 0.000000 0.000000 0.000000 0.191031
#
#
# Mechanical properties :
#
#
# Convention : Reuss Voigt Hill
#
# Bulk Modulus (GPa) = 15.21935 43.56902 29.39419
# Shear Modulus (GPa) = 9.06372 20.02753 14.54562
#
# Velocity S-wave (km/s) = 2.19025 3.25578 2.77464
# Velocity P-wave (km/s) = 3.80151 6.09864 5.08158
#
# Compressibility (1/GPa) = 0.06570583
#
# Stress axis : x y z
#
# Youngs Moduli (GPa) = 131.68726 20.40371 72.90303
#
# Poissons Ratio (x) = 0.02237 0.35089
# Poissons Ratio (y) = 0.14440 -0.26259
# Poissons Ratio (z) = 0.63382 -0.07349
#
# Static dielectric constant tensor:
#      x y z
#    x 1.694310 0.000000 0.000000 
#    y 0.000000 1.698270 0.000000 
#    z 0.000000 0.000000 1.641840 
# 
# From -- ./inp_files/70385.got.cif
#   From: 2010.05.17/outbox.cif.g08.bks.cpg/sg74_36_cif.got.tgz:70385.got - 2010.06.03 17:57:02.
