data_PCOD9540941
_publ_section_title
;
Structure prediction by ZEFSAII (Michael W. Deem and Ramdas Pophale) SiO2 
 PCOD9540941
Probable space group: I M M A
;
_chemical_formula_sum "Si O2"
_cell_formula_units_Z 40
_cell_length_a 27.000000
_cell_length_b 18.000000
_cell_length_c 9.000000
_cell_angle_alpha 90.000000
_cell_angle_beta 90.000000
_cell_angle_gamma 90.000000
_cell_volume 4374.000000
_symmetry_space_group_name_H-M "I M M A"
_symmetry_group_IT_number 74
_symmetry_cell_setting 'orthorhombic'
loop_
_space_group_symop_operation_xyz
x,y,z
-x,1/2-y,z
x,-y,-z
-x,1/2+y,-z
-x,-y,-z
x,1/2+y,-z
-x,y,z
x,1/2-y,z
1/2+x,1/2+y,1/2+z
1/2-x,-y,1/2+z
1/2+x,1/2-y,1/2-z
1/2-x,y,1/2-z
1/2-x,1/2-y,1/2-z
1/2+x,y,1/2-z
1/2-x,1/2+y,1/2+z
1/2+x,-y,1/2+z
loop_
_atom_site_type_symbol
_atom_site_label
_atom_site_fract_x
_atom_site_fract_y
_atom_site_fract_z
Si Si1 0.056689 0.412543 0.472591
Si Si2 0.645144 0.161629 0.854725
Si Si3 0.146449 0.588319 0.032379
Si Si4 0.758355 0.579099 0.427634
Si Si5 0.943464 0.838966 0.849860
O O1 0.068059 0.500000 0.500000
O O2 0.097009 0.361854 0.553187
O O3 0.057905 0.387177 0.301088
O O4 0.000000 0.400547 0.525934
O O5 0.646756 0.250000 0.825730
O O6 0.641629 0.114056 0.703059
O O7 0.695691 0.135650 0.937433
O O8 0.205345 0.603569 0.001688
O O9 0.139920 0.500000 0.000000
O O10 0.103211 0.632455 0.945975
O O11 0.771788 0.500000 0.500000
O O12 0.750000 0.568707 0.250000
O O13 0.938442 0.750000 0.821517
O O14 0.000000 0.849337 0.913191
#
# Coordination Sequence:
#
# PCOD9540941 Si02
#       5
#    16  16  16  16  16
#     4  10  21  38  59  81 108 145 186 227 272 325
#     4  11  22  35  56  85 115 145 179 227 281 329
#     4  10  21  37  57  81 108 145 188 226 269 324
#     4   9  20  37  57  80 109 145 185 228 273 324
#     4  10  21  37  56  79 110 145 179 222 275 325
#
# _framework density 9.1449470000000002
#
# number of rings (size 3 to 8) (size 9 to 14) (size 15 to 20)
#    0.000    2.000    0.000    3.000    0.000   10.000 
#    0.000    0.000    0.000    3.000    0.000    0.000 
#    0.000    0.000    0.000    0.000    0.000    0.000 
#
# Total GULP energy -223013.836680 kJ/mol
# GULP energy per Si atom -5575.345917 kJ/mol
# Density = 0.912413 g / cm^3
# Si number density = 9.144947 Si / 1000 Ang^3
#
#
#
# Elastic Constant Matrix: (Units=GPa)
#
#
# Indices 1 2 3 4 5 6 
#
# 1 143.0812 68.1864 53.0460 0.0000 0.0000 0.0000
# 2 68.1864 100.6762 25.3625 0.0000 0.0000 0.0000
# 3 53.0460 25.3625 40.0426 0.0000 0.0000 0.0000
# 4 0.0000 0.0000 0.0000 23.0912 0.0000 0.0000
# 5 0.0000 0.0000 0.0000 0.0000 35.4360 0.0000
# 6 0.0000 0.0000 0.0000 0.0000 0.0000 29.5866
#
#
#
# Elastic Compliance Matrix: (Units=1/GPa)
#
#
# Indices 1 2 3 4 5 6 
#
# 1 0.017044 -0.006967 -0.018166 0.000000 0.000000 0.000000
# 2 -0.006967 0.014667 -0.000060 0.000000 0.000000 0.000000
# 3 -0.018166 -0.000060 0.049077 0.000000 0.000000 0.000000
# 4 0.000000 0.000000 0.000000 0.043307 0.000000 0.000000
# 5 0.000000 0.000000 0.000000 0.000000 0.028220 0.000000
# 6 0.000000 0.000000 0.000000 0.000000 0.000000 0.033799
#
#
# Mechanical properties :
#
#
# Convention : Reuss Voigt Hill
#
# Bulk Modulus (GPa) = 32.89354 64.10998 48.50176
# Shear Modulus (GPa) = 20.27294 26.76979 23.52137
#
# Velocity S-wave (km/s) = 3.33291 3.82990 3.59002
# Velocity P-wave (km/s) = 5.73015 7.39498 6.61515
#
# Compressibility (1/GPa) = 0.03040110
#
# Stress axis : x y z
#
# Youngs Moduli (GPa) = 58.67038 68.18123 20.37619
#
# Poissons Ratio (x) = 0.47505 0.37016
# Poissons Ratio (y) = 0.40878 0.00122
# Poissons Ratio (z) = 1.06582 0.00408
#
# Static dielectric constant tensor:
#      x y z
#    x 1.659890 0.000000 0.000000 
#    y 0.000000 1.601700 0.000000 
#    z 0.000000 0.000000 1.632240 
# 
# From -- ./inp_files/10950.got.cif
#   From: 2010.05.17/outbox.ucp.g08.bks.cvg/sg74_6_cif.got.tgz:10950.got - 2010.06.11 16:37:44.
