data_PCOD9540800
_publ_section_title
;
Structure prediction by ZEFSAII (Michael W. Deem and Ramdas Pophale) SiO2 
 PCOD9540800
Probable space group: I M M A
;
_chemical_formula_sum "Si O2"
_cell_formula_units_Z 44
_cell_length_a 21.000000
_cell_length_b 9.000000
_cell_length_c 30.000000
_cell_angle_alpha 90.000000
_cell_angle_beta 90.000000
_cell_angle_gamma 90.000000
_cell_volume 5670.000000
_symmetry_space_group_name_H-M "I M M A"
_symmetry_group_IT_number 74
_symmetry_cell_setting 'orthorhombic'
loop_
_space_group_symop_operation_xyz
x,y,z
-x,1/2-y,z
x,-y,-z
-x,1/2+y,-z
-x,-y,-z
x,1/2+y,-z
-x,y,z
x,1/2-y,z
1/2+x,1/2+y,1/2+z
1/2-x,-y,1/2+z
1/2+x,1/2-y,1/2-z
1/2-x,y,1/2-z
1/2-x,1/2-y,1/2-z
1/2+x,y,1/2-z
1/2-x,1/2+y,1/2+z
1/2+x,-y,1/2+z
loop_
_atom_site_type_symbol
_atom_site_label
_atom_site_fract_x
_atom_site_fract_y
_atom_site_fract_z
Si Si1 0.713774 0.569842 0.703069
Si Si2 0.198280 0.426436 0.628333
Si Si3 0.000000 0.568486 0.449969
Si Si4 0.930312 0.921853 0.316428
Si Si5 0.929844 0.072270 0.222006
Si Si6 0.866727 0.070449 0.450857
O O1 0.717031 0.750000 0.699185
O O2 0.750000 0.531906 0.750000
O O3 0.749664 0.493569 0.661871
O O4 0.639146 0.522942 0.703616
O O5 0.208033 0.250000 0.620645
O O6 0.130871 0.445380 0.653693
O O7 0.188554 0.515936 0.582458
O O8 0.000000 0.500000 0.500000
O O9 0.066770 0.501840 0.432999
O O10 0.000000 0.750000 0.449037
O O11 0.927711 0.750000 0.300840
O O12 0.000000 0.940449 0.338570
O O13 0.927894 0.027373 0.273842
O O14 0.930271 0.250000 0.217685
O O15 0.000000 0.018084 0.205089
O O16 0.871701 0.250000 0.453046
O O17 0.856967 0.000000 0.500000
#
# Coordination Sequence:
#
# PCOD9540800 Si02
#       6
#    16  16   8  16  16  16
#     4  10  19  32  48  69  99 130 163 206 249 294
#     4  11  22  33  49  71  95 129 167 206 252 299
#     4  10  18  32  52  72  96 126 164 208 254 296
#     4   9  18  30  43  63  91 124 161 202 244 285
#     4   9  17  30  48  67  91 127 166 203 243 289
#     4  11  22  37  53  71  95 126 165 208 254 298
#
# _framework density 7.760141
#
# number of rings (size 3 to 8) (size 9 to 14) (size 15 to 20)
#    0.000    2.000    1.818    4.091    1.273    1.818 
#    0.000    0.000    0.000    0.000    0.000    0.000 
#    0.000    0.727    0.000    2.000    0.000    2.909 
#
# Total GULP energy -245151.478961 kJ/mol
# GULP energy per Si atom -5571.624522 kJ/mol
# Density = 0.774248 g / cm^3
# Si number density = 7.760141 Si / 1000 Ang^3
#
#
#
# Elastic Constant Matrix: (Units=GPa)
#
#
# Indices 1 2 3 4 5 6 
#
# 1 118.6178 39.6891 47.2465 0.0000 0.0000 0.0000
# 2 39.6891 74.0619 38.7573 0.0000 0.0000 0.0000
# 3 47.2465 38.7573 72.3644 0.0000 0.0000 0.0000
# 4 0.0000 0.0000 0.0000 21.4805 0.0000 0.0000
# 5 0.0000 0.0000 0.0000 0.0000 30.7874 0.0000
# 6 0.0000 0.0000 0.0000 0.0000 0.0000 21.5725
#
#
#
# Elastic Compliance Matrix: (Units=1/GPa)
#
#
# Indices 1 2 3 4 5 6 
#
# 1 0.011921 -0.003217 -0.006060 0.000000 0.000000 0.000000
# 2 -0.003217 0.019628 -0.008412 0.000000 0.000000 0.000000
# 3 -0.006060 -0.008412 0.022281 0.000000 0.000000 0.000000
# 4 0.000000 0.000000 0.000000 0.046554 0.000000 0.000000
# 5 0.000000 0.000000 0.000000 0.000000 0.032481 0.000000
# 6 0.000000 0.000000 0.000000 0.000000 0.000000 0.046355
#
#
# Mechanical properties :
#
#
# Convention : Reuss Voigt Hill
#
# Bulk Modulus (GPa) = 54.19613 57.38109 55.78861
# Shear Modulus (GPa) = 22.65016 24.05815 23.35415
#
# Velocity S-wave (km/s) = 3.82434 3.94142 3.88332
# Velocity P-wave (km/s) = 7.38215 7.60033 7.49203
#
# Compressibility (1/GPa) = 0.01845150
#
# Stress axis : x y z
#
# Youngs Moduli (GPa) = 83.88900 50.94655 44.88121
#
# Poissons Ratio (x) = 0.16389 0.27198
# Poissons Ratio (y) = 0.26986 0.37756
# Poissons Ratio (z) = 0.50836 0.42858
#
# Static dielectric constant tensor:
#      x y z
#    x 1.558220 0.000000 0.000000 
#    y 0.000000 1.519220 0.000000 
#    z 0.000000 0.000000 1.540420 
# 
# From -- ./inp_files/70446.got.cif
#   From: 2010.05.17/outbox.ucp.g08.bks.cvg/sg74_36_cif.got.tgz:70446.got - 2010.06.11 16:37:44.
