data_PCOD9540192
_publ_section_title
;
Structure prediction by ZEFSAII (Michael W. Deem and Ramdas Pophale) SiO2 
 PCOD9540192
Probable space group: I M M A
;
_chemical_formula_sum "Si O2"
_cell_formula_units_Z 68
_cell_length_a 10.949502
_cell_length_b 14.049147
_cell_length_c 22.340269
_cell_angle_alpha 90.000000
_cell_angle_beta 90.000000
_cell_angle_gamma 90.000000
_cell_volume 3436.629566
_symmetry_space_group_name_H-M "I M M A"
_symmetry_group_IT_number 74
_symmetry_cell_setting 'orthorhombic'
loop_
_space_group_symop_operation_xyz
x,y,z
-x,1/2-y,z
x,-y,-z
-x,1/2+y,-z
-x,-y,-z
x,1/2+y,-z
-x,y,z
x,1/2-y,z
1/2+x,1/2+y,1/2+z
1/2-x,-y,1/2+z
1/2+x,1/2-y,1/2-z
1/2-x,y,1/2-z
1/2-x,1/2-y,1/2-z
1/2+x,y,1/2-z
1/2-x,1/2+y,1/2+z
1/2+x,-y,1/2+z
loop_
_atom_site_type_symbol
_atom_site_label
_atom_site_fract_x
_atom_site_fract_y
_atom_site_fract_z
Si Si1 0.500000 0.112057 0.997146
Si Si2 0.646511 0.440850 0.619072
Si Si3 0.500000 0.750000 0.113122
Si Si4 0.359149 0.145225 0.367893
Si Si5 0.743028 0.250000 0.678971
Si Si6 0.228769 0.854918 0.998931
O O1 0.500000 0.159149 0.931274
O O2 0.369182 0.141856 0.023169
O O3 0.500000 0.000000 0.000000
O O4 0.500000 0.446234 0.611966
O O5 0.691059 0.540533 0.648742
O O6 0.679191 0.346824 0.656174
O O7 0.704747 0.427193 0.552840
O O8 0.378861 0.750000 0.151732
O O9 0.500000 0.147668 0.348294
O O10 0.304986 0.250000 0.352080
O O11 0.353786 0.138964 0.440439
O O12 0.750000 0.250000 0.750000
O O13 0.208083 0.750000 0.026100
#
# Coordination Sequence:
#
# PCOD9540192 Si02
#       6
#     8  16   4  16   8  16
#     4  12  20  32  52  74 110 154 188 218 282 362
#     4  11  20  35  56  78 109 142 188 238 283 331
#     4  12  24  46  56  84 124 156 186 252 288 340
#     4   9  19  32  51  81 114 146 183 226 280 339
#     4  12  27  42  61  82 110 147 200 243 296 335
#     4  11  19  31  48  76 112 151 185 221 277 343
#
# _framework density 19.786829000000001
#
# number of rings (size 3 to 8) (size 9 to 14) (size 15 to 20)
#    0.000    1.176    4.706    3.176    1.647    2.824 
#    0.000    0.000    0.000    0.706    0.000    0.000 
#    0.000    0.000    0.000    0.000    0.000    0.000 
#
# Total GULP energy -189469.316913 kJ/mol
# GULP energy per Si atom -5572.626968 kJ/mol
# Density = 1.974179 g / cm^3
# Si number density = 19.786829 Si / 1000 Ang^3
#
#
#
# Elastic Constant Matrix: (Units=GPa)
#
#
# Indices 1 2 3 4 5 6 
#
# 1 72.5603 9.5561 2.2256 0.0000 0.0000 0.0000
# 2 9.5561 200.3939 16.3251 0.0000 0.0000 0.0000
# 3 2.2256 16.3251 39.3153 0.0000 0.0000 0.0000
# 4 0.0000 0.0000 0.0000 8.9164 0.0000 0.0000
# 5 0.0000 0.0000 0.0000 0.0000 -3.2514 0.0000
# 6 0.0000 0.0000 0.0000 0.0000 0.0000 26.4871
#
#
#
# Elastic Compliance Matrix: (Units=1/GPa)
#
#
# Indices 1 2 3 4 5 6 
#
# 1 0.013879 -0.000619 -0.000529 0.000000 0.000000 0.000000
# 2 -0.000619 0.005192 -0.002121 0.000000 0.000000 0.000000
# 3 -0.000529 -0.002121 0.026346 0.000000 0.000000 0.000000
# 4 0.000000 0.000000 0.000000 0.112153 0.000000 0.000000
# 5 0.000000 0.000000 0.000000 0.000000 -0.307555 0.000000
# 6 0.000000 0.000000 0.000000 0.000000 0.000000 0.037754
#
#
# Mechanical properties :
#
#
# Convention : Reuss Voigt Hill
#
# Bulk Modulus (GPa) = 25.71973 40.94257 33.33115
# Shear Modulus (GPa) = -53.91808 25.37459 -14.27174
#
# Velocity S-wave (km/s) = -5.22577 3.58494 -2.68857
# Velocity P-wave (km/s) = 4.83579 6.15406 2.69143
#
# Compressibility (1/GPa) = 0.03888066
#
# Stress axis : x y z
#
# Youngs Moduli (GPa) = 72.04950 192.58651 37.95633
#
# Poissons Ratio (x) = 0.11917 0.02007
# Poissons Ratio (y) = 0.04458 0.08051
# Poissons Ratio (z) = 0.03810 0.40849
#
# Static dielectric constant tensor:
#      x y z
#    x 1.733910 0.000000 0.000000 
#    y 0.000000 1.803710 0.000000 
#    z 0.000000 0.000000 1.636930 
# 
# From -- ./inp_files/50243.got.cif
#   From: 2010.05.17/outbox.cif.g08.bks.cpg/sg74_26_cif.got.tgz:50243.got - 2010.06.03 17:57:02.
