data_PCOD9540237
_publ_section_title
;
Structure prediction by ZEFSAII (Michael W. Deem and Ramdas Pophale) SiO2 
 PCOD9540237
Probable space group: I M M A
;
_chemical_formula_sum "Si O2"
_cell_formula_units_Z 100
_cell_length_a 14.348621
_cell_length_b 15.307054
_cell_length_c 18.146968
_cell_angle_alpha 90.000000
_cell_angle_beta 90.000000
_cell_angle_gamma 90.000000
_cell_volume 3985.711430
_symmetry_space_group_name_H-M "I M M A"
_symmetry_group_IT_number 74
_symmetry_cell_setting 'orthorhombic'
loop_
_space_group_symop_operation_xyz
x,y,z
-x,1/2-y,z
x,-y,-z
-x,1/2+y,-z
-x,-y,-z
x,1/2+y,-z
-x,y,z
x,1/2-y,z
1/2+x,1/2+y,1/2+z
1/2-x,-y,1/2+z
1/2+x,1/2-y,1/2-z
1/2-x,y,1/2-z
1/2-x,1/2-y,1/2-z
1/2+x,y,1/2-z
1/2-x,1/2+y,1/2+z
1/2+x,-y,1/2+z
loop_
_atom_site_type_symbol
_atom_site_label
_atom_site_fract_x
_atom_site_fract_y
_atom_site_fract_z
Si Si1 0.000000 0.750000 0.954133
Si Si2 0.682240 0.646094 0.078345
Si Si3 0.374664 0.407056 0.399560
Si Si4 0.600207 0.102981 0.603466
Si Si5 0.337743 0.643219 0.917738
Si Si6 0.139699 0.649894 0.265296
Si Si7 0.362823 0.648519 0.759089
O O1 0.079786 0.672673 0.942441
O O2 0.667834 0.750000 0.083359
O O3 0.795874 0.635470 0.080417
O O4 0.635654 0.609161 0.153028
O O5 0.637265 0.616997 0.001093
O O6 0.401900 0.503604 0.421814
O O7 0.264627 0.396293 0.408080
O O8 0.398836 0.398112 0.313164
O O9 0.500000 0.147830 0.582782
O O10 0.601229 0.105068 0.692664
O O11 0.332759 0.750000 0.916252
O O12 0.388497 0.618886 0.841451
O O13 0.105102 0.750000 0.265627
O O14 0.250000 0.654183 0.250000
O O15 0.389230 0.750000 0.751834
O O16 0.250000 0.644722 0.750000
#
# Coordination Sequence:
#
# PCOD9540237 Si02
#       7
#     4  16  16  16  16  16  16
#     4  12  20  36  50  66 106 146 174 196 250 306
#     4   9  19  36  54  76 104 136 167 202 254 309
#     4  11  20  33  50  73 100 137 173 206 248 298
#     4  11  22  33  48  77 104 132 171 212 249 298
#     4   9  17  32  52  75  99 129 167 208 252 298
#     4   8  16  33  55  73  97 130 169 209 252 300
#     4   8  14  27  49  72  93 119 167 215 245 283
#
# _framework density 25.089621999999999
#
# number of rings (size 3 to 8) (size 9 to 14) (size 15 to 20)
#    0.000    2.560    2.400    2.400    0.000    7.680 
#    1.440    0.800    0.000    0.000    2.080    1.120 
#    0.000    0.000    0.000    0.000    0.000    0.000 
#
# Total GULP energy -278576.701940 kJ/mol
# GULP energy per Si atom -5571.534039 kJ/mol
# Density = 2.503252 g / cm^3
# Si number density = 25.089622 Si / 1000 Ang^3
#
#
#
# Elastic Constant Matrix: (Units=GPa)
#
#
# Indices 1 2 3 4 5 6 
#
# 1 64.9640 -6.6060 7.0530 0.0000 0.0000 0.0000
# 2 -6.6060 63.2154 9.2701 0.0000 0.0000 0.0000
# 3 7.0530 9.2701 263.5514 0.0000 0.0000 0.0000
# 4 0.0000 0.0000 0.0000 -35.8998 0.0000 0.0000
# 5 0.0000 0.0000 0.0000 0.0000 -44.2020 0.0000
# 6 0.0000 0.0000 0.0000 0.0000 0.0000 -5.2192
#
#
#
# Elastic Compliance Matrix: (Units=1/GPa)
#
#
# Indices 1 2 3 4 5 6 
#
# 1 0.015618 0.001702 -0.000478 0.000000 0.000000 0.000000
# 2 0.001702 0.016086 -0.000611 0.000000 0.000000 0.000000
# 3 -0.000478 -0.000611 0.003829 0.000000 0.000000 0.000000
# 4 0.000000 0.000000 0.000000 -0.027855 0.000000 0.000000
# 5 0.000000 0.000000 0.000000 0.000000 -0.022623 0.000000
# 6 0.000000 0.000000 0.000000 0.000000 0.000000 -0.191600
#
#
# Mechanical properties :
#
#
# Convention : Reuss Voigt Hill
#
# Bulk Modulus (GPa) = 27.20413 45.68497 36.44455
# Shear Modulus (GPa) = -25.57309 8.40337 -8.58486
#
# Velocity S-wave (km/s) = -3.19606 1.83211 -1.85178
# Velocity P-wave (km/s) = 1.65935 4.76694 3.15993
#
# Compressibility (1/GPa) = 0.03675912
#
# Stress axis : x y z
#
# Youngs Moduli (GPa) = 64.02822 62.16407 261.19085
#
# Poissons Ratio (x) = -0.10581 0.12481
# Poissons Ratio (y) = -0.10899 0.15968
# Poissons Ratio (z) = 0.03059 0.03801
#
# Static dielectric constant tensor:
#      x y z
#    x 2.550480 0.000000 0.000000 
#    y 0.000000 1.906470 0.000000 
#    z 0.000000 0.000000 2.107420 
# 
# From -- ./inp_files/45301.got.cif
#   From: 2010.05.17/outbox.cif.g08.bks.cpg/sg74_23_cif.got.tgz:45301.got - 2010.06.03 17:57:02.
