data_PCOD9540870
_publ_section_title
;
Structure prediction by ZEFSAII (Michael W. Deem and Ramdas Pophale) SiO2 
 PCOD9540870
Probable space group: I M M A
;
_chemical_formula_sum "Si O2"
_cell_formula_units_Z 40
_cell_length_a 9.000000
_cell_length_b 18.000000
_cell_length_c 27.000000
_cell_angle_alpha 90.000000
_cell_angle_beta 90.000000
_cell_angle_gamma 90.000000
_cell_volume 4374.000000
_symmetry_space_group_name_H-M "I M M A"
_symmetry_group_IT_number 74
_symmetry_cell_setting 'orthorhombic'
loop_
_space_group_symop_operation_xyz
x,y,z
-x,1/2-y,z
x,-y,-z
-x,1/2+y,-z
-x,-y,-z
x,1/2+y,-z
-x,y,z
x,1/2-y,z
1/2+x,1/2+y,1/2+z
1/2-x,-y,1/2+z
1/2+x,1/2-y,1/2-z
1/2-x,y,1/2-z
1/2-x,1/2-y,1/2-z
1/2+x,y,1/2-z
1/2-x,1/2+y,1/2+z
1/2+x,-y,1/2+z
loop_
_atom_site_type_symbol
_atom_site_label
_atom_site_fract_x
_atom_site_fract_y
_atom_site_fract_z
Si Si1 0.323534 0.530866 0.406444
Si Si2 0.822406 0.829836 0.457135
Si Si3 0.823858 0.484100 0.201547
Si Si4 0.324659 0.167466 0.175208
Si Si5 0.673294 0.117339 0.064377
O O1 0.500000 0.534653 0.407835
O O2 0.253094 0.602251 0.430551
O O3 0.274687 0.521974 0.349413
O O4 0.269998 0.456650 0.433763
O O5 0.770482 0.750000 0.438524
O O6 0.792774 0.836417 0.515707
O O7 0.000000 0.834466 0.450923
O O8 0.750000 0.517475 0.250000
O O9 0.771460 0.398762 0.196909
O O10 0.000000 0.487049 0.205241
O O11 0.500000 0.155869 0.186257
O O12 0.281650 0.250000 0.191032
O O13 0.307742 0.160826 0.115689
O O14 0.500000 0.094888 0.061867
#
# Coordination Sequence:
#
# PCOD9540870 Si02
#       5
#    16  16  16  16  16
#     4  10  21  35  51  74 102 130 163 204 248 294
#     4  10  20  33  51  76 104 134 168 203 239 284
#     4  10  21  36  53  72  94 124 164 208 252 298
#     4   9  17  30  49  73 102 135 168 202 240 282
#     4   9  17  31  51  74 102 137 173 203 232 275
#
# _framework density 9.1449470000000002
#
# number of rings (size 3 to 8) (size 9 to 14) (size 15 to 20)
#    0.000    2.400    0.000    2.400    0.000    9.200 
#    0.000    0.000    0.000    4.200    0.000    0.000 
#    0.000    0.000    0.000    0.000    0.000    0.000 
#
# Total GULP energy -223142.167041 kJ/mol
# GULP energy per Si atom -5578.554176 kJ/mol
# Density = 0.912413 g / cm^3
# Si number density = 9.144947 Si / 1000 Ang^3
#
#
#
# Elastic Constant Matrix: (Units=GPa)
#
#
# Indices 1 2 3 4 5 6 
#
# 1 12.0770 29.3473 33.5443 0.0000 0.0000 0.0000
# 2 29.3473 70.9200 29.6404 0.0000 0.0000 0.0000
# 3 33.5443 29.6404 64.0862 0.0000 0.0000 0.0000
# 4 0.0000 0.0000 0.0000 -39.3219 0.0000 0.0000
# 5 0.0000 0.0000 0.0000 0.0000 24.8535 0.0000
# 6 0.0000 0.0000 0.0000 0.0000 0.0000 23.7260
#
#
#
# Elastic Compliance Matrix: (Units=1/GPa)
#
#
# Indices 1 2 3 4 5 6 
#
# 1 -0.113310 0.027397 0.046638 0.000000 0.000000 0.000000
# 2 0.027397 0.010855 -0.019361 0.000000 0.000000 0.000000
# 3 0.046638 -0.019361 0.000147 0.000000 0.000000 0.000000
# 4 0.000000 0.000000 0.000000 -0.025431 0.000000 0.000000
# 5 0.000000 0.000000 0.000000 0.000000 0.040236 0.000000
# 6 0.000000 0.000000 0.000000 0.000000 0.000000 0.042148
#
#
# Mechanical properties :
#
#
# Convention : Reuss Voigt Hill
#
# Bulk Modulus (GPa) = 142.04251 36.90523 89.47387
# Shear Modulus (GPa) = -32.81791 5.48827 -13.66482
#
# Velocity S-wave (km/s) = -4.24054 1.73414 -2.73632
# Velocity P-wave (km/s) = 7.33854 4.92254 6.24842
#
# Compressibility (1/GPa) = 0.00704015
#
# Stress axis : x y z
#
# Youngs Moduli (GPa) = -8.82538 92.12280 6801.64922
#
# Poissons Ratio (x) = -2.52384 -317.21437
# Poissons Ratio (y) = 0.24178 131.68375
# Poissons Ratio (z) = 0.41160 1.78355
#
# Static dielectric constant tensor:
#      x y z
#    x 1.607380 0.000000 0.000000 
#    y 0.000000 1.726790 0.000000 
#    z 0.000000 0.000000 1.663220 
# 
# From -- ./inp_files/63903.got.cif
#   From: 2010.05.17/outbox.ucp.g08.bks.cvg/sg74_32_cif.got.tgz:63903.got - 2010.06.11 16:37:44.
