data_PCOD9540477
_publ_section_title
;
Structure prediction by ZEFSAII (Michael W. Deem and Ramdas Pophale) SiO2 
 PCOD9540477
Probable space group: I M M A
;
_chemical_formula_sum "Si O2"
_cell_formula_units_Z 76
_cell_length_a 22.409336
_cell_length_b 12.747476
_cell_length_c 14.288908
_cell_angle_alpha 90.000000
_cell_angle_beta 90.000000
_cell_angle_gamma 90.000000
_cell_volume 4081.804793
_symmetry_space_group_name_H-M "I M M A"
_symmetry_group_IT_number 74
_symmetry_cell_setting 'orthorhombic'
loop_
_space_group_symop_operation_xyz
x,y,z
-x,1/2-y,z
x,-y,-z
-x,1/2+y,-z
-x,-y,-z
x,1/2+y,-z
-x,y,z
x,1/2-y,z
1/2+x,1/2+y,1/2+z
1/2-x,-y,1/2+z
1/2+x,1/2-y,1/2-z
1/2-x,y,1/2-z
1/2-x,1/2-y,1/2-z
1/2+x,y,1/2-z
1/2-x,1/2+y,1/2+z
1/2+x,-y,1/2+z
loop_
_atom_site_type_symbol
_atom_site_label
_atom_site_fract_x
_atom_site_fract_y
_atom_site_fract_z
Si Si1 0.673731 0.472083 0.595247
Si Si2 0.260824 0.250000 0.635638
Si Si3 0.500000 0.459325 0.106832
Si Si4 0.500000 0.750000 0.994920
Si Si5 0.126137 0.250000 0.616395
Si Si6 0.224698 0.871563 0.644268
Si Si7 0.620760 0.979053 0.202083
O O1 0.639055 0.500000 0.500000
O O2 0.703235 0.356345 0.608813
O O3 0.726006 0.560100 0.591165
O O4 0.635363 0.490593 0.688688
O O5 0.250000 0.250000 0.750000
O O6 0.196113 0.250000 0.583721
O O7 0.443651 0.491024 0.166578
O O8 0.500000 0.500000 0.000000
O O9 0.500000 0.341182 0.079388
O O10 0.563401 0.750000 0.055113
O O11 0.126523 0.357341 0.674808
O O12 0.216140 0.750000 0.617118
O O13 0.250000 0.869104 0.750000
O O14 0.166009 0.943643 0.647189
#
# Coordination Sequence:
#
# PCOD9540477 Si02
#       7
#    16   8   8   4   8  16  16
#     4  11  23  38  61  95 130 168 218 263 320 395
#     4  12  20  40  65  95 129 173 217 273 325 382
#     4  12  26  44  63  90 123 161 215 267 330 387
#     4  12  28  44  62 102 124 162 222 272 322 404
#     4  12  20  40  68  86 129 163 212 273 323 371
#     4   9  19  36  57  84 124 166 204 251 318 383
#     4  11  22  41  63  89 126 170 207 269 327 376
#
# _framework density 18.619215000000001
#
# number of rings (size 3 to 8) (size 9 to 14) (size 15 to 20)
#    0.000    1.053    6.316    0.632    2.947    2.526 
#    0.000    0.526    0.000    0.000    0.000    0.000 
#    0.000    0.000    0.000    0.000    0.000    0.000 
#
# Total GULP energy -211630.592551 kJ/mol
# GULP energy per Si atom -5569.226120 kJ/mol
# Density = 1.857684 g / cm^3
# Si number density = 18.619215 Si / 1000 Ang^3
#
#
#
# Elastic Constant Matrix: (Units=GPa)
#
#
# Indices 1 2 3 4 5 6 
#
# 1 127.6309 38.9089 53.8485 0.0000 0.0000 0.0000
# 2 38.9089 175.2623 49.9521 0.0000 0.0000 0.0000
# 3 53.8485 49.9521 114.2169 0.0000 0.0000 0.0000
# 4 0.0000 0.0000 0.0000 22.6387 0.0000 0.0000
# 5 0.0000 0.0000 0.0000 0.0000 12.9913 0.0000
# 6 0.0000 0.0000 0.0000 0.0000 0.0000 30.3684
#
#
#
# Elastic Compliance Matrix: (Units=1/GPa)
#
#
# Indices 1 2 3 4 5 6 
#
# 1 0.009930 -0.000994 -0.004247 0.000000 0.000000 0.000000
# 2 -0.000994 0.006618 -0.002426 0.000000 0.000000 0.000000
# 3 -0.004247 -0.002426 0.011818 0.000000 0.000000 0.000000
# 4 0.000000 0.000000 0.000000 0.044172 0.000000 0.000000
# 5 0.000000 0.000000 0.000000 0.000000 0.076975 0.000000
# 6 0.000000 0.000000 0.000000 0.000000 0.000000 0.032929
#
#
# Mechanical properties :
#
#
# Convention : Reuss Voigt Hill
#
# Bulk Modulus (GPa) = 76.72802 78.05878 77.39340
# Shear Modulus (GPa) = 24.73792 31.49306 28.11549
#
# Velocity S-wave (km/s) = 3.64898 4.11716 3.89012
# Velocity P-wave (km/s) = 7.68453 8.03842 7.86346
#
# Compressibility (1/GPa) = 0.01303305
#
# Stress axis : x y z
#
# Youngs Moduli (GPa) = 100.70605 151.10895 84.61493
#
# Poissons Ratio (x) = 0.15022 0.35934
# Poissons Ratio (y) = 0.10011 0.20524
# Poissons Ratio (z) = 0.42768 0.36652
#
# Static dielectric constant tensor:
#      x y z
#    x 1.636080 0.000000 0.000000 
#    y 0.000000 1.587150 0.000000 
#    z 0.000000 0.000000 1.677070 
# 
# From -- ./inp_files/36219.got.cif
#   From: 2010.05.17/outbox.cif.g08.bks.cpg/sg74_19_cif.got.tgz:36219.got - 2010.06.03 17:57:02.
