data_PCOD9540132
_publ_section_title
;
Structure prediction by ZEFSAII (Michael W. Deem and Ramdas Pophale) SiO2 
 PCOD9540132
Probable space group: I M M A
;
_chemical_formula_sum "Si O2"
_cell_formula_units_Z 88
_cell_length_a 8.367762
_cell_length_b 22.633722
_cell_length_c 23.491108
_cell_angle_alpha 90.000000
_cell_angle_beta 90.000000
_cell_angle_gamma 90.000000
_cell_volume 4449.065486
_symmetry_space_group_name_H-M "I M M A"
_symmetry_group_IT_number 74
_symmetry_cell_setting 'orthorhombic'
loop_
_space_group_symop_operation_xyz
x,y,z
-x,1/2-y,z
x,-y,-z
-x,1/2+y,-z
-x,-y,-z
x,1/2+y,-z
-x,y,z
x,1/2-y,z
1/2+x,1/2+y,1/2+z
1/2-x,-y,1/2+z
1/2+x,1/2-y,1/2-z
1/2-x,y,1/2-z
1/2-x,1/2-y,1/2-z
1/2+x,y,1/2-z
1/2-x,1/2+y,1/2+z
1/2+x,-y,1/2+z
loop_
_atom_site_type_symbol
_atom_site_label
_atom_site_fract_x
_atom_site_fract_y
_atom_site_fract_z
Si Si1 0.308310 0.316608 0.190516
Si Si2 0.193098 0.750000 0.315761
Si Si3 0.688502 0.994080 0.312600
Si Si4 0.812558 0.435080 0.980900
Si Si5 0.690862 0.910772 0.901298
Si Si6 0.691170 0.377241 0.864943
O O1 0.500000 0.314737 0.191563
O O2 0.245728 0.250000 0.185714
O O3 0.250000 0.342144 0.250000
O O4 0.260483 0.357305 0.139186
O O5 0.250000 0.750000 0.250000
O O6 0.243169 0.810622 0.348171
O O7 0.000000 0.750000 0.315257
O O8 0.500000 0.003458 0.315423
O O9 0.750000 0.011415 0.250000
O O10 0.730024 0.925583 0.323509
O O11 0.767063 0.031001 0.364341
O O12 0.783848 0.402551 0.040160
O O13 0.000000 0.442502 0.967019
O O14 0.747071 0.500000 0.000000
O O15 0.734386 0.400556 0.928382
O O16 0.500000 0.910317 0.911629
O O17 0.500000 0.380236 0.858463
#
# Coordination Sequence:
#
# PCOD9540132 Si02
#       6
#    16   8  16  16  16  16
#     4   9  19  36  57  83 115 151 192 238 291 349
#     4  10  24  44  68  98 128 164 209 260 315 378
#     4  12  24  38  58  89 124 157 198 249 304 364
#     4  11  23  40  62  89 122 158 199 248 302 361
#     4  11  22  37  60  87 117 157 201 248 304 362
#     4  11  23  42  66  92 123 161 206 253 311 371
#
# _framework density 19.779433999999998
#
# number of rings (size 3 to 8) (size 9 to 14) (size 15 to 20)
#    0.000    1.273    1.818    4.364    0.000    6.545 
#    1.636    0.000    0.000    0.000    0.000    0.000 
#    0.000    0.000    0.000    0.000    0.000    0.000 
#
# Total GULP energy -245725.012907 kJ/mol
# GULP energy per Si atom -5584.659384 kJ/mol
# Density = 1.973442 g / cm^3
# Si number density = 19.779434 Si / 1000 Ang^3
#
#
#
# Elastic Constant Matrix: (Units=GPa)
#
#
# Indices 1 2 3 4 5 6 
#
# 1 19.9988 3.5647 0.5434 0.0000 0.0000 0.0000
# 2 3.5647 100.1782 42.0004 0.0000 0.0000 -0.0001
# 3 0.5434 42.0004 118.7807 0.0000 0.0000 -0.0001
# 4 0.0000 0.0000 0.0000 2.3972 0.0000 -0.0001
# 5 0.0000 0.0000 0.0000 0.0000 33.2852 0.0000
# 6 0.0000 -0.0001 -0.0001 -0.0001 0.0000 1934.8330
#
#
#
# Elastic Compliance Matrix: (Units=1/GPa)
#
#
# Indices 1 2 3 4 5 6 
#
# 1 0.050345 -0.001990 0.000473 0.000000 0.000000 0.000000
# 2 -0.001990 0.011798 -0.004163 0.000000 0.000000 0.000000
# 3 0.000473 -0.004163 0.009889 0.000000 0.000000 0.000000
# 4 0.000000 0.000000 0.000000 0.417146 0.000000 0.000000
# 5 0.000000 0.000000 0.000000 0.000000 0.030043 0.000000
# 6 0.000000 0.000000 0.000000 0.000000 0.000000 0.000517
#
#
# Mechanical properties :
#
#
# Convention : Reuss Voigt Hill
#
# Bulk Modulus (GPa) = 16.48173 36.79718 26.63946
# Shear Modulus (GPa) = 9.06912 406.95971 208.01442
#
# Velocity S-wave (km/s) = 2.14361 14.35951 10.26622
# Velocity P-wave (km/s) = 3.80495 17.13393 12.41067
#
# Compressibility (1/GPa) = 0.06067323
#
# Stress axis : x y z
#
# Youngs Moduli (GPa) = 19.86297 84.75822 101.12622
#
# Poissons Ratio (x) = 0.16866 -0.04787
# Poissons Ratio (y) = 0.03953 0.42096
# Poissons Ratio (z) = -0.00940 0.35282
#
# Static dielectric constant tensor:
#      x y z
#    x 1.678400 0.000000 0.000000 
#    y 0.000000 1.748670 0.000000 
#    z 0.000000 0.000000 1.701290 
# 
# From -- ./inp_files/48762.got.cif
#   From: 2010.05.17/outbox.cif.g08.bks.cpg/sg74_25_cif.got.tgz:48762.got - 2010.06.03 17:57:02.
