data_PCOD9540964
_publ_section_title
;
Structure prediction by ZEFSAII (Michael W. Deem and Ramdas Pophale) SiO2 
 PCOD9540964
Probable space group: I M M A
;
_chemical_formula_sum "Si O2"
_cell_formula_units_Z 34
_cell_length_a 15.000000
_cell_length_b 9.000000
_cell_length_c 27.000000
_cell_angle_alpha 90.000000
_cell_angle_beta 90.000000
_cell_angle_gamma 90.000000
_cell_volume 3645.000000
_symmetry_space_group_name_H-M "I M M A"
_symmetry_group_IT_number 74
_symmetry_cell_setting 'orthorhombic'
loop_
_space_group_symop_operation_xyz
x,y,z
-x,1/2-y,z
x,-y,-z
-x,1/2+y,-z
-x,-y,-z
x,1/2+y,-z
-x,y,z
x,1/2-y,z
1/2+x,1/2+y,1/2+z
1/2-x,-y,1/2+z
1/2+x,1/2-y,1/2-z
1/2-x,y,1/2-z
1/2-x,1/2-y,1/2-z
1/2+x,y,1/2-z
1/2-x,1/2+y,1/2+z
1/2+x,-y,1/2+z
loop_
_atom_site_type_symbol
_atom_site_label
_atom_site_fract_x
_atom_site_fract_y
_atom_site_fract_z
Si Si1 0.665712 0.072720 0.052090
Si Si2 0.817683 0.914683 0.110100
Si Si3 0.500000 0.926376 0.875470
Si Si4 0.835095 0.923358 0.785741
Si Si5 0.500000 0.573546 0.231194
Si Si6 0.500000 0.250000 0.592166
O O1 0.674091 0.250000 0.046887
O O2 0.588048 0.042999 0.092119
O O3 0.758254 0.002310 0.070762
O O4 0.640652 0.000000 0.000000
O O5 0.776454 0.750000 0.117691
O O6 0.919501 0.877579 0.094717
O O7 0.816332 0.003837 0.161296
O O8 0.500000 0.750000 0.863421
O O9 0.500000 0.016852 0.824948
O O10 0.858095 0.750000 0.791812
O O11 0.750000 0.932964 0.750000
O O12 0.914687 0.009936 0.759543
O O13 0.500000 0.750000 0.233604
#
# Coordination Sequence:
#
# PCOD9540964 Si02
#       6
#    16  16   8  16   8   4
#     4  11  23  41  67  95 127 165 208 257 318 384
#     4  10  21  40  64  87 124 163 208 267 316 374
#     4  10  23  42  62  93 133 169 205 254 311 380
#     4  11  23  38  59  89 125 167 212 260 314 373
#     4  12  25  38  60  91 129 168 213 254 308 375
#     4   8  22  40  62  82 118 150 200 264 310 356
#
# _framework density 9.3278459999999992
#
# number of rings (size 3 to 8) (size 9 to 14) (size 15 to 20)
#    0.706    0.706    0.000    5.647    1.647    9.412 
#    0.000    2.353    0.000    0.000    0.000    0.000 
#    0.000    0.000    0.000    0.000    0.000    0.000 
#
# Total GULP energy -189354.848533 kJ/mol
# GULP energy per Si atom -5569.260251 kJ/mol
# Density = 0.930662 g / cm^3
# Si number density = 9.327846 Si / 1000 Ang^3
#
#
#
# Elastic Constant Matrix: (Units=GPa)
#
#
# Indices 1 2 3 4 5 6 
#
# 1 42.6464 17.1154 -15.0611 0.0000 0.0000 0.0000
# 2 17.1154 96.6789 30.5485 0.0000 0.0000 0.0000
# 3 -15.0611 30.5485 45.6788 0.0000 0.0000 0.0000
# 4 0.0000 0.0000 0.0000 35.6241 0.0000 0.0000
# 5 0.0000 0.0000 0.0000 0.0000 25.3001 0.0000
# 6 0.0000 0.0000 0.0000 0.0000 0.0000 36.1333
#
#
#
# Elastic Compliance Matrix: (Units=1/GPa)
#
#
# Indices 1 2 3 4 5 6 
#
# 1 0.035732 -0.012741 0.020302 0.000000 0.000000 0.000000
# 2 -0.012741 0.017658 -0.016010 0.000000 0.000000 0.000000
# 3 0.020302 -0.016010 0.039293 0.000000 0.000000 0.000000
# 4 0.000000 0.000000 0.000000 0.028071 0.000000 0.000000
# 5 0.000000 0.000000 0.000000 0.000000 0.039526 0.000000
# 6 0.000000 0.000000 0.000000 0.000000 0.000000 0.027675
#
#
# Mechanical properties :
#
#
# Convention : Reuss Voigt Hill
#
# Bulk Modulus (GPa) = 13.19520 27.80108 20.49814
# Shear Modulus (GPa) = 21.72847 29.57158 25.65002
#
# Velocity S-wave (km/s) = 3.41649 3.98568 3.71201
# Velocity P-wave (km/s) = 4.75936 6.00961 5.42065
#
# Compressibility (1/GPa) = 0.07578515
#
# Stress axis : x y z
#
# Youngs Moduli (GPa) = 27.98629 56.63218 25.45003
#
# Poissons Ratio (x) = 0.72153 -0.51668
# Poissons Ratio (y) = 0.35657 0.40745
# Poissons Ratio (z) = -0.56818 0.90667
#
# Static dielectric constant tensor:
#      x y z
#    x 1.623870 0.000000 0.000000 
#    y 0.000000 1.630320 0.000000 
#    z 0.000000 0.000000 1.636150 
# 
# From -- ./inp_files/66670.got.cif
#   From: 2010.05.17/outbox.ucp.g08.bks.cvg/sg74_34_cif.got.tgz:66670.got - 2010.06.11 16:37:44.
