data_PCOD9540517
_publ_section_title
;
Structure prediction by ZEFSAII (Michael W. Deem and Ramdas Pophale) SiO2 
 PCOD9540517
Probable space group: I M M A
;
_chemical_formula_sum "Si O2"
_cell_formula_units_Z 48
_cell_length_a 13.137533
_cell_length_b 8.499752
_cell_length_c 22.480710
_cell_angle_alpha 90.000000
_cell_angle_beta 90.000000
_cell_angle_gamma 90.000000
_cell_volume 2510.325846
_symmetry_space_group_name_H-M "I M M A"
_symmetry_group_IT_number 74
_symmetry_cell_setting 'orthorhombic'
loop_
_space_group_symop_operation_xyz
x,y,z
-x,1/2-y,z
x,-y,-z
-x,1/2+y,-z
-x,-y,-z
x,1/2+y,-z
-x,y,z
x,1/2-y,z
1/2+x,1/2+y,1/2+z
1/2-x,-y,1/2+z
1/2+x,1/2-y,1/2-z
1/2-x,y,1/2-z
1/2-x,1/2-y,1/2-z
1/2+x,y,1/2-z
1/2-x,1/2+y,1/2+z
1/2+x,-y,1/2+z
loop_
_atom_site_type_symbol
_atom_site_label
_atom_site_fract_x
_atom_site_fract_y
_atom_site_fract_z
Si Si1 0.500000 0.061469 0.787718
Si Si2 0.500000 0.438895 0.650941
Si Si3 0.109507 0.939341 0.605481
Si Si4 0.171477 0.938857 0.935936
O O1 0.500000 0.250000 0.789760
O O2 0.500000 0.009220 0.719720
O O3 0.404826 0.997689 0.826562
O O4 0.500000 0.250000 0.649848
O O5 0.597984 0.500634 0.615606
O O6 0.112479 0.750000 0.605299
O O7 0.212743 0.996315 0.575813
O O8 0.000000 0.988951 0.577647
O O9 0.170131 0.750000 0.936294
O O10 0.136691 0.000000 0.000000
#
# Coordination Sequence:
#
# PCOD9540517 Si02
#       4
#     8   8  16  16
#     4   9  19  36  59  86 113 146 186 233 282 329
#     4  11  24  40  57  82 117 152 189 233 280 333
#     4   8  18  38  59  84 115 146 184 228 282 340
#     4  11  23  39  60  84 113 151 191 232 279 333
#
# _framework density 19.121023999999998
#
# number of rings (size 3 to 8) (size 9 to 14) (size 15 to 20)
#    1.000    1.333    0.000    2.000    0.000    7.333 
#    0.000    6.667    0.000    0.000    0.000    0.000 
#    0.000    0.000    0.000    0.000    0.000    0.000 
#
# Total GULP energy -133707.777929 kJ/mol
# GULP energy per Si atom -5571.157414 kJ/mol
# Density = 1.907750 g / cm^3
# Si number density = 19.121024 Si / 1000 Ang^3
#
#
#
# Elastic Constant Matrix: (Units=GPa)
#
#
# Indices 1 2 3 4 5 6 
#
# 1 83.1522 6.3433 9.4433 0.0000 0.0000 0.0000
# 2 6.3433 20.3561 -2.1987 0.0000 0.0000 0.0000
# 3 9.4433 -2.1987 85.1324 0.0000 0.0000 0.0000
# 4 0.0000 0.0000 0.0000 27.6095 0.0000 0.0000
# 5 0.0000 0.0000 0.0000 0.0000 34.4678 0.0000
# 6 0.0000 0.0000 0.0000 0.0000 0.0000 10.2085
#
#
#
# Elastic Compliance Matrix: (Units=1/GPa)
#
#
# Indices 1 2 3 4 5 6 
#
# 1 0.012505 -0.004058 -0.001492 0.000000 0.000000 0.000000
# 2 -0.004058 0.050580 0.001756 0.000000 0.000000 0.000000
# 3 -0.001492 0.001756 0.011957 0.000000 0.000000 0.000000
# 4 0.000000 0.000000 0.000000 0.036219 0.000000 0.000000
# 5 0.000000 0.000000 0.000000 0.000000 0.029013 0.000000
# 6 0.000000 0.000000 0.000000 0.000000 0.000000 0.097957
#
#
# Mechanical properties :
#
#
# Convention : Reuss Voigt Hill
#
# Bulk Modulus (GPa) = 14.82468 23.97960 19.40214
# Shear Modulus (GPa) = 18.63564 26.12735 22.38150
#
# Velocity S-wave (km/s) = 3.12527 3.70052 3.42499
# Velocity P-wave (km/s) = 4.55993 5.55218 5.08034
#
# Compressibility (1/GPa) = 0.06745508
#
# Stress axis : x y z
#
# Youngs Moduli (GPa) = 79.96716 19.77085 83.63112
#
# Poissons Ratio (x) = 0.08023 0.12477
# Poissons Ratio (y) = 0.32450 -0.14689
# Poissons Ratio (z) = 0.11931 -0.03473
#
# Static dielectric constant tensor:
#      x y z
#    x 1.691680 0.000000 0.000000 
#    y 0.000000 1.640920 0.000000 
#    z 0.000000 0.000000 1.640180 
# 
# From -- ./inp_files/56162.got.cif
#   From: 2010.05.17/outbox.cif.g08.bks.cpg/sg74_29_cif.got.tgz:56162.got - 2010.06.03 17:57:02.
