data_PCOD9540642
_publ_section_title
;
Structure prediction by ZEFSAII (Michael W. Deem and Ramdas Pophale) SiO2 
 PCOD9540642
Probable space group: I M M A
;
_chemical_formula_sum "Si O2"
_cell_formula_units_Z 116
_cell_length_a 15.414837
_cell_length_b 26.492119
_cell_length_c 11.438603
_cell_angle_alpha 90.000000
_cell_angle_beta 90.000000
_cell_angle_gamma 90.000000
_cell_volume 4671.201709
_symmetry_space_group_name_H-M "I M M A"
_symmetry_group_IT_number 74
_symmetry_cell_setting 'orthorhombic'
loop_
_space_group_symop_operation_xyz
x,y,z
-x,1/2-y,z
x,-y,-z
-x,1/2+y,-z
-x,-y,-z
x,1/2+y,-z
-x,y,z
x,1/2-y,z
1/2+x,1/2+y,1/2+z
1/2-x,-y,1/2+z
1/2+x,1/2-y,1/2-z
1/2-x,y,1/2-z
1/2-x,1/2-y,1/2-z
1/2+x,y,1/2-z
1/2-x,1/2+y,1/2+z
1/2+x,-y,1/2+z
loop_
_atom_site_type_symbol
_atom_site_label
_atom_site_fract_x
_atom_site_fract_y
_atom_site_fract_z
Si Si1 0.656958 0.087963 0.372863
Si Si2 0.876029 0.090928 0.870909
Si Si3 0.906084 0.666516 0.522196
Si Si4 0.000000 0.250000 0.609543
Si Si5 0.161039 0.304749 0.824077
Si Si6 0.780816 0.305170 0.097193
Si Si7 0.904663 0.002223 0.295192
Si Si8 0.805918 0.068907 0.539606
O O1 0.599890 0.087102 0.491927
O O2 0.674875 0.146293 0.344371
O O3 0.622714 0.052830 0.271510
O O4 0.748558 0.065824 0.421336
O O5 0.895760 0.144652 0.812952
O O6 0.905794 0.042293 0.801621
O O7 0.770890 0.089392 0.877021
O O8 0.925478 0.705348 0.416837
O O9 0.822839 0.686845 0.591705
O O10 0.878650 0.611113 0.479580
O O11 0.000000 0.665372 0.585634
O O12 0.115926 0.250000 0.806592
O O13 0.250000 0.305760 0.750000
O O14 0.189410 0.306465 0.961217
O O15 0.803842 0.250000 0.143512
O O16 0.844676 0.978478 0.394167
O O17 0.000000 0.010126 0.344812
#
# Coordination Sequence:
#
# PCOD9540642 Si02
#       8
#    16  16  16   4  16  16  16  16
#     4   8  20  33  51  81 111 152 198 240 297 366
#     4   9  19  33  50  72 109 151 196 241 291 350
#     4   9  14  24  41  76 112 152 194 234 280 337
#     4   8  16  20  44  72 122 150 200 234 284 334
#     4   9  15  23  41  66  98 142 195 231 265 333
#     4   9  14  27  47  71 107 151 191 230 286 366
#     4  12  22  35  58  84 114 148 202 268 313 348
#     4   9  19  34  50  75 115 154 200 243 300 360
#
# _framework density 24.833010999999999
#
# number of rings (size 3 to 8) (size 9 to 14) (size 15 to 20)
#    1.241    1.517    2.069    2.069    0.000    1.103 
#    0.000    0.000    0.000    0.828    0.000   48.276 
#    0.000    3.310    0.000    0.000    0.000    0.138 
#
# Total GULP energy -323378.245672 kJ/mol
# GULP energy per Si atom -5575.486994 kJ/mol
# Density = 2.477649 g / cm^3
# Si number density = 24.833011 Si / 1000 Ang^3
#
#
#
# Elastic Constant Matrix: (Units=GPa)
#
#
# Indices 1 2 3 4 5 6 
#
# 1 71.2051 52.4264 -9.6125 0.0000 0.0000 0.0000
# 2 52.4264 208.0191 29.6845 0.0001 0.0000 0.0000
# 3 -9.6125 29.6845 65.6456 0.0001 0.0002 -0.0001
# 4 0.0000 0.0001 0.0001 21.8183 0.0001 0.0000
# 5 0.0000 0.0000 0.0002 0.0001 23.4838 0.0000
# 6 0.0000 0.0000 -0.0001 0.0000 0.0000 19.6283
#
#
#
# Elastic Compliance Matrix: (Units=1/GPa)
#
#
# Indices 1 2 3 4 5 6 
#
# 1 0.018785 -0.005480 0.005229 0.000000 0.000000 0.000000
# 2 -0.005480 0.006738 -0.003849 0.000000 0.000000 0.000000
# 3 0.005229 -0.003849 0.017740 0.000000 0.000000 0.000000
# 4 0.000000 0.000000 0.000000 0.045833 0.000000 0.000000
# 5 0.000000 0.000000 0.000000 0.000000 0.042582 0.000000
# 6 0.000000 0.000000 0.000000 0.000000 0.000000 0.050947
#
#
# Mechanical properties :
#
#
# Convention : Reuss Voigt Hill
#
# Bulk Modulus (GPa) = 28.52202 54.42963 41.47582
# Shear Modulus (GPa) = 24.68974 31.14418 27.91696
#
# Velocity S-wave (km/s) = 3.15656 3.54523 3.35653
# Velocity P-wave (km/s) = 4.97952 6.22287 5.63559
#
# Compressibility (1/GPa) = 0.03506063
#
# Stress axis : x y z
#
# Youngs Moduli (GPa) = 53.23407 148.41693 56.37105
#
# Poissons Ratio (x) = 0.81340 -0.29476
# Poissons Ratio (y) = 0.29175 0.21699
# Poissons Ratio (z) = -0.27836 0.57130
#
# Static dielectric constant tensor:
#      x y z
#    x 1.956610 0.000000 0.000000 
#    y 0.000000 2.015960 0.000000 
#    z 0.000000 0.000000 2.036740 
# 
# From -- ./inp_files/34549.got.cif
#   From: 2010.05.17/outbox.cif.g08.bks.cpg/sg74_18_cif.got.tgz:34549.got - 2010.06.03 17:57:02.
