data_PCOD9540254
_publ_section_title
;
Structure prediction by ZEFSAII (Michael W. Deem and Ramdas Pophale) SiO2 
 PCOD9540254
Probable space group: I M M A
;
_chemical_formula_sum "Si O2"
_cell_formula_units_Z 64
_cell_length_a 23.632016
_cell_length_b 13.093376
_cell_length_c 9.898437
_cell_angle_alpha 90.000000
_cell_angle_beta 90.000000
_cell_angle_gamma 90.000000
_cell_volume 3062.802796
_symmetry_space_group_name_H-M "I M M A"
_symmetry_group_IT_number 74
_symmetry_cell_setting 'orthorhombic'
loop_
_space_group_symop_operation_xyz
x,y,z
-x,1/2-y,z
x,-y,-z
-x,1/2+y,-z
-x,-y,-z
x,1/2+y,-z
-x,y,z
x,1/2-y,z
1/2+x,1/2+y,1/2+z
1/2-x,-y,1/2+z
1/2+x,1/2-y,1/2-z
1/2-x,y,1/2-z
1/2-x,1/2-y,1/2-z
1/2+x,y,1/2-z
1/2-x,1/2+y,1/2+z
1/2+x,-y,1/2+z
loop_
_atom_site_type_symbol
_atom_site_label
_atom_site_fract_x
_atom_site_fract_y
_atom_site_fract_z
Si Si1 0.844829 0.250000 0.258300
Si Si2 0.436924 0.907679 0.822947
Si Si3 0.715591 0.567773 0.129523
Si Si4 0.089723 0.365909 0.640437
Si Si5 0.245860 0.750000 0.975472
O O1 0.885730 0.347922 0.253566
O O2 0.801640 0.250000 0.136395
O O3 0.806428 0.250000 0.395042
O O4 0.500000 0.871844 0.788339
O O5 0.434702 0.029316 0.797855
O O6 0.425874 0.881191 0.981610
O O7 0.750000 0.513400 0.250000
O O8 0.656776 0.621203 0.166643
O O9 0.701242 0.500000 0.000000
O O10 0.757051 0.653068 0.071428
O O11 0.072509 0.250000 0.678407
#
# Coordination Sequence:
#
# PCOD9540254 Si02
#       5
#     8  16  16  16   8
#     4  11  21  38  64  91 128 170 218 269 323 397
#     4  11  21  35  57  90 125 164 219 279 326 375
#     4  12  24  39  63  93 135 171 213 270 331 401
#     4  11  20  35  54  86 129 166 213 266 325 388
#     4  11  23  40  60  91 131 173 211 263 330 389
#
# _framework density 20.895894999999999
#
# number of rings (size 3 to 8) (size 9 to 14) (size 15 to 20)
#    0.000    0.750    7.500    2.250    7.000    1.500 
#    0.000    0.000    0.000    0.000    0.000    8.750 
#    0.000    0.000    0.000    0.000    0.000    0.000 
#
# Total GULP energy -178618.969863 kJ/mol
# GULP energy per Si atom -5581.842808 kJ/mol
# Density = 2.084833 g / cm^3
# Si number density = 20.895895 Si / 1000 Ang^3
#
#
#
# Elastic Constant Matrix: (Units=GPa)
#
#
# Indices 1 2 3 4 5 6 
#
# 1 137.5704 34.2527 31.2736 0.0000 0.0000 0.0000
# 2 34.2527 143.2848 -1.2195 0.0000 0.0000 0.0000
# 3 31.2736 -1.2195 24.4521 0.0000 0.0000 0.0000
# 4 0.0000 0.0000 0.0000 -8.3186 0.0000 0.0000
# 5 0.0000 0.0000 0.0000 0.0000 17.8296 0.0000
# 6 0.0000 0.0000 0.0000 0.0000 0.0000 33.0909
#
#
#
# Elastic Compliance Matrix: (Units=1/GPa)
#
#
# Indices 1 2 3 4 5 6 
#
# 1 0.011284 -0.002822 -0.014573 0.000000 0.000000 0.000000
# 2 -0.002822 0.007688 0.003992 0.000000 0.000000 0.000000
# 3 -0.014573 0.003992 0.059734 0.000000 0.000000 0.000000
# 4 0.000000 0.000000 0.000000 -0.120212 0.000000 0.000000
# 5 0.000000 0.000000 0.000000 0.000000 0.056087 0.000000
# 6 0.000000 0.000000 0.000000 0.000000 0.000000 0.030220
#
#
# Mechanical properties :
#
#
# Convention : Reuss Voigt Hill
#
# Bulk Modulus (GPa) = 19.26747 48.21345 33.74046
# Shear Modulus (GPa) = 56.23880 24.58706 40.41293
#
# Velocity S-wave (km/s) = 5.19348 3.43395 4.40251
# Velocity P-wave (km/s) = 6.72337 6.23265 6.48265
#
# Compressibility (1/GPa) = 0.05190096
#
# Stress axis : x y z
#
# Youngs Moduli (GPa) = 88.61742 130.07961 16.74079
#
# Poissons Ratio (x) = 0.36704 0.24397
# Poissons Ratio (y) = 0.25004 -0.06683
# Poissons Ratio (z) = 1.29145 -0.51930
#
# Static dielectric constant tensor:
#      x y z
#    x 1.755910 0.000000 0.000000 
#    y 0.000000 1.852770 0.000000 
#    z 0.000000 0.000000 1.765740 
# 
# From -- ./inp_files/13322.got.cif
#   From: 2010.05.17/outbox.cif.g08.bks.cpg/sg74_7_cif.got.tgz:13322.got - 2010.06.03 17:57:02.
