data_PCOD9540936
_publ_section_title
;
Structure prediction by ZEFSAII (Michael W. Deem and Ramdas Pophale) SiO2 
 PCOD9540936
Probable space group: I M M A
;
_chemical_formula_sum "Si O2"
_cell_formula_units_Z 48
_cell_length_a 21.000000
_cell_length_b 9.000000
_cell_length_c 27.000000
_cell_angle_alpha 90.000000
_cell_angle_beta 90.000000
_cell_angle_gamma 90.000000
_cell_volume 5103.000000
_symmetry_space_group_name_H-M "I M M A"
_symmetry_group_IT_number 74
_symmetry_cell_setting 'orthorhombic'
loop_
_space_group_symop_operation_xyz
x,y,z
-x,1/2-y,z
x,-y,-z
-x,1/2+y,-z
-x,-y,-z
x,1/2+y,-z
-x,y,z
x,1/2-y,z
1/2+x,1/2+y,1/2+z
1/2-x,-y,1/2+z
1/2+x,1/2-y,1/2-z
1/2-x,y,1/2-z
1/2-x,1/2-y,1/2-z
1/2+x,y,1/2-z
1/2-x,1/2+y,1/2+z
1/2+x,-y,1/2+z
loop_
_atom_site_type_symbol
_atom_site_label
_atom_site_fract_x
_atom_site_fract_y
_atom_site_fract_z
Si Si1 0.426770 0.573348 0.446315
Si Si2 0.929716 0.070754 0.410955
Si Si3 0.819473 0.074953 0.773879
Si Si4 0.319644 0.573028 0.620643
Si Si5 0.794734 0.928524 0.550361
Si Si6 0.428108 0.426744 0.803391
O O1 0.418291 0.500000 0.500000
O O2 0.500000 0.545385 0.430577
O O3 0.417815 0.750000 0.450065
O O4 0.376230 0.503739 0.409368
O O5 0.929047 0.250000 0.411031
O O6 0.867113 0.019442 0.439980
O O7 0.000000 0.021699 0.429142
O O8 0.922834 0.013267 0.354903
O O9 0.829513 0.250000 0.785330
O O10 0.750000 0.059728 0.750000
O O11 0.873994 0.029074 0.735186
O O12 0.821885 0.981269 0.823463
O O13 0.326095 0.750000 0.617360
O O14 0.252260 0.531779 0.595168
O O15 0.794991 0.750000 0.545727
O O16 0.769978 0.000000 0.500000
O O17 0.500000 0.450318 0.783891
O O18 0.420982 0.250000 0.813232
#
# Coordination Sequence:
#
# PCOD9540936 Si02
#       6
#    16  16  16  16  16  16
#     4  10  21  38  60  84 111 143 179 221 269 322
#     4   9  18  34  55  78 106 139 175 216 262 312
#     4  10  21  36  54  77 106 141 181 225 273 323
#     4  11  23  37  55  80 110 143 181 225 271 324
#     4  10  22  37  53  77 107 139 176 219 265 312
#     4   9  18  33  53  77 104 134 170 212 259 312
#
# _framework density 9.4062319999999993
#
# number of rings (size 3 to 8) (size 9 to 14) (size 15 to 20)
#    0.000    2.167    0.000    2.500    0.000    6.333 
#    0.000    1.667    0.000    0.000    0.000    0.000 
#    0.000    0.000    0.000    0.000    0.000    0.000 
#
# Total GULP energy -267965.495214 kJ/mol
# GULP energy per Si atom -5582.614484 kJ/mol
# Density = 0.938482 g / cm^3
# Si number density = 9.406232 Si / 1000 Ang^3
#
#
#
# Elastic Constant Matrix: (Units=GPa)
#
#
# Indices 1 2 3 4 5 6 
#
# 1 76.9337 29.4436 25.9752 0.0000 0.0000 0.0000
# 2 29.4436 18.8283 14.1653 0.0000 0.0000 0.0000
# 3 25.9752 14.1653 45.1194 0.0000 0.0000 0.0000
# 4 0.0000 0.0000 0.0000 30.6283 0.0000 0.0000
# 5 0.0000 0.0000 0.0000 0.0000 36.0380 0.0000
# 6 0.0000 0.0000 0.0000 0.0000 0.0000 174.7011
#
#
#
# Elastic Compliance Matrix: (Units=1/GPa)
#
#
# Indices 1 2 3 4 5 6 
#
# 1 0.032824 -0.048590 -0.003642 0.000000 0.000000 0.000000
# 2 -0.048590 0.141465 -0.016440 0.000000 0.000000 0.000000
# 3 -0.003642 -0.016440 0.029421 0.000000 0.000000 0.000000
# 4 0.000000 0.000000 0.000000 0.032650 0.000000 0.000000
# 5 0.000000 0.000000 0.000000 0.000000 0.027749 0.000000
# 6 0.000000 0.000000 0.000000 0.000000 0.000000 0.005724
#
#
# Mechanical properties :
#
#
# Convention : Reuss Voigt Hill
#
# Bulk Modulus (GPa) = 15.06782 31.11663 23.09222
# Shear Modulus (GPa) = 11.64692 53.02662 32.33677
#
# Velocity S-wave (km/s) = 2.49088 5.31490 4.15046
# Velocity P-wave (km/s) = 4.03727 7.36482 5.93886
#
# Compressibility (1/GPa) = 0.06636662
#
# Stress axis : x y z
#
# Youngs Moduli (GPa) = 30.46566 7.06889 33.98894
#
# Poissons Ratio (x) = 0.34348 0.12378
# Poissons Ratio (y) = 1.48033 0.55878
# Poissons Ratio (z) = 0.11095 0.11621
#
# Static dielectric constant tensor:
#      x y z
#    x 1.667840 0.000000 0.000000 
#    y 0.000000 1.625550 0.000000 
#    z 0.000000 0.000000 1.608230 
# 
# From -- ./inp_files/64274.got.cif
#   From: 2010.05.17/outbox.ucp.g08.bks.cvg/sg74_33_cif.got.tgz:64274.got - 2010.06.11 16:37:44.
