data_PCOD9540510
_publ_section_title
;
Structure prediction by ZEFSAII (Michael W. Deem and Ramdas Pophale) SiO2 
 PCOD9540510
Probable space group: I M M A
;
_chemical_formula_sum "Si O2"
_cell_formula_units_Z 52
_cell_length_a 7.253329
_cell_length_b 37.370557
_cell_length_c 7.638313
_cell_angle_alpha 90.000000
_cell_angle_beta 90.000000
_cell_angle_gamma 90.000000
_cell_volume 2070.448339
_symmetry_space_group_name_H-M "I M M A"
_symmetry_group_IT_number 74
_symmetry_cell_setting 'orthorhombic'
loop_
_space_group_symop_operation_xyz
x,y,z
-x,1/2-y,z
x,-y,-z
-x,1/2+y,-z
-x,-y,-z
x,1/2+y,-z
-x,y,z
x,1/2-y,z
1/2+x,1/2+y,1/2+z
1/2-x,-y,1/2+z
1/2+x,1/2-y,1/2-z
1/2-x,y,1/2-z
1/2-x,1/2-y,1/2-z
1/2+x,y,1/2-z
1/2-x,1/2+y,1/2+z
1/2+x,-y,1/2+z
loop_
_atom_site_type_symbol
_atom_site_label
_atom_site_fract_x
_atom_site_fract_y
_atom_site_fract_z
Si Si1 0.281193 0.115647 0.540700
Si Si2 0.500000 0.250000 0.906377
Si Si3 0.218172 0.805742 0.949711
Si Si4 0.218480 0.960835 0.043716
O O1 0.500000 0.114549 0.512843
O O2 0.250000 0.117991 0.750000
O O3 0.217856 0.152941 0.460818
O O4 0.208586 0.077220 0.472532
O O5 0.339864 0.218904 0.928216
O O6 0.250000 0.793428 0.750000
O O7 0.000000 0.803211 0.990677
O O8 0.250000 0.957589 0.250000
O O9 0.000000 0.961993 0.003536
O O10 0.294995 0.000000 0.000000
#
# Coordination Sequence:
#
# PCOD9540510 Si02
#       4
#    16   4  16  16
#     4   9  20  37  58  81 115 152 190 232 284 340
#     4  12  24  40  64  84 118 150 186 244 298 346
#     4  11  23  38  61  88 114 150 194 237 289 347
#     4   9  18  34  55  82 115 151 187 233 277 327
#
# _framework density 25.115331000000001
#
# number of rings (size 3 to 8) (size 9 to 14) (size 15 to 20)
#    0.000    2.154    1.538    0.923    2.154    1.846 
#    0.000    0.769    0.000    0.000    0.000    0.000 
#    0.000    0.000    0.000    0.000    0.000    0.000 
#
# Total GULP energy -144794.372888 kJ/mol
# GULP energy per Si atom -5569.014342 kJ/mol
# Density = 2.505817 g / cm^3
# Si number density = 25.115331 Si / 1000 Ang^3
#
#
#
# Elastic Constant Matrix: (Units=GPa)
#
#
# Indices 1 2 3 4 5 6 
#
# 1 170.5355 58.9781 -0.9906 -0.0175 0.0001 0.0003
# 2 58.9781 271.1690 19.3942 -0.0217 0.0002 0.0004
# 3 -0.9906 19.3942 60.1817 0.0394 0.0005 0.0005
# 4 -0.0175 -0.0217 0.0394-1683.3392 -0.0013 -0.0206
# 5 0.0001 0.0002 0.0005 -0.0013 12.4546 0.0001
# 6 0.0003 0.0004 0.0005 -0.0206 0.0001 50.3060
#
#
#
# Elastic Compliance Matrix: (Units=1/GPa)
#
#
# Indices 1 2 3 4 5 6 
#
# 1 0.006359 -0.001423 0.000563 0.000000 0.000000 0.000000
# 2 -0.001423 0.004093 -0.001343 0.000000 0.000000 0.000000
# 3 0.000563 -0.001343 0.017058 0.000000 -0.000001 0.000000
# 4 0.000000 0.000000 0.000000 -0.000594 0.000000 0.000000
# 5 0.000000 0.000000 -0.000001 0.000000 0.080292 0.000000
# 6 0.000000 0.000000 0.000000 0.000000 0.000000 0.019878
#
#
# Mechanical properties :
#
#
# Convention : Reuss Voigt Hill
#
# Bulk Modulus (GPa) = 43.27905 72.96106 58.12005
# Shear Modulus (GPa) = 35.92097 -295.81543 -129.94723
#
# Velocity S-wave (km/s) = 3.78596 -10.86455 -7.20087
# Velocity P-wave (km/s) = 6.03165 11.32569 6.77829
#
# Compressibility (1/GPa) = 0.02310587
#
# Stress axis : x y z
#
# Youngs Moduli (GPa) = 157.24650 244.29854 58.62253
#
# Poissons Ratio (x) = 0.34775 -0.03303
# Poissons Ratio (y) = 0.22383 0.07870
# Poissons Ratio (z) = -0.08859 0.32799
#
# Static dielectric constant tensor:
#      x y z
#    x 1.923970 0.000000 0.000000 
#    y 0.000000 2.043940 0.000000 
#    z 0.000000 0.000000 1.984510 
# 
# From -- ./inp_files/17171.got.cif
#   From: 2010.05.17/outbox.cif.g08.bks.cpg/sg74_9_cif.got.tgz:17171.got - 2010.06.03 17:57:02.
