data_PCOD9540624
_publ_section_title
;
Structure prediction by ZEFSAII (Michael W. Deem and Ramdas Pophale) SiO2 
 PCOD9540624
Probable space group: I M M A
;
_chemical_formula_sum "Si O2"
_cell_formula_units_Z 56
_cell_length_a 16.116020
_cell_length_b 28.327283
_cell_length_c 5.019973
_cell_angle_alpha 90.000000
_cell_angle_beta 90.000000
_cell_angle_gamma 90.000000
_cell_volume 2291.733432
_symmetry_space_group_name_H-M "I M M A"
_symmetry_group_IT_number 74
_symmetry_cell_setting 'orthorhombic'
loop_
_space_group_symop_operation_xyz
x,y,z
-x,1/2-y,z
x,-y,-z
-x,1/2+y,-z
-x,-y,-z
x,1/2+y,-z
-x,y,z
x,1/2-y,z
1/2+x,1/2+y,1/2+z
1/2-x,-y,1/2+z
1/2+x,1/2-y,1/2-z
1/2-x,y,1/2-z
1/2-x,1/2-y,1/2-z
1/2+x,y,1/2-z
1/2-x,1/2+y,1/2+z
1/2+x,-y,1/2+z
loop_
_atom_site_type_symbol
_atom_site_label
_atom_site_fract_x
_atom_site_fract_y
_atom_site_fract_z
Si Si1 0.500000 0.570074 0.781407
Si Si2 0.122650 0.000000 0.000000
Si Si3 0.750000 0.363811 0.250000
Si Si4 0.500000 0.135347 0.713352
Si Si5 0.250000 0.932796 0.250000
Si Si6 0.341646 0.804966 0.106653
O O1 0.574729 0.536339 0.690876
O O2 0.500000 0.614268 0.581142
O O3 0.500000 0.591005 0.077831
O O4 0.174320 0.967353 0.198303
O O5 0.751206 0.398859 0.497626
O O6 0.825356 0.328530 0.317674
O O7 0.416657 0.165600 0.765018
O O8 0.362976 0.750000 0.089849
O O9 0.250000 0.807777 0.250000
#
# Coordination Sequence:
#
# PCOD9540624 Si02
#       6
#     8   8   8   8   8  16
#     4  11  28  50  73 102 155 191 255 308 383 441
#     4  11  26  48  70 111 146 200 248 323 360 458
#     4  12  24  46  70 113 148 193 246 314 368 460
#     4  12  27  51  74 112 149 207 242 318 377 457
#     4  12  25  42  75 107 146 195 251 298 381 438
#     4  11  26  49  79 115 154 197 254 313 381 460
#
# _framework density 24.435649000000002
#
# number of rings (size 3 to 8) (size 9 to 14) (size 15 to 20)
#    0.000    0.571    1.429    5.143    4.000    6.857 
#    0.000    1.429    0.000    0.000    0.000    0.000 
#    0.000    0.000    0.000    0.000    0.000    0.000 
#
# Total GULP energy -156837.075343 kJ/mol
# GULP energy per Si atom -5601.324119 kJ/mol
# Density = 2.438003 g / cm^3
# Si number density = 24.435649 Si / 1000 Ang^3
#
#
#
# Elastic Constant Matrix: (Units=GPa)
#
#
# Indices 1 2 3 4 5 6 
#
# 1 94.1136 44.2853 7.4777 0.0637 0.0101 0.0016
# 2 44.2853 158.7987 21.3935 -0.0156 0.0004 0.0073
# 3 7.4777 21.3935 114.0055 -0.0829 0.0265 0.0099
# 4 0.0637 -0.0156 -0.0829 30.9947 0.0029 -0.0037
# 5 0.0101 0.0004 0.0265 0.0029 19.6809 -0.0129
# 6 0.0016 0.0073 0.0099 -0.0037 -0.0129 96.5014
#
#
#
# Elastic Compliance Matrix: (Units=1/GPa)
#
#
# Indices 1 2 3 4 5 6 
#
# 1 0.012234 -0.003389 -0.000166 -0.000027 -0.000006 0.000000
# 2 -0.003389 0.007400 -0.001166 0.000008 0.000003 0.000000
# 3 -0.000166 -0.001166 0.009001 0.000024 -0.000012 -0.000001
# 4 -0.000027 0.000008 0.000024 0.032264 -0.000005 0.000001
# 5 -0.000006 0.000003 -0.000012 -0.000005 0.050811 0.000007
# 6 0.000000 0.000000 -0.000001 0.000001 0.000007 0.010363
#
#
# Mechanical properties :
#
#
# Convention : Reuss Voigt Hill
#
# Bulk Modulus (GPa) = 52.10890 57.02563 54.56726
# Shear Modulus (GPa) = 36.25501 49.01948 42.63725
#
# Velocity S-wave (km/s) = 3.85605 4.48377 4.18171
# Velocity P-wave (km/s) = 6.41847 7.08472 6.75981
#
# Compressibility (1/GPa) = 0.01919058
#
# Stress axis : x y z
#
# Youngs Moduli (GPa) = 81.74275 135.14287 111.09513
#
# Poissons Ratio (x) = 0.45803 0.01849
# Poissons Ratio (y) = 0.27704 0.12956
# Poissons Ratio (z) = 0.01360 0.15761
#
# Static dielectric constant tensor:
#      x y z
#    x 2.017190 -0.000010 -0.000030 
#    y -0.000010 1.893700 -0.000110 
#    z -0.000030 -0.000110 1.990480 
# 
# From -- ./inp_files/1583.got.cif
#   From: 2010.05.17/outbox.cif.g08.bks.cpg/sg74_1_cif.got.tgz:1583.got - 2010.06.03 17:57:02.
