data_PCOD9540175
_publ_section_title
;
Structure prediction by ZEFSAII (Michael W. Deem and Ramdas Pophale) SiO2 
 PCOD9540175
Probable space group: I M M A
;
_chemical_formula_sum "Si O2"
_cell_formula_units_Z 52
_cell_length_a 14.663830
_cell_length_b 18.452966
_cell_length_c 6.896529
_cell_angle_alpha 90.000000
_cell_angle_beta 90.000000
_cell_angle_gamma 90.000000
_cell_volume 1866.139757
_symmetry_space_group_name_H-M "I M M A"
_symmetry_group_IT_number 74
_symmetry_cell_setting 'orthorhombic'
loop_
_space_group_symop_operation_xyz
x,y,z
-x,1/2-y,z
x,-y,-z
-x,1/2+y,-z
-x,-y,-z
x,1/2+y,-z
-x,y,z
x,1/2-y,z
1/2+x,1/2+y,1/2+z
1/2-x,-y,1/2+z
1/2+x,1/2-y,1/2-z
1/2-x,y,1/2-z
1/2-x,1/2-y,1/2-z
1/2+x,y,1/2-z
1/2-x,1/2+y,1/2+z
1/2+x,-y,1/2+z
loop_
_atom_site_type_symbol
_atom_site_label
_atom_site_fract_x
_atom_site_fract_y
_atom_site_fract_z
Si Si1 0.106878 0.829383 0.825080
Si Si2 0.854225 0.857272 0.272551
Si Si3 0.391204 0.984248 0.728588
Si Si4 0.500000 0.250000 0.947489
O O1 0.148063 0.750000 0.790649
O O2 0.146028 0.903468 0.738324
O O3 0.000000 0.821878 0.768510
O O4 0.105808 0.843304 0.056763
O O5 0.750000 0.833959 0.250000
O O6 0.918823 0.812276 0.412273
O O7 0.855106 0.942798 0.324956
O O8 0.500000 0.981738 0.763680
O O9 0.378030 0.000000 0.500000
#
# Coordination Sequence:
#
# PCOD9540175 Si02
#       4
#    16  16  16   4
#     4   9  14  25  42  62  84 102 124 163 202 237
#     4  11  18  25  39  58  87 110 128 155 199 239
#     4   8  14  25  39  55  80 108 128 158 199 233
#     4  12  18  28  34  58  92 108 128 158 184 254
#
# _framework density 27.865010000000002
#
# number of rings (size 3 to 8) (size 9 to 14) (size 15 to 20)
#    0.000    2.462    4.615    2.308    0.000    0.000 
#    0.000    0.000    0.000    0.923    0.000    9.692 
#    0.000    0.000    0.000    0.000    0.000    0.000 
#
# Total GULP energy -145146.282718 kJ/mol
# GULP energy per Si atom -5582.549335 kJ/mol
# Density = 2.780159 g / cm^3
# Si number density = 27.865010 Si / 1000 Ang^3
#
#
#
# Elastic Constant Matrix: (Units=GPa)
#
#
# Indices 1 2 3 4 5 6 
#
# 1 161.5141 60.9940 -6.7114 0.0000 0.0000 0.0000
# 2 60.9940 343.4911 37.8439 0.0000 0.0000 0.0000
# 3 -6.7114 37.8439 116.4452 0.0000 0.0000 0.0000
# 4 0.0000 0.0000 0.0000 104.9989 0.0000 0.0000
# 5 0.0000 0.0000 0.0000 0.0000 -21.6395 0.0000
# 6 0.0000 0.0000 0.0000 0.0000 0.0000 163.2517
#
#
#
# Elastic Compliance Matrix: (Units=1/GPa)
#
#
# Indices 1 2 3 4 5 6 
#
# 1 0.006708 -0.001280 0.000802 0.000000 0.000000 0.000000
# 2 -0.001280 0.003263 -0.001134 0.000000 0.000000 0.000000
# 3 0.000802 -0.001134 0.009003 0.000000 0.000000 0.000000
# 4 0.000000 0.000000 0.000000 0.009524 0.000000 0.000000
# 5 0.000000 0.000000 0.000000 0.000000 -0.046212 0.000000
# 6 0.000000 0.000000 0.000000 0.000000 0.000000 0.006126
#
#
# Mechanical properties :
#
#
# Convention : Reuss Voigt Hill
#
# Bulk Modulus (GPa) = 63.48726 89.52260 76.50493
# Shear Modulus (GPa) = -1605.10558 84.61049 -760.24755
#
# Velocity S-wave (km/s) = -24.02664 5.51637 -16.53556
# Velocity P-wave (km/s) = 27.32897 8.53058 18.35895
#
# Compressibility (1/GPa) = 0.01575119
#
# Stress axis : x y z
#
# Youngs Moduli (GPa) = 149.07653 306.42226 111.07859
#
# Poissons Ratio (x) = 0.39208 -0.08914
# Poissons Ratio (y) = 0.19075 0.12600
# Poissons Ratio (z) = -0.11963 0.34759
#
# Static dielectric constant tensor:
#      x y z
#    x 2.053080 0.000000 0.000000 
#    y 0.000000 2.271330 0.000000 
#    z 0.000000 0.000000 2.376750 
# 
# From -- ./inp_files/8323.got.cif
#   From: 2010.05.17/outbox.cif.g08.bks.cpg/sg74_5_cif.got.tgz:8323.got - 2010.06.03 17:57:02.
