data_PCOD9540744
_publ_section_title
;
Structure prediction by ZEFSAII (Michael W. Deem and Ramdas Pophale) SiO2 
 PCOD9540744
Probable space group: I M M A
;
_chemical_formula_sum "Si O2"
_cell_formula_units_Z 104
_cell_length_a 7.454481
_cell_length_b 18.787586
_cell_length_c 36.940703
_cell_angle_alpha 90.000000
_cell_angle_beta 90.000000
_cell_angle_gamma 90.000000
_cell_volume 5173.608360
_symmetry_space_group_name_H-M "I M M A"
_symmetry_group_IT_number 74
_symmetry_cell_setting 'orthorhombic'
loop_
_space_group_symop_operation_xyz
x,y,z
-x,1/2-y,z
x,-y,-z
-x,1/2+y,-z
-x,-y,-z
x,1/2+y,-z
-x,y,z
x,1/2-y,z
1/2+x,1/2+y,1/2+z
1/2-x,-y,1/2+z
1/2+x,1/2-y,1/2-z
1/2-x,y,1/2-z
1/2-x,1/2-y,1/2-z
1/2+x,y,1/2-z
1/2-x,1/2+y,1/2+z
1/2+x,-y,1/2+z
loop_
_atom_site_type_symbol
_atom_site_label
_atom_site_fract_x
_atom_site_fract_y
_atom_site_fract_z
Si Si1 0.719444 0.170672 0.031757
Si Si2 0.289793 0.023366 0.653806
Si Si3 0.217087 0.966705 0.574822
Si Si4 0.287037 0.828048 0.374090
Si Si5 0.783982 0.883146 0.453784
Si Si6 0.215480 0.094904 0.207235
Si Si7 0.714267 0.750000 0.706876
O O1 0.500000 0.170055 0.031760
O O2 0.776395 0.250000 0.042001
O O3 0.778428 0.107522 0.058132
O O4 0.778078 0.152250 0.990856
O O5 0.500000 0.033387 0.662188
O O6 0.276170 0.982456 0.615579
O O7 0.213137 0.971711 0.684490
O O8 0.213003 0.102336 0.646528
O O9 0.000000 0.966596 0.574709
O O10 0.275111 0.034955 0.551068
O O11 0.500000 0.826344 0.367178
O O12 0.213262 0.750000 0.365104
O O13 0.265711 0.842753 0.416966
O O14 0.000000 0.883630 0.455236
O O15 0.250000 0.087809 0.250000
O O16 0.283267 0.172876 0.194235
O O17 0.000000 0.096332 0.202541
O O18 0.500000 0.750000 0.701213
O O19 0.750000 0.750000 0.750000
#
# Coordination Sequence:
#
# PCOD9540744 Si02
#       7
#    16  16  16  16  16  16   8
#     4   9  16  26  41  61  86 114 146 184 223 262
#     4   9  18  32  47  65  90 118 145 174 215 264
#     4   9  17  29  44  62  85 114 149 183 217 260
#     4   9  17  29  45  65  89 116 146 181 219 259
#     4   9  16  27  45  65  83 109 147 190 228 259
#     4   9  17  30  49  70  91 114 142 176 212 253
#     4   8  14  26  44  66  88 108 134 170 208 242
#
# _framework density 20.102025000000001
#
# number of rings (size 3 to 8) (size 9 to 14) (size 15 to 20)
#    0.000    3.077    0.000    0.923    0.000    3.385 
#    1.385    0.769    0.000    5.077    0.000    0.000 
#    0.000    0.000    0.000    0.000    0.000    0.000 
#
# Total GULP energy -289915.383088 kJ/mol
# GULP energy per Si atom -5575.295829 kJ/mol
# Density = 2.005627 g / cm^3
# Si number density = 20.102025 Si / 1000 Ang^3
#
#
#
# Elastic Constant Matrix: (Units=GPa)
#
#
# Indices 1 2 3 4 5 6 
#
# 1 60.3320 9.4159 -2.5725 0.0000 0.0000 0.0000
# 2 9.4159 226.9919 80.0714 0.0000 0.0000 0.0000
# 3 -2.5725 80.0714 55.6360 0.0000 0.0000 0.0000
# 4 0.0000 0.0000 0.0000 10.9111 0.0000 0.0000
# 5 0.0000 0.0000 0.0000 0.0000 15.3468 0.0000
# 6 0.0000 0.0000 0.0000 0.0000 0.0000 3.4314
#
#
#
# Elastic Compliance Matrix: (Units=1/GPa)
#
#
# Indices 1 2 3 4 5 6 
#
# 1 0.017044 -0.002001 0.003667 0.000000 0.000000 0.000000
# 2 -0.002001 0.009183 -0.013309 0.000000 0.000000 0.000000
# 3 0.003667 -0.013309 0.037298 0.000000 0.000000 0.000000
# 4 0.000000 0.000000 0.000000 0.091649 0.000000 0.000000
# 5 0.000000 0.000000 0.000000 0.000000 0.065160 0.000000
# 6 0.000000 0.000000 0.000000 0.000000 0.000000 0.291430
#
#
# Mechanical properties :
#
#
# Convention : Reuss Voigt Hill
#
# Bulk Modulus (GPa) = 24.85080 57.42107 41.13593
# Shear Modulus (GPa) = 9.11641 23.00752 16.06196
#
# Velocity S-wave (km/s) = 2.13188 3.38677 2.82976
# Velocity P-wave (km/s) = 4.29524 6.62725 5.58433
#
# Compressibility (1/GPa) = 0.04024016
#
# Stress axis : x y z
#
# Youngs Moduli (GPa) = 58.67312 108.89506 26.81128
#
# Poissons Ratio (x) = 0.21786 -0.09833
# Poissons Ratio (y) = 0.11739 0.35683
# Poissons Ratio (z) = -0.21518 1.44927
#
# Static dielectric constant tensor:
#      x y z
#    x 1.767040 0.000000 0.000000 
#    y 0.000000 1.761210 0.000000 
#    z 0.000000 0.000000 1.656480 
# 
# From -- ./inp_files/66176.got.cif
#   From: 2010.05.17/outbox.cif.g08.bks.cpg/sg74_34_cif.got.tgz:66176.got - 2010.06.03 17:57:02.
