data_PCOD9540549
_publ_section_title
;
Structure prediction by ZEFSAII (Michael W. Deem and Ramdas Pophale) SiO2 
 PCOD9540549
Probable space group: I M M A
;
_chemical_formula_sum "Si O2"
_cell_formula_units_Z 64
_cell_length_a 17.744142
_cell_length_b 14.147277
_cell_length_c 12.063825
_cell_angle_alpha 90.000000
_cell_angle_beta 90.000000
_cell_angle_gamma 90.000000
_cell_volume 3028.397576
_symmetry_space_group_name_H-M "I M M A"
_symmetry_group_IT_number 74
_symmetry_cell_setting 'orthorhombic'
loop_
_space_group_symop_operation_xyz
x,y,z
-x,1/2-y,z
x,-y,-z
-x,1/2+y,-z
-x,-y,-z
x,1/2+y,-z
-x,y,z
x,1/2-y,z
1/2+x,1/2+y,1/2+z
1/2-x,-y,1/2+z
1/2+x,1/2-y,1/2-z
1/2-x,y,1/2-z
1/2-x,1/2-y,1/2-z
1/2+x,y,1/2-z
1/2-x,1/2+y,1/2+z
1/2+x,-y,1/2+z
loop_
_atom_site_type_symbol
_atom_site_label
_atom_site_fract_x
_atom_site_fract_y
_atom_site_fract_z
Si Si1 0.161786 0.068476 0.103971
Si Si2 0.000000 0.864592 0.224399
Si Si3 0.500000 0.138125 0.462962
Si Si4 0.684360 0.642826 0.965730
Si Si5 0.357701 0.468889 0.828031
O O1 0.232012 0.138562 0.087421
O O2 0.077105 0.108983 0.098294
O O3 0.174122 0.007843 0.213306
O O4 0.166549 0.000000 0.000000
O O5 0.929537 0.909525 0.288084
O O6 0.000000 0.750000 0.228525
O O7 0.000000 0.894627 0.093121
O O8 0.500000 0.250000 0.469776
O O9 0.656323 0.750000 0.963382
O O10 0.633852 0.566283 0.899049
O O11 0.687470 0.601100 0.090409
#
# Coordination Sequence:
#
# PCOD9540549 Si02
#       5
#    16   8   8  16  16
#     4  12  22  42  68 101 135 175 216 279 340 397
#     4  11  23  42  70 103 136 174 222 282 336 402
#     4  11  24  40  66 103 136 172 222 276 341 401
#     4  11  26  45  68 100 138 181 230 274 329 401
#     4  11  24  44  70  95 135 181 223 275 339 392
#
# _framework density 21.133289000000001
#
# number of rings (size 3 to 8) (size 9 to 14) (size 15 to 20)
#    0.000    0.750    5.000    3.375    0.000    5.000 
#    0.000    3.125    0.000    1.500    0.000    0.000 
#    0.000    0.000    0.000    0.000    0.000    0.000 
#
# Total GULP energy -178573.112664 kJ/mol
# GULP energy per Si atom -5580.409771 kJ/mol
# Density = 2.108519 g / cm^3
# Si number density = 21.133289 Si / 1000 Ang^3
#
#
#
# Elastic Constant Matrix: (Units=GPa)
#
#
# Indices 1 2 3 4 5 6 
#
# 1 126.7728 32.4895 41.9273 0.0000 0.0000 0.0000
# 2 32.4895 144.1981 45.5853 0.0000 0.0000 0.0000
# 3 41.9273 45.5853 141.8788 0.0000 0.0000 0.0000
# 4 0.0000 0.0000 0.0000 24.2832 0.0000 0.0000
# 5 0.0000 0.0000 0.0000 0.0000 31.2652 0.0000
# 6 0.0000 0.0000 0.0000 0.0000 0.0000 31.5540
#
#
#
# Elastic Compliance Matrix: (Units=1/GPa)
#
#
# Indices 1 2 3 4 5 6 
#
# 1 0.008961 -0.001316 -0.002226 0.000000 0.000000 0.000000
# 2 -0.001316 0.007912 -0.002153 0.000000 0.000000 0.000000
# 3 -0.002226 -0.002153 0.008398 0.000000 0.000000 0.000000
# 4 0.000000 0.000000 0.000000 0.041181 0.000000 0.000000
# 5 0.000000 0.000000 0.000000 0.000000 0.031984 0.000000
# 6 0.000000 0.000000 0.000000 0.000000 0.000000 0.031692
#
#
# Mechanical properties :
#
#
# Convention : Reuss Voigt Hill
#
# Bulk Modulus (GPa) = 72.03396 72.53932 72.28664
# Shear Modulus (GPa) = 34.21274 36.94364 35.57819
#
# Velocity S-wave (km/s) = 4.02792 4.18560 4.10752
# Velocity P-wave (km/s) = 7.46939 7.59988 7.53492
#
# Compressibility (1/GPa) = 0.01388234
#
# Stress axis : x y z
#
# Youngs Moduli (GPa) = 111.59067 126.38952 119.07859
#
# Poissons Ratio (x) = 0.16627 0.26501
# Poissons Ratio (y) = 0.14680 0.25642
# Poissons Ratio (z) = 0.24835 0.27216
#
# Static dielectric constant tensor:
#      x y z
#    x 1.866880 0.000000 0.000000 
#    y 0.000000 1.739650 0.000000 
#    z 0.000000 0.000000 1.833290 
# 
# From -- ./inp_files/19990.got.cif
#   From: 2010.05.17/outbox.cif.g08.bks.cpg/sg74_10_cif.got.tgz:19990.got - 2010.06.03 17:57:02.
