data_PCOD9540866
_publ_section_title
;
Structure prediction by ZEFSAII (Michael W. Deem and Ramdas Pophale) SiO2 
 PCOD9540866
Probable space group: I M M A
;
_chemical_formula_sum "Si O2"
_cell_formula_units_Z 40
_cell_length_a 9.000000
_cell_length_b 18.000000
_cell_length_c 27.000000
_cell_angle_alpha 90.000000
_cell_angle_beta 90.000000
_cell_angle_gamma 90.000000
_cell_volume 4374.000000
_symmetry_space_group_name_H-M "I M M A"
_symmetry_group_IT_number 74
_symmetry_cell_setting 'orthorhombic'
loop_
_space_group_symop_operation_xyz
x,y,z
-x,1/2-y,z
x,-y,-z
-x,1/2+y,-z
-x,-y,-z
x,1/2+y,-z
-x,y,z
x,1/2-y,z
1/2+x,1/2+y,1/2+z
1/2-x,-y,1/2+z
1/2+x,1/2-y,1/2-z
1/2-x,y,1/2-z
1/2-x,1/2-y,1/2-z
1/2+x,y,1/2-z
1/2-x,1/2+y,1/2+z
1/2+x,-y,1/2+z
loop_
_atom_site_type_symbol
_atom_site_label
_atom_site_fract_x
_atom_site_fract_y
_atom_site_fract_z
Si Si1 0.681375 0.835789 0.896068
Si Si2 0.828259 0.340711 0.504648
Si Si3 0.178083 0.573706 0.699380
Si Si4 0.324133 0.101450 0.800417
Si Si5 0.667330 0.339298 0.603429
O O1 0.500000 0.836687 0.897332
O O2 0.726494 0.750000 0.889920
O O3 0.730374 0.884080 0.849637
O O4 0.728502 0.863629 0.950403
O O5 0.827234 0.250000 0.503765
O O6 0.735776 0.366543 0.551709
O O7 0.000000 0.363425 0.510575
O O8 0.250000 0.602397 0.750000
O O9 0.212124 0.486250 0.695421
O O10 0.000000 0.581488 0.702663
O O11 0.500000 0.109710 0.796572
O O12 0.250000 0.130271 0.750000
O O13 0.264660 0.139463 0.849592
O O14 0.500000 0.366823 0.610338
O O15 0.663693 0.250000 0.600269
#
# Coordination Sequence:
#
# PCOD9540866 Si02
#       5
#    16  16  16  16  16
#     4   8  14  27  49  74  98 125 159 197 232 270
#     4   8  14  27  48  71  94 123 157 191 230 275
#     4   9  18  32  49  70  96 127 161 195 234 278
#     4  10  20  34  51  69  93 126 160 194 233 279
#     4  10  20  33  50  72  96 121 152 193 238 283
#
# _framework density 9.1449470000000002
#
# number of rings (size 3 to 8) (size 9 to 14) (size 15 to 20)
#    0.000    3.000    0.000    2.400    0.000    2.800 
#    0.000    2.000    0.000    7.200    0.000    0.000 
#    0.000    0.000    0.000    0.000    0.000    0.000 
#
# Total GULP energy -222865.792202 kJ/mol
# GULP energy per Si atom -5571.644805 kJ/mol
# Density = 0.912413 g / cm^3
# Si number density = 9.144947 Si / 1000 Ang^3
#
#
#
# Elastic Constant Matrix: (Units=GPa)
#
#
# Indices 1 2 3 4 5 6 
#
# 1 17.2506 19.9081 36.9047 0.0000 0.0000 0.0000
# 2 19.9081 5.1640 28.1643 0.0000 0.0000 0.0000
# 3 36.9047 28.1643 162.7850 0.0000 0.0000 0.0000
# 4 0.0000 0.0000 0.0000 44.8291 0.0000 0.0000
# 5 0.0000 0.0000 0.0000 0.0000 31.4990 0.0000
# 6 0.0000 0.0000 0.0000 0.0000 0.0000 8.7460
#
#
#
# Elastic Compliance Matrix: (Units=1/GPa)
#
#
# Indices 1 2 3 4 5 6 
#
# 1 -0.001615 0.075009 -0.012612 0.000000 0.000000 0.000000
# 2 0.075009 -0.049277 -0.008479 0.000000 0.000000 0.000000
# 3 -0.012612 -0.008479 0.010469 0.000000 0.000000 0.000000
# 4 0.000000 0.000000 0.000000 0.022307 0.000000 0.000000
# 5 0.000000 0.000000 0.000000 0.000000 0.031747 0.000000
# 6 0.000000 0.000000 0.000000 0.000000 0.000000 0.114338
#
#
# Mechanical properties :
#
#
# Convention : Reuss Voigt Hill
#
# Bulk Modulus (GPa) = 14.83398 39.46154 27.14776
# Shear Modulus (GPa) = 117.36044 23.69632 70.52838
#
# Velocity S-wave (km/s) = 8.01911 3.60334 6.21652
# Velocity P-wave (km/s) = 9.68863 6.23976 8.14875
#
# Compressibility (1/GPa) = 0.06741280
#
# Stress axis : x y z
#
# Youngs Moduli (GPa) = -619.15970 -20.29336 95.51761
#
# Poissons Ratio (x) = 1.52218 1.20462
# Poissons Ratio (y) = 46.44245 0.80994
# Poissons Ratio (z) = -7.80854 -0.17208
#
# Static dielectric constant tensor:
#      x y z
#    x 1.624860 0.000000 0.000000 
#    y 0.000000 1.625360 0.000000 
#    z 0.000000 0.000000 1.629140 
# 
# From -- ./inp_files/63953.got.cif
#   From: 2010.05.17/outbox.ucp.g08.bks.cvg/sg74_32_cif.got.tgz:63953.got - 2010.06.11 16:37:44.
