data_PCOD9540367
_publ_section_title
;
Structure prediction by ZEFSAII (Michael W. Deem and Ramdas Pophale) SiO2 
 PCOD9540367
Probable space group: I M M A
;
_chemical_formula_sum "Si O2"
_cell_formula_units_Z 64
_cell_length_a 16.122448
_cell_length_b 21.730394
_cell_length_c 9.206669
_cell_angle_alpha 90.000000
_cell_angle_beta 90.000000
_cell_angle_gamma 90.000000
_cell_volume 3225.530220
_symmetry_space_group_name_H-M "I M M A"
_symmetry_group_IT_number 74
_symmetry_cell_setting 'orthorhombic'
loop_
_space_group_symop_operation_xyz
x,y,z
-x,1/2-y,z
x,-y,-z
-x,1/2+y,-z
-x,-y,-z
x,1/2+y,-z
-x,y,z
x,1/2-y,z
1/2+x,1/2+y,1/2+z
1/2-x,-y,1/2+z
1/2+x,1/2-y,1/2-z
1/2-x,y,1/2-z
1/2-x,1/2-y,1/2-z
1/2+x,y,1/2-z
1/2-x,1/2+y,1/2+z
1/2+x,-y,1/2+z
loop_
_atom_site_type_symbol
_atom_site_label
_atom_site_fract_x
_atom_site_fract_y
_atom_site_fract_z
Si Si1 0.179535 0.549847 0.123975
Si Si2 0.500000 0.407306 0.043872
Si Si3 0.000000 0.484278 0.749525
Si Si4 0.322046 0.679558 0.536045
Si Si5 0.632299 0.818575 0.858430
O O1 0.250000 0.547326 0.250000
O O2 0.086671 0.530042 0.172019
O O3 0.204811 0.500000 0.000000
O O4 0.170948 0.620341 0.066858
O O5 0.500000 0.446533 0.191200
O O6 0.418845 0.366241 0.049898
O O7 0.500000 0.445929 0.899074
O O8 0.340297 0.750000 0.481974
O O9 0.372460 0.669274 0.685743
O O10 0.227005 0.680251 0.590476
O O11 0.600328 0.750000 0.882296
#
# Coordination Sequence:
#
# PCOD9540367 Si02
#       5
#    16   8   8  16  16
#     4  12  27  43  68  95 132 174 223 270 344 398
#     4  11  21  38  63  84 131 159 217 263 324 392
#     4  11  27  42  59  94 130 174 213 275 331 392
#     4   9  20  39  63  91 128 167 216 266 322 389
#     4   9  18  35  63  94 120 163 212 264 317 384
#
# _framework density 19.841698999999998
#
# number of rings (size 3 to 8) (size 9 to 14) (size 15 to 20)
#    0.000    1.750    0.000    5.250   10.500    1.500 
#    0.000    4.375    0.000    0.000    0.000    0.000 
#    0.000    0.000    0.000    0.000    0.000    0.000 
#
# Total GULP energy -178500.998085 kJ/mol
# GULP energy per Si atom -5578.156190 kJ/mol
# Density = 1.979654 g / cm^3
# Si number density = 19.841699 Si / 1000 Ang^3
#
#
#
# Elastic Constant Matrix: (Units=GPa)
#
#
# Indices 1 2 3 4 5 6 
#
# 1 50.3706 5.3862 14.3882 0.0000 0.0000 0.0000
# 2 5.3862 91.6616 42.8140 0.0000 0.0000 0.0000
# 3 14.3882 42.8140 61.2034 0.0000 0.0000 0.0000
# 4 0.0000 0.0000 0.0000 31.8141 0.0000 0.0000
# 5 0.0000 0.0000 0.0000 0.0000 22.4397 0.0000
# 6 0.0000 0.0000 0.0000 0.0000 0.0000 28.3603
#
#
#
# Elastic Compliance Matrix: (Units=1/GPa)
#
#
# Indices 1 2 3 4 5 6 
#
# 1 0.021444 0.001626 -0.006179 0.000000 0.000000 0.000000
# 2 0.001626 0.016328 -0.011804 0.000000 0.000000 0.000000
# 3 -0.006179 -0.011804 0.026049 0.000000 0.000000 0.000000
# 4 0.000000 0.000000 0.000000 0.031433 0.000000 0.000000
# 5 0.000000 0.000000 0.000000 0.000000 0.044564 0.000000
# 6 0.000000 0.000000 0.000000 0.000000 0.000000 0.035261
#
#
# Mechanical properties :
#
#
# Convention : Reuss Voigt Hill
#
# Bulk Modulus (GPa) = 32.14718 36.49026 34.31872
# Shear Modulus (GPa) = 22.91899 25.89930 24.40915
#
# Velocity S-wave (km/s) = 3.40235 3.61681 3.51122
# Velocity P-wave (km/s) = 5.62776 5.98935 5.81137
#
# Compressibility (1/GPa) = 0.03110692
#
# Stress axis : x y z
#
# Youngs Moduli (GPa) = 46.63334 61.24580 38.38957
#
# Poissons Ratio (x) = -0.09957 0.23719
# Poissons Ratio (y) = -0.07582 0.45315
# Poissons Ratio (z) = 0.28812 0.72294
#
# Static dielectric constant tensor:
#      x y z
#    x 1.705560 0.000000 0.000000 
#    y 0.000000 1.711960 0.000000 
#    z 0.000000 0.000000 1.697740 
# 
# From -- ./inp_files/8851.got.cif
#   From: 2010.05.17/outbox.cif.g08.bks.cpg/sg74_5_cif.got.tgz:8851.got - 2010.06.03 17:57:02.
