data_PCOD9540710
_publ_section_title
;
Structure prediction by ZEFSAII (Michael W. Deem and Ramdas Pophale) SiO2 
 PCOD9540710
Probable space group: I M M A
;
_chemical_formula_sum "Si O2"
_cell_formula_units_Z 112
_cell_length_a 23.559510
_cell_length_b 7.322785
_cell_length_c 30.004109
_cell_angle_alpha 90.000000
_cell_angle_beta 90.000000
_cell_angle_gamma 90.000000
_cell_volume 5176.345683
_symmetry_space_group_name_H-M "I M M A"
_symmetry_group_IT_number 74
_symmetry_cell_setting 'orthorhombic'
loop_
_space_group_symop_operation_xyz
x,y,z
-x,1/2-y,z
x,-y,-z
-x,1/2+y,-z
-x,-y,-z
x,1/2+y,-z
-x,y,z
x,1/2-y,z
1/2+x,1/2+y,1/2+z
1/2-x,-y,1/2+z
1/2+x,1/2-y,1/2-z
1/2-x,y,1/2-z
1/2-x,1/2-y,1/2-z
1/2+x,y,1/2-z
1/2-x,1/2+y,1/2+z
1/2+x,-y,1/2+z
loop_
_atom_site_type_symbol
_atom_site_label
_atom_site_fract_x
_atom_site_fract_y
_atom_site_fract_z
Si Si1 0.759275 0.027217 0.137678
Si Si2 0.935127 0.532256 0.550309
Si Si3 0.628577 0.471966 0.314351
Si Si4 0.130354 0.473138 0.362468
Si Si5 0.676007 0.533062 0.550361
Si Si6 0.063880 0.027673 0.095666
Si Si7 0.934915 0.972804 0.725944
O O1 0.758609 0.250000 0.138389
O O2 0.807608 0.970600 0.172886
O O3 0.695088 0.967411 0.144769
O O4 0.782193 0.967439 0.089150
O O5 0.914119 0.500000 0.500000
O O6 0.938455 0.750000 0.555667
O O7 0.895732 0.465595 0.590387
O O8 0.000000 0.461515 0.553370
O O9 0.629009 0.250000 0.313703
O O10 0.587605 0.523569 0.355488
O O11 0.603474 0.532955 0.267470
O O12 0.130839 0.250000 0.362975
O O13 0.091161 0.528993 0.321223
O O14 0.693682 0.500000 0.500000
O O15 0.673861 0.750000 0.556258
O O16 0.612200 0.466144 0.561008
O O17 0.062275 0.250000 0.094746
O O18 0.000000 0.963767 0.087727
O O19 0.934842 0.750000 0.726402
O O20 0.000000 0.030375 0.731142
#
# Coordination Sequence:
#
# PCOD9540710 Si02
#       7
#    16  16  16  16  16  16  16
#     4   8  15  26  37  51  73 103 135 164 199 242
#     4   9  17  29  44  61  82 109 139 170 205 244
#     4   8  13  21  33  50  74 104 136 164 191 234
#     4   9  16  25  37  54  78 105 132 165 204 242
#     4   9  17  28  41  57  78 104 135 170 204 238
#     4   8  13  22  36  53  75 104 134 163 198 240
#     4   9  15  21  32  52  77 105 134 163 198 240
#
# _framework density 21.636886000000001
#
# number of rings (size 3 to 8) (size 9 to 14) (size 15 to 20)
#    0.000    3.429    0.000    2.571    0.000    4.857 
#    0.000    2.857    0.000    0.000    0.000    0.000 
#    0.000    4.571    0.000   10.143    0.000    9.714 
#
# Total GULP energy -312507.341022 kJ/mol
# GULP energy per Si atom -5580.488233 kJ/mol
# Density = 2.158764 g / cm^3
# Si number density = 21.636886 Si / 1000 Ang^3
#
#
#
# Elastic Constant Matrix: (Units=GPa)
#
#
# Indices 1 2 3 4 5 6 
#
# 1 146.8060 3.5310 93.5616 0.0000 0.0000 0.0000
# 2 3.5310 83.9876 -1.8112 0.0000 0.0000 0.0000
# 3 93.5616 -1.8112 162.5986 0.0000 0.0000 0.0000
# 4 0.0000 0.0000 0.0000 5.3715 0.0000 0.0000
# 5 0.0000 0.0000 0.0000 0.0000 22.0742 0.0000
# 6 0.0000 0.0000 0.0000 0.0000 0.0000 -16.2961
#
#
#
# Elastic Compliance Matrix: (Units=1/GPa)
#
#
# Indices 1 2 3 4 5 6 
#
# 1 0.010785 -0.000587 -0.006212 0.000000 0.000000 0.000000
# 2 -0.000587 0.011941 0.000471 0.000000 0.000000 0.000000
# 3 -0.006212 0.000471 0.009730 0.000000 0.000000 0.000000
# 4 0.000000 0.000000 0.000000 0.186166 0.000000 0.000000
# 5 0.000000 0.000000 0.000000 0.000000 0.045302 0.000000
# 6 0.000000 0.000000 0.000000 0.000000 0.000000 -0.061365
#
#
# Mechanical properties :
#
#
# Convention : Reuss Voigt Hill
#
# Bulk Modulus (GPa) = 50.50786 64.88389 57.69587
# Shear Modulus (GPa) = 22.54106 22.10398 22.32252
#
# Velocity S-wave (km/s) = 3.23118 3.19970 3.21547
# Velocity P-wave (km/s) = 6.10858 6.61086 6.36468
#
# Compressibility (1/GPa) = 0.01979890
#
# Stress axis : x y z
#
# Youngs Moduli (GPa) = 92.72023 83.74248 102.77382
#
# Poissons Ratio (x) = 0.04919 0.63848
# Poissons Ratio (y) = 0.05446 -0.04841
# Poissons Ratio (z) = 0.57602 -0.03944
#
# Static dielectric constant tensor:
#      x y z
#    x 1.749980 0.000000 0.000000 
#    y 0.000000 1.902190 0.000000 
#    z 0.000000 0.000000 1.751570 
# 
# From -- ./inp_files/59268.got.cif
#   From: 2010.05.17/outbox.cif.g08.bks.cpg/sg74_30_cif.got.tgz:59268.got - 2010.06.03 17:57:02.
