data_PCOD9540220
_publ_section_title
;
Structure prediction by ZEFSAII (Michael W. Deem and Ramdas Pophale) SiO2 
 PCOD9540220
Probable space group: I M M A
;
_chemical_formula_sum "Si O2"
_cell_formula_units_Z 116
_cell_length_a 7.800516
_cell_length_b 27.616003
_cell_length_c 27.594921
_cell_angle_alpha 90.000000
_cell_angle_beta 90.000000
_cell_angle_gamma 90.000000
_cell_volume 5944.472308
_symmetry_space_group_name_H-M "I M M A"
_symmetry_group_IT_number 74
_symmetry_cell_setting 'orthorhombic'
loop_
_space_group_symop_operation_xyz
x,y,z
-x,1/2-y,z
x,-y,-z
-x,1/2+y,-z
-x,-y,-z
x,1/2+y,-z
-x,y,z
x,1/2-y,z
1/2+x,1/2+y,1/2+z
1/2-x,-y,1/2+z
1/2+x,1/2-y,1/2-z
1/2-x,y,1/2-z
1/2-x,1/2-y,1/2-z
1/2+x,y,1/2-z
1/2-x,1/2+y,1/2+z
1/2+x,-y,1/2+z
loop_
_atom_site_type_symbol
_atom_site_label
_atom_site_fract_x
_atom_site_fract_y
_atom_site_fract_z
Si Si1 0.303764 0.325772 0.816457
Si Si2 0.199125 0.805154 0.077060
Si Si3 0.705392 0.461475 0.197449
Si Si4 0.293867 0.432837 0.831870
Si Si5 0.793396 0.067595 0.406425
Si Si6 0.696053 0.959752 0.437311
Si Si7 0.500000 0.750000 0.292825
Si Si8 0.304893 0.121924 0.004427
O O1 0.500000 0.313120 0.801225
O O2 0.300867 0.321203 0.875284
O O3 0.262007 0.381953 0.806375
O O4 0.154152 0.291581 0.797474
O O5 0.248076 0.750000 0.064957
O O6 0.000000 0.804848 0.092141
O O7 0.217517 0.839916 0.031161
O O8 0.500000 0.462482 0.194066
O O9 0.750000 0.441432 0.250000
O O10 0.765721 0.517586 0.193518
O O11 0.768926 0.434082 0.149195
O O12 0.500000 0.436031 0.838467
O O13 0.212722 0.433863 0.885225
O O14 0.728038 0.108639 0.443152
O O15 0.000000 0.072093 0.405933
O O16 0.752100 0.014643 0.428101
O O17 0.500000 0.958654 0.453646
O O18 0.802685 0.928880 0.475325
O O19 0.500000 0.138484 0.010500
#
# Coordination Sequence:
#
# PCOD9540220 Si02
#       8
#    16  16  16  16  16  16   4  16
#     4  11  20  33  50  69 100 136 170 215 264 308
#     4  11  21  34  47  68 100 134 174 219 253 291
#     4   9  18  35  54  75  99 124 158 204 254 308
#     4   9  19  33  49  69  98 131 165 201 250 309
#     4   9  20  36  49  66  98 133 166 200 242 305
#     4  11  20  28  45  69  98 129 164 205 245 287
#     4  12  22  32  48  74 102 126 180 224 262 296
#     4  11  21  32  48  67  94 137 175 203 244 294
#
# _framework density 19.513926999999999
#
# number of rings (size 3 to 8) (size 9 to 14) (size 15 to 20)
#    0.000    1.793    2.759    3.517    0.966    5.793 
#    0.000    0.000    0.000    0.000    0.000    0.483 
#    0.000    0.552    0.000    1.241    0.000    2.207 
#
# Total GULP energy -323484.166543 kJ/mol
# GULP energy per Si atom -5577.313216 kJ/mol
# Density = 1.946951 g / cm^3
# Si number density = 19.513927 Si / 1000 Ang^3
#
#
#
# Elastic Constant Matrix: (Units=GPa)
#
#
# Indices 1 2 3 4 5 6 
#
# 1 60.7216 17.9366 21.7630 0.0000 0.0000 0.0000
# 2 17.9366 49.7378 52.9336 0.0000 0.0000 0.0000
# 3 21.7630 52.9336 124.9084 0.0000 0.0000 0.0000
# 4 0.0000 0.0000 0.0000 -14.7634 0.0000 0.0000
# 5 0.0000 0.0000 0.0000 0.0000 20.1556 0.0000
# 6 0.0000 0.0000 0.0000 0.0000 0.0000 19.5528
#
#
#
# Elastic Compliance Matrix: (Units=1/GPa)
#
#
# Indices 1 2 3 4 5 6 
#
# 1 0.018468 -0.005893 -0.000720 0.000000 0.000000 0.000000
# 2 -0.005893 0.038503 -0.015290 0.000000 0.000000 0.000000
# 3 -0.000720 -0.015290 0.014611 0.000000 0.000000 0.000000
# 4 0.000000 0.000000 0.000000 -0.067735 0.000000 0.000000
# 5 0.000000 0.000000 0.000000 0.000000 0.049614 0.000000
# 6 0.000000 0.000000 0.000000 0.000000 0.000000 0.051144
#
#
# Mechanical properties :
#
#
# Convention : Reuss Voigt Hill
#
# Bulk Modulus (GPa) = 36.00423 46.73712 41.37067
# Shear Modulus (GPa) = 31.71191 14.50464 23.10827
#
# Velocity S-wave (km/s) = 4.03562 2.72930 3.44495
# Velocity P-wave (km/s) = 6.34078 5.82536 6.08853
#
# Compressibility (1/GPa) = 0.02777452
#
# Stress axis : x y z
#
# Youngs Moduli (GPa) = 54.14898 25.97191 68.44197
#
# Poissons Ratio (x) = 0.15306 0.04929
# Poissons Ratio (y) = 0.31912 1.04648
# Poissons Ratio (z) = 0.03899 0.39711
#
# Static dielectric constant tensor:
#      x y z
#    x 1.696980 0.000000 0.000000 
#    y 0.000000 1.674380 0.000000 
#    z 0.000000 0.000000 1.748090 
# 
# From -- ./inp_files/65317.got.cif
#   From: 2010.05.17/outbox.cif.g08.bks.cpg/sg74_33_cif.got.tgz:65317.got - 2010.06.03 17:57:02.
