data_PCOD9540876
_publ_section_title
;
Structure prediction by ZEFSAII (Michael W. Deem and Ramdas Pophale) SiO2 
 PCOD9540876
Probable space group: I M M A
;
_chemical_formula_sum "Si O2"
_cell_formula_units_Z 50
_cell_length_a 18.000000
_cell_length_b 15.000000
_cell_length_c 21.000000
_cell_angle_alpha 90.000000
_cell_angle_beta 90.000000
_cell_angle_gamma 90.000000
_cell_volume 5670.000000
_symmetry_space_group_name_H-M "I M M A"
_symmetry_group_IT_number 74
_symmetry_cell_setting 'orthorhombic'
loop_
_space_group_symop_operation_xyz
x,y,z
-x,1/2-y,z
x,-y,-z
-x,1/2+y,-z
-x,-y,-z
x,1/2+y,-z
-x,y,z
x,1/2-y,z
1/2+x,1/2+y,1/2+z
1/2-x,-y,1/2+z
1/2+x,1/2-y,1/2-z
1/2-x,y,1/2-z
1/2-x,1/2-y,1/2-z
1/2+x,y,1/2-z
1/2-x,1/2+y,1/2+z
1/2+x,-y,1/2+z
loop_
_atom_site_type_symbol
_atom_site_label
_atom_site_fract_x
_atom_site_fract_y
_atom_site_fract_z
Si Si1 0.367266 0.644731 0.018661
Si Si2 0.688871 0.648481 0.873947
Si Si3 0.836781 0.535738 0.858294
Si Si4 0.586901 0.853361 0.531742
Si Si5 0.500000 0.000000 0.000000
Si Si6 0.088790 0.146513 0.251766
Si Si7 0.205964 0.645955 0.083559
O O1 0.388109 0.750000 0.030850
O O2 0.290448 0.626947 0.058400
O O3 0.343277 0.639911 0.944517
O O4 0.433587 0.572519 0.024199
O O5 0.717359 0.750000 0.866810
O O6 0.756598 0.582363 0.863562
O O7 0.625035 0.635882 0.821360
O O8 0.887389 0.576356 0.915159
O O9 0.874870 0.573729 0.794626
O O10 0.821720 0.430465 0.867742
O O11 0.500000 0.867911 0.513599
O O12 0.591573 0.750000 0.555423
O O13 0.646713 0.860147 0.474765
O O14 0.104502 0.250000 0.231312
O O15 0.000000 0.136576 0.253605
O O16 0.204518 0.750000 0.105252
#
# Coordination Sequence:
#
# PCOD9540876 Si02
#       7
#    16  16  16  16   4  16  16
#     4  10  21  37  56  83 120 155 188 234 293 353
#     4  10  20  35  57  82 114 152 184 226 286 356
#     4  12  20  32  57  82 110 149 194 236 281 339
#     4  10  20  33  52  81 117 152 186 229 287 350
#     4  12  22  32  56  90 114 148 194 244 286 350
#     4  10  22  37  54  82 118 151 187 235 292 350
#     4  10  22  39  55  79 117 156 193 238 290 342
#
# _framework density 8.8183419999999995
#
# number of rings (size 3 to 8) (size 9 to 14) (size 15 to 20)
#    0.000    1.600    1.600    4.080    1.120    4.480 
#    0.000    0.000    0.000    1.920    0.000    0.000 
#    0.000    0.000    0.000    0.000    0.000    0.000 
#
# Total GULP energy -278507.510932 kJ/mol
# GULP energy per Si atom -5570.150219 kJ/mol
# Density = 0.879827 g / cm^3
# Si number density = 8.818342 Si / 1000 Ang^3
#
#
#
# Elastic Constant Matrix: (Units=GPa)
#
#
# Indices 1 2 3 4 5 6 
#
# 1 116.0398 46.1171 10.5105 0.0000 0.0000 0.0000
# 2 46.1171 108.8453 23.7470 0.0000 0.0000 0.0000
# 3 10.5105 23.7470 41.5720 0.0000 0.0000 0.0000
# 4 0.0000 0.0000 0.0000 20.9842 0.0000 0.0000
# 5 0.0000 0.0000 0.0000 0.0000 16.6992 0.0000
# 6 0.0000 0.0000 0.0000 0.0000 0.0000 33.8178
#
#
#
# Elastic Compliance Matrix: (Units=1/GPa)
#
#
# Indices 1 2 3 4 5 6 
#
# 1 0.010363 -0.004363 -0.000128 0.000000 0.000000 0.000000
# 2 -0.004363 0.012332 -0.005941 0.000000 0.000000 0.000000
# 3 -0.000128 -0.005941 0.027481 0.000000 0.000000 0.000000
# 4 0.000000 0.000000 0.000000 0.047655 0.000000 0.000000
# 5 0.000000 0.000000 0.000000 0.000000 0.059883 0.000000
# 6 0.000000 0.000000 0.000000 0.000000 0.000000 0.029570
#
#
# Mechanical properties :
#
#
# Convention : Reuss Voigt Hill
#
# Bulk Modulus (GPa) = 34.11591 47.46739 40.79165
# Shear Modulus (GPa) = 22.94426 26.70575 24.82501
#
# Velocity S-wave (km/s) = 3.61077 3.89551 3.75584
# Velocity P-wave (km/s) = 6.06376 6.87065 6.47978
#
# Compressibility (1/GPa) = 0.02931183
#
# Stress axis : x y z
#
# Youngs Moduli (GPa) = 96.49475 81.08886 36.38900
#
# Poissons Ratio (x) = 0.35379 0.00465
# Poissons Ratio (y) = 0.42100 0.21620
# Poissons Ratio (z) = 0.01234 0.48178
#
# Static dielectric constant tensor:
#      x y z
#    x 1.596160 0.000000 0.000000 
#    y 0.000000 1.632540 0.000000 
#    z 0.000000 0.000000 1.600490 
# 
# From -- ./inp_files/53103.got.cif
#   From: 2010.05.17/outbox.ucp.g08.bks.cvg/sg74_27_cif.got.tgz:53103.got - 2010.06.11 16:37:44.
