data_PCOD9540812
_publ_section_title
;
Structure prediction by ZEFSAII (Michael W. Deem and Ramdas Pophale) SiO2 
 PCOD9540812
Probable space group: I M M A
;
_chemical_formula_sum "Si O2"
_cell_formula_units_Z 48
_cell_length_a 9.000000
_cell_length_b 24.000000
_cell_length_c 27.000000
_cell_angle_alpha 90.000000
_cell_angle_beta 90.000000
_cell_angle_gamma 90.000000
_cell_volume 5832.000000
_symmetry_space_group_name_H-M "I M M A"
_symmetry_group_IT_number 74
_symmetry_cell_setting 'orthorhombic'
loop_
_space_group_symop_operation_xyz
x,y,z
-x,1/2-y,z
x,-y,-z
-x,1/2+y,-z
-x,-y,-z
x,1/2+y,-z
-x,y,z
x,1/2-y,z
1/2+x,1/2+y,1/2+z
1/2-x,-y,1/2+z
1/2+x,1/2-y,1/2-z
1/2-x,y,1/2-z
1/2-x,1/2-y,1/2-z
1/2+x,y,1/2-z
1/2-x,1/2+y,1/2+z
1/2+x,-y,1/2+z
loop_
_atom_site_type_symbol
_atom_site_label
_atom_site_fract_x
_atom_site_fract_y
_atom_site_fract_z
Si Si1 0.674785 0.316784 0.303321
Si Si2 0.821837 0.578758 0.139662
Si Si3 0.168087 0.102114 0.379269
Si Si4 0.820720 0.010524 0.057045
Si Si5 0.179378 0.314394 0.803600
Si Si6 0.665273 0.991313 0.795397
O O1 0.500000 0.330926 0.300573
O O2 0.689441 0.250000 0.310032
O O3 0.750000 0.329982 0.250000
O O4 0.747934 0.348759 0.349863
O O5 0.773236 0.542775 0.091282
O O6 0.775579 0.641855 0.153337
O O7 0.761142 0.542547 0.185178
O O8 0.000000 0.578231 0.138398
O O9 0.000000 0.118665 0.393518
O O10 0.252466 0.068545 0.422736
O O11 0.157043 0.053763 0.338176
O O12 0.000000 0.014558 0.060914
O O13 0.780997 0.000000 0.000000
O O14 0.219138 0.250000 0.814834
O O15 0.250000 0.328462 0.750000
O O16 0.000000 0.317320 0.798814
O O17 0.500000 0.009315 0.781713
O O18 0.750000 0.964661 0.750000
#
# Coordination Sequence:
#
# PCOD9540812 Si02
#       6
#    16  16  16  16  16  16
#     4  10  20  33  50  73 102 135 168 200 235 281
#     4   9  17  29  45  64  86 115 150 186 227 274
#     4  10  20  32  48  70  95 125 160 198 240 287
#     4   9  18  33  52  71  92 120 155 199 249 295
#     4   9  17  28  42  62  89 119 149 179 212 256
#     4  10  19  28  40  62  91 120 149 183 225 272
#
# _framework density 8.2304530000000007
#
# number of rings (size 3 to 8) (size 9 to 14) (size 15 to 20)
#    0.000    2.500    0.000    2.500    0.000    6.667 
#    0.000    0.000    0.000    1.000    0.000    4.667 
#    0.000    0.000    0.000    0.000    0.000    0.000 
#
# Total GULP energy -267207.036563 kJ/mol
# GULP energy per Si atom -5566.813262 kJ/mol
# Density = 0.821172 g / cm^3
# Si number density = 8.230453 Si / 1000 Ang^3
#
#
#
# Elastic Constant Matrix: (Units=GPa)
#
#
# Indices 1 2 3 4 5 6 
#
# 1 37.8510 33.9433 45.3087 0.0000 0.0000 0.0000
# 2 33.9433 89.4463 40.3841 0.0000 0.0000 0.0000
# 3 45.3087 40.3841 89.9056 0.0000 0.0000 0.0000
# 4 0.0000 0.0000 0.0000 27.0918 0.0000 0.0000
# 5 0.0000 0.0000 0.0000 0.0000 19.7392 0.0000
# 6 0.0000 0.0000 0.0000 0.0000 0.0000 -48.3494
#
#
#
# Elastic Compliance Matrix: (Units=1/GPa)
#
#
# Indices 1 2 3 4 5 6 
#
# 1 0.080472 -0.015338 -0.033665 0.000000 0.000000 0.000000
# 2 -0.015338 0.016948 0.000117 0.000000 0.000000 0.000000
# 3 -0.033665 0.000117 0.028036 0.000000 0.000000 0.000000
# 4 0.000000 0.000000 0.000000 0.036911 0.000000 0.000000
# 5 0.000000 0.000000 0.000000 0.000000 0.050661 0.000000
# 6 0.000000 0.000000 0.000000 0.000000 0.000000 -0.020683
#
#
# Mechanical properties :
#
#
# Convention : Reuss Voigt Hill
#
# Bulk Modulus (GPa) = 36.12251 50.71945 43.42098
# Shear Modulus (GPa) = 16.70322 6.20080 11.45201
#
# Velocity S-wave (km/s) = 3.18892 1.94298 2.64049
# Velocity P-wave (km/s) = 5.96247 5.99270 5.97761
#
# Compressibility (1/GPa) = 0.02768357
#
# Stress axis : x y z
#
# Youngs Moduli (GPa) = 12.42673 59.00570 35.66881
#
# Poissons Ratio (x) = 0.90505 1.20078
# Poissons Ratio (y) = 0.19060 -0.00418
# Poissons Ratio (z) = 0.41834 -0.00692
#
# Static dielectric constant tensor:
#      x y z
#    x 1.585430 0.000000 0.000000 
#    y 0.000000 1.569870 0.000000 
#    z 0.000000 0.000000 1.553180 
# 
# From -- ./inp_files/64311.got.cif
#   From: 2010.05.17/outbox.ucp.g08.bks.cvg/sg74_33_cif.got.tgz:64311.got - 2010.06.11 16:37:44.
