data_PCOD9540794
_publ_section_title
;
Structure prediction by ZEFSAII (Michael W. Deem and Ramdas Pophale) SiO2 
 PCOD9540794
Probable space group: I M M A
;
_chemical_formula_sum "Si O2"
_cell_formula_units_Z 40
_cell_length_a 27.000000
_cell_length_b 9.000000
_cell_length_c 18.000000
_cell_angle_alpha 90.000000
_cell_angle_beta 90.000000
_cell_angle_gamma 90.000000
_cell_volume 4374.000000
_symmetry_space_group_name_H-M "I M M A"
_symmetry_group_IT_number 74
_symmetry_cell_setting 'orthorhombic'
loop_
_space_group_symop_operation_xyz
x,y,z
-x,1/2-y,z
x,-y,-z
-x,1/2+y,-z
-x,-y,-z
x,1/2+y,-z
-x,y,z
x,1/2-y,z
1/2+x,1/2+y,1/2+z
1/2-x,-y,1/2+z
1/2+x,1/2-y,1/2-z
1/2-x,y,1/2-z
1/2-x,1/2-y,1/2-z
1/2+x,y,1/2-z
1/2-x,1/2+y,1/2+z
1/2+x,-y,1/2+z
loop_
_atom_site_type_symbol
_atom_site_label
_atom_site_fract_x
_atom_site_fract_y
_atom_site_fract_z
Si Si1 0.601360 0.077290 0.339307
Si Si2 0.607612 0.420407 0.160287
Si Si3 0.000000 0.926781 0.166127
Si Si4 0.193214 0.428016 0.918531
Si Si5 0.000000 0.571013 0.671706
Si Si6 0.196387 0.074014 0.580542
O O1 0.600748 0.250000 0.361494
O O2 0.603835 0.072066 0.249603
O O3 0.550608 0.998024 0.364486
O O4 0.649329 0.995737 0.370493
O O5 0.618315 0.250000 0.139265
O O6 0.552185 0.458725 0.132009
O O7 0.651493 0.520688 0.131004
O O8 0.000000 0.750000 0.158668
O O9 0.000000 0.975448 0.252986
O O10 0.188521 0.250000 0.923132
O O11 0.248626 0.464113 0.889375
O O12 0.190034 0.500000 0.000000
O O13 0.000000 0.750000 0.690704
O O14 0.194698 0.250000 0.571580
O O15 0.191446 0.000000 0.500000
#
# Coordination Sequence:
#
# PCOD9540794 Si02
#       6
#    16  16   8  16   8  16
#     4  10  20  35  55  79 107 139 173 212 256 306
#     4   9  18  33  54  78 105 136 173 213 255 304
#     4  10  18  30  51  78 107 138 171 210 255 304
#     4  10  21  37  55  76 103 137 174 214 260 311
#     4   8  16  32  51  74 105 140 172 208 257 310
#     4  10  21  36  54  75 103 137 174 215 261 311
#
# _framework density 9.1449470000000002
#
# number of rings (size 3 to 8) (size 9 to 14) (size 15 to 20)
#    0.000    2.400    0.000    3.900    0.000    7.200 
#    0.000    5.000    0.000    0.000    0.000    0.000 
#    0.000    0.000    0.000    0.000    0.000    0.000 
#
# Total GULP energy -223017.699625 kJ/mol
# GULP energy per Si atom -5575.442491 kJ/mol
# Density = 0.912413 g / cm^3
# Si number density = 9.144947 Si / 1000 Ang^3
#
#
#
# Elastic Constant Matrix: (Units=GPa)
#
#
# Indices 1 2 3 4 5 6 
#
# 1 190.0911 90.6368 38.3131 0.0000 0.0000 0.0000
# 2 90.6368 105.7907 20.9640 0.0000 0.0000 0.0000
# 3 38.3131 20.9640 10.2675 0.0000 0.0000 0.0000
# 4 0.0000 0.0000 0.0000 28.9695 0.0000 0.0000
# 5 0.0000 0.0000 0.0000 0.0000 47.9202 0.0000
# 6 0.0000 0.0000 0.0000 0.0000 0.0000 37.2418
#
#
#
# Elastic Compliance Matrix: (Units=1/GPa)
#
#
# Indices 1 2 3 4 5 6 
#
# 1 0.022381 -0.004410 -0.074511 0.000000 0.000000 0.000000
# 2 -0.004410 0.016745 -0.017735 0.000000 0.000000 0.000000
# 3 -0.074511 -0.017735 0.411641 0.000000 0.000000 0.000000
# 4 0.000000 0.000000 0.000000 0.034519 0.000000 0.000000
# 5 0.000000 0.000000 0.000000 0.000000 0.020868 0.000000
# 6 0.000000 0.000000 0.000000 0.000000 0.000000 0.026852
#
#
# Mechanical properties :
#
#
# Convention : Reuss Voigt Hill
#
# Bulk Modulus (GPa) = 3.88415 67.33078 35.60746
# Shear Modulus (GPa) = 6.15660 33.24199 19.69930
#
# Velocity S-wave (km/s) = 1.83669 4.26785 3.28542
# Velocity P-wave (km/s) = 2.57414 7.82170 5.82259
#
# Compressibility (1/GPa) = 0.25745637
#
# Stress axis : x y z
#
# Youngs Moduli (GPa) = 44.68104 59.71899 2.42930
#
# Poissons Ratio (x) = 0.26334 0.18101
# Poissons Ratio (y) = 0.19702 0.04308
# Poissons Ratio (z) = 3.32921 1.05914
#
# Static dielectric constant tensor:
#      x y z
#    x 1.656760 0.000000 0.000000 
#    y 0.000000 1.610450 0.000000 
#    z 0.000000 0.000000 1.613300 
# 
# From -- ./inp_files/46524.got.cif
#   From: 2010.05.17/outbox.ucp.g08.bks.cvg/sg74_24_cif.got.tgz:46524.got - 2010.06.11 16:37:44.
