data_PCOD9540953
_publ_section_title
;
Structure prediction by ZEFSAII (Michael W. Deem and Ramdas Pophale) SiO2 
 PCOD9540953
Probable space group: I M M A
;
_chemical_formula_sum "Si O2"
_cell_formula_units_Z 40
_cell_length_a 18.000000
_cell_length_b 9.000000
_cell_length_c 27.000000
_cell_angle_alpha 90.000000
_cell_angle_beta 90.000000
_cell_angle_gamma 90.000000
_cell_volume 4374.000000
_symmetry_space_group_name_H-M "I M M A"
_symmetry_group_IT_number 74
_symmetry_cell_setting 'orthorhombic'
loop_
_space_group_symop_operation_xyz
x,y,z
-x,1/2-y,z
x,-y,-z
-x,1/2+y,-z
-x,-y,-z
x,1/2+y,-z
-x,y,z
x,1/2-y,z
1/2+x,1/2+y,1/2+z
1/2-x,-y,1/2+z
1/2+x,1/2-y,1/2-z
1/2-x,y,1/2-z
1/2-x,1/2-y,1/2-z
1/2+x,y,1/2-z
1/2-x,1/2+y,1/2+z
1/2+x,-y,1/2+z
loop_
_atom_site_type_symbol
_atom_site_label
_atom_site_fract_x
_atom_site_fract_y
_atom_site_fract_z
Si Si1 0.337972 0.428114 0.850068
Si Si2 0.412939 0.571514 0.551810
Si Si3 0.675549 0.070529 0.347987
Si Si4 0.089595 0.074812 0.447470
Si Si5 0.087919 0.427284 0.253564
O O1 0.340287 0.250000 0.851979
O O2 0.253973 0.488244 0.846810
O O3 0.374320 0.495822 0.899973
O O4 0.380108 0.486703 0.800960
O O5 0.386568 0.500000 0.500000
O O6 0.500000 0.530845 0.558129
O O7 0.408869 0.750000 0.547085
O O8 0.368120 0.530318 0.601412
O O9 0.686605 0.250000 0.348551
O O10 0.629205 0.035657 0.298055
O O11 0.108712 0.250000 0.447787
O O12 0.000000 0.062368 0.443316
O O13 0.111190 0.000000 0.500000
O O14 0.098557 0.250000 0.262051
O O15 0.000000 0.454431 0.248484
#
# Coordination Sequence:
#
# PCOD9540953 Si02
#       5
#    16  16  16  16  16
#     4  12  25  38  55  83 119 154 188 229 280 338
#     4   9  18  34  57  84 112 144 184 229 277 330
#     4  10  21  38  59  82 112 149 189 235 285 336
#     4  10  21  39  63  88 114 147 189 235 282 334
#     4  10  21  39  63  86 108 142 190 239 288 343
#
# _framework density 9.1449470000000002
#
# number of rings (size 3 to 8) (size 9 to 14) (size 15 to 20)
#    0.000    1.800    0.000    4.200    0.000   11.200 
#    0.000    2.000    0.000    3.600    0.000    0.000 
#    0.000    0.000    0.000    0.000    0.000    0.000 
#
# Total GULP energy -223508.571061 kJ/mol
# GULP energy per Si atom -5587.714277 kJ/mol
# Density = 0.912413 g / cm^3
# Si number density = 9.144947 Si / 1000 Ang^3
#
#
#
# Elastic Constant Matrix: (Units=GPa)
#
#
# Indices 1 2 3 4 5 6 
#
# 1 103.8978 70.4482 94.9352 0.0000 0.0000 0.0000
# 2 70.4482 102.1771 98.1258 0.0000 0.0000 0.0000
# 3 94.9352 98.1258 222.8737 0.0000 0.0000 0.0000
# 4 0.0000 0.0000 0.0000 39.6504 0.0000 0.0000
# 5 0.0000 0.0000 0.0000 0.0000 25.3800 0.0000
# 6 0.0000 0.0000 0.0000 0.0000 0.0000 20.8170
#
#
#
# Elastic Compliance Matrix: (Units=1/GPa)
#
#
# Indices 1 2 3 4 5 6 
#
# 1 0.020185 -0.009806 -0.004281 0.000000 0.000000 0.000000
# 2 -0.009806 0.021720 -0.005386 0.000000 0.000000 0.000000
# 3 -0.004281 -0.005386 0.008682 0.000000 0.000000 0.000000
# 4 0.000000 0.000000 0.000000 0.025220 0.000000 0.000000
# 5 0.000000 0.000000 0.000000 0.000000 0.039401 0.000000
# 6 0.000000 0.000000 0.000000 0.000000 0.000000 0.048038
#
#
# Mechanical properties :
#
#
# Convention : Reuss Voigt Hill
#
# Bulk Modulus (GPa) = 85.89875 106.21856 96.05865
# Shear Modulus (GPa) = 24.26326 28.19878 26.23102
#
# Velocity S-wave (km/s) = 3.64619 3.93080 3.79117
# Velocity P-wave (km/s) = 8.04944 8.87708 8.47337
#
# Compressibility (1/GPa) = 0.01164161
#
# Stress axis : x y z
#
# Youngs Moduli (GPa) = 49.54057 46.03962 115.18710
#
# Poissons Ratio (x) = 0.45148 0.49308
# Poissons Ratio (y) = 0.48581 0.62038
# Poissons Ratio (z) = 0.21207 0.24796
#
# Static dielectric constant tensor:
#      x y z
#    x 1.619990 0.000000 0.000000 
#    y 0.000000 1.614700 0.000000 
#    z 0.000000 0.000000 1.600150 
# 
# From -- ./inp_files/67524.got.cif
#   From: 2010.05.17/outbox.ucp.g08.bks.cvg/sg74_34_cif.got.tgz:67524.got - 2010.06.11 16:37:44.
