data_PCOD9540747
_publ_section_title
;
Structure prediction by ZEFSAII (Michael W. Deem and Ramdas Pophale) SiO2 
 PCOD9540747
Probable space group: I M M A
;
_chemical_formula_sum "Si O2"
_cell_formula_units_Z 52
_cell_length_a 28.171652
_cell_length_b 13.057156
_cell_length_c 4.847870
_cell_angle_alpha 90.000000
_cell_angle_beta 90.000000
_cell_angle_gamma 90.000000
_cell_volume 1783.248524
_symmetry_space_group_name_H-M "I M M A"
_symmetry_group_IT_number 74
_symmetry_cell_setting 'orthorhombic'
loop_
_space_group_symop_operation_xyz
x,y,z
-x,1/2-y,z
x,-y,-z
-x,1/2+y,-z
-x,-y,-z
x,1/2+y,-z
-x,y,z
x,1/2-y,z
1/2+x,1/2+y,1/2+z
1/2-x,-y,1/2+z
1/2+x,1/2-y,1/2-z
1/2-x,y,1/2-z
1/2-x,1/2-y,1/2-z
1/2+x,y,1/2-z
1/2-x,1/2+y,1/2+z
1/2+x,-y,1/2+z
loop_
_atom_site_type_symbol
_atom_site_label
_atom_site_fract_x
_atom_site_fract_y
_atom_site_fract_z
Si Si1 0.050393 0.371200 0.037367
Si Si2 0.198305 0.374233 0.161792
Si Si3 0.500000 0.500000 0.000000
Si Si4 0.860801 0.626568 0.339286
O O1 0.052933 0.250000 0.095022
O O2 0.040870 0.569237 0.680724
O O3 0.093978 0.399588 0.846517
O O4 0.000000 0.390901 0.866063
O O5 0.199275 0.250000 0.182674
O O6 0.250000 0.409968 0.250000
O O7 0.154201 0.407206 0.356103
O O8 0.185027 0.396384 0.849025
O O9 0.865768 0.750000 0.361766
#
# Coordination Sequence:
#
# PCOD9540747 Si02
#       4
#    16  16   4  16
#     4   8  15  28  48  75 109 157 220 277 330 395
#     4   9  16  26  43  69 103 143 188 240 303 377
#     4   8  14  28  52  72 108 158 218 282 336 388
#     4   9  16  27  44  69 103 145 195 252 311 375
#
# _framework density 29.160264999999999
#
# number of rings (size 3 to 8) (size 9 to 14) (size 15 to 20)
#    0.923    2.462    0.000    0.923    0.000    3.692 
#    0.000    1.538    0.000   12.923    0.000    0.000 
#    0.000    4.923    0.000    2.462    0.000   40.615 
#
# Total GULP energy -145390.099697 kJ/mol
# GULP energy per Si atom -5591.926911 kJ/mol
# Density = 2.909390 g / cm^3
# Si number density = 29.160265 Si / 1000 Ang^3
#
#
#
# Elastic Constant Matrix: (Units=GPa)
#
#
# Indices 1 2 3 4 5 6 
#
# 1 186.5473 38.7709 108.1914 0.0000 0.0000 0.0000
# 2 38.7709 193.6257 34.1910 0.0000 0.0000 0.0000
# 3 108.1914 34.1910 168.0698 -0.0002 -0.0001 0.0000
# 4 0.0000 0.0000 -0.0002 63.1764 0.0000 0.0000
# 5 0.0000 0.0000 -0.0001 0.0000 36.7381 0.0000
# 6 0.0000 0.0000 0.0000 0.0000 0.0000 41.5983
#
#
#
# Elastic Compliance Matrix: (Units=1/GPa)
#
#
# Indices 1 2 3 4 5 6 
#
# 1 0.008666 -0.000778 -0.005420 0.000000 0.000000 0.000000
# 2 -0.000778 0.005427 -0.000603 0.000000 0.000000 0.000000
# 3 -0.005420 -0.000603 0.009562 0.000000 0.000000 0.000000
# 4 0.000000 0.000000 0.000000 0.015829 0.000000 0.000000
# 5 0.000000 0.000000 0.000000 0.000000 0.027220 0.000000
# 6 0.000000 0.000000 0.000000 0.000000 0.000000 0.024039
#
#
# Mechanical properties :
#
#
# Convention : Reuss Voigt Hill
#
# Bulk Modulus (GPa) = 99.48584 101.17215 100.32900
# Shear Modulus (GPa) = 46.42720 52.77520 49.60120
#
# Velocity S-wave (km/s) = 3.99449 4.25883 4.12878
# Velocity P-wave (km/s) = 7.44752 7.67815 7.56372
#
# Compressibility (1/GPa) = 0.01005168
#
# Stress axis : x y z
#
# Youngs Moduli (GPa) = 115.39638 184.26694 104.58402
#
# Poissons Ratio (x) = 0.14338 0.56686
# Poissons Ratio (y) = 0.08979 0.06308
# Poissons Ratio (z) = 0.62546 0.11114
#
# Static dielectric constant tensor:
#      x y z
#    x 2.281490 0.000000 0.000000 
#    y 0.000000 2.318670 0.000000 
#    z 0.000000 0.000000 1.762160 
# 
# From -- ./inp_files/4222.got.cif
#   From: 2010.05.17/outbox.cif.g08.bks.cpg/sg74_3_cif.got.tgz:4222.got - 2010.06.03 17:57:02.
