data_PCOD9540101
_publ_section_title
;
Structure prediction by ZEFSAII (Michael W. Deem and Ramdas Pophale) SiO2 
 PCOD9540101
Probable space group: I M M A
;
_chemical_formula_sum "Si O2"
_cell_formula_units_Z 88
_cell_length_a 20.544177
_cell_length_b 8.813742
_cell_length_c 22.534866
_cell_angle_alpha 90.000000
_cell_angle_beta 90.000000
_cell_angle_gamma 90.000000
_cell_volume 4080.412427
_symmetry_space_group_name_H-M "I M M A"
_symmetry_group_IT_number 74
_symmetry_cell_setting 'orthorhombic'
loop_
_space_group_symop_operation_xyz
x,y,z
-x,1/2-y,z
x,-y,-z
-x,1/2+y,-z
-x,-y,-z
x,1/2+y,-z
-x,y,z
x,1/2-y,z
1/2+x,1/2+y,1/2+z
1/2-x,-y,1/2+z
1/2+x,1/2-y,1/2-z
1/2-x,y,1/2-z
1/2-x,1/2-y,1/2-z
1/2+x,y,1/2-z
1/2-x,1/2+y,1/2+z
1/2+x,-y,1/2+z
loop_
_atom_site_type_symbol
_atom_site_label
_atom_site_fract_x
_atom_site_fract_y
_atom_site_fract_z
Si Si1 0.577845 0.565063 0.258445
Si Si2 0.314965 0.250000 0.464614
Si Si3 0.326989 0.250000 0.053549
Si Si4 0.924113 0.250000 0.552899
Si Si5 0.256097 0.750000 0.322571
Si Si6 0.616057 0.250000 0.590435
Si Si7 0.104287 0.423759 0.120835
Si Si8 0.647123 0.977021 0.137450
O O1 0.500000 0.544760 0.264049
O O2 0.589198 0.750000 0.260269
O O3 0.612028 0.467728 0.310399
O O4 0.605564 0.502933 0.196982
O O5 0.240272 0.250000 0.481954
O O6 0.357323 0.250000 0.523668
O O7 0.334140 0.392212 0.422211
O O8 0.329613 0.387091 0.098192
O O9 0.385853 0.250000 0.008252
O O10 0.900334 0.112191 0.593178
O O11 0.000000 0.250000 0.543155
O O12 0.250000 0.750000 0.250000
O O13 0.323675 0.750000 0.360912
O O14 0.212071 0.610235 0.343438
O O15 0.578136 0.410671 0.598979
O O16 0.074213 0.250000 0.117737
#
# Coordination Sequence:
#
# PCOD9540101 Si02
#       8
#    16   8   8   8   8   8  16  16
#     4  11  22  44  72  93 127 177 228 283 353 425
#     4  10  24  43  64  97 137 184 224 278 332 418
#     4  12  26  42  62  99 138 174 225 284 340 393
#     4  11  24  45  66  89 131 182 233 282 329 403
#     4  11  22  39  66  95 130 177 220 272 332 406
#     4  12  20  41  70  90 137 189 221 264 346 410
#     4  10  24  40  65 103 132 168 232 281 337 409
#     4  11  24  41  63  97 130 169 230 279 339 415
#
# _framework density 21.566447
#
# number of rings (size 3 to 8) (size 9 to 14) (size 15 to 20)
#    0.545    0.545    2.727    4.909    1.273    4.000 
#    0.000    1.364    0.000    3.273    0.000    0.000 
#    0.000    0.000    0.000    0.000    0.000    0.000 
#
# Total GULP energy -245106.246821 kJ/mol
# GULP energy per Si atom -5570.596519 kJ/mol
# Density = 2.151736 g / cm^3
# Si number density = 21.566447 Si / 1000 Ang^3
#
#
#
# Elastic Constant Matrix: (Units=GPa)
#
#
# Indices 1 2 3 4 5 6 
#
# 1 76.6200 12.6417 46.3021 0.0000 0.0000 0.0000
# 2 12.6417 97.1820 50.6765 0.0000 0.0000 0.0000
# 3 46.3021 50.6765 167.3960 0.0000 0.0000 0.0000
# 4 0.0000 0.0000 0.0000 100.0638 0.0000 0.0000
# 5 0.0000 0.0000 0.0000 0.0000 9.7932 0.0000
# 6 0.0000 0.0000 0.0000 0.0000 0.0000 8.5962
#
#
#
# Elastic Compliance Matrix: (Units=1/GPa)
#
#
# Indices 1 2 3 4 5 6 
#
# 1 0.015677 0.000263 -0.004416 0.000000 0.000000 0.000000
# 2 0.000263 0.012223 -0.003773 0.000000 0.000000 0.000000
# 3 -0.004416 -0.003773 0.008338 0.000000 0.000000 0.000000
# 4 0.000000 0.000000 0.000000 0.009994 0.000000 0.000000
# 5 0.000000 0.000000 0.000000 0.000000 0.102112 0.000000
# 6 0.000000 0.000000 0.000000 0.000000 0.000000 0.116330
#
#
# Mechanical properties :
#
#
# Convention : Reuss Voigt Hill
#
# Bulk Modulus (GPa) = 49.05331 62.27096 55.66214
# Shear Modulus (GPa) = 17.40223 39.12916 28.26570
#
# Velocity S-wave (km/s) = 2.84370 4.26414 3.62419
# Velocity P-wave (km/s) = 5.79455 7.29250 6.58625
#
# Compressibility (1/GPa) = 0.02038598
#
# Stress axis : x y z
#
# Youngs Moduli (GPa) = 63.78960 81.81079 119.93823
#
# Poissons Ratio (x) = -0.02156 0.52964
# Poissons Ratio (y) = -0.01681 0.45256
# Poissons Ratio (z) = 0.28169 0.30870
#
# Static dielectric constant tensor:
#      x y z
#    x 1.773530 0.000000 0.000000 
#    y 0.000000 1.826250 0.000000 
#    z 0.000000 0.000000 1.749680 
# 
# From -- ./inp_files/54591.got.cif
#   From: 2010.05.17/outbox.cif.g08.bks.cpg/sg74_28_cif.got.tgz:54591.got - 2010.06.03 17:57:02.
