data_PCOD9540912
_publ_section_title
;
Structure prediction by ZEFSAII (Michael W. Deem and Ramdas Pophale) SiO2 
 PCOD9540912
Probable space group: I M M A
;
_chemical_formula_sum "Si O2"
_cell_formula_units_Z 48
_cell_length_a 27.000000
_cell_length_b 9.000000
_cell_length_c 21.000000
_cell_angle_alpha 90.000000
_cell_angle_beta 90.000000
_cell_angle_gamma 90.000000
_cell_volume 5103.000000
_symmetry_space_group_name_H-M "I M M A"
_symmetry_group_IT_number 74
_symmetry_cell_setting 'orthorhombic'
loop_
_space_group_symop_operation_xyz
x,y,z
-x,1/2-y,z
x,-y,-z
-x,1/2+y,-z
-x,-y,-z
x,1/2+y,-z
-x,y,z
x,1/2-y,z
1/2+x,1/2+y,1/2+z
1/2-x,-y,1/2+z
1/2+x,1/2-y,1/2-z
1/2-x,y,1/2-z
1/2-x,1/2-y,1/2-z
1/2+x,y,1/2-z
1/2-x,1/2+y,1/2+z
1/2+x,-y,1/2+z
loop_
_atom_site_type_symbol
_atom_site_label
_atom_site_fract_x
_atom_site_fract_y
_atom_site_fract_z
Si Si1 0.724534 0.428013 0.817701
Si Si2 0.059315 0.074993 0.566917
Si Si3 0.294266 0.072095 0.565547
Si Si4 0.410502 0.072689 0.566138
Si Si5 0.117564 0.928279 0.682922
Si Si6 0.943886 0.074101 0.194446
O O1 0.715835 0.250000 0.822474
O O2 0.750000 0.456723 0.750000
O O3 0.761519 0.472735 0.874341
O O4 0.673133 0.513152 0.821930
O O5 0.070876 0.250000 0.565629
O O6 0.000000 0.058158 0.573690
O O7 0.073781 0.000000 0.500000
O O8 0.086139 0.997026 0.625535
O O9 0.291897 0.250000 0.559941
O O10 0.352136 0.032774 0.573857
O O11 0.276455 0.000000 0.500000
O O12 0.415071 0.250000 0.562124
O O13 0.427896 0.000000 0.500000
O O14 0.436992 0.011255 0.628521
O O15 0.115495 0.750000 0.679739
O O16 0.093829 0.974824 0.750655
O O17 0.936431 0.250000 0.182620
O O18 0.000000 0.053927 0.218257
#
# Coordination Sequence:
#
# PCOD9540912 Si02
#       6
#    16  16  16  16  16  16
#     4  10  21  38  58  80 110 147 188 235 282 330
#     4  10  21  38  61  87 115 149 189 232 280 337
#     4   9  19  35  56  81 109 142 178 221 272 324
#     4  10  20  36  59  85 112 144 183 226 275 330
#     4  11  23  38  58  84 115 150 188 234 285 337
#     4  10  22  39  57  79 110 147 186 229 276 326
#
# _framework density 9.4062319999999993
#
# number of rings (size 3 to 8) (size 9 to 14) (size 15 to 20)
#    0.000    2.000    0.000    3.000    0.000    7.333 
#    0.000    1.667    0.000    0.000    0.000    0.000 
#    0.000    0.000    0.000    0.000    0.000    0.000 
#
# Total GULP energy -268156.753912 kJ/mol
# GULP energy per Si atom -5586.599040 kJ/mol
# Density = 0.938482 g / cm^3
# Si number density = 9.406232 Si / 1000 Ang^3
#
#
#
# Elastic Constant Matrix: (Units=GPa)
#
#
# Indices 1 2 3 4 5 6 
#
# 1 33.9789 23.1823 21.4749 0.0000 0.0000 0.0000
# 2 23.1823 37.1597 30.6575 0.0000 0.0000 0.0000
# 3 21.4749 30.6575 102.8032 0.0000 0.0000 0.0000
# 4 0.0000 0.0000 0.0000 35.1177 0.0000 0.0000
# 5 0.0000 0.0000 0.0000 0.0000 35.8370 0.0000
# 6 0.0000 0.0000 0.0000 0.0000 0.0000 23.0652
#
#
#
# Elastic Compliance Matrix: (Units=1/GPa)
#
#
# Indices 1 2 3 4 5 6 
#
# 1 0.051426 -0.030797 -0.001559 0.000000 0.000000 0.000000
# 2 -0.030797 0.054135 -0.009711 0.000000 0.000000 0.000000
# 3 -0.001559 -0.009711 0.012949 0.000000 0.000000 0.000000
# 4 0.000000 0.000000 0.000000 0.028476 0.000000 0.000000
# 5 0.000000 0.000000 0.000000 0.000000 0.027904 0.000000
# 6 0.000000 0.000000 0.000000 0.000000 0.000000 0.043355
#
#
# Mechanical properties :
#
#
# Convention : Reuss Voigt Hill
#
# Bulk Modulus (GPa) = 29.08821 36.06349 32.57585
# Shear Modulus (GPa) = 15.93186 25.37913 20.65550
#
# Velocity S-wave (km/s) = 2.91327 3.67694 3.31716
# Velocity P-wave (km/s) = 5.17803 6.10230 5.65907
#
# Compressibility (1/GPa) = 0.03437819
#
# Stress axis : x y z
#
# Youngs Moduli (GPa) = 19.44531 18.47231 77.22742
#
# Poissons Ratio (x) = 0.56889 0.12036
# Poissons Ratio (y) = 0.59885 0.74993
# Poissons Ratio (z) = 0.03031 0.17938
#
# Static dielectric constant tensor:
#      x y z
#    x 1.639350 0.000000 0.000000 
#    y 0.000000 1.628120 0.000000 
#    z 0.000000 0.000000 1.620000 
# 
# From -- ./inp_files/49035.got.cif
#   From: 2010.05.17/outbox.ucp.g08.bks.cvg/sg74_25_cif.got.tgz:49035.got - 2010.06.11 16:37:44.
