data_PCOD9540489
_publ_section_title
;
Structure prediction by ZEFSAII (Michael W. Deem and Ramdas Pophale) SiO2 
 PCOD9540489
Probable space group: I M M A
;
_chemical_formula_sum "Si O2"
_cell_formula_units_Z 52
_cell_length_a 18.182562
_cell_length_b 14.012719
_cell_length_c 9.592402
_cell_angle_alpha 90.000000
_cell_angle_beta 90.000000
_cell_angle_gamma 90.000000
_cell_volume 2444.020595
_symmetry_space_group_name_H-M "I M M A"
_symmetry_group_IT_number 74
_symmetry_cell_setting 'orthorhombic'
loop_
_space_group_symop_operation_xyz
x,y,z
-x,1/2-y,z
x,-y,-z
-x,1/2+y,-z
-x,-y,-z
x,1/2+y,-z
-x,y,z
x,1/2-y,z
1/2+x,1/2+y,1/2+z
1/2-x,-y,1/2+z
1/2+x,1/2-y,1/2-z
1/2-x,y,1/2-z
1/2-x,1/2-y,1/2-z
1/2+x,y,1/2-z
1/2-x,1/2+y,1/2+z
1/2+x,-y,1/2+z
loop_
_atom_site_type_symbol
_atom_site_label
_atom_site_fract_x
_atom_site_fract_y
_atom_site_fract_z
Si Si1 0.161187 0.250000 0.314610
Si Si2 0.624526 0.540212 0.143995
Si Si3 0.750000 0.420358 0.250000
Si Si4 0.000000 0.463072 0.155651
Si Si5 0.183269 0.750000 0.364739
Si Si6 0.500000 0.250000 0.248666
O O1 0.185429 0.157648 0.226516
O O2 0.200562 0.250000 0.467069
O O3 0.074737 0.250000 0.339778
O O4 0.705547 0.491915 0.152118
O O5 0.571497 0.504148 0.265246
O O6 0.637138 0.652916 0.152782
O O7 0.592181 0.500000 0.000000
O O8 0.000000 0.348189 0.165473
O O9 0.000000 0.500000 0.000000
O O10 0.250000 0.750000 0.250000
#
# Coordination Sequence:
#
# PCOD9540489 Si02
#       6
#     8  16   8   8   8   4
#     4  11  24  43  73 102 133 192 241 274 336 445
#     4  12  25  47  71 101 142 185 233 285 349 420
#     4  11  22  43  72 102 132 181 236 285 334 416
#     4  12  29  47  71 104 139 185 229 294 344 410
#     4  12  25  40  69 106 138 179 225 297 357 386
#     4  12  22  52  74  96 132 202 234 264 352 436
#
# _framework density 21.276416999999999
#
# number of rings (size 3 to 8) (size 9 to 14) (size 15 to 20)
#    0.000    0.308    7.692    0.462    0.000    6.769 
#    0.000    0.000    0.000    0.000    0.000    0.000 
#    0.000    0.000    0.000    0.000    0.000    0.000 
#
# Total GULP energy -144814.238299 kJ/mol
# GULP energy per Si atom -5569.778396 kJ/mol
# Density = 2.122799 g / cm^3
# Si number density = 21.276417 Si / 1000 Ang^3
#
#
#
# Elastic Constant Matrix: (Units=GPa)
#
#
# Indices 1 2 3 4 5 6 
#
# 1 115.4808 48.3468 66.8539 0.0000 0.0000 0.0000
# 2 48.3468 238.8751 60.3803 0.0000 0.0000 0.0000
# 3 66.8539 60.3803 164.0371 0.0000 0.0000 0.0000
# 4 0.0000 0.0000 0.0000 16.2398 0.0000 0.0000
# 5 0.0000 0.0000 0.0000 0.0000 33.9369 0.0000
# 6 0.0000 0.0000 0.0000 0.0000 0.0000 -12.1169
#
#
#
# Elastic Compliance Matrix: (Units=1/GPa)
#
#
# Indices 1 2 3 4 5 6 
#
# 1 0.011678 -0.001280 -0.004288 0.000000 0.000000 0.000000
# 2 -0.001280 0.004756 -0.001229 0.000000 0.000000 0.000000
# 3 -0.004288 -0.001229 0.008296 0.000000 0.000000 0.000000
# 4 0.000000 0.000000 0.000000 0.061577 0.000000 0.000000
# 5 0.000000 0.000000 0.000000 0.000000 0.029466 0.000000
# 6 0.000000 0.000000 0.000000 0.000000 0.000000 -0.082529
#
#
# Mechanical properties :
#
#
# Convention : Reuss Voigt Hill
#
# Bulk Modulus (GPa) = 89.79865 96.61722 93.20793
# Shear Modulus (GPa) = 98.91104 30.46609 64.68857
#
# Velocity S-wave (km/s) = 6.82565 3.78817 5.51995
# Velocity P-wave (km/s) = 10.21845 8.04007 9.19400
#
# Compressibility (1/GPa) = 0.01113602
#
# Stress axis : x y z
#
# Youngs Moduli (GPa) = 85.63320 210.26310 120.53524
#
# Poissons Ratio (x) = 0.26904 0.51689
# Poissons Ratio (y) = 0.10957 0.14815
# Poissons Ratio (z) = 0.36722 0.25844
#
# Static dielectric constant tensor:
#      x y z
#    x 1.796870 0.000000 0.000000 
#    y 0.000000 1.799220 0.000000 
#    z 0.000000 0.000000 1.739780 
# 
# From -- ./inp_files/11619.got.cif
#   From: 2010.05.17/outbox.cif.g08.bks.cpg/sg74_6_cif.got.tgz:11619.got - 2010.06.03 17:57:02.
