data_PCOD9540530
_publ_section_title
;
Structure prediction by ZEFSAII (Michael W. Deem and Ramdas Pophale) SiO2 
 PCOD9540530
Probable space group: I M M A
;
_chemical_formula_sum "Si O2"
_cell_formula_units_Z 68
_cell_length_a 20.993673
_cell_length_b 8.697907
_cell_length_c 20.906241
_cell_angle_alpha 90.000000
_cell_angle_beta 90.000000
_cell_angle_gamma 90.000000
_cell_volume 3817.500834
_symmetry_space_group_name_H-M "I M M A"
_symmetry_group_IT_number 74
_symmetry_cell_setting 'orthorhombic'
loop_
_space_group_symop_operation_xyz
x,y,z
-x,1/2-y,z
x,-y,-z
-x,1/2+y,-z
-x,-y,-z
x,1/2+y,-z
-x,y,z
x,1/2-y,z
1/2+x,1/2+y,1/2+z
1/2-x,-y,1/2+z
1/2+x,1/2-y,1/2-z
1/2-x,y,1/2-z
1/2-x,1/2-y,1/2-z
1/2+x,y,1/2-z
1/2-x,1/2+y,1/2+z
1/2+x,-y,1/2+z
loop_
_atom_site_type_symbol
_atom_site_label
_atom_site_fract_x
_atom_site_fract_y
_atom_site_fract_z
Si Si1 0.392121 0.571014 0.395016
Si Si2 0.802475 0.433902 0.695730
Si Si3 0.427522 0.566152 0.741062
Si Si4 0.244414 0.566577 0.932035
Si Si5 0.500000 0.500000 0.500000
O O1 0.381893 0.750000 0.378660
O O2 0.415871 0.481752 0.332411
O O3 0.326186 0.499227 0.418940
O O4 0.444648 0.555383 0.449527
O O5 0.799242 0.250000 0.689096
O O6 0.750000 0.478606 0.750000
O O7 0.871920 0.485297 0.719156
O O8 0.785192 0.511841 0.628647
O O9 0.500000 0.522535 0.758833
O O10 0.421483 0.750000 0.746891
O O11 0.242119 0.750000 0.935196
O O12 0.267022 0.500000 0.000000
#
# Coordination Sequence:
#
# PCOD9540530 Si02
#       5
#    16  16  16  16   4
#     4  12  24  38  57  83 120 165 211 251 298 360
#     4  11  23  40  65  93 124 162 211 261 310 369
#     4  11  24  40  61  90 124 161 207 256 309 367
#     4  12  25  41  63  89 123 161 206 257 312 368
#     4  12  26  36  56  82 130 172 214 248 298 364
#
# _framework density 17.8127
#
# number of rings (size 3 to 8) (size 9 to 14) (size 15 to 20)
#    0.000    0.471    4.706    4.588    0.000    5.176 
#    0.000    0.000    0.000    0.706    0.000    0.000 
#    0.000    0.000    0.000    0.000    0.000    0.000 
#
# Total GULP energy -189654.086765 kJ/mol
# GULP energy per Si atom -5578.061375 kJ/mol
# Density = 1.777216 g / cm^3
# Si number density = 17.812700 Si / 1000 Ang^3
#
#
#
# Elastic Constant Matrix: (Units=GPa)
#
#
# Indices 1 2 3 4 5 6 
#
# 1 88.1728 16.2756 35.7727 0.0000 0.0000 0.0000
# 2 16.2756 44.5946 6.2270 0.0000 0.0000 0.0000
# 3 35.7727 6.2270 72.6701 0.0000 0.0000 0.0000
# 4 0.0000 0.0000 0.0000 15.6389 0.0000 0.0000
# 5 0.0000 0.0000 0.0000 0.0000 28.0811 0.0000
# 6 0.0000 0.0000 0.0000 0.0000 0.0000 11.9403
#
#
#
# Elastic Compliance Matrix: (Units=1/GPa)
#
#
# Indices 1 2 3 4 5 6 
#
# 1 0.015014 -0.004502 -0.007005 0.000000 0.000000 0.000000
# 2 -0.004502 0.024045 0.000156 0.000000 0.000000 0.000000
# 3 -0.007005 0.000156 0.017196 0.000000 0.000000 0.000000
# 4 0.000000 0.000000 0.000000 0.063943 0.000000 0.000000
# 5 0.000000 0.000000 0.000000 0.000000 0.035611 0.000000
# 6 0.000000 0.000000 0.000000 0.000000 0.000000 0.083750
#
#
# Mechanical properties :
#
#
# Convention : Reuss Voigt Hill
#
# Bulk Modulus (GPa) = 29.80347 35.77645 32.78996
# Shear Modulus (GPa) = 18.28508 20.94287 19.61397
#
# Velocity S-wave (km/s) = 3.20741 3.43261 3.32192
# Velocity P-wave (km/s) = 5.52128 5.98655 5.75862
#
# Compressibility (1/GPa) = 0.03355314
#
# Stress axis : x y z
#
# Youngs Moduli (GPa) = 66.60264 41.58785 58.15336
#
# Poissons Ratio (x) = 0.18721 0.40738
# Poissons Ratio (y) = 0.29982 -0.00905
# Poissons Ratio (z) = 0.46657 -0.00647
#
# Static dielectric constant tensor:
#      x y z
#    x 1.592340 0.000000 0.000000 
#    y 0.000000 1.608020 0.000000 
#    z 0.000000 0.000000 1.593400 
# 
# From -- ./inp_files/44837.got.cif
#   From: 2010.05.17/outbox.cif.g08.bks.cpg/sg74_23_cif.got.tgz:44837.got - 2010.06.03 17:57:02.
