data_PCOD9540833
_publ_section_title
;
Structure prediction by ZEFSAII (Michael W. Deem and Ramdas Pophale) SiO2 
 PCOD9540833
Probable space group: I M M A
;
_chemical_formula_sum "Si O2"
_cell_formula_units_Z 48
_cell_length_a 27.000000
_cell_length_b 9.000000
_cell_length_c 21.000000
_cell_angle_alpha 90.000000
_cell_angle_beta 90.000000
_cell_angle_gamma 90.000000
_cell_volume 5103.000000
_symmetry_space_group_name_H-M "I M M A"
_symmetry_group_IT_number 74
_symmetry_cell_setting 'orthorhombic'
loop_
_space_group_symop_operation_xyz
x,y,z
-x,1/2-y,z
x,-y,-z
-x,1/2+y,-z
-x,-y,-z
x,1/2+y,-z
-x,y,z
x,1/2-y,z
1/2+x,1/2+y,1/2+z
1/2-x,-y,1/2+z
1/2+x,1/2-y,1/2-z
1/2-x,y,1/2-z
1/2-x,1/2-y,1/2-z
1/2+x,y,1/2-z
1/2-x,1/2+y,1/2+z
1/2+x,-y,1/2+z
loop_
_atom_site_type_symbol
_atom_site_label
_atom_site_fract_x
_atom_site_fract_y
_atom_site_fract_z
Si Si1 0.559322 0.074265 0.435133
Si Si2 0.869070 0.428346 0.566937
Si Si3 0.942962 0.427499 0.334247
Si Si4 0.760828 0.570728 0.566236
Si Si5 0.289482 0.930361 0.698421
Si Si6 0.901042 0.930870 0.799958
O O1 0.500000 0.054385 0.431872
O O2 0.569320 0.250000 0.439099
O O3 0.581487 0.015720 0.369032
O O4 0.577748 0.000000 0.500000
O O5 0.886141 0.500000 0.500000
O O6 0.865750 0.250000 0.562277
O O7 0.906091 0.480779 0.621697
O O8 0.814917 0.499965 0.578394
O O9 0.932123 0.250000 0.340346
O O10 0.934528 0.469357 0.260370
O O11 0.000000 0.451083 0.351946
O O12 0.742727 0.500000 0.500000
O O13 0.764979 0.750000 0.560591
O O14 0.726865 0.534475 0.626687
O O15 0.289574 0.750000 0.702588
O O16 0.250000 0.985619 0.750000
O O17 0.344962 0.980230 0.712604
O O18 0.901740 0.750000 0.803355
#
# Coordination Sequence:
#
# PCOD9540833 Si02
#       6
#    16  16  16  16  16  16
#     4   9  17  30  49  73 101 134 171 210 252 299
#     4  11  22  37  57  79 106 139 173 212 259 313
#     4  10  20  35  57  82 106 135 174 220 265 309
#     4  10  19  33  54  78 105 137 174 216 260 308
#     4   9  17  29  49  76 102 131 169 212 254 298
#     4   9  17  31  52  77 104 136 176 216 255 306
#
# _framework density 9.4062319999999993
#
# number of rings (size 3 to 8) (size 9 to 14) (size 15 to 20)
#    0.000    2.333    0.000    4.500    0.000    6.000 
#    0.000    0.833    0.000   12.000    0.000    0.000 
#    0.000    0.000    0.000    0.000    0.000    0.000 
#
# Total GULP energy -267805.138254 kJ/mol
# GULP energy per Si atom -5579.273714 kJ/mol
# Density = 0.938482 g / cm^3
# Si number density = 9.406232 Si / 1000 Ang^3
#
#
#
# Elastic Constant Matrix: (Units=GPa)
#
#
# Indices 1 2 3 4 5 6 
#
# 1 9.3062 16.0621 0.5478 0.0000 0.0000 0.0000
# 2 16.0621 41.6536 7.8086 0.0000 0.0000 0.0000
# 3 0.5478 7.8086 43.7089 0.0000 0.0000 0.0000
# 4 0.0000 0.0000 0.0000 31.8748 0.0000 0.0000
# 5 0.0000 0.0000 0.0000 0.0000 35.8284 0.0000
# 6 0.0000 0.0000 0.0000 0.0000 0.0000 11.8354
#
#
#
# Elastic Compliance Matrix: (Units=1/GPa)
#
#
# Indices 1 2 3 4 5 6 
#
# 1 0.336837 -0.133570 0.019641 0.000000 0.000000 0.000000
# 2 -0.133570 0.077806 -0.012226 0.000000 0.000000 0.000000
# 3 0.019641 -0.012226 0.024817 0.000000 0.000000 0.000000
# 4 0.000000 0.000000 0.000000 0.031373 0.000000 0.000000
# 5 0.000000 0.000000 0.000000 0.000000 0.027911 0.000000
# 6 0.000000 0.000000 0.000000 0.000000 0.000000 0.084492
#
#
# Mechanical properties :
#
#
# Convention : Reuss Voigt Hill
#
# Bulk Modulus (GPa) = 5.34335 15.94509 10.64422
# Shear Modulus (GPa) = 5.56837 20.59105 13.07971
#
# Velocity S-wave (km/s) = 1.72231 3.31198 2.63965
# Velocity P-wave (km/s) = 2.60800 4.80831 3.86791
#
# Compressibility (1/GPa) = 0.18714848
#
# Stress axis : x y z
#
# Youngs Moduli (GPa) = 2.96880 12.85252 40.29552
#
# Poissons Ratio (x) = 1.71671 -0.79144
# Poissons Ratio (y) = 0.39654 0.49265
# Poissons Ratio (z) = -0.05831 0.15714
#
# Static dielectric constant tensor:
#      x y z
#    x 1.653470 0.000000 0.000000 
#    y 0.000000 1.637100 0.000000 
#    z 0.000000 0.000000 1.657540 
# 
# From -- ./inp_files/49148.got.cif
#   From: 2010.05.17/outbox.ucp.g08.bks.cvg/sg74_25_cif.got.tgz:49148.got - 2010.06.11 16:37:44.
