data_PCOD9540287
_publ_section_title
;
Structure prediction by ZEFSAII (Michael W. Deem and Ramdas Pophale) SiO2 
 PCOD9540287
Probable space group: I M M A
;
_chemical_formula_sum "Si O2"
_cell_formula_units_Z 112
_cell_length_a 14.701472
_cell_length_b 24.703137
_cell_length_c 16.393445
_cell_angle_alpha 90.000000
_cell_angle_beta 90.000000
_cell_angle_gamma 90.000000
_cell_volume 5953.648026
_symmetry_space_group_name_H-M "I M M A"
_symmetry_group_IT_number 74
_symmetry_cell_setting 'orthorhombic'
loop_
_space_group_symop_operation_xyz
x,y,z
-x,1/2-y,z
x,-y,-z
-x,1/2+y,-z
-x,-y,-z
x,1/2+y,-z
-x,y,z
x,1/2-y,z
1/2+x,1/2+y,1/2+z
1/2-x,-y,1/2+z
1/2+x,1/2-y,1/2-z
1/2-x,y,1/2-z
1/2-x,1/2-y,1/2-z
1/2+x,y,1/2-z
1/2-x,1/2+y,1/2+z
1/2+x,-y,1/2+z
loop_
_atom_site_type_symbol
_atom_site_label
_atom_site_fract_x
_atom_site_fract_y
_atom_site_fract_z
Si Si1 0.103132 0.482290 0.391867
Si Si2 0.229952 0.814348 0.541531
Si Si3 0.607947 0.861767 0.631909
Si Si4 0.198278 0.081334 0.535911
Si Si5 0.349579 0.972818 0.713909
Si Si6 0.098894 0.546356 0.069439
Si Si7 0.899718 0.685408 0.690132
O O1 0.142184 0.543846 0.400515
O O2 0.168084 0.446694 0.450151
O O3 0.100747 0.462444 0.299057
O O4 0.000000 0.479186 0.421574
O O5 0.223307 0.750000 0.526135
O O6 0.332898 0.832251 0.563212
O O7 0.186313 0.854277 0.474163
O O8 0.175550 0.829093 0.624531
O O9 0.500000 0.864540 0.614556
O O10 0.644996 0.921252 0.654297
O O11 0.620338 0.830742 0.717610
O O12 0.305324 0.074800 0.553071
O O13 0.250000 0.984299 0.750000
O O14 0.390485 0.020133 0.659013
O O15 0.000000 0.574687 0.064557
O O16 0.096076 0.500000 0.000000
O O17 0.904144 0.750000 0.687993
O O18 0.000000 0.663584 0.667876
#
# Coordination Sequence:
#
# PCOD9540287 Si02
#       7
#    16  16  16  16  16  16  16
#     4  11  22  37  59  86 115 152 191 238 295 350
#     4  11  23  36  53  75 106 152 200 238 284 337
#     4  11  21  31  49  78 111 149 187 228 277 339
#     4  11  21  38  53  79 113 149 192 242 288 337
#     4  12  21  36  57  85 118 148 185 232 287 357
#     4  11  21  35  54  79 113 149 184 226 285 349
#     4   9  18  32  48  69  99 136 183 235 280 326
#
# _framework density 18.811995
#
# number of rings (size 3 to 8) (size 9 to 14) (size 15 to 20)
#    0.000    1.143    2.857    6.429    0.000    6.000 
#    0.000    0.000    0.000    0.000    0.000    2.000 
#    0.000    2.286    0.000    0.000    0.000    0.000 
#
# Total GULP energy -312351.754789 kJ/mol
# GULP energy per Si atom -5577.709907 kJ/mol
# Density = 1.876918 g / cm^3
# Si number density = 18.811995 Si / 1000 Ang^3
#
#
#
# Elastic Constant Matrix: (Units=GPa)
#
#
# Indices 1 2 3 4 5 6 
#
# 1 102.1301 17.3732 9.6550 0.0000 0.0000 0.0000
# 2 17.3732 81.7633 16.4545 0.0001 0.0000 0.0000
# 3 9.6550 16.4545 36.9586 0.0001 0.0000 0.0000
# 4 0.0000 0.0001 0.0001 30.3332 0.0000 0.0000
# 5 0.0000 0.0000 0.0000 0.0000 -11.3343 0.0000
# 6 0.0000 0.0000 0.0000 0.0000 0.0000 9.5787
#
#
#
# Elastic Compliance Matrix: (Units=1/GPa)
#
#
# Indices 1 2 3 4 5 6 
#
# 1 0.010276 -0.001805 -0.001881 0.000000 0.000000 0.000000
# 2 -0.001805 0.013751 -0.005651 0.000000 0.000000 0.000000
# 3 -0.001881 -0.005651 0.030064 0.000000 0.000000 0.000000
# 4 0.000000 0.000000 0.000000 0.032967 0.000000 0.000000
# 5 0.000000 0.000000 0.000000 0.000000 -0.088227 0.000000
# 6 0.000000 0.000000 0.000000 0.000000 0.000000 0.104399
#
#
# Mechanical properties :
#
#
# Convention : Reuss Voigt Hill
#
# Bulk Modulus (GPa) = 28.23372 34.20192 31.21782
# Shear Modulus (GPa) = 37.39444 17.54013 27.46728
#
# Velocity S-wave (km/s) = 4.46331 3.05682 3.82526
# Velocity P-wave (km/s) = 6.45000 5.53888 6.01173
#
# Compressibility (1/GPa) = 0.03541864
#
# Stress axis : x y z
#
# Youngs Moduli (GPa) = 97.31141 72.72128 33.26191
#
# Poissons Ratio (x) = 0.13126 0.06256
# Poissons Ratio (y) = 0.17565 0.18795
# Poissons Ratio (z) = 0.18304 0.41092
#
# Static dielectric constant tensor:
#      x y z
#    x 1.742080 0.000000 0.000000 
#    y 0.000000 1.687000 0.000000 
#    z 0.000000 0.000000 1.667110 
# 
# From -- ./inp_files/32980.got.cif
#   From: 2010.05.17/outbox.cif.g08.bks.cpg/sg74_17_cif.got.tgz:32980.got - 2010.06.03 17:57:02.
