data_PCOD9540098
_publ_section_title
;
Structure prediction by ZEFSAII (Michael W. Deem and Ramdas Pophale) SiO2 
 PCOD9540098
Probable space group: I M M A
;
_chemical_formula_sum "Si O2"
_cell_formula_units_Z 100
_cell_length_a 25.093091
_cell_length_b 19.970869
_cell_length_c 9.622234
_cell_angle_alpha 90.000000
_cell_angle_beta 90.000000
_cell_angle_gamma 90.000000
_cell_volume 4821.998141
_symmetry_space_group_name_H-M "I M M A"
_symmetry_group_IT_number 74
_symmetry_cell_setting 'orthorhombic'
loop_
_space_group_symop_operation_xyz
x,y,z
-x,1/2-y,z
x,-y,-z
-x,1/2+y,-z
-x,-y,-z
x,1/2+y,-z
-x,y,z
x,1/2-y,z
1/2+x,1/2+y,1/2+z
1/2-x,-y,1/2+z
1/2+x,1/2-y,1/2-z
1/2-x,y,1/2-z
1/2-x,1/2-y,1/2-z
1/2+x,y,1/2-z
1/2-x,1/2+y,1/2+z
1/2+x,-y,1/2+z
loop_
_atom_site_type_symbol
_atom_site_label
_atom_site_fract_x
_atom_site_fract_y
_atom_site_fract_z
Si Si1 0.692567 0.250000 0.681081
Si Si2 0.000000 0.250000 0.555078
Si Si3 0.382945 0.126576 0.283518
Si Si4 0.940491 0.886205 0.491577
Si Si5 0.298490 0.985673 0.657920
Si Si6 0.137963 0.610346 0.248619
Si Si7 0.439057 0.671925 0.457100
Si Si8 0.694733 0.250000 0.336247
O O1 0.750000 0.250000 0.750000
O O2 0.664205 0.183683 0.741336
O O3 0.697198 0.250000 0.508681
O O4 0.045564 0.309347 0.548724
O O5 0.349652 0.062910 0.337448
O O6 0.429605 0.153546 0.383851
O O7 0.339375 0.185773 0.288522
O O8 0.410885 0.111961 0.138266
O O9 0.897662 0.909860 0.379628
O O10 0.000000 0.918308 0.493480
O O11 0.250000 0.957662 0.750000
O O12 0.281763 0.000000 0.500000
O O13 0.317367 0.055696 0.722249
O O14 0.095771 0.618576 0.124290
O O15 0.500000 0.667767 0.412662
O O16 0.423012 0.750000 0.434606
O O17 0.750000 0.250000 0.250000
#
# Coordination Sequence:
#
# PCOD9540098 Si02
#       8
#     8   4  16  16  16  16  16   8
#     4  12  25  42  66  97 131 169 230 292 348 399
#     4   8  20  40  64 104 140 176 228 256 328 396
#     4  12  23  45  66 101 135 175 227 281 337 408
#     4  10  24  39  69 103 138 176 223 269 331 406
#     4  12  28  48  73  96 134 182 233 282 351 412
#     4  12  23  45  66 101 135 175 227 281 337 408
#     4  11  22  39  70 100 137 177 218 281 347 405
#     4  12  25  42  66  97 131 169 230 292 348 399
#
# _framework density 20.738291
#
# number of rings (size 3 to 8) (size 9 to 14) (size 15 to 20)
#    0.480    0.160    4.800    2.880    4.480    0.000 
#    0.000    4.800    0.000    0.000    0.000    0.000 
#    0.000    0.000    0.000    0.000    0.000    0.000 
#
# Total GULP energy -278539.415387 kJ/mol
# GULP energy per Si atom -5570.788308 kJ/mol
# Density = 2.069109 g / cm^3
# Si number density = 20.738291 Si / 1000 Ang^3
#
#
#
# Elastic Constant Matrix: (Units=GPa)
#
#
# Indices 1 2 3 4 5 6 
#
# 1 96.4474 -0.1417 33.1876 0.0000 0.0000 0.0000
# 2 -0.1417 56.4697 -25.5454 0.0000 0.0000 0.0000
# 3 33.1876 -25.5454 101.2416 0.0000 0.0000 0.0000
# 4 0.0000 0.0000 0.0000 5.2729 0.0000 0.0000
# 5 0.0000 0.0000 0.0000 0.0000 52.1486 0.0000
# 6 0.0000 0.0000 0.0000 0.0000 0.0000 19.6901
#
#
#
# Elastic Compliance Matrix: (Units=1/GPa)
#
#
# Indices 1 2 3 4 5 6 
#
# 1 0.011875 -0.001954 -0.004386 0.000000 0.000000 0.000000
# 2 -0.001954 0.020312 0.005766 0.000000 0.000000 0.000000
# 3 -0.004386 0.005766 0.012770 0.000000 0.000000 0.000000
# 4 0.000000 0.000000 0.000000 0.189650 0.000000 0.000000
# 5 0.000000 0.000000 0.000000 0.000000 0.019176 0.000000
# 6 0.000000 0.000000 0.000000 0.000000 0.000000 0.050787
#
#
# Mechanical properties :
#
#
# Convention : Reuss Voigt Hill
#
# Bulk Modulus (GPa) = 22.82677 29.90665 26.36671
# Shear Modulus (GPa) = 15.60937 31.86619 23.73778
#
# Velocity S-wave (km/s) = 2.74648 3.92419 3.38692
# Velocity P-wave (km/s) = 4.59223 5.91478 5.29496
#
# Compressibility (1/GPa) = 0.04380821
#
# Stress axis : x y z
#
# Youngs Moduli (GPa) = 84.21359 49.23209 78.30966
#
# Poissons Ratio (x) = 0.09621 0.34344
# Poissons Ratio (y) = 0.16457 -0.45151
# Poissons Ratio (z) = 0.36933 -0.28386
#
# Static dielectric constant tensor:
#      x y z
#    x 1.752690 0.000000 0.000000 
#    y 0.000000 1.742660 0.000000 
#    z 0.000000 0.000000 1.945790 
# 
# From -- ./inp_files/15248.got.cif
#   From: 2010.05.17/outbox.cif.g08.bks.cpg/sg74_8_cif.got.tgz:15248.got - 2010.06.03 17:57:02.
