data_PCOD9540837
_publ_section_title
;
Structure prediction by ZEFSAII (Michael W. Deem and Ramdas Pophale) SiO2 
 PCOD9540837
Probable space group: I M M A
;
_chemical_formula_sum "Si O2"
_cell_formula_units_Z 48
_cell_length_a 18.000000
_cell_length_b 24.000000
_cell_length_c 12.000000
_cell_angle_alpha 90.000000
_cell_angle_beta 90.000000
_cell_angle_gamma 90.000000
_cell_volume 5184.000000
_symmetry_space_group_name_H-M "I M M A"
_symmetry_group_IT_number 74
_symmetry_cell_setting 'orthorhombic'
loop_
_space_group_symop_operation_xyz
x,y,z
-x,1/2-y,z
x,-y,-z
-x,1/2+y,-z
-x,-y,-z
x,1/2+y,-z
-x,y,z
x,1/2-y,z
1/2+x,1/2+y,1/2+z
1/2-x,-y,1/2+z
1/2+x,1/2-y,1/2-z
1/2-x,y,1/2-z
1/2-x,1/2-y,1/2-z
1/2+x,y,1/2-z
1/2-x,1/2+y,1/2+z
1/2+x,-y,1/2+z
loop_
_atom_site_type_symbol
_atom_site_label
_atom_site_fract_x
_atom_site_fract_y
_atom_site_fract_z
Si Si1 0.164216 0.103953 0.233137
Si Si2 0.910502 0.511375 0.625484
Si Si3 0.590534 0.405931 0.729250
Si Si4 0.090690 0.313165 0.603924
Si Si5 0.915874 0.183758 0.359345
Si Si6 0.413662 0.933436 0.513689
O O1 0.250000 0.096049 0.250000
O O2 0.120648 0.067283 0.323583
O O3 0.137877 0.165716 0.261773
O O4 0.136723 0.085097 0.114047
O O5 0.886056 0.500000 0.500000
O O6 0.886315 0.461456 0.706309
O O7 0.000000 0.513270 0.625963
O O8 0.500000 0.406428 0.729243
O O9 0.616176 0.353240 0.798888
O O10 0.612699 0.407170 0.601719
O O11 0.115698 0.250000 0.619129
O O12 0.111081 0.335089 0.481631
O O13 0.000000 0.312866 0.603592
O O14 0.919833 0.250000 0.368345
O O15 0.000000 0.163184 0.339619
O O16 0.500000 0.918179 0.535643
O O17 0.412170 0.000000 0.500000
#
# Coordination Sequence:
#
# PCOD9540837 Si02
#       6
#    16  16  16  16  16  16
#     4  12  24  35  51  77 112 146 177 221 274 337
#     4  10  19  33  55  79 102 132 180 235 274 314
#     4   9  16  28  51  79 102 133 172 214 266 318
#     4   8  14  27  51  83 111 130 160 217 278 318
#     4   9  18  35  59  81 102 135 182 230 270 314
#     4  10  19  35  56  74 103 146 186 221 263 322
#
# _framework density 9.2592590000000001
#
# number of rings (size 3 to 8) (size 9 to 14) (size 15 to 20)
#    0.000    2.333    1.667    3.500    0.000    3.667 
#    0.000    0.833    0.000    3.000    0.000    2.333 
#    0.000    0.000    0.000    0.000    0.000    0.000 
#
# Total GULP energy -267488.158922 kJ/mol
# GULP energy per Si atom -5572.669978 kJ/mol
# Density = 0.923818 g / cm^3
# Si number density = 9.259259 Si / 1000 Ang^3
#
#
#
# Elastic Constant Matrix: (Units=GPa)
#
#
# Indices 1 2 3 4 5 6 
#
# 1 30.9803 18.6750 59.2932 0.0000 0.0000 0.0000
# 2 18.6750 54.2488 47.8028 0.0000 0.0000 0.0000
# 3 59.2932 47.8028 136.2427 0.0000 0.0000 0.0000
# 4 0.0000 0.0000 0.0000 19.7168 0.0000 0.0000
# 5 0.0000 0.0000 0.0000 0.0000 -179.5801 -0.0001
# 6 0.0000 0.0000 0.0000 0.0000 -0.0001 -969.4566
#
#
#
# Elastic Compliance Matrix: (Units=1/GPa)
#
#
# Indices 1 2 3 4 5 6 
#
# 1 0.197832 0.011238 -0.090040 0.000000 0.000000 0.000000
# 2 0.011238 0.027322 -0.014477 0.000000 0.000000 0.000000
# 3 -0.090040 -0.014477 0.051605 0.000000 0.000000 0.000000
# 4 0.000000 0.000000 0.000000 0.050718 0.000000 0.000000
# 5 0.000000 0.000000 0.000000 0.000000 -0.005569 0.000000
# 6 0.000000 0.000000 0.000000 0.000000 0.000000 -0.001032
#
#
# Mechanical properties :
#
#
# Convention : Reuss Voigt Hill
#
# Bulk Modulus (GPa) = 11.08639 52.55710 31.82174
# Shear Modulus (GPa) = 9.30228 -219.48392 -105.09082
#
# Velocity S-wave (km/s) = 2.24369 -10.89856 -7.54137
# Velocity P-wave (km/s) = 3.56537 11.39864 7.65563
#
# Compressibility (1/GPa) = 0.09020069
#
# Stress axis : x y z
#
# Youngs Moduli (GPa) = 5.05479 36.60087 19.37793
#
# Poissons Ratio (x) = -0.41132 1.74479
# Poissons Ratio (y) = -0.05681 0.28054
# Poissons Ratio (z) = 0.45513 0.52987
#
# Static dielectric constant tensor:
#      x y z
#    x 1.619690 0.000000 0.000000 
#    y 0.000000 1.733000 0.000000 
#    z 0.000000 0.000000 1.636920 
# 
# From -- ./inp_files/22435.got.cif
#   From: 2010.05.17/outbox.ucp.g08.bks.cvg/sg74_12_cif.got.tgz:22435.got - 2010.06.11 16:37:44.
