data_PCOD9540340
_publ_section_title
;
Structure prediction by ZEFSAII (Michael W. Deem and Ramdas Pophale) SiO2 
 PCOD9540340
Probable space group: I M M A
;
_chemical_formula_sum "Si O2"
_cell_formula_units_Z 120
_cell_length_a 17.425311
_cell_length_b 21.159984
_cell_length_c 16.609841
_cell_angle_alpha 90.000000
_cell_angle_beta 90.000000
_cell_angle_gamma 90.000000
_cell_volume 6124.368979
_symmetry_space_group_name_H-M "I M M A"
_symmetry_group_IT_number 74
_symmetry_cell_setting 'orthorhombic'
loop_
_space_group_symop_operation_xyz
x,y,z
-x,1/2-y,z
x,-y,-z
-x,1/2+y,-z
-x,-y,-z
x,1/2+y,-z
-x,y,z
x,1/2-y,z
1/2+x,1/2+y,1/2+z
1/2-x,-y,1/2+z
1/2+x,1/2-y,1/2-z
1/2-x,y,1/2-z
1/2-x,1/2-y,1/2-z
1/2+x,y,1/2-z
1/2-x,1/2+y,1/2+z
1/2+x,-y,1/2+z
loop_
_atom_site_type_symbol
_atom_site_label
_atom_site_fract_x
_atom_site_fract_y
_atom_site_fract_z
Si Si1 0.814966 0.177502 0.994270
Si Si2 0.909569 0.559965 0.939345
Si Si3 0.782543 0.505851 0.836512
Si Si4 0.122861 0.494705 0.405487
Si Si5 0.411527 0.367193 0.835705
Si Si6 0.860124 0.177952 0.501176
Si Si7 0.000000 0.898075 0.585103
Si Si8 0.684587 0.642788 0.312373
O O1 0.828907 0.250000 0.021654
O O2 0.727442 0.158596 0.018611
O O3 0.819199 0.176754 0.897127
O O4 0.873443 0.124309 0.025266
O O5 0.859028 0.541187 0.862342
O O6 0.000000 0.566863 0.924254
O O7 0.899349 0.500000 0.000000
O O8 0.750000 0.525380 0.750000
O O9 0.712987 0.517687 0.898421
O O10 0.798042 0.430785 0.832410
O O11 0.099182 0.500000 0.500000
O O12 0.107375 0.560311 0.359710
O O13 0.067531 0.441417 0.371651
O O14 0.500000 0.355097 0.849159
O O15 0.365707 0.327690 0.902118
O O16 0.389845 0.354663 0.743913
O O17 0.869179 0.250000 0.475581
O O18 0.930652 0.139300 0.464105
O O19 0.750000 0.664794 0.250000
#
# Coordination Sequence:
#
# PCOD9540340 Si02
#       8
#    16  16  16  16  16  16   8  16
#     4  11  24  43  67  94 124 169 224 263 310 384
#     4  11  24  42  68  95 129 170 216 274 328 375
#     4  11  22  38  62  91 129 165 208 258 321 381
#     4  12  20  32  56  86 120 161 204 254 308 361
#     4  12  22  35  53  84 125 170 212 250 302 371
#     4  11  22  36  55  81 121 167 209 254 304 371
#     4  12  22  32  52  86 119 157 207 257 316 362
#     4  11  21  36  57  88 128 174 209 257 303 371
#
# _framework density 19.593855000000001
#
# number of rings (size 3 to 8) (size 9 to 14) (size 15 to 20)
#    0.000    0.667    8.000    1.600    0.000    2.133 
#    1.200    0.000    0.000    0.400    0.000    0.000 
#    0.000    0.000    0.000    0.000    0.000    0.000 
#
# Total GULP energy -334004.870871 kJ/mol
# GULP energy per Si atom -5566.747848 kJ/mol
# Density = 1.954926 g / cm^3
# Si number density = 19.593855 Si / 1000 Ang^3
#
#
#
# Elastic Constant Matrix: (Units=GPa)
#
#
# Indices 1 2 3 4 5 6 
#
# 1 139.3749 40.9166 18.5117 0.0000 0.0000 0.0000
# 2 40.9166 71.1973 18.9750 0.0000 0.0000 0.0000
# 3 18.5117 18.9750 37.3307 0.0000 0.0000 0.0000
# 4 0.0000 0.0000 0.0000 13.3222 0.0000 0.0000
# 5 0.0000 0.0000 0.0000 0.0000 30.8249 0.0000
# 6 0.0000 0.0000 0.0000 0.0000 0.0000 -2.1922
#
#
#
# Elastic Compliance Matrix: (Units=1/GPa)
#
#
# Indices 1 2 3 4 5 6 
#
# 1 0.008767 -0.004487 -0.002066 0.000000 0.000000 0.000000
# 2 -0.004487 0.018543 -0.007200 0.000000 0.000000 0.000000
# 3 -0.002066 -0.007200 0.031472 0.000000 0.000000 0.000000
# 4 0.000000 0.000000 0.000000 0.075062 0.000000 0.000000
# 5 0.000000 0.000000 0.000000 0.000000 0.032441 0.000000
# 6 0.000000 0.000000 0.000000 0.000000 0.000000 -0.456164
#
#
# Mechanical properties :
#
#
# Convention : Reuss Voigt Hill
#
# Bulk Modulus (GPa) = 31.97530 44.96771 38.47151
# Shear Modulus (GPa) = -19.84556 19.69096 -0.07730
#
# Velocity S-wave (km/s) = -3.18598 3.17354 -0.19884
# Velocity P-wave (km/s) = 1.67945 6.03558 4.42994
#
# Compressibility (1/GPa) = 0.03127414
#
# Stress axis : x y z
#
# Youngs Moduli (GPa) = 114.06744 53.92763 31.77417
#
# Poissons Ratio (x) = 0.24200 0.06566
# Poissons Ratio (y) = 0.51188 0.22878
# Poissons Ratio (z) = 0.23570 0.38829
#
# Static dielectric constant tensor:
#      x y z
#    x 1.684020 0.000000 0.000000 
#    y 0.000000 1.731600 0.000000 
#    z 0.000000 0.000000 1.711360 
# 
# From -- ./inp_files/44491.got.cif
#   From: 2010.05.17/outbox.cif.g08.bks.cpg/sg74_23_cif.got.tgz:44491.got - 2010.06.03 17:57:02.
