data_PCOD9540957
_publ_section_title
;
Structure prediction by ZEFSAII (Michael W. Deem and Ramdas Pophale) SiO2 
 PCOD9540957
Probable space group: I M M A
;
_chemical_formula_sum "Si O2"
_cell_formula_units_Z 48
_cell_length_a 21.000000
_cell_length_b 9.000000
_cell_length_c 27.000000
_cell_angle_alpha 90.000000
_cell_angle_beta 90.000000
_cell_angle_gamma 90.000000
_cell_volume 5103.000000
_symmetry_space_group_name_H-M "I M M A"
_symmetry_group_IT_number 74
_symmetry_cell_setting 'orthorhombic'
loop_
_space_group_symop_operation_xyz
x,y,z
-x,1/2-y,z
x,-y,-z
-x,1/2+y,-z
-x,-y,-z
x,1/2+y,-z
-x,y,z
x,1/2-y,z
1/2+x,1/2+y,1/2+z
1/2-x,-y,1/2+z
1/2+x,1/2-y,1/2-z
1/2-x,y,1/2-z
1/2-x,1/2-y,1/2-z
1/2+x,y,1/2-z
1/2-x,1/2+y,1/2+z
1/2+x,-y,1/2+z
loop_
_atom_site_type_symbol
_atom_site_label
_atom_site_fract_x
_atom_site_fract_y
_atom_site_fract_z
Si Si1 0.929286 0.428057 0.553598
Si Si2 0.572478 0.427884 0.406513
Si Si3 0.926858 0.426367 0.798270
Si Si4 0.803130 0.427543 0.949289
Si Si5 0.812016 0.928509 0.376778
Si Si6 0.179144 0.573846 0.729534
O O1 0.922121 0.500000 0.500000
O O2 0.927188 0.250000 0.548235
O O3 0.871335 0.470525 0.588544
O O4 0.000000 0.467840 0.572982
O O5 0.500000 0.462205 0.423139
O O6 0.580452 0.250000 0.407161
O O7 0.578735 0.489374 0.350606
O O8 0.627755 0.505182 0.437679
O O9 0.917297 0.250000 0.806043
O O10 0.874511 0.489492 0.761052
O O11 0.000000 0.447638 0.780488
O O12 0.806775 0.250000 0.954373
O O13 0.753853 0.461970 0.905116
O O14 0.778772 0.500000 0.000000
O O15 0.813919 0.750000 0.368334
O O16 0.819527 0.014464 0.326028
O O17 0.167047 0.750000 0.731875
O O18 0.250000 0.545373 0.750000
#
# Coordination Sequence:
#
# PCOD9540957 Si02
#       6
#    16  16  16  16  16  16
#     4   9  18  34  56  81 110 143 179 220 267 320
#     4  10  21  38  60  85 114 147 184 229 280 336
#     4  10  21  38  61  87 115 149 188 231 281 337
#     4  11  23  38  58  83 113 149 189 235 284 336
#     4  10  22  38  56  81 112 147 187 231 279 330
#     4  11  24  39  57  83 114 149 189 234 282 333
#
# _framework density 9.4062319999999993
#
# number of rings (size 3 to 8) (size 9 to 14) (size 15 to 20)
#    0.000    1.833    0.000    3.500    0.000    9.000 
#    0.000    1.667    0.000    0.000    0.000    0.000 
#    0.000    0.000    0.000    0.000    0.000    0.000 
#
# Total GULP energy -268170.306014 kJ/mol
# GULP energy per Si atom -5586.881375 kJ/mol
# Density = 0.938482 g / cm^3
# Si number density = 9.406232 Si / 1000 Ang^3
#
#
#
# Elastic Constant Matrix: (Units=GPa)
#
#
# Indices 1 2 3 4 5 6 
#
# 1 77.4613 30.0995 19.2765 0.0000 0.0000 0.0000
# 2 30.0995 36.5619 9.5056 0.0000 0.0000 0.0000
# 3 19.2765 9.5056 42.2814 0.0000 0.0000 0.0000
# 4 0.0000 0.0000 0.0000 34.3271 0.0000 0.0000
# 5 0.0000 0.0000 0.0000 0.0000 34.5118 0.0000
# 6 0.0000 0.0000 0.0000 0.0000 0.0000 -71.9740
#
#
#
# Elastic Compliance Matrix: (Units=1/GPa)
#
#
# Indices 1 2 3 4 5 6 
#
# 1 0.020248 -0.015155 -0.005824 0.000000 0.000000 0.000000
# 2 -0.015155 0.040392 -0.002172 0.000000 0.000000 0.000000
# 3 -0.005824 -0.002172 0.026794 0.000000 0.000000 0.000000
# 4 0.000000 0.000000 0.000000 0.029132 0.000000 0.000000
# 5 0.000000 0.000000 0.000000 0.000000 0.028976 0.000000
# 6 0.000000 0.000000 0.000000 0.000000 0.000000 -0.013894
#
#
# Mechanical properties :
#
#
# Convention : Reuss Voigt Hill
#
# Bulk Modulus (GPa) = 24.31132 30.45196 27.38164
# Shear Modulus (GPa) = 26.08801 5.86785 15.97793
#
# Velocity S-wave (km/s) = 3.72794 1.76802 2.91748
# Velocity P-wave (km/s) = 5.61080 4.51554 5.09270
#
# Compressibility (1/GPa) = 0.04113310
#
# Stress axis : x y z
#
# Youngs Moduli (GPa) = 49.38810 24.75761 37.32110
#
# Poissons Ratio (x) = 0.37520 0.21736
# Poissons Ratio (y) = 0.74847 0.08104
# Poissons Ratio (z) = 0.28764 0.05376
#
# Static dielectric constant tensor:
#      x y z
#    x 1.638150 0.000000 0.000000 
#    y 0.000000 1.623960 0.000000 
#    z 0.000000 0.000000 1.622120 
# 
# From -- ./inp_files/68115.got.cif
#   From: 2010.05.17/outbox.ucp.g08.bks.cvg/sg74_35_cif.got.tgz:68115.got - 2010.06.11 16:37:44.
