data_PCOD9540304
_publ_section_title
;
Structure prediction by ZEFSAII (Michael W. Deem and Ramdas Pophale) SiO2 
 PCOD9540304
Probable space group: I M M A
;
_chemical_formula_sum "Si O2"
_cell_formula_units_Z 116
_cell_length_a 7.948522
_cell_length_b 27.718570
_cell_length_c 28.605916
_cell_angle_alpha 90.000000
_cell_angle_beta 90.000000
_cell_angle_gamma 90.000000
_cell_volume 6302.502998
_symmetry_space_group_name_H-M "I M M A"
_symmetry_group_IT_number 74
_symmetry_cell_setting 'orthorhombic'
loop_
_space_group_symop_operation_xyz
x,y,z
-x,1/2-y,z
x,-y,-z
-x,1/2+y,-z
-x,-y,-z
x,1/2+y,-z
-x,y,z
x,1/2-y,z
1/2+x,1/2+y,1/2+z
1/2-x,-y,1/2+z
1/2+x,1/2-y,1/2-z
1/2-x,y,1/2-z
1/2-x,1/2-y,1/2-z
1/2+x,y,1/2-z
1/2-x,1/2+y,1/2+z
1/2+x,-y,1/2+z
loop_
_atom_site_type_symbol
_atom_site_label
_atom_site_fract_x
_atom_site_fract_y
_atom_site_fract_z
Si Si1 0.195890 0.180976 0.804043
Si Si2 0.190565 0.418276 0.661462
Si Si3 0.202732 0.063449 0.042582
Si Si4 0.195137 0.980458 0.800960
Si Si5 0.796161 0.453208 0.938913
Si Si6 0.199592 0.107457 0.364950
Si Si7 0.702905 0.695283 0.802842
Si Si8 0.000000 0.750000 0.333950
O O1 0.500000 0.196878 0.690002
O O2 0.250000 0.187634 0.750000
O O3 0.200177 0.124557 0.817425
O O4 0.345885 0.208562 0.831455
O O5 0.214341 0.469936 0.686050
O O6 0.228155 0.427562 0.606870
O O7 0.000000 0.403153 0.668176
O O8 0.263704 0.101740 0.080314
O O9 0.000000 0.063304 0.043029
O O10 0.256531 0.009570 0.058715
O O11 0.255439 0.069478 0.988714
O O12 0.250000 0.962765 0.750000
O O13 0.225923 0.938907 0.838675
O O14 0.000000 0.992157 0.800320
O O15 0.000000 0.452761 0.936459
O O16 0.263952 0.156003 0.340106
O O17 0.000000 0.105522 0.357939
O O18 0.500000 0.696737 0.805459
O O19 0.765758 0.750000 0.810524
O O20 0.750000 0.680856 0.750000
#
# Coordination Sequence:
#
# PCOD9540304 Si02
#       8
#    16  16  16  16  16  16  16   4
#     4  12  24  40  63  89 120 154 194 247 295 348
#     4  12  23  38  55  85 117 150 190 232 285 345
#     4   9  18  33  54  80 109 145 186 230 277 335
#     4  12  24  37  52  73 111 154 186 222 272 336
#     4   9  18  34  55  79 111 148 185 229 284 335
#     4  11  21  33  52  81 109 142 187 227 279 338
#     4   9  19  35  53  75 106 141 182 233 278 326
#     4  12  24  44  62  94 116 152 202 242 300 342
#
# _framework density 18.405384999999999
#
# number of rings (size 3 to 8) (size 9 to 14) (size 15 to 20)
#    0.000    1.379    2.759    4.966    0.000    2.759 
#    0.000    1.379    0.000    0.000    1.793    0.000 
#    0.000    0.000    0.000    0.000    0.000    0.000 
#
# Total GULP energy -323279.792587 kJ/mol
# GULP energy per Si atom -5573.789527 kJ/mol
# Density = 1.836349 g / cm^3
# Si number density = 18.405385 Si / 1000 Ang^3
#
#
#
# Elastic Constant Matrix: (Units=GPa)
#
#
# Indices 1 2 3 4 5 6 
#
# 1 83.6382 11.2756 3.6838 0.0000 0.0000 0.0000
# 2 11.2756 62.2062 10.3281 0.0000 0.0000 0.0000
# 3 3.6838 10.3281 64.0358 0.0000 0.0000 0.0000
# 4 0.0000 0.0000 0.0000 6.9419 0.0000 0.0000
# 5 0.0000 0.0000 0.0000 0.0000 24.2525 0.0000
# 6 0.0000 0.0000 0.0000 0.0000 0.0000 18.5331
#
#
#
# Elastic Compliance Matrix: (Units=1/GPa)
#
#
# Indices 1 2 3 4 5 6 
#
# 1 0.012264 -0.002164 -0.000357 0.000000 0.000000 0.000000
# 2 -0.002164 0.016900 -0.002601 0.000000 0.000000 0.000000
# 3 -0.000357 -0.002601 0.016056 0.000000 0.000000 0.000000
# 4 0.000000 0.000000 0.000000 0.144053 0.000000 0.000000
# 5 0.000000 0.000000 0.000000 0.000000 0.041233 0.000000
# 6 0.000000 0.000000 0.000000 0.000000 0.000000 0.053957
#
#
# Mechanical properties :
#
#
# Convention : Reuss Voigt Hill
#
# Bulk Modulus (GPa) = 28.59048 28.93949 28.76498
# Shear Modulus (GPa) = 16.32040 22.25169 19.28604
#
# Velocity S-wave (km/s) = 2.98101 3.48081 3.24056
# Velocity P-wave (km/s) = 5.23604 5.64909 5.44648
#
# Compressibility (1/GPa) = 0.03497668
#
# Stress axis : x y z
#
# Youngs Moduli (GPa) = 81.54173 59.17285 62.28082
#
# Poissons Ratio (x) = 0.12803 0.02220
# Poissons Ratio (y) = 0.17643 0.16201
# Poissons Ratio (z) = 0.02907 0.15392
#
# Static dielectric constant tensor:
#      x y z
#    x 1.662230 0.000000 0.000000 
#    y 0.000000 1.636290 0.000000 
#    z 0.000000 0.000000 1.628390 
# 
# From -- ./inp_files/71070.got.cif
#   From: 2010.05.17/outbox.cif.g08.bks.cpg/sg74_36_cif.got.tgz:71070.got - 2010.06.03 17:57:02.
