data_PCOD9540951
_publ_section_title
;
Structure prediction by ZEFSAII (Michael W. Deem and Ramdas Pophale) SiO2 
 PCOD9540951
Probable space group: I M M A
;
_chemical_formula_sum "Si O2"
_cell_formula_units_Z 48
_cell_length_a 15.000000
_cell_length_b 15.000000
_cell_length_c 21.000000
_cell_angle_alpha 90.000000
_cell_angle_beta 90.000000
_cell_angle_gamma 90.000000
_cell_volume 4725.000000
_symmetry_space_group_name_H-M "I M M A"
_symmetry_group_IT_number 74
_symmetry_cell_setting 'orthorhombic'
loop_
_space_group_symop_operation_xyz
x,y,z
-x,1/2-y,z
x,-y,-z
-x,1/2+y,-z
-x,-y,-z
x,1/2+y,-z
-x,y,z
x,1/2-y,z
1/2+x,1/2+y,1/2+z
1/2-x,-y,1/2+z
1/2+x,1/2-y,1/2-z
1/2-x,y,1/2-z
1/2-x,1/2-y,1/2-z
1/2+x,y,1/2-z
1/2-x,1/2+y,1/2+z
1/2+x,-y,1/2+z
loop_
_atom_site_type_symbol
_atom_site_label
_atom_site_fract_x
_atom_site_fract_y
_atom_site_fract_z
Si Si1 0.205865 0.853749 0.526240
Si Si2 0.601938 0.854226 0.850354
Si Si3 0.105219 0.151593 0.839046
Si Si4 0.897465 0.396173 0.983143
Si Si5 0.152215 0.021569 0.724884
Si Si6 0.392471 0.142382 0.897144
O O1 0.180656 0.750000 0.526949
O O2 0.165909 0.887773 0.592662
O O3 0.312919 0.860404 0.522470
O O4 0.158014 0.888241 0.461864
O O5 0.500000 0.854696 0.874155
O O6 0.622544 0.750000 0.833137
O O7 0.608712 0.927276 0.794454
O O8 0.145393 0.250000 0.825226
O O9 0.131172 0.120079 0.909746
O O10 0.116963 0.080157 0.783719
O O11 0.000000 0.162476 0.843953
O O12 0.000000 0.361246 0.992451
O O13 0.901700 0.500000 0.000000
O O14 0.250000 0.999644 0.750000
O O15 0.143702 0.086486 0.663217
O O16 0.500000 0.128814 0.901937
O O17 0.378225 0.250000 0.888374
#
# Coordination Sequence:
#
# PCOD9540951 Si02
#       6
#    16  16  16  16  16  16
#     4  10  21  37  63  93 122 161 209 261 319 374
#     4  10  23  44  66  89 121 163 213 268 323 376
#     4  10  21  39  62  88 122 164 206 249 305 370
#     4  10  22  38  60  90 127 166 206 255 310 376
#     4  12  25  37  59  90 124 167 208 257 309 375
#     4  10  21  38  61  96 137 169 206 256 309 374
#
# _framework density 10.15873
#
# number of rings (size 3 to 8) (size 9 to 14) (size 15 to 20)
#    0.000    1.667    0.000    4.000    4.667    7.333 
#    0.000    1.667    0.000    0.000    0.000    0.000 
#    0.000    0.000    0.000    0.000    0.000    0.000 
#
# Total GULP energy -267740.507699 kJ/mol
# GULP energy per Si atom -5577.927244 kJ/mol
# Density = 1.013561 g / cm^3
# Si number density = 10.158730 Si / 1000 Ang^3
#
#
#
# Elastic Constant Matrix: (Units=GPa)
#
#
# Indices 1 2 3 4 5 6 
#
# 1 94.9516 18.2602 42.1062 0.0000 0.0000 0.0000
# 2 18.2602 107.7153 49.6131 0.0000 0.0000 0.0000
# 3 42.1062 49.6131 73.5694 0.0000 0.0000 0.0000
# 4 0.0000 0.0000 0.0000 35.2618 0.0000 0.0000
# 5 0.0000 0.0000 0.0000 0.0000 10.8204 0.0000
# 6 0.0000 0.0000 0.0000 0.0000 0.0000 31.7240
#
#
#
# Elastic Compliance Matrix: (Units=1/GPa)
#
#
# Indices 1 2 3 4 5 6 
#
# 1 0.014395 0.001965 -0.009564 0.000000 0.000000 0.000000
# 2 0.001965 0.013735 -0.010387 0.000000 0.000000 0.000000
# 3 -0.009564 -0.010387 0.026071 0.000000 0.000000 0.000000
# 4 0.000000 0.000000 0.000000 0.028359 0.000000 0.000000
# 5 0.000000 0.000000 0.000000 0.000000 0.092418 0.000000
# 6 0.000000 0.000000 0.000000 0.000000 0.000000 0.031522
#
#
# Mechanical properties :
#
#
# Convention : Reuss Voigt Hill
#
# Bulk Modulus (GPa) = 54.85776 55.13279 54.99528
# Shear Modulus (GPa) = 20.11693 26.64503 23.38098
#
# Velocity S-wave (km/s) = 3.15005 3.62530 3.39600
# Velocity P-wave (km/s) = 6.34739 6.68718 6.51950
#
# Compressibility (1/GPa) = 0.01822896
#
# Stress axis : x y z
#
# Youngs Moduli (GPa) = 69.46954 72.80789 38.35729
#
# Poissons Ratio (x) = -0.14304 0.36683
# Poissons Ratio (y) = -0.13648 0.39841
# Poissons Ratio (z) = 0.66437 0.75624
#
# Static dielectric constant tensor:
#      x y z
#    x 1.581870 0.000000 0.000000 
#    y 0.000000 1.799400 0.000000 
#    z 0.000000 0.000000 1.729270 
# 
# From -- ./inp_files/51890.got.cif
#   From: 2010.05.17/outbox.ucp.g08.bks.cvg/sg74_26_cif.got.tgz:51890.got - 2010.06.11 16:37:44.
