data_PCOD9540564
_publ_section_title
;
Structure prediction by ZEFSAII (Michael W. Deem and Ramdas Pophale) SiO2 
 PCOD9540564
Probable space group: I M M A
;
_chemical_formula_sum "Si O2"
_cell_formula_units_Z 92
_cell_length_a 21.623323
_cell_length_b 14.919528
_cell_length_c 12.496676
_cell_angle_alpha 90.000000
_cell_angle_beta 90.000000
_cell_angle_gamma 90.000000
_cell_volume 4031.549807
_symmetry_space_group_name_H-M "I M M A"
_symmetry_group_IT_number 74
_symmetry_cell_setting 'orthorhombic'
loop_
_space_group_symop_operation_xyz
x,y,z
-x,1/2-y,z
x,-y,-z
-x,1/2+y,-z
-x,-y,-z
x,1/2+y,-z
-x,y,z
x,1/2-y,z
1/2+x,1/2+y,1/2+z
1/2-x,-y,1/2+z
1/2+x,1/2-y,1/2-z
1/2-x,y,1/2-z
1/2-x,1/2-y,1/2-z
1/2+x,y,1/2-z
1/2-x,1/2+y,1/2+z
1/2+x,-y,1/2+z
loop_
_atom_site_type_symbol
_atom_site_label
_atom_site_fract_x
_atom_site_fract_y
_atom_site_fract_z
Si Si1 0.327347 0.250000 0.576089
Si Si2 0.071574 0.606877 0.159949
Si Si3 0.070523 0.358365 0.594366
Si Si4 0.000000 0.750000 0.901397
Si Si5 0.639250 0.357898 0.117850
Si Si6 0.271150 0.902046 0.550423
Si Si7 0.902738 0.403922 0.156498
O O1 0.378884 0.328200 0.606758
O O2 0.276702 0.171951 0.542136
O O3 0.085432 0.608585 0.287189
O O4 0.078261 0.504119 0.124992
O O5 0.000000 0.636979 0.144425
O O6 0.073200 0.250000 0.599915
O O7 0.113556 0.387266 0.497491
O O8 0.000000 0.383908 0.569589
O O9 0.946520 0.671327 0.892126
O O10 0.635999 0.250000 0.124738
O O11 0.710122 0.387769 0.120508
O O12 0.598198 0.394470 0.214902
O O13 0.332813 0.886558 0.619440
O O14 0.271516 0.000000 0.500000
#
# Coordination Sequence:
#
# PCOD9540564 Si02
#       7
#     8  16  16   4  16  16  16
#     4  12  24  49  75  95 143 193 237 299 343 418
#     4  11  23  45  71 106 140 186 233 294 370 429
#     4   9  20  39  69 103 141 177 230 292 365 434
#     4  12  26  46  70 106 148 184 238 300 354 438
#     4  11  25  44  73 102 143 192 239 296 370 424
#     4  12  27  49  69 104 145 193 247 296 350 435
#     4  12  26  46  71 105 146 188 238 296 364 428
#
# _framework density 22.820008999999999
#
# number of rings (size 3 to 8) (size 9 to 14) (size 15 to 20)
#    0.000    0.870    5.217    1.304    3.652    0.696 
#    6.261    4.783    0.000    0.000    0.000    0.000 
#    0.000    0.000    0.000    0.000    0.000    0.000 
#
# Total GULP energy -256097.597147 kJ/mol
# GULP energy per Si atom -5567.339068 kJ/mol
# Density = 2.276807 g / cm^3
# Si number density = 22.820009 Si / 1000 Ang^3
#
#
#
# Elastic Constant Matrix: (Units=GPa)
#
#
# Indices 1 2 3 4 5 6 
#
# 1 45.2129 18.7084 25.5599 0.0000 0.0000 0.0000
# 2 18.7084 179.4873 5.5402 0.0000 0.0000 0.0000
# 3 25.5599 5.5402 79.1373 0.0000 0.0000 0.0000
# 4 0.0000 0.0000 0.0000 26.8025 0.0000 0.0000
# 5 0.0000 0.0000 0.0000 0.0000 14.5366 0.0000
# 6 0.0000 0.0000 0.0000 0.0000 0.0000 20.1503
#
#
#
# Elastic Compliance Matrix: (Units=1/GPa)
#
#
# Indices 1 2 3 4 5 6 
#
# 1 0.028281 -0.002672 -0.008947 0.000000 0.000000 0.000000
# 2 -0.002672 0.005836 0.000454 0.000000 0.000000 0.000000
# 3 -0.008947 0.000454 0.015494 0.000000 0.000000 0.000000
# 4 0.000000 0.000000 0.000000 0.037310 0.000000 0.000000
# 5 0.000000 0.000000 0.000000 0.000000 0.068792 0.000000
# 6 0.000000 0.000000 0.000000 0.000000 0.000000 0.049627
#
#
# Mechanical properties :
#
#
# Convention : Reuss Voigt Hill
#
# Bulk Modulus (GPa) = 36.65398 44.82828 40.74113
# Shear Modulus (GPa) = 21.11814 29.23316 25.17565
#
# Velocity S-wave (km/s) = 3.04538 3.58303 3.32509
# Velocity P-wave (km/s) = 5.33506 6.06667 5.71259
#
# Compressibility (1/GPa) = 0.02728216
#
# Stress axis : x y z
#
# Youngs Moduli (GPa) = 35.35922 171.35405 64.54003
#
# Poissons Ratio (x) = 0.45779 0.57746
# Poissons Ratio (y) = 0.09447 -0.02932
# Poissons Ratio (z) = 0.31637 -0.07785
#
# Static dielectric constant tensor:
#      x y z
#    x 1.814400 0.000000 0.000000 
#    y 0.000000 1.816040 0.000000 
#    z 0.000000 0.000000 1.908780 
# 
# From -- ./inp_files/35311.got.cif
#   From: 2010.05.17/outbox.cif.g08.bks.cpg/sg74_18_cif.got.tgz:35311.got - 2010.06.03 17:57:02.
