data_PCOD9540585
_publ_section_title
;
Structure prediction by ZEFSAII (Michael W. Deem and Ramdas Pophale) SiO2 
 PCOD9540585
Probable space group: I M M A
;
_chemical_formula_sum "Si O2"
_cell_formula_units_Z 64
_cell_length_a 8.549735
_cell_length_b 31.265118
_cell_length_c 12.868650
_cell_angle_alpha 90.000000
_cell_angle_beta 90.000000
_cell_angle_gamma 90.000000
_cell_volume 3439.899189
_symmetry_space_group_name_H-M "I M M A"
_symmetry_group_IT_number 74
_symmetry_cell_setting 'orthorhombic'
loop_
_space_group_symop_operation_xyz
x,y,z
-x,1/2-y,z
x,-y,-z
-x,1/2+y,-z
-x,-y,-z
x,1/2+y,-z
-x,y,z
x,1/2-y,z
1/2+x,1/2+y,1/2+z
1/2-x,-y,1/2+z
1/2+x,1/2-y,1/2-z
1/2-x,y,1/2-z
1/2-x,1/2-y,1/2-z
1/2+x,y,1/2-z
1/2-x,1/2+y,1/2+z
1/2+x,-y,1/2+z
loop_
_atom_site_type_symbol
_atom_site_label
_atom_site_fract_x
_atom_site_fract_y
_atom_site_fract_z
Si Si1 0.500000 0.546839 0.635167
Si Si2 0.308443 0.890774 0.146063
Si Si3 0.250000 0.395643 0.250000
Si Si4 0.679879 0.250000 0.364991
Si Si5 0.500000 0.948640 0.385819
Si Si6 0.824619 0.835108 0.558828
O O1 0.358086 0.572545 0.685083
O O2 0.500000 0.550256 0.510984
O O3 0.500000 0.496548 0.659413
O O4 0.500000 0.901351 0.150968
O O5 0.250000 0.866395 0.250000
O O6 0.168726 0.926907 0.142884
O O7 0.285585 0.863759 0.041188
O O8 0.180349 0.364469 0.337960
O O9 0.500000 0.250000 0.346620
O O10 0.750000 0.250000 0.250000
O O11 0.722680 0.206657 0.424320
O O12 0.000000 0.819244 0.544390
#
# Coordination Sequence:
#
# PCOD9540585 Si02
#       6
#     8  16   8   8   8  16
#     4  11  26  40  61  97 132 177 216 283 331 399
#     4  11  24  42  71  95 127 180 226 275 328 398
#     4  12  22  39  64  92 132 168 214 267 338 392
#     4  12  26  38  65  98 133 172 211 270 332 408
#     4  11  24  46  63  93 138 173 232 273 333 395
#     4  11  24  42  64  96 130 168 216 269 329 399
#
# _framework density 18.605194999999998
#
# number of rings (size 3 to 8) (size 9 to 14) (size 15 to 20)
#    0.000    0.750    6.250    1.125    5.250    0.000 
#    0.000    1.875    0.000    0.000    0.000    0.000 
#    0.000    0.000    0.000    0.000    0.000    0.000 
#
# Total GULP energy -178169.572973 kJ/mol
# GULP energy per Si atom -5567.799155 kJ/mol
# Density = 1.856285 g / cm^3
# Si number density = 18.605195 Si / 1000 Ang^3
#
#
#
# Elastic Constant Matrix: (Units=GPa)
#
#
# Indices 1 2 3 4 5 6 
#
# 1 135.1835 70.5470 29.8294 0.0000 0.0000 0.0000
# 2 70.5470 101.9162 31.0997 0.0000 0.0000 0.0000
# 3 29.8294 31.0997 106.3663 0.0000 0.0000 0.0000
# 4 0.0000 0.0000 0.0000 -0.0330 0.0000 0.0000
# 5 0.0000 0.0000 0.0000 0.0000 30.8801 0.0000
# 6 0.0000 0.0000 0.0000 0.0000 0.0000 39.6636
#
#
#
# Elastic Compliance Matrix: (Units=1/GPa)
#
#
# Indices 1 2 3 4 5 6 
#
# 1 0.011677 -0.007777 -0.001001 -0.000005 0.000000 0.000000
# 2 -0.007777 0.015953 -0.002483 0.000006 0.000000 0.000000
# 3 -0.001001 -0.002483 0.010408 0.000005 0.000000 0.000000
# 4 -0.000005 0.000006 0.000005-30.302497 0.000006 0.000010
# 5 0.000000 0.000000 0.000000 0.000006 0.032383 0.000000
# 6 0.000000 0.000000 0.000000 0.000010 0.000000 0.025212
#
#
# Mechanical properties :
#
#
# Convention : Reuss Voigt Hill
#
# Bulk Modulus (GPa) = 64.45188 67.37978 65.91583
# Shear Modulus (GPa) = -0.16568 28.23480 14.03456
#
# Velocity S-wave (km/s) = -0.29873 3.89983 2.74950
# Velocity P-wave (km/s) = 5.88201 7.52147 6.75169
#
# Compressibility (1/GPa) = 0.01551545
#
# Stress axis : x y z
#
# Youngs Moduli (GPa) = 85.63896 62.68251 96.07806
#
# Poissons Ratio (x) = 0.48751 0.09614
# Poissons Ratio (y) = 0.66606 0.23860
# Poissons Ratio (z) = 0.08570 0.15566
#
# Static dielectric constant tensor:
#      x y z
#    x 1.740190 0.000000 0.000000 
#    y 0.000000 1.639050 0.000000 
#    z 0.000000 0.000000 2.286950 
# 
# From -- ./inp_files/17646.got.cif
#   From: 2010.05.17/outbox.cif.g08.bks.cpg/sg74_9_cif.got.tgz:17646.got - 2010.06.03 17:57:02.
