data_PCOD9540700
_publ_section_title
;
Structure prediction by ZEFSAII (Michael W. Deem and Ramdas Pophale) SiO2 
 PCOD9540700
Probable space group: I M M A
;
_chemical_formula_sum "Si O2"
_cell_formula_units_Z 64
_cell_length_a 29.568040
_cell_length_b 11.030016
_cell_length_c 6.959932
_cell_angle_alpha 90.000000
_cell_angle_beta 90.000000
_cell_angle_gamma 90.000000
_cell_volume 2269.884065
_symmetry_space_group_name_H-M "I M M A"
_symmetry_group_IT_number 74
_symmetry_cell_setting 'orthorhombic'
loop_
_space_group_symop_operation_xyz
x,y,z
-x,1/2-y,z
x,-y,-z
-x,1/2+y,-z
-x,-y,-z
x,1/2+y,-z
-x,y,z
x,1/2-y,z
1/2+x,1/2+y,1/2+z
1/2-x,-y,1/2+z
1/2+x,1/2-y,1/2-z
1/2-x,y,1/2-z
1/2-x,1/2-y,1/2-z
1/2+x,y,1/2-z
1/2-x,1/2+y,1/2+z
1/2+x,-y,1/2+z
loop_
_atom_site_type_symbol
_atom_site_label
_atom_site_fract_x
_atom_site_fract_y
_atom_site_fract_z
Si Si1 0.850768 0.489414 0.730386
Si Si2 0.768927 0.750000 0.460315
Si Si3 0.450052 0.480963 0.766215
Si Si4 0.750000 0.469278 0.250000
Si Si5 0.547318 0.250000 0.208023
Si Si6 0.357720 0.750000 0.838065
O O1 0.853521 0.500000 0.500000
O O2 0.899536 0.433212 0.787324
O O3 0.798272 0.461211 0.770650
O O4 0.851728 0.631625 0.790798
O O5 0.750000 0.750000 0.250000
O O6 0.755082 0.628257 0.575965
O O7 0.823102 0.750000 0.486954
O O8 0.500000 0.427403 0.720672
O O9 0.449964 0.500000 0.000000
O O10 0.451101 0.620701 0.686472
O O11 0.500000 0.250000 0.098661
O O12 0.591897 0.250000 0.081201
#
# Coordination Sequence:
#
# PCOD9540700 Si02
#       6
#    16   8  16   8   8   8
#     4   9  16  28  44  66  98 129 161 208 250 296
#     4   9  17  32  53  71  91 127 168 207 249 297
#     4   8  13  21  36  59  88 121 156 197 244 290
#     4   9  18  32  48  71  98 128 164 203 254 301
#     4   8  12  19  34  57  83 110 143 186 234 280
#     4   8  15  27  42  62  88 120 157 193 236 290
#
# _framework density 28.195270000000001
#
# number of rings (size 3 to 8) (size 9 to 14) (size 15 to 20)
#    0.000    3.500    0.000    0.750    0.000    0.000 
#    9.000    0.000    0.000    0.000    0.000    1.750 
#    0.000    1.000    0.000    1.750    0.000    0.250 
#
# Total GULP energy -178282.262254 kJ/mol
# GULP energy per Si atom -5571.320695 kJ/mol
# Density = 2.813110 g / cm^3
# Si number density = 28.195270 Si / 1000 Ang^3
#
#
#
# Elastic Constant Matrix: (Units=GPa)
#
#
# Indices 1 2 3 4 5 6 
#
# 1 428.4652 40.2670 73.5358 0.0000 0.0000 0.0000
# 2 40.2670 53.3196 -21.7155 0.0001 0.0001 0.0000
# 3 73.5358 -21.7155 113.8228 0.0006 0.0003 0.0002
# 4 0.0000 0.0001 0.0006 7.1192 0.0001 0.0001
# 5 0.0000 0.0001 0.0003 0.0001 34.3692 0.0000
# 6 0.0000 0.0000 0.0002 0.0001 0.0000 26.6482
#
#
#
# Elastic Compliance Matrix: (Units=1/GPa)
#
#
# Indices 1 2 3 4 5 6 
#
# 1 0.003115 -0.003440 -0.002669 0.000000 0.000000 0.000000
# 2 -0.003440 0.024132 0.006826 -0.000001 0.000000 0.000000
# 3 -0.002669 0.006826 0.011812 -0.000001 0.000000 0.000000
# 4 0.000000 -0.000001 -0.000001 0.140466 -0.000001 0.000000
# 5 0.000000 0.000000 0.000000 -0.000001 0.029096 0.000000
# 6 0.000000 0.000000 0.000000 0.000000 0.000000 0.037526
#
#
# Mechanical properties :
#
#
# Convention : Reuss Voigt Hill
#
# Bulk Modulus (GPa) = 24.69411 86.64247 55.66829
# Shear Modulus (GPa) = 19.36410 47.19536 33.27973
#
# Velocity S-wave (km/s) = 2.62350 4.09574 3.43932
# Velocity P-wave (km/s) = 4.23725 7.29129 5.96310
#
# Compressibility (1/GPa) = 0.04049548
#
# Stress axis : x y z
#
# Youngs Moduli (GPa) = 321.00796 41.43802 84.65906
#
# Poissons Ratio (x) = 0.14253 0.22594
# Poissons Ratio (y) = 1.10411 -0.57790
# Poissons Ratio (z) = 0.85670 -0.28286
#
# Static dielectric constant tensor:
#      x y z
#    x 2.209670 0.000000 0.000000 
#    y 0.000000 2.416710 0.000000 
#    z 0.000000 0.000000 2.252420 
# 
# From -- ./inp_files/15911.got.cif
#   From: 2010.05.17/outbox.cif.g08.bks.cpg/sg74_8_cif.got.tgz:15911.got - 2010.06.03 17:57:02.
