data_PCOD9540666
_publ_section_title
;
Structure prediction by ZEFSAII (Michael W. Deem and Ramdas Pophale) SiO2 
 PCOD9540666
Probable space group: I M M A
;
_chemical_formula_sum "Si O2"
_cell_formula_units_Z 64
_cell_length_a 8.447647
_cell_length_b 25.798535
_cell_length_c 13.345560
_cell_angle_alpha 90.000000
_cell_angle_beta 90.000000
_cell_angle_gamma 90.000000
_cell_volume 2908.490199
_symmetry_space_group_name_H-M "I M M A"
_symmetry_group_IT_number 74
_symmetry_cell_setting 'orthorhombic'
loop_
_space_group_symop_operation_xyz
x,y,z
-x,1/2-y,z
x,-y,-z
-x,1/2+y,-z
-x,-y,-z
x,1/2+y,-z
-x,y,z
x,1/2-y,z
1/2+x,1/2+y,1/2+z
1/2-x,-y,1/2+z
1/2+x,1/2-y,1/2-z
1/2-x,y,1/2-z
1/2-x,1/2-y,1/2-z
1/2+x,y,1/2-z
1/2-x,1/2+y,1/2+z
1/2+x,-y,1/2+z
loop_
_atom_site_type_symbol
_atom_site_label
_atom_site_fract_x
_atom_site_fract_y
_atom_site_fract_z
Si Si1 0.819557 0.427083 0.653615
Si Si2 0.000000 0.005873 0.880447
Si Si3 0.000000 0.807054 0.673229
Si Si4 0.264494 0.843499 0.991851
Si Si5 0.000000 0.110905 0.148554
Si Si6 0.196558 0.750000 0.365386
O O1 0.750000 0.396189 0.750000
O O2 0.671065 0.466538 0.640295
O O3 0.833830 0.389628 0.559238
O O4 0.000000 0.447448 0.671953
O O5 0.000000 0.949760 0.828171
O O6 0.000000 0.000000 0.000000
O O7 0.141558 0.813922 0.595234
O O8 0.000000 0.750000 0.720718
O O9 0.000000 0.852419 0.754557
O O10 0.140979 0.873940 0.924536
O O11 0.233837 0.799401 0.074612
O O12 0.250000 0.750000 0.250000
O O13 0.000000 0.750000 0.372824
#
# Coordination Sequence:
#
# PCOD9540666 Si02
#       6
#    16   8   8  16   8   8
#     4  12  25  47  81 111 154 205 250 322 399 455
#     4  12  26  55  71 115 155 194 270 326 375 475
#     4  12  26  51  75 109 156 203 261 316 375 467
#     4  12  24  48  74 109 153 194 249 317 383 460
#     4  12  30  46  76 108 148 204 258 310 382 464
#     4  12  26  46  73 113 148 188 249 309 381 472
#
# _framework density 22.004543999999999
#
# number of rings (size 3 to 8) (size 9 to 14) (size 15 to 20)
#    0.000    0.000    7.500    1.500    3.500    3.500 
#    2.250    0.000    0.000    0.000    0.000    0.000 
#    0.000    0.000    0.000    0.000    0.000    0.000 
#
# Total GULP energy -178239.913053 kJ/mol
# GULP energy per Si atom -5569.997283 kJ/mol
# Density = 2.195446 g / cm^3
# Si number density = 22.004544 Si / 1000 Ang^3
#
#
#
# Elastic Constant Matrix: (Units=GPa)
#
#
# Indices 1 2 3 4 5 6 
#
# 1 109.5585 52.4436 27.1088 0.0000 0.0000 0.0000
# 2 52.4436 162.1137 50.5723 0.0000 0.0000 0.0000
# 3 27.1088 50.5723 150.8899 0.0000 0.0000 0.0001
# 4 0.0000 0.0000 0.0000 45.8416 0.0000 0.0000
# 5 0.0000 0.0000 0.0000 0.0000 37.5897 0.0000
# 6 0.0000 0.0000 0.0001 0.0000 0.0000 13.9135
#
#
#
# Elastic Compliance Matrix: (Units=1/GPa)
#
#
# Indices 1 2 3 4 5 6 
#
# 1 0.010901 -0.003256 -0.000867 0.000000 0.000000 0.000000
# 2 -0.003256 0.007861 -0.002050 0.000000 0.000000 0.000000
# 3 -0.000867 -0.002050 0.007470 0.000000 0.000000 0.000000
# 4 0.000000 0.000000 0.000000 0.021814 0.000000 0.000000
# 5 0.000000 0.000000 0.000000 0.000000 0.026603 0.000000
# 6 0.000000 0.000000 0.000000 0.000000 0.000000 0.071872
#
#
# Mechanical properties :
#
#
# Convention : Reuss Voigt Hill
#
# Bulk Modulus (GPa) = 72.01315 75.86795 73.94055
# Shear Modulus (GPa) = 30.58177 38.96480 34.77329
#
# Velocity S-wave (km/s) = 3.73204 4.21261 3.97958
# Velocity P-wave (km/s) = 7.16717 7.62985 7.40213
#
# Compressibility (1/GPa) = 0.01388635
#
# Stress axis : x y z
#
# Youngs Moduli (GPa) = 91.73790 127.20673 133.86578
#
# Poissons Ratio (x) = 0.41416 0.11609
# Poissons Ratio (y) = 0.29868 0.27440
# Poissons Ratio (z) = 0.07955 0.26075
#
# Static dielectric constant tensor:
#      x y z
#    x 1.837400 0.000000 0.000000 
#    y 0.000000 1.816910 0.000000 
#    z 0.000000 0.000000 1.789420 
# 
# From -- ./inp_files/28894.got.cif
#   From: 2010.05.17/outbox.cif.g08.bks.cpg/sg74_15_cif.got.tgz:28894.got - 2010.06.03 17:57:02.
