data_PCOD9540592
_publ_section_title
;
Structure prediction by ZEFSAII (Michael W. Deem and Ramdas Pophale) SiO2 
 PCOD9540592
Probable space group: I M M A
;
_chemical_formula_sum "Si O2"
_cell_formula_units_Z 96
_cell_length_a 15.894049
_cell_length_b 27.069108
_cell_length_c 11.936441
_cell_angle_alpha 90.000000
_cell_angle_beta 90.000000
_cell_angle_gamma 90.000000
_cell_volume 5135.507267
_symmetry_space_group_name_H-M "I M M A"
_symmetry_group_IT_number 74
_symmetry_cell_setting 'orthorhombic'
loop_
_space_group_symop_operation_xyz
x,y,z
-x,1/2-y,z
x,-y,-z
-x,1/2+y,-z
-x,-y,-z
x,1/2+y,-z
-x,y,z
x,1/2-y,z
1/2+x,1/2+y,1/2+z
1/2-x,-y,1/2+z
1/2+x,1/2-y,1/2-z
1/2-x,y,1/2-z
1/2-x,1/2-y,1/2-z
1/2+x,y,1/2-z
1/2-x,1/2+y,1/2+z
1/2+x,-y,1/2+z
loop_
_atom_site_type_symbol
_atom_site_label
_atom_site_fract_x
_atom_site_fract_y
_atom_site_fract_z
Si Si1 0.154806 0.147947 0.231694
Si Si2 0.500000 0.691487 0.119941
Si Si3 0.898588 0.442329 0.369532
Si Si4 0.000000 0.308513 0.368356
Si Si5 0.653692 0.149715 0.738041
Si Si6 0.399098 0.192061 0.500865
Si Si7 0.601453 0.941599 0.128256
O O1 0.250000 0.164768 0.250000
O O2 0.145235 0.091989 0.277478
O O3 0.083838 0.175235 0.304754
O O4 0.133208 0.160876 0.104431
O O5 0.500000 0.750000 0.115022
O O6 0.415593 0.675703 0.183382
O O7 0.500000 0.671005 0.994183
O O8 0.880814 0.500425 0.354946
O O9 0.875269 0.429106 0.498700
O O10 0.000000 0.436034 0.359573
O O11 0.000000 0.250000 0.372954
O O12 0.750000 0.166032 0.750000
O O13 0.627369 0.163706 0.612928
O O14 0.645335 0.093240 0.780827
O O15 0.500000 0.193575 0.495701
O O16 0.370389 0.250000 0.499686
O O17 0.500000 0.935144 0.137846
#
# Coordination Sequence:
#
# PCOD9540592 Si02
#       7
#    16   8  16   8  16  16  16
#     4  12  25  40  65  94 129 165 209 262 315 377
#     4  11  24  43  66  92 123 165 219 272 312 366
#     4   9  18  37  67  95 122 160 208 260 315 375
#     4  11  24  43  66  92 123 165 219 272 312 366
#     4  12  25  40  65  94 129 165 209 262 315 377
#     4  11  24  44  63  84 126 177 211 250 314 378
#     4   9  18  37  67  95 122 160 208 260 315 375
#
# _framework density 18.693383000000001
#
# number of rings (size 3 to 8) (size 9 to 14) (size 15 to 20)
#    0.000    1.333    3.333    3.000    4.667    3.333 
#    0.000    0.833    0.000    3.000    0.000    0.000 
#    0.000    0.000    0.000    0.000    0.000    0.000 
#
# Total GULP energy -267933.790513 kJ/mol
# GULP energy per Si atom -5581.953969 kJ/mol
# Density = 1.865084 g / cm^3
# Si number density = 18.693383 Si / 1000 Ang^3
#
#
#
# Elastic Constant Matrix: (Units=GPa)
#
#
# Indices 1 2 3 4 5 6 
#
# 1 81.1245 5.5587 -3.2676 0.0459 0.0003 -0.0010
# 2 5.5587 92.3559 26.8160 0.0330 0.0002 -0.0007
# 3 -3.2676 26.8160 73.8814 0.0906 0.0007 -0.0020
# 4 0.0459 0.0330 0.0906 260.8643 -0.0028 0.0060
# 5 0.0003 0.0002 0.0007 -0.0028 10.6333 0.0001
# 6 -0.0010 -0.0007 -0.0020 0.0060 0.0001 -19.3410
#
#
#
# Elastic Compliance Matrix: (Units=1/GPa)
#
#
# Indices 1 2 3 4 5 6 
#
# 1 0.012433 -0.001015 0.000918 -0.000002 0.000000 -0.000001
# 2 -0.001015 0.012186 -0.004468 0.000000 0.000000 0.000000
# 3 0.000918 -0.004468 0.015198 -0.000005 -0.000001 -0.000001
# 4 -0.000002 0.000000 -0.000005 0.003833 0.000001 0.000001
# 5 0.000000 0.000000 -0.000001 0.000001 0.094045 0.000000
# 6 -0.000001 0.000000 -0.000001 0.000001 0.000000 -0.051704
#
#
# Mechanical properties :
#
#
# Convention : Reuss Voigt Hill
#
# Bulk Modulus (GPa) = 32.58646 33.95290 33.26968
# Shear Modulus (GPa) = 47.46100 64.98161 56.22130
#
# Velocity S-wave (km/s) = 5.04424 5.90231 5.49006
# Velocity P-wave (km/s) = 7.16908 8.04066 7.61734
#
# Compressibility (1/GPa) = 0.03068759
#
# Stress axis : x y z
#
# Youngs Moduli (GPa) = 80.42937 82.06096 65.80028
#
# Poissons Ratio (x) = 0.08329 -0.06042
# Poissons Ratio (y) = 0.08163 0.29399
# Poissons Ratio (z) = -0.07386 0.36664
#
# Static dielectric constant tensor:
#      x y z
#    x 1.555590 0.000000 0.000000 
#    y 0.000000 1.691410 0.000000 
#    z 0.000000 0.000000 1.641860 
# 
# From -- ./inp_files/21056.got.cif
#   From: 2010.05.17/outbox.cif.g08.bks.cpg/sg74_11_cif.got.tgz:21056.got - 2010.06.03 17:57:02.
