data_PCOD9540454
_publ_section_title
;
Structure prediction by ZEFSAII (Michael W. Deem and Ramdas Pophale) SiO2 
 PCOD9540454
Probable space group: I M M A
;
_chemical_formula_sum "Si O2"
_cell_formula_units_Z 72
_cell_length_a 8.847856
_cell_length_b 29.525667
_cell_length_c 14.283372
_cell_angle_alpha 90.000000
_cell_angle_beta 90.000000
_cell_angle_gamma 90.000000
_cell_volume 3731.371674
_symmetry_space_group_name_H-M "I M M A"
_symmetry_group_IT_number 74
_symmetry_cell_setting 'orthorhombic'
loop_
_space_group_symop_operation_xyz
x,y,z
-x,1/2-y,z
x,-y,-z
-x,1/2+y,-z
-x,-y,-z
x,1/2+y,-z
-x,y,z
x,1/2-y,z
1/2+x,1/2+y,1/2+z
1/2-x,-y,1/2+z
1/2+x,1/2-y,1/2-z
1/2-x,y,1/2-z
1/2-x,1/2-y,1/2-z
1/2+x,y,1/2-z
1/2-x,1/2+y,1/2+z
1/2+x,-y,1/2+z
loop_
_atom_site_type_symbol
_atom_site_label
_atom_site_fract_x
_atom_site_fract_y
_atom_site_fract_z
Si Si1 0.181693 0.525290 0.851441
Si Si2 0.181052 0.337037 0.546375
Si Si3 0.319402 0.750000 0.352580
Si Si4 0.817860 0.068324 0.951529
Si Si5 0.680811 0.697344 0.846346
O O1 0.250000 0.536038 0.750000
O O2 0.227025 0.555919 0.941085
O O3 0.000000 0.527817 0.844759
O O4 0.221242 0.474214 0.885302
O O5 0.257995 0.294899 0.597119
O O6 0.240255 0.385434 0.579397
O O7 0.222367 0.331162 0.436924
O O8 0.000000 0.333578 0.555668
O O9 0.500000 0.750000 0.350987
O O10 0.250000 0.750000 0.250000
O O11 0.000000 0.072954 0.950247
O O12 0.500000 0.697552 0.838598
O O13 0.729575 0.750000 0.859621
O O14 0.750000 0.680289 0.750000
#
# Coordination Sequence:
#
# PCOD9540454 Si02
#       5
#    16  16   8  16  16
#     4   9  19  37  60  83 115 151 190 239 290 347
#     4  11  22  39  60  86 120 154 193 245 292 341
#     4  12  26  44  65  86 113 154 199 244 290 342
#     4   9  20  38  57  83 116 154 193 234 289 352
#     4   9  18  33  52  76 109 146 185 229 277 332
#
# _framework density 19.295853999999999
#
# number of rings (size 3 to 8) (size 9 to 14) (size 15 to 20)
#    0.000    2.222    1.111    3.000    0.000    5.333 
#    0.000    8.889    0.000    0.000    0.000    0.000 
#    0.000    0.000    0.000    0.000    0.000    0.000 
#
# Total GULP energy -200983.591546 kJ/mol
# GULP energy per Si atom -5582.877543 kJ/mol
# Density = 1.925194 g / cm^3
# Si number density = 19.295854 Si / 1000 Ang^3
#
#
#
# Elastic Constant Matrix: (Units=GPa)
#
#
# Indices 1 2 3 4 5 6 
#
# 1 42.4605 37.2958 21.0788 0.0000 0.0000 0.0000
# 2 37.2958 104.5273 13.0589 0.0000 0.0000 0.0000
# 3 21.0788 13.0589 66.4358 0.0003 0.0000 0.0001
# 4 0.0000 0.0000 0.0003 4.7237 0.0000 0.0001
# 5 0.0000 0.0000 0.0000 0.0000 35.0490 0.0000
# 6 0.0000 0.0000 0.0001 0.0001 0.0000 13.6000
#
#
#
# Elastic Compliance Matrix: (Units=1/GPa)
#
#
# Indices 1 2 3 4 5 6 
#
# 1 0.040011 -0.013010 -0.010137 0.000000 0.000000 0.000000
# 2 -0.013010 0.014038 0.001368 0.000000 0.000000 0.000000
# 3 -0.010137 0.001368 0.018000 -0.000001 0.000000 0.000000
# 4 0.000000 0.000000 -0.000001 0.211698 0.000000 -0.000001
# 5 0.000000 0.000000 0.000000 0.000000 0.028532 0.000000
# 6 0.000000 0.000000 0.000000 -0.000001 0.000000 0.073530
#
#
# Mechanical properties :
#
#
# Convention : Reuss Voigt Hill
#
# Bulk Modulus (GPa) = 35.09887 39.58783 37.34335
# Shear Modulus (GPa) = 11.39312 20.14054 15.76683
#
# Velocity S-wave (km/s) = 2.43254 3.23426 2.86161
# Velocity P-wave (km/s) = 5.11068 5.87435 5.50577
#
# Compressibility (1/GPa) = 0.02849094
#
# Stress axis : x y z
#
# Youngs Moduli (GPa) = 24.99312 71.23619 55.55688
#
# Poissons Ratio (x) = 0.92675 0.56321
# Poissons Ratio (y) = 0.32515 -0.07602
# Poissons Ratio (z) = 0.25337 -0.09748
#
# Static dielectric constant tensor:
#      x y z
#    x 1.640240 0.000000 0.000000 
#    y 0.000000 1.697680 0.000000 
#    z 0.000000 0.000000 1.586350 
# 
# From -- ./inp_files/29144.got.cif
#   From: 2010.05.17/outbox.cif.g08.bks.cpg/sg74_15_cif.got.tgz:29144.got - 2010.06.03 17:57:02.
