data_PCOD9540384
_publ_section_title
;
Structure prediction by ZEFSAII (Michael W. Deem and Ramdas Pophale) SiO2 
 PCOD9540384
Probable space group: I M M A
;
_chemical_formula_sum "Si O2"
_cell_formula_units_Z 116
_cell_length_a 21.987729
_cell_length_b 29.159047
_cell_length_c 8.903695
_cell_angle_alpha 90.000000
_cell_angle_beta 90.000000
_cell_angle_gamma 90.000000
_cell_volume 5708.525904
_symmetry_space_group_name_H-M "I M M A"
_symmetry_group_IT_number 74
_symmetry_cell_setting 'orthorhombic'
loop_
_space_group_symop_operation_xyz
x,y,z
-x,1/2-y,z
x,-y,-z
-x,1/2+y,-z
-x,-y,-z
x,1/2+y,-z
-x,y,z
x,1/2-y,z
1/2+x,1/2+y,1/2+z
1/2-x,-y,1/2+z
1/2+x,1/2-y,1/2-z
1/2-x,y,1/2-z
1/2-x,1/2-y,1/2-z
1/2+x,y,1/2-z
1/2-x,1/2+y,1/2+z
1/2+x,-y,1/2+z
loop_
_atom_site_type_symbol
_atom_site_label
_atom_site_fract_x
_atom_site_fract_y
_atom_site_fract_z
Si Si1 0.790099 0.818269 0.517279
Si Si2 0.065919 0.541199 0.664685
Si Si3 0.342253 0.301681 0.337548
Si Si4 0.431381 0.060046 0.712657
Si Si5 0.781875 0.958893 0.912579
Si Si6 0.333205 0.420875 0.946488
Si Si7 0.895861 0.605278 0.906012
Si Si8 0.250000 0.750000 0.250000
O O1 0.722469 0.815117 0.588265
O O2 0.832108 0.801428 0.657097
O O3 0.815202 0.869261 0.489717
O O4 0.781793 0.789775 0.362608
O O5 0.073592 0.495061 0.763123
O O6 0.120791 0.550511 0.552674
O O7 0.067618 0.585721 0.766933
O O8 0.000000 0.538641 0.590911
O O9 0.357040 0.250000 0.386865
O O10 0.388395 0.340413 0.394319
O O11 0.500000 0.072021 0.767719
O O12 0.372118 0.079866 0.795928
O O13 0.425736 0.081900 0.549542
O O14 0.750000 0.967512 0.750000
O O15 0.828532 0.917392 0.889839
O O16 0.730141 0.946800 0.034447
O O17 0.815596 0.000000 0.000000
#
# Coordination Sequence:
#
# PCOD9540384 Si02
#       8
#    16  16  16  16  16  16  16   4
#     4  11  22  39  62  95 134 166 218 261 332 402
#     4  11  22  42  67  89 125 181 232 274 324 394
#     4  11  21  43  65  92 131 179 210 272 335 409
#     4  11  26  44  64  94 130 178 233 277 326 395
#     4  12  24  38  59  93 137 177 209 262 336 415
#     4  12  24  39  62  94 136 172 214 276 336 403
#     4  12  24  40  64  97 130 166 225 282 334 394
#     4  12  24  38  64 104 130 170 220 272 328 422
#
# _framework density 20.320482999999999
#
# number of rings (size 3 to 8) (size 9 to 14) (size 15 to 20)
#    0.000    0.552    5.517    3.724    3.862    2.207 
#    0.000    0.000    0.000    1.655    0.000    0.966 
#    0.000    0.000    0.000    0.000    0.000    0.000 
#
# Total GULP energy -322980.234335 kJ/mol
# GULP energy per Si atom -5568.624730 kJ/mol
# Density = 2.027423 g / cm^3
# Si number density = 20.320483 Si / 1000 Ang^3
#
#
#
# Elastic Constant Matrix: (Units=GPa)
#
#
# Indices 1 2 3 4 5 6 
#
# 1 79.2473 27.8376 16.4395 0.0000 0.0000 0.0000
# 2 27.8376 162.5137 17.1389 0.0000 0.0000 0.0000
# 3 16.4395 17.1389 48.8366 0.0000 0.0000 0.0000
# 4 0.0000 0.0000 0.0000 21.9684 0.0000 0.0000
# 5 0.0000 0.0000 0.0000 0.0000 63.1409 0.0000
# 6 0.0000 0.0000 0.0000 0.0000 0.0000 -13.5938
#
#
#
# Elastic Compliance Matrix: (Units=1/GPa)
#
#
# Indices 1 2 3 4 5 6 
#
# 1 0.014164 -0.001997 -0.004067 0.000000 0.000000 0.000000
# 2 -0.001997 0.006671 -0.001669 0.000000 0.000000 0.000000
# 3 -0.004067 -0.001669 0.022431 0.000000 0.000000 0.000000
# 4 0.000000 0.000000 0.000000 0.045520 0.000000 0.000000
# 5 0.000000 0.000000 0.000000 0.000000 0.015838 0.000000
# 6 0.000000 0.000000 0.000000 0.000000 0.000000 -0.073563
#
#
# Mechanical properties :
#
#
# Convention : Reuss Voigt Hill
#
# Bulk Modulus (GPa) = 35.97101 45.93662 40.95381
# Shear Modulus (GPa) = 89.61463 29.58187 59.59825
#
# Velocity S-wave (km/s) = 6.64804 3.81959 5.42151
# Velocity P-wave (km/s) = 8.75607 6.48903 7.70637
#
# Compressibility (1/GPa) = 0.02780017
#
# Stress axis : x y z
#
# Youngs Moduli (GPa) = 70.60152 149.89211 44.58075
#
# Poissons Ratio (x) = 0.29938 0.18131
# Poissons Ratio (y) = 0.14101 0.07440
# Poissons Ratio (z) = 0.28713 0.25017
#
# Static dielectric constant tensor:
#      x y z
#    x 1.722260 0.000000 0.000000 
#    y 0.000000 1.723930 0.000000 
#    z 0.000000 0.000000 1.806790 
# 
# From -- ./inp_files/14299.got.cif
#   From: 2010.05.17/outbox.cif.g08.bks.cpg/sg74_8_cif.got.tgz:14299.got - 2010.06.03 17:57:02.
