data_PCOD9540084
_publ_section_title
;
Structure prediction by ZEFSAII (Michael W. Deem and Ramdas Pophale) SiO2 
 PCOD9540084
Probable space group: I M M A
;
_chemical_formula_sum "Si O2"
_cell_formula_units_Z 48
_cell_length_a 13.915673
_cell_length_b 20.259221
_cell_length_c 6.837874
_cell_angle_alpha 90.000000
_cell_angle_beta 90.000000
_cell_angle_gamma 90.000000
_cell_volume 1927.738188
_symmetry_space_group_name_H-M "I M M A"
_symmetry_group_IT_number 74
_symmetry_cell_setting 'orthorhombic'
loop_
_space_group_symop_operation_xyz
x,y,z
-x,1/2-y,z
x,-y,-z
-x,1/2+y,-z
-x,-y,-z
x,1/2+y,-z
-x,y,z
x,1/2-y,z
1/2+x,1/2+y,1/2+z
1/2-x,-y,1/2+z
1/2+x,1/2-y,1/2-z
1/2-x,y,1/2-z
1/2-x,1/2-y,1/2-z
1/2+x,y,1/2-z
1/2-x,1/2+y,1/2+z
1/2+x,-y,1/2+z
loop_
_atom_site_type_symbol
_atom_site_label
_atom_site_fract_x
_atom_site_fract_y
_atom_site_fract_z
Si Si1 0.856954 0.821895 0.653089
Si Si2 0.159630 0.565412 0.893387
Si Si3 0.615391 0.675129 0.308489
O O1 0.898401 0.750000 0.700270
O O2 0.750000 0.820966 0.750000
O O3 0.899489 0.887877 0.746600
O O4 0.863208 0.828133 0.421297
O O5 0.250000 0.545595 0.750000
O O6 0.123063 0.500000 0.000000
O O7 0.168276 0.617523 0.073512
O O8 0.500000 0.668499 0.335439
O O9 0.643303 0.750000 0.370554
#
# Coordination Sequence:
#
# PCOD9540084 Si02
#       3
#    16  16  16
#     4   9  20  39  66  95 125 170 228 282 330 389
#     4  11  26  40  66  97 138 184 229 275 327 396
#     4  10  23  45  71 101 137 174 219 282 350 407
#
# _framework density 24.899647999999999
#
# number of rings (size 3 to 8) (size 9 to 14) (size 15 to 20)
#    0.000    2.000    0.000    1.000    9.333    4.000 
#    0.000   20.000    0.000    0.000    0.000    0.000 
#    0.000    0.000    0.000    0.000    0.000    0.000 
#
# Total GULP energy -133741.919118 kJ/mol
# GULP energy per Si atom -5572.579963 kJ/mol
# Density = 2.484298 g / cm^3
# Si number density = 24.899648 Si / 1000 Ang^3
#
#
#
# Elastic Constant Matrix: (Units=GPa)
#
#
# Indices 1 2 3 4 5 6 
#
# 1 129.0375 13.4896 9.1093 0.0000 0.0000 0.0000
# 2 13.4896 238.5423 84.4780 0.0000 0.0000 0.0000
# 3 9.1093 84.4780 216.3105 0.0000 0.0000 0.0000
# 4 0.0000 0.0000 0.0000 65.0897 0.0000 0.0000
# 5 0.0000 0.0000 0.0000 0.0000 -48.0197 0.0000
# 6 0.0000 0.0000 0.0000 0.0000 0.0000 -222.7849
#
#
#
# Elastic Compliance Matrix: (Units=1/GPa)
#
#
# Indices 1 2 3 4 5 6 
#
# 1 0.007802 -0.000377 -0.000181 0.000000 0.000000 0.000000
# 2 -0.000377 0.004883 -0.001891 0.000000 0.000000 0.000000
# 3 -0.000181 -0.001891 0.005369 0.000000 0.000000 0.000000
# 4 0.000000 0.000000 0.000000 0.015363 0.000000 0.000000
# 5 0.000000 0.000000 0.000000 0.000000 -0.020825 0.000000
# 6 0.000000 0.000000 0.000000 0.000000 0.000000 -0.004489
#
#
# Mechanical properties :
#
#
# Convention : Reuss Voigt Hill
#
# Bulk Modulus (GPa) = 76.01517 88.67157 82.34337
# Shear Modulus (GPa) = 287.54696 -9.35543 139.09577
#
# Velocity S-wave (km/s) = 10.75793 -1.94047 7.48223
# Velocity P-wave (km/s) = 13.59800 5.53790 10.38205
#
# Compressibility (1/GPa) = 0.01315527
#
# Stress axis : x y z
#
# Youngs Moduli (GPa) = 128.17400 204.78350 186.24696
#
# Poissons Ratio (x) = 0.07720 0.03377
# Poissons Ratio (y) = 0.04832 0.35223
# Poissons Ratio (z) = 0.02324 0.38729
#
# Static dielectric constant tensor:
#      x y z
#    x 2.150190 0.000000 0.000000 
#    y 0.000000 1.994670 0.000000 
#    z 0.000000 0.000000 1.981820 
# 
# From -- ./inp_files/2799.got.cif
#   From: 2010.05.17/outbox.cif.g08.bks.cpg/sg74_2_cif.got.tgz:2799.got - 2010.06.03 17:57:02.
