data_PCOD9540224
_publ_section_title
;
Structure prediction by ZEFSAII (Michael W. Deem and Ramdas Pophale) SiO2 
 PCOD9540224
Probable space group: I M M A
;
_chemical_formula_sum "Si O2"
_cell_formula_units_Z 96
_cell_length_a 14.572494
_cell_length_b 27.946604
_cell_length_c 14.297381
_cell_angle_alpha 90.000000
_cell_angle_beta 90.000000
_cell_angle_gamma 90.000000
_cell_volume 5822.632991
_symmetry_space_group_name_H-M "I M M A"
_symmetry_group_IT_number 74
_symmetry_cell_setting 'orthorhombic'
loop_
_space_group_symop_operation_xyz
x,y,z
-x,1/2-y,z
x,-y,-z
-x,1/2+y,-z
-x,-y,-z
x,1/2+y,-z
-x,y,z
x,1/2-y,z
1/2+x,1/2+y,1/2+z
1/2-x,-y,1/2+z
1/2+x,1/2-y,1/2-z
1/2-x,y,1/2-z
1/2-x,1/2-y,1/2-z
1/2+x,y,1/2-z
1/2-x,1/2+y,1/2+z
1/2+x,-y,1/2+z
loop_
_atom_site_type_symbol
_atom_site_label
_atom_site_fract_x
_atom_site_fract_y
_atom_site_fract_z
Si Si1 0.393921 0.048065 0.361707
Si Si2 0.106079 0.048065 0.361706
Si Si3 0.896521 0.307995 0.750000
Si Si4 0.750000 0.107484 0.472184
Si Si5 0.249999 0.692639 0.405825
Si Si6 0.249999 0.035246 0.640584
O O1 0.500000 0.044686 0.389331
O O2 0.389055 0.056550 0.250001
O O3 0.338294 0.089207 0.415094
O O4 0.337686 0.998962 0.378117
O O5 0.161707 0.089207 0.415092
O O6 0.000000 0.044687 0.389330
O O7 0.162313 0.998962 0.378116
O O8 0.900032 0.250000 0.750001
O O9 0.837973 0.320665 0.658258
O O10 0.837971 0.320666 0.841741
O O11 0.000000 0.326782 0.750001
O O12 0.750000 0.162747 0.499537
O O13 0.750001 0.078917 0.570287
O O14 0.250000 0.750000 0.418681
O O15 0.250000 0.048879 0.750000
#
# Coordination Sequence:
#
# PCOD9540224 Si02
#       6
#    16  16  16  16  16  16
#     4   9  18  34  52  70  95 127 162 199 242 291
#     4   9  18  34  52  70  95 127 162 199 242 291
#     4   8  15  31  50  63  87 130 167 195 234 281
#     4  11  20  29  51  74  98 127 163 200 240 285
#     4   9  19  32  47  70  98 128 164 203 240 283
#     4   9  19  31  46  71 103 130 153 192 239 286
#
# _framework density 16.487386999999998
#
# number of rings (size 3 to 8) (size 9 to 14) (size 15 to 20)
#    0.000    2.833    0.000    4.500    2.333    4.000 
#    0.000    0.000    0.000    2.000    0.000    2.333 
#    0.000    0.000    0.000    0.000    0.000    0.000 
#
# Total GULP energy -267629.221898 kJ/mol
# GULP energy per Si atom -5575.608790 kJ/mol
# Density = 1.644986 g / cm^3
# Si number density = 16.487387 Si / 1000 Ang^3
#
#
#
# Elastic Constant Matrix: (Units=GPa)
#
#
# Indices 1 2 3 4 5 6 
#
# 1 146.9451 28.7451 29.6398 0.0000 0.0000 0.0000
# 2 28.7451 52.6271 26.9127 -0.0001 0.0000 0.0000
# 3 29.6398 26.9127 44.1043 0.0000 0.0000 0.0000
# 4 0.0000 -0.0001 0.0000 25.9843 0.0000 0.0000
# 5 0.0000 0.0000 0.0000 0.0000 10.5512 0.0000
# 6 0.0000 0.0000 0.0000 0.0000 0.0000 2.5636
#
#
#
# Elastic Compliance Matrix: (Units=1/GPa)
#
#
# Indices 1 2 3 4 5 6 
#
# 1 0.008072 -0.002376 -0.003974 0.000000 0.000000 0.000000
# 2 -0.002376 0.028320 -0.015684 0.000000 0.000000 0.000000
# 3 -0.003974 -0.015684 0.034915 0.000000 0.000000 0.000000
# 4 0.000000 0.000000 0.000000 0.038485 0.000000 0.000000
# 5 0.000000 0.000000 0.000000 0.000000 0.094776 0.000000
# 6 0.000000 0.000000 0.000000 0.000000 0.000000 0.390084
#
#
# Mechanical properties :
#
#
# Convention : Reuss Voigt Hill
#
# Bulk Modulus (GPa) = 36.71460 46.03017 41.37239
# Shear Modulus (GPa) = 7.71843 18.37842 13.04842
#
# Velocity S-wave (km/s) = 2.16600 3.34233 2.81627
# Velocity P-wave (km/s) = 5.34529 6.54782 5.97687
#
# Compressibility (1/GPa) = 0.02723712
#
# Stress axis : x y z
#
# Youngs Moduli (GPa) = 123.88807 35.31054 28.64095
#
# Poissons Ratio (x) = 0.08391 0.11383
# Poissons Ratio (y) = 0.29440 0.44921
# Poissons Ratio (z) = 0.49239 0.55381
#
# Static dielectric constant tensor:
#      x y z
#    x 1.567020 0.000000 0.000000 
#    y 0.000000 1.542030 0.000000 
#    z 0.000000 0.000000 1.561670 
# 
# From -- ./inp_files/33079.got.cif
#   From: 2010.05.17/outbox.cif.g08.bks.cpg/sg74_17_cif.got.tgz:33079.got - 2010.06.03 17:57:02.
