data_PCOD9540221
_publ_section_title
;
Structure prediction by ZEFSAII (Michael W. Deem and Ramdas Pophale) SiO2 
 PCOD9540221
Probable space group: I M M A
;
_chemical_formula_sum "Si O2"
_cell_formula_units_Z 80
_cell_length_a 24.574469
_cell_length_b 8.658990
_cell_length_c 26.665851
_cell_angle_alpha 90.000000
_cell_angle_beta 90.000000
_cell_angle_gamma 90.000000
_cell_volume 5674.228603
_symmetry_space_group_name_H-M "I M M A"
_symmetry_group_IT_number 74
_symmetry_cell_setting 'orthorhombic'
loop_
_space_group_symop_operation_xyz
x,y,z
-x,1/2-y,z
x,-y,-z
-x,1/2+y,-z
-x,-y,-z
x,1/2+y,-z
-x,y,z
x,1/2-y,z
1/2+x,1/2+y,1/2+z
1/2-x,-y,1/2+z
1/2+x,1/2-y,1/2-z
1/2-x,y,1/2-z
1/2-x,1/2-y,1/2-z
1/2+x,y,1/2-z
1/2-x,1/2+y,1/2+z
1/2+x,-y,1/2+z
loop_
_atom_site_type_symbol
_atom_site_label
_atom_site_fract_x
_atom_site_fract_y
_atom_site_fract_z
Si Si1 0.114217 0.935423 0.444587
Si Si2 0.281053 0.571185 0.303818
Si Si3 0.000000 0.937809 0.395701
Si Si4 0.500000 0.062017 0.779357
Si Si5 0.319158 0.067164 0.145890
Si Si6 0.119338 0.562467 0.256482
O O1 0.114704 0.750000 0.445472
O O2 0.054934 0.987072 0.423677
O O3 0.122623 0.000000 0.500000
O O4 0.158765 0.994495 0.405221
O O5 0.283260 0.750000 0.320029
O O6 0.250000 0.568446 0.250000
O O7 0.243056 0.477311 0.341293
O O8 0.341273 0.514079 0.289148
O O9 0.000000 0.750000 0.395123
O O10 0.000000 0.988036 0.337661
O O11 0.500000 0.250000 0.779757
O O12 0.556554 0.014008 0.754045
O O13 0.325437 0.250000 0.144825
O O14 0.355311 0.998763 0.191563
O O15 0.122083 0.750000 0.258530
#
# Coordination Sequence:
#
# PCOD9540221 Si02
#       6
#    16  16   8   8  16  16
#     4  11  21  34  47  61  80 106 141 181 219 256
#     4   8  15  27  43  61  79 104 135 169 208 251
#     4   9  17  29  47  61  78 108 142 179 217 249
#     4   9  14  25  45  65  82 109 142 174 210 247
#     4  11  20  29  42  60  81 107 138 175 214 251
#     4   9  16  28  45  62  82 108 139 171 208 251
#
# _framework density 14.098833000000001
#
# number of rings (size 3 to 8) (size 9 to 14) (size 15 to 20)
#    0.000    2.400    2.000    3.900    0.000    3.600 
#    0.000    3.000    0.000    0.000    0.000    0.000 
#    0.000    0.000    0.000    0.900    0.000    9.000 
#
# Total GULP energy -222902.898875 kJ/mol
# GULP energy per Si atom -5572.572472 kJ/mol
# Density = 1.406674 g / cm^3
# Si number density = 14.098833 Si / 1000 Ang^3
#
#
#
# Elastic Constant Matrix: (Units=GPa)
#
#
# Indices 1 2 3 4 5 6 
#
# 1 126.7003 27.4490 60.7900 0.0000 0.0000 0.0000
# 2 27.4490 36.0031 23.5852 0.0000 0.0000 0.0000
# 3 60.7900 23.5852 62.8552 0.0000 0.0000 0.0000
# 4 0.0000 0.0000 0.0000 18.0222 0.0000 0.0000
# 5 0.0000 0.0000 0.0000 0.0000 12.7178 0.0000
# 6 0.0000 0.0000 0.0000 0.0000 0.0000 5.2215
#
#
#
# Elastic Compliance Matrix: (Units=1/GPa)
#
#
# Indices 1 2 3 4 5 6 
#
# 1 0.014900 -0.002545 -0.013455 0.000000 0.000000 0.000000
# 2 -0.002545 0.037263 -0.011520 0.000000 0.000000 0.000000
# 3 -0.013455 -0.011520 0.033245 0.000000 0.000000 0.000000
# 4 0.000000 0.000000 0.000000 0.055487 0.000000 0.000000
# 5 0.000000 0.000000 0.000000 0.000000 0.078630 0.000000
# 6 0.000000 0.000000 0.000000 0.000000 0.000000 0.191517
#
#
# Mechanical properties :
#
#
# Convention : Reuss Voigt Hill
#
# Bulk Modulus (GPa) = 32.93128 49.91186 41.42157
# Shear Modulus (GPa) = 10.49965 14.77459 12.63712
#
# Velocity S-wave (km/s) = 2.73191 3.24069 2.99711
# Velocity P-wave (km/s) = 5.77575 7.03427 6.43585
#
# Compressibility (1/GPa) = 0.03036627
#
# Stress axis : x y z
#
# Youngs Moduli (GPa) = 67.11524 26.83634 30.07940
#
# Poissons Ratio (x) = 0.06831 0.40472
# Poissons Ratio (y) = 0.17084 0.34653
# Poissons Ratio (z) = 0.90304 0.30916
#
# Static dielectric constant tensor:
#      x y z
#    x 1.500770 0.000000 0.000000 
#    y 0.000000 1.470390 0.000000 
#    z 0.000000 0.000000 1.430840 
# 
# From -- ./inp_files/62212.got.cif
#   From: 2010.05.17/outbox.cif.g08.bks.cpg/sg74_32_cif.got.tgz:62212.got - 2010.06.03 17:57:02.
