data_PCOD9540748
_publ_section_title
;
Structure prediction by ZEFSAII (Michael W. Deem and Ramdas Pophale) SiO2 
 PCOD9540748
Probable space group: I M M A
;
_chemical_formula_sum "Si O2"
_cell_formula_units_Z 96
_cell_length_a 19.179053
_cell_length_b 29.949540
_cell_length_c 7.589416
_cell_angle_alpha 90.000000
_cell_angle_beta 90.000000
_cell_angle_gamma 90.000000
_cell_volume 4359.389504
_symmetry_space_group_name_H-M "I M M A"
_symmetry_group_IT_number 74
_symmetry_cell_setting 'orthorhombic'
loop_
_space_group_symop_operation_xyz
x,y,z
-x,1/2-y,z
x,-y,-z
-x,1/2+y,-z
-x,-y,-z
x,1/2+y,-z
-x,y,z
x,1/2-y,z
1/2+x,1/2+y,1/2+z
1/2-x,-y,1/2+z
1/2+x,1/2-y,1/2-z
1/2-x,y,1/2-z
1/2-x,1/2-y,1/2-z
1/2+x,y,1/2-z
1/2-x,1/2+y,1/2+z
1/2+x,-y,1/2+z
loop_
_atom_site_type_symbol
_atom_site_label
_atom_site_fract_x
_atom_site_fract_y
_atom_site_fract_z
Si Si1 0.919225 0.523655 0.804128
Si Si2 0.669625 0.555037 0.221717
Si Si3 0.578412 0.301864 0.917212
Si Si4 0.210193 0.640335 0.440822
Si Si5 0.080658 0.701519 0.990004
Si Si6 0.349517 0.389536 0.420250
O O1 0.880272 0.486049 0.692584
O O2 0.000000 0.530640 0.760297
O O3 0.916988 0.500000 0.000000
O O4 0.877172 0.570089 0.801525
O O5 0.750000 0.539376 0.250000
O O6 0.673361 0.592471 0.075352
O O7 0.646323 0.584842 0.390064
O O8 0.500000 0.319550 0.960711
O O9 0.579339 0.250000 0.969527
O O10 0.648565 0.325642 0.983173
O O11 0.584931 0.303432 0.703119
O O12 0.250000 0.650534 0.250000
O O13 0.272224 0.630849 0.574490
O O14 0.114133 0.750000 0.945162
O O15 0.106083 0.655352 0.909509
O O16 0.000000 0.704928 0.944275
#
# Coordination Sequence:
#
# PCOD9540748 Si02
#       6
#    16  16  16  16  16  16
#     4   9  16  24  37  55  72  92 117 148 186 223
#     4   8  15  25  34  48  70  94 119 147 179 213
#     4   9  16  23  31  45  66  95 129 159 178 192
#     4   9  15  24  33  47  68  95 125 153 179 209
#     4   9  15  21  30  46  70  98 122 145 175 208
#     4   9  15  24  34  49  71  95 120 148 178 216
#
# _framework density 22.021431
#
# number of rings (size 3 to 8) (size 9 to 14) (size 15 to 20)
#    0.000    3.500    3.333    1.500    0.000    2.333 
#    0.000    0.000    0.000    0.000    0.000    1.167 
#    0.000   14.000    0.000    0.000    0.000    0.333 
#
# Total GULP energy -267258.533899 kJ/mol
# GULP energy per Si atom -5567.886123 kJ/mol
# Density = 2.197131 g / cm^3
# Si number density = 22.021431 Si / 1000 Ang^3
#
#
#
# Elastic Constant Matrix: (Units=GPa)
#
#
# Indices 1 2 3 4 5 6 
#
# 1 119.7026 104.7035 20.7267 0.0000 -0.0001 0.0074
# 2 104.7035 149.8559 8.4596 0.0000 -0.0001 -0.0029
# 3 20.7267 8.4596 36.9130 -0.0001 -0.0003 0.0011
# 4 0.0000 0.0000 -0.0001 -6.2651 -0.0001 0.0002
# 5 -0.0001 -0.0001 -0.0003 -0.0001 -6.9481 0.0012
# 6 0.0074 -0.0029 0.0011 0.0002 0.0012 -302.2693
#
#
#
# Elastic Compliance Matrix: (Units=1/GPa)
#
#
# Indices 1 2 3 4 5 6 
#
# 1 0.024678 -0.016676 -0.010035 0.000000 0.000000 0.000001
# 2 -0.016676 0.018029 0.005232 0.000000 0.000000 -0.000001
# 3 -0.010035 0.005232 0.031526 -0.000001 -0.000001 0.000000
# 4 0.000000 0.000000 -0.000001 -0.159614 0.000002 0.000000
# 5 0.000000 0.000000 -0.000001 0.000002 -0.143924 -0.000001
# 6 0.000001 -0.000001 0.000000 0.000000 -0.000001 -0.003308
#
#
# Mechanical properties :
#
#
# Convention : Reuss Voigt Hill
#
# Bulk Modulus (GPa) = 31.97436 63.80569 47.89003
# Shear Modulus (GPa) = -27.89706 -51.59106 -39.74406
#
# Velocity S-wave (km/s) = -3.56309 -4.84546 -4.25289
# Velocity P-wave (km/s) = 1.54154 1.50580 1.52377
#
# Compressibility (1/GPa) = 0.03127506
#
# Stress axis : x y z
#
# Youngs Moduli (GPa) = 40.52205 55.46599 31.71947
#
# Poissons Ratio (x) = 0.92494 0.31830
# Poissons Ratio (y) = 0.67574 -0.16595
# Poissons Ratio (z) = 0.40664 -0.29018
#
# Static dielectric constant tensor:
#      x y z
#    x 1.826440 0.000000 0.000000 
#    y 0.000000 1.789390 0.000000 
#    z 0.000000 0.000000 1.917710 
# 
# From -- ./inp_files/24090.got.cif
#   From: 2010.05.17/outbox.cif.g08.bks.cpg/sg74_13_cif.got.tgz:24090.got - 2010.06.03 17:57:02.
