data_PCOD9540483
_publ_section_title
;
Structure prediction by ZEFSAII (Michael W. Deem and Ramdas Pophale) SiO2 
 PCOD9540483
Probable space group: I M M A
;
_chemical_formula_sum "Si O2"
_cell_formula_units_Z 64
_cell_length_a 27.668662
_cell_length_b 16.546607
_cell_length_c 6.660646
_cell_angle_alpha 90.000000
_cell_angle_beta 90.000000
_cell_angle_gamma 90.000000
_cell_volume 3049.393446
_symmetry_space_group_name_H-M "I M M A"
_symmetry_group_IT_number 74
_symmetry_cell_setting 'orthorhombic'
loop_
_space_group_symop_operation_xyz
x,y,z
-x,1/2-y,z
x,-y,-z
-x,1/2+y,-z
-x,-y,-z
x,1/2+y,-z
-x,y,z
x,1/2-y,z
1/2+x,1/2+y,1/2+z
1/2-x,-y,1/2+z
1/2+x,1/2-y,1/2-z
1/2-x,y,1/2-z
1/2-x,1/2-y,1/2-z
1/2+x,y,1/2-z
1/2-x,1/2+y,1/2+z
1/2+x,-y,1/2+z
loop_
_atom_site_type_symbol
_atom_site_label
_atom_site_fract_x
_atom_site_fract_y
_atom_site_fract_z
Si Si1 0.400882 0.114515 0.746422
Si Si2 0.198635 0.750000 0.857779
Si Si3 0.000000 0.478781 0.747710
Si Si4 0.604575 0.250000 0.079694
Si Si5 0.443768 0.750000 0.525017
Si Si6 0.203249 0.084592 0.887179
O O1 0.446069 0.056581 0.755917
O O2 0.398772 0.172332 0.939111
O O3 0.415333 0.173452 0.561766
O O4 0.348503 0.075419 0.721648
O O5 0.250000 0.750000 0.750000
O O6 0.154464 0.750000 0.701834
O O7 0.196944 0.833236 0.983942
O O8 0.000000 0.500000 0.500000
O O9 0.000000 0.500000 0.000000
O O10 0.560990 0.250000 0.237371
O O11 0.500000 0.750000 0.459499
O O12 0.250000 0.098492 0.750000
O O13 0.211881 0.000000 0.000000
#
# Coordination Sequence:
#
# PCOD9540483 Si02
#       6
#    16   8   8   8   8  16
#     4  11  25  45  69 107 147 193 257 320 384 475
#     4  12  23  44  74 104 148 191 255 327 390 474
#     4  12  30  47  72 105 152 210 257 327 405 464
#     4  11  24  40  75 108 135 199 241 318 394 455
#     4  11  22  42  75 104 148 190 252 310 395 460
#     4  12  26  47  72 105 150 199 258 323 395 476
#
# _framework density 20.987780999999998
#
# number of rings (size 3 to 8) (size 9 to 14) (size 15 to 20)
#    0.000    0.500    3.750    4.125    5.250    3.000 
#    0.000    0.000    0.000    0.000    0.000    0.000 
#    0.000    0.000    0.000    0.000    0.000    0.000 
#
# Total GULP energy -178181.268371 kJ/mol
# GULP energy per Si atom -5568.164637 kJ/mol
# Density = 2.094001 g / cm^3
# Si number density = 20.987781 Si / 1000 Ang^3
#
#
#
# Elastic Constant Matrix: (Units=GPa)
#
#
# Indices 1 2 3 4 5 6 
#
# 1 219.5819 34.8145 65.3130 0.0000 0.0000 0.0000
# 2 34.8145 64.6225 58.8996 0.0000 0.0000 0.0000
# 3 65.3130 58.8996 140.1552 0.0000 0.0000 0.0000
# 4 0.0000 0.0000 0.0000 9.4929 0.0000 0.0000
# 5 0.0000 0.0000 0.0000 0.0000 51.6673 0.0000
# 6 0.0000 0.0000 0.0000 0.0000 0.0000 64.3842
#
#
#
# Elastic Compliance Matrix: (Units=1/GPa)
#
#
# Indices 1 2 3 4 5 6 
#
# 1 0.005325 -0.000984 -0.002068 0.000000 0.000000 0.000000
# 2 -0.000984 0.025263 -0.010158 0.000000 0.000000 0.000000
# 3 -0.002068 -0.010158 0.012368 0.000000 0.000000 0.000000
# 4 0.000000 0.000000 0.000000 0.105342 0.000000 0.000000
# 5 0.000000 0.000000 0.000000 0.000000 0.019355 0.000000
# 6 0.000000 0.000000 0.000000 0.000000 0.000000 0.015532
#
#
# Mechanical properties :
#
#
# Convention : Reuss Voigt Hill
#
# Bulk Modulus (GPa) = 60.47574 82.49041 71.48308
# Shear Modulus (GPa) = 23.24314 42.79770 33.02042
#
# Velocity S-wave (km/s) = 3.33146 4.52062 3.97081
# Velocity P-wave (km/s) = 6.60874 8.16317 7.42674
#
# Compressibility (1/GPa) = 0.01653556
#
# Stress axis : x y z
#
# Youngs Moduli (GPa) = 187.78450 39.58320 80.85615
#
# Poissons Ratio (x) = 0.03895 0.16722
# Poissons Ratio (y) = 0.18477 0.82136
# Poissons Ratio (z) = 0.38835 0.40210
#
# Static dielectric constant tensor:
#      x y z
#    x 1.421030 0.000000 0.000000 
#    y 0.000000 2.515120 0.000000 
#    z 0.000000 0.000000 1.823890 
# 
# From -- ./inp_files/4959.got.cif
#   From: 2010.05.17/outbox.cif.g08.bks.cpg/sg74_3_cif.got.tgz:4959.got - 2010.06.03 17:57:02.
