data_PCOD9540630
_publ_section_title
;
Structure prediction by ZEFSAII (Michael W. Deem and Ramdas Pophale) SiO2 
 PCOD9540630
Probable space group: I M M A
;
_chemical_formula_sum "Si O2"
_cell_formula_units_Z 84
_cell_length_a 19.252279
_cell_length_b 7.310400
_cell_length_c 28.582992
_cell_angle_alpha 90.000000
_cell_angle_beta 90.000000
_cell_angle_gamma 90.000000
_cell_volume 4022.823470
_symmetry_space_group_name_H-M "I M M A"
_symmetry_group_IT_number 74
_symmetry_cell_setting 'orthorhombic'
loop_
_space_group_symop_operation_xyz
x,y,z
-x,1/2-y,z
x,-y,-z
-x,1/2+y,-z
-x,-y,-z
x,1/2+y,-z
-x,y,z
x,1/2-y,z
1/2+x,1/2+y,1/2+z
1/2-x,-y,1/2+z
1/2+x,1/2-y,1/2-z
1/2-x,y,1/2-z
1/2-x,1/2-y,1/2-z
1/2+x,y,1/2-z
1/2-x,1/2+y,1/2+z
1/2+x,-y,1/2+z
loop_
_atom_site_type_symbol
_atom_site_label
_atom_site_fract_x
_atom_site_fract_y
_atom_site_fract_z
Si Si1 0.812964 0.472893 0.152464
Si Si2 0.722068 0.467254 0.448539
Si Si3 0.122172 0.527201 0.571696
Si Si4 0.420167 0.526483 0.730639
Si Si5 0.155986 0.027784 0.325098
Si Si6 0.500000 0.500000 0.000000
O O1 0.813997 0.250000 0.153100
O O2 0.816586 0.532703 0.098228
O O3 0.874051 0.532997 0.186547
O O4 0.736809 0.527413 0.171558
O O5 0.692328 0.500000 0.500000
O O6 0.726996 0.250000 0.443258
O O7 0.801875 0.533981 0.446010
O O8 0.118325 0.750000 0.569367
O O9 0.119290 0.475186 0.626267
O O10 0.060711 0.462203 0.539180
O O11 0.500000 0.468760 0.728370
O O12 0.419943 0.750000 0.730931
O O13 0.383009 0.467477 0.778621
O O14 0.156438 0.250000 0.324504
#
# Coordination Sequence:
#
# PCOD9540630 Si02
#       6
#    16  16  16  16  16   4
#     4   8  14  24  38  54  77 108 136 163 201 247
#     4   9  16  29  44  60  81 108 142 175 204 242
#     4   9  18  27  36  53  78 110 143 172 205 241
#     4   9  15  21  33  55  80 105 131 162 207 257
#     4   8  14  24  36  50  74 108 139 164 198 250
#     4  12  18  24  36  50  80 112 140 172 196 240
#
# _framework density 20.880856000000001
#
# number of rings (size 3 to 8) (size 9 to 14) (size 15 to 20)
#    0.000    3.238    0.952    3.143    1.333    2.286 
#    0.000    0.000    0.000    0.571    0.000    0.000 
#    0.000   15.238    0.000    0.571    0.000    0.000 
#
# Total GULP energy -233868.920024 kJ/mol
# GULP energy per Si atom -5568.307620 kJ/mol
# Density = 2.083333 g / cm^3
# Si number density = 20.880856 Si / 1000 Ang^3
#
#
#
# Elastic Constant Matrix: (Units=GPa)
#
#
# Indices 1 2 3 4 5 6 
#
# 1 116.0919 3.2198 119.6687 0.0000 0.0000 0.0000
# 2 3.2198 81.9049 3.4922 0.0000 0.0000 0.0000
# 3 119.6687 3.4922 239.7168 0.0000 0.0000 0.0000
# 4 0.0000 0.0000 0.0000 -5.9989 0.0000 0.0000
# 5 0.0000 0.0000 0.0000 0.0000 36.4908 0.0000
# 6 0.0000 0.0000 0.0000 0.0000 0.0000 1.0091
#
#
#
# Elastic Compliance Matrix: (Units=1/GPa)
#
#
# Indices 1 2 3 4 5 6 
#
# 1 0.017754 -0.000320 -0.008858 0.000000 0.000000 0.000000
# 2 -0.000320 0.012223 -0.000018 0.000000 0.000000 0.000000
# 3 -0.008858 -0.000018 0.008594 0.000000 0.000000 0.000000
# 4 0.000000 0.000000 0.000000 -0.166696 0.000000 0.000000
# 5 0.000000 0.000000 0.000000 0.000000 0.027404 0.000000
# 6 0.000000 0.000000 0.000000 0.000000 0.000000 0.990937
#
#
# Mechanical properties :
#
#
# Convention : Reuss Voigt Hill
#
# Bulk Modulus (GPa) = 49.56094 76.71944 63.14019
# Shear Modulus (GPa) = 5.46248 27.05571 16.25910
#
# Velocity S-wave (km/s) = 1.61917 3.60351 2.79348
# Velocity P-wave (km/s) = 5.22324 7.35765 6.38033
#
# Compressibility (1/GPa) = 0.02017718
#
# Stress axis : x y z
#
# Youngs Moduli (GPa) = 56.32555 81.81532 116.36061
#
# Poissons Ratio (x) = 0.02620 1.03075
# Poissons Ratio (y) = 0.01804 0.00212
# Poissons Ratio (z) = 0.49895 0.00149
#
# Static dielectric constant tensor:
#      x y z
#    x 1.679740 0.000000 0.000000 
#    y 0.000000 2.029680 0.000000 
#    z 0.000000 0.000000 1.755730 
# 
# From -- ./inp_files/61532.got.cif
#   From: 2010.05.17/outbox.cif.g08.bks.cpg/sg74_31_cif.got.tgz:61532.got - 2010.06.03 17:57:02.
