data_PCOD9540835
_publ_section_title
;
Structure prediction by ZEFSAII (Michael W. Deem and Ramdas Pophale) SiO2 
 PCOD9540835
Probable space group: I M M A
;
_chemical_formula_sum "Si O2"
_cell_formula_units_Z 48
_cell_length_a 9.000000
_cell_length_b 27.000000
_cell_length_c 21.000000
_cell_angle_alpha 90.000000
_cell_angle_beta 90.000000
_cell_angle_gamma 90.000000
_cell_volume 5103.000000
_symmetry_space_group_name_H-M "I M M A"
_symmetry_group_IT_number 74
_symmetry_cell_setting 'orthorhombic'
loop_
_space_group_symop_operation_xyz
x,y,z
-x,1/2-y,z
x,-y,-z
-x,1/2+y,-z
-x,-y,-z
x,1/2+y,-z
-x,y,z
x,1/2-y,z
1/2+x,1/2+y,1/2+z
1/2-x,-y,1/2+z
1/2+x,1/2-y,1/2-z
1/2-x,y,1/2-z
1/2-x,1/2-y,1/2-z
1/2+x,y,1/2-z
1/2-x,1/2+y,1/2+z
1/2+x,-y,1/2+z
loop_
_atom_site_type_symbol
_atom_site_label
_atom_site_fract_x
_atom_site_fract_y
_atom_site_fract_z
Si Si1 0.320973 0.849423 0.051020
Si Si2 0.822490 0.036349 0.558076
Si Si3 0.819970 0.614096 0.683847
Si Si4 0.819073 0.695234 0.579389
Si Si5 0.321417 0.505408 0.683253
Si Si6 0.823500 0.190819 0.684753
O O1 0.500000 0.841931 0.053694
O O2 0.296142 0.907114 0.038149
O O3 0.264236 0.834048 0.120398
O O4 0.265959 0.817421 0.991728
O O5 0.733089 0.025085 0.622243
O O6 0.000000 0.030183 0.570612
O O7 0.782951 0.000000 0.500000
O O8 0.750000 0.632554 0.750000
O O9 0.779631 0.651931 0.628009
O O10 0.747100 0.560383 0.673298
O O11 0.000000 0.609501 0.687822
O O12 0.770036 0.750000 0.599106
O O13 0.000000 0.695498 0.577772
O O14 0.500000 0.507083 0.688181
O O15 0.250000 0.487229 0.750000
O O16 0.800184 0.250000 0.679352
O O17 0.750000 0.173166 0.750000
O O18 0.000000 0.182175 0.689180
#
# Coordination Sequence:
#
# PCOD9540835 Si02
#       6
#    16  16  16  16  16  16
#     4   9  17  30  50  75 102 133 170 211 253 299
#     4  10  20  35  55  79 108 141 177 217 263 316
#     4  10  19  33  54  79 107 139 174 214 262 315
#     4   9  17  30  51  79 107 136 174 217 257 302
#     4  11  22  37  57  79 106 140 179 223 270 322
#     4   9  17  30  49  72  98 128 162 201 245 294
#
# _framework density 9.4062319999999993
#
# number of rings (size 3 to 8) (size 9 to 14) (size 15 to 20)
#    0.000    2.333    0.000    4.500    0.000    6.000 
#    0.000    2.500    0.000    3.500    0.000    0.000 
#    0.000    0.000    0.000    0.000    0.000    0.000 
#
# Total GULP energy -267792.870944 kJ/mol
# GULP energy per Si atom -5579.018145 kJ/mol
# Density = 0.938482 g / cm^3
# Si number density = 9.406232 Si / 1000 Ang^3
#
#
#
# Elastic Constant Matrix: (Units=GPa)
#
#
# Indices 1 2 3 4 5 6 
#
# 1 48.1037 14.7188 9.2406 0.0000 0.0000 0.0000
# 2 14.7188 -0.5634 -0.2846 0.0000 0.0000 0.0000
# 3 9.2406 -0.2846 53.9086 0.0000 0.0000 0.0000
# 4 0.0000 0.0000 0.0000 31.7998 0.0000 0.0000
# 5 0.0000 0.0000 0.0000 0.0000 28.5509 0.0000
# 6 0.0000 0.0000 0.0000 0.0000 0.0000 14.6672
#
#
#
# Elastic Compliance Matrix: (Units=1/GPa)
#
#
# Indices 1 2 3 4 5 6 
#
# 1 0.002312 0.060434 -0.000077 0.000000 0.000000 0.000000
# 2 0.060434 -0.190374 -0.011364 0.000000 0.000000 0.000000
# 3 -0.000077 -0.011364 0.018503 0.000000 0.000000 0.000000
# 4 0.000000 0.000000 0.000000 0.031447 0.000000 0.000000
# 5 0.000000 0.000000 0.000000 0.000000 0.035025 0.000000
# 6 0.000000 0.000000 0.000000 0.000000 0.000000 0.068180
#
#
# Mechanical properties :
#
#
# Convention : Reuss Voigt Hill
#
# Bulk Modulus (GPa) = -13.97150 16.53316 1.28083
# Shear Modulus (GPa) = -31.89769 20.18853 -5.85458
#
# Velocity S-wave (km/s) = -4.12219 3.27945 -1.76602
# Velocity P-wave (km/s) = 5.48629 4.81115 1.86444
#
# Compressibility (1/GPa) = -0.07157426
#
# Stress axis : x y z
#
# Youngs Moduli (GPa) = 432.59845 -5.25281 54.04489
#
# Poissons Ratio (x) = 0.31745 0.00417
# Poissons Ratio (y) = -26.14362 0.61418
# Poissons Ratio (z) = 0.03338 -0.05969
#
# Static dielectric constant tensor:
#      x y z
#    x 1.638380 0.000000 0.000000 
#    y 0.000000 1.659530 0.000000 
#    z 0.000000 0.000000 1.662810 
# 
# From -- ./inp_files/49072.got.cif
#   From: 2010.05.17/outbox.ucp.g08.bks.cvg/sg74_25_cif.got.tgz:49072.got - 2010.06.11 16:37:44.
