data_PCOD9540967
_publ_section_title
;
Structure prediction by ZEFSAII (Michael W. Deem and Ramdas Pophale) SiO2 
 PCOD9540967
Probable space group: I M M A
;
_chemical_formula_sum "Si O2"
_cell_formula_units_Z 52
_cell_length_a 27.000000
_cell_length_b 21.000000
_cell_length_c 9.000000
_cell_angle_alpha 90.000000
_cell_angle_beta 90.000000
_cell_angle_gamma 90.000000
_cell_volume 5103.000000
_symmetry_space_group_name_H-M "I M M A"
_symmetry_group_IT_number 74
_symmetry_cell_setting 'orthorhombic'
loop_
_space_group_symop_operation_xyz
x,y,z
-x,1/2-y,z
x,-y,-z
-x,1/2+y,-z
-x,-y,-z
x,1/2+y,-z
-x,y,z
x,1/2-y,z
1/2+x,1/2+y,1/2+z
1/2-x,-y,1/2+z
1/2+x,1/2-y,1/2-z
1/2-x,y,1/2-z
1/2-x,1/2-y,1/2-z
1/2+x,y,1/2-z
1/2-x,1/2+y,1/2+z
1/2+x,-y,1/2+z
loop_
_atom_site_type_symbol
_atom_site_label
_atom_site_fract_x
_atom_site_fract_y
_atom_site_fract_z
Si Si1 0.000000 0.679303 0.400544
Si Si2 0.392497 0.575241 0.808398
Si Si3 0.844194 0.818375 0.505265
Si Si4 0.246420 0.882157 0.421064
Si Si5 0.143149 0.076798 0.995565
Si Si6 0.400367 0.820346 0.291178
Si Si7 0.677604 0.000000 0.000000
Si Si8 0.500000 0.058495 0.112855
O O1 0.048264 0.674920 0.297277
O O2 0.000000 0.750000 0.470253
O O3 0.000000 0.623710 0.519860
O O4 0.372599 0.600550 0.655892
O O5 0.358305 0.517829 0.864805
O O6 0.449198 0.556431 0.797945
O O7 0.380073 0.628784 0.928515
O O8 0.856573 0.750000 0.569474
O O9 0.785920 0.833082 0.517691
O O10 0.857060 0.818303 0.331369
O O11 0.250000 0.862250 0.250000
O O12 0.300630 0.901870 0.470745
O O13 0.212270 0.944463 0.440306
O O14 0.109087 0.116190 0.883463
O O15 0.138387 0.000000 0.000000
O O16 0.399758 0.750000 0.367717
O O17 0.500000 0.000000 0.000000
#
# Coordination Sequence:
#
# PCOD9540967 Si02
#       8
#     8  16  16  16  16  16   8   8
#     4  10  22  43  73  97 125 177 232 270 320 401
#     4  11  25  41  63  93 134 165 216 276 335 386
#     4  10  22  40  66  94 123 168 227 273 320 394
#     4  11  21  37  62  88 126 173 219 260 319 397
#     4  12  26  41  63  99 139 176 214 271 338 394
#     4  10  22  43  68  96 129 175 225 276 326 394
#     4  10  22  37  58  86 124 171 212 264 316 392
#     4  12  24  39  69 100 129 174 221 277 342 396
#
# _framework density 10.190084000000001
#
# number of rings (size 3 to 8) (size 9 to 14) (size 15 to 20)
#    0.000    1.231    4.615    0.923    4.308    4.000 
#    0.000    1.538    0.000    0.000    0.000    0.000 
#    0.000    0.000    0.000    0.000    0.000    0.000 
#
# Total GULP energy -289892.858437 kJ/mol
# GULP energy per Si atom -5574.862662 kJ/mol
# Density = 1.016689 g / cm^3
# Si number density = 10.190084 Si / 1000 Ang^3
#
#
#
# Elastic Constant Matrix: (Units=GPa)
#
#
# Indices 1 2 3 4 5 6 
#
# 1 99.0185 6.2806 13.5293 0.0000 0.0000 0.0000
# 2 6.2806 36.6668 9.6275 0.0000 0.0000 0.0000
# 3 13.5293 9.6275 39.0634 0.0000 0.0000 0.0000
# 4 0.0000 0.0000 0.0000 18.2224 0.0000 0.0000
# 5 0.0000 0.0000 0.0000 0.0000 -1.0676 0.0000
# 6 0.0000 0.0000 0.0000 0.0000 0.0000 -12.4337
#
#
#
# Elastic Compliance Matrix: (Units=1/GPa)
#
#
# Indices 1 2 3 4 5 6 
#
# 1 0.010629 -0.000913 -0.003456 0.000000 0.000000 0.000000
# 2 -0.000913 0.029238 -0.006890 0.000000 0.000000 0.000000
# 3 -0.003456 -0.006890 0.028495 0.000000 0.000000 0.000000
# 4 0.000000 0.000000 0.000000 0.054877 0.000000 0.000000
# 5 0.000000 0.000000 0.000000 0.000000 -0.936716 0.000000
# 6 0.000000 0.000000 0.000000 0.000000 0.000000 -0.080427
#
#
# Mechanical properties :
#
#
# Convention : Reuss Voigt Hill
#
# Bulk Modulus (GPa) = 21.81335 25.95817 23.88576
# Shear Modulus (GPa) = -5.84041 10.63166 2.39562
#
# Velocity S-wave (km/s) = -1.69468 2.28648 1.08537
# Velocity P-wave (km/s) = 2.62625 4.44244 3.64914
#
# Compressibility (1/GPa) = 0.04584348
#
# Stress axis : x y z
#
# Youngs Moduli (GPa) = 94.07962 34.20202 35.09444
#
# Poissons Ratio (x) = 0.03123 0.12130
# Poissons Ratio (y) = 0.08591 0.24179
# Poissons Ratio (z) = 0.32517 0.23564
#
# Static dielectric constant tensor:
#      x y z
#    x 1.711030 0.000000 0.000000 
#    y 0.000000 1.761570 0.000000 
#    z 0.000000 0.000000 1.722050 
# 
# From -- ./inp_files/15259.got.cif
#   From: 2010.05.17/outbox.ucp.g08.bks.cvg/sg74_8_cif.got.tgz:15259.got - 2010.06.11 16:37:44.
