data_PCOD9540008
_publ_section_title
;
Structure prediction by ZEFSAII (Michael W. Deem and Ramdas Pophale) SiO2 
 PCOD9540008
Probable space group: I M M A
;
_chemical_formula_sum "Si O2"
_cell_formula_units_Z 56
_cell_length_a 8.065953
_cell_length_b 11.692304
_cell_length_c 30.922434
_cell_angle_alpha 90.000000
_cell_angle_beta 90.000000
_cell_angle_gamma 90.000000
_cell_volume 2916.281594
_symmetry_space_group_name_H-M "I M M A"
_symmetry_group_IT_number 74
_symmetry_cell_setting 'orthorhombic'
loop_
_space_group_symop_operation_xyz
x,y,z
-x,1/2-y,z
x,-y,-z
-x,1/2+y,-z
-x,-y,-z
x,1/2+y,-z
-x,y,z
x,1/2-y,z
1/2+x,1/2+y,1/2+z
1/2-x,-y,1/2+z
1/2+x,1/2-y,1/2-z
1/2-x,y,1/2-z
1/2-x,1/2-y,1/2-z
1/2+x,y,1/2-z
1/2-x,1/2+y,1/2+z
1/2+x,-y,1/2+z
loop_
_atom_site_type_symbol
_atom_site_label
_atom_site_fract_x
_atom_site_fract_y
_atom_site_fract_z
Si Si1 0.306279 0.750000 0.596045
Si Si2 0.250000 0.456452 0.250000
Si Si3 0.000000 0.114547 0.596175
Si Si4 0.198762 0.250000 0.307770
Si Si5 0.500000 0.112578 0.801746
Si Si6 0.692485 0.991645 0.551647
O O1 0.500000 0.750000 0.608426
O O2 0.207703 0.750000 0.640730
O O3 0.277101 0.637364 0.567837
O O4 0.287895 0.361517 0.287420
O O5 0.353262 0.546258 0.221920
O O6 0.833563 0.066051 0.574406
O O7 0.000000 0.250000 0.591465
O O8 0.000000 0.087567 0.647249
O O9 0.000000 0.250000 0.295521
O O10 0.500000 0.250000 0.795690
O O11 0.500000 0.022230 0.562627
O O12 0.708433 0.000000 0.500000
#
# Coordination Sequence:
#
# PCOD9540008 Si02
#       6
#     8   8   8   8   8  16
#     4  10  23  39  66 101 128 170 220 271 335 401
#     4  11  23  40  64  90 125 167 214 272 326 401
#     4  11  25  44  66 100 134 177 230 276 326 406
#     4  11  23  39  64  98 130 166 210 282 341 393
#     4  11  24  44  64  90 130 173 224 271 328 396
#     4  10  23  43  68  99 137 178 220 277 334 396
#
# _framework density 19.202535999999998
#
# number of rings (size 3 to 8) (size 9 to 14) (size 15 to 20)
#    0.000    1.429    1.429    2.571    6.000    0.571 
#    2.571    0.000    0.000    0.000    0.000    0.000 
#    0.000    0.000    0.000    0.000    0.000    0.000 
#
# Total GULP energy -155952.647478 kJ/mol
# GULP energy per Si atom -5569.737410 kJ/mol
# Density = 1.915883 g / cm^3
# Si number density = 19.202536 Si / 1000 Ang^3
#
#
#
# Elastic Constant Matrix: (Units=GPa)
#
#
# Indices 1 2 3 4 5 6 
#
# 1 118.2875 83.3988 94.0755 0.0000 0.0000 0.0000
# 2 83.3988 121.8513 95.1236 0.0000 0.0000 0.0000
# 3 94.0755 95.1236 162.8130 0.0000 0.0000 0.0000
# 4 0.0000 0.0000 0.0000 39.2716 0.0000 0.0000
# 5 0.0000 0.0000 0.0000 0.0000 29.0134 0.0000
# 6 0.0000 0.0000 0.0000 0.0000 0.0000 13.1383
#
#
#
# Elastic Compliance Matrix: (Units=1/GPa)
#
#
# Indices 1 2 3 4 5 6 
#
# 1 0.019331 -0.008294 -0.006324 0.000000 0.000000 0.000000
# 2 -0.008294 0.018647 -0.006102 0.000000 0.000000 0.000000
# 3 -0.006324 -0.006102 0.013361 0.000000 0.000000 0.000000
# 4 0.000000 0.000000 0.000000 0.025464 0.000000 0.000000
# 5 0.000000 0.000000 0.000000 0.000000 0.034467 0.000000
# 6 0.000000 0.000000 0.000000 0.000000 0.000000 0.076113
#
#
# Mechanical properties :
#
#
# Convention : Reuss Voigt Hill
#
# Bulk Modulus (GPa) = 101.01856 105.34974 103.18415
# Shear Modulus (GPa) = 21.54023 24.97494 23.25758
#
# Velocity S-wave (km/s) = 3.35287 3.61030 3.48397
# Velocity P-wave (km/s) = 8.22861 8.50650 8.36871
#
# Compressibility (1/GPa) = 0.00989917
#
# Stress axis : x y z
#
# Youngs Moduli (GPa) = 51.72948 53.62766 74.84260
#
# Poissons Ratio (x) = 0.44479 0.47331
# Poissons Ratio (y) = 0.42905 0.45670
# Poissons Ratio (z) = 0.32714 0.32725
#
# Static dielectric constant tensor:
#      x y z
#    x 1.758120 0.000000 0.000000 
#    y 0.000000 1.638170 0.000000 
#    z 0.000000 0.000000 1.640710 
# 
# From -- ./inp_files/63339.got.cif
#   From: 2010.05.17/outbox.cif.g08.bks.cpg/sg74_32_cif.got.tgz:63339.got - 2010.06.03 17:57:02.
