data_PCOD9540394
_publ_section_title
;
Structure prediction by ZEFSAII (Michael W. Deem and Ramdas Pophale) SiO2 
 PCOD9540394
Probable space group: I M M A
;
_chemical_formula_sum "Si O2"
_cell_formula_units_Z 80
_cell_length_a 13.714522
_cell_length_b 14.537367
_cell_length_c 15.659549
_cell_angle_alpha 90.000000
_cell_angle_beta 90.000000
_cell_angle_gamma 90.000000
_cell_volume 3122.091882
_symmetry_space_group_name_H-M "I M M A"
_symmetry_group_IT_number 74
_symmetry_cell_setting 'orthorhombic'
loop_
_space_group_symop_operation_xyz
x,y,z
-x,1/2-y,z
x,-y,-z
-x,1/2+y,-z
-x,-y,-z
x,1/2+y,-z
-x,y,z
x,1/2-y,z
1/2+x,1/2+y,1/2+z
1/2-x,-y,1/2+z
1/2+x,1/2-y,1/2-z
1/2-x,y,1/2-z
1/2-x,1/2-y,1/2-z
1/2+x,y,1/2-z
1/2-x,1/2+y,1/2+z
1/2+x,-y,1/2+z
loop_
_atom_site_type_symbol
_atom_site_label
_atom_site_fract_x
_atom_site_fract_y
_atom_site_fract_z
Si Si1 0.619349 0.052504 0.705363
Si Si2 0.109800 0.107596 0.974520
Si Si3 0.111972 0.900519 0.390683
Si Si4 0.311142 0.651532 0.655939
Si Si5 0.387308 0.620075 0.920482
O O1 0.500000 0.049518 0.704014
O O2 0.653026 0.945796 0.694981
O O3 0.653755 0.106481 0.620316
O O4 0.650290 0.100623 0.793656
O O5 0.000000 0.142189 0.966550
O O6 0.155707 0.150627 0.057356
O O7 0.106947 0.000000 0.000000
O O8 0.145506 0.859181 0.481466
O O9 0.000000 0.868510 0.384331
O O10 0.112215 0.009857 0.409451
O O11 0.345443 0.750000 0.691316
O O12 0.194060 0.651472 0.645827
O O13 0.500000 0.648797 0.908111
#
# Coordination Sequence:
#
# PCOD9540394 Si02
#       5
#    16  16  16  16  16
#     4   9  18  34  57  84 107 133 177 230 277 321
#     4   8  16  31  51  75 104 138 178 219 262 319
#     4   8  16  33  57  80  99 129 183 237 270 303
#     4  11  22  33  50  80 115 148 178 211 272 340
#     4   9  19  35  53  75 104 142 186 226 265 312
#
# _framework density 25.623843999999998
#
# number of rings (size 3 to 8) (size 9 to 14) (size 15 to 20)
#    0.000    3.000    0.000    3.000    8.400    2.800 
#    0.000    2.000    0.000    6.000    0.000    5.600 
#    0.000    0.000    0.000    0.000    0.000    0.000 
#
# Total GULP energy -223210.215234 kJ/mol
# GULP energy per Si atom -5580.255381 kJ/mol
# Density = 2.556552 g / cm^3
# Si number density = 25.623844 Si / 1000 Ang^3
#
#
#
# Elastic Constant Matrix: (Units=GPa)
#
#
# Indices 1 2 3 4 5 6 
#
# 1 67.8857 -4.8366 12.8792 0.0000 0.0000 0.0000
# 2 -4.8366 63.9789 -21.5527 0.0000 0.0000 0.0000
# 3 12.8792 -21.5527 162.6115 0.0000 0.0000 0.0000
# 4 0.0000 0.0000 0.0000 2.6371 0.0000 0.0000
# 5 0.0000 0.0000 0.0000 0.0000 41.6628 0.0000
# 6 0.0000 0.0000 0.0000 0.0000 0.0000 8.5451
#
#
#
# Elastic Compliance Matrix: (Units=1/GPa)
#
#
# Indices 1 2 3 4 5 6 
#
# 1 0.014991 0.000768 -0.001086 0.000000 0.000000 0.000000
# 2 0.000768 0.016400 0.002113 0.000000 0.000000 0.000000
# 3 -0.001086 0.002113 0.006516 0.000000 0.000000 0.000000
# 4 0.000000 0.000000 0.000000 0.379198 0.000000 0.000001
# 5 0.000000 0.000000 0.000000 0.000000 0.024002 0.000000
# 6 0.000000 0.000000 0.000000 0.000001 0.000000 0.117026
#
#
# Mechanical properties :
#
#
# Convention : Reuss Voigt Hill
#
# Bulk Modulus (GPa) = 24.09837 29.71731 26.90784
# Shear Modulus (GPa) = 8.79701 31.10143 19.94922
#
# Velocity S-wave (km/s) = 1.85488 3.48770 2.79326
# Velocity P-wave (km/s) = 3.74333 5.27650 4.57460
#
# Compressibility (1/GPa) = 0.04149658
#
# Stress axis : x y z
#
# Youngs Moduli (GPa) = 66.70538 60.97580 153.47654
#
# Poissons Ratio (x) = -0.04680 0.16662
# Poissons Ratio (y) = -0.05120 -0.32428
# Poissons Ratio (z) = 0.07242 -0.12883
#
# Static dielectric constant tensor:
#      x y z
#    x 2.047860 0.000000 0.000000 
#    y 0.000000 1.977560 0.000000 
#    z 0.000000 0.000000 2.071470 
# 
# From -- ./inp_files/42688.got.cif
#   From: 2010.05.17/outbox.cif.g08.bks.cpg/sg74_22_cif.got.tgz:42688.got - 2010.06.03 17:57:02.
