data_PCOD9540614
_publ_section_title
;
Structure prediction by ZEFSAII (Michael W. Deem and Ramdas Pophale) SiO2 
 PCOD9540614
Probable space group: I M M A
;
_chemical_formula_sum "Si O2"
_cell_formula_units_Z 80
_cell_length_a 25.890697
_cell_length_b 14.624592
_cell_length_c 9.501351
_cell_angle_alpha 90.000000
_cell_angle_beta 90.000000
_cell_angle_gamma 90.000000
_cell_volume 3597.599906
_symmetry_space_group_name_H-M "I M M A"
_symmetry_group_IT_number 74
_symmetry_cell_setting 'orthorhombic'
loop_
_space_group_symop_operation_xyz
x,y,z
-x,1/2-y,z
x,-y,-z
-x,1/2+y,-z
-x,-y,-z
x,1/2+y,-z
-x,y,z
x,1/2-y,z
1/2+x,1/2+y,1/2+z
1/2-x,-y,1/2+z
1/2+x,1/2-y,1/2-z
1/2-x,y,1/2-z
1/2-x,1/2-y,1/2-z
1/2+x,y,1/2-z
1/2-x,1/2+y,1/2+z
1/2+x,-y,1/2+z
loop_
_atom_site_type_symbol
_atom_site_label
_atom_site_fract_x
_atom_site_fract_y
_atom_site_fract_z
Si Si1 0.707440 0.151357 0.627271
Si Si2 0.276284 0.083683 0.101725
Si Si3 0.059670 0.356700 0.572486
Si Si4 0.631225 0.004179 0.753700
Si Si5 0.559805 0.853167 0.731287
O O1 0.680197 0.250000 0.640201
O O2 0.750000 0.144215 0.750000
O O3 0.743188 0.155011 0.488049
O O4 0.668306 0.067758 0.657706
O O5 0.250000 0.080427 0.250000
O O6 0.335444 0.065771 0.146820
O O7 0.266068 0.000000 0.000000
O O8 0.071494 0.250000 0.604985
O O9 0.098000 0.425986 0.650447
O O10 0.060700 0.363985 0.402254
O O11 0.000000 0.375797 0.614416
O O12 0.594109 0.934800 0.671313
O O13 0.500000 0.859921 0.688596
O O14 0.578341 0.750000 0.698926
#
# Coordination Sequence:
#
# PCOD9540614 Si02
#       5
#    16  16  16  16  16
#     4  11  25  42  60  90 131 171 217 273 326 381
#     4  12  22  41  63  90 127 167 220 272 321 387
#     4   9  18  31  50  85 127 167 218 274 326 388
#     4  12  20  34  63  85 126 177 220 261 328 401
#     4   9  19  33  52  87 130 167 215 277 331 382
#
# _framework density 22.237048000000001
#
# number of rings (size 3 to 8) (size 9 to 14) (size 15 to 20)
#    0.000    1.400    4.000    4.200    0.000    2.800 
#    0.000    0.000    0.000    3.000    0.000   11.200 
#    0.000   12.800    0.000    0.400    0.000    0.000 
#
# Total GULP energy -222875.212143 kJ/mol
# GULP energy per Si atom -5571.880304 kJ/mol
# Density = 2.218644 g / cm^3
# Si number density = 22.237048 Si / 1000 Ang^3
#
#
#
# Elastic Constant Matrix: (Units=GPa)
#
#
# Indices 1 2 3 4 5 6 
#
# 1 119.1816 66.8782 17.6022 0.0000 0.0000 0.0000
# 2 66.8782 114.7107 -9.3235 0.0000 0.0000 0.0000
# 3 17.6022 -9.3235 57.7032 0.0000 0.0000 0.0000
# 4 0.0000 0.0000 0.0000 19.4191 0.0000 0.0000
# 5 0.0000 0.0000 0.0000 0.0000 18.1703 0.0000
# 6 0.0000 0.0000 0.0000 0.0000 0.0000 34.3748
#
#
#
# Elastic Compliance Matrix: (Units=1/GPa)
#
#
# Indices 1 2 3 4 5 6 
#
# 1 0.014110 -0.008690 -0.005708 0.000000 0.000000 0.000000
# 2 -0.008690 0.014186 0.004943 0.000000 0.000000 0.000000
# 3 -0.005708 0.004943 0.019870 0.000000 0.000000 0.000000
# 4 0.000000 0.000000 0.000000 0.051496 0.000000 0.000000
# 5 0.000000 0.000000 0.000000 0.000000 0.055035 0.000000
# 6 0.000000 0.000000 0.000000 0.000000 0.000000 0.029091
#
#
# Mechanical properties :
#
#
# Convention : Reuss Voigt Hill
#
# Bulk Modulus (GPa) = 34.18246 49.10103 41.64174
# Shear Modulus (GPa) = 23.53479 28.82207 26.17843
#
# Velocity S-wave (km/s) = 3.25677 3.60408 3.43482
# Velocity P-wave (km/s) = 5.43574 6.28076 5.87347
#
# Compressibility (1/GPa) = 0.02925477
#
# Stress axis : x y z
#
# Youngs Moduli (GPa) = 70.87032 70.49180 50.32688
#
# Poissons Ratio (x) = 0.61261 0.28729
# Poissons Ratio (y) = 0.61590 -0.24877
# Poissons Ratio (z) = 0.40456 -0.34845
#
# Static dielectric constant tensor:
#      x y z
#    x 1.915960 0.000000 0.000000 
#    y 0.000000 1.920060 0.000000 
#    z 0.000000 0.000000 1.969670 
# 
# From -- ./inp_files/24885.got.cif
#   From: 2010.05.17/outbox.cif.g08.bks.cpg/sg74_13_cif.got.tgz:24885.got - 2010.06.03 17:57:02.
