data_PCOD9540702
_publ_section_title
;
Structure prediction by ZEFSAII (Michael W. Deem and Ramdas Pophale) SiO2 
 PCOD9540702
Probable space group: I M M A
;
_chemical_formula_sum "Si O2"
_cell_formula_units_Z 64
_cell_length_a 7.340129
_cell_length_b 10.018800
_cell_length_c 43.700544
_cell_angle_alpha 90.000000
_cell_angle_beta 90.000000
_cell_angle_gamma 90.000000
_cell_volume 3213.706735
_symmetry_space_group_name_H-M "I M M A"
_symmetry_group_IT_number 74
_symmetry_cell_setting 'orthorhombic'
loop_
_space_group_symop_operation_xyz
x,y,z
-x,1/2-y,z
x,-y,-z
-x,1/2+y,-z
-x,-y,-z
x,1/2+y,-z
-x,y,z
x,1/2-y,z
1/2+x,1/2+y,1/2+z
1/2-x,-y,1/2+z
1/2+x,1/2-y,1/2-z
1/2-x,y,1/2-z
1/2-x,1/2-y,1/2-z
1/2+x,y,1/2-z
1/2-x,1/2+y,1/2+z
1/2+x,-y,1/2+z
loop_
_atom_site_type_symbol
_atom_site_label
_atom_site_fract_x
_atom_site_fract_y
_atom_site_fract_z
Si Si1 0.221923 0.096425 0.026941
Si Si2 0.783040 0.097270 0.783010
Si Si3 0.277976 0.405703 0.650163
Si Si4 0.778018 0.903872 0.904195
O O1 0.276178 0.250000 0.021890
O O2 0.277695 0.057015 0.061357
O O3 0.000000 0.094274 0.026704
O O4 0.284506 0.000000 0.000000
O O5 0.711500 0.250000 0.781176
O O6 0.750000 0.031264 0.750000
O O7 0.720339 0.044134 0.815959
O O8 0.000000 0.105357 0.785393
O O9 0.500000 0.407745 0.649382
O O10 0.225328 0.250000 0.647090
O O11 0.215089 0.497507 0.622374
O O12 0.723858 0.750000 0.898980
O O13 0.000000 0.905484 0.903927
#
# Coordination Sequence:
#
# PCOD9540702 Si02
#       4
#    16  16  16  16
#     4   8  13  19  25  34  49  70  97 128 160 192
#     4   8  13  21  33  49  68  88 111 141 175 208
#     4   8  13  20  30  44  59  76 102 134 164 195
#     4   8  13  20  28  38  54  76 101 130 164 198
#
# _framework density 19.9147
#
# number of rings (size 3 to 8) (size 9 to 14) (size 15 to 20)
#    0.000    4.000    0.000    3.000    0.000    1.000 
#    0.000    5.000    0.000    0.750    0.000    0.000 
#    0.000    0.000    0.000    0.000    0.000    1.250 
#
# Total GULP energy -178143.857755 kJ/mol
# GULP energy per Si atom -5566.995555 kJ/mol
# Density = 1.986937 g / cm^3
# Si number density = 19.914700 Si / 1000 Ang^3
#
#
#
# Elastic Constant Matrix: (Units=GPa)
#
#
# Indices 1 2 3 4 5 6 
#
# 1 74.2049 2.6766 7.7429 0.0000 0.0000 0.0000
# 2 2.6766 70.4174 117.5168 0.0000 0.0000 0.0000
# 3 7.7429 117.5168 270.1378 0.0000 0.0000 0.0000
# 4 0.0000 0.0000 0.0000 28.6614 0.0000 0.0000
# 5 0.0000 0.0000 0.0000 0.0000 -0.8194 0.0000
# 6 0.0000 0.0000 0.0000 0.0000 0.0000 -14.7821
#
#
#
# Elastic Compliance Matrix: (Units=1/GPa)
#
#
# Indices 1 2 3 4 5 6 
#
# 1 0.013521 0.000485 -0.000598 0.000000 0.000000 0.000000
# 2 0.000485 0.051845 -0.022568 0.000000 0.000000 0.000000
# 3 -0.000598 -0.022568 0.013537 0.000000 0.000000 0.000000
# 4 0.000000 0.000000 0.000000 0.034890 0.000000 0.000000
# 5 0.000000 0.000000 0.000000 0.000000 -1.220450 0.000000
# 6 0.000000 0.000000 0.000000 0.000000 0.000000 -0.067649
#
#
# Mechanical properties :
#
#
# Convention : Reuss Voigt Hill
#
# Bulk Modulus (GPa) = 29.81534 74.51474 52.16504
# Shear Modulus (GPa) = -4.47322 21.73359 8.63018
#
# Velocity S-wave (km/s) = -1.50036 3.30712 2.08398
# Velocity P-wave (km/s) = 3.46448 7.21671 5.66054
#
# Compressibility (1/GPa) = 0.03353978
#
# Stress axis : x y z
#
# Youngs Moduli (GPa) = 73.95818 19.28823 73.87416
#
# Poissons Ratio (x) = -0.00935 0.04421
# Poissons Ratio (y) = -0.03585 1.66718
# Poissons Ratio (z) = 0.04426 0.43529
#
# Static dielectric constant tensor:
#      x y z
#    x 2.693300 0.000000 0.000000 
#    y 0.000000 1.651860 0.000000 
#    z 0.000000 0.000000 1.738050 
# 
# From -- ./inp_files/65607.got.cif
#   From: 2010.05.17/outbox.cif.g08.bks.cpg/sg74_33_cif.got.tgz:65607.got - 2010.06.03 17:57:02.
