data_PCOD9540127
_publ_section_title
;
Structure prediction by ZEFSAII (Michael W. Deem and Ramdas Pophale) SiO2 
 PCOD9540127
Probable space group: I M M A
;
_chemical_formula_sum "Si O2"
_cell_formula_units_Z 64
_cell_length_a 10.715009
_cell_length_b 25.517737
_cell_length_c 12.373732
_cell_angle_alpha 90.000000
_cell_angle_beta 90.000000
_cell_angle_gamma 90.000000
_cell_volume 3383.260222
_symmetry_space_group_name_H-M "I M M A"
_symmetry_group_IT_number 74
_symmetry_cell_setting 'orthorhombic'
loop_
_space_group_symop_operation_xyz
x,y,z
-x,1/2-y,z
x,-y,-z
-x,1/2+y,-z
-x,-y,-z
x,1/2+y,-z
-x,y,z
x,1/2-y,z
1/2+x,1/2+y,1/2+z
1/2-x,-y,1/2+z
1/2+x,1/2-y,1/2-z
1/2-x,y,1/2-z
1/2-x,1/2-y,1/2-z
1/2+x,y,1/2-z
1/2-x,1/2+y,1/2+z
1/2+x,-y,1/2+z
loop_
_atom_site_type_symbol
_atom_site_label
_atom_site_fract_x
_atom_site_fract_y
_atom_site_fract_z
Si Si1 0.244557 0.360876 0.880030
Si Si2 0.000000 0.014079 0.338051
Si Si3 0.144717 0.442954 0.032798
Si Si4 0.000000 0.594069 0.468998
Si Si5 0.350509 0.750000 0.348979
Si Si6 0.750000 0.549391 0.750000
O O1 0.250000 0.365415 0.750000
O O2 0.379151 0.372436 0.934051
O O3 0.185459 0.304234 0.907040
O O4 0.159406 0.405463 0.931620
O O5 0.000000 0.067659 0.411256
O O6 0.873111 0.015667 0.270884
O O7 0.000000 0.959994 0.401735
O O8 0.217296 0.421805 0.138118
O O9 0.000000 0.448780 0.059775
O O10 0.197804 0.500000 0.000000
O O11 0.500000 0.750000 0.321080
O O12 0.250000 0.750000 0.250000
#
# Coordination Sequence:
#
# PCOD9540127 Si02
#       6
#    16   8  16   8   8   8
#     4  11  25  39  66  91 130 164 214 258 318 372
#     4  11  24  40  58  91 137 171 212 250 320 366
#     4  11  24  37  58  91 125 166 208 254 315 378
#     4  11  24  39  61  94 128 175 209 261 308 385
#     4  10  24  44  66  91 126 167 214 267 317 375
#     4  12  22  40  58  85 126 173 208 258 298 382
#
# _framework density 18.916664999999998
#
# number of rings (size 3 to 8) (size 9 to 14) (size 15 to 20)
#    0.000    1.000    3.750    2.250   15.750    0.000 
#    0.000    0.000    0.000    0.750    0.000    0.000 
#    0.000    0.000    0.000    0.000    0.000    0.000 
#
# Total GULP energy -178454.903999 kJ/mol
# GULP energy per Si atom -5576.715750 kJ/mol
# Density = 1.887361 g / cm^3
# Si number density = 18.916665 Si / 1000 Ang^3
#
#
#
# Elastic Constant Matrix: (Units=GPa)
#
#
# Indices 1 2 3 4 5 6 
#
# 1 147.2034 27.6602 22.4465 0.0000 0.0000 0.0000
# 2 27.6602 126.2926 38.6463 0.0000 0.0000 0.0000
# 3 22.4465 38.6463 84.5893 0.0002 -0.0003 -0.0003
# 4 0.0000 0.0000 0.0002 21.5136 0.0000 0.0000
# 5 0.0000 0.0000 -0.0003 0.0000 23.7600 0.0001
# 6 0.0000 0.0000 -0.0003 0.0000 0.0001 30.8713
#
#
#
# Elastic Compliance Matrix: (Units=1/GPa)
#
#
# Indices 1 2 3 4 5 6 
#
# 1 0.007222 -0.001157 -0.001388 0.000000 0.000000 0.000000
# 2 -0.001157 0.009390 -0.003983 0.000000 0.000000 0.000000
# 3 -0.001388 -0.003983 0.014010 0.000000 0.000000 0.000000
# 4 0.000000 0.000000 0.000000 0.046482 0.000000 0.000000
# 5 0.000000 0.000000 0.000000 0.000000 0.042087 0.000000
# 6 0.000000 0.000000 0.000000 0.000000 0.000000 0.032393
#
#
# Mechanical properties :
#
#
# Convention : Reuss Voigt Hill
#
# Bulk Modulus (GPa) = 56.92681 59.51013 58.21847
# Shear Modulus (GPa) = 29.32609 33.18447 31.25528
#
# Velocity S-wave (km/s) = 3.94163 4.19291 4.06921
# Velocity P-wave (km/s) = 7.13260 7.41405 7.27469
#
# Compressibility (1/GPa) = 0.01756642
#
# Stress axis : x y z
#
# Youngs Moduli (GPa) = 138.45846 106.49154 71.37816
#
# Poissons Ratio (x) = 0.12322 0.09906
# Poissons Ratio (y) = 0.16021 0.28431
# Poissons Ratio (z) = 0.19216 0.42417
#
# Static dielectric constant tensor:
#      x y z
#    x 1.723620 0.000000 0.000000 
#    y 0.000000 1.638710 0.000000 
#    z 0.000000 0.000000 1.717720 
# 
# From -- ./inp_files/18687.got.cif
#   From: 2010.05.17/outbox.cif.g08.bks.cpg/sg74_10_cif.got.tgz:18687.got - 2010.06.03 17:57:02.
