data_PCOD9540529
_publ_section_title
;
Structure prediction by ZEFSAII (Michael W. Deem and Ramdas Pophale) SiO2 
 PCOD9540529
Probable space group: I M M A
;
_chemical_formula_sum "Si O2"
_cell_formula_units_Z 112
_cell_length_a 17.297741
_cell_length_b 29.433094
_cell_length_c 11.797466
_cell_angle_alpha 90.000000
_cell_angle_beta 90.000000
_cell_angle_gamma 90.000000
_cell_volume 6006.397109
_symmetry_space_group_name_H-M "I M M A"
_symmetry_group_IT_number 74
_symmetry_cell_setting 'orthorhombic'
loop_
_space_group_symop_operation_xyz
x,y,z
-x,1/2-y,z
x,-y,-z
-x,1/2+y,-z
-x,-y,-z
x,1/2+y,-z
-x,y,z
x,1/2-y,z
1/2+x,1/2+y,1/2+z
1/2-x,-y,1/2+z
1/2+x,1/2-y,1/2-z
1/2-x,y,1/2-z
1/2-x,1/2-y,1/2-z
1/2+x,y,1/2-z
1/2-x,1/2+y,1/2+z
1/2+x,-y,1/2+z
loop_
_atom_site_type_symbol
_atom_site_label
_atom_site_fract_x
_atom_site_fract_y
_atom_site_fract_z
Si Si1 0.830722 0.889585 0.388416
Si Si2 0.908329 0.046721 0.439107
Si Si3 0.591207 0.197635 0.790200
Si Si4 0.833389 0.965335 0.800287
Si Si5 0.834331 0.391455 0.003648
Si Si6 0.410846 0.442219 0.683900
Si Si7 0.091555 0.301703 0.982088
O O1 0.875083 0.910114 0.495873
O O2 0.857061 0.839214 0.353526
O O3 0.741362 0.891622 0.423564
O O4 0.859481 0.921564 0.285373
O O5 0.883414 0.047971 0.309115
O O6 0.000000 0.046332 0.448420
O O7 0.879034 0.000000 0.500000
O O8 0.500000 0.188133 0.810987
O O9 0.606876 0.250000 0.822237
O O10 0.602675 0.194163 0.654416
O O11 0.750000 0.978012 0.750000
O O12 0.875135 0.009524 0.850263
O O13 0.824252 0.925590 0.891814
O O14 0.903116 0.409679 0.923776
O O15 0.857243 0.340641 0.038402
O O16 0.500000 0.446267 0.721092
O O17 0.111754 0.250000 0.013721
O O18 0.000000 0.307969 0.003937
#
# Coordination Sequence:
#
# PCOD9540529 Si02
#       7
#    16  16  16  16  16  16  16
#     4  12  22  38  60  91 126 162 196 250 308 369
#     4  11  23  40  64  86 112 162 212 250 299 364
#     4   9  18  34  59  90 124 159 196 247 306 365
#     4  12  25  43  59  84 126 163 207 256 300 356
#     4  12  25  38  61  91 127 163 201 252 313 364
#     4  12  25  39  60  90 123 162 208 251 300 363
#     4   9  19  37  61  90 125 161 200 249 308 374
#
# _framework density 18.646787
#
# number of rings (size 3 to 8) (size 9 to 14) (size 15 to 20)
#    0.000    1.000    4.286    4.714    0.000    3.429 
#    0.000    1.429    0.000    1.286    0.000    2.000 
#    0.000    0.000    0.000    0.000    0.000    0.000 
#
# Total GULP energy -312933.127359 kJ/mol
# GULP energy per Si atom -5588.091560 kJ/mol
# Density = 1.860435 g / cm^3
# Si number density = 18.646787 Si / 1000 Ang^3
#
#
#
# Elastic Constant Matrix: (Units=GPa)
#
#
# Indices 1 2 3 4 5 6 
#
# 1 88.9707 56.4831 14.9271 0.0001 0.0000 0.0000
# 2 56.4831 121.8158 34.7270 -0.0002 0.0000 -0.0001
# 3 14.9271 34.7270 34.2840 -0.0005 0.0000 0.0001
# 4 0.0001 -0.0002 -0.0005 34.3137 0.0000 -0.0001
# 5 0.0000 0.0000 0.0000 0.0000 23.4240 0.0000
# 6 0.0000 -0.0001 0.0001 -0.0001 0.0000 15.6485
#
#
#
# Elastic Compliance Matrix: (Units=1/GPa)
#
#
# Indices 1 2 3 4 5 6 
#
# 1 0.015943 -0.007611 0.000768 0.000000 0.000000 0.000000
# 2 -0.007611 0.015176 -0.012058 0.000000 0.000000 0.000000
# 3 0.000768 -0.012058 0.041047 0.000000 0.000000 0.000000
# 4 0.000000 0.000000 0.000000 0.029143 0.000000 0.000000
# 5 0.000000 0.000000 0.000000 0.000000 0.042691 0.000000
# 6 0.000000 0.000000 0.000000 0.000000 0.000000 0.063904
#
#
# Mechanical properties :
#
#
# Convention : Reuss Voigt Hill
#
# Bulk Modulus (GPa) = 29.10028 50.81611 39.95820
# Shear Modulus (GPa) = 19.44311 23.93946 21.69129
#
# Velocity S-wave (km/s) = 3.23260 3.58696 3.41438
# Velocity P-wave (km/s) = 5.43809 6.66829 6.08436
#
# Compressibility (1/GPa) = 0.03436393
#
# Stress axis : x y z
#
# Youngs Moduli (GPa) = 62.72414 65.89452 24.36212
#
# Poissons Ratio (x) = 0.50155 -0.01872
# Poissons Ratio (y) = 0.47741 0.29376
# Poissons Ratio (z) = -0.04819 0.79455
#
# Static dielectric constant tensor:
#      x y z
#    x 1.657010 0.000000 0.000000 
#    y 0.000000 1.675720 0.000000 
#    z 0.000000 0.000000 1.624400 
# 
# From -- ./inp_files/21106.got.cif
#   From: 2010.05.17/outbox.cif.g08.bks.cpg/sg74_11_cif.got.tgz:21106.got - 2010.06.03 17:57:02.
