data_PCOD9540789
_publ_section_title
;
Structure prediction by ZEFSAII (Michael W. Deem and Ramdas Pophale) SiO2 
 PCOD9540789
Probable space group: I M M A
;
_chemical_formula_sum "Si O2"
_cell_formula_units_Z 52
_cell_length_a 24.000000
_cell_length_b 9.000000
_cell_length_c 30.000000
_cell_angle_alpha 90.000000
_cell_angle_beta 90.000000
_cell_angle_gamma 90.000000
_cell_volume 6480.000000
_symmetry_space_group_name_H-M "I M M A"
_symmetry_group_IT_number 74
_symmetry_cell_setting 'orthorhombic'
loop_
_space_group_symop_operation_xyz
x,y,z
-x,1/2-y,z
x,-y,-z
-x,1/2+y,-z
-x,-y,-z
x,1/2+y,-z
-x,y,z
x,1/2-y,z
1/2+x,1/2+y,1/2+z
1/2-x,-y,1/2+z
1/2+x,1/2-y,1/2-z
1/2-x,y,1/2-z
1/2-x,1/2-y,1/2-z
1/2+x,y,1/2-z
1/2-x,1/2+y,1/2+z
1/2+x,-y,1/2+z
loop_
_atom_site_type_symbol
_atom_site_label
_atom_site_fract_x
_atom_site_fract_y
_atom_site_fract_z
Si Si1 0.566003 0.928207 0.302230
Si Si2 0.843088 0.428953 0.548332
Si Si3 0.067623 0.419478 0.288896
Si Si4 0.500000 0.429772 0.548530
Si Si5 0.890131 0.930791 0.103711
Si Si6 0.283048 0.570719 0.451373
Si Si7 0.564295 0.070975 0.881153
O O1 0.500000 0.960286 0.309280
O O2 0.570444 0.750000 0.297939
O O3 0.599557 0.978830 0.345637
O O4 0.585541 0.003450 0.256773
O O5 0.850946 0.500000 0.500000
O O6 0.845844 0.250000 0.544576
O O7 0.780000 0.466739 0.563613
O O8 0.891695 0.477754 0.581671
O O9 0.086591 0.250000 0.291443
O O10 0.082221 0.508381 0.333318
O O11 0.000000 0.419837 0.287526
O O12 0.500000 0.250000 0.545655
O O13 0.500000 0.500000 0.500000
O O14 0.444091 0.474862 0.574824
O O15 0.890023 0.750000 0.104265
O O16 0.832463 0.978972 0.081294
O O17 0.291433 0.500000 0.500000
O O18 0.286140 0.750000 0.455335
O O19 0.500000 0.024434 0.890141
O O20 0.564590 0.250000 0.879413
#
# Coordination Sequence:
#
# PCOD9540789 Si02
#       7
#    16  16  16   8  16  16  16
#     4   9  15  26  44  63  84 114 149 181 216 259
#     4   9  18  31  47  67  90 116 147 180 213 253
#     4   9  17  28  43  66  93 116 139 175 220 263
#     4  10  18  28  40  60  88 116 146 182 223 264
#     4   9  16  27  44  63  85 114 149 185 218 257
#     4   9  17  30  46  63  85 115 150 184 216 254
#     4   9  17  30  47  67  90 116 145 175 211 259
#
# _framework density 8.0246910000000007
#
# number of rings (size 3 to 8) (size 9 to 14) (size 15 to 20)
#    0.000    2.923    0.769    0.923    0.000    2.769 
#    0.000    1.538    0.000    0.923    0.000    6.462 
#    0.000    0.000    0.000    0.000    0.000    0.000 
#
# Total GULP energy -289595.780091 kJ/mol
# GULP energy per Si atom -5569.149617 kJ/mol
# Density = 0.800643 g / cm^3
# Si number density = 8.024691 Si / 1000 Ang^3
#
#
#
# Elastic Constant Matrix: (Units=GPa)
#
#
# Indices 1 2 3 4 5 6 
#
# 1 111.0490 26.7317 95.0827 0.0000 0.0000 0.0000
# 2 26.7317 7.1440 27.3836 0.0000 0.0000 0.0000
# 3 95.0827 27.3836 138.5202 0.0000 0.0000 0.0000
# 4 0.0000 0.0000 0.0000 23.2303 0.0000 0.0000
# 5 0.0000 0.0000 0.0000 0.0000 14.3682 0.0000
# 6 0.0000 0.0000 0.0000 0.0000 0.0000 8.2904
#
#
#
# Elastic Compliance Matrix: (Units=1/GPa)
#
#
# Indices 1 2 3 4 5 6 
#
# 1 0.106386 -0.487784 0.023403 0.000000 0.000000 0.000000
# 2 -0.487784 2.814317 -0.221530 0.000000 0.000000 0.000000
# 3 0.023403 -0.221530 0.034948 0.000000 0.000000 0.000000
# 4 0.000000 0.000000 0.000000 0.043047 0.000000 0.000000
# 5 0.000000 0.000000 0.000000 0.000000 0.069598 0.000000
# 6 0.000000 0.000000 0.000000 0.000000 0.000000 0.120621
#
#
# Mechanical properties :
#
#
# Convention : Reuss Voigt Hill
#
# Bulk Modulus (GPa) = 0.63138 61.67882 31.15510
# Shear Modulus (GPa) = 0.98257 16.34547 8.66402
#
# Velocity S-wave (km/s) = 0.78329 3.19478 2.32596
# Velocity P-wave (km/s) = 1.10105 7.21962 5.16407
#
# Compressibility (1/GPa) = 1.58383055
#
# Stress axis : x y z
#
# Youngs Moduli (GPa) = 9.39972 0.35533 28.61361
#
# Poissons Ratio (x) = 0.17332 -0.66964
# Poissons Ratio (y) = 4.58503 6.33876
# Poissons Ratio (z) = -0.21998 0.07872
#
# Static dielectric constant tensor:
#      x y z
#    x 1.539710 0.000000 0.000000 
#    y 0.000000 1.538850 0.000000 
#    z 0.000000 0.000000 1.521580 
# 
# From -- ./inp_files/70975.got.cif
#   From: 2010.05.17/outbox.ucp.g08.bks.cvg/sg74_36_cif.got.tgz:70975.got - 2010.06.11 16:37:44.
