data_PCOD9540322
_publ_section_title
;
Structure prediction by ZEFSAII (Michael W. Deem and Ramdas Pophale) SiO2 
 PCOD9540322
Probable space group: I M M A
;
_chemical_formula_sum "Si O2"
_cell_formula_units_Z 112
_cell_length_a 27.962568
_cell_length_b 15.619299
_cell_length_c 12.638157
_cell_angle_alpha 90.000000
_cell_angle_beta 90.000000
_cell_angle_gamma 90.000000
_cell_volume 5519.787239
_symmetry_space_group_name_H-M "I M M A"
_symmetry_group_IT_number 74
_symmetry_cell_setting 'orthorhombic'
loop_
_space_group_symop_operation_xyz
x,y,z
-x,1/2-y,z
x,-y,-z
-x,1/2+y,-z
-x,-y,-z
x,1/2+y,-z
-x,y,z
x,1/2-y,z
1/2+x,1/2+y,1/2+z
1/2-x,-y,1/2+z
1/2+x,1/2-y,1/2-z
1/2-x,y,1/2-z
1/2-x,1/2-y,1/2-z
1/2+x,y,1/2-z
1/2-x,1/2+y,1/2+z
1/2+x,-y,1/2+z
loop_
_atom_site_type_symbol
_atom_site_label
_atom_site_fract_x
_atom_site_fract_y
_atom_site_fract_z
Si Si1 0.215070 0.155239 0.149433
Si Si2 0.299615 0.602105 0.994324
Si Si3 0.556795 0.489879 0.259796
Si Si4 0.193115 0.348535 0.735841
Si Si5 0.648318 0.000919 0.623225
Si Si6 0.942972 0.844517 0.382153
Si Si7 0.104286 0.348732 0.388421
O O1 0.193810 0.250000 0.140898
O O2 0.250000 0.152499 0.250000
O O3 0.249341 0.138455 0.047941
O O4 0.175859 0.082674 0.164666
O O5 0.340741 0.627281 0.911023
O O6 0.295849 0.500000 0.000000
O O7 0.314826 0.635260 0.110448
O O8 0.500000 0.483532 0.278398
O O9 0.591626 0.493145 0.359752
O O10 0.567272 0.577109 0.194747
O O11 0.576511 0.411995 0.188884
O O12 0.181062 0.250000 0.761678
O O13 0.250000 0.360136 0.750000
O O14 0.167471 0.417320 0.811215
O O15 0.659982 0.000000 0.500000
O O16 0.928331 0.750000 0.341992
O O17 0.919931 0.857452 0.496268
O O18 0.000000 0.843741 0.396368
O O19 0.100957 0.250000 0.354676
#
# Coordination Sequence:
#
# PCOD9540322 Si02
#       7
#    16  16  16  16  16  16  16
#     4  11  23  40  63  93 130 168 203 241 296 371
#     4  12  22  36  62  95 134 171 205 247 300 371
#     4  11  24  41  61  85 115 155 206 263 319 377
#     4  11  23  40  64  95 130 168 211 258 310 372
#     4  12  26  43  63  86 116 159 211 268 325 378
#     4   9  18  34  58  89 123 155 189 237 303 377
#     4  11  21  34  57  91 128 163 196 236 297 371
#
# _framework density 20.290638000000001
#
# number of rings (size 3 to 8) (size 9 to 14) (size 15 to 20)
#    0.000    1.000    0.000    9.000    0.000    7.429 
#    0.000    0.000    0.000    0.000    0.000    4.000 
#    0.000    0.000    0.000    0.000    0.000    0.000 
#
# Total GULP energy -313282.995553 kJ/mol
# GULP energy per Si atom -5594.339206 kJ/mol
# Density = 2.024446 g / cm^3
# Si number density = 20.290638 Si / 1000 Ang^3
#
#
#
# Elastic Constant Matrix: (Units=GPa)
#
#
# Indices 1 2 3 4 5 6 
#
# 1 96.5133 55.8144 34.5676 0.0000 0.0000 0.0000
# 2 55.8144 144.5159 42.5783 0.0000 0.0000 0.0000
# 3 34.5676 42.5783 88.0217 0.0000 0.0000 0.0000
# 4 0.0000 0.0000 0.0000 -284.5520 0.0000 0.0000
# 5 0.0000 0.0000 0.0000 0.0000 36.3434 0.0000
# 6 0.0000 0.0000 0.0000 0.0000 0.0000 -158.7123
#
#
#
# Elastic Compliance Matrix: (Units=1/GPa)
#
#
# Indices 1 2 3 4 5 6 
#
# 1 0.014163 -0.004468 -0.003401 0.000000 0.000000 0.000000
# 2 -0.004468 0.009479 -0.002831 0.000000 0.000000 0.000000
# 3 -0.003401 -0.002831 0.014066 0.000000 0.000000 0.000000
# 4 0.000000 0.000000 0.000000 -0.003514 0.000000 0.000000
# 5 0.000000 0.000000 0.000000 0.000000 0.027515 0.000000
# 6 0.000000 0.000000 0.000000 0.000000 0.000000 -0.006301
#
#
# Mechanical properties :
#
#
# Convention : Reuss Voigt Hill
#
# Bulk Modulus (GPa) = 61.31573 66.10793 63.71183
# Shear Modulus (GPa) = 60.79469 -68.31146 -3.75838
#
# Velocity S-wave (km/s) = 5.47969 -5.80858 -1.36246
# Velocity P-wave (km/s) = 8.38572 3.51210 5.38449
#
# Compressibility (1/GPa) = 0.01630903
#
# Stress axis : x y z
#
# Youngs Moduli (GPa) = 70.60522 105.49303 71.09518
#
# Poissons Ratio (x) = 0.47135 0.24178
# Poissons Ratio (y) = 0.31547 0.20125
# Poissons Ratio (z) = 0.24011 0.29862
#
# Static dielectric constant tensor:
#      x y z
#    x 1.723910 0.000000 0.000000 
#    y 0.000000 1.719650 0.000000 
#    z 0.000000 0.000000 1.713260 
# 
# From -- ./inp_files/27198.got.cif
#   From: 2010.05.17/outbox.cif.g08.bks.cpg/sg74_14_cif.got.tgz:27198.got - 2010.06.03 17:57:02.
