data_PCOD9540370
_publ_section_title
;
Structure prediction by ZEFSAII (Michael W. Deem and Ramdas Pophale) SiO2 
 PCOD9540370
Probable space group: I M M A
;
_chemical_formula_sum "Si O2"
_cell_formula_units_Z 88
_cell_length_a 15.696026
_cell_length_b 12.408243
_cell_length_c 19.891864
_cell_angle_alpha 90.000000
_cell_angle_beta 90.000000
_cell_angle_gamma 90.000000
_cell_volume 3874.141516
_symmetry_space_group_name_H-M "I M M A"
_symmetry_group_IT_number 74
_symmetry_cell_setting 'orthorhombic'
loop_
_space_group_symop_operation_xyz
x,y,z
-x,1/2-y,z
x,-y,-z
-x,1/2+y,-z
-x,-y,-z
x,1/2+y,-z
-x,y,z
x,1/2-y,z
1/2+x,1/2+y,1/2+z
1/2-x,-y,1/2+z
1/2+x,1/2-y,1/2-z
1/2-x,y,1/2-z
1/2-x,1/2-y,1/2-z
1/2+x,y,1/2-z
1/2-x,1/2+y,1/2+z
1/2+x,-y,1/2+z
loop_
_atom_site_type_symbol
_atom_site_label
_atom_site_fract_x
_atom_site_fract_y
_atom_site_fract_z
Si Si1 0.654584 0.750000 0.303445
Si Si2 0.358972 0.250000 0.844919
Si Si3 0.147346 0.075501 0.909440
Si Si4 0.898279 0.621507 0.682932
Si Si5 0.842407 0.041280 0.572696
Si Si6 0.000000 0.632910 0.999323
Si Si7 0.897315 0.871166 0.832755
O O1 0.608782 0.750000 0.231304
O O2 0.757852 0.750000 0.321008
O O3 0.630725 0.640050 0.340638
O O4 0.381436 0.354405 0.889429
O O5 0.243895 0.075521 0.934077
O O6 0.088042 0.137208 0.960564
O O7 0.124741 0.952244 0.891972
O O8 0.887116 0.750000 0.675916
O O9 0.850696 0.555352 0.625949
O O10 0.868239 0.592274 0.758398
O O11 0.000000 0.599739 0.677194
O O12 0.874611 0.000000 0.500000
O O13 0.000000 0.750000 0.959470
O O14 0.000000 0.500000 0.000000
O O15 0.865044 0.750000 0.843328
O O16 0.000000 0.868667 0.828348
#
# Coordination Sequence:
#
# PCOD9540370 Si02
#       7
#     8   8  16  16  16   8  16
#     4   9  18  35  64  85 118 153 204 268 323 361
#     4   9  20  38  57  90 121 156 200 260 320 373
#     4  11  21  39  62  92 122 165 216 263 321 372
#     4   9  20  40  64  92 123 161 201 258 332 388
#     4  11  24  39  60  87 124 168 209 259 313 388
#     4  12  26  44  64  94 134 188 232 266 317 395
#     4   9  18  34  59  91 127 155 200 263 323 383
#
# _framework density 22.714711000000001
#
# number of rings (size 3 to 8) (size 9 to 14) (size 15 to 20)
#    0.000    2.000    1.818    2.727    1.273    4.000 
#    0.000    2.273    0.000    0.000    0.000    0.000 
#    0.000    0.000    0.000    0.000    0.000    0.000 
#
# Total GULP energy -245122.868943 kJ/mol
# GULP energy per Si atom -5570.974294 kJ/mol
# Density = 2.266301 g / cm^3
# Si number density = 22.714711 Si / 1000 Ang^3
#
#
#
# Elastic Constant Matrix: (Units=GPa)
#
#
# Indices 1 2 3 4 5 6 
#
# 1 32.1028 -5.2186 -7.0937 0.0000 0.0000 0.0000
# 2 -5.2186 120.6730 51.4643 0.0000 0.0000 0.0000
# 3 -7.0937 51.4643 122.6091 0.0000 0.0000 0.0000
# 4 0.0000 0.0000 0.0000 -157.5881 0.0000 0.0000
# 5 0.0000 0.0000 0.0000 0.0000 -0.6983 0.0000
# 6 0.0000 0.0000 0.0000 0.0000 0.0000 58.1171
#
#
#
# Elastic Compliance Matrix: (Units=1/GPa)
#
#
# Indices 1 2 3 4 5 6 
#
# 1 0.031604 0.000715 0.001528 0.000000 0.000000 0.000000
# 2 0.000715 0.010110 -0.004202 0.000000 0.000000 0.000000
# 3 0.001528 -0.004202 0.010008 0.000000 0.000000 0.000000
# 4 0.000000 0.000000 0.000000 -0.006346 0.000000 0.000000
# 5 0.000000 0.000000 0.000000 0.000000 -1.432082 0.000000
# 6 0.000000 0.000000 0.000000 0.000000 0.000000 0.017207
#
#
# Mechanical properties :
#
#
# Convention : Reuss Voigt Hill
#
# Bulk Modulus (GPa) = 20.91865 39.29878 30.10871
# Shear Modulus (GPa) = -3.70468 -4.28499 -3.99483
#
# Velocity S-wave (km/s) = -1.27848 -1.37497 -1.32760
# Velocity P-wave (km/s) = 2.65518 3.84940 3.30665
#
# Compressibility (1/GPa) = 0.04780424
#
# Stress axis : x y z
#
# Youngs Moduli (GPa) = 31.64171 98.91276 99.91728
#
# Poissons Ratio (x) = -0.07071 -0.15271
# Poissons Ratio (y) = -0.02262 0.41987
# Poissons Ratio (z) = -0.04836 0.41565
#
# Static dielectric constant tensor:
#      x y z
#    x 1.889280 0.000000 0.000000 
#    y 0.000000 -4.385670 0.000000 
#    z 0.000000 0.000000 1.924870 
# 
# From -- ./inp_files/52907.got.cif
#   From: 2010.05.17/outbox.cif.g08.bks.cpg/sg74_27_cif.got.tgz:52907.got - 2010.06.03 17:57:02.
