data_PCOD9540334
_publ_section_title
;
Structure prediction by ZEFSAII (Michael W. Deem and Ramdas Pophale) SiO2 
 PCOD9540334
Probable space group: I M M A
;
_chemical_formula_sum "Si O2"
_cell_formula_units_Z 64
_cell_length_a 7.381683
_cell_length_b 23.646013
_cell_length_c 23.669234
_cell_angle_alpha 90.000000
_cell_angle_beta 90.000000
_cell_angle_gamma 90.000000
_cell_volume 4131.402596
_symmetry_space_group_name_H-M "I M M A"
_symmetry_group_IT_number 74
_symmetry_cell_setting 'orthorhombic'
loop_
_space_group_symop_operation_xyz
x,y,z
-x,1/2-y,z
x,-y,-z
-x,1/2+y,-z
-x,-y,-z
x,1/2+y,-z
-x,y,z
x,1/2-y,z
1/2+x,1/2+y,1/2+z
1/2-x,-y,1/2+z
1/2+x,1/2-y,1/2-z
1/2-x,y,1/2-z
1/2-x,1/2-y,1/2-z
1/2+x,y,1/2-z
1/2-x,1/2+y,1/2+z
1/2+x,-y,1/2+z
loop_
_atom_site_type_symbol
_atom_site_label
_atom_site_fract_x
_atom_site_fract_y
_atom_site_fract_z
Si Si1 0.217975 0.908429 0.021493
Si Si2 0.718327 0.015612 0.412268
Si Si3 0.214365 0.097938 0.183957
Si Si4 0.000000 0.815704 0.636679
Si Si5 0.500000 0.815703 0.999696
O O1 0.326169 0.850355 0.021615
O O2 0.000000 0.900820 0.022816
O O3 0.275809 0.952701 0.070316
O O4 0.265309 0.941551 0.963233
O O5 0.500000 0.012989 0.412360
O O6 0.774236 0.044162 0.353839
O O7 0.250000 0.089457 0.250000
O O8 0.327215 0.151226 0.161408
O O9 0.000000 0.106545 0.175067
O O10 0.000000 0.750000 0.653084
O O11 0.000000 0.818830 0.568706
O O12 0.500000 0.750000 0.015662
#
# Coordination Sequence:
#
# PCOD9540334 Si02
#       5
#    16  16  16   8   8
#     4   9  17  32  50  70  96 124 155 196 243 297
#     4   8  16  30  51  72  92 122 158 192 248 303
#     4  11  21  36  51  69  95 125 160 210 248 280
#     4  11  24  37  47  65  93 135 181 202 230 276
#     4  11  22  32  48  74  98 128 171 200 228 282
#
# _framework density 15.491107
#
# number of rings (size 3 to 8) (size 9 to 14) (size 15 to 20)
#    0.000    2.250    3.750    1.500    0.000    4.500 
#    0.000    2.500    0.000    0.000    0.000    0.000 
#    0.000    1.000    0.500    0.000    0.000    0.000 
#
# Total GULP energy -178409.503909 kJ/mol
# GULP energy per Si atom -5575.296997 kJ/mol
# Density = 1.545585 g / cm^3
# Si number density = 15.491107 Si / 1000 Ang^3
#
#
#
# Elastic Constant Matrix: (Units=GPa)
#
#
# Indices 1 2 3 4 5 6 
#
# 1 94.7994 55.5133 26.5617 0.0000 0.0000 0.0000
# 2 55.5133 156.9342 67.0793 0.0000 0.0000 0.0000
# 3 26.5617 67.0793 72.8829 0.0000 0.0000 0.0000
# 4 0.0000 0.0000 0.0000 21.7228 0.0000 0.0000
# 5 0.0000 0.0000 0.0000 0.0000 -153.5571 0.0000
# 6 0.0000 0.0000 0.0000 0.0000 0.0000 33.0565
#
#
#
# Elastic Compliance Matrix: (Units=1/GPa)
#
#
# Indices 1 2 3 4 5 6 
#
# 1 0.013337 -0.004352 -0.000855 0.000000 0.000000 0.000000
# 2 -0.004352 0.011925 -0.009389 0.000000 0.000000 0.000000
# 3 -0.000855 -0.009389 0.022674 0.000000 0.000000 0.000000
# 4 0.000000 0.000000 0.000000 0.046035 0.000000 0.000000
# 5 0.000000 0.000000 0.000000 0.000000 -0.006512 0.000000
# 6 0.000000 0.000000 0.000000 0.000000 0.000000 0.030251
#
#
# Mechanical properties :
#
#
# Convention : Reuss Voigt Hill
#
# Bulk Modulus (GPa) = 53.35360 69.21390 61.28375
# Shear Modulus (GPa) = 32.64786 -8.05810 12.29488
#
# Velocity S-wave (km/s) = 4.59576 -2.28321 2.82028
# Velocity P-wave (km/s) = 7.91691 6.15029 7.08885
#
# Compressibility (1/GPa) = 0.01874288
#
# Stress axis : x y z
#
# Youngs Moduli (GPa) = 74.98070 83.85756 44.10394
#
# Poissons Ratio (x) = 0.36498 0.03770
# Poissons Ratio (y) = 0.32634 0.41410
# Poissons Ratio (z) = 0.06409 0.78736
#
# Static dielectric constant tensor:
#      x y z
#    x 1.557020 0.000000 0.000000 
#    y 0.000000 1.502040 0.000000 
#    z 0.000000 0.000000 1.511490 
# 
# From -- ./inp_files/48067.got.cif
#   From: 2010.05.17/outbox.cif.g08.bks.cpg/sg74_25_cif.got.tgz:48067.got - 2010.06.03 17:57:02.
