data_PCOD9540722
_publ_section_title
;
Structure prediction by ZEFSAII (Michael W. Deem and Ramdas Pophale) SiO2 
 PCOD9540722
Probable space group: I M M A
;
_chemical_formula_sum "Si O2"
_cell_formula_units_Z 80
_cell_length_a 27.469873
_cell_length_b 14.303170
_cell_length_c 9.579866
_cell_angle_alpha 90.000000
_cell_angle_beta 90.000000
_cell_angle_gamma 90.000000
_cell_volume 3763.989354
_symmetry_space_group_name_H-M "I M M A"
_symmetry_group_IT_number 74
_symmetry_cell_setting 'orthorhombic'
loop_
_space_group_symop_operation_xyz
x,y,z
-x,1/2-y,z
x,-y,-z
-x,1/2+y,-z
-x,-y,-z
x,1/2+y,-z
-x,y,z
x,1/2-y,z
1/2+x,1/2+y,1/2+z
1/2-x,-y,1/2+z
1/2+x,1/2-y,1/2-z
1/2-x,y,1/2-z
1/2-x,1/2-y,1/2-z
1/2+x,y,1/2-z
1/2-x,1/2+y,1/2+z
1/2+x,-y,1/2+z
loop_
_atom_site_type_symbol
_atom_site_label
_atom_site_fract_x
_atom_site_fract_y
_atom_site_fract_z
Si Si1 0.947865 0.136612 0.597651
Si Si2 0.052750 0.901181 0.076880
Si Si3 0.661331 0.358068 0.599796
Si Si4 0.342267 0.864048 0.083514
Si Si5 0.751295 0.135530 0.092091
O O1 0.947174 0.250000 0.614729
O O2 0.947556 0.095593 0.754316
O O3 0.896432 0.110496 0.529775
O O4 0.000000 0.112662 0.529960
O O5 0.000000 0.856441 0.039881
O O6 0.105826 0.859565 0.044861
O O7 0.052778 0.000000 0.000000
O O8 0.674980 0.250000 0.619468
O O9 0.663061 0.398673 0.756568
O O10 0.700696 0.395141 0.491383
O O11 0.341417 0.750000 0.086673
O O12 0.297311 0.892663 0.989477
O O13 0.751773 0.250000 0.097168
O O14 0.750000 0.101195 0.250000
#
# Coordination Sequence:
#
# PCOD9540722 Si02
#       5
#    16  16  16  16  16
#     4   8  13  22  38  61  86 111 142 179 214 249
#     4   9  16  25  39  61  86 109 134 170 216 257
#     4   9  16  26  42  62  83 110 143 175 206 246
#     4   8  13  22  38  60  84 109 140 175 207 244
#     4   9  16  25  39  60  85 112 141 174 212 250
#
# _framework density 21.254044
#
# number of rings (size 3 to 8) (size 9 to 14) (size 15 to 20)
#    0.000    3.400    0.000    2.400    0.000    3.600 
#    0.000    0.000    0.000    6.000    0.000    5.600 
#    0.000   14.400    0.000    0.000    0.000    0.000 
#
# Total GULP energy -222692.376495 kJ/mol
# GULP energy per Si atom -5567.309412 kJ/mol
# Density = 2.120567 g / cm^3
# Si number density = 21.254044 Si / 1000 Ang^3
#
#
#
# Elastic Constant Matrix: (Units=GPa)
#
#
# Indices 1 2 3 4 5 6 
#
# 1 256.1124 -5.4530 95.5632 0.0000 0.0000 0.0000
# 2 -5.4530 53.0563 12.3908 0.0000 0.0000 0.0000
# 3 95.5632 12.3908 74.6872 0.0000 0.0000 0.0000
# 4 0.0000 0.0000 0.0000 6.6213 0.0000 0.0000
# 5 0.0000 0.0000 0.0000 0.0000 -19.2900 0.0000
# 6 0.0000 0.0000 0.0000 0.0000 0.0000-3474.9956
#
#
#
# Elastic Compliance Matrix: (Units=1/GPa)
#
#
# Indices 1 2 3 4 5 6 
#
# 1 0.008004 0.003344 -0.010796 0.000000 0.000000 0.000000
# 2 0.003344 0.021005 -0.007763 0.000000 0.000000 0.000000
# 3 -0.010796 -0.007763 0.028491 0.000000 0.000000 0.000000
# 4 0.000000 0.000000 0.000000 0.151028 0.000000 0.000000
# 5 0.000000 0.000000 0.000000 0.000000 -0.051840 0.000000
# 6 0.000000 0.000000 0.000000 0.000000 0.000000 -0.000288
#
#
# Mechanical properties :
#
#
# Convention : Reuss Voigt Hill
#
# Bulk Modulus (GPa) = 36.94317 65.42866 51.18592
# Shear Modulus (GPa) = 25.52934 -678.77587 -326.62326
#
# Velocity S-wave (km/s) = 3.46952 -17.89012 -12.41005
# Velocity P-wave (km/s) = 5.78529 19.89701 13.46145
#
# Compressibility (1/GPa) = 0.02706860
#
# Stress axis : x y z
#
# Youngs Moduli (GPa) = 124.93637 47.60858 35.09900
#
# Poissons Ratio (x) = -0.15920 0.37893
# Poissons Ratio (y) = -0.41778 0.27249
# Poissons Ratio (z) = 1.34882 0.36960
#
# Static dielectric constant tensor:
#      x y z
#    x 1.820250 0.000000 0.000000 
#    y 0.000000 2.089000 0.000000 
#    z 0.000000 0.000000 1.716920 
# 
# From -- ./inp_files/14935.got.cif
#   From: 2010.05.17/outbox.cif.g08.bks.cpg/sg74_8_cif.got.tgz:14935.got - 2010.06.03 17:57:02.
