data_PCOD9540887
_publ_section_title
;
Structure prediction by ZEFSAII (Michael W. Deem and Ramdas Pophale) SiO2 
 PCOD9540887
Probable space group: I M M A
;
_chemical_formula_sum "Si O2"
_cell_formula_units_Z 52
_cell_length_a 9.000000
_cell_length_b 27.000000
_cell_length_c 21.000000
_cell_angle_alpha 90.000000
_cell_angle_beta 90.000000
_cell_angle_gamma 90.000000
_cell_volume 5103.000000
_symmetry_space_group_name_H-M "I M M A"
_symmetry_group_IT_number 74
_symmetry_cell_setting 'orthorhombic'
loop_
_space_group_symop_operation_xyz
x,y,z
-x,1/2-y,z
x,-y,-z
-x,1/2+y,-z
-x,-y,-z
x,1/2+y,-z
-x,y,z
x,1/2-y,z
1/2+x,1/2+y,1/2+z
1/2-x,-y,1/2+z
1/2+x,1/2-y,1/2-z
1/2-x,y,1/2-z
1/2-x,1/2-y,1/2-z
1/2+x,y,1/2-z
1/2-x,1/2+y,1/2+z
1/2+x,-y,1/2+z
loop_
_atom_site_type_symbol
_atom_site_label
_atom_site_fract_x
_atom_site_fract_y
_atom_site_fract_z
Si Si1 0.179365 0.160353 0.910733
Si Si2 0.327624 0.536319 0.554741
Si Si3 0.675036 0.190317 0.316462
Si Si4 0.831953 0.096903 0.686063
Si Si5 0.166649 0.977800 0.687366
Si Si6 0.677625 0.250000 0.681569
Si Si7 0.673393 0.847232 0.548229
O O1 0.247199 0.111740 0.878184
O O2 0.218509 0.202656 0.860519
O O3 0.000000 0.155604 0.913888
O O4 0.234518 0.173548 0.981656
O O5 0.266513 0.500000 0.500000
O O6 0.500000 0.522124 0.564418
O O7 0.247011 0.533194 0.621787
O O8 0.322472 0.593901 0.536470
O O9 0.500000 0.178176 0.311852
O O10 0.689805 0.250000 0.321960
O O11 0.750000 0.174973 0.250000
O O12 0.736087 0.166967 0.382483
O O13 0.750000 0.115290 0.750000
O O14 0.000000 0.116110 0.684587
O O15 0.837881 0.037586 0.691290
O O16 0.250000 0.959115 0.750000
O O17 0.000000 0.958388 0.686632
O O18 0.500000 0.250000 0.688774
O O19 0.750000 0.250000 0.750000
O O20 0.500000 0.831314 0.551886
#
# Coordination Sequence:
#
# PCOD9540887 Si02
#       7
#    16  16  16  16  16   8  16
#     4  10  20  35  55  79 107 141 181 224 267 319
#     4  10  20  35  55  79 111 148 183 226 277 330
#     4   9  18  34  57  81 107 140 177 224 275 330
#     4  10  20  34  53  77 105 140 183 226 271 320
#     4  10  21  36  55  79 107 141 182 229 275 327
#     4  10  22  36  54  80 109 142 178 218 265 314
#     4   9  19  34  55  82 108 140 184 224 268 325
#
# _framework density 10.190084000000001
#
# number of rings (size 3 to 8) (size 9 to 14) (size 15 to 20)
#    0.000    2.308    0.000    2.308    1.077    5.846 
#    0.000    3.846    0.000    0.000    0.000    0.000 
#    0.000    0.000    0.000    0.000    0.000    0.000 
#
# Total GULP energy -290072.564919 kJ/mol
# GULP energy per Si atom -5578.318556 kJ/mol
# Density = 1.016689 g / cm^3
# Si number density = 10.190084 Si / 1000 Ang^3
#
#
#
# Elastic Constant Matrix: (Units=GPa)
#
#
# Indices 1 2 3 4 5 6 
#
# 1 43.9259 13.3808 51.1817 0.0000 0.0000 0.0000
# 2 13.3808 11.1352 20.9683 0.0000 0.0000 0.0000
# 3 51.1817 20.9683 209.3109 0.0000 0.0000 0.0000
# 4 0.0000 0.0000 0.0000 27.0646 0.0000 0.0000
# 5 0.0000 0.0000 0.0000 0.0000 31.8480 0.0000
# 6 0.0000 0.0000 0.0000 0.0000 0.0000 13.2633
#
#
#
# Elastic Compliance Matrix: (Units=1/GPa)
#
#
# Indices 1 2 3 4 5 6 
#
# 1 0.041892 -0.038271 -0.006410 0.000000 0.000000 0.000000
# 2 -0.038271 0.145647 -0.005232 0.000000 0.000000 0.000000
# 3 -0.006410 -0.005232 0.006869 0.000000 0.000000 0.000000
# 4 0.000000 0.000000 0.000000 0.036949 0.000000 0.000000
# 5 0.000000 0.000000 0.000000 0.000000 0.031399 0.000000
# 6 0.000000 0.000000 0.000000 0.000000 0.000000 0.075396
#
#
# Mechanical properties :
#
#
# Convention : Reuss Voigt Hill
#
# Bulk Modulus (GPa) = 10.57276 48.38153 29.47714
# Shear Modulus (GPa) = 10.64949 26.35793 18.50371
#
# Velocity S-wave (km/s) = 2.28840 3.60017 3.01645
# Velocity P-wave (km/s) = 3.49018 6.40880 5.16014
#
# Compressibility (1/GPa) = 0.09458268
#
# Stress axis : x y z
#
# Youngs Moduli (GPa) = 23.87072 6.86591 145.57895
#
# Poissons Ratio (x) = 0.26276 0.93314
# Poissons Ratio (y) = 0.91355 0.76174
# Poissons Ratio (z) = 0.15301 0.03593
#
# Static dielectric constant tensor:
#      x y z
#    x 1.716770 0.000000 0.000000 
#    y 0.000000 1.820420 0.000000 
#    z 0.000000 0.000000 1.751830 
# 
# From -- ./inp_files/49310.got.cif
#   From: 2010.05.17/outbox.ucp.g08.bks.cvg/sg74_25_cif.got.tgz:49310.got - 2010.06.11 16:37:44.
