data_PCOD9540364
_publ_section_title
;
Structure prediction by ZEFSAII (Michael W. Deem and Ramdas Pophale) SiO2 
 PCOD9540364
Probable space group: I M M A
;
_chemical_formula_sum "Si O2"
_cell_formula_units_Z 60
_cell_length_a 18.214198
_cell_length_b 12.722283
_cell_length_c 13.377982
_cell_angle_alpha 90.000000
_cell_angle_beta 90.000000
_cell_angle_gamma 90.000000
_cell_volume 3100.028686
_symmetry_space_group_name_H-M "I M M A"
_symmetry_group_IT_number 74
_symmetry_cell_setting 'orthorhombic'
loop_
_space_group_symop_operation_xyz
x,y,z
-x,1/2-y,z
x,-y,-z
-x,1/2+y,-z
-x,-y,-z
x,1/2+y,-z
-x,y,z
x,1/2-y,z
1/2+x,1/2+y,1/2+z
1/2-x,-y,1/2+z
1/2+x,1/2-y,1/2-z
1/2-x,y,1/2-z
1/2-x,1/2-y,1/2-z
1/2+x,y,1/2-z
1/2-x,1/2+y,1/2+z
1/2+x,-y,1/2+z
loop_
_atom_site_type_symbol
_atom_site_label
_atom_site_fract_x
_atom_site_fract_y
_atom_site_fract_z
Si Si1 0.500000 0.250000 0.028335
Si Si2 0.000000 0.473817 0.383381
Si Si3 0.763647 0.555311 0.097960
Si Si4 0.142088 0.980610 0.735220
Si Si5 0.834853 0.250000 0.519427
Si Si6 0.165060 0.250000 0.276927
O O1 0.500000 0.151704 0.103932
O O2 0.423945 0.250000 0.963235
O O3 0.000000 0.500000 0.500000
O O4 0.929743 0.513404 0.324081
O O5 0.828843 0.560358 0.179656
O O6 0.706778 0.478221 0.153278
O O7 0.712138 0.652460 0.064430
O O8 0.793820 0.500000 0.000000
O O9 0.132474 0.858893 0.766712
O O10 0.837244 0.250000 0.398221
O O11 0.250000 0.250000 0.250000
#
# Coordination Sequence:
#
# PCOD9540364 Si02
#       6
#     4   8  16  16   8   8
#     4  12  20  36  62  94 128 156 212 264 336 366
#     4  12  22  38  59  91 125 161 202 262 323 376
#     4  11  21  38  57  87 122 164 210 254 313 377
#     4  11  22  35  60  87 124 161 211 258 315 378
#     4  12  22  35  62  91 127 166 207 267 326 385
#     4  12  18  36  61  86 118 163 212 267 309 371
#
# _framework density 19.354659000000002
#
# number of rings (size 3 to 8) (size 9 to 14) (size 15 to 20)
#    0.000    0.533    8.000    2.400    0.000    2.133 
#    0.000    2.000    0.000    0.000    0.000    0.000 
#    0.000    0.000    0.000    0.000    0.000    0.000 
#
# Total GULP energy -167043.804726 kJ/mol
# GULP energy per Si atom -5568.126824 kJ/mol
# Density = 1.931061 g / cm^3
# Si number density = 19.354659 Si / 1000 Ang^3
#
#
#
# Elastic Constant Matrix: (Units=GPa)
#
#
# Indices 1 2 3 4 5 6 
#
# 1 136.0438 16.1188 67.2469 0.0000 0.0000 0.0000
# 2 16.1188 70.9995 17.8401 0.0000 0.0000 0.0000
# 3 67.2469 17.8401 101.8800 0.0000 0.0000 0.0000
# 4 0.0000 0.0000 0.0000 26.9714 0.0000 0.0000
# 5 0.0000 0.0000 0.0000 0.0000 39.8549 0.0000
# 6 0.0000 0.0000 0.0000 0.0000 0.0000 15.8991
#
#
#
# Elastic Compliance Matrix: (Units=1/GPa)
#
#
# Indices 1 2 3 4 5 6 
#
# 1 0.010943 -0.000700 -0.007101 0.000000 0.000000 0.000000
# 2 -0.000700 0.014778 -0.002125 0.000000 0.000000 0.000000
# 3 -0.007101 -0.002125 0.014875 0.000000 0.000000 0.000000
# 4 0.000000 0.000000 0.000000 0.037076 0.000000 0.000000
# 5 0.000000 0.000000 0.000000 0.000000 0.025091 0.000000
# 6 0.000000 0.000000 0.000000 0.000000 0.000000 0.062897
#
#
# Mechanical properties :
#
#
# Convention : Reuss Voigt Hill
#
# Bulk Modulus (GPa) = 48.20961 56.81498 52.51230
# Shear Modulus (GPa) = 25.98391 30.39292 28.18841
#
# Velocity S-wave (km/s) = 3.66801 3.96702 3.82044
# Velocity P-wave (km/s) = 6.54994 7.09939 6.83019
#
# Compressibility (1/GPa) = 0.02074275
#
# Stress axis : x y z
#
# Youngs Moduli (GPa) = 91.37889 67.66974 67.22893
#
# Poissons Ratio (x) = 0.04739 0.47737
# Poissons Ratio (y) = 0.06399 0.14289
# Poissons Ratio (z) = 0.64885 0.14383
#
# Static dielectric constant tensor:
#      x y z
#    x 1.778160 0.000000 0.000000 
#    y 0.000000 1.376100 0.000000 
#    z 0.000000 0.000000 1.696400 
# 
# From -- ./inp_files/33562.got.cif
#   From: 2010.05.17/outbox.cif.g08.bks.cpg/sg74_17_cif.got.tgz:33562.got - 2010.06.03 17:57:02.
