data_PCOD9540662
_publ_section_title
;
Structure prediction by ZEFSAII (Michael W. Deem and Ramdas Pophale) SiO2 
 PCOD9540662
Probable space group: I M M A
;
_chemical_formula_sum "Si O2"
_cell_formula_units_Z 84
_cell_length_a 20.382838
_cell_length_b 7.610123
_cell_length_c 26.584968
_cell_angle_alpha 90.000000
_cell_angle_beta 90.000000
_cell_angle_gamma 90.000000
_cell_volume 4123.751351
_symmetry_space_group_name_H-M "I M M A"
_symmetry_group_IT_number 74
_symmetry_cell_setting 'orthorhombic'
loop_
_space_group_symop_operation_xyz
x,y,z
-x,1/2-y,z
x,-y,-z
-x,1/2+y,-z
-x,-y,-z
x,1/2+y,-z
-x,y,z
x,1/2-y,z
1/2+x,1/2+y,1/2+z
1/2-x,-y,1/2+z
1/2+x,1/2-y,1/2-z
1/2-x,y,1/2-z
1/2-x,1/2-y,1/2-z
1/2+x,y,1/2-z
1/2-x,1/2+y,1/2+z
1/2+x,-y,1/2+z
loop_
_atom_site_type_symbol
_atom_site_label
_atom_site_fract_x
_atom_site_fract_y
_atom_site_fract_z
Si Si1 0.759330 0.962930 0.837713
Si Si2 0.500000 0.750000 0.662564
Si Si3 0.615162 0.962310 0.803664
Si Si4 0.711974 0.539991 0.945473
Si Si5 0.570855 0.036033 0.084933
Si Si6 0.403820 0.443279 0.693364
O O1 0.762065 0.750000 0.835784
O O2 0.691693 0.013122 0.809983
O O3 0.750301 0.020351 0.895916
O O4 0.826009 0.032875 0.814859
O O5 0.443092 0.596263 0.666225
O O6 0.612423 0.750000 0.799062
O O7 0.580166 0.008020 0.856036
O O8 0.584781 0.037768 0.753255
O O9 0.708308 0.750000 0.940611
O O10 0.636864 0.471710 0.941983
O O11 0.740396 0.500000 0.000000
O O12 0.500000 0.972980 0.066575
O O13 0.570756 0.250000 0.081980
O O14 0.422749 0.250000 0.676229
#
# Coordination Sequence:
#
# PCOD9540662 Si02
#       6
#    16   4  16  16  16  16
#     4   9  18  36  56  79 112 150 189 233 296 340
#     4  12  26  44  54  78 122 156 176 240 276 346
#     4   9  17  31  55  80 110 154 194 240 279 324
#     4   9  18  32  52  78 107 141 186 237 284 335
#     4   8  15  27  47  72 105 156 201 225 269 329
#     4  12  24  37  59  85 112 151 196 229 282 339
#
# _framework density 20.369800999999999
#
# number of rings (size 3 to 8) (size 9 to 14) (size 15 to 20)
#    0.000    2.476    1.905    3.143    1.333    4.190 
#    0.000    2.857    0.000    1.143    0.000    0.667 
#    0.000    0.000    0.000    0.000    0.000    0.000 
#
# Total GULP energy -234014.469592 kJ/mol
# GULP energy per Si atom -5571.773086 kJ/mol
# Density = 2.032344 g / cm^3
# Si number density = 20.369801 Si / 1000 Ang^3
#
#
#
# Elastic Constant Matrix: (Units=GPa)
#
#
# Indices 1 2 3 4 5 6 
#
# 1 61.9922 14.7462 -0.2446 0.0000 0.0000 0.0000
# 2 14.7462 92.8206 -3.7813 0.0000 0.0000 0.0000
# 3 -0.2446 -3.7813 60.7710 0.0000 0.0000 0.0000
# 4 0.0000 0.0000 0.0000 12.5757 0.0000 0.0000
# 5 0.0000 0.0000 0.0000 0.0000 -28.9763 0.0000
# 6 0.0000 0.0000 0.0000 0.0000 0.0000 -38.5926
#
#
#
# Elastic Compliance Matrix: (Units=1/GPa)
#
#
# Indices 1 2 3 4 5 6 
#
# 1 0.016765 -0.002667 -0.000099 0.000000 0.000000 0.000000
# 2 -0.002667 0.011225 0.000688 0.000000 0.000000 0.000000
# 3 -0.000099 0.000688 0.016498 0.000000 0.000000 0.000000
# 4 0.000000 0.000000 0.000000 0.079518 0.000000 0.000000
# 5 0.000000 0.000000 0.000000 0.000000 -0.034511 0.000000
# 6 0.000000 0.000000 0.000000 0.000000 0.000000 -0.025912
#
#
# Mechanical properties :
#
#
# Convention : Reuss Voigt Hill
#
# Bulk Modulus (GPa) = 24.79444 26.33603 25.56524
# Shear Modulus (GPa) = 61.58838 2.65893 32.12365
#
# Velocity S-wave (km/s) = 5.50461 1.14375 3.97548
# Velocity P-wave (km/s) = 7.25256 3.83422 5.80090
#
# Compressibility (1/GPa) = 0.04033162
#
# Stress axis : x y z
#
# Youngs Moduli (GPa) = 59.64738 89.08477 60.61478
#
# Poissons Ratio (x) = 0.23763 0.00597
# Poissons Ratio (y) = 0.15911 -0.04169
# Poissons Ratio (z) = 0.00588 -0.06127
#
# Static dielectric constant tensor:
#      x y z
#    x 1.722480 0.000000 0.000000 
#    y 0.000000 1.758100 0.000000 
#    z 0.000000 0.000000 1.725560 
# 
# From -- ./inp_files/68047.got.cif
#   From: 2010.05.17/outbox.cif.g08.bks.cpg/sg74_35_cif.got.tgz:68047.got - 2010.06.03 17:57:02.
