data_PCOD9540553
_publ_section_title
;
Structure prediction by ZEFSAII (Michael W. Deem and Ramdas Pophale) SiO2 
 PCOD9540553
Probable space group: I M M A
;
_chemical_formula_sum "Si O2"
_cell_formula_units_Z 64
_cell_length_a 14.229146
_cell_length_b 7.515620
_cell_length_c 28.885589
_cell_angle_alpha 90.000000
_cell_angle_beta 90.000000
_cell_angle_gamma 90.000000
_cell_volume 3089.049563
_symmetry_space_group_name_H-M "I M M A"
_symmetry_group_IT_number 74
_symmetry_cell_setting 'orthorhombic'
loop_
_space_group_symop_operation_xyz
x,y,z
-x,1/2-y,z
x,-y,-z
-x,1/2+y,-z
-x,-y,-z
x,1/2+y,-z
-x,y,z
x,1/2-y,z
1/2+x,1/2+y,1/2+z
1/2-x,-y,1/2+z
1/2+x,1/2-y,1/2-z
1/2-x,y,1/2-z
1/2-x,1/2-y,1/2-z
1/2+x,y,1/2-z
1/2-x,1/2+y,1/2+z
1/2+x,-y,1/2+z
loop_
_atom_site_type_symbol
_atom_site_label
_atom_site_fract_x
_atom_site_fract_y
_atom_site_fract_z
Si Si1 0.385421 0.545546 0.733972
Si Si2 0.885111 0.250000 0.694714
Si Si3 0.247359 0.039533 0.447750
Si Si4 0.888112 0.250000 0.587209
Si Si5 0.392656 0.033333 0.368360
O O1 0.500000 0.544299 0.733356
O O2 0.356627 0.750000 0.740179
O O3 0.354433 0.421403 0.775840
O O4 0.358898 0.477997 0.682763
O O5 0.858508 0.250000 0.641250
O O6 0.000000 0.250000 0.695159
O O7 0.230176 0.250000 0.442756
O O8 0.325293 0.983272 0.410180
O O9 0.279024 0.000000 0.500000
O O10 0.156074 0.922510 0.437034
O O11 0.000000 0.250000 0.584592
O O12 0.500000 0.973407 0.375353
O O13 0.394589 0.250000 0.366688
#
# Coordination Sequence:
#
# PCOD9540553 Si02
#       5
#    16   8  16   8  16
#     4   8  14  28  52  83 120 160 192 224 276 347
#     4   9  18  33  55  84 116 149 195 250 293 345
#     4  11  23  43  64  87 120 154 196 257 311 353
#     4  11  26  45  64  88 114 153 211 262 312 361
#     4   8  16  33  60  92 127 165 197 226 281 364
#
# _framework density 20.718347999999999
#
# number of rings (size 3 to 8) (size 9 to 14) (size 15 to 20)
#    0.000    2.750    1.250    1.500    0.000    3.500 
#    0.000    6.875    0.000    4.500    0.000    0.000 
#    0.000    0.000    0.000    0.000    0.000    0.000 
#
# Total GULP energy -178780.230502 kJ/mol
# GULP energy per Si atom -5586.882203 kJ/mol
# Density = 2.067119 g / cm^3
# Si number density = 20.718348 Si / 1000 Ang^3
#
#
#
# Elastic Constant Matrix: (Units=GPa)
#
#
# Indices 1 2 3 4 5 6 
#
# 1 79.2094 15.1290 20.6955 0.0000 0.0000 0.0000
# 2 15.1290 100.2516 27.3490 0.0000 0.0000 0.0000
# 3 20.6955 27.3490 94.1646 0.0000 0.0000 0.0000
# 4 0.0000 0.0000 0.0000 15.4157 0.0000 0.0000
# 5 0.0000 0.0000 0.0000 0.0000 35.3316 0.0000
# 6 0.0000 0.0000 0.0000 0.0000 0.0000 3.8783
#
#
#
# Elastic Compliance Matrix: (Units=1/GPa)
#
#
# Indices 1 2 3 4 5 6 
#
# 1 0.013557 -0.001339 -0.002591 0.000000 0.000000 0.000000
# 2 -0.001339 0.010966 -0.002890 0.000000 0.000000 0.000000
# 3 -0.002591 -0.002890 0.012029 0.000000 0.000000 0.000000
# 4 0.000000 0.000000 0.000000 0.064869 0.000000 0.000000
# 5 0.000000 0.000000 0.000000 0.000000 0.028303 0.000000
# 6 0.000000 0.000000 0.000000 0.000000 0.000000 0.257848
#
#
# Mechanical properties :
#
#
# Convention : Reuss Voigt Hill
#
# Bulk Modulus (GPa) = 43.64755 44.44141 44.04448
# Shear Modulus (GPa) = 12.22944 24.95522 18.59233
#
# Velocity S-wave (km/s) = 2.43218 3.47435 2.99889
# Velocity P-wave (km/s) = 5.38518 6.13121 5.77026
#
# Compressibility (1/GPa) = 0.02291079
#
# Stress axis : x y z
#
# Youngs Moduli (GPa) = 73.76017 91.19476 83.13521
#
# Poissons Ratio (x) = 0.12213 0.21538
# Poissons Ratio (y) = 0.09878 0.24030
# Poissons Ratio (z) = 0.19109 0.26360
#
# Static dielectric constant tensor:
#      x y z
#    x 1.742940 0.000000 0.000000 
#    y 0.000000 1.742640 0.000000 
#    z 0.000000 0.000000 1.712110 
# 
# From -- ./inp_files/59507.got.cif
#   From: 2010.05.17/outbox.cif.g08.bks.cpg/sg74_30_cif.got.tgz:59507.got - 2010.06.03 17:57:02.
