data_PCOD9540248
_publ_section_title
;
Structure prediction by ZEFSAII (Michael W. Deem and Ramdas Pophale) SiO2 
 PCOD9540248
Probable space group: I M M A
;
_chemical_formula_sum "Si O2"
_cell_formula_units_Z 36
_cell_length_a 7.628687
_cell_length_b 25.444188
_cell_length_c 6.983251
_cell_angle_alpha 90.000000
_cell_angle_beta 90.000000
_cell_angle_gamma 90.000000
_cell_volume 1355.489146
_symmetry_space_group_name_H-M "I M M A"
_symmetry_group_IT_number 74
_symmetry_cell_setting 'orthorhombic'
loop_
_space_group_symop_operation_xyz
x,y,z
-x,1/2-y,z
x,-y,-z
-x,1/2+y,-z
-x,-y,-z
x,1/2+y,-z
-x,y,z
x,1/2-y,z
1/2+x,1/2+y,1/2+z
1/2-x,-y,1/2+z
1/2+x,1/2-y,1/2-z
1/2-x,y,1/2-z
1/2-x,1/2-y,1/2-z
1/2+x,y,1/2-z
1/2-x,1/2+y,1/2+z
1/2+x,-y,1/2+z
loop_
_atom_site_type_symbol
_atom_site_label
_atom_site_fract_x
_atom_site_fract_y
_atom_site_fract_z
Si Si1 0.301318 0.078487 0.977562
Si Si2 0.709516 0.693198 0.476756
Si Si3 0.000000 0.000000 0.000000
O O1 0.500000 0.059709 0.991461
O O2 0.250000 0.078419 0.750000
O O3 0.291343 0.138815 0.045179
O O4 0.153757 0.041861 0.064850
O O5 0.500000 0.690347 0.502009
O O6 0.774539 0.750000 0.548414
O O7 0.750000 0.693828 0.250000
#
# Coordination Sequence:
#
# PCOD9540248 Si02
#       3
#    16  16   4
#     4  11  20  34  52  72 104 139 171 214 254 298
#     4   9  15  25  43  68  99 131 160 197 251 313
#     4  12  22  36  50  72 100 144 182 206 252 302
#
# _framework density 26.558676999999999
#
# number of rings (size 3 to 8) (size 9 to 14) (size 15 to 20)
#    0.000    1.778    4.444    4.667    0.000    2.667 
#    0.000    0.000    0.000    0.000    0.000    0.000 
#    0.000    7.111    0.000    0.444    0.000    0.000 
#
# Total GULP energy -100308.498667 kJ/mol
# GULP energy per Si atom -5572.694370 kJ/mol
# Density = 2.649823 g / cm^3
# Si number density = 26.558677 Si / 1000 Ang^3
#
#
#
# Elastic Constant Matrix: (Units=GPa)
#
#
# Indices 1 2 3 4 5 6 
#
# 1 295.0064 110.5112 10.9040 0.0002 -0.0001 0.0000
# 2 110.5112 264.6635 -9.4944 0.0006 -0.0002 0.0003
# 3 10.9040 -9.4944 121.4229 0.0046 -0.0001 -0.0010
# 4 0.0002 0.0006 0.0046 -14.7378 -0.0001 0.0007
# 5 -0.0001 -0.0002 -0.0001 -0.0001 7.2161 -0.0008
# 6 0.0000 0.0003 -0.0010 0.0007 -0.0008 -9.8841
#
#
#
# Elastic Compliance Matrix: (Units=1/GPa)
#
#
# Indices 1 2 3 4 5 6 
#
# 1 0.004048 -0.001708 -0.000497 0.000000 0.000000 0.000000
# 2 -0.001708 0.004510 0.000506 0.000000 0.000000 0.000000
# 3 -0.000497 0.000506 0.008320 0.000003 0.000000 -0.000001
# 4 0.000000 0.000000 0.000003 -0.067853 0.000000 -0.000005
# 5 0.000000 0.000000 0.000000 0.000000 0.138579 -0.000011
# 6 0.000000 0.000000 -0.000001 -0.000005 -0.000011 -0.101173
#
#
# Mechanical properties :
#
#
# Convention : Reuss Voigt Hill
#
# Bulk Modulus (GPa) = 74.18764 100.54830 87.36797
# Shear Modulus (GPa) = -880.74034 34.46363 -423.13835
#
# Velocity S-wave (km/s) = -18.23021 3.60619 -12.63598
# Velocity P-wave (km/s) = 20.37465 7.43509 13.41354
#
# Compressibility (1/GPa) = 0.01347933
#
# Stress axis : x y z
#
# Youngs Moduli (GPa) = 247.03626 221.74167 120.19402
#
# Poissons Ratio (x) = 0.37875 0.05975
# Poissons Ratio (y) = 0.42196 -0.06082
# Poissons Ratio (z) = 0.12280 -0.11221
#
# Static dielectric constant tensor:
#      x y z
#    x 1.919990 0.000000 0.000050 
#    y 0.000000 2.089130 0.000050 
#    z 0.000050 0.000050 6.434440 
# 
# From -- ./inp_files/13000.got.cif
#   From: 2010.05.17/outbox.cif.g08.bks.cpg/sg74_7_cif.got.tgz:13000.got - 2010.06.03 17:57:02.
