data_PCOD9540229
_publ_section_title
;
Structure prediction by ZEFSAII (Michael W. Deem and Ramdas Pophale) SiO2 
 PCOD9540229
Probable space group: I M M A
;
_chemical_formula_sum "Si O2"
_cell_formula_units_Z 80
_cell_length_a 8.144740
_cell_length_b 30.083518
_cell_length_c 21.332818
_cell_angle_alpha 90.000000
_cell_angle_beta 90.000000
_cell_angle_gamma 90.000000
_cell_volume 5227.018956
_symmetry_space_group_name_H-M "I M M A"
_symmetry_group_IT_number 74
_symmetry_cell_setting 'orthorhombic'
loop_
_space_group_symop_operation_xyz
x,y,z
-x,1/2-y,z
x,-y,-z
-x,1/2+y,-z
-x,-y,-z
x,1/2+y,-z
-x,y,z
x,1/2-y,z
1/2+x,1/2+y,1/2+z
1/2-x,-y,1/2+z
1/2+x,1/2-y,1/2-z
1/2-x,y,1/2-z
1/2-x,1/2-y,1/2-z
1/2+x,y,1/2-z
1/2-x,1/2+y,1/2+z
1/2+x,-y,1/2+z
loop_
_atom_site_type_symbol
_atom_site_label
_atom_site_fract_x
_atom_site_fract_y
_atom_site_fract_z
Si Si1 0.698115 0.461737 0.048168
Si Si2 0.693525 0.551760 0.685836
Si Si3 0.311792 0.139657 0.019514
Si Si4 0.500000 0.800577 0.668006
Si Si5 0.176864 0.350785 0.331448
Si Si6 0.000000 0.802200 0.985407
O O1 0.500000 0.462313 0.054217
O O2 0.770125 0.468902 0.117722
O O3 0.739012 0.412520 0.021471
O O4 0.748650 0.500000 0.000000
O O5 0.500000 0.561264 0.689016
O O6 0.750000 0.527818 0.750000
O O7 0.795868 0.597669 0.684504
O O8 0.500000 0.144084 0.993853
O O9 0.324452 0.151532 0.093068
O O10 0.165396 0.171081 0.994213
O O11 0.500000 0.750000 0.687518
O O12 0.664405 0.824577 0.689146
O O13 0.500000 0.802543 0.591179
O O14 0.000000 0.334733 0.310001
O O15 0.000000 0.750000 0.003978
#
# Coordination Sequence:
#
# PCOD9540229 Si02
#       6
#    16  16  16   8  16   8
#     4   9  18  32  48  68  94 120 149 190 232 272
#     4  11  20  31  47  68  87 112 151 188 224 267
#     4   8  15  26  40  58  83 110 141 180 222 268
#     4   9  16  26  40  59  79 103 136 179 230 279
#     4   9  16  28  42  59  79 104 139 181 228 266
#     4   9  16  24  37  57  81 109 144 185 221 261
#
# _framework density 15.305090999999999
#
# number of rings (size 3 to 8) (size 9 to 14) (size 15 to 20)
#    0.000    2.800    1.000    3.000    4.200    1.200 
#    0.000    4.000    0.000    0.600    0.000    0.000 
#    0.000    0.000    0.000    0.000    0.000    1.000 
#
# Total GULP energy -222777.456460 kJ/mol
# GULP energy per Si atom -5569.436412 kJ/mol
# Density = 1.527026 g / cm^3
# Si number density = 15.305091 Si / 1000 Ang^3
#
#
#
# Elastic Constant Matrix: (Units=GPa)
#
#
# Indices 1 2 3 4 5 6 
#
# 1 113.0216 55.6293 25.3396 0.0000 0.0000 0.0000
# 2 55.6293 80.5478 34.0061 0.0000 0.0000 0.0000
# 3 25.3396 34.0061 46.5451 0.0000 0.0000 0.0000
# 4 0.0000 0.0000 0.0000 -9.5203 0.0000 0.0000
# 5 0.0000 0.0000 0.0000 0.0000 17.7894 0.0000
# 6 0.0000 0.0000 0.0000 0.0000 0.0000 52.1282
#
#
#
# Elastic Compliance Matrix: (Units=1/GPa)
#
#
# Indices 1 2 3 4 5 6 
#
# 1 0.013424 -0.008945 -0.000773 0.000000 0.000000 0.000000
# 2 -0.008945 0.023912 -0.012601 0.000000 0.000000 0.000000
# 3 -0.000773 -0.012601 0.031112 0.000000 0.000000 0.000000
# 4 0.000000 0.000000 0.000000 -0.105039 0.000000 0.000000
# 5 0.000000 0.000000 0.000000 0.000000 0.056213 0.000000
# 6 0.000000 0.000000 0.000000 0.000000 0.000000 0.019183
#
#
# Mechanical properties :
#
#
# Convention : Reuss Voigt Hill
#
# Bulk Modulus (GPa) = 41.99810 52.22941 47.11375
# Shear Modulus (GPa) = 54.71661 20.42209 37.56935
#
# Velocity S-wave (km/s) = 5.98567 3.65682 4.95986
# Velocity P-wave (km/s) = 8.67589 7.21314 7.97811
#
# Compressibility (1/GPa) = 0.02381060
#
# Stress axis : x y z
#
# Youngs Moduli (GPa) = 74.49515 41.81939 32.14219
#
# Poissons Ratio (x) = 0.37405 0.02485
# Poissons Ratio (y) = 0.66632 0.40502
# Poissons Ratio (z) = 0.05759 0.52697
#
# Static dielectric constant tensor:
#      x y z
#    x 1.540450 0.000000 0.000000 
#    y 0.000000 1.505130 0.000000 
#    z 0.000000 0.000000 1.518510 
# 
# From -- ./inp_files/49414.got.cif
#   From: 2010.05.17/outbox.cif.g08.bks.cpg/sg74_25_cif.got.tgz:49414.got - 2010.06.03 17:57:02.
