data_PCOD9540616
_publ_section_title
;
Structure prediction by ZEFSAII (Michael W. Deem and Ramdas Pophale) SiO2 
 PCOD9540616
Probable space group: I M M A
;
_chemical_formula_sum "Si O2"
_cell_formula_units_Z 52
_cell_length_a 15.299577
_cell_length_b 17.839164
_cell_length_c 8.170877
_cell_angle_alpha 90.000000
_cell_angle_beta 90.000000
_cell_angle_gamma 90.000000
_cell_volume 2230.091050
_symmetry_space_group_name_H-M "I M M A"
_symmetry_group_IT_number 74
_symmetry_cell_setting 'orthorhombic'
loop_
_space_group_symop_operation_xyz
x,y,z
-x,1/2-y,z
x,-y,-z
-x,1/2+y,-z
-x,-y,-z
x,1/2+y,-z
-x,y,z
x,1/2-y,z
1/2+x,1/2+y,1/2+z
1/2-x,-y,1/2+z
1/2+x,1/2-y,1/2-z
1/2-x,y,1/2-z
1/2-x,1/2-y,1/2-z
1/2+x,y,1/2-z
1/2-x,1/2+y,1/2+z
1/2+x,-y,1/2+z
loop_
_atom_site_type_symbol
_atom_site_label
_atom_site_fract_x
_atom_site_fract_y
_atom_site_fract_z
Si Si1 0.898351 0.508293 0.318704
Si Si2 0.346287 0.356693 0.312391
Si Si3 0.500000 0.250000 0.196120
Si Si4 0.851032 0.669468 0.196493
O O1 0.859265 0.500000 0.500000
O O2 0.855173 0.446526 0.203363
O O3 0.891573 0.594050 0.265657
O O4 0.000000 0.488291 0.325005
O O5 0.250000 0.336157 0.250000
O O6 0.422161 0.315228 0.210766
O O7 0.357903 0.334025 0.500819
O O8 0.888584 0.750000 0.253178
O O9 0.750000 0.668134 0.250000
#
# Coordination Sequence:
#
# PCOD9540616 Si02
#       4
#    16  16   4  16
#     4  11  25  46  69 104 144 189 240 293 354 424
#     4  12  25  47  76 103 148 187 238 294 354 424
#     4  12  26  44  70 120 134 188 238 298 344 438
#     4  11  25  44  70 104 142 186 240 289 361 418
#
# _framework density 23.317433999999999
#
# number of rings (size 3 to 8) (size 9 to 14) (size 15 to 20)
#    0.000    0.615    3.077    4.154    2.154    1.846 
#    2.769    0.000    0.000    1.846    0.000    0.000 
#    0.000    0.000    0.000    0.000    0.000    0.000 
#
# Total GULP energy -145025.902761 kJ/mol
# GULP energy per Si atom -5577.919337 kJ/mol
# Density = 2.326436 g / cm^3
# Si number density = 23.317434 Si / 1000 Ang^3
#
#
#
# Elastic Constant Matrix: (Units=GPa)
#
#
# Indices 1 2 3 4 5 6 
#
# 1 124.3489 27.7578 -15.4311 0.0000 0.0000 0.0000
# 2 27.7578 224.0938 39.8166 0.0000 0.0000 0.0000
# 3 -15.4311 39.8166 43.9430 0.0000 0.0000 0.0000
# 4 0.0000 0.0000 0.0000 10.5563 0.0000 0.0000
# 5 0.0000 0.0000 0.0000 0.0000 8.5708 0.0000
# 6 0.0000 0.0000 0.0000 0.0000 0.0000 45.7565
#
#
#
# Elastic Compliance Matrix: (Units=1/GPa)
#
#
# Indices 1 2 3 4 5 6 
#
# 1 0.009119 -0.002024 0.005036 0.000000 0.000000 0.000000
# 2 -0.002024 0.005768 -0.005937 0.000000 0.000000 0.000000
# 3 0.005036 -0.005937 0.029905 0.000000 0.000000 0.000000
# 4 0.000000 0.000000 0.000000 0.094730 0.000000 0.000000
# 5 0.000000 0.000000 0.000000 0.000000 0.116675 0.000000
# 6 0.000000 0.000000 0.000000 0.000000 0.000000 0.021855
#
#
# Mechanical properties :
#
#
# Convention : Reuss Voigt Hill
#
# Bulk Modulus (GPa) = 25.67957 55.18581 40.43269
# Shear Modulus (GPa) = 16.84164 35.65956 26.25060
#
# Velocity S-wave (km/s) = 2.69044 3.91488 3.35892
# Velocity P-wave (km/s) = 4.54843 6.64482 5.69394
#
# Compressibility (1/GPa) = 0.03894146
#
# Stress axis : x y z
#
# Youngs Moduli (GPa) = 109.66383 173.36719 33.43908
#
# Poissons Ratio (x) = 0.35096 -0.16841
# Poissons Ratio (y) = 0.22200 0.19854
# Poissons Ratio (z) = -0.55232 1.02934
#
# Static dielectric constant tensor:
#      x y z
#    x 1.848070 0.000000 0.000000 
#    y 0.000000 1.905010 0.000000 
#    z 0.000000 0.000000 1.898260 
# 
# From -- ./inp_files/8333.got.cif
#   From: 2010.05.17/outbox.cif.g08.bks.cpg/sg74_5_cif.got.tgz:8333.got - 2010.06.03 17:57:02.
