data_PCOD9540962
_publ_section_title
;
Structure prediction by ZEFSAII (Michael W. Deem and Ramdas Pophale) SiO2 
 PCOD9540962
Probable space group: I M M A
;
_chemical_formula_sum "Si O2"
_cell_formula_units_Z 48
_cell_length_a 24.000000
_cell_length_b 15.000000
_cell_length_c 15.000000
_cell_angle_alpha 90.000000
_cell_angle_beta 90.000000
_cell_angle_gamma 90.000000
_cell_volume 5400.000000
_symmetry_space_group_name_H-M "I M M A"
_symmetry_group_IT_number 74
_symmetry_cell_setting 'orthorhombic'
loop_
_space_group_symop_operation_xyz
x,y,z
-x,1/2-y,z
x,-y,-z
-x,1/2+y,-z
-x,-y,-z
x,1/2+y,-z
-x,y,z
x,1/2-y,z
1/2+x,1/2+y,1/2+z
1/2-x,-y,1/2+z
1/2+x,1/2-y,1/2-z
1/2-x,y,1/2-z
1/2-x,1/2-y,1/2-z
1/2+x,y,1/2-z
1/2-x,1/2+y,1/2+z
1/2+x,-y,1/2+z
loop_
_atom_site_type_symbol
_atom_site_label
_atom_site_fract_x
_atom_site_fract_y
_atom_site_fract_z
Si Si1 0.809324 0.980466 0.797943
Si Si2 0.500000 0.504353 0.109282
Si Si3 0.879047 0.354393 0.862119
Si Si4 0.803372 0.854100 0.971160
Si Si5 0.871856 0.962445 0.628283
Si Si6 0.000000 0.143815 0.773020
Si Si7 0.178147 0.141673 0.538372
O O1 0.750000 0.990434 0.750000
O O2 0.838187 0.075664 0.815180
O O3 0.804756 0.922637 0.888546
O O4 0.848569 0.935117 0.724087
O O5 0.438898 0.463559 0.129005
O O6 0.500000 0.590136 0.178389
O O7 0.500000 0.500000 0.000000
O O8 0.869095 0.250000 0.839135
O O9 0.943041 0.374488 0.830856
O O10 0.857867 0.363833 0.965145
O O11 0.801119 0.750000 0.941722
O O12 0.745450 0.869029 0.026935
O O13 0.848808 0.893089 0.554599
O O14 0.847774 0.063645 0.603715
O O15 0.000000 0.250000 0.754563
O O16 0.167672 0.250000 0.555153
#
# Coordination Sequence:
#
# PCOD9540962 Si02
#       7
#    16   8  16  16  16   8  16
#     4  12  22  35  62  88 125 159 196 249 309 366
#     4  12  22  42  59  83 130 159 195 251 293 359
#     4  10  22  40  62  91 122 157 206 255 304 365
#     4  10  22  39  61  89 122 160 203 252 304 364
#     4  11  23  38  57  91 120 157 203 250 297 360
#     4  10  22  42  66  90 119 161 207 250 306 366
#     4  10  21  39  61  87 121 159 203 248 305 365
#
# _framework density 8.8888890000000007
#
# number of rings (size 3 to 8) (size 9 to 14) (size 15 to 20)
#    0.000    1.333    5.000    1.500    2.333    2.667 
#    0.000    2.917    0.000    0.000    0.000    0.000 
#    0.000    0.000    0.000    0.000    0.000    0.000 
#
# Total GULP energy -267407.340404 kJ/mol
# GULP energy per Si atom -5570.986258 kJ/mol
# Density = 0.886866 g / cm^3
# Si number density = 8.888889 Si / 1000 Ang^3
#
#
#
# Elastic Constant Matrix: (Units=GPa)
#
#
# Indices 1 2 3 4 5 6 
#
# 1 150.1672 31.6996 41.9137 0.0000 0.0000 0.0000
# 2 31.6996 81.5208 25.1336 0.0000 0.0000 0.0000
# 3 41.9137 25.1336 79.3492 0.0000 0.0000 0.0000
# 4 0.0000 0.0000 0.0000 27.4410 0.0000 0.0000
# 5 0.0000 0.0000 0.0000 0.0000 31.3434 0.0000
# 6 0.0000 0.0000 0.0000 0.0000 0.0000 29.9869
#
#
#
# Elastic Compliance Matrix: (Units=1/GPa)
#
#
# Indices 1 2 3 4 5 6 
#
# 1 0.008103 -0.002029 -0.003637 0.000000 0.000000 0.000000
# 2 -0.002029 0.014103 -0.003395 0.000000 0.000000 0.000000
# 3 -0.003637 -0.003395 0.015599 0.000000 0.000000 0.000000
# 4 0.000000 0.000000 0.000000 0.036442 0.000000 0.000000
# 5 0.000000 0.000000 0.000000 0.000000 0.031905 0.000000
# 6 0.000000 0.000000 0.000000 0.000000 0.000000 0.033348
#
#
# Mechanical properties :
#
#
# Convention : Reuss Voigt Hill
#
# Bulk Modulus (GPa) = 50.80963 56.50344 53.65654
# Shear Modulus (GPa) = 30.45386 31.90696 31.18041
#
# Velocity S-wave (km/s) = 4.14337 4.24106 4.19250
# Velocity P-wave (km/s) = 7.17861 7.47224 7.32690
#
# Compressibility (1/GPa) = 0.01968131
#
# Stress axis : x y z
#
# Youngs Moduli (GPa) = 123.41337 70.90855 64.10603
#
# Poissons Ratio (x) = 0.14390 0.23317
# Poissons Ratio (y) = 0.25046 0.21764
# Poissons Ratio (z) = 0.44889 0.24073
#
# Static dielectric constant tensor:
#      x y z
#    x 1.613270 0.000000 0.000000 
#    y 0.000000 1.615550 0.000000 
#    z 0.000000 0.000000 1.649500 
# 
# From -- ./inp_files/36427.got.cif
#   From: 2010.05.17/outbox.ucp.g08.bks.cvg/sg74_19_cif.got.tgz:36427.got - 2010.06.11 16:37:44.
