data_PCOD9540995
_publ_section_title
;
Structure prediction by ZEFSAII (Michael W. Deem and Ramdas Pophale) SiO2 
 PCOD9540995
Probable space group: P 4
;
_chemical_formula_sum "Si O2"
_cell_formula_units_Z 29
_cell_length_a 12.169575
_cell_length_b 12.169575
_cell_length_c 11.506017
_cell_angle_alpha 90.000000
_cell_angle_beta 90.000000
_cell_angle_gamma 90.000000
_cell_volume 1704.024499
_symmetry_space_group_name_H-M "P 4"
_symmetry_group_IT_number 75
_symmetry_cell_setting 'tetragonal'
loop_
_space_group_symop_operation_xyz
x,y,z
-y,x,z
-x,-y,z
y,-x,z
loop_
_atom_site_type_symbol
_atom_site_label
_atom_site_fract_x
_atom_site_fract_y
_atom_site_fract_z
Si Si1 0.819402 0.050486 0.516620
Si Si2 0.124600 0.720308 0.158541
Si Si3 0.127536 0.484279 0.915252
Si Si4 0.731701 0.865378 0.889859
Si Si5 0.713997 0.111030 0.275089
Si Si6 0.500000 0.500000 0.164103
Si Si7 0.478937 0.766653 0.155001
Si Si8 0.904491 0.715722 0.764194
O O1 0.743241 0.074127 0.405418
O O2 0.748312 0.071818 0.632315
O O3 0.926657 0.130680 0.515715
O O4 0.188211 0.808697 0.235433
O O5 0.182529 0.601120 0.167325
O O6 0.998926 0.710772 0.197699
O O7 0.133054 0.759366 0.025545
O O8 0.170255 0.604591 0.883997
O O9 0.124793 0.408099 0.802076
O O10 0.000000 0.500000 0.954300
O O11 0.195146 0.439203 0.025368
O O12 0.807236 0.788427 0.814389
O O13 0.741538 0.986673 0.838000
O O14 0.602395 0.178028 0.248737
O O15 0.481282 0.635620 0.163181
#
# Coordination Sequence:
#
# PCOD9540995 Si02
#       8
#     4   4   4   4   4   1   4   4
#     4  11  23  41  57  84 125 167 201 250 299 355
#     4  11  22  37  61  93 126 159 198 255 318 370
#     4   9  20  37  58  87 124 152 189 252 301 357
#     4  10  20  34  57  86 118 151 190 243 303 364
#     4  12  22  39  61  87 126 164 205 250 308 367
#     4  12  24  36  64  92 122 164 200 248 312 382
#     4  11  22  41  60  92 125 160 202 252 316 366
#     4  11  20  37  58  83 117 158 198 238 298 351
#
# _framework density 17.018535
#
# number of rings (size 3 to 8) (size 9 to 14) (size 15 to 20)
#    0.000    1.241    4.138    4.552    1.931    0.552 
#    0.000    6.897    0.000    0.000    0.000    0.966 
#    0.000    0.000    0.000    0.000    0.000    0.000 
#
# Total GULP energy -161584.802302 kJ/mol
# GULP energy per Si atom -5571.889735 kJ/mol
# Density = 1.697980 g / cm^3
# Si number density = 17.018535 Si / 1000 Ang^3
#
#
#
# Elastic Constant Matrix: (Units=GPa)
#
#
# Indices 1 2 3 4 5 6 
#
# 1 40.6601 39.9051 6.3247 0.0000 0.0000 1.6287
# 2 39.9051 40.6601 6.3247 0.0000 0.0000 -1.6287
# 3 6.3247 6.3247 43.0375 0.0000 0.0000 0.0000
# 4 0.0000 0.0000 0.0000 261.0395 0.0000 0.0000
# 5 0.0000 0.0000 0.0000 0.0000 261.0395 0.0000
# 6 1.6287 -1.6287 0.0000 0.0000 0.0000 31.8074
#
#
#
# Elastic Compliance Matrix: (Units=1/GPa)
#
#
# Indices 1 2 3 4 5 6 
#
# 1 0.856373 -0.843667 -0.001867 0.000000 0.000000 -0.087052
# 2 -0.843667 0.856373 -0.001867 0.000000 0.000000 0.087052
# 3 -0.001867 -0.001867 0.023784 0.000000 0.000000 0.000000
# 4 0.000000 0.000000 0.000000 0.003831 0.000000 0.000000
# 5 0.000000 0.000000 0.000000 0.000000 0.003831 0.000000
# 6 -0.087052 0.087052 0.000000 0.000000 0.000000 0.040354
#
#
# Mechanical properties :
#
#
# Convention : Reuss Voigt Hill
#
# Bulk Modulus (GPa) = 23.96552 25.49629 24.73090
# Shear Modulus (GPa) = 1.43133 115.56415 58.49774
#
# Velocity S-wave (km/s) = 0.91808 8.24938 5.86921
# Velocity P-wave (km/s) = 3.90338 10.28350 7.77775
#
# Compressibility (1/GPa) = 0.04172661
#
# Stress axis : x y z
#
# Youngs Moduli (GPa) = 1.16772 1.16772 42.04448
#
# Poissons Ratio (x) = 0.98516 0.07850
# Poissons Ratio (y) = 0.98516 0.07850
# Poissons Ratio (z) = 0.00218 0.00218
#
# Static dielectric constant tensor:
#      x y z
#    x 0.874330 0.000000 0.000000 
#    y 0.000000 0.874330 0.000000 
#    z 0.000000 0.000000 1.561290 
# 
# From -- ./inp_files/595.got.cif
#   From: 2010.05.17/outbox.cif.g08.bks.cpg/sg75_cif.got.tgz:595.got - 2010.06.03 18:42:43.
