data_PCOD9540560
_publ_section_title
;
Structure prediction by ZEFSAII (Michael W. Deem and Ramdas Pophale) SiO2 
 PCOD9540560
Probable space group: I M M A
;
_chemical_formula_sum "Si O2"
_cell_formula_units_Z 44
_cell_length_a 7.425996
_cell_length_b 9.787627
_cell_length_c 29.068198
_cell_angle_alpha 90.000000
_cell_angle_beta 90.000000
_cell_angle_gamma 90.000000
_cell_volume 2112.760317
_symmetry_space_group_name_H-M "I M M A"
_symmetry_group_IT_number 74
_symmetry_cell_setting 'orthorhombic'
loop_
_space_group_symop_operation_xyz
x,y,z
-x,1/2-y,z
x,-y,-z
-x,1/2+y,-z
-x,-y,-z
x,1/2+y,-z
-x,y,z
x,1/2-y,z
1/2+x,1/2+y,1/2+z
1/2-x,-y,1/2+z
1/2+x,1/2-y,1/2-z
1/2-x,y,1/2-z
1/2-x,1/2-y,1/2-z
1/2+x,y,1/2-z
1/2-x,1/2+y,1/2+z
1/2+x,-y,1/2+z
loop_
_atom_site_type_symbol
_atom_site_label
_atom_site_fract_x
_atom_site_fract_y
_atom_site_fract_z
Si Si1 0.000000 0.250000 0.164849
Si Si2 0.206444 0.521973 0.642243
Si Si3 0.719128 0.092370 0.957201
Si Si4 0.213149 0.250000 0.804060
O O1 0.157647 0.368745 0.162523
O O2 0.267605 0.478051 0.590906
O O3 0.209203 0.384878 0.672379
O O4 0.000000 0.572078 0.639397
O O5 0.500000 0.096136 0.958206
O O6 0.780000 0.250000 0.959602
O O7 0.778891 0.000000 0.000000
O O8 0.250000 0.250000 0.750000
O O9 0.000000 0.250000 0.812175
#
# Coordination Sequence:
#
# PCOD9540560 Si02
#       4
#     4  16  16   8
#     4  12  26  42  66  98 144 182 220 282 350 418
#     4  11  23  44  70 100 138 185 231 290 349 410
#     4   9  18  33  60  96 132 177 232 283 342 412
#     4  12  24  46  79 107 135 176 239 292 344 417
#
# _framework density 20.825835000000001
#
# number of rings (size 3 to 8) (size 9 to 14) (size 15 to 20)
#    0.000    1.455    3.636    2.182    2.545    0.000 
#    0.000    1.818    4.000    0.000    0.000    0.000 
#    0.000    0.000    0.000    0.000    0.000    0.000 
#
# Total GULP energy -122504.697011 kJ/mol
# GULP energy per Si atom -5568.395319 kJ/mol
# Density = 2.077843 g / cm^3
# Si number density = 20.825835 Si / 1000 Ang^3
#
#
#
# Elastic Constant Matrix: (Units=GPa)
#
#
# Indices 1 2 3 4 5 6 
#
# 1 124.7389 33.7284 -5.0862 0.0000 0.0000 0.0000
# 2 33.7284 139.5006 12.1205 0.0000 0.0000 0.0000
# 3 -5.0862 12.1205 89.3556 0.0000 0.0000 0.0000
# 4 0.0000 0.0000 0.0000 25.2972 0.0000 0.0000
# 5 0.0000 0.0000 0.0000 0.0000 -2.6710 0.0000
# 6 0.0000 0.0000 0.0000 0.0000 0.0000 69.8683
#
#
#
# Elastic Compliance Matrix: (Units=1/GPa)
#
#
# Indices 1 2 3 4 5 6 
#
# 1 0.008631 -0.002155 0.000784 0.000000 0.000000 0.000000
# 2 -0.002155 0.007792 -0.001180 0.000000 0.000000 0.000000
# 3 0.000784 -0.001180 0.011396 0.000000 0.000000 0.000000
# 4 0.000000 0.000000 0.000000 0.039530 0.000000 0.000000
# 5 0.000000 0.000000 0.000000 0.000000 -0.374397 0.000000
# 6 0.000000 0.000000 0.000000 0.000000 0.000000 0.014313
#
#
# Mechanical properties :
#
#
# Convention : Reuss Voigt Hill
#
# Bulk Modulus (GPa) = 44.01935 48.34670 46.18302
# Shear Modulus (GPa) = -17.85327 39.35441 10.75057
#
# Velocity S-wave (km/s) = -2.93109 4.35177 2.27450
# Velocity P-wave (km/s) = 3.11894 6.96533 5.39646
#
# Compressibility (1/GPa) = 0.02271728
#
# Stress axis : x y z
#
# Youngs Moduli (GPa) = 115.85629 128.33767 87.75126
#
# Poissons Ratio (x) = 0.27656 -0.06876
# Poissons Ratio (y) = 0.24967 0.10351
# Poissons Ratio (z) = -0.09079 0.15139
#
# Static dielectric constant tensor:
#      x y z
#    x 1.792900 0.000000 0.000000 
#    y 0.000000 1.689310 0.000000 
#    z 0.000000 0.000000 1.730580 
# 
# From -- ./inp_files/69454.got.cif
#   From: 2010.05.17/outbox.cif.g08.bks.cpg/sg74_35_cif.got.tgz:69454.got - 2010.06.03 17:57:02.
