data_PCOD9540387
_publ_section_title
;
Structure prediction by ZEFSAII (Michael W. Deem and Ramdas Pophale) SiO2 
 PCOD9540387
Probable space group: I M M A
;
_chemical_formula_sum "Si O2"
_cell_formula_units_Z 52
_cell_length_a 16.934209
_cell_length_b 15.272361
_cell_length_c 10.331139
_cell_angle_alpha 90.000000
_cell_angle_beta 90.000000
_cell_angle_gamma 90.000000
_cell_volume 2671.894472
_symmetry_space_group_name_H-M "I M M A"
_symmetry_group_IT_number 74
_symmetry_cell_setting 'orthorhombic'
loop_
_space_group_symop_operation_xyz
x,y,z
-x,1/2-y,z
x,-y,-z
-x,1/2+y,-z
-x,-y,-z
x,1/2+y,-z
-x,y,z
x,1/2-y,z
1/2+x,1/2+y,1/2+z
1/2-x,-y,1/2+z
1/2+x,1/2-y,1/2-z
1/2-x,y,1/2-z
1/2-x,1/2-y,1/2-z
1/2+x,y,1/2-z
1/2-x,1/2+y,1/2+z
1/2+x,-y,1/2+z
loop_
_atom_site_type_symbol
_atom_site_label
_atom_site_fract_x
_atom_site_fract_y
_atom_site_fract_z
Si Si1 0.000000 0.250000 0.787162
Si Si2 0.813962 0.594226 0.553138
Si Si3 0.326341 0.250000 0.847574
Si Si4 0.152539 0.148143 0.169173
Si Si5 0.500000 0.605200 0.505189
O O1 0.085430 0.250000 0.714692
O O2 0.000000 0.161295 0.873552
O O3 0.836973 0.500000 0.500000
O O4 0.819926 0.665523 0.440356
O O5 0.861127 0.621643 0.682100
O O6 0.723958 0.593894 0.606111
O O7 0.250000 0.250000 0.750000
O O8 0.176381 0.250000 0.165336
O O9 0.076249 0.134512 0.084296
O O10 0.500000 0.500000 0.500000
#
# Coordination Sequence:
#
# PCOD9540387 Si02
#       5
#     4  16   8  16   8
#     4  12  28  44  66 100 134 170 216 270 336 390
#     4  11  24  41  68  96 126 171 218 264 321 388
#     4  12  26  44  66  96 140 172 210 274 334 382
#     4  11  21  45  67  91 126 173 220 263 316 387
#     4  12  26  43  66  94 128 169 217 269 321 388
#
# _framework density 19.461846000000001
#
# number of rings (size 3 to 8) (size 9 to 14) (size 15 to 20)
#    0.000    0.615    4.615    3.692    8.615    1.231 
#    0.000    1.538    0.000    0.000    0.000    0.000 
#    0.000    0.000    0.000    0.000    0.000    0.000 
#
# Total GULP energy -145258.877448 kJ/mol
# GULP energy per Si atom -5586.879902 kJ/mol
# Density = 1.941755 g / cm^3
# Si number density = 19.461846 Si / 1000 Ang^3
#
#
#
# Elastic Constant Matrix: (Units=GPa)
#
#
# Indices 1 2 3 4 5 6 
#
# 1 93.0297 -1.1145 55.9497 0.0000 0.0000 0.0000
# 2 -1.1145 116.8354 47.3351 0.0000 0.0000 0.0000
# 3 55.9497 47.3351 141.0966 0.0000 0.0000 0.0000
# 4 0.0000 0.0000 0.0000 32.2232 0.0000 0.0000
# 5 0.0000 0.0000 0.0000 0.0000 41.9665 0.0000
# 6 0.0000 0.0000 0.0000 0.0000 0.0000 23.9353
#
#
#
# Elastic Compliance Matrix: (Units=1/GPa)
#
#
# Indices 1 2 3 4 5 6 
#
# 1 0.014942 0.002943 -0.006912 0.000000 0.000000 0.000000
# 2 0.002943 0.010485 -0.004685 0.000000 0.000000 0.000000
# 3 -0.006912 -0.004685 0.011400 0.000000 0.000000 0.000000
# 4 0.000000 0.000000 0.000000 0.031034 0.000000 0.000000
# 5 0.000000 0.000000 0.000000 0.000000 0.023829 0.000000
# 6 0.000000 0.000000 0.000000 0.000000 0.000000 0.041779
#
#
# Mechanical properties :
#
#
# Convention : Reuss Voigt Hill
#
# Bulk Modulus (GPa) = 51.23211 61.70028 56.46619
# Shear Modulus (GPa) = 31.79011 36.21109 34.00060
#
# Velocity S-wave (km/s) = 4.04599 4.31817 4.18429
# Velocity P-wave (km/s) = 6.94322 7.52557 7.24025
#
# Compressibility (1/GPa) = 0.01951901
#
# Stress axis : x y z
#
# Youngs Moduli (GPa) = 66.92716 95.37413 87.72069
#
# Poissons Ratio (x) = -0.28068 0.60634
# Poissons Ratio (y) = -0.19696 0.41093
# Poissons Ratio (z) = 0.46261 0.44678
#
# Static dielectric constant tensor:
#      x y z
#    x 1.671150 0.000000 0.000000 
#    y 0.000000 1.675220 0.000000 
#    z 0.000000 0.000000 1.728100 
# 
# From -- ./inp_files/19624.got.cif
#   From: 2010.05.17/outbox.cif.g08.bks.cpg/sg74_10_cif.got.tgz:19624.got - 2010.06.03 17:57:02.
