data_PCOD9540980
_publ_section_title
;
Structure prediction by ZEFSAII (Michael W. Deem and Ramdas Pophale) SiO2 
 PCOD9540980
Probable space group: I M M A
;
_chemical_formula_sum "Si O2"
_cell_formula_units_Z 40
_cell_length_a 9.000000
_cell_length_b 27.000000
_cell_length_c 18.000000
_cell_angle_alpha 90.000000
_cell_angle_beta 90.000000
_cell_angle_gamma 90.000000
_cell_volume 4374.000000
_symmetry_space_group_name_H-M "I M M A"
_symmetry_group_IT_number 74
_symmetry_cell_setting 'orthorhombic'
loop_
_space_group_symop_operation_xyz
x,y,z
-x,1/2-y,z
x,-y,-z
-x,1/2+y,-z
-x,-y,-z
x,1/2+y,-z
-x,y,z
x,1/2-y,z
1/2+x,1/2+y,1/2+z
1/2-x,-y,1/2+z
1/2+x,1/2-y,1/2-z
1/2-x,y,1/2-z
1/2-x,1/2-y,1/2-z
1/2+x,y,1/2-z
1/2-x,1/2+y,1/2+z
1/2+x,-y,1/2+z
loop_
_atom_site_type_symbol
_atom_site_label
_atom_site_fract_x
_atom_site_fract_y
_atom_site_fract_z
Si Si1 0.319872 0.910770 0.949963
Si Si2 0.178049 0.407974 0.886492
Si Si3 0.325280 0.696948 0.939769
Si Si4 0.821803 0.493201 0.326026
Si Si5 0.825373 0.194774 0.620220
O O1 0.500000 0.909047 0.962937
O O2 0.271405 0.857348 0.916049
O O3 0.290152 0.955869 0.894372
O O4 0.238980 0.915111 0.029117
O O5 0.249652 0.453367 0.841864
O O6 0.234458 0.354098 0.858034
O O7 0.000000 0.409852 0.884844
O O8 0.500000 0.698403 0.920690
O O9 0.258565 0.750000 0.915229
O O10 0.316385 0.696013 0.029860
O O11 0.750000 0.473677 0.250000
O O12 0.000000 0.497589 0.319383
O O13 0.776934 0.250000 0.645973
O O14 0.000000 0.188766 0.638916
#
# Coordination Sequence:
#
# PCOD9540980 Si02
#       5
#    16  16  16  16  16
#     4   9  18  33  53  76 101 133 172 212 254 301
#     4  11  21  32  51  79 108 135 167 209 254 302
#     4   7  10  20  42  71  98 123 156 197 239 286
#     4  11  23  38  54  71  97 133 174 218 262 310
#     4   8  14  27  48  73 102 135 168 202 244 295
#
# _framework density 9.1449470000000002
#
# number of rings (size 3 to 8) (size 9 to 14) (size 15 to 20)
#    0.000    2.800    0.000    5.400    0.000    4.400 
#    0.000    0.000    0.000    1.200    0.000    0.000 
#    0.000    0.000    0.000    0.000    0.000    0.200 
#
# Total GULP energy -222845.727159 kJ/mol
# GULP energy per Si atom -5571.143179 kJ/mol
# Density = 0.912413 g / cm^3
# Si number density = 9.144947 Si / 1000 Ang^3
#
#
#
# Elastic Constant Matrix: (Units=GPa)
#
#
# Indices 1 2 3 4 5 6 
#
# 1 60.5144 27.4392 8.1612 0.0000 0.0000 0.0000
# 2 27.4392 112.2317 3.2647 0.0000 0.0000 0.0000
# 3 8.1612 3.2647 21.6172 -0.0001 0.0000 0.0000
# 4 0.0000 0.0000 -0.0001 -0.6584 0.0000 0.0000
# 5 0.0000 0.0000 0.0000 0.0000 19.0665 0.0000
# 6 0.0000 0.0000 0.0000 0.0000 0.0000 16.8653
#
#
#
# Elastic Compliance Matrix: (Units=1/GPa)
#
#
# Indices 1 2 3 4 5 6 
#
# 1 0.019498 -0.004573 -0.006671 0.000001 0.000000 0.000000
# 2 -0.004573 0.010022 0.000213 0.000000 0.000000 0.000000
# 3 -0.006671 0.000213 0.048746 -0.000005 0.000000 0.000000
# 4 0.000001 0.000000 -0.000005 -1.518837 0.000000 -0.000001
# 5 0.000000 0.000000 0.000000 0.000000 0.052448 0.000000
# 6 0.000000 0.000000 0.000000 -0.000001 0.000000 0.059293
#
#
# Mechanical properties :
#
#
# Convention : Reuss Voigt Hill
#
# Bulk Modulus (GPa) = 17.79220 30.23261 24.01241
# Shear Modulus (GPa) = -3.88189 17.42122 6.76967
#
# Velocity S-wave (km/s) = -1.45843 3.08962 1.92597
# Velocity P-wave (km/s) = 2.62925 5.41232 4.25477
#
# Compressibility (1/GPa) = 0.05620441
#
# Stress axis : x y z
#
# Youngs Moduli (GPa) = 51.28693 99.78061 20.51470
#
# Poissons Ratio (x) = 0.45630 0.13684
# Poissons Ratio (y) = 0.23454 -0.00437
# Poissons Ratio (z) = 0.34211 -0.02124
#
# Static dielectric constant tensor:
#      x y z
#    x 1.602010 0.000000 0.000000 
#    y 0.000000 1.697380 0.000000 
#    z 0.000000 0.000000 1.612410 
# 
# From -- ./inp_files/39685.got.cif
#   From: 2010.05.17/outbox.ucp.g08.bks.cvg/sg74_20_cif.got.tgz:39685.got - 2010.06.11 16:37:44.
