data_PCOD9540841
_publ_section_title
;
Structure prediction by ZEFSAII (Michael W. Deem and Ramdas Pophale) SiO2 
 PCOD9540841
Probable space group: I M M A
;
_chemical_formula_sum "Si O2"
_cell_formula_units_Z 52
_cell_length_a 21.000000
_cell_length_b 9.000000
_cell_length_c 27.000000
_cell_angle_alpha 90.000000
_cell_angle_beta 90.000000
_cell_angle_gamma 90.000000
_cell_volume 5103.000000
_symmetry_space_group_name_H-M "I M M A"
_symmetry_group_IT_number 74
_symmetry_cell_setting 'orthorhombic'
loop_
_space_group_symop_operation_xyz
x,y,z
-x,1/2-y,z
x,-y,-z
-x,1/2+y,-z
-x,-y,-z
x,1/2+y,-z
-x,y,z
x,1/2-y,z
1/2+x,1/2+y,1/2+z
1/2-x,-y,1/2+z
1/2+x,1/2-y,1/2-z
1/2-x,y,1/2-z
1/2-x,1/2-y,1/2-z
1/2+x,y,1/2-z
1/2-x,1/2+y,1/2+z
1/2+x,-y,1/2+z
loop_
_atom_site_type_symbol
_atom_site_label
_atom_site_fract_x
_atom_site_fract_y
_atom_site_fract_z
Si Si1 0.269358 0.079319 0.860350
Si Si2 0.328654 0.418657 0.548175
Si Si3 0.102079 0.580708 0.615856
Si Si4 0.067040 0.576237 0.728105
Si Si5 0.574903 0.428549 0.624378
Si Si6 0.000000 0.076957 0.552004
Si Si7 0.668624 0.073372 0.297806
O O1 0.288623 0.250000 0.852404
O O2 0.220074 0.074516 0.906258
O O3 0.327416 0.976778 0.875563
O O4 0.230978 0.013331 0.814091
O O5 0.305273 0.500000 0.500000
O O6 0.337102 0.250000 0.533188
O O7 0.395715 0.470048 0.571097
O O8 0.100496 0.750000 0.597790
O O9 0.069534 0.575048 0.669479
O O10 0.062277 0.476175 0.580753
O O11 0.066145 0.750000 0.743669
O O12 0.133913 0.518628 0.748121
O O13 0.000000 0.506460 0.745204
O O14 0.500000 0.449343 0.627585
O O15 0.588739 0.250000 0.632499
O O16 0.613391 0.529344 0.662951
O O17 0.000000 0.250000 0.546608
O O18 0.000000 0.000000 0.500000
O O19 0.682120 0.250000 0.297256
#
# Coordination Sequence:
#
# PCOD9540841 Si02
#       7
#    16  16  16  16  16   8  16
#     4  10  22  40  57  80 119 157 193 243 301 359
#     4   9  19  34  52  73 102 141 183 233 288 343
#     4  11  22  41  67  92 120 155 195 241 298 357
#     4   9  18  34  58  87 121 156 193 241 297 353
#     4   9  18  33  50  72 109 150 185 231 293 348
#     4  12  26  46  70  98 128 160 200 248 303 364
#     4  10  19  33  56  85 114 153 203 244 284 343
#
# _framework density 10.190084000000001
#
# number of rings (size 3 to 8) (size 9 to 14) (size 15 to 20)
#    0.000    2.154    0.769    3.462    0.000    5.538 
#    0.000    7.692    0.000    0.000    0.000    0.000 
#    0.000    0.000    0.000    0.000    0.000    0.000 
#
# Total GULP energy -289846.017869 kJ/mol
# GULP energy per Si atom -5573.961882 kJ/mol
# Density = 1.016689 g / cm^3
# Si number density = 10.190084 Si / 1000 Ang^3
#
#
#
# Elastic Constant Matrix: (Units=GPa)
#
#
# Indices 1 2 3 4 5 6 
#
# 1 89.4318 24.9415 15.7218 0.0000 0.0000 0.0000
# 2 24.9415 75.1755 29.7166 0.0000 0.0000 0.0000
# 3 15.7218 29.7166 54.4206 0.0000 0.0000 0.0000
# 4 0.0000 0.0000 0.0000 14.0530 0.0000 0.0000
# 5 0.0000 0.0000 0.0000 0.0000 -18.5965 0.0000
# 6 0.0000 0.0000 0.0000 0.0000 0.0000 25.4418
#
#
#
# Elastic Compliance Matrix: (Units=1/GPa)
#
#
# Indices 1 2 3 4 5 6 
#
# 1 0.012445 -0.003453 -0.001710 0.000000 0.000000 0.000000
# 2 -0.003453 0.017922 -0.008789 0.000000 0.000000 0.000000
# 3 -0.001710 -0.008789 0.023669 0.000000 0.000000 0.000000
# 4 0.000000 0.000000 0.000000 0.071159 0.000000 0.000000
# 5 0.000000 0.000000 0.000000 0.000000 -0.053774 0.000000
# 6 0.000000 0.000000 0.000000 0.000000 0.000000 0.039305
#
#
# Mechanical properties :
#
#
# Convention : Reuss Voigt Hill
#
# Bulk Modulus (GPa) = 38.26670 39.97639 39.12155
# Shear Modulus (GPa) = 33.93489 14.08955 24.01222
#
# Velocity S-wave (km/s) = 4.08498 2.63218 3.43624
# Velocity P-wave (km/s) = 6.40833 5.37548 5.91449
#
# Compressibility (1/GPa) = 0.02613238
#
# Stress axis : x y z
#
# Youngs Moduli (GPa) = 80.35138 55.79709 42.25024
#
# Poissons Ratio (x) = 0.19268 0.07224
# Poissons Ratio (y) = 0.27747 0.37133
# Poissons Ratio (z) = 0.13738 0.49039
#
# Static dielectric constant tensor:
#      x y z
#    x 1.770500 0.000000 0.000000 
#    y 0.000000 1.710140 0.000000 
#    z 0.000000 0.000000 1.774640 
# 
# From -- ./inp_files/68271.got.cif
#   From: 2010.05.17/outbox.ucp.g08.bks.cvg/sg74_35_cif.got.tgz:68271.got - 2010.06.11 16:37:44.
