data_PCOD9540691
_publ_section_title
;
Structure prediction by ZEFSAII (Michael W. Deem and Ramdas Pophale) SiO2 
 PCOD9540691
Probable space group: I M M A
;
_chemical_formula_sum "Si O2"
_cell_formula_units_Z 72
_cell_length_a 7.267628
_cell_length_b 13.741277
_cell_length_c 32.268647
_cell_angle_alpha 90.000000
_cell_angle_beta 90.000000
_cell_angle_gamma 90.000000
_cell_volume 3222.556496
_symmetry_space_group_name_H-M "I M M A"
_symmetry_group_IT_number 74
_symmetry_cell_setting 'orthorhombic'
loop_
_space_group_symop_operation_xyz
x,y,z
-x,1/2-y,z
x,-y,-z
-x,1/2+y,-z
-x,-y,-z
x,1/2+y,-z
-x,y,z
x,1/2-y,z
1/2+x,1/2+y,1/2+z
1/2-x,-y,1/2+z
1/2+x,1/2-y,1/2-z
1/2-x,y,1/2-z
1/2-x,1/2-y,1/2-z
1/2+x,y,1/2-z
1/2-x,1/2+y,1/2+z
1/2+x,-y,1/2+z
loop_
_atom_site_type_symbol
_atom_site_label
_atom_site_fract_x
_atom_site_fract_y
_atom_site_fract_z
Si Si1 0.280567 0.460692 0.799177
Si Si2 0.219003 0.250000 0.700298
Si Si3 0.223548 0.433543 0.441045
Si Si4 0.775371 0.857832 0.647676
Si Si5 0.723817 0.142154 0.968814
O O1 0.500000 0.458215 0.805557
O O2 0.250000 0.469190 0.750000
O O3 0.209642 0.354947 0.814090
O O4 0.211263 0.554624 0.823230
O O5 0.250000 0.250000 0.750000
O O6 0.000000 0.250000 0.692818
O O7 0.281405 0.380703 0.399370
O O8 0.280770 0.546877 0.443127
O O9 0.278203 0.380744 0.483617
O O10 0.000000 0.433061 0.441281
O O11 0.717057 0.750000 0.660468
O O12 0.000000 0.858217 0.648280
O O13 0.500000 0.142947 0.967838
O O14 0.784706 0.250000 0.956100
#
# Coordination Sequence:
#
# PCOD9540691 Si02
#       5
#    16   8  16  16  16
#     4   9  17  29  44  61  80 104 134 166 201 239
#     4   8  14  26  42  58  76  98 126 160 196 236
#     4   8  13  20  29  43  64  92 126 158 190 229
#     4   9  16  25  36  51  72  99 131 164 197 236
#     4   8  12  18  28  42  62  90 123 157 191 228
#
# _framework density 22.342510000000001
#
# number of rings (size 3 to 8) (size 9 to 14) (size 15 to 20)
#    0.000    3.556    0.000    2.000    0.000    3.111 
#    2.000    0.000    0.000    0.000    0.000    0.000 
#    0.000    0.000    0.000    4.000    0.000   10.222 
#
# Total GULP energy -200825.349571 kJ/mol
# GULP energy per Si atom -5578.481933 kJ/mol
# Density = 2.229166 g / cm^3
# Si number density = 22.342510 Si / 1000 Ang^3
#
#
#
# Elastic Constant Matrix: (Units=GPa)
#
#
# Indices 1 2 3 4 5 6 
#
# 1 100.8570 9.9136 -2.4730 0.0000 0.0000 0.0000
# 2 9.9136 230.7255 51.5351 0.0000 0.0000 0.0000
# 3 -2.4730 51.5351 38.3556 0.0000 0.0000 0.0000
# 4 0.0000 0.0000 0.0000 26.6090 0.0000 0.0000
# 5 0.0000 0.0000 0.0000 0.0000 -16.3603 0.0000
# 6 0.0000 0.0000 0.0000 0.0000 0.0000 -31.2249
#
#
#
# Elastic Compliance Matrix: (Units=1/GPa)
#
#
# Indices 1 2 3 4 5 6 
#
# 1 0.010039 -0.000823 0.001753 0.000000 0.000000 0.000000
# 2 -0.000823 0.006260 -0.008464 0.000000 0.000000 0.000000
# 3 0.001753 -0.008464 0.037557 0.000000 0.000000 0.000000
# 4 0.000000 0.000000 0.000000 0.037581 0.000000 0.000000
# 5 0.000000 0.000000 0.000000 0.000000 -0.061124 0.000000
# 6 0.000000 0.000000 0.000000 0.000000 0.000000 -0.032026
#
#
# Mechanical properties :
#
#
# Convention : Reuss Voigt Hill
#
# Bulk Modulus (GPa) = 25.78111 54.20995 39.99553
# Shear Modulus (GPa) = 190.21436 16.53559 103.37498
#
# Velocity S-wave (km/s) = 9.23691 2.72342 6.80946
# Velocity P-wave (km/s) = 11.19485 5.84852 8.93112
#
# Compressibility (1/GPa) = 0.03878809
#
# Stress axis : x y z
#
# Youngs Moduli (GPa) = 99.61263 159.74223 26.62585
#
# Poissons Ratio (x) = 0.13145 -0.04667
# Poissons Ratio (y) = 0.08197 0.22537
# Poissons Ratio (z) = -0.17461 1.35209
#
# Static dielectric constant tensor:
#      x y z
#    x 1.840100 0.000000 0.000000 
#    y 0.000000 1.838910 0.000000 
#    z 0.000000 0.000000 1.755300 
# 
# From -- ./inp_files/69988.got.cif
#   From: 2010.05.17/outbox.cif.g08.bks.cpg/sg74_35_cif.got.tgz:69988.got - 2010.06.03 17:57:02.
