data_PCOD9540303
_publ_section_title
;
Structure prediction by ZEFSAII (Michael W. Deem and Ramdas Pophale) SiO2 
 PCOD9540303
Probable space group: I M M A
;
_chemical_formula_sum "Si O2"
_cell_formula_units_Z 104
_cell_length_a 22.643594
_cell_length_b 8.674274
_cell_length_c 27.711598
_cell_angle_alpha 90.000000
_cell_angle_beta 90.000000
_cell_angle_gamma 90.000000
_cell_volume 5443.021703
_symmetry_space_group_name_H-M "I M M A"
_symmetry_group_IT_number 74
_symmetry_cell_setting 'orthorhombic'
loop_
_space_group_symop_operation_xyz
x,y,z
-x,1/2-y,z
x,-y,-z
-x,1/2+y,-z
-x,-y,-z
x,1/2+y,-z
-x,y,z
x,1/2-y,z
1/2+x,1/2+y,1/2+z
1/2-x,-y,1/2+z
1/2+x,1/2-y,1/2-z
1/2-x,y,1/2-z
1/2-x,1/2-y,1/2-z
1/2+x,y,1/2-z
1/2-x,1/2+y,1/2+z
1/2+x,-y,1/2+z
loop_
_atom_site_type_symbol
_atom_site_label
_atom_site_fract_x
_atom_site_fract_y
_atom_site_fract_z
Si Si1 0.932963 0.437433 0.178917
Si Si2 0.183727 0.063981 0.123127
Si Si3 0.602796 0.429337 0.212449
Si Si4 0.723707 0.064566 0.946277
Si Si5 0.275894 0.423066 0.802404
Si Si6 0.604725 0.431485 0.888673
Si Si7 0.000000 0.929851 0.551927
O O1 0.932639 0.250000 0.179741
O O2 0.882648 0.481967 0.140064
O O3 0.916181 0.484127 0.234136
O O4 0.000000 0.488007 0.168080
O O5 0.186898 0.250000 0.123909
O O6 0.214415 0.003098 0.074161
O O7 0.225874 0.988892 0.163343
O O8 0.585883 0.250000 0.207838
O O9 0.672628 0.453925 0.205824
O O10 0.584152 0.524780 0.165535
O O11 0.727010 0.250000 0.948231
O O12 0.670820 0.023887 0.907906
O O13 0.711083 0.000000 0.000000
O O14 0.296468 0.250000 0.819039
O O15 0.250000 0.402261 0.750000
O O16 0.599790 0.250000 0.895344
O O17 0.558551 0.515723 0.921904
O O18 0.000000 0.750000 0.549171
O O19 0.000000 0.000000 0.500000
#
# Coordination Sequence:
#
# PCOD9540303 Si02
#       7
#    16  16  16  16  16  16   8
#     4   9  20  37  57  86 122 160 202 247 296 355
#     4  11  21  36  61  88 117 155 199 248 302 365
#     4  11  21  34  57  86 118 157 202 245 288 350
#     4  11  24  41  63  90 120 152 192 248 308 365
#     4  11  21  33  52  80 118 156 191 238 290 343
#     4  11  24  41  60  87 123 161 200 249 303 359
#     4  12  26  44  64  84 112 158 210 262 303 352
#
# _framework density 19.107033000000001
#
# number of rings (size 3 to 8) (size 9 to 14) (size 15 to 20)
#    0.000    1.231    3.077    3.462    1.077    3.692 
#    0.000    0.000    0.000    6.000    0.000    0.000 
#    0.000    0.000    0.000    0.000    0.000    0.000 
#
# Total GULP energy -289973.428262 kJ/mol
# GULP energy per Si atom -5576.412082 kJ/mol
# Density = 1.906354 g / cm^3
# Si number density = 19.107033 Si / 1000 Ang^3
#
#
#
# Elastic Constant Matrix: (Units=GPa)
#
#
# Indices 1 2 3 4 5 6 
#
# 1 116.2912 31.6481 28.5011 0.0000 0.0000 0.0000
# 2 31.6481 73.9540 32.0504 0.0000 0.0000 0.0000
# 3 28.5011 32.0504 70.3827 0.0000 0.0000 0.0000
# 4 0.0000 0.0000 0.0000 79.1024 0.0000 0.0000
# 5 0.0000 0.0000 0.0000 0.0000 -570.9212 0.0000
# 6 0.0000 0.0000 0.0000 0.0000 0.0000 21.2040
#
#
#
# Elastic Compliance Matrix: (Units=1/GPa)
#
#
# Indices 1 2 3 4 5 6 
#
# 1 0.010113 -0.003181 -0.002647 0.000000 0.000000 0.000000
# 2 -0.003181 0.017847 -0.006839 0.000000 0.000000 0.000000
# 3 -0.002647 -0.006839 0.018394 0.000000 0.000000 0.000000
# 4 0.000000 0.000000 0.000000 0.012642 0.000000 0.000000
# 5 0.000000 0.000000 0.000000 0.000000 -0.001752 0.000000
# 6 0.000000 0.000000 0.000000 0.000000 0.000000 0.047161
#
#
# Mechanical properties :
#
#
# Convention : Reuss Voigt Hill
#
# Bulk Modulus (GPa) = 47.57111 49.44747 48.50929
# Shear Modulus (GPa) = 36.56404 -82.89440 -23.16518
#
# Velocity S-wave (km/s) = 4.37927 -6.59382 -3.48572
# Velocity P-wave (km/s) = 7.10787 5.66002 3.04023
#
# Compressibility (1/GPa) = 0.02102116
#
# Stress axis : x y z
#
# Youngs Moduli (GPa) = 98.87795 56.03172 54.36506
#
# Poissons Ratio (x) = 0.17823 0.14390
# Poissons Ratio (y) = 0.31452 0.37180
# Poissons Ratio (z) = 0.26172 0.38320
#
# Static dielectric constant tensor:
#      x y z
#    x 1.688400 0.000000 0.000000 
#    y 0.000000 1.650990 0.000000 
#    z 0.000000 0.000000 0.717760 
# 
# From -- ./inp_files/68226.got.cif
#   From: 2010.05.17/outbox.cif.g08.bks.cpg/sg74_35_cif.got.tgz:68226.got - 2010.06.03 17:57:02.
