data_PCOD9540085
_publ_section_title
;
Structure prediction by ZEFSAII (Michael W. Deem and Ramdas Pophale) SiO2 
 PCOD9540085
Probable space group: I M M A
;
_chemical_formula_sum "Si O2"
_cell_formula_units_Z 40
_cell_length_a 8.460234
_cell_length_b 22.752349
_cell_length_c 7.852806
_cell_angle_alpha 90.000000
_cell_angle_beta 90.000000
_cell_angle_gamma 90.000000
_cell_volume 1511.588171
_symmetry_space_group_name_H-M "I M M A"
_symmetry_group_IT_number 74
_symmetry_cell_setting 'orthorhombic'
loop_
_space_group_symop_operation_xyz
x,y,z
-x,1/2-y,z
x,-y,-z
-x,1/2+y,-z
-x,-y,-z
x,1/2+y,-z
-x,y,z
x,1/2-y,z
1/2+x,1/2+y,1/2+z
1/2-x,-y,1/2+z
1/2+x,1/2-y,1/2-z
1/2-x,y,1/2-z
1/2-x,1/2-y,1/2-z
1/2+x,y,1/2-z
1/2-x,1/2+y,1/2+z
1/2+x,-y,1/2+z
loop_
_atom_site_type_symbol
_atom_site_label
_atom_site_fract_x
_atom_site_fract_y
_atom_site_fract_z
Si Si1 0.000000 0.075551 0.378155
Si Si2 0.191725 0.750000 0.549481
Si Si3 0.000000 0.454329 0.778995
Si Si4 0.178115 0.872045 0.979044
O O1 0.165908 0.108300 0.379321
O O2 0.000000 0.056999 0.578721
O O3 0.000000 0.024976 0.231667
O O4 0.250000 0.750000 0.750000
O O5 0.265803 0.807678 0.462711
O O6 0.000000 0.750000 0.544294
O O7 0.141684 0.422927 0.881839
O O8 0.000000 0.862402 0.905004
#
# Coordination Sequence:
#
# PCOD9540085 Si02
#       4
#     8   8   8  16
#     4  11  20  49  72 111 163 214 275 323 422 491
#     4  12  24  48  85 117 160 211 278 354 420 505
#     4   9  24  43  76 112 161 212 267 345 396 509
#     4  10  23  45  76 119 155 208 275 340 420 488
#
# _framework density 26.462233999999999
#
# number of rings (size 3 to 8) (size 9 to 14) (size 15 to 20)
#    1.200    0.400    2.000    3.000    0.000    0.000 
#    3.600   16.000    0.000    0.000    0.000    0.000 
#    0.000    0.000    0.000    0.000    0.000    0.000 
#
# Total GULP energy -111538.376748 kJ/mol
# GULP energy per Si atom -5576.918837 kJ/mol
# Density = 2.640200 g / cm^3
# Si number density = 26.462234 Si / 1000 Ang^3
#
#
#
# Elastic Constant Matrix: (Units=GPa)
#
#
# Indices 1 2 3 4 5 6 
#
# 1 312.2936 118.4978 79.9420 0.0003 -0.0001 0.0005
# 2 118.4978 245.5434 56.5514 0.0000 0.0000 -0.0002
# 3 79.9420 56.5514 100.6692 0.0011 0.0010 0.0022
# 4 0.0003 0.0000 0.0011 3.4292 0.0000 0.0000
# 5 -0.0001 0.0000 0.0010 0.0000 73.1304 0.0003
# 6 0.0005 -0.0002 0.0022 0.0000 0.0003 90.1763
#
#
#
# Elastic Compliance Matrix: (Units=1/GPa)
#
#
# Indices 1 2 3 4 5 6 
#
# 1 0.004475 -0.001540 -0.002688 0.000001 0.000000 0.000000
# 2 -0.001540 0.005208 -0.001702 0.000001 0.000000 0.000000
# 3 -0.002688 -0.001702 0.013024 -0.000004 0.000000 0.000000
# 4 0.000001 0.000001 -0.000004 0.291612 0.000000 0.000000
# 5 0.000000 0.000000 0.000000 0.000000 0.013674 0.000000
# 6 0.000000 0.000000 0.000000 0.000000 0.000000 0.011089
#
#
# Mechanical properties :
#
#
# Convention : Reuss Voigt Hill
#
# Bulk Modulus (GPa) = 92.20423 129.83208 111.01816
# Shear Modulus (GPa) = 14.10200 60.24819 37.17509
#
# Velocity S-wave (km/s) = 2.31099 4.77672 3.75218
# Velocity P-wave (km/s) = 6.48385 8.92146 7.79848
#
# Compressibility (1/GPa) = 0.01084549
#
# Stress axis : x y z
#
# Youngs Moduli (GPa) = 223.47859 192.00994 76.77843
#
# Poissons Ratio (x) = 0.29577 0.20639
# Poissons Ratio (y) = 0.34424 0.13071
# Poissons Ratio (z) = 0.60073 0.32689
#
# Static dielectric constant tensor:
#      x y z
#    x 2.013320 0.000000 0.000000 
#    y 0.000000 2.156610 0.000000 
#    z 0.000000 0.000000 2.333280 
# 
# From -- ./inp_files/5904.got.cif
#   From: 2010.05.17/outbox.cif.g08.bks.cpg/sg74_3_cif.got.tgz:5904.got - 2010.06.03 17:57:02.
