data_PCOD9540864
_publ_section_title
;
Structure prediction by ZEFSAII (Michael W. Deem and Ramdas Pophale) SiO2 
 PCOD9540864
Probable space group: I M M A
;
_chemical_formula_sum "Si O2"
_cell_formula_units_Z 52
_cell_length_a 21.000000
_cell_length_b 9.000000
_cell_length_c 30.000000
_cell_angle_alpha 90.000000
_cell_angle_beta 90.000000
_cell_angle_gamma 90.000000
_cell_volume 5670.000000
_symmetry_space_group_name_H-M "I M M A"
_symmetry_group_IT_number 74
_symmetry_cell_setting 'orthorhombic'
loop_
_space_group_symop_operation_xyz
x,y,z
-x,1/2-y,z
x,-y,-z
-x,1/2+y,-z
-x,-y,-z
x,1/2+y,-z
-x,y,z
x,1/2-y,z
1/2+x,1/2+y,1/2+z
1/2-x,-y,1/2+z
1/2+x,1/2-y,1/2-z
1/2-x,y,1/2-z
1/2-x,1/2-y,1/2-z
1/2+x,y,1/2-z
1/2-x,1/2+y,1/2+z
1/2+x,-y,1/2+z
loop_
_atom_site_type_symbol
_atom_site_label
_atom_site_fract_x
_atom_site_fract_y
_atom_site_fract_z
Si Si1 0.925430 0.571087 0.193714
Si Si2 0.864726 0.427056 0.381786
Si Si3 0.500000 0.928793 0.548626
Si Si4 0.425650 0.084935 0.957590
Si Si5 0.249996 0.570685 0.950268
Si Si6 0.425003 0.929272 0.203093
Si Si7 0.376170 0.928762 0.605618
O O1 0.921498 0.750000 0.190873
O O2 0.909814 0.530456 0.245246
O O3 0.883153 0.500066 0.154651
O O4 0.000000 0.529332 0.186437
O O5 0.864327 0.250000 0.377172
O O6 0.920245 0.487415 0.413622
O O7 0.804538 0.469634 0.413598
O O8 0.878318 0.499098 0.333590
O O9 0.500000 0.750000 0.543965
O O10 0.438185 0.971798 0.577072
O O11 0.500000 0.000000 0.500000
O O12 0.500000 0.103421 0.967081
O O13 0.397777 0.250000 0.951826
O O14 0.396804 0.000000 0.000000
O O15 0.252971 0.750000 0.955861
O O16 0.184676 0.530966 0.924469
O O17 0.253043 0.500000 0.000000
O O18 0.500000 0.969557 0.195157
O O19 0.421343 0.750000 0.199418
O O20 0.375559 0.750000 0.611054
#
# Coordination Sequence:
#
# PCOD9540864 Si02
#       7
#    16  16   8  16  16  16  16
#     4   9  18  34  57  85 113 141 176 220 273 329
#     4  11  22  35  52  76 105 142 185 225 270 322
#     4  10  20  32  52  82 110 138 174 218 267 322
#     4  10  20  33  50  73 101 133 171 221 277 327
#     4  10  23  40  56  77 109 146 185 227 269 320
#     4   9  19  36  57  82 112 143 179 227 277 323
#     4  10  20  36  56  81 111 142 179 222 271 325
#
# _framework density 9.1710759999999993
#
# number of rings (size 3 to 8) (size 9 to 14) (size 15 to 20)
#    0.000    2.154    0.769    3.231    0.000    7.385 
#    0.000    2.308    0.000    4.615    0.000    0.000 
#    0.000    0.000    0.000    0.000    0.000    0.000 
#
# Total GULP energy -289851.933192 kJ/mol
# GULP energy per Si atom -5574.075638 kJ/mol
# Density = 0.915020 g / cm^3
# Si number density = 9.171076 Si / 1000 Ang^3
#
#
#
# Elastic Constant Matrix: (Units=GPa)
#
#
# Indices 1 2 3 4 5 6 
#
# 1 98.6091 37.0039 69.9362 0.0000 0.0000 0.0000
# 2 37.0039 38.0163 52.7469 0.0000 0.0000 0.0000
# 3 69.9362 52.7469 192.9680 0.0000 0.0000 0.0000
# 4 0.0000 0.0000 0.0000 42.9850 0.0000 0.0000
# 5 0.0000 0.0000 0.0000 0.0000 26.2611 0.0000
# 6 0.0000 0.0000 0.0000 0.0000 0.0000 14.1781
#
#
#
# Elastic Compliance Matrix: (Units=1/GPa)
#
#
# Indices 1 2 3 4 5 6 
#
# 1 0.016749 -0.012696 -0.002600 0.000000 0.000000 0.000000
# 2 -0.012696 0.051999 -0.009613 0.000000 0.000000 0.000000
# 3 -0.002600 -0.009613 0.008752 0.000000 0.000000 0.000000
# 4 0.000000 0.000000 0.000000 0.023264 0.000000 0.000000
# 5 0.000000 0.000000 0.000000 0.000000 0.038079 0.000000
# 6 0.000000 0.000000 0.000000 0.000000 0.000000 0.070531
#
#
# Mechanical properties :
#
#
# Convention : Reuss Voigt Hill
#
# Bulk Modulus (GPa) = 36.12184 72.10749 54.11466
# Shear Modulus (GPa) = 18.62755 28.01193 23.31974
#
# Velocity S-wave (km/s) = 3.19024 3.91217 3.56950
# Velocity P-wave (km/s) = 5.77116 7.73334 6.82315
#
# Compressibility (1/GPa) = 0.02768408
#
# Stress axis : x y z
#
# Youngs Moduli (GPa) = 59.70424 19.23102 114.25890
#
# Poissons Ratio (x) = 0.24415 0.29707
# Poissons Ratio (y) = 0.75799 1.09832
# Poissons Ratio (z) = 0.15523 0.18486
#
# Static dielectric constant tensor:
#      x y z
#    x 1.686800 0.000000 0.000000 
#    y 0.000000 1.648550 0.000000 
#    z 0.000000 0.000000 1.614870 
# 
# From -- ./inp_files/64439.got.cif
#   From: 2010.05.17/outbox.ucp.g08.bks.cvg/sg74_33_cif.got.tgz:64439.got - 2010.06.11 16:37:44.
