data_PCOD9540262
_publ_section_title
;
Structure prediction by ZEFSAII (Michael W. Deem and Ramdas Pophale) SiO2 
 PCOD9540262
Probable space group: I M M A
;
_chemical_formula_sum "Si O2"
_cell_formula_units_Z 80
_cell_length_a 10.041601
_cell_length_b 22.659473
_cell_length_c 23.046138
_cell_angle_alpha 90.000000
_cell_angle_beta 90.000000
_cell_angle_gamma 90.000000
_cell_volume 5243.858015
_symmetry_space_group_name_H-M "I M M A"
_symmetry_group_IT_number 74
_symmetry_cell_setting 'orthorhombic'
loop_
_space_group_symop_operation_xyz
x,y,z
-x,1/2-y,z
x,-y,-z
-x,1/2+y,-z
-x,-y,-z
x,1/2+y,-z
-x,y,z
x,1/2-y,z
1/2+x,1/2+y,1/2+z
1/2-x,-y,1/2+z
1/2+x,1/2-y,1/2-z
1/2-x,y,1/2-z
1/2-x,1/2-y,1/2-z
1/2+x,y,1/2-z
1/2-x,1/2+y,1/2+z
1/2+x,-y,1/2+z
loop_
_atom_site_type_symbol
_atom_site_label
_atom_site_fract_x
_atom_site_fract_y
_atom_site_fract_z
Si Si1 0.000000 0.319264 0.863044
Si Si2 0.250000 0.532321 0.250000
Si Si3 0.248047 0.378416 0.576028
Si Si4 0.153407 0.061825 0.035874
Si Si5 0.839860 0.994232 0.627491
Si Si6 0.500000 0.682074 0.124726
Si Si7 0.000000 0.117521 0.748390
O O1 0.872907 0.352669 0.889250
O O2 0.000000 0.329541 0.794083
O O3 0.000000 0.250000 0.876988
O O4 0.211721 0.494789 0.306497
O O5 0.373828 0.575968 0.259895
O O6 0.292394 0.390783 0.510217
O O7 0.197897 0.440836 0.602493
O O8 0.128044 0.333845 0.586672
O O9 0.000000 0.073783 0.053415
O O10 0.255674 0.051130 0.088303
O O11 0.150411 0.000000 0.000000
O O12 0.000000 0.986563 0.624309
O O13 0.500000 0.750000 0.142251
O O14 0.500000 0.641925 0.182913
#
# Coordination Sequence:
#
# PCOD9540262 Si02
#       7
#     8   8  16  16  16   8   8
#     4  12  23  34  52  71  93 135 183 224 257 290
#     4  12  20  32  51  70 104 134 169 210 254 296
#     4  11  20  36  50  69  99 127 167 221 262 303
#     4   9  20  32  52  74  92 121 163 210 261 316
#     4  11  21  33  51  75  97 130 168 204 257 311
#     4  12  23  36  50  71  99 137 185 224 259 290
#     4  12  21  36  48  66  98 142 178 224 255 282
#
# _framework density 15.255943
#
# number of rings (size 3 to 8) (size 9 to 14) (size 15 to 20)
#    0.000    1.000    7.000    0.900    4.200    1.200 
#    0.000    3.000    0.000    0.000    0.000    0.000 
#    0.000    0.000    0.000    5.400    0.000    0.000 
#
# Total GULP energy -223173.470866 kJ/mol
# GULP energy per Si atom -5579.336772 kJ/mol
# Density = 1.522122 g / cm^3
# Si number density = 15.255943 Si / 1000 Ang^3
#
#
#
# Elastic Constant Matrix: (Units=GPa)
#
#
# Indices 1 2 3 4 5 6 
#
# 1 163.6724 31.0353 62.0502 0.0000 0.0000 0.0000
# 2 31.0353 31.8285 36.2554 0.0000 0.0000 0.0000
# 3 62.0502 36.2554 102.5024 0.0000 0.0000 0.0000
# 4 0.0000 0.0000 0.0000 17.7411 0.0000 0.0000
# 5 0.0000 0.0000 0.0000 0.0000 25.4789 0.0000
# 6 0.0000 0.0000 0.0000 0.0000 0.0000 14.9110
#
#
#
# Elastic Compliance Matrix: (Units=1/GPa)
#
#
# Indices 1 2 3 4 5 6 
#
# 1 0.008213 -0.003927 -0.003582 0.000000 0.000000 0.000000
# 2 -0.003927 0.054496 -0.016898 0.000000 0.000000 0.000000
# 3 -0.003582 -0.016898 0.017901 0.000000 0.000000 0.000000
# 4 0.000000 0.000000 0.000000 0.056366 0.000000 0.000000
# 5 0.000000 0.000000 0.000000 0.000000 0.039248 0.000000
# 6 0.000000 0.000000 0.000000 0.000000 0.000000 0.067064
#
#
# Mechanical properties :
#
#
# Convention : Reuss Voigt Hill
#
# Bulk Modulus (GPa) = 31.45189 61.85393 46.65291
# Shear Modulus (GPa) = 16.51786 22.87037 19.69412
#
# Velocity S-wave (km/s) = 3.29404 3.87604 3.59683
# Velocity P-wave (km/s) = 5.92693 7.78869 6.92070
#
# Compressibility (1/GPa) = 0.03179459
#
# Stress axis : x y z
#
# Youngs Moduli (GPa) = 121.76433 18.34995 55.86142
#
# Poissons Ratio (x) = 0.07206 0.20012
# Poissons Ratio (y) = 0.47819 0.94395
# Poissons Ratio (z) = 0.43622 0.31008
#
# Static dielectric constant tensor:
#      x y z
#    x 1.465360 0.000000 0.000000 
#    y 0.000000 1.473840 0.000000 
#    z 0.000000 0.000000 1.517440 
# 
# From -- ./inp_files/48664.got.cif
#   From: 2010.05.17/outbox.cif.g08.bks.cpg/sg74_25_cif.got.tgz:48664.got - 2010.06.03 17:57:02.
