data_PCOD9540956
_publ_section_title
;
Structure prediction by ZEFSAII (Michael W. Deem and Ramdas Pophale) SiO2 
 PCOD9540956
Probable space group: I M M A
;
_chemical_formula_sum "Si O2"
_cell_formula_units_Z 48
_cell_length_a 9.000000
_cell_length_b 21.000000
_cell_length_c 27.000000
_cell_angle_alpha 90.000000
_cell_angle_beta 90.000000
_cell_angle_gamma 90.000000
_cell_volume 5103.000000
_symmetry_space_group_name_H-M "I M M A"
_symmetry_group_IT_number 74
_symmetry_cell_setting 'orthorhombic'
loop_
_space_group_symop_operation_xyz
x,y,z
-x,1/2-y,z
x,-y,-z
-x,1/2+y,-z
-x,-y,-z
x,1/2+y,-z
-x,y,z
x,1/2-y,z
1/2+x,1/2+y,1/2+z
1/2-x,-y,1/2+z
1/2+x,1/2-y,1/2-z
1/2-x,y,1/2-z
1/2-x,1/2-y,1/2-z
1/2+x,y,1/2-z
1/2-x,1/2+y,1/2+z
1/2+x,-y,1/2+z
loop_
_atom_site_type_symbol
_atom_site_label
_atom_site_fract_x
_atom_site_fract_y
_atom_site_fract_z
Si Si1 0.823365 0.935378 0.634555
Si Si2 0.679102 0.042665 0.698645
Si Si3 0.676475 0.822959 0.695987
Si Si4 0.821386 0.178701 0.953816
Si Si5 0.319715 0.320301 0.661839
Si Si6 0.323308 0.068819 0.017768
O O1 0.755065 0.874526 0.661901
O O2 0.799283 0.927253 0.576258
O O3 0.000000 0.940474 0.643941
O O4 0.741997 0.997944 0.655479
O O5 0.500000 0.039329 0.700122
O O6 0.750000 0.019554 0.750000
O O7 0.727177 0.116122 0.690081
O O8 0.500000 0.835295 0.699216
O O9 0.696999 0.750000 0.678321
O O10 0.750000 0.827295 0.750000
O O11 0.777476 0.250000 0.969823
O O12 0.778629 0.171972 0.896003
O O13 0.000000 0.174850 0.955612
O O14 0.752775 0.124894 0.987642
O O15 0.500000 0.319112 0.663852
O O16 0.267366 0.250000 0.678823
O O17 0.500000 0.071919 0.008276
O O18 0.268405 0.000000 0.000000
#
# Coordination Sequence:
#
# PCOD9540956 Si02
#       6
#    16  16  16  16  16  16
#     4  11  23  38  56  78 108 144 181 222 266 317
#     4  11  22  36  56  80 108 142 180 223 269 318
#     4  10  21  38  60  84 110 140 176 219 266 318
#     4   9  18  34  57  83 109 139 178 221 263 313
#     4   8  16  33  56  81 109 142 179 219 264 314
#     4  10  22  38  55  78 109 143 179 222 270 317
#
# _framework density 9.4062319999999993
#
# number of rings (size 3 to 8) (size 9 to 14) (size 15 to 20)
#    0.000    2.167    0.000    4.000    0.000    4.000 
#    0.000    4.167    0.000    3.500    0.000    0.000 
#    0.000    0.000    0.000    0.000    0.000    0.000 
#
# Total GULP energy -267976.295266 kJ/mol
# GULP energy per Si atom -5582.839485 kJ/mol
# Density = 0.938482 g / cm^3
# Si number density = 9.406232 Si / 1000 Ang^3
#
#
#
# Elastic Constant Matrix: (Units=GPa)
#
#
# Indices 1 2 3 4 5 6 
#
# 1 37.8049 27.9162 32.8899 0.0000 0.0000 0.0000
# 2 27.9162 101.1230 42.8264 0.0000 0.0000 0.0000
# 3 32.8899 42.8264 39.7280 0.0000 0.0000 0.0000
# 4 0.0000 0.0000 0.0000 128.4976 0.0000 0.0000
# 5 0.0000 0.0000 0.0000 0.0000 20.9547 0.0000
# 6 0.0000 0.0000 0.0000 0.0000 0.0000 47.4189
#
#
#
# Elastic Compliance Matrix: (Units=1/GPa)
#
#
# Indices 1 2 3 4 5 6 
#
# 1 0.104801 0.014377 -0.102261 0.000000 0.000000 0.000000
# 2 0.014377 0.020168 -0.033643 0.000000 0.000000 0.000000
# 3 -0.102261 -0.033643 0.146098 0.000000 0.000000 0.000000
# 4 0.000000 0.000000 0.000000 0.007782 0.000000 0.000000
# 5 0.000000 0.000000 0.000000 0.000000 0.047722 0.000000
# 6 0.000000 0.000000 0.000000 0.000000 0.000000 0.021089
#
#
# Mechanical properties :
#
#
# Convention : Reuss Voigt Hill
#
# Bulk Modulus (GPa) = 35.69806 42.88009 39.28908
# Shear Modulus (GPa) = 8.33260 44.37578 26.35419
#
# Velocity S-wave (km/s) = 2.10687 4.86207 3.74691
# Velocity P-wave (km/s) = 4.99355 7.37310 6.29675
#
# Compressibility (1/GPa) = 0.02801273
#
# Stress axis : x y z
#
# Youngs Moduli (GPa) = 9.54186 49.58254 6.84473
#
# Poissons Ratio (x) = -0.71283 0.69995
# Poissons Ratio (y) = -0.13718 0.23028
# Poissons Ratio (z) = 0.97576 1.66813
#
# Static dielectric constant tensor:
#      x y z
#    x 1.627200 0.000000 0.000000 
#    y 0.000000 1.599810 0.000000 
#    z 0.000000 0.000000 1.623100 
# 
# From -- ./inp_files/64254.got.cif
#   From: 2010.05.17/outbox.ucp.g08.bks.cvg/sg74_33_cif.got.tgz:64254.got - 2010.06.11 16:37:44.
