data_PCOD9540952
_publ_section_title
;
Structure prediction by ZEFSAII (Michael W. Deem and Ramdas Pophale) SiO2 
 PCOD9540952
Probable space group: I M M A
;
_chemical_formula_sum "Si O2"
_cell_formula_units_Z 48
_cell_length_a 9.000000
_cell_length_b 21.000000
_cell_length_c 27.000000
_cell_angle_alpha 90.000000
_cell_angle_beta 90.000000
_cell_angle_gamma 90.000000
_cell_volume 5103.000000
_symmetry_space_group_name_H-M "I M M A"
_symmetry_group_IT_number 74
_symmetry_cell_setting 'orthorhombic'
loop_
_space_group_symop_operation_xyz
x,y,z
-x,1/2-y,z
x,-y,-z
-x,1/2+y,-z
-x,-y,-z
x,1/2+y,-z
-x,y,z
x,1/2-y,z
1/2+x,1/2+y,1/2+z
1/2-x,-y,1/2+z
1/2+x,1/2-y,1/2-z
1/2-x,y,1/2-z
1/2-x,1/2-y,1/2-z
1/2+x,y,1/2-z
1/2-x,1/2+y,1/2+z
1/2+x,-y,1/2+z
loop_
_atom_site_type_symbol
_atom_site_label
_atom_site_fract_x
_atom_site_fract_y
_atom_site_fract_z
Si Si1 0.821358 0.680578 0.031785
Si Si2 0.323122 0.437242 0.357551
Si Si3 0.825956 0.822926 0.696371
Si Si4 0.178270 0.680395 0.360718
Si Si5 0.177723 0.055035 0.696997
Si Si6 0.819889 0.561276 0.972067
O O1 0.785986 0.750000 0.011003
O O2 0.751445 0.675263 0.085706
O O3 0.000000 0.676162 0.036680
O O4 0.764623 0.625058 0.997231
O O5 0.500000 0.441903 0.349646
O O6 0.261877 0.370976 0.337797
O O7 0.239704 0.494635 0.331550
O O8 0.288148 0.442009 0.414992
O O9 0.815099 0.750000 0.679192
O O10 0.750000 0.826699 0.750000
O O11 0.000000 0.839903 0.700004
O O12 0.217901 0.750000 0.339603
O O13 0.225143 0.620652 0.328712
O O14 0.000000 0.678196 0.365939
O O15 0.250000 0.053032 0.750000
O O16 0.000000 0.052877 0.699430
O O17 0.000000 0.561569 0.976815
O O18 0.761093 0.500000 0.000000
#
# Coordination Sequence:
#
# PCOD9540952 Si02
#       6
#    16  16  16  16  16  16
#     4   9  17  31  53  79 105 135 173 215 258 309
#     4  11  22  36  57  82 109 142 180 223 268 316
#     4  10  21  38  59  82 110 143 179 220 266 318
#     4   9  19  36  56  79 108 141 176 217 267 319
#     4  11  23  38  56  78 107 141 178 222 269 320
#     4   9  18  32  51  76 105 137 175 219 263 308
#
# _framework density 9.4062319999999993
#
# number of rings (size 3 to 8) (size 9 to 14) (size 15 to 20)
#    0.000    2.167    0.000    3.000    0.000    4.667 
#    0.000    3.333    0.000    6.500    0.000    0.000 
#    0.000    0.000    0.000    0.000    0.000    0.000 
#
# Total GULP energy -267699.630899 kJ/mol
# GULP energy per Si atom -5577.075644 kJ/mol
# Density = 0.938482 g / cm^3
# Si number density = 9.406232 Si / 1000 Ang^3
#
#
#
# Elastic Constant Matrix: (Units=GPa)
#
#
# Indices 1 2 3 4 5 6 
#
# 1 14.9952 33.0995 50.2077 0.0000 0.0000 0.0000
# 2 33.0995 109.2569 104.2172 0.0000 0.0000 0.0000
# 3 50.2077 104.2172 43.5588 0.0000 0.0000 0.0000
# 4 0.0000 0.0000 0.0000 42.2765 0.0000 0.0000
# 5 0.0000 0.0000 0.0000 0.0000 30.5830 0.0000
# 6 0.0000 0.0000 0.0000 0.0000 0.0000 35.3435
#
#
#
# Elastic Compliance Matrix: (Units=1/GPa)
#
#
# Indices 1 2 3 4 5 6 
#
# 1 0.089402 -0.055538 0.029830 0.000000 0.000000 0.000000
# 2 -0.055538 0.027363 -0.001452 0.000000 0.000000 0.000000
# 3 0.029830 -0.001452 -0.007952 0.000000 0.000000 0.000000
# 4 0.000000 0.000000 0.000000 0.023654 0.000000 0.000000
# 5 0.000000 0.000000 0.000000 0.000000 0.032698 0.000000
# 6 0.000000 0.000000 0.000000 0.000000 0.000000 0.028294
#
#
# Mechanical properties :
#
#
# Convention : Reuss Voigt Hill
#
# Bulk Modulus (GPa) = 18.35109 60.31774 39.33441
# Shear Modulus (GPa) = 18.80098 20.32636 19.56367
#
# Velocity S-wave (km/s) = 3.16474 3.29062 3.22829
# Velocity P-wave (km/s) = 4.80937 6.82421 5.90338
#
# Compressibility (1/GPa) = 0.05449267
#
# Stress axis : x y z
#
# Youngs Moduli (GPa) = 11.18538 36.54597 -125.75506
#
# Poissons Ratio (x) = 2.02969 3.75121
# Poissons Ratio (y) = 0.62121 -0.18256
# Poissons Ratio (z) = -0.33365 0.05305
#
# Static dielectric constant tensor:
#      x y z
#    x 1.625240 0.000000 0.000000 
#    y 0.000000 1.676910 0.000000 
#    z 0.000000 0.000000 1.647110 
# 
# From -- ./inp_files/64301.got.cif
#   From: 2010.05.17/outbox.ucp.g08.bks.cvg/sg74_33_cif.got.tgz:64301.got - 2010.06.11 16:37:44.
