data_PCOD9540885
_publ_section_title
;
Structure prediction by ZEFSAII (Michael W. Deem and Ramdas Pophale) SiO2 
 PCOD9540885
Probable space group: I M M A
;
_chemical_formula_sum "Si O2"
_cell_formula_units_Z 48
_cell_length_a 9.000000
_cell_length_b 24.000000
_cell_length_c 27.000000
_cell_angle_alpha 90.000000
_cell_angle_beta 90.000000
_cell_angle_gamma 90.000000
_cell_volume 5832.000000
_symmetry_space_group_name_H-M "I M M A"
_symmetry_group_IT_number 74
_symmetry_cell_setting 'orthorhombic'
loop_
_space_group_symop_operation_xyz
x,y,z
-x,1/2-y,z
x,-y,-z
-x,1/2+y,-z
-x,-y,-z
x,1/2+y,-z
-x,y,z
x,1/2-y,z
1/2+x,1/2+y,1/2+z
1/2-x,-y,1/2+z
1/2+x,1/2-y,1/2-z
1/2-x,y,1/2-z
1/2-x,1/2-y,1/2-z
1/2+x,y,1/2-z
1/2-x,1/2+y,1/2+z
1/2+x,-y,1/2+z
loop_
_atom_site_type_symbol
_atom_site_label
_atom_site_fract_x
_atom_site_fract_y
_atom_site_fract_z
Si Si1 0.320264 0.250000 0.887340
Si Si2 0.820800 0.468711 0.696613
Si Si3 0.319786 0.250000 0.004361
Si Si4 0.177356 0.538568 0.892114
Si Si5 0.827011 0.635956 0.145310
Si Si6 0.669101 0.567991 0.457376
Si Si7 0.323081 0.870387 0.955096
O O1 0.500000 0.250000 0.884990
O O2 0.253395 0.195001 0.861596
O O3 0.275968 0.250000 0.946096
O O4 0.750000 0.481732 0.750000
O O5 0.759981 0.512184 0.655325
O O6 0.759668 0.407798 0.679980
O O7 0.000000 0.469076 0.697936
O O8 0.500000 0.250000 0.004146
O O9 0.273572 0.192896 0.031864
O O10 0.201065 0.493679 0.936713
O O11 0.241011 0.597576 0.910431
O O12 0.000000 0.540379 0.883189
O O13 0.828085 0.606762 0.091293
O O14 0.000000 0.641858 0.160794
O O15 0.500000 0.569156 0.477865
O O16 0.782252 0.593329 0.496414
O O17 0.500000 0.870389 0.946864
#
# Coordination Sequence:
#
# PCOD9540885 Si02
#       7
#     8  16   8  16  16  16  16
#     4  11  19  33  52  74 105 148 192 229 264 311
#     4  11  22  39  61  83 105 134 170 217 274 328
#     4   9  20  33  47  72 109 148 185 225 261 301
#     4  10  21  36  52  76 107 137 172 219 268 318
#     4  10  20  34  52  77 107 142 182 226 268 315
#     4   9  18  31  47  69 103 140 173 215 265 311
#     4  11  20  32  49  73 105 143 183 220 260 311
#
# _framework density 8.2304530000000007
#
# number of rings (size 3 to 8) (size 9 to 14) (size 15 to 20)
#    0.000    1.833    1.667    4.750    0.000    5.333 
#    0.000    2.083    0.000    0.000    0.000    0.583 
#    0.000    0.000    0.000    0.000    0.000    0.000 
#
# Total GULP energy -267965.172136 kJ/mol
# GULP energy per Si atom -5582.607753 kJ/mol
# Density = 0.821172 g / cm^3
# Si number density = 8.230453 Si / 1000 Ang^3
#
#
#
# Elastic Constant Matrix: (Units=GPa)
#
#
# Indices 1 2 3 4 5 6 
#
# 1 116.4281 49.7275 46.5954 0.0000 0.0000 0.0000
# 2 49.7275 100.2847 48.8129 0.0000 0.0000 0.0000
# 3 46.5954 48.8129 78.7594 0.0000 0.0000 0.0000
# 4 0.0000 0.0000 0.0000 15.3868 0.0000 0.0000
# 5 0.0000 0.0000 0.0000 0.0000 28.2573 0.0000
# 6 0.0000 0.0000 0.0000 0.0000 0.0000 28.2543
#
#
#
# Elastic Compliance Matrix: (Units=1/GPa)
#
#
# Indices 1 2 3 4 5 6 
#
# 1 0.012099 -0.003602 -0.004925 0.000000 0.000000 0.000000
# 2 -0.003602 0.015352 -0.007384 0.000000 0.000000 0.000000
# 3 -0.004925 -0.007384 0.020187 0.000000 0.000000 0.000000
# 4 0.000000 0.000000 0.000000 0.064991 0.000000 0.000000
# 5 0.000000 0.000000 0.000000 0.000000 0.035389 0.000000
# 6 0.000000 0.000000 0.000000 0.000000 0.000000 0.035393
#
#
# Mechanical properties :
#
#
# Convention : Reuss Voigt Hill
#
# Bulk Modulus (GPa) = 63.22911 65.08263 64.15587
# Shear Modulus (GPa) = 22.67541 24.40210 23.53875
#
# Velocity S-wave (km/s) = 3.71554 3.85441 3.78561
# Velocity P-wave (km/s) = 7.54334 7.70922 7.62673
#
# Compressibility (1/GPa) = 0.01581550
#
# Stress axis : x y z
#
# Youngs Moduli (GPa) = 82.65458 65.14018 49.53692
#
# Poissons Ratio (x) = 0.23462 0.24399
# Poissons Ratio (y) = 0.29771 0.36576
# Poissons Ratio (z) = 0.40711 0.48097
#
# Static dielectric constant tensor:
#      x y z
#    x 1.555330 0.000000 0.000000 
#    y 0.000000 1.559960 0.000000 
#    z 0.000000 0.000000 1.552400 
# 
# From -- ./inp_files/64719.got.cif
#   From: 2010.05.17/outbox.ucp.g08.bks.cvg/sg74_33_cif.got.tgz:64719.got - 2010.06.11 16:37:44.
