data_PCOD9540212
_publ_section_title
;
Structure prediction by ZEFSAII (Michael W. Deem and Ramdas Pophale) SiO2 
 PCOD9540212
Probable space group: I M M A
;
_chemical_formula_sum "Si O2"
_cell_formula_units_Z 64
_cell_length_a 10.335415
_cell_length_b 19.127840
_cell_length_c 19.588932
_cell_angle_alpha 90.000000
_cell_angle_beta 90.000000
_cell_angle_gamma 90.000000
_cell_volume 3872.617544
_symmetry_space_group_name_H-M "I M M A"
_symmetry_group_IT_number 74
_symmetry_cell_setting 'orthorhombic'
loop_
_space_group_symop_operation_xyz
x,y,z
-x,1/2-y,z
x,-y,-z
-x,1/2+y,-z
-x,-y,-z
x,1/2+y,-z
-x,y,z
x,1/2-y,z
1/2+x,1/2+y,1/2+z
1/2-x,-y,1/2+z
1/2+x,1/2-y,1/2-z
1/2-x,y,1/2-z
1/2-x,1/2-y,1/2-z
1/2+x,y,1/2-z
1/2-x,1/2+y,1/2+z
1/2+x,-y,1/2+z
loop_
_atom_site_type_symbol
_atom_site_label
_atom_site_fract_x
_atom_site_fract_y
_atom_site_fract_z
Si Si1 0.344870 0.900179 0.957908
Si Si2 0.000000 0.250000 0.932782
Si Si3 0.000000 0.605839 0.150804
Si Si4 0.000000 0.606992 0.312762
Si Si5 0.771487 0.250000 0.490081
Si Si6 0.500000 0.250000 0.898071
Si Si7 0.769254 0.460258 0.606744
O O1 0.500000 0.904313 0.952393
O O2 0.282788 0.957430 0.908095
O O3 0.298121 0.821061 0.949045
O O4 0.307158 0.923144 0.034983
O O5 0.000000 0.319281 0.886505
O O6 0.128702 0.250000 0.978594
O O7 0.127718 0.564140 0.128186
O O8 0.000000 0.615951 0.231975
O O9 0.873929 0.565356 0.338392
O O10 0.000000 0.681323 0.351490
O O11 0.875345 0.250000 0.552445
#
# Coordination Sequence:
#
# PCOD9540212 Si02
#       7
#    16   4   8   8   8   4  16
#     4  11  19  36  62  80 108 141 190 239 281 330
#     4  12  23  38  44  84 124 152 181 220 268 342
#     4  12  25  36  53  80 120 156 190 219 275 330
#     4  12  21  38  55  78 112 160 192 223 261 326
#     4  12  20  34  59  84 113 147 180 229 290 331
#     4  12  19  34  56  80 108 152 203 212 252 338
#     4  11  21  36  56  81 107 148 190 234 274 321
#
# _framework density 16.526289999999999
#
# number of rings (size 3 to 8) (size 9 to 14) (size 15 to 20)
#    0.000    0.500    8.750    1.875    0.000    3.000 
#    0.000    3.750    0.000    0.000    0.000    5.250 
#    0.000    0.000    0.000    0.000    0.000    0.000 
#
# Total GULP energy -178842.321254 kJ/mol
# GULP energy per Si atom -5588.822539 kJ/mol
# Density = 1.648868 g / cm^3
# Si number density = 16.526290 Si / 1000 Ang^3
#
#
#
# Elastic Constant Matrix: (Units=GPa)
#
#
# Indices 1 2 3 4 5 6 
#
# 1 168.3863 64.9910 39.3057 0.0000 0.0000 0.0000
# 2 64.9910 175.8055 40.5710 0.0000 0.0000 0.0000
# 3 39.3057 40.5710 37.9690 0.0000 0.0000 0.0000
# 4 0.0000 0.0000 0.0000 9.1647 0.0000 0.0000
# 5 0.0000 0.0000 0.0000 0.0000 -35.9451 0.0000
# 6 0.0000 0.0000 0.0000 0.0000 0.0000 23.3428
#
#
#
# Elastic Compliance Matrix: (Units=1/GPa)
#
#
# Indices 1 2 3 4 5 6 
#
# 1 0.008084 -0.001403 -0.006869 0.000000 0.000000 0.000000
# 2 -0.001403 0.007793 -0.006875 0.000000 0.000000 0.000000
# 3 -0.006869 -0.006875 0.040794 0.000000 0.000000 0.000000
# 4 0.000000 0.000000 0.000000 0.109114 0.000000 0.000000
# 5 0.000000 0.000000 0.000000 0.000000 -0.027820 0.000000
# 6 0.000000 0.000000 0.000000 0.000000 0.000000 0.042840
#
#
# Mechanical properties :
#
#
# Convention : Reuss Voigt Hill
#
# Bulk Modulus (GPa) = 37.91169 74.65511 56.28340
# Shear Modulus (GPa) = 22.73855 15.13203 18.93529
#
# Velocity S-wave (km/s) = 3.71334 3.02923 3.38859
# Velocity P-wave (km/s) = 6.43236 7.58331 7.03142
#
# Compressibility (1/GPa) = 0.02637709
#
# Stress axis : x y z
#
# Youngs Moduli (GPa) = 123.70595 128.31468 24.51349
#
# Poissons Ratio (x) = 0.18005 0.16838
# Poissons Ratio (y) = 0.17358 0.16853
# Poissons Ratio (z) = 0.84972 0.88214
#
# Static dielectric constant tensor:
#      x y z
#    x 1.542310 0.000000 0.000000 
#    y 0.000000 1.575000 0.000000 
#    z 0.000000 0.000000 1.517460 
# 
# From -- ./inp_files/39407.got.cif
#   From: 2010.05.17/outbox.cif.g08.bks.cpg/sg74_20_cif.got.tgz:39407.got - 2010.06.03 17:57:02.
