data_PCOD9540975
_publ_section_title
;
Structure prediction by ZEFSAII (Michael W. Deem and Ramdas Pophale) SiO2 
 PCOD9540975
Probable space group: I M M A
;
_chemical_formula_sum "Si O2"
_cell_formula_units_Z 56
_cell_length_a 15.000000
_cell_length_b 24.000000
_cell_length_c 15.000000
_cell_angle_alpha 90.000000
_cell_angle_beta 90.000000
_cell_angle_gamma 90.000000
_cell_volume 5400.000000
_symmetry_space_group_name_H-M "I M M A"
_symmetry_group_IT_number 74
_symmetry_cell_setting 'orthorhombic'
loop_
_space_group_symop_operation_xyz
x,y,z
-x,1/2-y,z
x,-y,-z
-x,1/2+y,-z
-x,-y,-z
x,1/2+y,-z
-x,y,z
x,1/2-y,z
1/2+x,1/2+y,1/2+z
1/2-x,-y,1/2+z
1/2+x,1/2-y,1/2-z
1/2-x,y,1/2-z
1/2-x,1/2-y,1/2-z
1/2+x,y,1/2-z
1/2-x,1/2+y,1/2+z
1/2+x,-y,1/2+z
loop_
_atom_site_type_symbol
_atom_site_label
_atom_site_fract_x
_atom_site_fract_y
_atom_site_fract_z
Si Si1 0.395434 0.421252 0.567538
Si Si2 0.106935 0.117450 0.667450
Si Si3 0.846518 0.508170 0.230787
Si Si4 0.605585 0.184807 0.005551
Si Si5 0.097486 0.907789 0.870919
Si Si6 0.260625 0.311312 0.355848
Si Si7 0.891618 0.687500 0.160149
O O1 0.500000 0.427432 0.593973
O O2 0.342864 0.455616 0.640422
O O3 0.387962 0.438204 0.465756
O O4 0.371219 0.356219 0.581742
O O5 0.127909 0.053596 0.694276
O O6 0.136218 0.143155 0.573300
O O7 0.138165 0.157419 0.748336
O O8 0.000000 0.121493 0.666719
O O9 0.750000 0.485087 0.250000
O O10 0.902239 0.453675 0.206732
O O11 0.500000 0.175183 0.024239
O O12 0.612723 0.250000 0.976134
O O13 0.668482 0.177930 0.091364
O O14 0.171331 0.861142 0.868079
O O15 0.000000 0.881213 0.875576
O O16 0.292908 0.250000 0.387142
O O17 0.250000 0.307990 0.250000
O O18 0.856745 0.750000 0.149888
O O19 0.000000 0.690927 0.164129
#
# Coordination Sequence:
#
# PCOD9540975 Si02
#       7
#    16  16  16  16  16  16  16
#     4   9  19  35  55  80 113 155 202 249 300 361
#     4   9  17  31  54  84 120 158 199 243 295 364
#     4  11  22  35  56  84 118 159 201 253 304 363
#     4   9  18  35  63  95 127 165 201 241 301 372
#     4  11  23  40  63  85 115 159 209 261 311 363
#     4  10  23  42  63  90 123 156 200 256 310 372
#     4   8  13  24  46  77 113 149 187 234 289 355
#
# _framework density 10.370369999999999
#
# number of rings (size 3 to 8) (size 9 to 14) (size 15 to 20)
#    0.000    2.429    0.000    3.429    2.000    4.286 
#    0.000    2.857    0.000    2.143    0.000    5.000 
#    0.000    0.000    0.000    0.000    0.000    0.000 
#
# Total GULP energy -312213.981464 kJ/mol
# GULP energy per Si atom -5575.249669 kJ/mol
# Density = 1.034677 g / cm^3
# Si number density = 10.370370 Si / 1000 Ang^3
#
#
#
# Elastic Constant Matrix: (Units=GPa)
#
#
# Indices 1 2 3 4 5 6 
#
# 1 74.8873 45.6694 39.8277 0.0000 0.0000 0.0001
# 2 45.6694 90.9359 35.1669 -0.0001 0.0000 0.0004
# 3 39.8277 35.1669 93.2774 -0.0001 0.0000 0.0002
# 4 0.0000 -0.0001 -0.0001 22.0677 0.0000 0.0004
# 5 0.0000 0.0000 0.0000 0.0000 20.6738 -0.0001
# 6 0.0001 0.0004 0.0002 0.0004 -0.0001 -23.8276
#
#
#
# Elastic Compliance Matrix: (Units=1/GPa)
#
#
# Indices 1 2 3 4 5 6 
#
# 1 0.021841 -0.008619 -0.006076 0.000000 0.000000 0.000000
# 2 -0.008619 0.016275 -0.002456 0.000000 0.000000 0.000000
# 3 -0.006076 -0.002456 0.014241 0.000000 0.000000 0.000000
# 4 0.000000 0.000000 0.000000 0.045315 0.000000 0.000001
# 5 0.000000 0.000000 0.000000 0.000000 0.048370 0.000000
# 6 0.000000 0.000000 0.000000 0.000001 0.000000 -0.041968
#
#
# Mechanical properties :
#
#
# Convention : Reuss Voigt Hill
#
# Bulk Modulus (GPa) = 55.38614 55.60319 55.49466
# Shear Modulus (GPa) = 34.62708 13.01188 23.81948
#
# Velocity S-wave (km/s) = 4.09041 2.50743 3.39254
# Velocity P-wave (km/s) = 7.00504 5.93716 6.49309
#
# Compressibility (1/GPa) = 0.01805506
#
# Stress axis : x y z
#
# Youngs Moduli (GPa) = 45.78476 61.44337 70.21977
#
# Poissons Ratio (x) = 0.52959 0.42667
# Poissons Ratio (y) = 0.39463 0.17244
# Poissons Ratio (z) = 0.27820 0.15089
#
# Static dielectric constant tensor:
#      x y z
#    x 1.755360 0.000000 0.000000 
#    y 0.000000 1.780330 0.000000 
#    z 0.000000 0.000000 1.748600 
# 
# From -- ./inp_files/32687.got.cif
#   From: 2010.05.17/outbox.ucp.g08.bks.cvg/sg74_17_cif.got.tgz:32687.got - 2010.06.11 16:37:44.
