data_PCOD9540871
_publ_section_title
;
Structure prediction by ZEFSAII (Michael W. Deem and Ramdas Pophale) SiO2 
 PCOD9540871
Probable space group: I M M A
;
_chemical_formula_sum "Si O2"
_cell_formula_units_Z 52
_cell_length_a 21.000000
_cell_length_b 9.000000
_cell_length_c 27.000000
_cell_angle_alpha 90.000000
_cell_angle_beta 90.000000
_cell_angle_gamma 90.000000
_cell_volume 5103.000000
_symmetry_space_group_name_H-M "I M M A"
_symmetry_group_IT_number 74
_symmetry_cell_setting 'orthorhombic'
loop_
_space_group_symop_operation_xyz
x,y,z
-x,1/2-y,z
x,-y,-z
-x,1/2+y,-z
-x,-y,-z
x,1/2+y,-z
-x,y,z
x,1/2-y,z
1/2+x,1/2+y,1/2+z
1/2-x,-y,1/2+z
1/2+x,1/2-y,1/2-z
1/2-x,y,1/2-z
1/2-x,1/2-y,1/2-z
1/2+x,y,1/2-z
1/2-x,1/2+y,1/2+z
1/2+x,-y,1/2+z
loop_
_atom_site_type_symbol
_atom_site_label
_atom_site_fract_x
_atom_site_fract_y
_atom_site_fract_z
Si Si1 0.840723 0.924927 0.374187
Si Si2 0.929654 0.425890 0.705747
Si Si3 0.500000 0.417232 0.550964
Si Si4 0.748988 0.076551 0.448844
Si Si5 0.427165 0.913907 0.696384
Si Si6 0.113036 0.581902 0.906734
Si Si7 0.424531 0.078925 0.050486
O O1 0.827208 0.750000 0.373860
O O2 0.866403 0.980883 0.321661
O O3 0.785039 0.009572 0.401899
O O4 0.901418 0.967550 0.407578
O O5 0.931829 0.250000 0.696460
O O6 0.922332 0.460930 0.763118
O O7 0.000000 0.487820 0.691180
O O8 0.500000 0.250000 0.538329
O O9 0.500000 0.500000 0.500000
O O10 0.438293 0.461533 0.580643
O O11 0.761234 0.250000 0.452772
O O12 0.674864 0.056240 0.438545
O O13 0.766691 0.000000 0.500000
O O14 0.500000 0.917863 0.676073
O O15 0.420578 0.750000 0.719963
O O16 0.377679 0.925680 0.652070
O O17 0.089098 0.750000 0.916657
O O18 0.500000 0.086372 0.050557
O O19 0.401593 0.250000 0.055592
O O20 0.404205 0.000000 0.000000
#
# Coordination Sequence:
#
# PCOD9540871 Si02
#       7
#    16  16   8  16  16  16  16
#     4  11  22  37  56  77 109 151 192 238 286 337
#     4   9  19  35  56  84 116 148 188 237 287 339
#     4  12  24  36  58  90 122 154 188 234 287 344
#     4  11  24  41  61  82 111 152 195 240 286 343
#     4   9  17  33  59  87 116 148 183 230 286 341
#     4  10  21  40  62  86 118 152 190 236 287 342
#     4  10  20  33  51  76 105 137 179 232 286 345
#
# _framework density 10.190084000000001
#
# number of rings (size 3 to 8) (size 9 to 14) (size 15 to 20)
#    0.000    1.846    0.769    3.462    0.000    5.846 
#    0.000    2.308    0.000    4.615    0.000    0.000 
#    0.000    0.000    0.000    0.000    0.000    0.000 
#
# Total GULP energy -289501.994779 kJ/mol
# GULP energy per Si atom -5567.346053 kJ/mol
# Density = 1.016689 g / cm^3
# Si number density = 10.190084 Si / 1000 Ang^3
#
#
#
# Elastic Constant Matrix: (Units=GPa)
#
#
# Indices 1 2 3 4 5 6 
#
# 1 41.1097 47.1881 7.3215 0.0000 0.0000 0.0000
# 2 47.1881 48.0446 8.4958 0.0000 0.0000 0.0000
# 3 7.3215 8.4958 19.2108 0.0000 0.0000 0.0000
# 4 0.0000 0.0000 0.0000 22.0994 0.0000 0.0000
# 5 0.0000 0.0000 0.0000 0.0000 31.0704 0.0000
# 6 0.0000 0.0000 0.0000 0.0000 0.0000 17.9675
#
#
#
# Elastic Compliance Matrix: (Units=1/GPa)
#
#
# Indices 1 2 3 4 5 6 
#
# 1 -0.188814 0.187377 -0.010906 0.000000 0.000000 0.000000
# 2 0.187377 -0.163370 0.000838 0.000000 0.000000 0.000000
# 3 -0.010906 0.000838 0.055840 0.000000 0.000000 0.000000
# 4 0.000000 0.000000 0.000000 0.045250 0.000000 0.000000
# 5 0.000000 0.000000 0.000000 0.000000 0.032185 0.000000
# 6 0.000000 0.000000 0.000000 0.000000 0.000000 0.055656
#
#
# Mechanical properties :
#
#
# Convention : Reuss Voigt Hill
#
# Bulk Modulus (GPa) = 17.16107 26.04177 21.60142
# Shear Modulus (GPa) = -10.03120 17.25145 3.61012
#
# Velocity S-wave (km/s) = -2.22097 2.91259 1.33238
# Velocity P-wave (km/s) = 1.36447 4.91087 3.60406
#
# Compressibility (1/GPa) = 0.05827144
#
# Stress axis : x y z
#
# Youngs Moduli (GPa) = -5.29622 -6.12107 17.90828
#
# Poissons Ratio (x) = 1.14694 0.19531
# Poissons Ratio (y) = 0.99239 -0.01500
# Poissons Ratio (z) = -0.05776 0.00513
#
# Static dielectric constant tensor:
#      x y z
#    x 1.757410 0.000000 0.000000 
#    y 0.000000 1.692070 0.000000 
#    z 0.000000 0.000000 1.783420 
# 
# From -- ./inp_files/68282.got.cif
#   From: 2010.05.17/outbox.ucp.g08.bks.cvg/sg74_35_cif.got.tgz:68282.got - 2010.06.11 16:37:44.
