data_PCOD9540752
_publ_section_title
;
Structure prediction by ZEFSAII (Michael W. Deem and Ramdas Pophale) SiO2 
 PCOD9540752
Probable space group: I M M A
;
_chemical_formula_sum "Si O2"
_cell_formula_units_Z 64
_cell_length_a 15.169048
_cell_length_b 7.287952
_cell_length_c 31.761473
_cell_angle_alpha 90.000000
_cell_angle_beta 90.000000
_cell_angle_gamma 90.000000
_cell_volume 3511.271930
_symmetry_space_group_name_H-M "I M M A"
_symmetry_group_IT_number 74
_symmetry_cell_setting 'orthorhombic'
loop_
_space_group_symop_operation_xyz
x,y,z
-x,1/2-y,z
x,-y,-z
-x,1/2+y,-z
-x,-y,-z
x,1/2+y,-z
-x,y,z
x,1/2-y,z
1/2+x,1/2+y,1/2+z
1/2-x,-y,1/2+z
1/2+x,1/2-y,1/2-z
1/2-x,y,1/2-z
1/2-x,1/2-y,1/2-z
1/2+x,y,1/2-z
1/2-x,1/2+y,1/2+z
1/2+x,-y,1/2+z
loop_
_atom_site_type_symbol
_atom_site_label
_atom_site_fract_x
_atom_site_fract_y
_atom_site_fract_z
Si Si1 0.180803 0.973132 0.132195
Si Si2 0.399052 0.531430 0.451695
Si Si3 0.696156 0.526080 0.207584
Si Si4 0.000000 0.026698 0.726940
Si Si5 0.500000 0.972394 0.323594
O O1 0.186420 0.750000 0.132138
O O2 0.169323 0.033937 0.083815
O O3 0.255802 0.033888 0.164694
O O4 0.088272 0.027761 0.153160
O O5 0.373295 0.500000 0.500000
O O6 0.500000 0.460955 0.445993
O O7 0.405161 0.750000 0.445952
O O8 0.697580 0.750000 0.208508
O O9 0.750000 0.470461 0.250000
O O10 0.594073 0.468554 0.208511
O O11 0.000000 0.969682 0.775563
O O12 0.000000 0.250000 0.725719
O O13 0.500000 0.750000 0.323707
#
# Coordination Sequence:
#
# PCOD9540752 Si02
#       5
#    16  16  16   8   8
#     4   9  14  20  30  45  65  93 121 142 172 215
#     4   9  16  25  37  53  73  96 122 152 184 219
#     4   9  14  18  26  41  63  92 121 144 170 210
#     4   9  14  18  24  39  64  93 121 145 169 206
#     4   9  12  16  27  41  62  91 119 139 163 208
#
# _framework density 18.227014
#
# number of rings (size 3 to 8) (size 9 to 14) (size 15 to 20)
#    0.000    3.000    3.750    0.000    0.000    0.000 
#    0.000    0.000    0.000    0.000    0.000    0.875 
#    0.000    1.000    0.000    0.500    0.000    0.000 
#
# Total GULP energy -178362.481672 kJ/mol
# GULP energy per Si atom -5573.827552 kJ/mol
# Density = 1.818553 g / cm^3
# Si number density = 18.227014 Si / 1000 Ang^3
#
#
#
# Elastic Constant Matrix: (Units=GPa)
#
#
# Indices 1 2 3 4 5 6 
#
# 1 140.2159 2.1270 93.9594 0.0000 0.0000 0.0000
# 2 2.1270 75.2804 2.1491 0.0000 0.0000 0.0000
# 3 93.9594 2.1491 182.0425 0.0000 0.0000 0.0000
# 4 0.0000 0.0000 0.0000 1.2507 0.0000 0.0000
# 5 0.0000 0.0000 0.0000 0.0000 21.2205 0.0000
# 6 0.0000 0.0000 0.0000 0.0000 0.0000 -20.6367
#
#
#
# Elastic Compliance Matrix: (Units=1/GPa)
#
#
# Indices 1 2 3 4 5 6 
#
# 1 0.010904 -0.000147 -0.005626 0.000000 0.000000 0.000000
# 2 -0.000147 0.013290 -0.000081 0.000000 0.000000 0.000000
# 3 -0.005626 -0.000081 0.008398 0.000000 0.000000 0.000000
# 4 0.000000 0.000000 0.000000 0.799551 0.000000 0.000000
# 5 0.000000 0.000000 0.000000 0.000000 0.047124 0.000000
# 6 0.000000 0.000000 0.000000 0.000000 0.000000 -0.048457
#
#
# Mechanical properties :
#
#
# Convention : Reuss Voigt Hill
#
# Bulk Modulus (GPa) = 47.88507 66.00109 56.94308
# Shear Modulus (GPa) = 5.88595 20.32046 13.10320
#
# Velocity S-wave (km/s) = 1.79896 3.34257 2.68412
# Velocity P-wave (km/s) = 5.53566 7.15445 6.39647
#
# Compressibility (1/GPa) = 0.02088334
#
# Stress axis : x y z
#
# Youngs Moduli (GPa) = 91.70594 75.24378 119.07285
#
# Poissons Ratio (x) = 0.01110 0.66996
# Poissons Ratio (y) = 0.01352 0.00962
# Poissons Ratio (z) = 0.51598 0.00608
#
# Static dielectric constant tensor:
#      x y z
#    x 1.606170 0.000000 0.000000 
#    y 0.000000 1.780360 0.000000 
#    z 0.000000 0.000000 1.642820 
# 
# From -- ./inp_files/63528.got.cif
#   From: 2010.05.17/outbox.cif.g08.bks.cpg/sg74_32_cif.got.tgz:63528.got - 2010.06.03 17:57:02.
