data_PCOD9540685
_publ_section_title
;
Structure prediction by ZEFSAII (Michael W. Deem and Ramdas Pophale) SiO2 
 PCOD9540685
Probable space group: I M M A
;
_chemical_formula_sum "Si O2"
_cell_formula_units_Z 88
_cell_length_a 7.251052
_cell_length_b 20.956595
_cell_length_c 31.539457
_cell_angle_alpha 90.000000
_cell_angle_beta 90.000000
_cell_angle_gamma 90.000000
_cell_volume 4792.652624
_symmetry_space_group_name_H-M "I M M A"
_symmetry_group_IT_number 74
_symmetry_cell_setting 'orthorhombic'
loop_
_space_group_symop_operation_xyz
x,y,z
-x,1/2-y,z
x,-y,-z
-x,1/2+y,-z
-x,-y,-z
x,1/2+y,-z
-x,y,z
x,1/2-y,z
1/2+x,1/2+y,1/2+z
1/2-x,-y,1/2+z
1/2+x,1/2-y,1/2-z
1/2-x,y,1/2-z
1/2-x,1/2-y,1/2-z
1/2+x,y,1/2-z
1/2-x,1/2+y,1/2+z
1/2+x,-y,1/2+z
loop_
_atom_site_type_symbol
_atom_site_label
_atom_site_fract_x
_atom_site_fract_y
_atom_site_fract_z
Si Si1 0.724263 0.952094 0.381255
Si Si2 0.223651 0.180534 0.020563
Si Si3 0.774909 0.960087 0.957793
Si Si4 0.780866 0.750000 0.199212
Si Si5 0.219814 0.891390 0.200207
Si Si6 0.776600 0.181274 0.921240
O O1 0.500000 0.955657 0.382081
O O2 0.782620 0.946290 0.332191
O O3 0.782247 0.883672 0.399962
O O4 0.785458 0.005344 0.414584
O O5 0.283925 0.250000 0.037565
O O6 0.284789 0.113587 0.040069
O O7 0.000000 0.180405 0.022480
O O8 0.272266 0.178855 0.970791
O O9 0.000000 0.960495 0.958590
O O10 0.719717 0.000000 0.000000
O O11 0.750000 0.750000 0.250000
O O12 0.709908 0.679565 0.187192
O O13 0.000000 0.750000 0.189475
O O14 0.250000 0.902538 0.250000
O O15 0.000000 0.887123 0.195144
O O16 0.715990 0.250000 0.903581
O O17 0.000000 0.181198 0.918885
#
# Coordination Sequence:
#
# PCOD9540685 Si02
#       6
#    16  16  16   8  16  16
#     4   9  15  20  29  44  61  86 114 141 171 203
#     4   8  12  17  24  35  55  85 114 135 160 199
#     4   9  13  18  26  39  61  86 110 137 168 202
#     4   8  14  24  36  48  64  88 116 148 182 208
#     4   9  17  27  37  50  68  90 118 150 181 210
#     4   8  12  16  23  37  57  82 112 138 160 193
#
# _framework density 18.361439000000001
#
# number of rings (size 3 to 8) (size 9 to 14) (size 15 to 20)
#    0.000    3.455    1.818    1.091    1.273    0.000 
#    0.000    0.000    0.000    0.000    0.000    0.000 
#    0.000    1.455    0.000    0.545    0.000    4.000 
#
# Total GULP energy -245151.049088 kJ/mol
# GULP energy per Si atom -5571.614752 kJ/mol
# Density = 1.831965 g / cm^3
# Si number density = 18.361439 Si / 1000 Ang^3
#
#
#
# Elastic Constant Matrix: (Units=GPa)
#
#
# Indices 1 2 3 4 5 6 
#
# 1 81.6058 1.5314 0.8929 0.0000 0.0000 0.0000
# 2 1.5314 151.5576 81.9273 0.0000 0.0000 0.0000
# 3 0.8929 81.9273 114.5007 0.0000 0.0000 0.0000
# 4 0.0000 0.0000 0.0000 31.8072 0.0000 0.0000
# 5 0.0000 0.0000 0.0000 0.0000 -8.5945 0.0000
# 6 0.0000 0.0000 0.0000 0.0000 0.0000 22.0272
#
#
#
# Elastic Compliance Matrix: (Units=1/GPa)
#
#
# Indices 1 2 3 4 5 6 
#
# 1 0.012256 -0.000118 -0.000011 0.000000 0.000000 0.000000
# 2 -0.000118 0.010761 -0.007699 0.000000 0.000000 0.000000
# 3 -0.000011 -0.007699 0.014242 0.000000 0.000000 0.000000
# 4 0.000000 0.000000 0.000000 0.031439 0.000000 0.000000
# 5 0.000000 0.000000 0.000000 0.000000 -0.116353 0.000000
# 6 0.000000 0.000000 0.000000 0.000000 0.000000 0.045398
#
#
# Mechanical properties :
#
#
# Convention : Reuss Voigt Hill
#
# Bulk Modulus (GPa) = 46.28780 57.37416 51.83098
# Shear Modulus (GPa) = 242.70293 26.60215 134.65254
#
# Velocity S-wave (km/s) = 11.50946 3.81045 8.57284
# Velocity P-wave (km/s) = 14.20872 7.11859 11.23748
#
# Compressibility (1/GPa) = 0.02160397
#
# Stress axis : x y z
#
# Youngs Moduli (GPa) = 81.59029 92.92731 70.21326
#
# Poissons Ratio (x) = 0.01094 0.00080
# Poissons Ratio (y) = 0.00960 0.54056
# Poissons Ratio (z) = 0.00093 0.71543
#
# Static dielectric constant tensor:
#      x y z
#    x 1.583810 0.000000 0.000000 
#    y 0.000000 1.641620 0.000000 
#    z 0.000000 0.000000 1.652460 
# 
# From -- ./inp_files/70445.got.cif
#   From: 2010.05.17/outbox.cif.g08.bks.cpg/sg74_36_cif.got.tgz:70445.got - 2010.06.03 17:57:02.
