data_PCOD9540255
_publ_section_title
;
Structure prediction by ZEFSAII (Michael W. Deem and Ramdas Pophale) SiO2 
 PCOD9540255
Probable space group: I M M A
;
_chemical_formula_sum "Si O2"
_cell_formula_units_Z 84
_cell_length_a 25.082537
_cell_length_b 13.915990
_cell_length_c 13.459284
_cell_angle_alpha 90.000000
_cell_angle_beta 90.000000
_cell_angle_gamma 90.000000
_cell_volume 4697.940658
_symmetry_space_group_name_H-M "I M M A"
_symmetry_group_IT_number 74
_symmetry_cell_setting 'orthorhombic'
loop_
_space_group_symop_operation_xyz
x,y,z
-x,1/2-y,z
x,-y,-z
-x,1/2+y,-z
-x,-y,-z
x,1/2+y,-z
-x,y,z
x,1/2-y,z
1/2+x,1/2+y,1/2+z
1/2-x,-y,1/2+z
1/2+x,1/2-y,1/2-z
1/2-x,y,1/2-z
1/2-x,1/2-y,1/2-z
1/2+x,y,1/2-z
1/2-x,1/2+y,1/2+z
1/2+x,-y,1/2+z
loop_
_atom_site_type_symbol
_atom_site_label
_atom_site_fract_x
_atom_site_fract_y
_atom_site_fract_z
Si Si1 0.670819 0.460716 0.611965
Si Si2 0.500000 0.040940 0.112207
Si Si3 0.216199 0.541468 0.611843
Si Si4 0.500000 0.250000 0.033243
Si Si5 0.391949 0.956659 0.204950
Si Si6 0.397736 0.250000 0.893833
Si Si7 0.782767 0.750000 0.144425
Si Si8 0.798228 0.250000 0.460499
O O1 0.663390 0.500000 0.500000
O O2 0.725130 0.512790 0.650977
O O3 0.619043 0.476885 0.679427
O O4 0.684204 0.347851 0.628477
O O5 0.500000 0.155241 0.100034
O O6 0.445861 0.004688 0.164500
O O7 0.500000 0.000000 0.000000
O O8 0.217537 0.500000 0.500000
O O9 0.162816 0.496484 0.656907
O O10 0.209566 0.655222 0.604146
O O11 0.450934 0.250000 0.957821
O O12 0.393915 0.844872 0.173490
O O13 0.353360 0.250000 0.979874
O O14 0.750000 0.750000 0.250000
O O15 0.742609 0.750000 0.052090
#
# Coordination Sequence:
#
# PCOD9540255 Si02
#       8
#    16   8  16   4  16   8   8   8
#     4  11  23  39  59  87 125 164 210 257 305 363
#     4  12  24  44  63  92 129 153 198 253 319 377
#     4  11  20  35  55  86 126 159 196 249 314 370
#     4  12  24  40  64  94 124 156 188 248 310 372
#     4  12  23  39  61  91 119 166 202 254 310 367
#     4  12  20  34  62  91 118 150 206 255 302 359
#     4  12  20  36  60  90 121 163 215 260 302 361
#     4  12  20  32  55  88 122 159 200 247 306 367
#
# _framework density 17.880175000000001
#
# number of rings (size 3 to 8) (size 9 to 14) (size 15 to 20)
#    0.000    0.381    7.619    5.143    0.000    0.000 
#    0.000    5.238    0.000    0.000    0.000    0.000 
#    0.000    0.000    0.000    0.000    0.000    0.000 
#
# Total GULP energy -234445.498204 kJ/mol
# GULP energy per Si atom -5582.035672 kJ/mol
# Density = 1.783948 g / cm^3
# Si number density = 17.880175 Si / 1000 Ang^3
#
#
#
# Elastic Constant Matrix: (Units=GPa)
#
#
# Indices 1 2 3 4 5 6 
#
# 1 135.0512 45.2713 67.2158 0.0000 0.0000 0.0000
# 2 45.2713 167.2741 52.0239 0.0000 0.0000 0.0000
# 3 67.2158 52.0239 104.0809 0.0000 0.0000 0.0000
# 4 0.0000 0.0000 0.0000 -25.6992 0.0000 0.0000
# 5 0.0000 0.0000 0.0000 0.0000 -18.7432 0.0000
# 6 0.0000 0.0000 0.0000 0.0000 0.0000 1.8403
#
#
#
# Elastic Compliance Matrix: (Units=1/GPa)
#
#
# Indices 1 2 3 4 5 6 
#
# 1 0.011028 -0.000911 -0.006666 0.000000 0.000000 0.000000
# 2 -0.000911 0.007154 -0.002987 0.000000 0.000000 0.000000
# 3 -0.006666 -0.002987 0.015406 0.000000 0.000000 0.000000
# 4 0.000000 0.000000 0.000000 -0.038912 0.000000 0.000000
# 5 0.000000 0.000000 0.000000 0.000000 -0.053353 0.000000
# 6 0.000000 0.000000 0.000000 0.000000 0.000000 0.543383
#
#
# Mechanical properties :
#
#
# Convention : Reuss Voigt Hill
#
# Bulk Modulus (GPa) = 80.26865 81.71424 80.99145
# Shear Modulus (GPa) = 9.80411 7.60592 8.70502
#
# Velocity S-wave (km/s) = 2.34417 2.06472 2.20887
# Velocity P-wave (km/s) = 7.23304 7.17526 7.20421
#
# Compressibility (1/GPa) = 0.01245816
#
# Stress axis : x y z
#
# Youngs Moduli (GPa) = 90.67830 139.78329 64.90861
#
# Poissons Ratio (x) = 0.12739 0.43271
# Poissons Ratio (y) = 0.08264 0.19390
# Poissons Ratio (z) = 0.60450 0.41758
#
# Static dielectric constant tensor:
#      x y z
#    x 1.478650 0.000000 0.000000 
#    y 0.000000 1.581570 0.000000 
#    z 0.000000 0.000000 1.606150 
# 
# From -- ./inp_files/25061.got.cif
#   From: 2010.05.17/outbox.cif.g08.bks.cpg/sg74_13_cif.got.tgz:25061.got - 2010.06.03 17:57:02.
