data_PCOD9540388
_publ_section_title
;
Structure prediction by ZEFSAII (Michael W. Deem and Ramdas Pophale) SiO2 
 PCOD9540388
Probable space group: I M M A
;
_chemical_formula_sum "Si O2"
_cell_formula_units_Z 80
_cell_length_a 16.836364
_cell_length_b 30.413752
_cell_length_c 8.509572
_cell_angle_alpha 90.000000
_cell_angle_beta 90.000000
_cell_angle_gamma 90.000000
_cell_volume 4357.385903
_symmetry_space_group_name_H-M "I M M A"
_symmetry_group_IT_number 74
_symmetry_cell_setting 'orthorhombic'
loop_
_space_group_symop_operation_xyz
x,y,z
-x,1/2-y,z
x,-y,-z
-x,1/2+y,-z
-x,-y,-z
x,1/2+y,-z
-x,y,z
x,1/2-y,z
1/2+x,1/2+y,1/2+z
1/2-x,-y,1/2+z
1/2+x,1/2-y,1/2-z
1/2-x,y,1/2-z
1/2-x,1/2-y,1/2-z
1/2+x,y,1/2-z
1/2-x,1/2+y,1/2+z
1/2+x,-y,1/2+z
loop_
_atom_site_type_symbol
_atom_site_label
_atom_site_fract_x
_atom_site_fract_y
_atom_site_fract_z
Si Si1 0.590574 0.750000 0.643345
Si Si2 0.748376 0.750000 0.438726
Si Si3 0.141291 0.678122 0.603971
Si Si4 0.000000 0.539356 0.702408
Si Si5 0.000000 0.124575 0.529881
Si Si6 0.250000 0.894880 0.750000
Si Si7 0.500000 0.941207 0.296178
Si Si8 0.139782 0.952428 0.952784
O O1 0.500000 0.750000 0.583808
O O2 0.659677 0.750000 0.512204
O O3 0.604469 0.791544 0.758760
O O4 0.750000 0.750000 0.250000
O O5 0.796172 0.791887 0.508917
O O6 0.183759 0.637211 0.683489
O O7 0.074325 0.656265 0.498033
O O8 0.000000 0.580842 0.583181
O O9 0.000000 0.485379 0.684637
O O10 0.920794 0.545160 0.806318
O O11 0.000000 0.102900 0.698759
O O12 0.211306 0.922506 0.892212
O O13 0.421023 0.941235 0.405019
O O14 0.172580 0.000000 0.000000
#
# Coordination Sequence:
#
# PCOD9540388 Si02
#       8
#     8   8  16   8   8   8   8  16
#     4  11  21  45  71  91 121 164 209 243 306 395
#     4  11  25  46  65  94 134 157 192 267 343 370
#     4  11  23  40  66  92 123 164 210 258 303 388
#     4   9  17  37  64  78 117 168 213 254 300 373
#     4  12  21  37  62  99 120 162 221 260 306 381
#     4  12  20  39  66  86 124 168 218 251 304 386
#     4   9  21  39  58  87 127 162 210 271 322 351
#     4   9  20  39  58  84 121 170 211 259 313 365
#
# _framework density 18.359631
#
# number of rings (size 3 to 8) (size 9 to 14) (size 15 to 20)
#    0.000    1.600    5.000    2.100    0.000    1.600 
#    9.000    0.000    0.000    0.000    0.000    0.000 
#    0.000    0.000    0.000    0.000    0.000    0.000 
#
# Total GULP energy -222835.361950 kJ/mol
# GULP energy per Si atom -5570.884049 kJ/mol
# Density = 1.831784 g / cm^3
# Si number density = 18.359631 Si / 1000 Ang^3
#
#
#
# Elastic Constant Matrix: (Units=GPa)
#
#
# Indices 1 2 3 4 5 6 
#
# 1 112.6966 66.0898 39.6175 0.0006 0.0000 0.0011
# 2 66.0898 130.3261 54.4674 -0.0039 0.0018 0.0005
# 3 39.6175 54.4674 77.2068 -0.0091 0.0058 0.0041
# 4 0.0006 -0.0039 -0.0091 24.2199 0.0029 0.0007
# 5 0.0000 0.0018 0.0058 0.0029 13.5588 -0.0017
# 6 0.0011 0.0005 0.0041 0.0007 -0.0017 29.5633
#
#
#
# Elastic Compliance Matrix: (Units=1/GPa)
#
#
# Indices 1 2 3 4 5 6 
#
# 1 0.013065 -0.005422 -0.002879 -0.000002 0.000002 0.000000
# 2 -0.005422 0.013132 -0.006482 0.000000 0.000001 0.000001
# 3 -0.002879 -0.006482 0.019002 0.000006 -0.000007 -0.000002
# 4 -0.000002 0.000000 0.000006 0.041288 -0.000009 -0.000001
# 5 0.000002 0.000001 -0.000007 -0.000009 0.073753 0.000004
# 6 0.000000 0.000001 -0.000002 -0.000001 0.000004 0.033826
#
#
# Mechanical properties :
#
#
# Convention : Reuss Voigt Hill
#
# Bulk Modulus (GPa) = 63.96624 71.17542 67.57083
# Shear Modulus (GPa) = 21.84903 24.13872 22.99388
#
# Velocity S-wave (km/s) = 3.45346 3.62991 3.54279
# Velocity P-wave (km/s) = 7.12869 7.51131 7.32250
#
# Compressibility (1/GPa) = 0.01563325
#
# Stress axis : x y z
#
# Youngs Moduli (GPa) = 76.53830 76.15161 52.62558
#
# Poissons Ratio (x) = 0.41292 0.15151
# Poissons Ratio (y) = 0.41502 0.34110
# Poissons Ratio (z) = 0.22035 0.49359
#
# Static dielectric constant tensor:
#      x y z
#    x 0.994010 0.000000 -0.000020 
#    y 0.000000 1.636240 0.000000 
#    z -0.000020 0.000000 1.633750 
# 
# From -- ./inp_files/11214.got.cif
#   From: 2010.05.17/outbox.cif.g08.bks.cpg/sg74_6_cif.got.tgz:11214.got - 2010.06.03 17:57:02.
