data_PCOD9540737
_publ_section_title
;
Structure prediction by ZEFSAII (Michael W. Deem and Ramdas Pophale) SiO2 
 PCOD9540737
Probable space group: I M M A
;
_chemical_formula_sum "Si O2"
_cell_formula_units_Z 88
_cell_length_a 7.681915
_cell_length_b 21.284834
_cell_length_c 27.671068
_cell_angle_alpha 90.000000
_cell_angle_beta 90.000000
_cell_angle_gamma 90.000000
_cell_volume 4524.448889
_symmetry_space_group_name_H-M "I M M A"
_symmetry_group_IT_number 74
_symmetry_cell_setting 'orthorhombic'
loop_
_space_group_symop_operation_xyz
x,y,z
-x,1/2-y,z
x,-y,-z
-x,1/2+y,-z
-x,-y,-z
x,1/2+y,-z
-x,y,z
x,1/2-y,z
1/2+x,1/2+y,1/2+z
1/2-x,-y,1/2+z
1/2+x,1/2-y,1/2-z
1/2-x,y,1/2-z
1/2-x,1/2-y,1/2-z
1/2+x,y,1/2-z
1/2-x,1/2+y,1/2+z
1/2+x,-y,1/2+z
loop_
_atom_site_type_symbol
_atom_site_label
_atom_site_fract_x
_atom_site_fract_y
_atom_site_fract_z
Si Si1 0.207843 0.750000 0.033331
Si Si2 0.708215 0.385933 0.078119
Si Si3 0.791180 0.750000 0.307258
Si Si4 0.790484 0.113457 0.693433
Si Si5 0.794202 0.750000 0.922898
Si Si6 0.206553 0.886744 0.467909
Si Si7 0.213748 0.518061 0.386473
O O1 0.266084 0.816963 0.053736
O O2 0.000000 0.750000 0.032817
O O3 0.279428 0.750000 0.977904
O O4 0.500000 0.391388 0.074887
O O5 0.743916 0.316859 0.099144
O O6 0.771663 0.446324 0.107440
O O7 0.778151 0.388242 0.022697
O O8 0.750000 0.750000 0.250000
O O9 0.724202 0.817889 0.324234
O O10 0.000000 0.750000 0.314066
O O11 0.750000 0.106023 0.750000
O O12 0.727540 0.056292 0.660559
O O13 0.000000 0.115375 0.689104
O O14 0.000000 0.750000 0.927117
O O15 0.271520 0.941125 0.432842
O O16 0.000000 0.896302 0.471677
O O17 0.000000 0.518038 0.386028
#
# Coordination Sequence:
#
# PCOD9540737 Si02
#       7
#     8  16   8  16   8  16  16
#     4   9  17  28  40  58  88 123 154 183 215 250
#     4   9  16  28  46  67  89 114 146 181 216 257
#     4   8  14  25  42  60  79 108 144 177 208 243
#     4   9  17  30  46  64  87 115 147 182 218 255
#     4   9  17  29  44  62  87 119 150 178 211 255
#     4   9  16  27  44  64  87 117 151 183 214 254
#     4   9  17  28  45  68  90 113 144 183 224 262
#
# _framework density 19.449881999999999
#
# number of rings (size 3 to 8) (size 9 to 14) (size 15 to 20)
#    0.000    3.091    0.000    1.091    0.000    5.091 
#    0.000    5.455    0.000    8.727    0.000    0.636 
#    0.000    0.000    0.000    0.000    0.000    0.000 
#
# Total GULP energy -245173.532530 kJ/mol
# GULP energy per Si atom -5572.125739 kJ/mol
# Density = 1.940561 g / cm^3
# Si number density = 19.449882 Si / 1000 Ang^3
#
#
#
# Elastic Constant Matrix: (Units=GPa)
#
#
# Indices 1 2 3 4 5 6 
#
# 1 34.2718 4.4397 1.8437 0.0000 0.0000 0.0000
# 2 4.4397 225.0163 69.2318 0.0000 0.0000 0.0000
# 3 1.8437 69.2318 61.0279 0.0000 0.0000 0.0000
# 4 0.0000 0.0000 0.0000 25.1043 0.0000 0.0000
# 5 0.0000 0.0000 0.0000 0.0000 7.9369 0.0000
# 6 0.0000 0.0000 0.0000 0.0000 0.0000 -29.7714
#
#
#
# Elastic Compliance Matrix: (Units=1/GPa)
#
#
# Indices 1 2 3 4 5 6 
#
# 1 0.029258 -0.000469 -0.000352 0.000000 0.000000 0.000000
# 2 -0.000469 0.006834 -0.007739 0.000000 0.000000 0.000000
# 3 -0.000352 -0.007739 0.025176 0.000000 0.000000 0.000000
# 4 0.000000 0.000000 0.000000 0.039834 0.000000 0.000000
# 5 0.000000 0.000000 0.000000 0.000000 0.125994 0.000000
# 6 0.000000 0.000000 0.000000 0.000000 0.000000 -0.033589
#
#
# Mechanical properties :
#
#
# Convention : Reuss Voigt Hill
#
# Bulk Modulus (GPa) = 22.65067 52.37182 37.51124
# Shear Modulus (GPa) = 22.18836 16.97400 19.58118
#
# Velocity S-wave (km/s) = 3.38123 2.95736 3.17638
# Velocity P-wave (km/s) = 5.18793 6.21662 5.72542
#
# Compressibility (1/GPa) = 0.04414881
#
# Stress axis : x y z
#
# Youngs Moduli (GPa) = 34.17844 146.31669 39.72038
#
# Poissons Ratio (x) = 0.06863 0.01398
# Poissons Ratio (y) = 0.01603 0.30740
# Poissons Ratio (z) = 0.01203 1.13235
#
# Static dielectric constant tensor:
#      x y z
#    x 1.720480 0.000000 0.000000 
#    y 0.000000 1.736280 0.000000 
#    z 0.000000 0.000000 1.664910 
# 
# From -- ./inp_files/70322.got.cif
#   From: 2010.05.17/outbox.cif.g08.bks.cpg/sg74_36_cif.got.tgz:70322.got - 2010.06.03 17:57:02.
