data_PCOD9540521
_publ_section_title
;
Structure prediction by ZEFSAII (Michael W. Deem and Ramdas Pophale) SiO2 
 PCOD9540521
Probable space group: I M M A
;
_chemical_formula_sum "Si O2"
_cell_formula_units_Z 68
_cell_length_a 13.766941
_cell_length_b 10.363199
_cell_length_c 24.451041
_cell_angle_alpha 90.000000
_cell_angle_beta 90.000000
_cell_angle_gamma 90.000000
_cell_volume 3488.418997
_symmetry_space_group_name_H-M "I M M A"
_symmetry_group_IT_number 74
_symmetry_cell_setting 'orthorhombic'
loop_
_space_group_symop_operation_xyz
x,y,z
-x,1/2-y,z
x,-y,-z
-x,1/2+y,-z
-x,-y,-z
x,1/2+y,-z
-x,y,z
x,1/2-y,z
1/2+x,1/2+y,1/2+z
1/2-x,-y,1/2+z
1/2+x,1/2-y,1/2-z
1/2-x,y,1/2-z
1/2-x,1/2-y,1/2-z
1/2+x,y,1/2-z
1/2-x,1/2+y,1/2+z
1/2+x,-y,1/2+z
loop_
_atom_site_type_symbol
_atom_site_label
_atom_site_fract_x
_atom_site_fract_y
_atom_site_fract_z
Si Si1 0.500000 0.604142 0.679118
Si Si2 0.809502 0.394659 0.700307
Si Si3 0.113426 0.250000 0.966001
Si Si4 0.500000 0.445595 0.192747
Si Si5 0.173878 0.985475 0.110880
Si Si6 0.270007 0.750000 0.936901
Si Si7 0.000000 0.250000 0.406941
O O1 0.500000 0.750000 0.658028
O O2 0.500000 0.609636 0.745091
O O3 0.592321 0.533377 0.653277
O O4 0.833832 0.250000 0.717360
O O5 0.750000 0.456542 0.750000
O O6 0.747377 0.399885 0.645874
O O7 0.905322 0.470512 0.690428
O O8 0.127222 0.114583 0.932657
O O9 0.000000 0.250000 0.987215
O O10 0.204803 0.250000 0.007778
O O11 0.500000 0.364365 0.137318
O O12 0.231055 0.115224 0.090663
O O13 0.390977 0.750000 0.936798
#
# Coordination Sequence:
#
# PCOD9540521 Si02
#       7
#     8  16   8   8  16   8   4
#     4  12  24  38  67 110 145 178 220 278 357 438
#     4  11  23  39  64 100 141 182 228 277 347 437
#     4  12  28  48  74 104 137 179 237 301 376 427
#     4  12  23  40  66 101 142 188 224 281 351 428
#     4  12  24  44  70 101 139 179 227 290 358 426
#     4  12  28  47  71  99 137 186 245 303 349 407
#     4  12  26  46  70  96 140 190 244 290 348 414
#
# _framework density 19.493069999999999
#
# number of rings (size 3 to 8) (size 9 to 14) (size 15 to 20)
#    0.000    0.235    8.824    1.059    1.647    0.941 
#    2.118    7.059    0.000    0.000    0.000    0.000 
#    0.000    0.000    0.000    0.000    0.000    0.000 
#
# Total GULP energy -189312.717540 kJ/mol
# GULP energy per Si atom -5568.021104 kJ/mol
# Density = 1.944870 g / cm^3
# Si number density = 19.493070 Si / 1000 Ang^3
#
#
#
# Elastic Constant Matrix: (Units=GPa)
#
#
# Indices 1 2 3 4 5 6 
#
# 1 166.9582 45.2008 45.2165 0.0000 0.0000 0.0000
# 2 45.2008 88.3151 15.2041 0.0000 0.0000 0.0000
# 3 45.2165 15.2041 72.3428 0.0000 0.0000 0.0000
# 4 0.0000 0.0000 0.0000 31.5027 0.0000 0.0000
# 5 0.0000 0.0000 0.0000 0.0000 60.2254 0.0000
# 6 0.0000 0.0000 0.0000 0.0000 0.0000 9.3168
#
#
#
# Elastic Compliance Matrix: (Units=1/GPa)
#
#
# Indices 1 2 3 4 5 6 
#
# 1 0.008082 -0.003390 -0.004339 0.000000 0.000000 0.000000
# 2 -0.003390 0.013170 -0.000649 0.000000 0.000000 0.000000
# 3 -0.004339 -0.000649 0.016672 0.000000 0.000000 0.000000
# 4 0.000000 0.000000 0.000000 0.031743 0.000000 0.000000
# 5 0.000000 0.000000 0.000000 0.000000 0.016604 0.000000
# 6 0.000000 0.000000 0.000000 0.000000 0.000000 0.107334
#
#
# Mechanical properties :
#
#
# Convention : Reuss Voigt Hill
#
# Bulk Modulus (GPa) = 47.24236 59.87322 53.55779
# Shear Modulus (GPa) = 22.99725 35.00860 29.00292
#
# Velocity S-wave (km/s) = 3.43850 4.24246 3.86146
# Velocity P-wave (km/s) = 6.32870 7.40134 6.88594
#
# Compressibility (1/GPa) = 0.02116744
#
# Stress axis : x y z
#
# Youngs Moduli (GPa) = 123.72538 75.93181 59.98166
#
# Poissons Ratio (x) = 0.25738 0.26028
# Poissons Ratio (y) = 0.41938 0.03894
# Poissons Ratio (z) = 0.53689 0.04930
#
# Static dielectric constant tensor:
#      x y z
#    x 0.801840 0.000000 0.000000 
#    y 0.000000 1.704560 0.000000 
#    z 0.000000 0.000000 1.705690 
# 
# From -- ./inp_files/65753.got.cif
#   From: 2010.05.17/outbox.cif.g08.bks.cpg/sg74_33_cif.got.tgz:65753.got - 2010.06.03 17:57:02.
