data_PCOD9540838
_publ_section_title
;
Structure prediction by ZEFSAII (Michael W. Deem and Ramdas Pophale) SiO2 
 PCOD9540838
Probable space group: I M M A
;
_chemical_formula_sum "Si O2"
_cell_formula_units_Z 48
_cell_length_a 15.000000
_cell_length_b 15.000000
_cell_length_c 21.000000
_cell_angle_alpha 90.000000
_cell_angle_beta 90.000000
_cell_angle_gamma 90.000000
_cell_volume 4725.000000
_symmetry_space_group_name_H-M "I M M A"
_symmetry_group_IT_number 74
_symmetry_cell_setting 'orthorhombic'
loop_
_space_group_symop_operation_xyz
x,y,z
-x,1/2-y,z
x,-y,-z
-x,1/2+y,-z
-x,-y,-z
x,1/2+y,-z
-x,y,z
x,1/2-y,z
1/2+x,1/2+y,1/2+z
1/2-x,-y,1/2+z
1/2+x,1/2-y,1/2-z
1/2-x,y,1/2-z
1/2-x,1/2-y,1/2-z
1/2+x,y,1/2-z
1/2-x,1/2+y,1/2+z
1/2+x,-y,1/2+z
loop_
_atom_site_type_symbol
_atom_site_label
_atom_site_fract_x
_atom_site_fract_y
_atom_site_fract_z
Si Si1 0.903971 0.642090 0.035715
Si Si2 0.404119 0.103112 0.021452
Si Si3 0.671562 0.461308 0.143948
Si Si4 0.282989 0.647522 0.091140
Si Si5 0.102340 0.849410 0.752417
Si Si6 0.157072 0.645573 0.895074
O O1 0.906346 0.750000 0.037762
O O2 0.818985 0.618741 0.078206
O O3 0.000000 0.607388 0.057452
O O4 0.889479 0.619832 0.961263
O O5 0.500000 0.141820 0.004496
O O6 0.394139 0.093317 0.096853
O O7 0.328085 0.147653 0.979185
O O8 0.401317 0.000000 0.000000
O O9 0.670848 0.567970 0.131768
O O10 0.653993 0.426317 0.214730
O O11 0.763539 0.422152 0.117649
O O12 0.287740 0.750000 0.115642
O O13 0.138965 0.750000 0.736717
O O14 0.104012 0.857581 0.828790
O O15 0.000000 0.852941 0.732083
O O16 0.185861 0.750000 0.902196
#
# Coordination Sequence:
#
# PCOD9540838 Si02
#       6
#    16  16  16  16  16  16
#     4   9  17  32  55  81 112 148 183 226 279 334
#     4   9  18  32  50  72 103 141 180 225 274 323
#     4  11  20  33  54  78 112 148 186 227 276 336
#     4  10  21  36  53  78 113 151 192 234 277 328
#     4  10  21  36  55  82 113 145 184 230 286 347
#     4  10  19  33  55  81 109 142 179 227 283 340
#
# _framework density 10.15873
#
# number of rings (size 3 to 8) (size 9 to 14) (size 15 to 20)
#    0.000    2.167    1.667    2.000    0.000    5.000 
#    0.000    2.500    0.000    2.000    0.000    0.000 
#    0.000    0.000    0.000    0.000    0.000    0.000 
#
# Total GULP energy -267486.197265 kJ/mol
# GULP energy per Si atom -5572.629110 kJ/mol
# Density = 1.013561 g / cm^3
# Si number density = 10.158730 Si / 1000 Ang^3
#
#
#
# Elastic Constant Matrix: (Units=GPa)
#
#
# Indices 1 2 3 4 5 6 
#
# 1 81.1682 17.1401 -7.7301 0.0000 0.0000 0.0000
# 2 17.1401 92.0341 16.9745 0.0000 0.0000 0.0000
# 3 -7.7301 16.9745 37.6639 0.0000 0.0000 0.0000
# 4 0.0000 0.0000 0.0000 11.2460 0.0000 0.0000
# 5 0.0000 0.0000 0.0000 0.0000 37.0936 0.0000
# 6 0.0000 0.0000 0.0000 0.0000 0.0000 9.1567
#
#
#
# Elastic Compliance Matrix: (Units=1/GPa)
#
#
# Indices 1 2 3 4 5 6 
#
# 1 0.013415 -0.003279 0.004231 0.000000 0.000000 0.000000
# 2 -0.003279 0.012652 -0.006375 0.000000 0.000000 0.000000
# 3 0.004231 -0.006375 0.030292 0.000000 0.000000 0.000000
# 4 0.000000 0.000000 0.000000 0.088920 0.000000 0.000000
# 5 0.000000 0.000000 0.000000 0.000000 0.026959 0.000000
# 6 0.000000 0.000000 0.000000 0.000000 0.000000 0.109209
#
#
# Mechanical properties :
#
#
# Convention : Reuss Voigt Hill
#
# Bulk Modulus (GPa) = 21.97122 29.29280 25.63201
# Shear Modulus (GPa) = 16.26203 23.79805 20.03004
#
# Velocity S-wave (km/s) = 2.83220 3.42615 3.14324
# Velocity P-wave (km/s) = 4.64032 5.48637 5.08098
#
# Compressibility (1/GPa) = 0.04551408
#
# Stress axis : x y z
#
# Youngs Moduli (GPa) = 74.54109 79.03924 33.01193
#
# Poissons Ratio (x) = 0.25915 -0.13968
# Poissons Ratio (y) = 0.24441 0.21045
# Poissons Ratio (z) = -0.31539 0.50387
#
# Static dielectric constant tensor:
#      x y z
#    x 1.827720 0.000000 0.000000 
#    y 0.000000 1.728230 0.000000 
#    z 0.000000 0.000000 1.725280 
# 
# From -- ./inp_files/51822.got.cif
#   From: 2010.05.17/outbox.ucp.g08.bks.cvg/sg74_26_cif.got.tgz:51822.got - 2010.06.11 16:37:44.
