data_PCOD9540958
_publ_section_title
;
Structure prediction by ZEFSAII (Michael W. Deem and Ramdas Pophale) SiO2 
 PCOD9540958
Probable space group: I M M A
;
_chemical_formula_sum "Si O2"
_cell_formula_units_Z 40
_cell_length_a 9.000000
_cell_length_b 18.000000
_cell_length_c 27.000000
_cell_angle_alpha 90.000000
_cell_angle_beta 90.000000
_cell_angle_gamma 90.000000
_cell_volume 4374.000000
_symmetry_space_group_name_H-M "I M M A"
_symmetry_group_IT_number 74
_symmetry_cell_setting 'orthorhombic'
loop_
_space_group_symop_operation_xyz
x,y,z
-x,1/2-y,z
x,-y,-z
-x,1/2+y,-z
-x,-y,-z
x,1/2+y,-z
-x,y,z
x,1/2-y,z
1/2+x,1/2+y,1/2+z
1/2-x,-y,1/2+z
1/2+x,1/2-y,1/2-z
1/2-x,y,1/2-z
1/2-x,1/2-y,1/2-z
1/2+x,y,1/2-z
1/2-x,1/2+y,1/2+z
1/2+x,-y,1/2+z
loop_
_atom_site_type_symbol
_atom_site_label
_atom_site_fract_x
_atom_site_fract_y
_atom_site_fract_z
Si Si1 0.821752 0.837725 0.698110
Si Si2 0.822760 0.661599 0.000829
Si Si3 0.822599 0.908343 0.400782
Si Si4 0.323942 0.660660 0.302552
Si Si5 0.177823 0.585173 0.595127
O O1 0.786427 0.750000 0.692338
O O2 0.750000 0.863408 0.750000
O O3 0.774684 0.880194 0.648122
O O4 0.000000 0.845026 0.702310
O O5 0.795562 0.750000 0.997857
O O6 0.757526 0.622469 0.951792
O O7 0.000000 0.649388 0.003385
O O8 0.747802 0.629819 0.050686
O O9 0.751183 0.877214 0.350162
O O10 0.000000 0.895253 0.399995
O O11 0.797088 0.996854 0.404337
O O12 0.500000 0.644665 0.301491
O O13 0.305504 0.750000 0.307370
O O14 0.250000 0.638578 0.250000
O O15 0.000000 0.598170 0.590301
#
# Coordination Sequence:
#
# PCOD9540958 Si02
#       5
#    16  16  16  16  16
#     4   9  18  34  56  80 108 143 182 224 269 319
#     4  11  24  40  59  84 112 145 188 234 281 337
#     4  11  23  38  58  85 116 149 187 232 283 340
#     4  10  21  38  60  85 114 150 193 238 283 334
#     4  10  22  39  58  83 114 148 187 230 280 337
#
# _framework density 9.1449470000000002
#
# number of rings (size 3 to 8) (size 9 to 14) (size 15 to 20)
#    0.000    1.800    0.000    3.600    0.000   11.600 
#    0.000    4.000    0.000    0.000    0.000    0.000 
#    0.000    0.000    0.000    0.000    0.000    0.000 
#
# Total GULP energy -223526.744512 kJ/mol
# GULP energy per Si atom -5588.168613 kJ/mol
# Density = 0.912413 g / cm^3
# Si number density = 9.144947 Si / 1000 Ang^3
#
#
#
# Elastic Constant Matrix: (Units=GPa)
#
#
# Indices 1 2 3 4 5 6 
#
# 1 105.9148 81.7342 106.2947 0.0000 0.0000 0.0000
# 2 81.7342 97.1470 102.1222 0.0000 0.0000 0.0000
# 3 106.2947 102.1222 243.5434 0.0000 0.0000 0.0000
# 4 0.0000 0.0000 0.0000 25.6615 0.0000 0.0000
# 5 0.0000 0.0000 0.0000 0.0000 46.8690 0.0000
# 6 0.0000 0.0000 0.0000 0.0000 0.0000 27.2810
#
#
#
# Elastic Compliance Matrix: (Units=1/GPa)
#
#
# Indices 1 2 3 4 5 6 
#
# 1 0.029325 -0.020061 -0.004387 0.000000 0.000000 0.000000
# 2 -0.020061 0.032131 -0.004717 0.000000 0.000000 0.000000
# 3 -0.004387 -0.004717 0.007999 0.000000 0.000000 0.000000
# 4 0.000000 0.000000 0.000000 0.038969 0.000000 0.000000
# 5 0.000000 0.000000 0.000000 0.000000 0.021336 0.000000
# 6 0.000000 0.000000 0.000000 0.000000 0.000000 0.036656
#
#
# Mechanical properties :
#
#
# Convention : Reuss Voigt Hill
#
# Bulk Modulus (GPa) = 89.89481 114.10082 101.99781
# Shear Modulus (GPa) = 21.88612 30.39256 26.13934
#
# Velocity S-wave (km/s) = 3.46298 4.08083 3.78454
# Velocity P-wave (km/s) = 8.07752 9.20458 8.65941
#
# Compressibility (1/GPa) = 0.01112411
#
# Stress axis : x y z
#
# Youngs Moduli (GPa) = 34.10003 31.12261 125.01626
#
# Poissons Ratio (x) = 0.62435 0.54847
# Poissons Ratio (y) = 0.68408 0.58976
# Poissons Ratio (z) = 0.14960 0.14682
#
# Static dielectric constant tensor:
#      x y z
#    x 1.619150 0.000000 0.000000 
#    y 0.000000 1.618560 0.000000 
#    z 0.000000 0.000000 1.590280 
# 
# From -- ./inp_files/63887.got.cif
#   From: 2010.05.17/outbox.ucp.g08.bks.cvg/sg74_32_cif.got.tgz:63887.got - 2010.06.11 16:37:44.
