data_PCOD9540849
_publ_section_title
;
Structure prediction by ZEFSAII (Michael W. Deem and Ramdas Pophale) SiO2 
 PCOD9540849
Probable space group: I M M A
;
_chemical_formula_sum "Si O2"
_cell_formula_units_Z 40
_cell_length_a 9.000000
_cell_length_b 27.000000
_cell_length_c 18.000000
_cell_angle_alpha 90.000000
_cell_angle_beta 90.000000
_cell_angle_gamma 90.000000
_cell_volume 4374.000000
_symmetry_space_group_name_H-M "I M M A"
_symmetry_group_IT_number 74
_symmetry_cell_setting 'orthorhombic'
loop_
_space_group_symop_operation_xyz
x,y,z
-x,1/2-y,z
x,-y,-z
-x,1/2+y,-z
-x,-y,-z
x,1/2+y,-z
-x,y,z
x,1/2-y,z
1/2+x,1/2+y,1/2+z
1/2-x,-y,1/2+z
1/2+x,1/2-y,1/2-z
1/2-x,y,1/2-z
1/2-x,1/2-y,1/2-z
1/2+x,y,1/2-z
1/2-x,1/2+y,1/2+z
1/2+x,-y,1/2+z
loop_
_atom_site_type_symbol
_atom_site_label
_atom_site_fract_x
_atom_site_fract_y
_atom_site_fract_z
Si Si1 0.326332 0.158353 0.409531
Si Si2 0.674351 0.647942 0.415471
Si Si3 0.821854 0.057387 0.171068
Si Si4 0.324270 0.750000 0.830205
Si Si5 0.818229 0.250000 0.832150
Si Si6 0.319066 0.466739 0.572483
O O1 0.500000 0.165810 0.388867
O O2 0.315554 0.161401 0.497868
O O3 0.283518 0.103085 0.383256
O O4 0.230478 0.200911 0.372285
O O5 0.500000 0.643635 0.394597
O O6 0.729155 0.697342 0.371346
O O7 0.733495 0.590273 0.413485
O O8 0.750000 0.067032 0.250000
O O9 0.000000 0.057127 0.176931
O O10 0.778356 0.003755 0.139274
O O11 0.500000 0.750000 0.823533
O O12 0.250000 0.750000 0.750000
O O13 0.750000 0.250000 0.750000
O O14 0.000000 0.250000 0.831689
O O15 0.273283 0.500000 0.500000
O O16 0.500000 0.463200 0.566117
#
# Coordination Sequence:
#
# PCOD9540849 Si02
#       6
#    16  16  16   8   8  16
#     4  10  19  35  58  81 104 135 179 229 275 323
#     4   9  17  32  57  82 106 141 186 230 272 323
#     4  10  20  32  52  81 111 141 175 221 275 327
#     4  12  25  38  52  74 106 144 181 218 264 322
#     4  10  21  36  54  80 112 146 185 232 280 328
#     4   9  15  29  53  81 107 136 182 230 267 312
#
# _framework density 9.1449470000000002
#
# number of rings (size 3 to 8) (size 9 to 14) (size 15 to 20)
#    0.000    2.200    2.000    2.100    0.000    4.800 
#    0.000    2.000    0.000    1.800    0.000    0.000 
#    0.000    0.000    0.000    0.000    0.000    0.000 
#
# Total GULP energy -222748.578857 kJ/mol
# GULP energy per Si atom -5568.714471 kJ/mol
# Density = 0.912413 g / cm^3
# Si number density = 9.144947 Si / 1000 Ang^3
#
#
#
# Elastic Constant Matrix: (Units=GPa)
#
#
# Indices 1 2 3 4 5 6 
#
# 1 26.2892 38.3608 19.0530 0.0000 0.0000 0.0000
# 2 38.3608 189.6219 59.6773 0.0000 0.0000 0.0000
# 3 19.0530 59.6773 76.9141 0.0000 0.0000 0.0000
# 4 0.0000 0.0000 0.0000 19.3785 0.0000 0.0000
# 5 0.0000 0.0000 0.0000 0.0000 18.3598 0.0000
# 6 0.0000 0.0000 0.0000 0.0000 0.0000 11.2375
#
#
#
# Elastic Compliance Matrix: (Units=1/GPa)
#
#
# Indices 1 2 3 4 5 6 
#
# 1 0.056527 -0.009299 -0.006787 0.000000 0.000000 0.000000
# 2 -0.009299 0.008507 -0.004297 0.000000 0.000000 0.000000
# 3 -0.006787 -0.004297 0.018017 0.000000 0.000000 0.000000
# 4 0.000000 0.000000 0.000000 0.051604 0.000000 0.000000
# 5 0.000000 0.000000 0.000000 0.000000 0.054467 0.000000
# 6 0.000000 0.000000 0.000000 0.000000 0.000000 0.088987
#
#
# Mechanical properties :
#
#
# Convention : Reuss Voigt Hill
#
# Bulk Modulus (GPa) = 23.64989 58.55640 41.10315
# Shear Modulus (GPa) = 15.01628 21.51077 18.26353
#
# Velocity S-wave (km/s) = 2.86845 3.43315 3.16343
# Velocity P-wave (km/s) = 4.89176 6.91380 5.98874
#
# Compressibility (1/GPa) = 0.04228349
#
# Stress axis : x y z
#
# Youngs Moduli (GPa) = 17.69063 117.54563 55.50301
#
# Poissons Ratio (x) = 1.09311 0.37672
# Poissons Ratio (y) = 0.16451 0.23851
# Poissons Ratio (z) = 0.12007 0.50511
#
# Static dielectric constant tensor:
#      x y z
#    x 1.608900 0.000000 0.000000 
#    y 0.000000 1.673210 0.000000 
#    z 0.000000 0.000000 1.635550 
# 
# From -- ./inp_files/39795.got.cif
#   From: 2010.05.17/outbox.ucp.g08.bks.cvg/sg74_20_cif.got.tgz:39795.got - 2010.06.11 16:37:44.
