data_PCOD9540463
_publ_section_title
;
Structure prediction by ZEFSAII (Michael W. Deem and Ramdas Pophale) SiO2 
 PCOD9540463
Probable space group: I M M A
;
_chemical_formula_sum "Si O2"
_cell_formula_units_Z 116
_cell_length_a 26.403862
_cell_length_b 18.365285
_cell_length_c 11.875244
_cell_angle_alpha 90.000000
_cell_angle_beta 90.000000
_cell_angle_gamma 90.000000
_cell_volume 5758.477422
_symmetry_space_group_name_H-M "I M M A"
_symmetry_group_IT_number 74
_symmetry_cell_setting 'orthorhombic'
loop_
_space_group_symop_operation_xyz
x,y,z
-x,1/2-y,z
x,-y,-z
-x,1/2+y,-z
-x,-y,-z
x,1/2+y,-z
-x,y,z
x,1/2-y,z
1/2+x,1/2+y,1/2+z
1/2-x,-y,1/2+z
1/2+x,1/2-y,1/2-z
1/2-x,y,1/2-z
1/2-x,1/2-y,1/2-z
1/2+x,y,1/2-z
1/2-x,1/2+y,1/2+z
1/2+x,-y,1/2+z
loop_
_atom_site_type_symbol
_atom_site_label
_atom_site_fract_x
_atom_site_fract_y
_atom_site_fract_z
Si Si1 0.090468 0.670875 0.059186
Si Si2 0.267744 0.336616 0.060919
Si Si3 0.701439 0.082835 0.831699
Si Si4 0.942975 0.085771 0.475397
Si Si5 0.652382 0.071042 0.180685
Si Si6 0.100723 0.664707 0.304175
Si Si7 0.168081 0.927912 0.936230
Si Si8 0.000000 0.250000 0.038453
O O1 0.118703 0.750000 0.067209
O O2 0.070954 0.657597 0.186219
O O3 0.126154 0.608822 0.014090
O O4 0.044525 0.687772 0.976064
O O5 0.266582 0.250000 0.056246
O O6 0.307841 0.365578 0.152100
O O7 0.213441 0.371826 0.082888
O O8 0.284330 0.371772 0.942102
O O9 0.750000 0.074723 0.750000
O O10 0.655083 0.128250 0.778743
O O11 0.678391 0.003932 0.862530
O O12 0.899732 0.091966 0.380726
O O13 0.924399 0.125617 0.589162
O O14 0.000000 0.110771 0.444794
O O15 0.945404 0.000000 0.500000
O O16 0.645968 0.056833 0.312975
O O17 0.106226 0.750000 0.330861
O O18 0.187278 0.000000 0.000000
#
# Coordination Sequence:
#
# PCOD9540463 Si02
#       8
#    16  16  16  16  16  16  16   4
#     4   9  21  41  66  96 128 170 223 276 341 393
#     4  12  25  41  65  99 136 179 228 272 343 416
#     4  12  23  40  66  98 138 180 222 278 337 406
#     4  11  24  43  69  95 131 179 222 278 349 408
#     4  12  24  45  66  95 139 181 227 281 339 409
#     4  11  22  39  68  99 135 168 219 285 335 410
#     4  12  25  42  68  99 136 180 229 281 335 413
#     4   8  20  44  70  92 128 180 220 286 354 386
#
# _framework density 20.144213000000001
#
# number of rings (size 3 to 8) (size 9 to 14) (size 15 to 20)
#    0.414    0.414    2.759    5.793    0.966    4.138 
#    1.241    0.345    0.000    0.000    0.000    0.000 
#    0.000    0.000    0.000    0.000    0.000    0.000 
#
# Total GULP energy -323381.936717 kJ/mol
# GULP energy per Si atom -5575.550633 kJ/mol
# Density = 2.009836 g / cm^3
# Si number density = 20.144213 Si / 1000 Ang^3
#
#
#
# Elastic Constant Matrix: (Units=GPa)
#
#
# Indices 1 2 3 4 5 6 
#
# 1 105.0944 46.2278 25.5604 0.0000 0.0000 0.0000
# 2 46.2278 128.9499 40.6515 0.0000 0.0000 0.0000
# 3 25.5604 40.6515 103.6252 0.0000 0.0000 0.0000
# 4 0.0000 0.0000 0.0000 24.3655 0.0000 0.0000
# 5 0.0000 0.0000 0.0000 0.0000 19.4945 0.0000
# 6 0.0000 0.0000 0.0000 0.0000 0.0000 3.1716
#
#
#
# Elastic Compliance Matrix: (Units=1/GPa)
#
#
# Indices 1 2 3 4 5 6 
#
# 1 0.011469 -0.003674 -0.001388 0.000000 0.000000 0.000000
# 2 -0.003674 0.010026 -0.003027 0.000000 0.000000 0.000000
# 3 -0.001388 -0.003027 0.011180 0.000000 0.000000 0.000000
# 4 0.000000 0.000000 0.000000 0.041042 0.000000 0.000000
# 5 0.000000 0.000000 0.000000 0.000000 0.051296 0.000000
# 6 0.000000 0.000000 0.000000 0.000000 0.000000 0.315299
#
#
# Mechanical properties :
#
#
# Convention : Reuss Voigt Hill
#
# Bulk Modulus (GPa) = 60.61450 62.50545 61.55998
# Shear Modulus (GPa) = 10.82278 24.42165 17.62222
#
# Velocity S-wave (km/s) = 2.32041 3.48565 2.96092
# Velocity P-wave (km/s) = 6.11021 6.87721 6.50502
#
# Compressibility (1/GPa) = 0.01649770
#
# Stress axis : x y z
#
# Youngs Moduli (GPa) = 87.19267 99.73718 89.44616
#
# Poissons Ratio (x) = 0.36644 0.12412
# Poissons Ratio (y) = 0.32035 0.27075
# Poissons Ratio (z) = 0.12099 0.30191
#
# Static dielectric constant tensor:
#      x y z
#    x 1.719280 0.000000 0.000000 
#    y 0.000000 1.712480 0.000000 
#    z 0.000000 0.000000 1.770750 
# 
# From -- ./inp_files/26407.got.cif
#   From: 2010.05.17/outbox.cif.g08.bks.cpg/sg74_14_cif.got.tgz:26407.got - 2010.06.03 17:57:02.
