data_PCOD9540891
_publ_section_title
;
Structure prediction by ZEFSAII (Michael W. Deem and Ramdas Pophale) SiO2 
 PCOD9540891
Probable space group: I M M A
;
_chemical_formula_sum "Si O2"
_cell_formula_units_Z 52
_cell_length_a 21.000000
_cell_length_b 9.000000
_cell_length_c 30.000000
_cell_angle_alpha 90.000000
_cell_angle_beta 90.000000
_cell_angle_gamma 90.000000
_cell_volume 5670.000000
_symmetry_space_group_name_H-M "I M M A"
_symmetry_group_IT_number 74
_symmetry_cell_setting 'orthorhombic'
loop_
_space_group_symop_operation_xyz
x,y,z
-x,1/2-y,z
x,-y,-z
-x,1/2+y,-z
-x,-y,-z
x,1/2+y,-z
-x,y,z
x,1/2-y,z
1/2+x,1/2+y,1/2+z
1/2-x,-y,1/2+z
1/2+x,1/2-y,1/2-z
1/2-x,y,1/2-z
1/2-x,1/2-y,1/2-z
1/2+x,y,1/2-z
1/2-x,1/2+y,1/2+z
1/2+x,-y,1/2+z
loop_
_atom_site_type_symbol
_atom_site_label
_atom_site_fract_x
_atom_site_fract_y
_atom_site_fract_z
Si Si1 0.131340 0.429116 0.364416
Si Si2 0.929162 0.071037 0.272250
Si Si3 0.640203 0.429637 0.549045
Si Si4 0.814358 0.577131 0.224848
Si Si5 0.000000 0.571592 0.048859
Si Si6 0.576138 0.923902 0.956113
Si Si7 0.265702 0.423541 0.626838
O O1 0.128357 0.250000 0.364761
O O2 0.091675 0.479089 0.321672
O O3 0.102270 0.486781 0.410336
O O4 0.203311 0.482262 0.363458
O O5 0.929454 0.250000 0.272078
O O6 0.000000 0.018505 0.261366
O O7 0.875059 0.013303 0.239962
O O8 0.647822 0.500000 0.500000
O O9 0.642616 0.250000 0.544971
O O10 0.569409 0.469768 0.567762
O O11 0.694216 0.474853 0.584081
O O12 0.822292 0.750000 0.237942
O O13 0.750000 0.524402 0.250000
O O14 0.806204 0.569295 0.172002
O O15 0.000000 0.750000 0.045338
O O16 0.000000 0.500000 0.000000
O O17 0.500000 0.939131 0.955583
O O18 0.590986 0.750000 0.958337
O O19 0.602535 0.000000 0.000000
O O20 0.248213 0.250000 0.620166
#
# Coordination Sequence:
#
# PCOD9540891 Si02
#       7
#    16  16  16  16   8  16  16
#     4  10  20  34  54  77 102 138 178 215 261 315
#     4  10  21  37  58  83 109 138 178 226 271 318
#     4   9  18  33  53  76 103 135 171 214 260 309
#     4  10  20  37  58  80 109 144 181 220 264 319
#     4   8  14  28  50  72  94 126 168 206 250 304
#     4   9  18  33  51  72 101 135 173 216 261 308
#     4  10  21  36  53  77 108 139 173 215 261 311
#
# _framework density 9.1710759999999993
#
# number of rings (size 3 to 8) (size 9 to 14) (size 15 to 20)
#    0.000    2.462    1.538    0.462    0.000    4.923 
#    1.385    3.077    0.000    2.769    0.000    0.000 
#    0.000    0.000    0.000    0.000    0.000    0.000 
#
# Total GULP energy -289689.237165 kJ/mol
# GULP energy per Si atom -5570.946869 kJ/mol
# Density = 0.915020 g / cm^3
# Si number density = 9.171076 Si / 1000 Ang^3
#
#
#
# Elastic Constant Matrix: (Units=GPa)
#
#
# Indices 1 2 3 4 5 6 
#
# 1 158.0225 17.5609 54.0393 0.0000 0.0000 0.0000
# 2 17.5609 -0.8066 14.3689 0.0000 0.0000 0.0000
# 3 54.0393 14.3689 66.1523 0.0000 0.0000 0.0000
# 4 0.0000 0.0000 0.0000 24.0711 0.0000 0.0000
# 5 0.0000 0.0000 0.0000 0.0000 27.2703 0.0000
# 6 0.0000 0.0000 0.0000 0.0000 0.0000 15.1941
#
#
#
# Elastic Compliance Matrix: (Units=1/GPa)
#
#
# Indices 1 2 3 4 5 6 
#
# 1 0.008163 0.012102 -0.009296 0.000000 0.000000 0.000000
# 2 0.012102 -0.236665 0.041520 0.000000 0.000000 0.000000
# 3 -0.009296 0.041520 0.013692 0.000000 0.000000 0.000000
# 4 0.000000 0.000000 0.000000 0.041544 0.000000 0.000000
# 5 0.000000 0.000000 0.000000 0.000000 0.036670 0.000000
# 6 0.000000 0.000000 0.000000 0.000000 0.000000 0.065815
#
#
# Mechanical properties :
#
#
# Convention : Reuss Voigt Hill
#
# Bulk Modulus (GPa) = -7.92647 43.92294 17.99823
# Shear Modulus (GPa) = -24.81560 22.46705 -1.17428
#
# Velocity S-wave (km/s) = -3.68221 3.50363 -0.80100
# Velocity P-wave (km/s) = 4.73382 6.35340 2.99639
#
# Compressibility (1/GPa) = -0.12615951
#
# Stress axis : x y z
#
# Youngs Moduli (GPa) = 122.51114 -4.22538 73.03426
#
# Poissons Ratio (x) = 0.05113 0.67896
# Poissons Ratio (y) = -1.48257 -3.03241
# Poissons Ratio (z) = 1.13892 0.17544
#
# Static dielectric constant tensor:
#      x y z
#    x 1.648390 0.000000 0.000000 
#    y 0.000000 1.643840 0.000000 
#    z 0.000000 0.000000 1.756030 
# 
# From -- ./inp_files/73405.got.cif
#   From: 2010.05.17/outbox.ucp.g08.bks.cvg/sg74_37_cif.got.tgz:73405.got - 2010.06.11 16:37:44.
