data_PCOD9540999
_publ_section_title
;
Structure prediction by ZEFSAII (Michael W. Deem and Ramdas Pophale) SiO2 
 PCOD9540999
Probable space group: P 4
;
_chemical_formula_sum "Si O2"
_cell_formula_units_Z 25
_cell_length_a 12.050470
_cell_length_b 12.050470
_cell_length_c 8.050266
_cell_angle_alpha 90.000000
_cell_angle_beta 90.000000
_cell_angle_gamma 90.000000
_cell_volume 1169.009936
_symmetry_space_group_name_H-M "P 4"
_symmetry_group_IT_number 75
_symmetry_cell_setting 'tetragonal'
loop_
_space_group_symop_operation_xyz
x,y,z
-y,x,z
-x,-y,z
y,-x,z
loop_
_atom_site_type_symbol
_atom_site_label
_atom_site_fract_x
_atom_site_fract_y
_atom_site_fract_z
Si Si1 0.272383 0.903140 0.989720
Si Si2 0.359834 0.770782 0.534311
Si Si3 0.573298 0.735948 0.341769
Si Si4 0.859453 0.305835 0.072548
Si Si5 0.076612 0.167838 0.621339
Si Si6 0.500000 0.500000 0.214803
Si Si7 0.123133 0.494962 0.823099
O O1 0.209930 0.911081 0.811581
O O2 0.404399 0.895509 0.966594
O O3 0.228705 0.792091 0.068398
O O4 0.252200 0.019427 0.077109
O O5 0.454772 0.777707 0.399301
O O6 0.301230 0.651858 0.497857
O O7 0.266866 0.865089 0.522369
O O8 0.431870 0.789458 0.703629
O O9 0.627361 0.831914 0.235967
O O10 0.555295 0.625311 0.232451
O O11 0.850026 0.387194 0.909528
O O12 0.947223 0.142308 0.593635
O O13 0.000000 0.500000 0.738288
#
# Coordination Sequence:
#
# PCOD9540999 Si02
#       7
#     4   4   4   4   4   1   4
#     4  10  21  39  68  98 132 164 226 275 336 401
#     4  10  23  42  67  98 133 180 223 280 341 411
#     4  10  23  43  66  94 139 176 225 277 350 404
#     4  11  23  42  67  98 134 178 221 281 343 411
#     4  10  20  40  70  99 133 174 219 279 338 399
#     4   8  20  44  64  82 124 180 216 266 324 408
#     4   9  22  40  63  96 130 167 227 279 329 399
#
# _framework density 21.385618000000001
#
# number of rings (size 3 to 8) (size 9 to 14) (size 15 to 20)
#    0.000    2.080    1.600    0.000    8.960    0.320 
#    5.760    0.000    0.000    0.000    0.000    0.000 
#    0.000    0.000    0.000    0.000    0.000    0.000 
#
# Total GULP energy -139173.995079 kJ/mol
# GULP energy per Si atom -5566.959803 kJ/mol
# Density = 2.133694 g / cm^3
# Si number density = 21.385618 Si / 1000 Ang^3
#
#
#
# Elastic Constant Matrix: (Units=GPa)
#
#
# Indices 1 2 3 4 5 6 
#
# 1 114.2450 50.5240 20.3172 0.0000 0.0000 -6.4481
# 2 50.5240 114.2450 20.3172 0.0000 0.0000 6.4481
# 3 20.3172 20.3172 29.2356 0.0000 0.0000 0.0000
# 4 0.0000 0.0000 0.0000 -33.5500 0.0000 0.0000
# 5 0.0000 0.0000 0.0000 0.0000 -33.5500 0.0000
# 6 -6.4481 6.4481 0.0000 0.0000 0.0000 35.0100
#
#
#
# Elastic Compliance Matrix: (Units=1/GPa)
#
#
# Indices 1 2 3 4 5 6 
#
# 1 0.011813 -0.004488 -0.005090 0.000000 0.000000 0.003002
# 2 -0.004488 0.011813 -0.005090 0.000000 0.000000 -0.003002
# 3 -0.005090 -0.005090 0.041279 0.000000 0.000000 0.000000
# 4 0.000000 0.000000 0.000000 -0.029806 0.000000 0.000000
# 5 0.000000 0.000000 0.000000 0.000000 -0.029806 0.000000
# 6 0.003002 -0.003002 0.000000 0.000000 0.000000 0.029669
#
#
# Mechanical properties :
#
#
# Convention : Reuss Voigt Hill
#
# Bulk Modulus (GPa) = 28.11512 48.89358 38.50435
# Shear Modulus (GPa) = 65.65596 4.68647 35.17121
#
# Velocity S-wave (km/s) = 5.54686 1.48195 4.05979
# Velocity P-wave (km/s) = 7.36198 5.08337 6.32612
#
# Compressibility (1/GPa) = 0.03556806
#
# Stress axis : x y z
#
# Youngs Moduli (GPa) = 84.65456 84.65456 24.22511
#
# Poissons Ratio (x) = 0.37996 0.12331
# Poissons Ratio (y) = 0.37996 0.12331
# Poissons Ratio (z) = 0.43090 0.43090
#
# Static dielectric constant tensor:
#      x y z
#    x 1.831490 0.000000 0.000000 
#    y 0.000000 1.831490 0.000000 
#    z 0.000000 0.000000 1.815540 
# 
# From -- ./inp_files/393.got.cif
#   From: 2010.05.17/outbox.cif.g08.bks.cpg/sg75_cif.got.tgz:393.got - 2010.06.03 18:42:43.
