data_PCOD9540907
_publ_section_title
;
Structure prediction by ZEFSAII (Michael W. Deem and Ramdas Pophale) SiO2 
 PCOD9540907
Probable space group: I M M A
;
_chemical_formula_sum "Si O2"
_cell_formula_units_Z 36
_cell_length_a 24.000000
_cell_length_b 9.000000
_cell_length_c 18.000000
_cell_angle_alpha 90.000000
_cell_angle_beta 90.000000
_cell_angle_gamma 90.000000
_cell_volume 3888.000000
_symmetry_space_group_name_H-M "I M M A"
_symmetry_group_IT_number 74
_symmetry_cell_setting 'orthorhombic'
loop_
_space_group_symop_operation_xyz
x,y,z
-x,1/2-y,z
x,-y,-z
-x,1/2+y,-z
-x,-y,-z
x,1/2+y,-z
-x,y,z
x,1/2-y,z
1/2+x,1/2+y,1/2+z
1/2-x,-y,1/2+z
1/2+x,1/2-y,1/2-z
1/2-x,y,1/2-z
1/2-x,1/2-y,1/2-z
1/2+x,y,1/2-z
1/2-x,1/2+y,1/2+z
1/2+x,-y,1/2+z
loop_
_atom_site_type_symbol
_atom_site_label
_atom_site_fract_x
_atom_site_fract_y
_atom_site_fract_z
Si Si1 0.500000 0.072592 0.921198
Si Si2 0.065106 0.929275 0.811252
Si Si3 0.612332 0.071736 0.835261
Si Si4 0.661001 0.427219 0.420461
Si Si5 0.783701 0.071164 0.417523
O O1 0.500000 0.250000 0.925703
O O2 0.557138 0.029089 0.881519
O O3 0.500000 0.000000 0.000000
O O4 0.066920 0.750000 0.801007
O O5 0.104015 0.969223 0.880405
O O6 0.000000 0.971880 0.816584
O O7 0.096414 0.010372 0.744747
O O8 0.618300 0.250000 0.835948
O O9 0.667053 0.996350 0.868608
O O10 0.661740 0.500000 0.500000
O O11 0.660744 0.250000 0.427216
O O12 0.721733 0.464362 0.385722
O O13 0.789400 0.250000 0.422736
O O14 0.787596 0.000000 0.500000
#
# Coordination Sequence:
#
# PCOD9540907 Si02
#       5
#     8  16  16  16  16
#     4  10  22  36  52  76 107 142 181 224 269 318
#     4  10  21  38  59  82 111 149 189 230 278 333
#     4  11  22  37  55  80 113 148 187 230 278 329
#     4   9  20  38  59  84 113 144 184 232 281 334
#     4  10  20  36  57  82 113 148 186 230 278 329
#
# _framework density 9.2592590000000001
#
# number of rings (size 3 to 8) (size 9 to 14) (size 15 to 20)
#    0.000    2.000    1.111    2.000    0.000    6.667 
#    0.000    4.444    0.000    0.000    0.000    0.000 
#    0.000    0.000    0.000    0.000    0.000    0.000 
#
# Total GULP energy -200662.124202 kJ/mol
# GULP energy per Si atom -5573.947894 kJ/mol
# Density = 0.923818 g / cm^3
# Si number density = 9.259259 Si / 1000 Ang^3
#
#
#
# Elastic Constant Matrix: (Units=GPa)
#
#
# Indices 1 2 3 4 5 6 
#
# 1 152.7351 47.0257 70.6372 0.0000 0.0000 0.0000
# 2 47.0257 13.8832 21.8626 0.0000 0.0000 0.0000
# 3 70.6372 21.8626 63.5210 0.0000 0.0000 0.0000
# 4 0.0000 0.0000 0.0000 24.8169 0.0000 0.0000
# 5 0.0000 0.0000 0.0000 0.0000 42.1636 0.0000
# 6 0.0000 0.0000 0.0000 0.0000 0.0000 26.0255
#
#
#
# Elastic Compliance Matrix: (Units=1/GPa)
#
#
# Indices 1 2 3 4 5 6 
#
# 1 -0.143810 0.513717 -0.016889 0.000000 0.000000 0.000000
# 2 0.513717 -1.677822 0.006202 0.000000 0.000000 0.000000
# 3 -0.016889 0.006202 0.032389 0.000000 0.000000 0.000000
# 4 0.000000 0.000000 0.000000 0.040295 0.000000 0.000000
# 5 0.000000 0.000000 0.000000 0.000000 0.023717 0.000000
# 6 0.000000 0.000000 0.000000 0.000000 0.000000 0.038424
#
#
# Mechanical properties :
#
#
# Convention : Reuss Voigt Hill
#
# Bulk Modulus (GPa) = -1.27684 56.57669 27.64993
# Shear Modulus (GPa) = -1.69266 24.64211 11.47472
#
# Velocity S-wave (km/s) = -0.95709 3.65180 2.49195
# Velocity P-wave (km/s) = 1.38288 6.95691 4.82111
#
# Compressibility (1/GPa) = -0.78318340
#
# Stress axis : x y z
#
# Youngs Moduli (GPa) = -6.95360 -0.59601 30.87446
#
# Poissons Ratio (x) = 0.30618 0.52143
# Poissons Ratio (y) = 3.57218 -0.19147
# Poissons Ratio (z) = -0.11744 0.00370
#
# Static dielectric constant tensor:
#      x y z
#    x 1.571950 0.000000 0.000000 
#    y 0.000000 1.613530 0.000000 
#    z 0.000000 0.000000 1.779730 
# 
# From -- ./inp_files/29139.got.cif
#   From: 2010.05.17/outbox.ucp.g08.bks.cvg/sg74_15_cif.got.tgz:29139.got - 2010.06.11 16:37:44.
