data_PCOD9540154
_publ_section_title
;
Structure prediction by ZEFSAII (Michael W. Deem and Ramdas Pophale) SiO2 
 PCOD9540154
Probable space group: I M M A
;
_chemical_formula_sum "Si O2"
_cell_formula_units_Z 20
_cell_length_a 7.516227
_cell_length_b 9.092827
_cell_length_c 10.770914
_cell_angle_alpha 90.000000
_cell_angle_beta 90.000000
_cell_angle_gamma 90.000000
_cell_volume 736.124673
_symmetry_space_group_name_H-M "I M M A"
_symmetry_group_IT_number 74
_symmetry_cell_setting 'orthorhombic'
loop_
_space_group_symop_operation_xyz
x,y,z
-x,1/2-y,z
x,-y,-z
-x,1/2+y,-z
-x,-y,-z
x,1/2+y,-z
-x,y,z
x,1/2-y,z
1/2+x,1/2+y,1/2+z
1/2-x,-y,1/2+z
1/2+x,1/2-y,1/2-z
1/2-x,y,1/2-z
1/2-x,1/2-y,1/2-z
1/2+x,y,1/2-z
1/2-x,1/2+y,1/2+z
1/2+x,-y,1/2+z
loop_
_atom_site_type_symbol
_atom_site_label
_atom_site_fract_x
_atom_site_fract_y
_atom_site_fract_z
Si Si1 0.000000 0.524967 0.145556
Si Si2 0.500000 0.250000 0.163541
Si Si3 0.201971 0.250000 0.588769
O O1 0.815704 0.615696 0.139012
O O2 0.000000 0.393016 0.246319
O O3 0.000000 0.500000 0.000000
O O4 0.664906 0.250000 0.062438
O O5 0.000000 0.250000 0.637179
#
# Coordination Sequence:
#
# PCOD9540154 Si02
#       3
#     8   4   8
#     4  11  23  45  79 117 157 207 273 335 397 495
#     4  10  24  52  80 112 160 216 264 332 418 480
#     4   9  24  52  74 114 164 205 271 335 402 495
#
# _framework density 27.169312999999999
#
# number of rings (size 3 to 8) (size 9 to 14) (size 15 to 20)
#    1.200    0.800    0.000    2.400    0.000    8.000 
#   14.400    8.000    0.000   24.000    0.000    0.000 
#    0.000    0.000    0.000    0.000    0.000    0.000 
#
# Total GULP energy -55715.144043 kJ/mol
# GULP energy per Si atom -5571.514404 kJ/mol
# Density = 2.710747 g / cm^3
# Si number density = 27.169313 Si / 1000 Ang^3
#
#
#
# Elastic Constant Matrix: (Units=GPa)
#
#
# Indices 1 2 3 4 5 6 
#
# 1 285.9476 138.8036 130.5664 0.0000 0.0000 0.0000
# 2 138.8036 211.5960 153.6677 0.0000 0.0000 0.0000
# 3 130.5664 153.6677 340.7586 0.0000 0.0000 0.0000
# 4 0.0000 0.0000 0.0000 79.0539 0.0000 0.0000
# 5 0.0000 0.0000 0.0000 0.0000 47.9055 0.0000
# 6 0.0000 0.0000 0.0000 0.0000 0.0000 88.8429
#
#
#
# Elastic Compliance Matrix: (Units=1/GPa)
#
#
# Indices 1 2 3 4 5 6 
#
# 1 0.005235 -0.002940 -0.000680 0.000000 0.000000 0.000000
# 2 -0.002940 0.008679 -0.002787 0.000000 0.000000 0.000000
# 3 -0.000680 -0.002787 0.004452 0.000000 0.000000 0.000000
# 4 0.000000 0.000000 0.000000 0.012650 0.000000 0.000000
# 5 0.000000 0.000000 0.000000 0.000000 0.020874 0.000000
# 6 0.000000 0.000000 0.000000 0.000000 0.000000 0.011256
#
#
# Mechanical properties :
#
#
# Convention : Reuss Voigt Hill
#
# Bulk Modulus (GPa) = 180.14369 187.15307 183.64838
# Shear Modulus (GPa) = 64.25859 70.84474 67.55166
#
# Velocity S-wave (km/s) = 4.86852 5.11194 4.99171
# Velocity P-wave (km/s) = 9.90209 10.19196 10.04807
#
# Compressibility (1/GPa) = 0.00555112
#
# Stress axis : x y z
#
# Youngs Moduli (GPa) = 191.02906 115.22215 224.61510
#
# Poissons Ratio (x) = 0.33878 0.15271
# Poissons Ratio (y) = 0.56166 0.62605
# Poissons Ratio (z) = 0.12988 0.32115
#
# Static dielectric constant tensor:
#      x y z
#    x 2.908550 0.000000 0.000000 
#    y 0.000000 2.175660 0.000000 
#    z 0.000000 0.000000 1.627020 
# 
# From -- ./inp_files/16577.got.cif
#   From: 2010.05.17/outbox.cif.g08.bks.cpg/sg74_9_cif.got.tgz:16577.got - 2010.06.03 17:57:02.
