data_PCOD9540308
_publ_section_title
;
Structure prediction by ZEFSAII (Michael W. Deem and Ramdas Pophale) SiO2 
 PCOD9540308
Probable space group: I M M A
;
_chemical_formula_sum "Si O2"
_cell_formula_units_Z 100
_cell_length_a 22.952429
_cell_length_b 7.776264
_cell_length_c 29.461032
_cell_angle_alpha 90.000000
_cell_angle_beta 90.000000
_cell_angle_gamma 90.000000
_cell_volume 5258.327176
_symmetry_space_group_name_H-M "I M M A"
_symmetry_group_IT_number 74
_symmetry_cell_setting 'orthorhombic'
loop_
_space_group_symop_operation_xyz
x,y,z
-x,1/2-y,z
x,-y,-z
-x,1/2+y,-z
-x,-y,-z
x,1/2+y,-z
-x,y,z
x,1/2-y,z
1/2+x,1/2+y,1/2+z
1/2-x,-y,1/2+z
1/2+x,1/2-y,1/2-z
1/2-x,y,1/2-z
1/2-x,1/2-y,1/2-z
1/2+x,y,1/2-z
1/2-x,1/2+y,1/2+z
1/2+x,-y,1/2+z
loop_
_atom_site_type_symbol
_atom_site_label
_atom_site_fract_x
_atom_site_fract_y
_atom_site_fract_z
Si Si1 0.167526 0.542449 0.790551
Si Si2 0.000000 0.750000 0.885831
Si Si3 0.806460 0.947788 0.947179
Si Si4 0.062445 0.457132 0.552983
Si Si5 0.904032 0.058079 0.877891
Si Si6 0.196484 0.042445 0.307492
Si Si7 0.317550 0.949014 0.091471
O O1 0.161301 0.750000 0.792825
O O2 0.125735 0.464353 0.828258
O O3 0.161713 0.489650 0.737813
O O4 0.234942 0.502517 0.801711
O O5 0.949162 0.596808 0.885012
O O6 0.823599 0.750000 0.944379
O O7 0.852309 0.045392 0.915275
O O8 0.741471 0.966890 0.926912
O O9 0.807001 0.000000 0.000000
O O10 0.062648 0.500000 0.500000
O O11 0.063225 0.250000 0.558730
O O12 0.122512 0.526371 0.572790
O O13 0.000000 0.519651 0.571849
O O14 0.929429 0.250000 0.880994
O O15 0.192287 0.250000 0.310814
O O16 0.178099 0.961155 0.354470
O O17 0.313354 0.750000 0.077134
#
# Coordination Sequence:
#
# PCOD9540308 Si02
#       7
#    16   4  16  16  16  16  16
#     4   9  17  35  59  89 123 159 198 250 310 363
#     4  12  26  48  70  92 126 168 214 272 316 392
#     4  12  24  41  63  91 128 160 201 263 326 385
#     4   9  19  35  53  74 108 155 202 251 296 350
#     4  12  24  43  70  96 125 166 214 263 327 389
#     4   9  18  31  56  88 123 161 197 243 304 363
#     4  11  21  33  54  89 123 160 206 253 312 376
#
# _framework density 19.017454000000001
#
# number of rings (size 3 to 8) (size 9 to 14) (size 15 to 20)
#    0.000    1.600    3.200    3.600    0.000    3.200 
#    0.000    2.000    1.760    0.000    0.000    0.000 
#    0.000    0.000    0.000    0.000    0.000    0.000 
#
# Total GULP energy -278458.854509 kJ/mol
# GULP energy per Si atom -5569.177090 kJ/mol
# Density = 1.897417 g / cm^3
# Si number density = 19.017454 Si / 1000 Ang^3
#
#
#
# Elastic Constant Matrix: (Units=GPa)
#
#
# Indices 1 2 3 4 5 6 
#
# 1 126.5427 35.0815 54.8111 0.0000 0.0000 0.0000
# 2 35.0815 93.6453 14.9988 0.0000 0.0000 0.0000
# 3 54.8111 14.9988 98.3905 0.0000 0.0000 0.0000
# 4 0.0000 0.0000 0.0000 23.0591 0.0000 0.0000
# 5 0.0000 0.0000 0.0000 0.0000 2.3983 0.0000
# 6 0.0000 0.0000 0.0000 0.0000 0.0000 29.1154
#
#
#
# Elastic Compliance Matrix: (Units=1/GPa)
#
#
# Indices 1 2 3 4 5 6 
#
# 1 0.011339 -0.003317 -0.005811 0.000000 0.000000 0.000000
# 2 -0.003317 0.011916 0.000031 0.000000 0.000000 0.000000
# 3 -0.005811 0.000031 0.013396 0.000000 0.000000 0.000000
# 4 0.000000 0.000000 0.000000 0.043367 0.000000 0.000000
# 5 0.000000 0.000000 0.000000 0.000000 0.416955 0.000000
# 6 0.000000 0.000000 0.000000 0.000000 0.000000 0.034346
#
#
# Mechanical properties :
#
#
# Convention : Reuss Voigt Hill
#
# Bulk Modulus (GPa) = 54.17804 58.70682 56.44243
# Shear Modulus (GPa) = 8.99822 25.16036 17.07929
#
# Velocity S-wave (km/s) = 2.17757 3.64127 3.00006
# Velocity P-wave (km/s) = 5.90533 6.97248 6.46097
#
# Compressibility (1/GPa) = 0.01845766
#
# Stress axis : x y z
#
# Youngs Moduli (GPa) = 88.19028 83.91916 74.64892
#
# Poissons Ratio (x) = 0.27837 0.43379
# Poissons Ratio (y) = 0.29254 -0.00234
# Poissons Ratio (z) = 0.51248 -0.00263
#
# Static dielectric constant tensor:
#      x y z
#    x 1.658570 0.000000 0.000000 
#    y 0.000000 1.714270 0.000000 
#    z 0.000000 0.000000 1.652760 
# 
# From -- ./inp_files/73388.got.cif
#   From: 2010.05.17/outbox.cif.g08.bks.cpg/sg74_37_cif.got.tgz:73388.got - 2010.06.03 17:57:02.
