data_PCOD9540265
_publ_section_title
;
Structure prediction by ZEFSAII (Michael W. Deem and Ramdas Pophale) SiO2 
 PCOD9540265
Probable space group: I M M A
;
_chemical_formula_sum "Si O2"
_cell_formula_units_Z 96
_cell_length_a 25.349865
_cell_length_b 19.525163
_cell_length_c 10.571713
_cell_angle_alpha 90.000000
_cell_angle_beta 90.000000
_cell_angle_gamma 90.000000
_cell_volume 5232.577669
_symmetry_space_group_name_H-M "I M M A"
_symmetry_group_IT_number 74
_symmetry_cell_setting 'orthorhombic'
loop_
_space_group_symop_operation_xyz
x,y,z
-x,1/2-y,z
x,-y,-z
-x,1/2+y,-z
-x,-y,-z
x,1/2+y,-z
-x,y,z
x,1/2-y,z
1/2+x,1/2+y,1/2+z
1/2-x,-y,1/2+z
1/2+x,1/2-y,1/2-z
1/2-x,y,1/2-z
1/2-x,1/2-y,1/2-z
1/2+x,y,1/2-z
1/2-x,1/2+y,1/2+z
1/2+x,-y,1/2+z
loop_
_atom_site_type_symbol
_atom_site_label
_atom_site_fract_x
_atom_site_fract_y
_atom_site_fract_z
Si Si1 0.344342 0.078318 0.457126
Si Si2 0.339248 0.397645 0.963220
Si Si3 0.061094 0.669304 0.886669
Si Si4 0.260277 0.826703 0.398961
Si Si5 0.191550 0.515401 0.702833
Si Si6 0.439380 0.168728 0.083719
O O1 0.397498 0.122502 0.459810
O O2 0.299104 0.117860 0.536550
O O3 0.329491 0.065926 0.310819
O O4 0.350821 0.000000 0.500000
O O5 0.298914 0.335252 0.951056
O O6 0.338278 0.445203 0.837094
O O7 0.312261 0.441628 0.074674
O O8 0.396687 0.374360 0.006700
O O9 0.070672 0.750000 0.910183
O O10 0.067148 0.658525 0.734983
O O11 0.000000 0.654562 0.918054
O O12 0.280895 0.750000 0.422399
O O13 0.250000 0.835879 0.250000
O O14 0.250000 0.497054 0.750000
O O15 0.500000 0.150977 0.052194
O O16 0.432349 0.250000 0.060206
#
# Coordination Sequence:
#
# PCOD9540265 Si02
#       6
#    16  16  16  16  16  16
#     4  12  22  37  59  86 117 156 200 243 303 365
#     4  11  20  36  59  83 120 158 197 241 300 365
#     4   9  19  37  59  84 117 155 199 252 305 355
#     4  11  24  40  59  86 119 155 200 252 305 369
#     4  11  22  36  53  85 119 159 193 241 297 361
#     4   9  18  35  59  87 120 156 199 254 309 359
#
# _framework density 18.346598
#
# number of rings (size 3 to 8) (size 9 to 14) (size 15 to 20)
#    0.000    1.500    3.333    4.500    0.000    0.333 
#    0.000    3.333    0.000    3.000    0.000   11.667 
#    0.000    0.000    0.000    0.000    0.000    0.000 
#
# Total GULP energy -267545.732557 kJ/mol
# GULP energy per Si atom -5573.869428 kJ/mol
# Density = 1.830484 g / cm^3
# Si number density = 18.346598 Si / 1000 Ang^3
#
#
#
# Elastic Constant Matrix: (Units=GPa)
#
#
# Indices 1 2 3 4 5 6 
#
# 1 135.7736 73.0429 34.7751 0.0000 0.0000 0.0000
# 2 73.0429 112.7662 37.3135 0.0000 0.0000 0.0000
# 3 34.7751 37.3135 65.5139 0.0000 0.0000 0.0000
# 4 0.0000 0.0000 0.0000 11.8673 0.0000 0.0000
# 5 0.0000 0.0000 0.0000 0.0000 19.4865 0.0000
# 6 0.0000 0.0000 0.0000 0.0000 0.0000 20.8997
#
#
#
# Elastic Compliance Matrix: (Units=1/GPa)
#
#
# Indices 1 2 3 4 5 6 
#
# 1 0.011581 -0.006737 -0.002310 0.000000 0.000000 0.000000
# 2 -0.006737 0.014847 -0.004880 0.000000 0.000000 0.000000
# 3 -0.002310 -0.004880 0.019269 0.000000 0.000000 0.000000
# 4 0.000000 0.000000 0.000000 0.084265 0.000000 0.000000
# 5 0.000000 0.000000 0.000000 0.000000 0.051318 0.000000
# 6 0.000000 0.000000 0.000000 0.000000 0.000000 0.047848
#
#
# Mechanical properties :
#
#
# Convention : Reuss Voigt Hill
#
# Bulk Modulus (GPa) = 56.04440 67.14630 61.59535
# Shear Modulus (GPa) = 19.01650 21.71219 20.36435
#
# Velocity S-wave (km/s) = 3.22299 3.44386 3.33525
# Velocity P-wave (km/s) = 6.66814 7.24512 6.96261
#
# Compressibility (1/GPa) = 0.01784300
#
# Stress axis : x y z
#
# Youngs Moduli (GPa) = 86.34539 67.35578 51.89558
#
# Poissons Ratio (x) = 0.45379 0.11989
# Poissons Ratio (y) = 0.58173 0.25323
# Poissons Ratio (z) = 0.19948 0.32868
#
# Static dielectric constant tensor:
#      x y z
#    x 1.634160 0.000000 0.000000 
#    y 0.000000 1.657660 0.000000 
#    z 0.000000 0.000000 1.686580 
# 
# From -- ./inp_files/25298.got.cif
#   From: 2010.05.17/outbox.cif.g08.bks.cpg/sg74_13_cif.got.tgz:25298.got - 2010.06.03 17:57:02.
