data_PCOD9540628
_publ_section_title
;
Structure prediction by ZEFSAII (Michael W. Deem and Ramdas Pophale) SiO2 
 PCOD9540628
Probable space group: I M M A
;
_chemical_formula_sum "Si O2"
_cell_formula_units_Z 88
_cell_length_a 11.618412
_cell_length_b 31.215219
_cell_length_c 12.046885
_cell_angle_alpha 90.000000
_cell_angle_beta 90.000000
_cell_angle_gamma 90.000000
_cell_volume 4369.059143
_symmetry_space_group_name_H-M "I M M A"
_symmetry_group_IT_number 74
_symmetry_cell_setting 'orthorhombic'
loop_
_space_group_symop_operation_xyz
x,y,z
-x,1/2-y,z
x,-y,-z
-x,1/2+y,-z
-x,-y,-z
x,1/2+y,-z
-x,y,z
x,1/2-y,z
1/2+x,1/2+y,1/2+z
1/2-x,-y,1/2+z
1/2+x,1/2-y,1/2-z
1/2-x,y,1/2-z
1/2-x,1/2-y,1/2-z
1/2+x,y,1/2-z
1/2-x,1/2+y,1/2+z
1/2+x,-y,1/2+z
loop_
_atom_site_type_symbol
_atom_site_label
_atom_site_fract_x
_atom_site_fract_y
_atom_site_fract_z
Si Si1 0.000000 0.797643 0.610744
Si Si2 0.187942 0.202326 0.581977
Si Si3 0.000000 0.629680 0.794718
Si Si4 0.000000 0.297546 0.776382
Si Si5 0.750000 0.416466 0.250000
Si Si6 0.000000 0.876476 0.052543
Si Si7 0.632239 0.451449 0.040945
Si Si8 0.763094 0.891207 0.118763
O O1 0.892119 0.801034 0.526859
O O2 0.000000 0.750000 0.658866
O O3 0.000000 0.831613 0.707558
O O4 0.242070 0.250000 0.581132
O O5 0.258907 0.159016 0.585730
O O6 0.107994 0.200306 0.691820
O O7 0.872458 0.607990 0.773804
O O8 0.000000 0.639475 0.926112
O O9 0.000000 0.336944 0.860005
O O10 0.000000 0.250000 0.827670
O O11 0.718180 0.443677 0.142081
O O12 0.888101 0.904869 0.077531
O O13 0.500000 0.443162 0.075120
O O14 0.640100 0.500000 0.000000
O O15 0.666494 0.417829 0.945220
O O16 0.750000 0.895351 0.250000
#
# Coordination Sequence:
#
# PCOD9540628 Si02
#       8
#     8  16   8   8   8   8  16  16
#     4   9  20  39  65  92 126 184 243 288 334 403
#     4   9  19  37  64  94 128 180 235 280 336 405
#     4  12  25  44  71  98 141 183 233 284 350 414
#     4   9  18  35  57  89 134 175 223 279 337 398
#     4  12  24  48  75 104 136 182 225 288 350 416
#     4  12  25  40  56 103 133 176 222 278 348 398
#     4  11  27  49  75 104 135 180 230 279 350 426
#     4  12  25  41  67  98 141 179 227 284 342 411
#
# _framework density 20.141636999999999
#
# number of rings (size 3 to 8) (size 9 to 14) (size 15 to 20)
#    0.000    1.273    4.545    2.182    5.091    1.455 
#    0.000    2.273    0.000    0.000    0.000    0.000 
#    0.000    0.000    0.000    0.000    0.000    0.000 
#
# Total GULP energy -245581.234525 kJ/mol
# GULP energy per Si atom -5581.391694 kJ/mol
# Density = 2.009579 g / cm^3
# Si number density = 20.141637 Si / 1000 Ang^3
#
#
#
# Elastic Constant Matrix: (Units=GPa)
#
#
# Indices 1 2 3 4 5 6 
#
# 1 127.1937 47.9031 35.5831 0.0005 0.0004 0.0061
# 2 47.9031 79.2573 44.5421 -0.0004 -0.0001 0.0003
# 3 35.5831 44.5421 136.6615 0.0003 0.0025 0.0134
# 4 0.0005 -0.0004 0.0003 42.2623 0.0015 0.0210
# 5 0.0004 -0.0001 0.0025 0.0015 23.6910 0.0051
# 6 0.0061 0.0003 0.0134 0.0210 0.0051 739.1706
#
#
#
# Elastic Compliance Matrix: (Units=1/GPa)
#
#
# Indices 1 2 3 4 5 6 
#
# 1 0.010249 -0.005748 -0.000795 0.000000 0.000000 0.000000
# 2 -0.005748 0.018670 -0.004588 0.000000 0.000001 0.000000
# 3 -0.000795 -0.004588 0.009020 0.000000 -0.000001 0.000000
# 4 0.000000 0.000000 0.000000 0.023662 -0.000001 -0.000001
# 5 0.000000 0.000001 -0.000001 -0.000001 0.042210 0.000000
# 6 0.000000 0.000000 0.000000 -0.000001 0.000000 0.001353
#
#
# Mechanical properties :
#
#
# Convention : Reuss Voigt Hill
#
# Bulk Modulus (GPa) = 63.79180 66.57433 65.18306
# Shear Modulus (GPa) = 37.69268 175.36371 106.52820
#
# Velocity S-wave (km/s) = 4.33064 9.34100 7.28041
# Velocity P-wave (km/s) = 7.53301 12.22554 10.15407
#
# Compressibility (1/GPa) = 0.01567600
#
# Stress axis : x y z
#
# Youngs Moduli (GPa) = 97.56893 53.56268 110.86545
#
# Poissons Ratio (x) = 0.30786 0.08817
# Poissons Ratio (y) = 0.56079 0.50870
# Poissons Ratio (z) = 0.07760 0.24577
#
# Static dielectric constant tensor:
#      x y z
#    x 1.796920 0.000000 0.000000 
#    y 0.000000 1.716720 0.000000 
#    z 0.000000 0.000000 1.679040 
# 
# From -- ./inp_files/19124.got.cif
#   From: 2010.05.17/outbox.cif.g08.bks.cpg/sg74_10_cif.got.tgz:19124.got - 2010.06.03 17:57:02.
