data_PCOD9540873
_publ_section_title
;
Structure prediction by ZEFSAII (Michael W. Deem and Ramdas Pophale) SiO2 
 PCOD9540873
Probable space group: I M M A
;
_chemical_formula_sum "Si O2"
_cell_formula_units_Z 48
_cell_length_a 21.000000
_cell_length_b 9.000000
_cell_length_c 27.000000
_cell_angle_alpha 90.000000
_cell_angle_beta 90.000000
_cell_angle_gamma 90.000000
_cell_volume 5103.000000
_symmetry_space_group_name_H-M "I M M A"
_symmetry_group_IT_number 74
_symmetry_cell_setting 'orthorhombic'
loop_
_space_group_symop_operation_xyz
x,y,z
-x,1/2-y,z
x,-y,-z
-x,1/2+y,-z
-x,-y,-z
x,1/2+y,-z
-x,y,z
x,1/2-y,z
1/2+x,1/2+y,1/2+z
1/2-x,-y,1/2+z
1/2+x,1/2-y,1/2-z
1/2-x,y,1/2-z
1/2-x,1/2-y,1/2-z
1/2+x,y,1/2-z
1/2-x,1/2+y,1/2+z
1/2+x,-y,1/2+z
loop_
_atom_site_type_symbol
_atom_site_label
_atom_site_fract_x
_atom_site_fract_y
_atom_site_fract_z
Si Si1 0.427752 0.571287 0.916143
Si Si2 0.570358 0.571688 0.446292
Si Si3 0.318709 0.071218 0.271880
Si Si4 0.200518 0.927570 0.450057
Si Si5 0.070157 0.930273 0.700055
Si Si6 0.687522 0.571147 0.378200
O O1 0.500000 0.532773 0.931896
O O2 0.420675 0.750000 0.921432
O O3 0.370596 0.488350 0.942737
O O4 0.421918 0.533279 0.857748
O O5 0.575588 0.500000 0.500000
O O6 0.500000 0.533965 0.425829
O O7 0.573457 0.750000 0.451238
O O8 0.628814 0.524089 0.412654
O O9 0.323587 0.250000 0.275502
O O10 0.250000 0.034930 0.250000
O O11 0.373760 0.016147 0.235072
O O12 0.322181 0.000947 0.325442
O O13 0.200274 0.750000 0.454407
O O14 0.245989 0.970827 0.404374
O O15 0.227338 0.000000 0.500000
O O16 0.070493 0.750000 0.701834
O O17 0.000000 0.980931 0.716212
O O18 0.686787 0.750000 0.374130
#
# Coordination Sequence:
#
# PCOD9540873 Si02
#       6
#    16  16  16  16  16  16
#     4   9  18  35  59  82 105 136 172 211 256 304
#     4   9  18  34  55  77 103 135 171 212 257 306
#     4  10  20  33  52  77 102 132 172 214 253 299
#     4  11  23  37  54  76 104 137 173 215 259 307
#     4   8  15  30  52  77 104 133 167 208 252 299
#     4  10  22  37  52  75 106 138 172 212 260 309
#
# _framework density 9.4062319999999993
#
# number of rings (size 3 to 8) (size 9 to 14) (size 15 to 20)
#    0.000    2.500    0.000    3.000    0.000    5.000 
#    0.000    0.833    0.000    1.000    0.000    0.000 
#    0.000    0.000    0.000    0.000    0.000    0.000 
#
# Total GULP energy -267769.270086 kJ/mol
# GULP energy per Si atom -5578.526460 kJ/mol
# Density = 0.938482 g / cm^3
# Si number density = 9.406232 Si / 1000 Ang^3
#
#
#
# Elastic Constant Matrix: (Units=GPa)
#
#
# Indices 1 2 3 4 5 6 
#
# 1 106.6803 25.8624 46.5377 0.0000 0.0000 0.0000
# 2 25.8624 2.5710 10.9647 0.0000 0.0000 0.0000
# 3 46.5377 10.9647 65.9226 0.0000 0.0000 0.0000
# 4 0.0000 0.0000 0.0000 31.8393 0.0000 0.0000
# 5 0.0000 0.0000 0.0000 0.0000 33.0389 0.0000
# 6 0.0000 0.0000 0.0000 0.0000 0.0000 9.8958
#
#
#
# Elastic Compliance Matrix: (Units=1/GPa)
#
#
# Indices 1 2 3 4 5 6 
#
# 1 -0.002735 0.066324 -0.009101 0.000000 0.000000 0.000000
# 2 0.066324 -0.270197 -0.001880 0.000000 0.000000 0.000000
# 3 -0.009101 -0.001880 0.021907 0.000000 0.000000 0.000000
# 4 0.000000 0.000000 0.000000 0.031408 0.000000 0.000000
# 5 0.000000 0.000000 0.000000 0.000000 0.030267 0.000000
# 6 0.000000 0.000000 0.000000 0.000000 0.000000 0.101053
#
#
# Mechanical properties :
#
#
# Convention : Reuss Voigt Hill
#
# Bulk Modulus (GPa) = -7.12560 37.98929 15.43184
# Shear Modulus (GPa) = -20.34477 21.07538 0.36531
#
# Velocity S-wave (km/s) = -3.29211 3.35070 0.44114
# Velocity P-wave (km/s) = 4.27160 5.93356 2.91209
#
# Compressibility (1/GPa) = -0.14033896
#
# Stress axis : x y z
#
# Youngs Moduli (GPa) = -365.63696 -3.70100 45.64838
#
# Poissons Ratio (x) = 0.24546 0.41543
# Poissons Ratio (y) = 24.25040 0.08581
# Poissons Ratio (z) = -3.32756 -0.00696
#
# Static dielectric constant tensor:
#      x y z
#    x 1.665520 0.000000 0.000000 
#    y 0.000000 1.627630 0.000000 
#    z 0.000000 0.000000 1.632560 
# 
# From -- ./inp_files/64320.got.cif
#   From: 2010.05.17/outbox.ucp.g08.bks.cvg/sg74_33_cif.got.tgz:64320.got - 2010.06.11 16:37:44.
