data_PCOD9540466
_publ_section_title
;
Structure prediction by ZEFSAII (Michael W. Deem and Ramdas Pophale) SiO2 
 PCOD9540466
Probable space group: I M M A
;
_chemical_formula_sum "Si O2"
_cell_formula_units_Z 64
_cell_length_a 22.136990
_cell_length_b 14.595800
_cell_length_c 8.625264
_cell_angle_alpha 90.000000
_cell_angle_beta 90.000000
_cell_angle_gamma 90.000000
_cell_volume 2786.883854
_symmetry_space_group_name_H-M "I M M A"
_symmetry_group_IT_number 74
_symmetry_cell_setting 'orthorhombic'
loop_
_space_group_symop_operation_xyz
x,y,z
-x,1/2-y,z
x,-y,-z
-x,1/2+y,-z
-x,-y,-z
x,1/2+y,-z
-x,y,z
x,1/2-y,z
1/2+x,1/2+y,1/2+z
1/2-x,-y,1/2+z
1/2+x,1/2-y,1/2-z
1/2-x,y,1/2-z
1/2-x,1/2-y,1/2-z
1/2+x,y,1/2-z
1/2-x,1/2+y,1/2+z
1/2+x,-y,1/2+z
loop_
_atom_site_type_symbol
_atom_site_label
_atom_site_fract_x
_atom_site_fract_y
_atom_site_fract_z
Si Si1 0.000000 0.644679 0.546896
Si Si2 0.500000 0.854309 0.578082
Si Si3 0.820720 0.750000 0.226165
Si Si4 0.186964 0.750000 0.847644
Si Si5 0.122264 0.934984 0.882313
Si Si6 0.620377 0.071018 0.886957
O O1 0.000000 0.642927 0.733750
O O2 0.939322 0.602245 0.477481
O O3 0.000000 0.750000 0.498757
O O4 0.500000 0.750000 0.525124
O O5 0.437365 0.899109 0.530198
O O6 0.750000 0.750000 0.250000
O O7 0.847806 0.840200 0.311437
O O8 0.822561 0.750000 0.037042
O O9 0.250000 0.750000 0.750000
O O10 0.154298 0.846158 0.809483
O O11 0.102443 0.004035 0.750708
O O12 0.159833 0.000000 0.000000
O O13 0.656721 0.000000 0.000000
#
# Coordination Sequence:
#
# PCOD9540466 Si02
#       6
#     8   8   8   8  16  16
#     4  11  22  40  73 110 153 197 238 304 382 456
#     4  11  22  39  73 109 151 195 242 301 383 453
#     4  12  30  53  74 107 147 198 256 318 381 448
#     4  12  30  53  74 105 149 196 258 322 379 444
#     4  12  25  47  73 109 149 196 246 309 384 455
#     4  12  25  46  77 111 152 195 248 309 380 457
#
# _framework density 22.964718999999999
#
# number of rings (size 3 to 8) (size 9 to 14) (size 15 to 20)
#    0.000    0.250    7.500    1.500    3.500    1.000 
#    0.000    2.500    0.000    0.000    0.000    0.000 
#    0.000    0.000    0.000    0.000    0.000    0.000 
#
# Total GULP energy -178621.634251 kJ/mol
# GULP energy per Si atom -5581.926070 kJ/mol
# Density = 2.291245 g / cm^3
# Si number density = 22.964719 Si / 1000 Ang^3
#
#
#
# Elastic Constant Matrix: (Units=GPa)
#
#
# Indices 1 2 3 4 5 6 
#
# 1 108.8693 71.4606 21.9270 0.0000 0.0000 0.0000
# 2 71.4606 229.2639 53.6235 0.0000 0.0000 0.0000
# 3 21.9270 53.6235 95.1025 0.0000 0.0000 0.0000
# 4 0.0000 0.0000 0.0000 46.0062 0.0000 0.0000
# 5 0.0000 0.0000 0.0000 0.0000 21.8966 0.0000
# 6 0.0000 0.0000 0.0000 0.0000 0.0000 -17.5713
#
#
#
# Elastic Compliance Matrix: (Units=1/GPa)
#
#
# Indices 1 2 3 4 5 6 
#
# 1 0.011592 -0.003442 -0.000732 0.000000 0.000000 0.000000
# 2 -0.003442 0.006046 -0.002616 0.000000 0.000000 0.000000
# 3 -0.000732 -0.002616 0.012159 0.000000 0.000000 0.000000
# 4 0.000000 0.000000 0.000000 0.021736 0.000000 0.000000
# 5 0.000000 0.000000 0.000000 0.000000 0.045669 0.000000
# 6 0.000000 0.000000 0.000000 0.000000 0.000000 -0.056911
#
#
# Mechanical properties :
#
#
# Convention : Reuss Voigt Hill
#
# Bulk Modulus (GPa) = 61.66046 80.80643 71.23345
# Shear Modulus (GPa) = 84.35031 29.14794 56.74912
#
# Velocity S-wave (km/s) = 6.06714 3.56652 4.97645
# Velocity P-wave (km/s) = 8.71714 7.22659 8.00663
#
# Compressibility (1/GPa) = 0.01621785
#
# Stress axis : x y z
#
# Youngs Moduli (GPa) = 86.26622 165.38667 82.24650
#
# Poissons Ratio (x) = 0.56926 0.06020
# Poissons Ratio (y) = 0.29693 0.21513
# Poissons Ratio (z) = 0.06314 0.43260
#
# Static dielectric constant tensor:
#      x y z
#    x 1.836090 0.000000 0.000000 
#    y 0.000000 1.930100 0.000000 
#    z 0.000000 0.000000 1.956180 
# 
# From -- ./inp_files/13354.got.cif
#   From: 2010.05.17/outbox.cif.g08.bks.cpg/sg74_7_cif.got.tgz:13354.got - 2010.06.03 17:57:02.
