data_PCOD9540160
_publ_section_title
;
Structure prediction by ZEFSAII (Michael W. Deem and Ramdas Pophale) SiO2 
 PCOD9540160
Probable space group: I M M A
;
_chemical_formula_sum "Si O2"
_cell_formula_units_Z 76
_cell_length_a 22.647271
_cell_length_b 12.069013
_cell_length_c 14.932092
_cell_angle_alpha 90.000000
_cell_angle_beta 90.000000
_cell_angle_gamma 90.000000
_cell_volume 4081.391814
_symmetry_space_group_name_H-M "I M M A"
_symmetry_group_IT_number 74
_symmetry_cell_setting 'orthorhombic'
loop_
_space_group_symop_operation_xyz
x,y,z
-x,1/2-y,z
x,-y,-z
-x,1/2+y,-z
-x,-y,-z
x,1/2+y,-z
-x,y,z
x,1/2-y,z
1/2+x,1/2+y,1/2+z
1/2-x,-y,1/2+z
1/2+x,1/2-y,1/2-z
1/2-x,y,1/2-z
1/2-x,1/2-y,1/2-z
1/2+x,y,1/2-z
1/2-x,1/2+y,1/2+z
1/2+x,-y,1/2+z
loop_
_atom_site_type_symbol
_atom_site_label
_atom_site_fract_x
_atom_site_fract_y
_atom_site_fract_z
Si Si1 0.678426 0.475234 0.592755
Si Si2 0.252226 0.250000 0.639829
Si Si3 0.500000 0.375363 0.173926
Si Si4 0.500000 0.750000 0.001914
Si Si5 0.113960 0.250000 0.631007
Si Si6 0.220708 0.875063 0.650923
Si Si7 0.614699 0.986953 0.219202
O O1 0.645525 0.500000 0.500000
O O2 0.711979 0.358547 0.608406
O O3 0.729444 0.568862 0.591644
O O4 0.637609 0.490789 0.679235
O O5 0.250000 0.250000 0.750000
O O6 0.184155 0.250000 0.605282
O O7 0.500000 0.250000 0.211227
O O8 0.443291 0.441969 0.204509
O O9 0.500000 0.354262 0.066585
O O10 0.560974 0.750000 0.058121
O O11 0.106195 0.361194 0.688718
O O12 0.204994 0.750000 0.624873
O O13 0.250000 0.871278 0.750000
O O14 0.165189 0.955447 0.658785
#
# Coordination Sequence:
#
# PCOD9540160 Si02
#       7
#    16   8   8   4   8  16  16
#     4  11  23  37  61  98 130 166 225 269 317 397
#     4  12  20  44  63  93 137 181 211 265 340 402
#     4  10  25  47  65  88 130 162 216 271 342 380
#     4  10  28  46  62 108 120 164 228 282 302 408
#     4  12  22  40  70  88 135 171 216 263 329 392
#     4   9  18  34  57  86 123 166 212 256 320 385
#     4  11  21  41  66  87 126 180 207 266 336 398
#
# _framework density 18.621099000000001
#
# number of rings (size 3 to 8) (size 9 to 14) (size 15 to 20)
#    0.316    1.053    4.211    1.895    1.474    4.211 
#    0.000    0.526    0.000    0.000    0.000    0.000 
#    0.000    0.000    0.000    0.000    0.000    0.000 
#
# Total GULP energy -212059.691553 kJ/mol
# GULP energy per Si atom -5580.518199 kJ/mol
# Density = 1.857872 g / cm^3
# Si number density = 18.621099 Si / 1000 Ang^3
#
#
#
# Elastic Constant Matrix: (Units=GPa)
#
#
# Indices 1 2 3 4 5 6 
#
# 1 129.8280 49.7589 54.0181 0.0000 0.0000 0.0000
# 2 49.7589 158.1929 50.7036 0.0000 0.0000 0.0000
# 3 54.0181 50.7036 108.7583 0.0000 0.0000 0.0000
# 4 0.0000 0.0000 0.0000 14.0836 0.0000 0.0000
# 5 0.0000 0.0000 0.0000 0.0000 24.0590 0.0000
# 6 0.0000 0.0000 0.0000 0.0000 0.0000 147.2334
#
#
#
# Elastic Compliance Matrix: (Units=1/GPa)
#
#
# Indices 1 2 3 4 5 6 
#
# 1 0.010151 -0.001854 -0.004178 0.000000 0.000000 0.000000
# 2 -0.001854 0.007771 -0.002702 0.000000 0.000000 0.000000
# 3 -0.004178 -0.002702 0.012529 0.000000 0.000000 0.000000
# 4 0.000000 0.000000 0.000000 0.071005 0.000000 0.000000
# 5 0.000000 0.000000 0.000000 0.000000 0.041565 0.000000
# 6 0.000000 0.000000 0.000000 0.000000 0.000000 0.006792
#
#
# Mechanical properties :
#
#
# Convention : Reuss Voigt Hill
#
# Bulk Modulus (GPa) = 77.01670 78.41560 77.71615
# Shear Modulus (GPa) = 29.13631 53.22842 41.18237
#
# Velocity S-wave (km/s) = 3.95991 5.35229 4.70786
# Velocity P-wave (km/s) = 7.89668 8.96653 8.44856
#
# Compressibility (1/GPa) = 0.01298420
#
# Stress axis : x y z
#
# Youngs Moduli (GPa) = 98.50973 128.69096 79.81349
#
# Poissons Ratio (x) = 0.23860 0.33343
# Poissons Ratio (y) = 0.18264 0.21564
# Poissons Ratio (z) = 0.41153 0.34770
#
# Static dielectric constant tensor:
#      x y z
#    x 1.627890 0.000000 0.000000 
#    y 0.000000 1.638830 0.000000 
#    z 0.000000 0.000000 1.677290 
# 
# From -- ./inp_files/36220.got.cif
#   From: 2010.05.17/outbox.cif.g08.bks.cpg/sg74_19_cif.got.tgz:36220.got - 2010.06.03 17:57:02.
