data_PCOD9540147
_publ_section_title
;
Structure prediction by ZEFSAII (Michael W. Deem and Ramdas Pophale) SiO2 
 PCOD9540147
Probable space group: I M M A
;
_chemical_formula_sum "Si O2"
_cell_formula_units_Z 112
_cell_length_a 15.897159
_cell_length_b 23.045814
_cell_length_c 14.264072
_cell_angle_alpha 90.000000
_cell_angle_beta 90.000000
_cell_angle_gamma 90.000000
_cell_volume 5225.827774
_symmetry_space_group_name_H-M "I M M A"
_symmetry_group_IT_number 74
_symmetry_cell_setting 'orthorhombic'
loop_
_space_group_symop_operation_xyz
x,y,z
-x,1/2-y,z
x,-y,-z
-x,1/2+y,-z
-x,-y,-z
x,1/2+y,-z
-x,y,z
x,1/2-y,z
1/2+x,1/2+y,1/2+z
1/2-x,-y,1/2+z
1/2+x,1/2-y,1/2-z
1/2-x,y,1/2-z
1/2-x,1/2-y,1/2-z
1/2+x,y,1/2-z
1/2-x,1/2+y,1/2+z
1/2+x,-y,1/2+z
loop_
_atom_site_type_symbol
_atom_site_label
_atom_site_fract_x
_atom_site_fract_y
_atom_site_fract_z
Si Si1 0.906763 0.152135 0.152006
Si Si2 0.091723 0.923513 0.257640
Si Si3 0.627425 0.020054 0.394151
Si Si4 0.248145 0.682952 0.527905
Si Si5 0.325204 0.504948 0.890243
Si Si6 0.596449 0.124163 0.135042
Si Si7 0.677725 0.316023 0.671664
O O1 0.827217 0.178440 0.098486
O O2 0.895205 0.155276 0.264168
O O3 0.000000 0.175560 0.127975
O O4 0.906167 0.083961 0.125536
O O5 0.094311 0.971683 0.176350
O O6 0.157541 0.945835 0.334744
O O7 0.112378 0.862429 0.210483
O O8 0.000000 0.922412 0.302556
O O9 0.728264 0.022373 0.379779
O O10 0.610836 0.000000 0.500000
O O11 0.222524 0.750000 0.518540
O O12 0.168584 0.647331 0.565832
O O13 0.282836 0.663325 0.426854
O O14 0.383298 0.556156 0.850036
O O15 0.343812 0.500000 0.000000
O O16 0.500000 0.131322 0.102641
O O17 0.645530 0.250000 0.658166
O O18 0.750000 0.313732 0.750000
#
# Coordination Sequence:
#
# PCOD9540147 Si02
#       7
#    16  16  16  16  16  16  16
#     4  11  23  40  64  98 136 172 219 278 339 408
#     4  12  25  39  63 100 134 171 216 269 337 404
#     4  11  22  37  61  91 127 174 220 266 328 396
#     4  11  25  45  70  97 128 178 231 276 338 404
#     4  11  24  41  65  95 132 175 220 270 329 397
#     4  11  24  42  65  97 137 174 218 281 341 400
#     4  10  24  47  70  93 127 173 230 283 327 393
#
# _framework density 21.432012
#
# number of rings (size 3 to 8) (size 9 to 14) (size 15 to 20)
#    0.000    1.000    2.857    3.429    4.000    6.000 
#    0.000    2.857    0.000    2.571    0.000    0.000 
#    0.000    0.000    0.000    0.000    0.000    0.000 
#
# Total GULP energy -313319.027497 kJ/mol
# GULP energy per Si atom -5594.982634 kJ/mol
# Density = 2.138323 g / cm^3
# Si number density = 21.432012 Si / 1000 Ang^3
#
#
#
# Elastic Constant Matrix: (Units=GPa)
#
#
# Indices 1 2 3 4 5 6 
#
# 1 106.8160 14.6563 41.2174 0.0000 0.0000 0.0000
# 2 14.6563 65.9641 8.8328 0.0000 0.0000 0.0000
# 3 41.2174 8.8328 85.0472 0.0000 0.0000 0.0000
# 4 0.0000 0.0000 0.0000 28.7127 0.0000 0.0000
# 5 0.0000 0.0000 0.0000 0.0000 100.7460 -0.0001
# 6 0.0000 0.0000 0.0000 0.0000 -0.0001 23.3227
#
#
#
# Elastic Compliance Matrix: (Units=1/GPa)
#
#
# Indices 1 2 3 4 5 6 
#
# 1 0.011739 -0.001873 -0.005495 0.000000 0.000000 0.000000
# 2 -0.001873 0.015672 -0.000720 0.000000 0.000000 0.000000
# 3 -0.005495 -0.000720 0.014496 0.000000 0.000000 0.000000
# 4 0.000000 0.000000 0.000000 0.034828 0.000000 0.000000
# 5 0.000000 0.000000 0.000000 0.000000 0.009926 0.000000
# 6 0.000000 0.000000 0.000000 0.000000 0.000000 0.042877
#
#
# Mechanical properties :
#
#
# Convention : Reuss Voigt Hill
#
# Bulk Modulus (GPa) = 38.86153 43.02669 40.94411
# Shear Modulus (GPa) = 32.40646 43.43099 37.91872
#
# Velocity S-wave (km/s) = 3.89274 4.50650 4.21082
# Velocity P-wave (km/s) = 6.19487 6.87005 6.54117
#
# Compressibility (1/GPa) = 0.02573239
#
# Stress axis : x y z
#
# Youngs Moduli (GPa) = 85.18528 63.80707 68.98459
#
# Poissons Ratio (x) = 0.11948 0.37906
# Poissons Ratio (y) = 0.15951 0.04968
# Poissons Ratio (z) = 0.46808 0.04595
#
# Static dielectric constant tensor:
#      x y z
#    x 1.777700 0.000000 0.000000 
#    y 0.000000 1.766400 0.000000 
#    z 0.000000 0.000000 1.767690 
# 
# From -- ./inp_files/32749.got.cif
#   From: 2010.05.17/outbox.cif.g08.bks.cpg/sg74_17_cif.got.tgz:32749.got - 2010.06.03 17:57:02.
