data_PCOD9540493
_publ_section_title
;
Structure prediction by ZEFSAII (Michael W. Deem and Ramdas Pophale) SiO2 
 PCOD9540493
Probable space group: I M M A
;
_chemical_formula_sum "Si O2"
_cell_formula_units_Z 80
_cell_length_a 17.821844
_cell_length_b 7.522884
_cell_length_c 32.289520
_cell_angle_alpha 90.000000
_cell_angle_beta 90.000000
_cell_angle_gamma 90.000000
_cell_volume 4329.109711
_symmetry_space_group_name_H-M "I M M A"
_symmetry_group_IT_number 74
_symmetry_cell_setting 'orthorhombic'
loop_
_space_group_symop_operation_xyz
x,y,z
-x,1/2-y,z
x,-y,-z
-x,1/2+y,-z
-x,-y,-z
x,1/2+y,-z
-x,y,z
x,1/2-y,z
1/2+x,1/2+y,1/2+z
1/2-x,-y,1/2+z
1/2+x,1/2-y,1/2-z
1/2-x,y,1/2-z
1/2-x,1/2-y,1/2-z
1/2+x,y,1/2-z
1/2-x,1/2+y,1/2+z
1/2+x,-y,1/2+z
loop_
_atom_site_type_symbol
_atom_site_label
_atom_site_fract_x
_atom_site_fract_y
_atom_site_fract_z
Si Si1 0.740283 0.537847 0.546077
Si Si2 0.811212 0.539953 0.630730
Si Si3 0.855078 0.958359 0.832620
Si Si4 0.917717 0.533854 0.922227
Si Si5 0.089505 0.250000 0.673537
Si Si6 0.589921 0.750000 0.270595
O O1 0.766924 0.500000 0.500000
O O2 0.736029 0.750000 0.551384
O O3 0.792235 0.477269 0.583906
O O4 0.654995 0.469328 0.552641
O O5 0.829744 0.750000 0.630511
O O6 0.732107 0.519656 0.654994
O O7 0.873676 0.421134 0.651955
O O8 0.868611 0.750000 0.824531
O O9 0.901553 0.008769 0.874042
O O10 0.877841 0.079722 0.794574
O O11 0.918416 0.750000 0.924742
O O12 0.000000 0.470006 0.935190
O O13 0.109115 0.250000 0.722235
O O14 0.000000 0.250000 0.669485
O O15 0.500000 0.750000 0.274360
#
# Coordination Sequence:
#
# PCOD9540493 Si02
#       6
#    16  16  16  16   8   8
#     4   9  18  31  51  80 104 135 181 221 266 320
#     4   9  20  39  60  83 109 143 185 225 273 335
#     4   9  18  34  56  79 109 151 195 231 265 308
#     4   8  14  27  46  69 107 153 187 217 256 304
#     4  11  25  41  59  83 111 143 175 225 297 350
#     4  11  23  35  51  83 117 147 193 235 267 323
#
# _framework density 18.479551000000001
#
# number of rings (size 3 to 8) (size 9 to 14) (size 15 to 20)
#    0.000    2.800    0.000    3.600    1.400    4.400 
#    1.800    4.000    0.000    0.600    0.000    0.000 
#    0.000    0.000    0.000    0.000    0.000    0.000 
#
# Total GULP energy -223219.461606 kJ/mol
# GULP energy per Si atom -5580.486540 kJ/mol
# Density = 1.843749 g / cm^3
# Si number density = 18.479551 Si / 1000 Ang^3
#
#
#
# Elastic Constant Matrix: (Units=GPa)
#
#
# Indices 1 2 3 4 5 6 
#
# 1 34.7606 29.1523 47.5280 0.0000 0.0000 0.0000
# 2 29.1523 72.3690 48.7507 0.0000 0.0000 0.0000
# 3 47.5280 48.7507 143.8516 0.0000 0.0000 0.0000
# 4 0.0000 0.0000 0.0000 25.8314 0.0000 0.0000
# 5 0.0000 0.0000 0.0000 0.0000 5.8540 0.0000
# 6 0.0000 0.0000 0.0000 0.0000 0.0000 29.1105
#
#
#
# Elastic Compliance Matrix: (Units=1/GPa)
#
#
# Indices 1 2 3 4 5 6 
#
# 1 0.062460 -0.014590 -0.015692 0.000000 0.000000 0.000000
# 2 -0.014590 0.021314 -0.002403 0.000000 0.000000 0.000000
# 3 -0.015692 -0.002403 0.012950 0.000000 0.000000 0.000000
# 4 0.000000 0.000000 0.000000 0.038713 0.000000 0.000000
# 5 0.000000 0.000000 0.000000 0.000000 0.170824 0.000000
# 6 0.000000 0.000000 0.000000 0.000000 0.000000 0.034352
#
#
# Mechanical properties :
#
#
# Convention : Reuss Voigt Hill
#
# Bulk Modulus (GPa) = 31.89294 55.76034 43.82664
# Shear Modulus (GPa) = 12.00674 20.52919 16.26797
#
# Velocity S-wave (km/s) = 2.55175 3.33665 2.97024
# Velocity P-wave (km/s) = 5.09685 6.71446 5.96078
#
# Compressibility (1/GPa) = 0.03135490
#
# Stress axis : x y z
#
# Youngs Moduli (GPa) = 16.01035 46.91786 77.21722
#
# Poissons Ratio (x) = 0.68452 1.21169
# Poissons Ratio (y) = 0.23359 0.18554
# Poissons Ratio (z) = 0.25123 0.11273
#
# Static dielectric constant tensor:
#      x y z
#    x 1.618340 0.000000 0.000000 
#    y 0.000000 1.664970 0.000000 
#    z 0.000000 0.000000 1.635150 
# 
# From -- ./inp_files/72909.got.cif
#   From: 2010.05.17/outbox.cif.g08.bks.cpg/sg74_37_cif.got.tgz:72909.got - 2010.06.03 17:57:02.
