data_PCOD9540902
_publ_section_title
;
Structure prediction by ZEFSAII (Michael W. Deem and Ramdas Pophale) SiO2 
 PCOD9540902
Probable space group: I M M A
;
_chemical_formula_sum "Si O2"
_cell_formula_units_Z 44
_cell_length_a 9.000000
_cell_length_b 30.000000
_cell_length_c 18.000000
_cell_angle_alpha 90.000000
_cell_angle_beta 90.000000
_cell_angle_gamma 90.000000
_cell_volume 4860.000000
_symmetry_space_group_name_H-M "I M M A"
_symmetry_group_IT_number 74
_symmetry_cell_setting 'orthorhombic'
loop_
_space_group_symop_operation_xyz
x,y,z
-x,1/2-y,z
x,-y,-z
-x,1/2+y,-z
-x,-y,-z
x,1/2+y,-z
-x,y,z
x,1/2-y,z
1/2+x,1/2+y,1/2+z
1/2-x,-y,1/2+z
1/2+x,1/2-y,1/2-z
1/2-x,y,1/2-z
1/2-x,1/2-y,1/2-z
1/2+x,y,1/2-z
1/2-x,1/2+y,1/2+z
1/2+x,-y,1/2+z
loop_
_atom_site_type_symbol
_atom_site_label
_atom_site_fract_x
_atom_site_fract_y
_atom_site_fract_z
Si Si1 0.179014 0.923427 0.675410
Si Si2 0.178204 0.300424 0.669734
Si Si3 0.821775 0.161919 0.110813
Si Si4 0.177592 0.250000 0.330538
Si Si5 0.820466 0.129508 0.542119
Si Si6 0.671589 0.949231 0.522668
O O1 0.250000 0.943830 0.750000
O O2 0.253654 0.874768 0.666209
O O3 0.236252 0.945738 0.599252
O O4 0.000000 0.921614 0.678642
O O5 0.220415 0.250000 0.644343
O O6 0.250000 0.307688 0.750000
O O7 0.216695 0.339116 0.611651
O O8 0.000000 0.300890 0.677375
O O9 0.742051 0.207518 0.128654
O O10 0.000000 0.164210 0.116399
O O11 0.764239 0.148715 0.029469
O O12 0.250000 0.250000 0.250000
O O13 0.000000 0.250000 0.327171
O O14 0.755188 0.079642 0.540442
O O15 0.000000 0.129363 0.532062
O O16 0.500000 0.933252 0.533794
O O17 0.665391 0.000000 0.500000
#
# Coordination Sequence:
#
# PCOD9540902 Si02
#       6
#    16  16  16   8  16  16
#     4  11  21  36  58  82 109 143 181 224 273 326
#     4   9  19  35  55  81 112 148 187 230 280 333
#     4  11  22  36  53  78 108 142 184 224 267 320
#     4  12  24  38  52  72 105 142 181 224 268 312
#     4  10  20  35  57  83 110 146 185 227 278 332
#     4  10  21  38  59  83 112 145 183 232 285 337
#
# _framework density 9.0534979999999994
#
# number of rings (size 3 to 8) (size 9 to 14) (size 15 to 20)
#    0.000    1.636    0.000    7.909    1.273    2.909 
#    0.000    0.909    0.000    2.182    0.000    0.000 
#    0.000    0.000    0.000    0.000    0.000    0.000 
#
# Total GULP energy -245375.024261 kJ/mol
# GULP energy per Si atom -5576.705097 kJ/mol
# Density = 0.903289 g / cm^3
# Si number density = 9.053498 Si / 1000 Ang^3
#
#
#
# Elastic Constant Matrix: (Units=GPa)
#
#
# Indices 1 2 3 4 5 6 
#
# 1 161.0449 44.7324 41.0051 0.0000 0.0000 0.0000
# 2 44.7324 101.7854 46.3938 0.0000 0.0000 0.0000
# 3 41.0051 46.3938 84.8990 0.0000 0.0000 0.0000
# 4 0.0000 0.0000 0.0000 1.1155 0.0000 0.0000
# 5 0.0000 0.0000 0.0000 0.0000 33.0095 0.0000
# 6 0.0000 0.0000 0.0000 0.0000 0.0000 26.3930
#
#
#
# Elastic Compliance Matrix: (Units=1/GPa)
#
#
# Indices 1 2 3 4 5 6 
#
# 1 0.007423 -0.002168 -0.002400 0.000000 0.000000 0.000000
# 2 -0.002168 0.013717 -0.006448 0.000000 0.000000 0.000000
# 3 -0.002400 -0.006448 0.016462 0.000000 0.000000 0.000000
# 4 0.000000 0.000000 0.000000 0.896484 0.000000 -0.000001
# 5 0.000000 0.000000 0.000000 0.000000 0.030294 0.000000
# 6 0.000000 0.000000 0.000000 -0.000001 0.000000 0.037889
#
#
# Mechanical properties :
#
#
# Convention : Reuss Voigt Hill
#
# Bulk Modulus (GPa) = 64.23607 67.99908 66.11757
# Shear Modulus (GPa) = 4.85677 26.47681 15.66679
#
# Velocity S-wave (km/s) = 1.63954 3.82808 2.94468
# Velocity P-wave (km/s) = 6.25595 7.56138 6.93943
#
# Compressibility (1/GPa) = 0.01556758
#
# Stress axis : x y z
#
# Youngs Moduli (GPa) = 134.71932 72.90444 60.74658
#
# Poissons Ratio (x) = 0.15806 0.14581
# Poissons Ratio (y) = 0.29208 0.39172
# Poissons Ratio (z) = 0.32338 0.47012
#
# Static dielectric constant tensor:
#      x y z
#    x 1.596090 0.000000 0.000000 
#    y 0.000000 1.913390 0.000000 
#    z 0.000000 0.000000 1.582040 
# 
# From -- ./inp_files/40063.got.cif
#   From: 2010.05.17/outbox.ucp.g08.bks.cvg/sg74_21_cif.got.tgz:40063.got - 2010.06.11 16:37:44.
