data_PCOD9540618
_publ_section_title
;
Structure prediction by ZEFSAII (Michael W. Deem and Ramdas Pophale) SiO2 
 PCOD9540618
Probable space group: I M M A
;
_chemical_formula_sum "Si O2"
_cell_formula_units_Z 40
_cell_length_a 31.512088
_cell_length_b 11.002889
_cell_length_c 4.946169
_cell_angle_alpha 90.000000
_cell_angle_beta 90.000000
_cell_angle_gamma 90.000000
_cell_volume 1714.955532
_symmetry_space_group_name_H-M "I M M A"
_symmetry_group_IT_number 74
_symmetry_cell_setting 'orthorhombic'
loop_
_space_group_symop_operation_xyz
x,y,z
-x,1/2-y,z
x,-y,-z
-x,1/2+y,-z
-x,-y,-z
x,1/2+y,-z
-x,y,z
x,1/2-y,z
1/2+x,1/2+y,1/2+z
1/2-x,-y,1/2+z
1/2+x,1/2-y,1/2-z
1/2-x,y,1/2-z
1/2-x,1/2-y,1/2-z
1/2+x,y,1/2-z
1/2-x,1/2+y,1/2+z
1/2+x,-y,1/2+z
loop_
_atom_site_type_symbol
_atom_site_label
_atom_site_fract_x
_atom_site_fract_y
_atom_site_fract_z
Si Si1 0.700331 0.618422 0.679392
Si Si2 0.073666 0.000000 0.000000
Si Si3 0.136567 0.000000 0.500000
Si Si4 0.500000 0.616772 0.204832
O O1 0.690742 0.500000 0.500000
O O2 0.692373 0.750000 0.550182
O O3 0.750000 0.612130 0.750000
O O4 0.670530 0.607210 0.943100
O O5 0.041101 0.102879 0.896507
O O6 0.104639 0.982884 0.748547
O O7 0.500000 0.750000 0.071993
O O8 0.500000 0.500000 0.000000
#
# Coordination Sequence:
#
# PCOD9540618 Si02
#       4
#    16   8   8   8
#     4  11  25  45  73 109 153 206 259 318 385 452
#     4  11  26  49  72 111 152 201 248 309 376 461
#     4  12  24  48  72 111 150 199 256 314 374 442
#     4  11  26  51  82 116 155 203 250 314 394 469
#
# _framework density 23.32422
#
# number of rings (size 3 to 8) (size 9 to 14) (size 15 to 20)
#    0.000    0.800    6.000    0.000    0.000    8.800 
#    0.000    0.000    0.000    0.000    0.000    0.000 
#    0.000    0.000    0.000    0.000    0.000    0.000 
#
# Total GULP energy -111442.064285 kJ/mol
# GULP energy per Si atom -5572.103214 kJ/mol
# Density = 2.327113 g / cm^3
# Si number density = 23.324220 Si / 1000 Ang^3
#
#
#
# Elastic Constant Matrix: (Units=GPa)
#
#
# Indices 1 2 3 4 5 6 
#
# 1 193.3877 30.1562 51.8667 -0.0003 -0.0004 0.0002
# 2 30.1562 205.9903 54.8430 -0.0032 -0.0013 -0.0023
# 3 51.8667 54.8430 132.6580 -0.0039 -0.0023 -0.0011
# 4 -0.0003 -0.0032 -0.0039 35.0008 -0.0013 -0.0016
# 5 -0.0004 -0.0013 -0.0023 -0.0013 10.5236 -0.0005
# 6 0.0002 -0.0023 -0.0011 -0.0016 -0.0005 -17.8026
#
#
#
# Elastic Compliance Matrix: (Units=1/GPa)
#
#
# Indices 1 2 3 4 5 6 
#
# 1 0.005791 -0.000275 -0.002150 0.000000 0.000000 0.000000
# 2 -0.000275 0.005468 -0.002153 0.000000 0.000000 -0.000001
# 3 -0.002150 -0.002153 0.009269 0.000001 0.000002 0.000000
# 4 0.000000 0.000000 0.000001 0.028571 0.000004 -0.000003
# 5 0.000000 0.000000 0.000002 0.000004 0.095025 -0.000003
# 6 0.000000 -0.000001 0.000000 -0.000003 -0.000003 -0.056172
#
#
# Mechanical properties :
#
#
# Convention : Reuss Voigt Hill
#
# Bulk Modulus (GPa) = 87.94501 89.52975 88.73738
# Shear Modulus (GPa) = 49.55457 31.88903 40.72180
#
# Velocity S-wave (km/s) = 4.61434 3.70159 4.18293
# Velocity P-wave (km/s) = 8.13491 7.53241 7.83945
#
# Compressibility (1/GPa) = 0.01137074
#
# Stress axis : x y z
#
# Youngs Moduli (GPa) = 172.69466 182.87868 107.88705
#
# Poissons Ratio (x) = 0.05034 0.23198
# Poissons Ratio (y) = 0.04753 0.23228
# Poissons Ratio (z) = 0.37133 0.39374
#
# Static dielectric constant tensor:
#      x y z
#    x 1.868590 0.000000 0.000000 
#    y 0.000000 1.901010 0.000000 
#    z 0.000000 0.000000 2.005410 
# 
# From -- ./inp_files/4743.got.cif
#   From: 2010.05.17/outbox.cif.g08.bks.cpg/sg74_3_cif.got.tgz:4743.got - 2010.06.03 17:57:02.
