data_PCOD9540273
_publ_section_title
;
Structure prediction by ZEFSAII (Michael W. Deem and Ramdas Pophale) SiO2 
 PCOD9540273
Probable space group: I M M A
;
_chemical_formula_sum "Si O2"
_cell_formula_units_Z 80
_cell_length_a 14.378781
_cell_length_b 23.130051
_cell_length_c 11.851881
_cell_angle_alpha 90.000000
_cell_angle_beta 90.000000
_cell_angle_gamma 90.000000
_cell_volume 3941.721550
_symmetry_space_group_name_H-M "I M M A"
_symmetry_group_IT_number 74
_symmetry_cell_setting 'orthorhombic'
loop_
_space_group_symop_operation_xyz
x,y,z
-x,1/2-y,z
x,-y,-z
-x,1/2+y,-z
-x,-y,-z
x,1/2+y,-z
-x,y,z
x,1/2-y,z
1/2+x,1/2+y,1/2+z
1/2-x,-y,1/2+z
1/2+x,1/2-y,1/2-z
1/2-x,y,1/2-z
1/2-x,1/2-y,1/2-z
1/2+x,y,1/2-z
1/2-x,1/2+y,1/2+z
1/2+x,-y,1/2+z
loop_
_atom_site_type_symbol
_atom_site_label
_atom_site_fract_x
_atom_site_fract_y
_atom_site_fract_z
Si Si1 0.638713 0.250000 0.258844
Si Si2 0.500000 0.559104 0.199638
Si Si3 0.396759 0.750000 0.007307
Si Si4 0.500000 0.425720 0.132735
Si Si5 0.148587 0.381083 0.545758
Si Si6 0.200561 0.816691 0.127440
Si Si7 0.500000 0.636465 0.395750
Si Si8 0.000000 0.344125 0.155834
O O1 0.750000 0.250000 0.250000
O O2 0.606368 0.250000 0.128657
O O3 0.591101 0.195625 0.320519
O O4 0.500000 0.493494 0.157486
O O5 0.408162 0.588799 0.145631
O O6 0.500000 0.575486 0.330221
O O7 0.500000 0.750000 0.050267
O O8 0.363117 0.688057 0.046557
O O9 0.500000 0.392529 0.249559
O O10 0.407745 0.406086 0.061981
O O11 0.259460 0.374672 0.561671
O O12 0.208310 0.750000 0.079764
O O13 0.250000 0.816742 0.250000
O O14 0.091509 0.828382 0.139507
O O15 0.500000 0.632772 0.530311
#
# Coordination Sequence:
#
# PCOD9540273 Si02
#       8
#     8   8   8   8  16  16   8   8
#     4  11  23  40  63  95 138 178 214 265 330 420
#     4  11  24  43  70  94 130 179 235 295 326 393
#     4  12  18  35  64 100 135 156 208 289 333 396
#     4  11  23  44  72  97 131 178 242 293 331 386
#     4  11  20  38  69 105 125 170 230 285 342 404
#     4  11  24  40  65 102 143 182 217 268 352 436
#     4  12  27  44  64  97 147 181 220 281 350 431
#     4  11  25  41  64 102 136 178 220 271 355 414
#
# _framework density 20.2957
#
# number of rings (size 3 to 8) (size 9 to 14) (size 15 to 20)
#    0.000    0.800    8.000    1.500    5.600    0.400 
#    1.800    0.000   17.600    0.000    0.000    0.000 
#    0.000    0.000    0.000    0.000    0.000    0.000 
#
# Total GULP energy -222833.087933 kJ/mol
# GULP energy per Si atom -5570.827198 kJ/mol
# Density = 2.024951 g / cm^3
# Si number density = 20.295700 Si / 1000 Ang^3
#
#
#
# Elastic Constant Matrix: (Units=GPa)
#
#
# Indices 1 2 3 4 5 6 
#
# 1 142.2675 53.0304 23.7927 0.0000 0.0000 0.0000
# 2 53.0304 137.4311 52.7834 0.0000 0.0000 0.0000
# 3 23.7927 52.7834 128.4200 -0.0001 -0.0001 -0.0001
# 4 0.0000 0.0000 -0.0001 31.2954 -0.0001 0.0000
# 5 0.0000 0.0000 -0.0001 -0.0001 58.6174 0.0000
# 6 0.0000 0.0000 -0.0001 0.0000 0.0000 17.8784
#
#
#
# Elastic Compliance Matrix: (Units=1/GPa)
#
#
# Indices 1 2 3 4 5 6 
#
# 1 0.008217 -0.003071 -0.000260 0.000000 0.000000 0.000000
# 2 -0.003071 0.009788 -0.003454 0.000000 0.000000 0.000000
# 3 -0.000260 -0.003454 0.009255 0.000000 0.000000 0.000000
# 4 0.000000 0.000000 0.000000 0.031954 0.000000 0.000000
# 5 0.000000 0.000000 0.000000 0.000000 0.017060 0.000000
# 6 0.000000 0.000000 0.000000 0.000000 0.000000 0.055933
#
#
# Mechanical properties :
#
#
# Convention : Reuss Voigt Hill
#
# Bulk Modulus (GPa) = 73.04788 74.14797 73.59793
# Shear Modulus (GPa) = 33.25789 40.12571 36.69180
#
# Velocity S-wave (km/s) = 4.05244 4.45123 4.25651
# Velocity P-wave (km/s) = 7.61356 7.93921 7.77809
#
# Compressibility (1/GPa) = 0.01368965
#
# Stress axis : x y z
#
# Youngs Moduli (GPa) = 121.69626 102.16663 108.05105
#
# Poissons Ratio (x) = 0.31373 0.02812
# Poissons Ratio (y) = 0.37370 0.37322
# Poissons Ratio (z) = 0.03167 0.35290
#
# Static dielectric constant tensor:
#      x y z
#    x 2.644450 0.000000 0.000000 
#    y 0.000000 1.700410 0.000000 
#    z 0.000000 0.000000 1.765480 
# 
# From -- ./inp_files/20619.got.cif
#   From: 2010.05.17/outbox.cif.g08.bks.cpg/sg74_11_cif.got.tgz:20619.got - 2010.06.03 17:57:02.
