data_PCOD9540809
_publ_section_title
;
Structure prediction by ZEFSAII (Michael W. Deem and Ramdas Pophale) SiO2 
 PCOD9540809
Probable space group: I M M A
;
_chemical_formula_sum "Si O2"
_cell_formula_units_Z 48
_cell_length_a 15.000000
_cell_length_b 21.000000
_cell_length_c 15.000000
_cell_angle_alpha 90.000000
_cell_angle_beta 90.000000
_cell_angle_gamma 90.000000
_cell_volume 4725.000000
_symmetry_space_group_name_H-M "I M M A"
_symmetry_group_IT_number 74
_symmetry_cell_setting 'orthorhombic'
loop_
_space_group_symop_operation_xyz
x,y,z
-x,1/2-y,z
x,-y,-z
-x,1/2+y,-z
-x,-y,-z
x,1/2+y,-z
-x,y,z
x,1/2-y,z
1/2+x,1/2+y,1/2+z
1/2-x,-y,1/2+z
1/2+x,1/2-y,1/2-z
1/2-x,y,1/2-z
1/2-x,1/2-y,1/2-z
1/2+x,y,1/2-z
1/2-x,1/2+y,1/2+z
1/2+x,-y,1/2+z
loop_
_atom_site_type_symbol
_atom_site_label
_atom_site_fract_x
_atom_site_fract_y
_atom_site_fract_z
Si Si1 0.890691 0.825207 0.622799
Si Si2 0.893020 0.928214 0.476286
Si Si3 0.604840 0.824283 0.377555
Si Si4 0.605732 0.923275 0.723863
Si Si5 0.109390 0.573198 0.976510
Si Si6 0.646366 0.071286 0.770116
O O1 0.862430 0.750000 0.623205
O O2 0.862968 0.869289 0.538282
O O3 0.861409 0.869941 0.706453
O O4 0.000000 0.823342 0.623293
O O5 0.873082 0.916111 0.373192
O O6 0.000000 0.931124 0.488398
O O7 0.859107 0.000000 0.500000
O O8 0.500000 0.817186 0.396451
O O9 0.639527 0.750000 0.370609
O O10 0.641167 0.871523 0.455762
O O11 0.610819 0.870230 0.290476
O O12 0.500000 0.912853 0.719453
O O13 0.641223 0.914362 0.623951
O O14 0.615597 0.998292 0.749573
O O15 0.000000 0.573760 0.978860
O O16 0.134596 0.500000 0.000000
O O17 0.750000 0.070338 0.750000
#
# Coordination Sequence:
#
# PCOD9540809 Si02
#       6
#    16  16  16  16  16  16
#     4   9  18  32  56  91 119 140 182 247 300 337
#     4  10  19  36  62  86 111 149 199 245 287 339
#     4  10  21  38  59  84 113 147 192 239 283 337
#     4  10  18  34  59  84 114 151 191 234 286 343
#     4   9  16  29  54  82 107 140 185 231 274 326
#     4  12  24  37  55  85 118 153 192 237 285 347
#
# _framework density 10.15873
#
# number of rings (size 3 to 8) (size 9 to 14) (size 15 to 20)
#    0.000    2.000    3.333    1.500    0.000    1.667 
#    3.000    5.000    0.000    0.500    0.000    0.000 
#    0.000    0.000    0.000    0.000    0.000    0.000 
#
# Total GULP energy -267648.234847 kJ/mol
# GULP energy per Si atom -5576.004893 kJ/mol
# Density = 1.013561 g / cm^3
# Si number density = 10.158730 Si / 1000 Ang^3
#
#
#
# Elastic Constant Matrix: (Units=GPa)
#
#
# Indices 1 2 3 4 5 6 
#
# 1 24.3447 0.6895 -5.7369 0.0000 0.0000 0.0001
# 2 0.6895 241.3372 127.5970 0.0000 0.0000 -0.0007
# 3 -5.7369 127.5970 199.9403 0.0000 0.0000 -0.0008
# 4 0.0000 0.0000 0.0000 37.2630 0.0000 -0.0008
# 5 0.0000 0.0000 0.0000 0.0000 -1.1932 -0.0002
# 6 0.0001 -0.0007 -0.0008 -0.0008 -0.0002 839.2269
#
#
#
# Elastic Compliance Matrix: (Units=1/GPa)
#
#
# Indices 1 2 3 4 5 6 
#
# 1 0.041560 -0.001131 0.001914 0.000000 0.000000 0.000000
# 2 -0.001131 0.006284 -0.004043 0.000000 0.000000 0.000000
# 3 0.001914 -0.004043 0.007637 0.000000 0.000000 0.000000
# 4 0.000000 0.000000 0.000000 0.026836 0.000000 0.000000
# 5 0.000000 0.000000 0.000000 0.000000 -0.838100 0.000000
# 6 0.000000 0.000000 0.000000 0.000000 0.000000 0.001192
#
#
# Mechanical properties :
#
#
# Convention : Reuss Voigt Hill
#
# Bulk Modulus (GPa) = 20.42420 78.96903 49.69661
# Shear Modulus (GPa) = -6.83292 197.93085 95.54897
#
# Velocity S-wave (km/s) = -1.83586 9.88082 6.86514
# Velocity P-wave (km/s) = 2.36231 13.00485 9.34630
#
# Compressibility (1/GPa) = 0.04896153
#
# Stress axis : x y z
#
# Youngs Moduli (GPa) = 24.06169 159.12508 130.94933
#
# Poissons Ratio (x) = 0.17993 -0.25065
# Poissons Ratio (y) = 0.02721 0.52942
# Poissons Ratio (z) = -0.04606 0.64334
#
# Static dielectric constant tensor:
#      x y z
#    x 1.660250 0.000000 0.000000 
#    y 0.000000 1.718320 0.000000 
#    z 0.000000 0.000000 1.840620 
# 
# From -- ./inp_files/32329.got.cif
#   From: 2010.05.17/outbox.ucp.g08.bks.cvg/sg74_17_cif.got.tgz:32329.got - 2010.06.11 16:37:44.
