data_PCOD9540360
_publ_section_title
;
Structure prediction by ZEFSAII (Michael W. Deem and Ramdas Pophale) SiO2 
 PCOD9540360
Probable space group: I M M A
;
_chemical_formula_sum "Si O2"
_cell_formula_units_Z 100
_cell_length_a 14.530180
_cell_length_b 20.458989
_cell_length_c 17.048563
_cell_angle_alpha 90.000000
_cell_angle_beta 90.000000
_cell_angle_gamma 90.000000
_cell_volume 5068.073936
_symmetry_space_group_name_H-M "I M M A"
_symmetry_group_IT_number 74
_symmetry_cell_setting 'orthorhombic'
loop_
_space_group_symop_operation_xyz
x,y,z
-x,1/2-y,z
x,-y,-z
-x,1/2+y,-z
-x,-y,-z
x,1/2+y,-z
-x,y,z
x,1/2-y,z
1/2+x,1/2+y,1/2+z
1/2-x,-y,1/2+z
1/2+x,1/2-y,1/2-z
1/2-x,y,1/2-z
1/2-x,1/2-y,1/2-z
1/2+x,y,1/2-z
1/2-x,1/2+y,1/2+z
1/2+x,-y,1/2+z
loop_
_atom_site_type_symbol
_atom_site_label
_atom_site_fract_x
_atom_site_fract_y
_atom_site_fract_z
Si Si1 0.000000 0.750000 0.265961
Si Si2 0.144831 0.507036 0.776351
Si Si3 0.293575 0.176308 0.541580
Si Si4 0.110984 0.607715 0.460856
Si Si5 0.896262 0.974498 0.609766
Si Si6 0.609463 0.436825 0.447208
Si Si7 0.852872 0.643310 0.215173
O O1 0.080079 0.807616 0.259774
O O2 0.250000 0.503997 0.750000
O O3 0.102970 0.542113 0.700454
O O4 0.131539 0.543971 0.857678
O O5 0.112733 0.431896 0.782710
O O6 0.309786 0.250000 0.515433
O O7 0.183997 0.164475 0.553802
O O8 0.334693 0.124194 0.480759
O O9 0.344299 0.164398 0.624417
O O10 0.133113 0.580299 0.548531
O O11 0.144198 0.546770 0.405759
O O12 0.000000 0.622385 0.452982
O O13 0.000000 0.986483 0.584272
O O14 0.633161 0.500000 0.500000
O O15 0.500000 0.425225 0.454478
O O16 0.750000 0.646071 0.250000
#
# Coordination Sequence:
#
# PCOD9540360 Si02
#       7
#     4  16  16  16  16  16  16
#     4  12  26  40  64  76 140 178 202 254 310 388
#     4  11  21  37  63  94 122 155 208 267 318 366
#     4  12  25  41  61  86 128 168 214 258 315 380
#     4   9  19  37  60  93 126 164 205 258 323 378
#     4   9  18  33  60  90 121 152 199 259 318 372
#     4  11  25  41  64  92 125 164 216 267 310 368
#     4  11  25  42  59  91 122 169 215 254 308 381
#
# _framework density 19.731362000000001
#
# number of rings (size 3 to 8) (size 9 to 14) (size 15 to 20)
#    0.000    1.440    2.400    4.560    5.600    0.640 
#    1.440    0.000    0.000    4.320    0.000    4.480 
#    0.000    0.000    0.000    0.000    0.000    0.000 
#
# Total GULP energy -278592.587705 kJ/mol
# GULP energy per Si atom -5571.851754 kJ/mol
# Density = 1.968645 g / cm^3
# Si number density = 19.731362 Si / 1000 Ang^3
#
#
#
# Elastic Constant Matrix: (Units=GPa)
#
#
# Indices 1 2 3 4 5 6 
#
# 1 85.5633 26.7462 11.5333 0.0000 0.0000 0.0000
# 2 26.7462 75.6139 21.6695 0.0001 0.0000 0.0000
# 3 11.5333 21.6695 125.2682 0.0001 0.0000 0.0000
# 4 0.0000 0.0001 0.0001 12.1055 0.0000 0.0000
# 5 0.0000 0.0000 0.0000 0.0000 12.7343 0.0000
# 6 0.0000 0.0000 0.0000 0.0000 0.0000 20.7798
#
#
#
# Elastic Compliance Matrix: (Units=1/GPa)
#
#
# Indices 1 2 3 4 5 6 
#
# 1 0.013162 -0.004533 -0.000428 0.000000 0.000000 0.000000
# 2 -0.004533 0.015476 -0.002260 0.000000 0.000000 0.000000
# 3 -0.000428 -0.002260 0.008413 0.000000 0.000000 0.000000
# 4 0.000000 0.000000 0.000000 0.082607 0.000000 0.000000
# 5 0.000000 0.000000 0.000000 0.000000 0.078528 0.000000
# 6 0.000000 0.000000 0.000000 0.000000 0.000000 0.048124
#
#
# Mechanical properties :
#
#
# Convention : Reuss Voigt Hill
#
# Bulk Modulus (GPa) = 44.22790 45.14927 44.68858
# Shear Modulus (GPa) = 18.63672 24.22368 21.43020
#
# Velocity S-wave (km/s) = 3.07664 3.50762 3.29918
# Velocity P-wave (km/s) = 5.92323 6.27186 6.10003
#
# Compressibility (1/GPa) = 0.02261016
#
# Stress axis : x y z
#
# Youngs Moduli (GPa) = 75.97693 64.61563 118.86148
#
# Poissons Ratio (x) = 0.29291 0.05083
# Poissons Ratio (y) = 0.34441 0.26860
# Poissons Ratio (z) = 0.03249 0.14602
#
# Static dielectric constant tensor:
#      x y z
#    x 1.867160 0.000000 0.000000 
#    y 0.000000 1.700350 0.000000 
#    z 0.000000 0.000000 1.736120 
# 
# From -- ./inp_files/43004.got.cif
#   From: 2010.05.17/outbox.cif.g08.bks.cpg/sg74_22_cif.got.tgz:43004.got - 2010.06.03 17:57:02.
