data_PCOD9540130
_publ_section_title
;
Structure prediction by ZEFSAII (Michael W. Deem and Ramdas Pophale) SiO2 
 PCOD9540130
Probable space group: I M M A
;
_chemical_formula_sum "Si O2"
_cell_formula_units_Z 88
_cell_length_a 8.037465
_cell_length_b 22.467067
_cell_length_c 24.490432
_cell_angle_alpha 90.000000
_cell_angle_beta 90.000000
_cell_angle_gamma 90.000000
_cell_volume 4422.439711
_symmetry_space_group_name_H-M "I M M A"
_symmetry_group_IT_number 74
_symmetry_cell_setting 'orthorhombic'
loop_
_space_group_symop_operation_xyz
x,y,z
-x,1/2-y,z
x,-y,-z
-x,1/2+y,-z
-x,-y,-z
x,1/2+y,-z
-x,y,z
x,1/2-y,z
1/2+x,1/2+y,1/2+z
1/2-x,-y,1/2+z
1/2+x,1/2-y,1/2-z
1/2-x,y,1/2-z
1/2-x,1/2-y,1/2-z
1/2+x,y,1/2-z
1/2-x,1/2+y,1/2+z
1/2+x,-y,1/2+z
loop_
_atom_site_type_symbol
_atom_site_label
_atom_site_fract_x
_atom_site_fract_y
_atom_site_fract_z
Si Si1 0.805469 0.410916 0.398227
Si Si2 0.694388 0.685756 0.521932
Si Si3 0.197362 0.344262 0.595729
Si Si4 0.700546 0.684154 0.812137
Si Si5 0.191684 0.028026 0.942920
Si Si6 0.199896 0.750000 0.313821
O O1 0.787471 0.369879 0.451954
O O2 0.739679 0.367946 0.350943
O O3 0.705514 0.471356 0.403791
O O4 0.000000 0.424976 0.389947
O O5 0.500000 0.681005 0.535892
O O6 0.759466 0.750000 0.541390
O O7 0.714635 0.683368 0.457086
O O8 0.228815 0.414844 0.586564
O O9 0.252198 0.308696 0.650496
O O10 0.000000 0.334104 0.590660
O O11 0.500000 0.685050 0.816472
O O12 0.763296 0.750000 0.827496
O O13 0.750000 0.673783 0.750000
O O14 0.000000 0.044486 0.954971
O O15 0.263502 0.000000 0.000000
O O16 0.250000 0.750000 0.250000
O O17 0.000000 0.750000 0.313547
#
# Coordination Sequence:
#
# PCOD9540130 Si02
#       6
#    16  16  16  16  16   8
#     4  11  22  36  57  84 117 156 198 242 289 347
#     4  11  22  34  53  85 121 156 193 238 295 352
#     4  11  22  39  62  89 118 152 197 243 297 359
#     4   9  19  36  57  82 112 148 191 237 285 336
#     4  11  23  38  57  86 122 158 198 240 294 359
#     4  10  24  44  68  96 122 156 203 254 307 366
#
# _framework density 19.898519
#
# number of rings (size 3 to 8) (size 9 to 14) (size 15 to 20)
#    0.000    1.455    2.727    2.727    0.000    5.455 
#    0.000    2.727    0.000    0.000    0.000    0.000 
#    0.000    0.000    0.000    0.000    0.000    0.000 
#
# Total GULP energy -245525.208740 kJ/mol
# GULP energy per Si atom -5580.118380 kJ/mol
# Density = 1.985323 g / cm^3
# Si number density = 19.898519 Si / 1000 Ang^3
#
#
#
# Elastic Constant Matrix: (Units=GPa)
#
#
# Indices 1 2 3 4 5 6 
#
# 1 31.0949 7.1256 -4.2168 0.0000 0.0000 0.0000
# 2 7.1256 153.1777 58.3286 0.0000 0.0000 -0.0001
# 3 -4.2168 58.3286 118.0134 0.0000 0.0000 0.0000
# 4 0.0000 0.0000 0.0000 24.0337 0.0000 0.0000
# 5 0.0000 0.0000 0.0000 0.0000 27.8033 0.0000
# 6 0.0000 -0.0001 0.0000 0.0000 0.0000 1914.5339
#
#
#
# Elastic Compliance Matrix: (Units=1/GPa)
#
#
# Indices 1 2 3 4 5 6 
#
# 1 0.033045 -0.002447 0.002390 0.000000 0.000000 0.000000
# 2 -0.002447 0.008223 -0.004152 0.000000 0.000000 0.000000
# 3 0.002390 -0.004152 0.010611 0.000000 0.000000 0.000000
# 4 0.000000 0.000000 0.000000 0.041608 0.000000 0.000000
# 5 0.000000 0.000000 0.000000 0.000000 0.035967 0.000000
# 6 0.000000 0.000000 0.000000 0.000000 0.000000 0.000522
#
#
# Mechanical properties :
#
#
# Convention : Reuss Voigt Hill
#
# Bulk Modulus (GPa) = 23.00900 47.19564 35.10232
# Shear Modulus (GPa) = 32.70515 409.34408 221.02462
#
# Velocity S-wave (km/s) = 4.05853 14.35836 10.55069
# Velocity P-wave (km/s) = 5.79228 17.28158 12.88804
#
# Compressibility (1/GPa) = 0.04346126
#
# Stress axis : x y z
#
# Youngs Moduli (GPa) = 30.26208 121.60748 94.24123
#
# Poissons Ratio (x) = 0.29763 -0.22527
# Poissons Ratio (y) = 0.07406 0.39127
# Poissons Ratio (z) = -0.07234 0.50489
#
# Static dielectric constant tensor:
#      x y z
#    x 1.735010 0.000000 0.000000 
#    y 0.000000 1.739540 0.000000 
#    z 0.000000 0.000000 1.714520 
# 
# From -- ./inp_files/48757.got.cif
#   From: 2010.05.17/outbox.cif.g08.bks.cpg/sg74_25_cif.got.tgz:48757.got - 2010.06.03 17:57:02.
