data_PCOD9540096
_publ_section_title
;
Structure prediction by ZEFSAII (Michael W. Deem and Ramdas Pophale) SiO2 
 PCOD9540096
Probable space group: I M M A
;
_chemical_formula_sum "Si O2"
_cell_formula_units_Z 64
_cell_length_a 18.483956
_cell_length_b 15.057307
_cell_length_c 12.418801
_cell_angle_alpha 90.000000
_cell_angle_beta 90.000000
_cell_angle_gamma 90.000000
_cell_volume 3456.383309
_symmetry_space_group_name_H-M "I M M A"
_symmetry_group_IT_number 74
_symmetry_cell_setting 'orthorhombic'
loop_
_space_group_symop_operation_xyz
x,y,z
-x,1/2-y,z
x,-y,-z
-x,1/2+y,-z
-x,-y,-z
x,1/2+y,-z
-x,y,z
x,1/2-y,z
1/2+x,1/2+y,1/2+z
1/2-x,-y,1/2+z
1/2+x,1/2-y,1/2-z
1/2-x,y,1/2-z
1/2-x,1/2-y,1/2-z
1/2+x,y,1/2-z
1/2-x,1/2+y,1/2+z
1/2+x,-y,1/2+z
loop_
_atom_site_type_symbol
_atom_site_label
_atom_site_fract_x
_atom_site_fract_y
_atom_site_fract_z
Si Si1 0.650747 0.146574 0.726854
Si Si2 0.874454 0.750000 0.808978
Si Si3 0.000000 0.383156 0.121731
Si Si4 0.714521 0.250000 0.088426
Si Si5 0.500000 0.095245 0.633440
Si Si6 0.775504 0.411036 0.567969
O O1 0.666262 0.250000 0.751495
O O2 0.569938 0.134191 0.689837
O O3 0.701448 0.115899 0.628290
O O4 0.669220 0.088472 0.831845
O O5 0.927952 0.833283 0.833813
O O6 0.800115 0.750000 0.878539
O O7 0.839986 0.750000 0.689481
O O8 0.000000 0.488151 0.144686
O O9 0.000000 0.377380 0.991986
O O10 0.702285 0.335484 0.015309
O O11 0.768166 0.500000 0.500000
#
# Coordination Sequence:
#
# PCOD9540096 Si02
#       6
#    16   8   8   8   8  16
#     4  11  23  44  64  95 125 167 215 263 308 381
#     4  10  24  38  65  86 134 155 206 249 325 371
#     4  10  24  43  56  96 125 164 195 269 308 375
#     4  11  22  41  65  96 120 169 206 258 315 372
#     4  11  25  38  68  88 125 160 217 252 318 361
#     4  11  24  40  68  92 129 163 210 261 319 370
#
# _framework density 18.516463999999999
#
# number of rings (size 3 to 8) (size 9 to 14) (size 15 to 20)
#    0.000    1.250    2.500    2.625   14.000    2.000 
#    0.000    3.125    0.000    0.000    0.000    0.000 
#    0.000    0.000    0.000    0.000    0.000    0.000 
#
# Total GULP energy -178722.550464 kJ/mol
# GULP energy per Si atom -5585.079702 kJ/mol
# Density = 1.847432 g / cm^3
# Si number density = 18.516464 Si / 1000 Ang^3
#
#
#
# Elastic Constant Matrix: (Units=GPa)
#
#
# Indices 1 2 3 4 5 6 
#
# 1 127.8390 10.7933 53.5175 0.0000 0.0000 0.0000
# 2 10.7933 81.7106 35.6110 0.0000 0.0000 0.0000
# 3 53.5175 35.6110 110.6120 0.0000 0.0000 0.0000
# 4 0.0000 0.0000 0.0000 40.2869 0.0000 0.0000
# 5 0.0000 0.0000 0.0000 0.0000 -3.9664 0.0000
# 6 0.0000 0.0000 0.0000 0.0000 0.0000 165.7650
#
#
#
# Elastic Compliance Matrix: (Units=1/GPa)
#
#
# Indices 1 2 3 4 5 6 
#
# 1 0.009866 0.000904 -0.005065 0.000000 0.000000 0.000000
# 2 0.000904 0.014319 -0.005047 0.000000 0.000000 0.000000
# 3 -0.005065 -0.005047 0.013116 0.000000 0.000000 0.000000
# 4 0.000000 0.000000 0.000000 0.024822 0.000000 0.000000
# 5 0.000000 0.000000 0.000000 0.000000 -0.252118 0.000000
# 6 0.000000 0.000000 0.000000 0.000000 0.000000 0.006033
#
#
# Mechanical properties :
#
#
# Convention : Reuss Voigt Hill
#
# Bulk Modulus (GPa) = 52.95169 57.77836 55.36502
# Shear Modulus (GPa) = -31.39679 55.09975 11.85148
#
# Velocity S-wave (km/s) = -4.12225 5.46093 2.53267
# Velocity P-wave (km/s) = 2.44988 8.42816 6.20628
#
# Compressibility (1/GPa) = 0.01888514
#
# Stress axis : x y z
#
# Youngs Moduli (GPa) = 101.35584 69.83951 76.24314
#
# Poissons Ratio (x) = -0.06314 0.38614
# Poissons Ratio (y) = -0.09163 0.38481
# Poissons Ratio (z) = 0.51333 0.35249
#
# Static dielectric constant tensor:
#      x y z
#    x 1.624670 0.000000 0.000000 
#    y 0.000000 -1.686660 0.000000 
#    z 0.000000 0.000000 1.611060 
# 
# From -- ./inp_files/20020.got.cif
#   From: 2010.05.17/outbox.cif.g08.bks.cpg/sg74_11_cif.got.tgz:20020.got - 2010.06.03 17:57:02.
