data_PCOD9540475
_publ_section_title
;
Structure prediction by ZEFSAII (Michael W. Deem and Ramdas Pophale) SiO2 
 PCOD9540475
Probable space group: I M M A
;
_chemical_formula_sum "Si O2"
_cell_formula_units_Z 64
_cell_length_a 17.026236
_cell_length_b 18.980870
_cell_length_c 8.318828
_cell_angle_alpha 90.000000
_cell_angle_beta 90.000000
_cell_angle_gamma 90.000000
_cell_volume 2688.418705
_symmetry_space_group_name_H-M "I M M A"
_symmetry_group_IT_number 74
_symmetry_cell_setting 'orthorhombic'
loop_
_space_group_symop_operation_xyz
x,y,z
-x,1/2-y,z
x,-y,-z
-x,1/2+y,-z
-x,-y,-z
x,1/2+y,-z
-x,y,z
x,1/2-y,z
1/2+x,1/2+y,1/2+z
1/2-x,-y,1/2+z
1/2+x,1/2-y,1/2-z
1/2-x,y,1/2-z
1/2-x,1/2-y,1/2-z
1/2+x,y,1/2-z
1/2-x,1/2+y,1/2+z
1/2+x,-y,1/2+z
loop_
_atom_site_type_symbol
_atom_site_label
_atom_site_fract_x
_atom_site_fract_y
_atom_site_fract_z
Si Si1 0.410396 0.250000 0.413869
Si Si2 0.809432 0.381795 0.119251
Si Si3 0.910522 0.250000 0.473718
Si Si4 0.591157 0.000902 0.803770
Si Si5 0.311309 0.128459 0.866646
O O1 0.500000 0.250000 0.473827
O O2 0.363385 0.179224 0.455155
O O3 0.412747 0.250000 0.218813
O O4 0.750000 0.347795 0.250000
O O5 0.862270 0.439052 0.212034
O O6 0.747349 0.411316 0.990234
O O7 0.865911 0.318182 0.538397
O O8 0.000000 0.250000 0.532247
O O9 0.500000 0.999186 0.755033
O O10 0.635157 0.073794 0.770600
O O11 0.592206 0.000000 0.000000
O O12 0.250000 0.166292 0.750000
#
# Coordination Sequence:
#
# PCOD9540475 Si02
#       5
#     8  16   8  16  16
#     4  11  22  40  69 101 130 167 221 282 337 400
#     4  12  22  41  67  98 131 170 222 278 332 394
#     4  11  22  43  69  98 130 173 223 276 339 403
#     4  11  23  41  66  98 132 174 224 278 336 398
#     4  12  26  42  66  98 136 176 224 276 336 402
#
# _framework density 23.805817000000001
#
# number of rings (size 3 to 8) (size 9 to 14) (size 15 to 20)
#    0.000    0.500    5.000    3.750    0.000    4.000 
#    0.000    7.500    0.000    0.000    0.000    0.000 
#    0.000    0.000    0.000    0.000    0.000    0.000 
#
# Total GULP energy -179027.391160 kJ/mol
# GULP energy per Si atom -5594.605974 kJ/mol
# Density = 2.375163 g / cm^3
# Si number density = 23.805817 Si / 1000 Ang^3
#
#
#
# Elastic Constant Matrix: (Units=GPa)
#
#
# Indices 1 2 3 4 5 6 
#
# 1 225.2624 85.4488 45.3950 0.0000 0.0000 0.0000
# 2 85.4488 144.5503 16.9710 0.0000 0.0000 0.0000
# 3 45.3950 16.9710 43.5546 0.0000 0.0000 0.0000
# 4 0.0000 0.0000 0.0000 -22.9384 0.0000 0.0000
# 5 0.0000 0.0000 0.0000 0.0000 37.8012 0.0000
# 6 0.0000 0.0000 0.0000 0.0000 0.0000 39.3069
#
#
#
# Elastic Compliance Matrix: (Units=1/GPa)
#
#
# Indices 1 2 3 4 5 6 
#
# 1 0.006913 -0.003396 -0.005882 0.000000 0.000000 0.000000
# 2 -0.003396 0.008918 0.000064 0.000000 0.000000 0.000000
# 3 -0.005882 0.000064 0.029065 0.000000 0.000000 0.000000
# 4 0.000000 0.000000 0.000000 -0.043595 0.000000 0.000000
# 5 0.000000 0.000000 0.000000 0.000000 0.026454 0.000000
# 6 0.000000 0.000000 0.000000 0.000000 0.000000 0.025441
#
#
# Mechanical properties :
#
#
# Convention : Reuss Voigt Hill
#
# Bulk Modulus (GPa) = 37.77953 78.77743 58.27848
# Shear Modulus (GPa) = 62.15495 28.53744 45.34619
#
# Velocity S-wave (km/s) = 5.11525 3.46607 4.36918
# Velocity P-wave (km/s) = 7.12686 7.01296 7.07014
#
# Compressibility (1/GPa) = 0.02646936
#
# Stress axis : x y z
#
# Youngs Moduli (GPa) = 144.66221 112.13521 34.40596
#
# Poissons Ratio (x) = 0.38079 0.20236
# Poissons Ratio (y) = 0.49124 -0.00222
# Poissons Ratio (z) = 0.85085 -0.00723
#
# Static dielectric constant tensor:
#      x y z
#    x 1.848310 0.000000 0.000000 
#    y 0.000000 1.862210 0.000000 
#    z 0.000000 0.000000 2.001700 
# 
# From -- ./inp_files/10283.got.cif
#   From: 2010.05.17/outbox.cif.g08.bks.cpg/sg74_6_cif.got.tgz:10283.got - 2010.06.03 17:57:02.
