data_PCOD9540736
_publ_section_title
;
Structure prediction by ZEFSAII (Michael W. Deem and Ramdas Pophale) SiO2 
 PCOD9540736
Probable space group: I M M A
;
_chemical_formula_sum "Si O2"
_cell_formula_units_Z 112
_cell_length_a 15.199162
_cell_length_b 18.395048
_cell_length_c 20.135288
_cell_angle_alpha 90.000000
_cell_angle_beta 90.000000
_cell_angle_gamma 90.000000
_cell_volume 5629.611370
_symmetry_space_group_name_H-M "I M M A"
_symmetry_group_IT_number 74
_symmetry_cell_setting 'orthorhombic'
loop_
_space_group_symop_operation_xyz
x,y,z
-x,1/2-y,z
x,-y,-z
-x,1/2+y,-z
-x,-y,-z
x,1/2+y,-z
-x,y,z
x,1/2-y,z
1/2+x,1/2+y,1/2+z
1/2-x,-y,1/2+z
1/2+x,1/2-y,1/2-z
1/2-x,y,1/2-z
1/2-x,1/2-y,1/2-z
1/2+x,y,1/2-z
1/2-x,1/2+y,1/2+z
1/2+x,-y,1/2+z
loop_
_atom_site_type_symbol
_atom_site_label
_atom_site_fract_x
_atom_site_fract_y
_atom_site_fract_z
Si Si1 0.161540 0.832891 0.398793
Si Si2 0.607968 0.334356 0.187331
Si Si3 0.603078 0.661695 0.958352
Si Si4 0.630032 0.830113 0.371868
Si Si5 0.644387 0.401463 0.762544
Si Si6 0.398012 0.987725 0.428309
Si Si7 0.602550 0.945274 0.704840
O O1 0.126667 0.750000 0.397155
O O2 0.146971 0.862678 0.472924
O O3 0.265272 0.829316 0.383978
O O4 0.123540 0.877104 0.336885
O O5 0.500000 0.336881 0.186077
O O6 0.632534 0.250000 0.194897
O O7 0.640181 0.382267 0.248888
O O8 0.636536 0.362405 0.114251
O O9 0.500000 0.643612 0.963216
O O10 0.610160 0.750000 0.956172
O O11 0.597644 0.750000 0.391386
O O12 0.612228 0.845562 0.294097
O O13 0.599954 0.902510 0.409703
O O14 0.750000 0.405618 0.750000
O O15 0.606905 0.480144 0.746044
O O16 0.500000 0.011658 0.432930
O O17 0.355915 0.000000 0.500000
O O18 0.357732 0.032882 0.366757
O O19 0.500000 0.926798 0.693930
#
# Coordination Sequence:
#
# PCOD9540736 Si02
#       7
#    16  16  16  16  16  16  16
#     4   9  16  27  44  66  91 120 154 187 217 253
#     4   8  14  27  47  67  87 115 151 186 218 257
#     4   8  14  25  41  62  90 122 151 180 216 253
#     4   9  17  30  48  68  89 116 151 186 219 264
#     4   9  17  29  44  64  91 121 148 179 222 266
#     4   9  18  33  50  67  90 116 140 178 234 282
#     4   9  17  30  48  67  87 114 148 183 220 267
#
# _framework density 19.894801999999999
#
# number of rings (size 3 to 8) (size 9 to 14) (size 15 to 20)
#    0.000    3.286    0.000    1.286    0.000    2.571 
#    0.000    5.714    0.000    8.143    0.000    0.000 
#    0.000    0.000    0.000    0.000    0.000    0.000 
#
# Total GULP energy -311766.432377 kJ/mol
# GULP energy per Si atom -5567.257721 kJ/mol
# Density = 1.984952 g / cm^3
# Si number density = 19.894802 Si / 1000 Ang^3
#
#
#
# Elastic Constant Matrix: (Units=GPa)
#
#
# Indices 1 2 3 4 5 6 
#
# 1 21.4883 1.3444 11.2245 0.0000 0.0000 0.0000
# 2 1.3444 62.6722 82.1168 0.0000 0.0000 0.0000
# 3 11.2245 82.1168 209.5393 0.0000 0.0000 0.0000
# 4 0.0000 0.0000 0.0000 20.7326 0.0000 0.0000
# 5 0.0000 0.0000 0.0000 0.0000 9.6976 0.0000
# 6 0.0000 0.0000 0.0000 0.0000 0.0000 15.9143
#
#
#
# Elastic Compliance Matrix: (Units=1/GPa)
#
#
# Indices 1 2 3 4 5 6 
#
# 1 0.048588 0.004867 -0.004510 0.000000 0.000000 0.000000
# 2 0.004867 0.033284 -0.013304 0.000000 0.000000 0.000000
# 3 -0.004510 -0.013304 0.010228 0.000000 0.000000 0.000000
# 4 0.000000 0.000000 0.000000 0.048233 0.000000 0.000000
# 5 0.000000 0.000000 0.000000 0.000000 0.103118 0.000000
# 6 0.000000 0.000000 0.000000 0.000000 0.000000 0.062837
#
#
# Mechanical properties :
#
#
# Convention : Reuss Voigt Hill
#
# Bulk Modulus (GPa) = 15.10455 53.67456 34.38956
# Shear Modulus (GPa) = 14.11430 22.53651 18.32540
#
# Velocity S-wave (km/s) = 2.66643 3.36934 3.03828
# Velocity P-wave (km/s) = 4.13383 6.49418 5.44348
#
# Compressibility (1/GPa) = 0.06620522
#
# Stress axis : x y z
#
# Youngs Moduli (GPa) = 20.58109 30.04465 97.77225
#
# Poissons Ratio (x) = -0.14623 0.44097
# Poissons Ratio (y) = -0.10017 1.30080
# Poissons Ratio (z) = 0.09282 0.39973
#
# Static dielectric constant tensor:
#      x y z
#    x 1.742170 0.000000 0.000000 
#    y 0.000000 1.691330 0.000000 
#    z 0.000000 0.000000 1.747890 
# 
# From -- ./inp_files/44418.got.cif
#   From: 2010.05.17/outbox.cif.g08.bks.cpg/sg74_23_cif.got.tgz:44418.got - 2010.06.03 17:57:02.
