data_PCOD9540699
_publ_section_title
;
Structure prediction by ZEFSAII (Michael W. Deem and Ramdas Pophale) SiO2 
 PCOD9540699
Probable space group: I M M A
;
_chemical_formula_sum "Si O2"
_cell_formula_units_Z 112
_cell_length_a 26.810778
_cell_length_b 7.284308
_cell_length_c 27.749950
_cell_angle_alpha 90.000000
_cell_angle_beta 90.000000
_cell_angle_gamma 90.000000
_cell_volume 5419.508755
_symmetry_space_group_name_H-M "I M M A"
_symmetry_group_IT_number 74
_symmetry_cell_setting 'orthorhombic'
loop_
_space_group_symop_operation_xyz
x,y,z
-x,1/2-y,z
x,-y,-z
-x,1/2+y,-z
-x,-y,-z
x,1/2+y,-z
-x,y,z
x,1/2-y,z
1/2+x,1/2+y,1/2+z
1/2-x,-y,1/2+z
1/2+x,1/2-y,1/2-z
1/2-x,y,1/2-z
1/2-x,1/2-y,1/2-z
1/2+x,y,1/2-z
1/2-x,1/2+y,1/2+z
1/2+x,-y,1/2+z
loop_
_atom_site_type_symbol
_atom_site_label
_atom_site_fract_x
_atom_site_fract_y
_atom_site_fract_z
Si Si1 0.804289 0.527064 0.264616
Si Si2 0.757281 0.031224 0.556632
Si Si3 0.354067 0.968889 0.443101
Si Si4 0.555131 0.526360 0.165516
Si Si5 0.055565 0.474151 0.876167
Si Si6 0.908990 0.473096 0.771551
Si Si7 0.659251 0.973154 0.129242
O O1 0.803398 0.750000 0.262946
O O2 0.750000 0.461378 0.250000
O O3 0.850946 0.471232 0.231664
O O4 0.817297 0.476792 0.319210
O O5 0.755606 0.250000 0.564594
O O6 0.701648 0.960827 0.569190
O O7 0.803665 0.961205 0.587745
O O8 0.764771 0.000000 0.500000
O O9 0.352423 0.750000 0.435863
O O10 0.399655 0.037148 0.410670
O O11 0.362375 0.000000 0.500000
O O12 0.500000 0.467149 0.150822
O O13 0.555597 0.750000 0.165654
O O14 0.565899 0.470852 0.221062
O O15 0.601614 0.467217 0.132548
O O16 0.056150 0.250000 0.876598
O O17 0.065794 0.531750 0.821033
O O18 0.000000 0.530510 0.891347
O O19 0.910515 0.250000 0.771502
O O20 0.658068 0.750000 0.126920
#
# Coordination Sequence:
#
# PCOD9540699 Si02
#       7
#    16  16  16  16  16  16  16
#     4   8  13  18  27  46  73 102 126 151 190 236
#     4   9  17  29  44  60  80 104 133 167 201 237
#     4   9  18  30  43  58  76 101 132 166 203 238
#     4   8  12  19  31  48  74 106 133 153 182 232
#     4   9  16  24  35  52  74 102 133 162 195 234
#     4   8  13  19  28  46  72 102 131 155 184 228
#     4   8  14  22  33  52  75 101 129 159 194 231
#
# _framework density 20.666079
#
# number of rings (size 3 to 8) (size 9 to 14) (size 15 to 20)
#    0.000    3.571    0.000    2.143    2.000    2.000 
#    0.000    0.000    0.000    0.429    0.000    0.000 
#    0.000    5.143    0.000    1.714    0.000    0.000 
#
# Total GULP energy -312313.683539 kJ/mol
# GULP energy per Si atom -5577.030063 kJ/mol
# Density = 2.061904 g / cm^3
# Si number density = 20.666079 Si / 1000 Ang^3
#
#
#
# Elastic Constant Matrix: (Units=GPa)
#
#
# Indices 1 2 3 4 5 6 
#
# 1 243.4204 9.6022 102.7065 0.0000 0.0000 0.0000
# 2 9.6022 88.3425 0.7992 0.0000 0.0000 0.0000
# 3 102.7065 0.7992 83.7009 0.0000 0.0000 0.0000
# 4 0.0000 0.0000 0.0000 -9.8977 0.0000 0.0000
# 5 0.0000 0.0000 0.0000 0.0000 42.9054 0.0000
# 6 0.0000 0.0000 0.0000 0.0000 0.0000 -17.0692
#
#
#
# Elastic Compliance Matrix: (Units=1/GPa)
#
#
# Indices 1 2 3 4 5 6 
#
# 1 0.008580 -0.000837 -0.010520 0.000000 0.000000 0.000000
# 2 -0.000837 0.011402 0.000919 0.000000 0.000000 0.000000
# 3 -0.010520 0.000919 0.024847 0.000000 0.000000 0.000000
# 4 0.000000 0.000000 0.000000 -0.101033 0.000000 0.000000
# 5 0.000000 0.000000 0.000000 0.000000 0.023307 0.000000
# 6 0.000000 0.000000 0.000000 0.000000 0.000000 -0.058585
#
#
# Mechanical properties :
#
#
# Convention : Reuss Voigt Hill
#
# Bulk Modulus (GPa) = 41.75028 71.29774 56.52401
# Shear Modulus (GPa) = -79.84651 23.34475 -28.25088
#
# Velocity S-wave (km/s) = -6.22257 3.36462 -3.70133
# Velocity P-wave (km/s) = 5.60187 7.04763 3.02391
#
# Compressibility (1/GPa) = 0.02395193
#
# Stress axis : x y z
#
# Youngs Moduli (GPa) = 116.55122 87.70168 40.24560
#
# Poissons Ratio (x) = 0.07344 0.42339
# Poissons Ratio (y) = 0.09760 -0.03697
# Poissons Ratio (z) = 1.22613 -0.08057
#
# Static dielectric constant tensor:
#      x y z
#    x 1.750680 0.000000 0.000000 
#    y 0.000000 1.875280 0.000000 
#    z 0.000000 0.000000 1.674220 
# 
# From -- ./inp_files/62477.got.cif
#   From: 2010.05.17/outbox.cif.g08.bks.cpg/sg74_32_cif.got.tgz:62477.got - 2010.06.03 17:57:02.
