data_PCOD9540124
_publ_section_title
;
Structure prediction by ZEFSAII (Michael W. Deem and Ramdas Pophale) SiO2 
 PCOD9540124
Probable space group: I M M A
;
_chemical_formula_sum "Si O2"
_cell_formula_units_Z 88
_cell_length_a 12.057266
_cell_length_b 16.018185
_cell_length_c 23.335493
_cell_angle_alpha 90.000000
_cell_angle_beta 90.000000
_cell_angle_gamma 90.000000
_cell_volume 4506.912514
_symmetry_space_group_name_H-M "I M M A"
_symmetry_group_IT_number 74
_symmetry_cell_setting 'orthorhombic'
loop_
_space_group_symop_operation_xyz
x,y,z
-x,1/2-y,z
x,-y,-z
-x,1/2+y,-z
-x,-y,-z
x,1/2+y,-z
-x,y,z
x,1/2-y,z
1/2+x,1/2+y,1/2+z
1/2-x,-y,1/2+z
1/2+x,1/2-y,1/2-z
1/2-x,y,1/2-z
1/2-x,1/2-y,1/2-z
1/2+x,y,1/2-z
1/2-x,1/2+y,1/2+z
1/2+x,-y,1/2+z
loop_
_atom_site_type_symbol
_atom_site_label
_atom_site_fract_x
_atom_site_fract_y
_atom_site_fract_z
Si Si1 0.630240 0.149367 0.580060
Si Si2 0.500000 0.489936 0.066242
Si Si3 0.000000 0.657329 0.364898
Si Si4 0.192906 0.910978 0.637425
Si Si5 0.869134 0.649224 0.951615
Si Si6 0.779709 0.589994 0.314742
Si Si7 0.366960 0.750000 0.788449
O O1 0.500000 0.128539 0.584359
O O2 0.640025 0.250000 0.581533
O O3 0.668655 0.122354 0.515973
O O4 0.695580 0.113515 0.634023
O O5 0.500000 0.583845 0.089551
O O6 0.604915 0.441090 0.090522
O O7 0.500000 0.500000 0.000000
O O8 0.891297 0.640124 0.328132
O O9 0.000000 0.750000 0.389273
O O10 0.302554 0.889014 0.601266
O O11 0.147960 0.832156 0.672558
O O12 0.205223 0.990315 0.678998
O O13 0.856725 0.750000 0.949107
O O14 0.000000 0.630484 0.947472
O O15 0.750000 0.610415 0.250000
O O16 0.500000 0.750000 0.766503
O O17 0.250000 0.750000 0.750000
#
# Coordination Sequence:
#
# PCOD9540124 Si02
#       7
#    16   8   8  16  16  16   8
#     4   9  20  39  63  93 127 165 209 268 334 402
#     4  10  24  43  66  96 137 170 210 276 336 401
#     4  10  24  44  63  91 124 159 216 260 314 394
#     4  11  23  43  67  95 131 171 221 274 336 401
#     4   9  19  37  63  97 133 161 206 266 328 400
#     4  11  25  42  61  89 127 168 214 270 327 385
#     4  12  26  48  72 104 138 186 243 290 343 412
#
# _framework density 19.525562000000001
#
# number of rings (size 3 to 8) (size 9 to 14) (size 15 to 20)
#    0.000    1.818    1.818    2.182    6.364    2.909 
#    1.636    1.818    0.000    0.000    0.000    0.000 
#    0.000    0.000    0.000    0.000    0.000    0.000 
#
# Total GULP energy -245462.706314 kJ/mol
# GULP energy per Si atom -5578.697871 kJ/mol
# Density = 1.948112 g / cm^3
# Si number density = 19.525562 Si / 1000 Ang^3
#
#
#
# Elastic Constant Matrix: (Units=GPa)
#
#
# Indices 1 2 3 4 5 6 
#
# 1 87.9433 22.8445 40.1987 0.0000 0.0000 0.0000
# 2 22.8445 64.7303 2.8307 0.0000 0.0000 0.0000
# 3 40.1987 2.8307 71.0128 0.0000 0.0000 0.0000
# 4 0.0000 0.0000 0.0000 -4.3916 0.0000 0.0000
# 5 0.0000 0.0000 0.0000 0.0000 107.0809 0.0000
# 6 0.0000 0.0000 0.0000 0.0000 0.0000 31.1937
#
#
#
# Elastic Compliance Matrix: (Units=1/GPa)
#
#
# Indices 1 2 3 4 5 6 
#
# 1 0.017181 -0.005648 -0.009501 0.000000 0.000000 0.000000
# 2 -0.005648 0.017332 0.002506 0.000000 0.000000 0.000000
# 3 -0.009501 0.002506 0.019360 0.000000 0.000000 0.000000
# 4 0.000000 0.000000 0.000000 -0.227708 0.000000 0.000000
# 5 0.000000 0.000000 0.000000 0.000000 0.009339 0.000000
# 6 0.000000 0.000000 0.000000 0.000000 0.000000 0.032058
#
#
# Mechanical properties :
#
#
# Convention : Reuss Voigt Hill
#
# Bulk Modulus (GPa) = 34.97862 39.49269 37.23566
# Shear Modulus (GPa) = -51.21689 37.29743 -6.95973
#
# Velocity S-wave (km/s) = -5.12715 4.37531 -1.89002
# Velocity P-wave (km/s) = 4.13485 6.76716 3.78797
#
# Compressibility (1/GPa) = 0.02858889
#
# Stress axis : x y z
#
# Youngs Moduli (GPa) = 58.20465 57.69549 51.65265
#
# Poissons Ratio (x) = 0.32586 0.49073
# Poissons Ratio (y) = 0.32874 -0.12946
# Poissons Ratio (z) = 0.55297 -0.14460
#
# Static dielectric constant tensor:
#      x y z
#    x 1.698870 0.000000 0.000000 
#    y 0.000000 1.678180 0.000000 
#    z 0.000000 0.000000 1.627170 
# 
# From -- ./inp_files/58659.got.cif
#   From: 2010.05.17/outbox.cif.g08.bks.cpg/sg74_30_cif.got.tgz:58659.got - 2010.06.03 17:57:02.
