data_PCOD9540180
_publ_section_title
;
Structure prediction by ZEFSAII (Michael W. Deem and Ramdas Pophale) SiO2 
 PCOD9540180
Probable space group: I M M A
;
_chemical_formula_sum "Si O2"
_cell_formula_units_Z 104
_cell_length_a 27.011422
_cell_length_b 19.817310
_cell_length_c 10.392087
_cell_angle_alpha 90.000000
_cell_angle_beta 90.000000
_cell_angle_gamma 90.000000
_cell_volume 5562.818943
_symmetry_space_group_name_H-M "I M M A"
_symmetry_group_IT_number 74
_symmetry_cell_setting 'orthorhombic'
loop_
_space_group_symop_operation_xyz
x,y,z
-x,1/2-y,z
x,-y,-z
-x,1/2+y,-z
-x,-y,-z
x,1/2+y,-z
-x,y,z
x,1/2-y,z
1/2+x,1/2+y,1/2+z
1/2-x,-y,1/2+z
1/2+x,1/2-y,1/2-z
1/2-x,y,1/2-z
1/2-x,1/2-y,1/2-z
1/2+x,y,1/2-z
1/2-x,1/2+y,1/2+z
1/2+x,-y,1/2+z
loop_
_atom_site_type_symbol
_atom_site_label
_atom_site_fract_x
_atom_site_fract_y
_atom_site_fract_z
Si Si1 0.250000 0.515709 0.250000
Si Si2 0.058611 0.169318 0.966345
Si Si3 0.680931 0.670010 0.997166
Si Si4 0.651941 0.542273 0.870618
Si Si5 0.289573 0.881619 0.463435
Si Si6 0.636464 0.326630 0.732394
Si Si7 0.381533 0.559215 0.602350
O O1 0.292419 0.476176 0.174085
O O2 0.275554 0.561159 0.359739
O O3 0.068967 0.250000 0.984797
O O4 0.087390 0.145874 0.836177
O O5 0.000000 0.161260 0.956651
O O6 0.081769 0.121540 0.075746
O O7 0.674394 0.750000 0.980783
O O8 0.652140 0.621972 0.899893
O O9 0.739130 0.652237 0.990304
O O10 0.661067 0.645867 0.138030
O O11 0.618229 0.530361 0.746124
O O12 0.640724 0.500000 0.000000
O O13 0.322486 0.830504 0.379230
O O14 0.326133 0.912572 0.569766
O O15 0.624714 0.250000 0.765741
O O16 0.391422 0.500000 0.500000
#
# Coordination Sequence:
#
# PCOD9540180 Si02
#       7
#     8  16  16  16  16  16  16
#     4  12  20  34  54  80 110 166 210 240 274 340
#     4   9  20  40  66  92 117 147 191 252 314 366
#     4  11  22  34  52  83 122 160 197 240 292 347
#     4  12  24  37  55  81 118 164 206 241 290 349
#     4  11  18  33  53  79 115 154 202 241 282 337
#     4   9  17  31  55  84 111 144 187 236 290 349
#     4  11  24  38  60  87 117 156 205 249 297 351
#
# _framework density 18.695557000000001
#
# number of rings (size 3 to 8) (size 9 to 14) (size 15 to 20)
#    0.000    1.385    4.615    1.385    2.154    2.769 
#    0.000    2.692    0.000    1.385    0.000    2.154 
#    0.000    0.000    0.000    0.000    0.000    0.000 
#
# Total GULP energy -290031.659870 kJ/mol
# GULP energy per Si atom -5577.531921 kJ/mol
# Density = 1.865300 g / cm^3
# Si number density = 18.695557 Si / 1000 Ang^3
#
#
#
# Elastic Constant Matrix: (Units=GPa)
#
#
# Indices 1 2 3 4 5 6 
#
# 1 75.5380 26.2210 19.9875 0.0000 0.0000 0.0000
# 2 26.2210 95.4343 36.8998 0.0000 0.0000 0.0000
# 3 19.9875 36.8998 71.7110 0.0000 0.0000 0.0000
# 4 0.0000 0.0000 0.0000 21.5517 0.0000 0.0000
# 5 0.0000 0.0000 0.0000 0.0000 9.7557 0.0000
# 6 0.0000 0.0000 0.0000 0.0000 0.0000 20.4838
#
#
#
# Elastic Compliance Matrix: (Units=1/GPa)
#
#
# Indices 1 2 3 4 5 6 
#
# 1 0.015005 -0.003128 -0.002573 0.000000 0.000000 0.000000
# 2 -0.003128 0.013733 -0.006195 0.000000 0.000000 0.000000
# 3 -0.002573 -0.006195 0.017849 0.000000 0.000000 0.000000
# 4 0.000000 0.000000 0.000000 0.046400 0.000000 0.000000
# 5 0.000000 0.000000 0.000000 0.000000 0.102505 0.000000
# 6 0.000000 0.000000 0.000000 0.000000 0.000000 0.048819
#
#
# Mechanical properties :
#
#
# Convention : Reuss Voigt Hill
#
# Bulk Modulus (GPa) = 43.86582 45.43333 44.64958
# Shear Modulus (GPa) = 18.13562 20.99657 19.56609
#
# Velocity S-wave (km/s) = 3.11794 3.35487 3.23857
# Velocity P-wave (km/s) = 6.03956 6.27386 6.15782
#
# Compressibility (1/GPa) = 0.02279679
#
# Stress axis : x y z
#
# Youngs Moduli (GPa) = 66.64489 72.81735 56.02408
#
# Poissons Ratio (x) = 0.22777 0.14413
# Poissons Ratio (y) = 0.20846 0.34705
# Poissons Ratio (z) = 0.17146 0.45108
#
# Static dielectric constant tensor:
#      x y z
#    x 1.630580 0.000000 0.000000 
#    y 0.000000 1.688790 0.000000 
#    z 0.000000 0.000000 1.685780 
# 
# From -- ./inp_files/15216.got.cif
#   From: 2010.05.17/outbox.cif.g08.bks.cpg/sg74_8_cif.got.tgz:15216.got - 2010.06.03 17:57:02.
