data_PCOD9540429
_publ_section_title
;
Structure prediction by ZEFSAII (Michael W. Deem and Ramdas Pophale) SiO2 
 PCOD9540429
Probable space group: I M M A
;
_chemical_formula_sum "Si O2"
_cell_formula_units_Z 104
_cell_length_a 26.711600
_cell_length_b 25.184021
_cell_length_c 7.823410
_cell_angle_alpha 90.000000
_cell_angle_beta 90.000000
_cell_angle_gamma 90.000000
_cell_volume 5262.850899
_symmetry_space_group_name_H-M "I M M A"
_symmetry_group_IT_number 74
_symmetry_cell_setting 'orthorhombic'
loop_
_space_group_symop_operation_xyz
x,y,z
-x,1/2-y,z
x,-y,-z
-x,1/2+y,-z
-x,-y,-z
x,1/2+y,-z
-x,y,z
x,1/2-y,z
1/2+x,1/2+y,1/2+z
1/2-x,-y,1/2+z
1/2+x,1/2-y,1/2-z
1/2-x,y,1/2-z
1/2-x,1/2-y,1/2-z
1/2+x,y,1/2-z
1/2-x,1/2+y,1/2+z
1/2+x,-y,1/2+z
loop_
_atom_site_type_symbol
_atom_site_label
_atom_site_fract_x
_atom_site_fract_y
_atom_site_fract_z
Si Si1 0.648325 0.882915 0.588626
Si Si2 0.797701 0.535862 0.335697
Si Si3 0.156576 0.630451 0.513801
Si Si4 0.555673 0.188282 0.503227
Si Si5 0.757718 0.189140 0.043537
Si Si6 0.055523 0.188015 0.583692
Si Si7 0.844615 0.000000 0.000000
O O1 0.660529 0.887277 0.789390
O O2 0.600565 0.845313 0.570441
O O3 0.696700 0.852025 0.509644
O O4 0.633966 0.939947 0.507178
O O5 0.784963 0.500000 0.500000
O O6 0.750000 0.563787 0.250000
O O7 0.837363 0.578868 0.396588
O O8 0.815853 0.500274 0.179561
O O9 0.204266 0.668309 0.475196
O O10 0.103433 0.657929 0.486964
O O11 0.500000 0.170650 0.449451
O O12 0.561268 0.250000 0.455562
O O13 0.557580 0.185342 0.709739
O O14 0.768777 0.250000 0.988896
O O15 0.750000 0.190556 0.250000
O O16 0.058748 0.250000 0.535660
O O17 0.000000 0.168438 0.531067
#
# Coordination Sequence:
#
# PCOD9540429 Si02
#       7
#    16  16  16  16  16  16   8
#     4  11  22  37  60  88 125 167 208 264 320 378
#     4  12  24  40  63  89 123 166 215 262 311 378
#     4  11  22  37  60  93 125 161 214 260 320 382
#     4   9  19  38  63  90 122 165 215 263 320 387
#     4   9  19  34  53  84 125 162 195 246 316 377
#     4   9  19  37  61  89 124 165 208 262 322 383
#     4  12  24  40  61  86 126 168 213 264 310 370
#
# _framework density 19.761154000000001
#
# number of rings (size 3 to 8) (size 9 to 14) (size 15 to 20)
#    0.000    1.692    2.308    3.692    0.000    2.462 
#    0.000    1.923    0.000    6.000    0.000    0.000 
#    0.000    0.000    0.000    0.000    0.000    0.000 
#
# Total GULP energy -290020.415673 kJ/mol
# GULP energy per Si atom -5577.315686 kJ/mol
# Density = 1.971618 g / cm^3
# Si number density = 19.761154 Si / 1000 Ang^3
#
#
#
# Elastic Constant Matrix: (Units=GPa)
#
#
# Indices 1 2 3 4 5 6 
#
# 1 141.5823 68.0766 22.4453 0.0000 0.0000 0.0000
# 2 68.0766 100.2872 25.5775 0.0000 0.0000 0.0000
# 3 22.4453 25.5775 69.5015 0.0000 0.0000 0.0000
# 4 0.0000 0.0000 0.0000 26.2536 0.0000 0.0000
# 5 0.0000 0.0000 0.0000 0.0000 29.8082 0.0000
# 6 0.0000 0.0000 0.0000 0.0000 0.0000 13.8392
#
#
#
# Elastic Compliance Matrix: (Units=1/GPa)
#
#
# Indices 1 2 3 4 5 6 
#
# 1 0.010531 -0.006932 -0.000850 0.000000 0.000000 0.000000
# 2 -0.006932 0.015567 -0.003490 0.000000 0.000000 0.000000
# 3 -0.000850 -0.003490 0.015947 0.000000 0.000000 0.000000
# 4 0.000000 0.000000 0.000000 0.038090 0.000000 0.000000
# 5 0.000000 0.000000 0.000000 0.000000 0.033548 0.000000
# 6 0.000000 0.000000 0.000000 0.000000 0.000000 0.072258
#
#
# Mechanical properties :
#
#
# Convention : Reuss Voigt Hill
#
# Bulk Modulus (GPa) = 51.27935 60.39661 55.83798
# Shear Modulus (GPa) = 23.25745 26.99830 25.12788
#
# Velocity S-wave (km/s) = 3.43436 3.70027 3.56979
# Velocity P-wave (km/s) = 6.46006 6.99182 6.73119
#
# Compressibility (1/GPa) = 0.01950103
#
# Stress axis : x y z
#
# Youngs Moduli (GPa) = 94.96058 64.23913 62.70728
#
# Poissons Ratio (x) = 0.44528 0.05330
# Poissons Ratio (y) = 0.65823 0.21886
# Poissons Ratio (z) = 0.08071 0.22421
#
# Static dielectric constant tensor:
#      x y z
#    x 1.682930 0.000000 0.000000 
#    y 0.000000 1.699260 0.000000 
#    z 0.000000 0.000000 1.735470 
# 
# From -- ./inp_files/15235.got.cif
#   From: 2010.05.17/outbox.cif.g08.bks.cpg/sg74_8_cif.got.tgz:15235.got - 2010.06.03 17:57:02.
