data_PCOD9540326
_publ_section_title
;
Structure prediction by ZEFSAII (Michael W. Deem and Ramdas Pophale) SiO2 
 PCOD9540326
Probable space group: I M M A
;
_chemical_formula_sum "Si O2"
_cell_formula_units_Z 64
_cell_length_a 20.967603
_cell_length_b 8.634312
_cell_length_c 19.978895
_cell_angle_alpha 90.000000
_cell_angle_beta 90.000000
_cell_angle_gamma 90.000000
_cell_volume 3616.995657
_symmetry_space_group_name_H-M "I M M A"
_symmetry_group_IT_number 74
_symmetry_cell_setting 'orthorhombic'
loop_
_space_group_symop_operation_xyz
x,y,z
-x,1/2-y,z
x,-y,-z
-x,1/2+y,-z
-x,-y,-z
x,1/2+y,-z
-x,y,z
x,1/2-y,z
1/2+x,1/2+y,1/2+z
1/2-x,-y,1/2+z
1/2+x,1/2-y,1/2-z
1/2-x,y,1/2-z
1/2-x,1/2-y,1/2-z
1/2+x,y,1/2-z
1/2-x,1/2+y,1/2+z
1/2+x,-y,1/2+z
loop_
_atom_site_type_symbol
_atom_site_label
_atom_site_fract_x
_atom_site_fract_y
_atom_site_fract_z
Si Si1 0.572081 0.065177 0.289984
Si Si2 0.311756 0.065070 0.795194
Si Si3 0.617989 0.935070 0.428381
Si Si4 0.238428 0.434471 0.429659
O O1 0.500000 0.031771 0.267373
O O2 0.581758 0.250000 0.289902
O O3 0.625370 0.986968 0.243937
O O4 0.580948 0.003445 0.365368
O O5 0.311463 0.250000 0.804461
O O6 0.250000 0.024248 0.750000
O O7 0.303513 0.982560 0.866357
O O8 0.615105 0.750000 0.428274
O O9 0.595670 0.000000 0.500000
O O10 0.691653 0.988963 0.420525
O O11 0.213052 0.500000 0.500000
O O12 0.245939 0.250000 0.433576
#
# Coordination Sequence:
#
# PCOD9540326 Si02
#       4
#    16  16  16  16
#     4  11  24  40  58  83 115 153 195 238 287 342
#     4  11  22  37  60  88 116 150 193 238 285 340
#     4  11  21  35  55  81 114 153 194 235 283 338
#     4  11  21  35  58  86 118 150 188 237 288 338
#
# _framework density 17.694244000000001
#
# number of rings (size 3 to 8) (size 9 to 14) (size 15 to 20)
#    0.000    1.000    2.500    7.500    0.000    3.500 
#    0.000    0.000    0.000    0.750    0.000    0.000 
#    0.000    0.000    0.000    0.000    0.000    0.000 
#
# Total GULP energy -178949.910005 kJ/mol
# GULP energy per Si atom -5592.184688 kJ/mol
# Density = 1.765397 g / cm^3
# Si number density = 17.694244 Si / 1000 Ang^3
#
#
#
# Elastic Constant Matrix: (Units=GPa)
#
#
# Indices 1 2 3 4 5 6 
#
# 1 71.2112 23.5321 35.0238 0.0000 0.0000 0.0000
# 2 23.5321 72.8379 22.2801 0.0000 0.0000 0.0000
# 3 35.0238 22.2801 98.9128 0.0000 0.0000 0.0000
# 4 0.0000 0.0000 0.0000 34.8888 0.0000 0.0000
# 5 0.0000 0.0000 0.0000 0.0000 22.0364 0.0000
# 6 0.0000 0.0000 0.0000 0.0000 0.0000 11.8832
#
#
#
# Elastic Compliance Matrix: (Units=1/GPa)
#
#
# Indices 1 2 3 4 5 6 
#
# 1 0.018115 -0.004178 -0.005473 0.000000 0.000000 0.000000
# 2 -0.004178 0.015709 -0.002059 0.000000 0.000000 0.000000
# 3 -0.005473 -0.002059 0.012512 0.000000 0.000000 0.000000
# 4 0.000000 0.000000 0.000000 0.028662 0.000000 0.000000
# 5 0.000000 0.000000 0.000000 0.000000 0.045379 0.000000
# 6 0.000000 0.000000 0.000000 0.000000 0.000000 0.084153
#
#
# Mechanical properties :
#
#
# Convention : Reuss Voigt Hill
#
# Bulk Modulus (GPa) = 43.63992 44.95933 44.29962
# Shear Modulus (GPa) = 21.22332 24.57007 22.89669
#
# Velocity S-wave (km/s) = 3.46706 3.73042 3.60115
# Velocity P-wave (km/s) = 6.38312 6.63468 6.51011
#
# Compressibility (1/GPa) = 0.02291480
#
# Stress axis : x y z
#
# Youngs Moduli (GPa) = 55.20149 63.65835 79.92523
#
# Poissons Ratio (x) = 0.26599 0.43745
# Poissons Ratio (y) = 0.23066 0.16456
# Poissons Ratio (z) = 0.30213 0.13107
#
# Static dielectric constant tensor:
#      x y z
#    x 1.592440 0.000000 0.000000 
#    y 0.000000 1.587100 0.000000 
#    z 0.000000 0.000000 1.601800 
# 
# From -- ./inp_files/39047.got.cif
#   From: 2010.05.17/outbox.cif.g08.bks.cpg/sg74_20_cif.got.tgz:39047.got - 2010.06.03 17:57:02.
