data_PCOD9540488
_publ_section_title
;
Structure prediction by ZEFSAII (Michael W. Deem and Ramdas Pophale) SiO2 
 PCOD9540488
Probable space group: I M M A
;
_chemical_formula_sum "Si O2"
_cell_formula_units_Z 52
_cell_length_a 15.137635
_cell_length_b 18.089013
_cell_length_c 8.306573
_cell_angle_alpha 90.000000
_cell_angle_beta 90.000000
_cell_angle_gamma 90.000000
_cell_volume 2274.546324
_symmetry_space_group_name_H-M "I M M A"
_symmetry_group_IT_number 74
_symmetry_cell_setting 'orthorhombic'
loop_
_space_group_symop_operation_xyz
x,y,z
-x,1/2-y,z
x,-y,-z
-x,1/2+y,-z
-x,-y,-z
x,1/2+y,-z
-x,y,z
x,1/2-y,z
1/2+x,1/2+y,1/2+z
1/2-x,-y,1/2+z
1/2+x,1/2-y,1/2-z
1/2-x,y,1/2-z
1/2-x,1/2-y,1/2-z
1/2+x,y,1/2-z
1/2-x,1/2+y,1/2+z
1/2+x,-y,1/2+z
loop_
_atom_site_type_symbol
_atom_site_label
_atom_site_fract_x
_atom_site_fract_y
_atom_site_fract_z
Si Si1 0.500000 0.250000 0.768526
Si Si2 0.398753 0.331393 0.333323
Si Si3 0.349977 0.631146 0.317262
Si Si4 0.848311 0.523218 0.684777
O O1 0.421188 0.314009 0.759707
O O2 0.500000 0.326596 0.391374
O O3 0.374676 0.250000 0.269102
O O4 0.344935 0.350598 0.493202
O O5 0.393949 0.398320 0.210196
O O6 0.250000 0.637467 0.250000
O O7 0.381675 0.546869 0.287271
O O8 0.848605 0.500000 0.500000
O O9 0.750000 0.535096 0.750000
#
# Coordination Sequence:
#
# PCOD9540488 Si02
#       4
#     4  16  16  16
#     4  12  22  40  68 112 132 188 230 294 338 420
#     4  11  23  44  71 104 138 181 232 286 345 414
#     4  11  22  43  72 101 141 182 238 286 346 414
#     4  11  25  46  68  99 136 186 233 282 347 417
#
# _framework density 22.861701
#
# number of rings (size 3 to 8) (size 9 to 14) (size 15 to 20)
#    0.000    0.923    3.077    5.077    2.154    2.462 
#    2.769    0.000    0.000    0.000    0.000    0.000 
#    0.000    0.000    0.000    0.000    0.000    0.000 
#
# Total GULP energy -144865.865155 kJ/mol
# GULP energy per Si atom -5571.764044 kJ/mol
# Density = 2.280967 g / cm^3
# Si number density = 22.861701 Si / 1000 Ang^3
#
#
#
# Elastic Constant Matrix: (Units=GPa)
#
#
# Indices 1 2 3 4 5 6 
#
# 1 96.3041 54.7750 33.0585 0.0000 0.0000 0.0000
# 2 54.7750 239.2727 54.6398 0.0000 0.0000 0.0000
# 3 33.0585 54.6398 74.8154 0.0000 0.0000 0.0000
# 4 0.0000 0.0000 0.0000 11.6878 0.0000 0.0000
# 5 0.0000 0.0000 0.0000 0.0000 8.4314 0.0000
# 6 0.0000 0.0000 0.0000 0.0000 0.0000 34.4208
#
#
#
# Elastic Compliance Matrix: (Units=1/GPa)
#
#
# Indices 1 2 3 4 5 6 
#
# 1 0.012989 -0.001996 -0.004282 0.000000 0.000000 0.000000
# 2 -0.001996 0.005322 -0.003005 0.000000 0.000000 0.000000
# 3 -0.004282 -0.003005 0.017453 0.000000 0.000000 0.000000
# 4 0.000000 0.000000 0.000000 0.085559 0.000000 0.000000
# 5 0.000000 0.000000 0.000000 0.000000 0.118604 0.000000
# 6 0.000000 0.000000 0.000000 0.000000 0.000000 0.029052
#
#
# Mechanical properties :
#
#
# Convention : Reuss Voigt Hill
#
# Bulk Modulus (GPa) = 58.14401 77.25988 67.70194
# Shear Modulus (GPa) = 17.04867 28.76927 22.90897
#
# Velocity S-wave (km/s) = 2.73377 3.55125 3.16898
# Velocity P-wave (km/s) = 5.95423 7.11920 6.56261
#
# Compressibility (1/GPa) = 0.01719868
#
# Stress axis : x y z
#
# Youngs Moduli (GPa) = 76.99032 187.88276 57.29633
#
# Poissons Ratio (x) = 0.37494 0.24533
# Poissons Ratio (y) = 0.15364 0.17220
# Poissons Ratio (z) = 0.32966 0.56465
#
# Static dielectric constant tensor:
#      x y z
#    x 1.852840 0.000000 0.000000 
#    y 0.000000 1.894210 0.000000 
#    z 0.000000 0.000000 1.858240 
# 
# From -- ./inp_files/8337.got.cif
#   From: 2010.05.17/outbox.cif.g08.bks.cpg/sg74_5_cif.got.tgz:8337.got - 2010.06.03 17:57:02.
