data_PCOD9540462
_publ_section_title
;
Structure prediction by ZEFSAII (Michael W. Deem and Ramdas Pophale) SiO2 
 PCOD9540462
Probable space group: I M M A
;
_chemical_formula_sum "Si O2"
_cell_formula_units_Z 52
_cell_length_a 7.588965
_cell_length_b 21.379852
_cell_length_c 18.808403
_cell_angle_alpha 90.000000
_cell_angle_beta 90.000000
_cell_angle_gamma 90.000000
_cell_volume 3051.681227
_symmetry_space_group_name_H-M "I M M A"
_symmetry_group_IT_number 74
_symmetry_cell_setting 'orthorhombic'
loop_
_space_group_symop_operation_xyz
x,y,z
-x,1/2-y,z
x,-y,-z
-x,1/2+y,-z
-x,-y,-z
x,1/2+y,-z
-x,y,z
x,1/2-y,z
1/2+x,1/2+y,1/2+z
1/2-x,-y,1/2+z
1/2+x,1/2-y,1/2-z
1/2-x,y,1/2-z
1/2-x,1/2-y,1/2-z
1/2+x,y,1/2-z
1/2-x,1/2+y,1/2+z
1/2+x,-y,1/2+z
loop_
_atom_site_type_symbol
_atom_site_label
_atom_site_fract_x
_atom_site_fract_y
_atom_site_fract_z
Si Si1 0.000000 0.047217 0.568330
Si Si2 0.707178 0.347439 0.378551
Si Si3 0.793776 0.009031 0.166638
Si Si4 0.750000 0.750000 0.750000
Si Si5 0.000000 0.179465 0.494519
O O1 0.000000 0.119349 0.545184
O O2 0.000000 0.000000 0.500000
O O3 0.169433 0.031847 0.616563
O O4 0.500000 0.340044 0.394799
O O5 0.739867 0.418993 0.355977
O O6 0.750294 0.303813 0.311840
O O7 0.830551 0.328484 0.443433
O O8 0.750000 0.001818 0.250000
O O9 0.000000 0.995884 0.155594
O O10 0.000000 0.250000 0.524930
#
# Coordination Sequence:
#
# PCOD9540462 Si02
#       5
#     8  16  16   4   8
#     4  12  24  42  64  96 129 163 219 266 312 384
#     4  11  24  35  55  89 128 171 208 241 293 379
#     4  11  22  39  65  93 126 164 212 267 317 365
#     4  12  22  32  54  90 136 174 200 230 286 386
#     4  12  26  42  60  86 130 171 204 253 323 365
#
# _framework density 17.039788000000001
#
# number of rings (size 3 to 8) (size 9 to 14) (size 15 to 20)
#    0.000    0.615    7.692    0.462    4.308    1.846 
#    0.000    0.000    0.000    0.923    0.000    0.000 
#    0.000    0.000    0.000    0.000    0.000    0.000 
#
# Total GULP energy -144789.535118 kJ/mol
# GULP energy per Si atom -5568.828274 kJ/mol
# Density = 1.700101 g / cm^3
# Si number density = 17.039788 Si / 1000 Ang^3
#
#
#
# Elastic Constant Matrix: (Units=GPa)
#
#
# Indices 1 2 3 4 5 6 
#
# 1 81.1847 70.0647 52.2305 0.0000 0.0000 0.0000
# 2 70.0647 161.7660 74.3116 0.0000 0.0000 0.0000
# 3 52.2305 74.3116 74.9287 0.0000 0.0000 0.0001
# 4 0.0000 0.0000 0.0000 42.8257 0.0000 0.0000
# 5 0.0000 0.0000 0.0000 0.0000 -35.3956 0.0000
# 6 0.0000 0.0000 0.0001 0.0000 0.0000 -394.0900
#
#
#
# Elastic Compliance Matrix: (Units=1/GPa)
#
#
# Indices 1 2 3 4 5 6 
#
# 1 0.024397 -0.005060 -0.011988 0.000000 0.000000 0.000000
# 2 -0.005060 0.012404 -0.008775 0.000000 0.000000 0.000000
# 3 -0.011988 -0.008775 0.030406 0.000000 0.000000 0.000000
# 4 0.000000 0.000000 0.000000 0.023350 0.000000 0.000000
# 5 0.000000 0.000000 0.000000 0.000000 -0.028252 0.000000
# 6 0.000000 0.000000 0.000000 0.000000 0.000000 -0.002537
#
#
# Mechanical properties :
#
#
# Convention : Reuss Voigt Hill
#
# Bulk Modulus (GPa) = 64.26547 79.01035 71.63791
# Shear Modulus (GPa) = 42.88105 -69.24715 -13.18305
#
# Velocity S-wave (km/s) = 5.02194 -6.38175 -2.78450
# Velocity P-wave (km/s) = 8.45123 2.79884 5.63870
#
# Compressibility (1/GPa) = 0.01556046
#
# Stress axis : x y z
#
# Youngs Moduli (GPa) = 40.98855 80.61630 32.88857
#
# Poissons Ratio (x) = 0.40790 0.39428
# Poissons Ratio (y) = 0.20739 0.28861
# Poissons Ratio (z) = 0.49138 0.70743
#
# Static dielectric constant tensor:
#      x y z
#    x 1.616290 0.000000 0.000000 
#    y 0.000000 1.575370 0.000000 
#    z 0.000000 0.000000 1.537380 
# 
# From -- ./inp_files/28446.got.cif
#   From: 2010.05.17/outbox.cif.g08.bks.cpg/sg74_15_cif.got.tgz:28446.got - 2010.06.03 17:57:02.
