data_PCOD9540626
_publ_section_title
;
Structure prediction by ZEFSAII (Michael W. Deem and Ramdas Pophale) SiO2 
 PCOD9540626
Probable space group: I M M A
;
_chemical_formula_sum "Si O2"
_cell_formula_units_Z 72
_cell_length_a 14.993572
_cell_length_b 24.279167
_cell_length_c 9.372533
_cell_angle_alpha 90.000000
_cell_angle_beta 90.000000
_cell_angle_gamma 90.000000
_cell_volume 3411.896671
_symmetry_space_group_name_H-M "I M M A"
_symmetry_group_IT_number 74
_symmetry_cell_setting 'orthorhombic'
loop_
_space_group_symop_operation_xyz
x,y,z
-x,1/2-y,z
x,-y,-z
-x,1/2+y,-z
-x,-y,-z
x,1/2+y,-z
-x,y,z
x,1/2-y,z
1/2+x,1/2+y,1/2+z
1/2-x,-y,1/2+z
1/2+x,1/2-y,1/2-z
1/2-x,y,1/2-z
1/2-x,1/2-y,1/2-z
1/2+x,y,1/2-z
1/2-x,1/2+y,1/2+z
1/2+x,-y,1/2+z
loop_
_atom_site_type_symbol
_atom_site_label
_atom_site_fract_x
_atom_site_fract_y
_atom_site_fract_z
Si Si1 0.893037 0.250000 0.875442
Si Si2 0.845792 0.640619 0.298478
Si Si3 0.103497 0.140585 0.377655
Si Si4 0.250000 0.557822 0.750000
Si Si5 0.854794 0.000000 0.000000
Si Si6 0.853590 0.250000 0.210464
Si Si7 0.500000 0.573176 0.347271
O O1 0.859885 0.304029 0.794074
O O2 0.000000 0.250000 0.870602
O O3 0.865201 0.250000 0.040446
O O4 0.750000 0.618544 0.250000
O O5 0.857093 0.653723 0.465595
O O6 0.922712 0.598708 0.257333
O O7 0.169894 0.095874 0.309835
O O8 0.106008 0.195175 0.280348
O O9 0.000000 0.122145 0.387550
O O10 0.207420 0.521200 0.873476
O O11 0.921121 0.048462 0.951452
O O12 0.750000 0.250000 0.250000
#
# Coordination Sequence:
#
# PCOD9540626 Si02
#       7
#     8  16  16   8   8   8   8
#     4  12  24  42  72 110 151 199 233 293 358 443
#     4  12  25  46  76 107 148 193 245 292 363 442
#     4  12  26  47  74 111 149 194 239 301 361 445
#     4  12  30  51  78 108 146 193 252 306 384 426
#     4  11  30  50  77 106 146 189 248 326 365 440
#     4  12  25  44  69 111 158 191 241 292 362 436
#     4  11  26  49  77 107 144 190 246 312 371 425
#
# _framework density 21.102632
#
# number of rings (size 3 to 8) (size 9 to 14) (size 15 to 20)
#    0.000    0.222    3.333    4.667   10.889    0.000 
#    0.000    1.667    0.000    0.000    0.000    0.000 
#    0.000    0.000    0.000    0.000    0.000    0.000 
#
# Total GULP energy -200473.295201 kJ/mol
# GULP energy per Si atom -5568.702644 kJ/mol
# Density = 2.105460 g / cm^3
# Si number density = 21.102632 Si / 1000 Ang^3
#
#
#
# Elastic Constant Matrix: (Units=GPa)
#
#
# Indices 1 2 3 4 5 6 
#
# 1 220.9837 50.3051 69.0564 -0.0001 0.0000 0.0001
# 2 50.3051 33.0566 64.5901 0.0003 0.0000 -0.0001
# 3 69.0564 64.5901 200.9396 0.0020 -0.0002 -0.0013
# 4 -0.0001 0.0003 0.0020 34.6310 -0.0001 -0.0004
# 5 0.0000 0.0000 -0.0002 -0.0001 48.5272 0.0001
# 6 0.0001 -0.0001 -0.0013 -0.0004 0.0001 7.6046
#
#
#
# Elastic Compliance Matrix: (Units=1/GPa)
#
#
# Indices 1 2 3 4 5 6 
#
# 1 0.007519 -0.017190 0.002941 0.000000 0.000000 0.000000
# 2 -0.017190 0.120634 -0.032869 0.000001 0.000000 -0.000004
# 3 0.002941 -0.032869 0.014531 -0.000001 0.000000 0.000002
# 4 0.000000 0.000001 -0.000001 0.028876 0.000000 0.000002
# 5 0.000000 0.000000 0.000000 0.000000 0.020607 0.000000
# 6 0.000000 -0.000004 0.000002 0.000002 0.000000 0.131499
#
#
# Mechanical properties :
#
#
# Convention : Reuss Voigt Hill
#
# Bulk Modulus (GPa) = 20.64005 91.43145 56.03575
# Shear Modulus (GPa) = 11.51936 36.22111 23.87023
#
# Velocity S-wave (km/s) = 2.33893 4.14747 3.36691
# Velocity P-wave (km/s) = 4.13475 8.14595 6.45959
#
# Compressibility (1/GPa) = 0.04844950
#
# Stress axis : x y z
#
# Youngs Moduli (GPa) = 132.99314 8.28950 68.81735
#
# Poissons Ratio (x) = 0.14250 -0.20242
# Poissons Ratio (y) = 2.28615 2.26197
# Poissons Ratio (z) = -0.39119 0.27247
#
# Static dielectric constant tensor:
#      x y z
#    x 1.807480 0.000000 0.000000 
#    y 0.000000 1.864380 0.000000 
#    z 0.000000 0.000000 1.744180 
# 
# From -- ./inp_files/9241.got.cif
#   From: 2010.05.17/outbox.cif.g08.bks.cpg/sg74_5_cif.got.tgz:9241.got - 2010.06.03 17:57:02.
