data_PCOD9540351
_publ_section_title
;
Structure prediction by ZEFSAII (Michael W. Deem and Ramdas Pophale) SiO2 
 PCOD9540351
Probable space group: I M M A
;
_chemical_formula_sum "Si O2"
_cell_formula_units_Z 96
_cell_length_a 20.780400
_cell_length_b 15.222845
_cell_length_c 17.554481
_cell_angle_alpha 90.000000
_cell_angle_beta 90.000000
_cell_angle_gamma 90.000000
_cell_volume 5553.128490
_symmetry_space_group_name_H-M "I M M A"
_symmetry_group_IT_number 74
_symmetry_cell_setting 'orthorhombic'
loop_
_space_group_symop_operation_xyz
x,y,z
-x,1/2-y,z
x,-y,-z
-x,1/2+y,-z
-x,-y,-z
x,1/2+y,-z
-x,y,z
x,1/2-y,z
1/2+x,1/2+y,1/2+z
1/2-x,-y,1/2+z
1/2+x,1/2-y,1/2-z
1/2-x,y,1/2-z
1/2-x,1/2-y,1/2-z
1/2+x,y,1/2-z
1/2-x,1/2+y,1/2+z
1/2+x,-y,1/2+z
loop_
_atom_site_type_symbol
_atom_site_label
_atom_site_fract_x
_atom_site_fract_y
_atom_site_fract_z
Si Si1 0.693783 0.148429 0.813723
Si Si2 0.922481 0.750000 0.915949
Si Si3 0.750282 0.508042 0.589982
Si Si4 0.422463 0.250000 0.588732
Si Si5 0.620503 0.074382 0.328675
Si Si6 0.189540 0.149631 0.309452
Si Si7 0.072908 0.605062 0.209725
O O1 0.688437 0.250000 0.838621
O O2 0.750000 0.144309 0.750000
O O3 0.626591 0.118614 0.774760
O O4 0.717111 0.079922 0.877052
O O5 0.899002 0.838868 0.874995
O O6 0.000000 0.750000 0.915121
O O7 0.897534 0.750000 0.002999
O O8 0.742287 0.500000 0.500000
O O9 0.682693 0.529610 0.631607
O O10 0.793704 0.589686 0.618796
O O11 0.500000 0.250000 0.582298
O O12 0.404966 0.333785 0.639340
O O13 0.635600 0.106560 0.243207
O O14 0.571938 0.994306 0.320099
O O15 0.176070 0.250000 0.329798
O O16 0.250000 0.149993 0.250000
O O17 0.000000 0.631382 0.232042
#
# Coordination Sequence:
#
# PCOD9540351 Si02
#       7
#    16   8  16   8  16  16  16
#     4  11  21  38  61  84 117 153 196 245 288 348
#     4  11  24  38  53  84 123 159 197 238 281 341
#     4  11  23  36  55  88 121 150 194 244 297 348
#     4   9  22  38  53  82 123 155 195 240 283 343
#     4  11  21  37  57  83 114 156 198 234 281 344
#     4   9  17  34  56  76 106 146 190 237 282 335
#     4  11  21  37  62  88 116 157 198 239 290 346
#
# _framework density 17.287552000000002
#
# number of rings (size 3 to 8) (size 9 to 14) (size 15 to 20)
#    0.000    1.500    5.000    1.000    3.500    0.667 
#    0.000    2.500    0.000    0.500    0.000    0.000 
#    0.000    0.000    0.000    0.000    0.000    0.000 
#
# Total GULP energy -267668.066245 kJ/mol
# GULP energy per Si atom -5576.418047 kJ/mol
# Density = 1.724820 g / cm^3
# Si number density = 17.287552 Si / 1000 Ang^3
#
#
#
# Elastic Constant Matrix: (Units=GPa)
#
#
# Indices 1 2 3 4 5 6 
#
# 1 78.6814 34.4335 28.5091 0.0000 0.0000 0.0000
# 2 34.4335 146.9002 35.0955 0.0000 0.0000 0.0000
# 3 28.5091 35.0955 61.4891 0.0000 0.0000 0.0000
# 4 0.0000 0.0000 0.0000 14.8999 0.0000 0.0000
# 5 0.0000 0.0000 0.0000 0.0000 15.5655 0.0000
# 6 0.0000 0.0000 0.0000 0.0000 0.0000 14.2315
#
#
#
# Elastic Compliance Matrix: (Units=1/GPa)
#
#
# Indices 1 2 3 4 5 6 
#
# 1 0.015908 -0.002277 -0.006076 0.000000 0.000000 0.000000
# 2 -0.002277 0.008208 -0.003629 0.000000 0.000000 0.000000
# 3 -0.006076 -0.003629 0.021151 0.000000 0.000000 0.000000
# 4 0.000000 0.000000 0.000000 0.067115 0.000000 0.000000
# 5 0.000000 0.000000 0.000000 0.000000 0.064245 0.000000
# 6 0.000000 0.000000 0.000000 0.000000 0.000000 0.070267
#
#
# Mechanical properties :
#
#
# Convention : Reuss Voigt Hill
#
# Bulk Modulus (GPa) = 46.94164 53.68298 50.31231
# Shear Modulus (GPa) = 17.98834 21.54155 19.76495
#
# Velocity S-wave (km/s) = 3.22924 3.53381 3.38495
# Velocity P-wave (km/s) = 6.41220 6.91164 6.66660
#
# Compressibility (1/GPa) = 0.02130305
#
# Stress axis : x y z
#
# Youngs Moduli (GPa) = 62.86340 121.83048 47.27834
#
# Poissons Ratio (x) = 0.27743 0.28725
# Poissons Ratio (y) = 0.14315 0.17158
# Poissons Ratio (z) = 0.38194 0.44213
#
# Static dielectric constant tensor:
#      x y z
#    x 1.613110 0.000000 0.000000 
#    y 0.000000 1.610600 0.000000 
#    z 0.000000 0.000000 1.556720 
# 
# From -- ./inp_files/32467.got.cif
#   From: 2010.05.17/outbox.cif.g08.bks.cpg/sg74_17_cif.got.tgz:32467.got - 2010.06.03 17:57:02.
