data_PCOD9540161
_publ_section_title
;
Structure prediction by ZEFSAII (Michael W. Deem and Ramdas Pophale) SiO2 
 PCOD9540161
Probable space group: I M M A
;
_chemical_formula_sum "Si O2"
_cell_formula_units_Z 64
_cell_length_a 11.162085
_cell_length_b 28.304103
_cell_length_c 9.135714
_cell_angle_alpha 90.000000
_cell_angle_beta 90.000000
_cell_angle_gamma 90.000000
_cell_volume 2886.271736
_symmetry_space_group_name_H-M "I M M A"
_symmetry_group_IT_number 74
_symmetry_cell_setting 'orthorhombic'
loop_
_space_group_symop_operation_xyz
x,y,z
-x,1/2-y,z
x,-y,-z
-x,1/2+y,-z
-x,-y,-z
x,1/2+y,-z
-x,y,z
x,1/2-y,z
1/2+x,1/2+y,1/2+z
1/2-x,-y,1/2+z
1/2+x,1/2-y,1/2-z
1/2-x,y,1/2-z
1/2-x,1/2-y,1/2-z
1/2+x,y,1/2-z
1/2-x,1/2+y,1/2+z
1/2+x,-y,1/2+z
loop_
_atom_site_type_symbol
_atom_site_label
_atom_site_fract_x
_atom_site_fract_y
_atom_site_fract_z
Si Si1 0.245631 0.625786 0.424235
Si Si2 0.138262 0.806796 0.643731
Si Si3 0.500000 0.415815 0.504279
Si Si4 0.791135 0.538026 0.594818
Si Si5 0.000000 0.499420 0.768193
O O1 0.250000 0.625445 0.250000
O O2 0.180076 0.671186 0.489805
O O3 0.380350 0.615557 0.484882
O O4 0.175872 0.581123 0.492622
O O5 0.136105 0.750000 0.639501
O O6 0.250000 0.820446 0.750000
O O7 0.000000 0.822104 0.680858
O O8 0.500000 0.452148 0.366564
O O9 0.500000 0.451486 0.642012
O O10 0.712260 0.500000 0.500000
O O11 0.750000 0.559789 0.750000
O O12 0.889178 0.503365 0.660165
#
# Coordination Sequence:
#
# PCOD9540161 Si02
#       5
#    16  16   8  16   8
#     4  12  27  42  70 100 143 185 243 298 367 438
#     4  10  25  50  80 111 144 185 240 305 375 451
#     4  11  24  44  61 102 139 189 241 306 360 437
#     4  12  23  38  60  91 128 184 233 289 348 416
#     4  11  23  40  62  88 139 189 244 294 347 415
#
# _framework density 22.173933000000002
#
# number of rings (size 3 to 8) (size 9 to 14) (size 15 to 20)
#    0.000    0.750    2.500    4.875    5.250    0.500 
#    0.000    0.000    0.000    0.000    0.000    0.000 
#    0.000    0.000    0.000    0.000    0.000    0.000 
#
# Total GULP energy -178467.572012 kJ/mol
# GULP energy per Si atom -5577.111625 kJ/mol
# Density = 2.212346 g / cm^3
# Si number density = 22.173933 Si / 1000 Ang^3
#
#
#
# Elastic Constant Matrix: (Units=GPa)
#
#
# Indices 1 2 3 4 5 6 
#
# 1 148.9879 32.2242 34.7691 -0.0001 0.0001 -0.0004
# 2 32.2242 36.4439 30.2945 -0.0001 0.0000 0.0000
# 3 34.7691 30.2945 153.5824 -0.0009 0.0019 -0.0022
# 4 -0.0001 -0.0001 -0.0009 35.0594 0.0003 -0.0001
# 5 0.0001 0.0000 0.0019 0.0003 28.1742 0.0002
# 6 -0.0004 0.0000 -0.0022 -0.0001 0.0002 11.5533
#
#
#
# Elastic Compliance Matrix: (Units=1/GPa)
#
#
# Indices 1 2 3 4 5 6 
#
# 1 0.008333 -0.006938 -0.000518 0.000000 0.000000 0.000000
# 2 -0.006938 0.038597 -0.006043 0.000000 0.000000 -0.000001
# 3 -0.000518 -0.006043 0.007820 0.000000 -0.000001 0.000001
# 4 0.000000 0.000000 0.000000 0.028523 0.000000 0.000000
# 5 0.000000 0.000000 -0.000001 0.000000 0.035493 -0.000001
# 6 0.000000 -0.000001 0.000001 0.000000 -0.000001 0.086555
#
#
# Mechanical properties :
#
#
# Convention : Reuss Voigt Hill
#
# Bulk Modulus (GPa) = 36.03139 59.28775 47.65957
# Shear Modulus (GPa) = 20.69783 31.07248 25.88516
#
# Velocity S-wave (km/s) = 3.05852 3.74746 3.42038
# Velocity P-wave (km/s) = 5.36260 6.74687 6.09417
#
# Compressibility (1/GPa) = 0.02775358
#
# Stress axis : x y z
#
# Youngs Moduli (GPa) = 119.99863 25.90869 127.87086
#
# Poissons Ratio (x) = 0.17975 0.06625
# Poissons Ratio (y) = 0.83253 0.77269
# Poissons Ratio (z) = 0.06217 0.15656
#
# Static dielectric constant tensor:
#      x y z
#    x 1.969710 0.000000 0.000000 
#    y 0.000000 1.805860 0.000000 
#    z 0.000000 0.000000 1.851650 
# 
# From -- ./inp_files/7343.got.cif
#   From: 2010.05.17/outbox.cif.g08.bks.cpg/sg74_4_cif.got.tgz:7343.got - 2010.06.03 17:57:02.
