data_PCOD9540142
_publ_section_title
;
Structure prediction by ZEFSAII (Michael W. Deem and Ramdas Pophale) SiO2 
 PCOD9540142
Probable space group: I M M A
;
_chemical_formula_sum "Si O2"
_cell_formula_units_Z 60
_cell_length_a 9.514099
_cell_length_b 15.356163
_cell_length_c 22.095051
_cell_angle_alpha 90.000000
_cell_angle_beta 90.000000
_cell_angle_gamma 90.000000
_cell_volume 3228.088167
_symmetry_space_group_name_H-M "I M M A"
_symmetry_group_IT_number 74
_symmetry_cell_setting 'orthorhombic'
loop_
_space_group_symop_operation_xyz
x,y,z
-x,1/2-y,z
x,-y,-z
-x,1/2+y,-z
-x,-y,-z
x,1/2+y,-z
-x,y,z
x,1/2-y,z
1/2+x,1/2+y,1/2+z
1/2-x,-y,1/2+z
1/2+x,1/2-y,1/2-z
1/2-x,y,1/2-z
1/2-x,1/2-y,1/2-z
1/2+x,y,1/2-z
1/2-x,1/2+y,1/2+z
1/2+x,-y,1/2+z
loop_
_atom_site_type_symbol
_atom_site_label
_atom_site_fract_x
_atom_site_fract_y
_atom_site_fract_z
Si Si1 0.250000 0.885015 0.250000
Si Si2 0.500000 0.250000 0.720362
Si Si3 0.664550 0.014562 0.869194
Si Si4 0.164236 0.849891 0.905564
Si Si5 0.664426 0.149800 0.551174
O O1 0.375550 0.825347 0.275832
O O2 0.310268 0.943859 0.196239
O O3 0.500000 0.008174 0.882279
O O4 0.738863 0.080476 0.916173
O O5 0.738625 0.921453 0.875451
O O6 0.198242 0.750000 0.889486
O O7 0.000000 0.865583 0.891225
O O8 0.177018 0.857120 0.978646
O O9 0.500000 0.135518 0.566789
O O10 0.698198 0.250000 0.568649
#
# Coordination Sequence:
#
# PCOD9540142 Si02
#       5
#     8   4  16  16  16
#     4  11  26  42  61  90 118 158 197 238 289 352
#     4  10  24  46  64  78 126 158 196 238 288 340
#     4  12  25  37  57  89 121 152 196 243 293 349
#     4   9  20  41  63  86 114 154 200 242 286 346
#     4   9  20  36  60  88 118 156 197 235 287 349
#
# _framework density 18.586853000000001
#
# number of rings (size 3 to 8) (size 9 to 14) (size 15 to 20)
#    0.000    1.867    1.333    3.200    7.467    5.333 
#    0.000    3.333    0.000    0.000    0.000    0.000 
#    0.000    0.000    0.000    0.000    0.000    0.000 
#
# Total GULP energy -167128.754467 kJ/mol
# GULP energy per Si atom -5570.958482 kJ/mol
# Density = 1.854455 g / cm^3
# Si number density = 18.586853 Si / 1000 Ang^3
#
#
#
# Elastic Constant Matrix: (Units=GPa)
#
#
# Indices 1 2 3 4 5 6 
#
# 1 119.0187 98.2542 21.2056 0.0000 0.0000 0.0000
# 2 98.2542 156.8901 44.6966 0.0000 0.0000 0.0000
# 3 21.2056 44.6966 24.6834 0.0000 0.0000 0.0000
# 4 0.0000 0.0000 0.0000 2.0444 0.0000 0.0000
# 5 0.0000 0.0000 0.0000 0.0000 11.6902 0.0000
# 6 0.0000 0.0000 0.0000 0.0000 0.0000 15.2476
#
#
#
# Elastic Compliance Matrix: (Units=1/GPa)
#
#
# Indices 1 2 3 4 5 6 
#
# 1 0.018646 -0.014694 0.010589 0.000000 0.000000 0.000000
# 2 -0.014694 0.024745 -0.032185 0.000000 0.000000 0.000000
# 3 0.010589 -0.032185 0.089697 0.000000 0.000000 0.000000
# 4 0.000000 0.000000 0.000000 0.489143 0.000000 0.000000
# 5 0.000000 0.000000 0.000000 0.000000 0.085542 0.000000
# 6 0.000000 0.000000 0.000000 0.000000 0.000000 0.065584
#
#
# Mechanical properties :
#
#
# Convention : Reuss Voigt Hill
#
# Bulk Modulus (GPa) = 16.52685 69.87833 43.20259
# Shear Modulus (GPa) = 5.77296 14.89215 10.33255
#
# Velocity S-wave (km/s) = 1.76428 2.83365 2.36032
# Velocity P-wave (km/s) = 3.61403 6.95581 5.54277
#
# Compressibility (1/GPa) = 0.06050761
#
# Stress axis : x y z
#
# Youngs Moduli (GPa) = 53.63208 40.41187 11.14863
#
# Poissons Ratio (x) = 0.59380 -0.11805
# Poissons Ratio (y) = 0.78805 0.35882
# Poissons Ratio (z) = -0.56789 1.30066
#
# Static dielectric constant tensor:
#      x y z
#    x 1.608850 0.000000 0.000000 
#    y 0.000000 1.629640 0.000000 
#    z 0.000000 0.000000 1.656350 
# 
# From -- ./inp_files/56321.got.cif
#   From: 2010.05.17/outbox.cif.g08.bks.cpg/sg74_29_cif.got.tgz:56321.got - 2010.06.03 17:57:02.
