data_PCOD9540580
_publ_section_title
;
Structure prediction by ZEFSAII (Michael W. Deem and Ramdas Pophale) SiO2 
 PCOD9540580
Probable space group: I M M A
;
_chemical_formula_sum "Si O2"
_cell_formula_units_Z 40
_cell_length_a 23.612569
_cell_length_b 17.528464
_cell_length_c 4.687005
_cell_angle_alpha 90.000000
_cell_angle_beta 90.000000
_cell_angle_gamma 90.000000
_cell_volume 1939.914181
_symmetry_space_group_name_H-M "I M M A"
_symmetry_group_IT_number 74
_symmetry_cell_setting 'orthorhombic'
loop_
_space_group_symop_operation_xyz
x,y,z
-x,1/2-y,z
x,-y,-z
-x,1/2+y,-z
-x,-y,-z
x,1/2+y,-z
-x,y,z
x,1/2-y,z
1/2+x,1/2+y,1/2+z
1/2-x,-y,1/2+z
1/2+x,1/2-y,1/2-z
1/2-x,y,1/2-z
1/2-x,1/2-y,1/2-z
1/2+x,y,1/2-z
1/2-x,1/2+y,1/2+z
1/2+x,-y,1/2+z
loop_
_atom_site_type_symbol
_atom_site_label
_atom_site_fract_x
_atom_site_fract_y
_atom_site_fract_z
Si Si1 0.388768 0.923359 0.828919
Si Si2 0.211102 0.500000 0.000000
Si Si3 0.063857 0.662772 0.184813
O O1 0.329909 0.942321 0.670262
O O2 0.428925 0.894799 0.577082
O O3 0.391442 0.859346 0.071749
O O4 0.405679 0.000000 0.000000
O O5 0.250000 0.465227 0.750000
O O6 0.071406 0.750000 0.088420
O O7 0.000000 0.655793 0.303262
#
# Coordination Sequence:
#
# PCOD9540580 Si02
#       3
#    16   8  16
#     4  12  22  41  64  99 119 166 216 264 300 365
#     4  12  22  42  67  92 119 158 210 274 332 360
#     4  11  24  41  62  92 137 177 199 240 313 381
#
# _framework density 20.619468999999999
#
# number of rings (size 3 to 8) (size 9 to 14) (size 15 to 20)
#    0.000    0.400    6.000    2.400    0.000    8.000 
#    0.000    0.000    0.000   24.000    0.000    0.000 
#    0.000    0.000    0.000    0.000    0.000    0.000 
#
# Total GULP energy -111586.957042 kJ/mol
# GULP energy per Si atom -5579.347852 kJ/mol
# Density = 2.057254 g / cm^3
# Si number density = 20.619469 Si / 1000 Ang^3
#
#
#
# Elastic Constant Matrix: (Units=GPa)
#
#
# Indices 1 2 3 4 5 6 
#
# 1 87.3415 53.6749 53.5040 0.0000 0.0000 0.0000
# 2 53.6749 83.2558 45.3926 0.0000 0.0000 0.0000
# 3 53.5040 45.3926 145.8600 0.0000 0.0000 0.0000
# 4 0.0000 0.0000 0.0000 35.4509 0.0000 0.0000
# 5 0.0000 0.0000 0.0000 0.0000 52.6272 0.0000
# 6 0.0000 0.0000 0.0000 0.0000 0.0000 22.4588
#
#
#
# Elastic Compliance Matrix: (Units=1/GPa)
#
#
# Indices 1 2 3 4 5 6 
#
# 1 0.020883 -0.011184 -0.004180 0.000000 0.000000 0.000000
# 2 -0.011184 0.020456 -0.002263 0.000000 0.000000 0.000000
# 3 -0.004180 -0.002263 0.009093 0.000000 0.000000 0.000000
# 4 0.000000 0.000000 0.000000 0.028208 0.000000 0.000000
# 5 0.000000 0.000000 0.000000 0.000000 0.019002 0.000000
# 6 0.000000 0.000000 0.000000 0.000000 0.000000 0.044526
#
#
# Mechanical properties :
#
#
# Convention : Reuss Voigt Hill
#
# Bulk Modulus (GPa) = 65.88718 69.06672 67.47695
# Shear Modulus (GPa) = 27.40003 33.03309 30.21656
#
# Velocity S-wave (km/s) = 3.64928 4.00688 3.83226
# Velocity P-wave (km/s) = 7.05547 7.41454 7.23723
#
# Compressibility (1/GPa) = 0.01517746
#
# Stress axis : x y z
#
# Youngs Moduli (GPa) = 47.88603 48.88593 109.97002
#
# Poissons Ratio (x) = 0.54676 0.45963
# Poissons Ratio (y) = 0.53558 0.24890
# Poissons Ratio (z) = 0.20014 0.11065
#
# Static dielectric constant tensor:
#      x y z
#    x 1.747270 0.000000 0.000000 
#    y 0.000000 1.721160 0.000000 
#    z 0.000000 0.000000 1.764830 
# 
# From -- ./inp_files/2570.got.cif
#   From: 2010.05.17/outbox.cif.g08.bks.cpg/sg74_2_cif.got.tgz:2570.got - 2010.06.03 17:57:02.
