data_PCOD9540603
_publ_section_title
;
Structure prediction by ZEFSAII (Michael W. Deem and Ramdas Pophale) SiO2 
 PCOD9540603
Probable space group: I M M A
;
_chemical_formula_sum "Si O2"
_cell_formula_units_Z 52
_cell_length_a 7.838083
_cell_length_b 11.704792
_cell_length_c 29.577689
_cell_angle_alpha 90.000000
_cell_angle_beta 90.000000
_cell_angle_gamma 90.000000
_cell_volume 2713.549802
_symmetry_space_group_name_H-M "I M M A"
_symmetry_group_IT_number 74
_symmetry_cell_setting 'orthorhombic'
loop_
_space_group_symop_operation_xyz
x,y,z
-x,1/2-y,z
x,-y,-z
-x,1/2+y,-z
-x,-y,-z
x,1/2+y,-z
-x,y,z
x,1/2-y,z
1/2+x,1/2+y,1/2+z
1/2-x,-y,1/2+z
1/2+x,1/2-y,1/2-z
1/2-x,y,1/2-z
1/2-x,1/2-y,1/2-z
1/2+x,y,1/2-z
1/2-x,1/2+y,1/2+z
1/2+x,-y,1/2+z
loop_
_atom_site_type_symbol
_atom_site_label
_atom_site_fract_x
_atom_site_fract_y
_atom_site_fract_z
Si Si1 0.000000 0.750000 0.098126
Si Si2 0.000000 0.504480 0.053807
Si Si3 0.804034 0.886395 0.608330
Si Si4 0.691381 0.750000 0.168593
Si Si5 0.203461 0.492774 0.799167
O O1 0.000000 0.635558 0.069318
O O2 0.833913 0.750000 0.129969
O O3 0.833898 0.444412 0.075620
O O4 0.000000 0.500000 0.000000
O O5 0.780891 0.750000 0.608056
O O6 0.000000 0.912348 0.595503
O O7 0.772181 0.934479 0.658789
O O8 0.500000 0.750000 0.149938
O O9 0.718866 0.865635 0.196689
O O10 0.250000 0.540713 0.750000
O O11 0.000000 0.484232 0.803717
#
# Coordination Sequence:
#
# PCOD9540603 Si02
#       5
#     4   8  16   8  16
#     4  12  24  44  68 106 132 174 226 274 342 404
#     4  12  27  46  75 100 136 173 226 283 344 404
#     4  11  24  45  69  96 135 179 225 279 335 397
#     4  12  21  39  63  91 136 180 216 282 333 392
#     4  12  23  39  62  96 135 178 228 274 330 397
#
# _framework density 19.16309
#
# number of rings (size 3 to 8) (size 9 to 14) (size 15 to 20)
#    0.000    0.308    6.154    3.692    2.154    1.231 
#    0.000    0.000    0.000    0.000    0.000    0.000 
#    0.000    0.000    0.000    0.000    0.000    0.000 
#
# Total GULP energy -145478.629409 kJ/mol
# GULP energy per Si atom -5595.331900 kJ/mol
# Density = 1.911947 g / cm^3
# Si number density = 19.163090 Si / 1000 Ang^3
#
#
#
# Elastic Constant Matrix: (Units=GPa)
#
#
# Indices 1 2 3 4 5 6 
#
# 1 184.7060 69.2759 72.6089 0.0000 0.0000 0.0000
# 2 69.2759 107.4695 60.2964 0.0000 0.0000 0.0000
# 3 72.6089 60.2964 171.7707 0.0000 0.0000 0.0000
# 4 0.0000 0.0000 0.0000 42.9423 0.0000 0.0000
# 5 0.0000 0.0000 0.0000 0.0000 21.5854 0.0000
# 6 0.0000 0.0000 0.0000 0.0000 0.0000 25.7269
#
#
#
# Elastic Compliance Matrix: (Units=1/GPa)
#
#
# Indices 1 2 3 4 5 6 
#
# 1 0.007587 -0.003850 -0.001856 0.000000 0.000000 0.000000
# 2 -0.003850 0.013540 -0.003126 0.000000 0.000000 0.000000
# 3 -0.001856 -0.003126 0.007703 0.000000 0.000000 0.000000
# 4 0.000000 0.000000 0.000000 0.023287 0.000000 0.000000
# 5 0.000000 0.000000 0.000000 0.000000 0.046328 0.000000
# 6 0.000000 0.000000 0.000000 0.000000 0.000000 0.038870
#
#
# Mechanical properties :
#
#
# Convention : Reuss Voigt Hill
#
# Bulk Modulus (GPa) = 89.53774 96.47873 93.00823
# Shear Modulus (GPa) = 31.50578 35.50192 33.50385
#
# Velocity S-wave (km/s) = 4.05913 4.30888 4.18587
# Velocity P-wave (km/s) = 8.29423 8.67241 8.48543
#
# Compressibility (1/GPa) = 0.01116848
#
# Stress axis : x y z
#
# Youngs Moduli (GPa) = 131.79676 73.85426 129.81204
#
# Poissons Ratio (x) = 0.28431 0.24092
# Poissons Ratio (y) = 0.50737 0.40575
# Poissons Ratio (z) = 0.24461 0.23085
#
# Static dielectric constant tensor:
#      x y z
#    x 1.673210 0.000000 0.000000 
#    y 0.000000 1.675280 0.000000 
#    z 0.000000 0.000000 1.643770 
# 
# From -- ./inp_files/63198.got.cif
#   From: 2010.05.17/outbox.cif.g08.bks.cpg/sg74_32_cif.got.tgz:63198.got - 2010.06.03 17:57:02.
