data_PCOD9540798
_publ_section_title
;
Structure prediction by ZEFSAII (Michael W. Deem and Ramdas Pophale) SiO2 
 PCOD9540798
Probable space group: I M M A
;
_chemical_formula_sum "Si O2"
_cell_formula_units_Z 36
_cell_length_a 12.000000
_cell_length_b 24.000000
_cell_length_c 15.000000
_cell_angle_alpha 90.000000
_cell_angle_beta 90.000000
_cell_angle_gamma 90.000000
_cell_volume 4320.000000
_symmetry_space_group_name_H-M "I M M A"
_symmetry_group_IT_number 74
_symmetry_cell_setting 'orthorhombic'
loop_
_space_group_symop_operation_xyz
x,y,z
-x,1/2-y,z
x,-y,-z
-x,1/2+y,-z
-x,-y,-z
x,1/2+y,-z
-x,y,z
x,1/2-y,z
1/2+x,1/2+y,1/2+z
1/2-x,-y,1/2+z
1/2+x,1/2-y,1/2-z
1/2-x,y,1/2-z
1/2-x,1/2-y,1/2-z
1/2+x,y,1/2-z
1/2-x,1/2+y,1/2+z
1/2+x,-y,1/2+z
loop_
_atom_site_type_symbol
_atom_site_label
_atom_site_fract_x
_atom_site_fract_y
_atom_site_fract_z
Si Si1 0.632516 0.683827 0.091917
Si Si2 0.372397 0.886562 0.919486
Si Si3 0.250000 0.881841 0.250000
Si Si4 0.873518 0.521336 0.159975
Si Si5 0.250000 0.423451 0.250000
Si Si6 0.794086 0.500000 0.500000
O O1 0.500000 0.673137 0.106368
O O2 0.649638 0.750000 0.091283
O O3 0.703735 0.655067 0.169410
O O4 0.661189 0.656583 0.996531
O O5 0.500000 0.875469 0.893798
O O6 0.293787 0.888421 0.833356
O O7 0.363303 0.948048 0.963467
O O8 0.153397 0.923956 0.217337
O O9 0.846511 0.466169 0.217725
O O10 0.785735 0.520421 0.079525
O O11 0.000000 0.520867 0.128854
#
# Coordination Sequence:
#
# PCOD9540798 Si02
#       6
#    16  16   8  16   8   8
#     4  10  21  36  55  77 101 135 177 216 256 302
#     4  10  19  34  54  76 104 135 172 215 256 307
#     4  11  19  34  51  76 105 138 174 212 252 304
#     4  10  19  30  47  75 108 139 169 207 254 310
#     4   9  20  32  50  76 106 134 171 208 264 310
#     4  10  18  32  48  76 106 138 174 202 258 308
#
# _framework density 8.3333329999999997
#
# number of rings (size 3 to 8) (size 9 to 14) (size 15 to 20)
#    0.000    2.000    2.222    2.333    0.000    0.000 
#    0.000    0.556    0.000    0.000    0.000    0.000 
#    0.000    0.000    0.000    0.000    0.000    0.000 
#
# Total GULP energy -200831.593488 kJ/mol
# GULP energy per Si atom -5578.655375 kJ/mol
# Density = 0.831437 g / cm^3
# Si number density = 8.333333 Si / 1000 Ang^3
#
#
#
# Elastic Constant Matrix: (Units=GPa)
#
#
# Indices 1 2 3 4 5 6 
#
# 1 59.2594 31.3253 38.0304 0.0000 0.0000 0.0000
# 2 31.3253 72.9241 56.5614 0.0001 0.0000 0.0000
# 3 38.0304 56.5614 118.4595 0.0002 0.0000 0.0000
# 4 0.0000 0.0001 0.0002 25.8855 0.0000 0.0000
# 5 0.0000 0.0000 0.0000 0.0000 6.1737 0.0000
# 6 0.0000 0.0000 0.0000 0.0000 0.0000 9.5093
#
#
#
# Elastic Compliance Matrix: (Units=1/GPa)
#
#
# Indices 1 2 3 4 5 6 
#
# 1 0.023108 -0.006626 -0.004255 0.000000 0.000000 0.000000
# 2 -0.006626 0.023678 -0.009178 0.000000 0.000000 0.000000
# 3 -0.004255 -0.009178 0.014190 0.000000 0.000000 0.000000
# 4 0.000000 0.000000 0.000000 0.038632 0.000000 0.000000
# 5 0.000000 0.000000 0.000000 0.000000 0.161977 0.000000
# 6 0.000000 0.000000 0.000000 0.000000 0.000000 0.105161
#
#
# Mechanical properties :
#
#
# Convention : Reuss Voigt Hill
#
# Bulk Modulus (GPa) = 47.94419 55.83080 51.88750
# Shear Modulus (GPa) = 12.08263 16.62875 14.35569
#
# Velocity S-wave (km/s) = 2.69542 3.16211 2.93805
# Velocity P-wave (km/s) = 6.20613 6.84858 6.53526
#
# Compressibility (1/GPa) = 0.02085758
#
# Stress axis : x y z
#
# Youngs Moduli (GPa) = 43.27456 42.23282 70.47129
#
# Poissons Ratio (x) = 0.27984 0.29985
# Poissons Ratio (y) = 0.28675 0.64682
# Poissons Ratio (z) = 0.18413 0.38763
#
# Static dielectric constant tensor:
#      x y z
#    x 1.540920 0.000000 0.000000 
#    y 0.000000 1.539410 0.000000 
#    z 0.000000 0.000000 1.574910 
# 
# From -- ./inp_files/30648.got.cif
#   From: 2010.05.17/outbox.ucp.g08.bks.cvg/sg74_16_cif.got.tgz:30648.got - 2010.06.11 16:37:44.
