data_PCOD9540267
_publ_section_title
;
Structure prediction by ZEFSAII (Michael W. Deem and Ramdas Pophale) SiO2 
 PCOD9540267
Probable space group: I M M A
;
_chemical_formula_sum "Si O2"
_cell_formula_units_Z 84
_cell_length_a 21.356339
_cell_length_b 10.405578
_cell_length_c 21.730381
_cell_angle_alpha 90.000000
_cell_angle_beta 90.000000
_cell_angle_gamma 90.000000
_cell_volume 4829.035032
_symmetry_space_group_name_H-M "I M M A"
_symmetry_group_IT_number 74
_symmetry_cell_setting 'orthorhombic'
loop_
_space_group_symop_operation_xyz
x,y,z
-x,1/2-y,z
x,-y,-z
-x,1/2+y,-z
-x,-y,-z
x,1/2+y,-z
-x,y,z
x,1/2-y,z
1/2+x,1/2+y,1/2+z
1/2-x,-y,1/2+z
1/2+x,1/2-y,1/2-z
1/2-x,y,1/2-z
1/2-x,1/2-y,1/2-z
1/2+x,y,1/2-z
1/2-x,1/2+y,1/2+z
1/2+x,-y,1/2+z
loop_
_atom_site_type_symbol
_atom_site_label
_atom_site_fract_x
_atom_site_fract_y
_atom_site_fract_z
Si Si1 0.102383 0.967989 0.570177
Si Si2 0.751460 0.515410 0.570756
Si Si3 0.647323 0.250000 0.222705
Si Si4 0.253107 0.250000 0.645792
Si Si5 0.925533 0.482578 0.697329
Si Si6 0.145556 0.250000 0.750595
Si Si7 0.219538 0.750000 0.848864
Si Si8 0.500000 0.250000 0.089762
O O1 0.175986 0.937840 0.569517
O O2 0.090711 0.063875 0.627289
O O3 0.054656 0.858287 0.587834
O O4 0.086328 0.000000 0.500000
O O5 0.730974 0.500000 0.500000
O O6 0.750291 0.378144 0.604658
O O7 0.715036 0.622858 0.609391
O O8 0.608365 0.379918 0.208820
O O9 0.711232 0.250000 0.182693
O O10 0.670231 0.250000 0.293332
O O11 0.197250 0.250000 0.695833
O O12 0.316330 0.250000 0.686044
O O13 0.896141 0.376732 0.742027
O O14 0.000000 0.494549 0.704653
#
# Coordination Sequence:
#
# PCOD9540267 Si02
#       8
#    16  16   8   8  16   8   8   4
#     4  11  23  35  49  74 109 154 196 235 270 311
#     4  11  22  37  57  86 114 144 184 233 285 332
#     4  11  22  37  58  82 108 150 195 232 290 322
#     4  11  21  39  61  77 115 149 184 235 282 352
#     4  12  23  38  55  79 114 150 200 237 269 326
#     4  11  23  39  55  82 109 153 194 224 290 330
#     4  11  20  37  60  83 112 144 191 237 278 354
#     4  12  22  36  48  66 102 160 204 238 266 294
#
# _framework density 17.394780000000001
#
# number of rings (size 3 to 8) (size 9 to 14) (size 15 to 20)
#    0.000    0.762    4.762    3.714    0.000    6.095 
#    0.000    0.000    0.000    0.000    0.000    0.000 
#    0.000   53.333    0.000    0.000    0.000    0.000 
#
# Total GULP energy -233893.655593 kJ/mol
# GULP energy per Si atom -5568.896562 kJ/mol
# Density = 1.735519 g / cm^3
# Si number density = 17.394780 Si / 1000 Ang^3
#
#
#
# Elastic Constant Matrix: (Units=GPa)
#
#
# Indices 1 2 3 4 5 6 
#
# 1 81.8506 32.2812 49.1981 0.0000 0.0000 0.0000
# 2 32.2812 109.1448 53.0650 0.0000 0.0000 0.0000
# 3 49.1981 53.0650 128.4564 0.0000 0.0000 0.0000
# 4 0.0000 0.0000 0.0000 -2.5029 0.0000 0.0000
# 5 0.0000 0.0000 0.0000 0.0000 14.2357 0.0000
# 6 0.0000 0.0000 0.0000 0.0000 0.0000 23.2389
#
#
#
# Elastic Compliance Matrix: (Units=1/GPa)
#
#
# Indices 1 2 3 4 5 6 
#
# 1 0.016295 -0.002234 -0.005318 0.000000 0.000000 0.000000
# 2 -0.002234 0.011771 -0.004007 0.000000 0.000000 0.000000
# 3 -0.005318 -0.004007 0.011477 0.000000 0.000000 0.000000
# 4 0.000000 0.000000 0.000000 -0.399532 0.000000 0.000000
# 5 0.000000 0.000000 0.000000 0.000000 0.070246 0.000000
# 6 0.000000 0.000000 0.000000 0.000000 0.000000 0.043031
#
#
# Mechanical properties :
#
#
# Convention : Reuss Voigt Hill
#
# Bulk Modulus (GPa) = 60.88332 65.39336 63.13834
# Shear Modulus (GPa) = -22.92328 19.32150 -1.80089
#
# Velocity S-wave (km/s) = -3.63412 3.33643 -1.01860
# Velocity P-wave (km/s) = 4.17944 7.24690 5.91546
#
# Compressibility (1/GPa) = 0.01642486
#
# Stress axis : x y z
#
# Youngs Moduli (GPa) = 61.36879 84.95452 87.13228
#
# Poissons Ratio (x) = 0.18978 0.46337
# Poissons Ratio (y) = 0.13709 0.34914
# Poissons Ratio (z) = 0.32636 0.34041
#
# Static dielectric constant tensor:
#      x y z
#    x 1.562080 0.000000 0.000000 
#    y 0.000000 1.583540 0.000000 
#    z 0.000000 0.000000 1.678080 
# 
# From -- ./inp_files/53855.got.cif
#   From: 2010.05.17/outbox.cif.g08.bks.cpg/sg74_27_cif.got.tgz:53855.got - 2010.06.03 17:57:02.
