data_PCOD9540116
_publ_section_title
;
Structure prediction by ZEFSAII (Michael W. Deem and Ramdas Pophale) SiO2 
 PCOD9540116
Probable space group: I M M A
;
_chemical_formula_sum "Si O2"
_cell_formula_units_Z 68
_cell_length_a 7.947584
_cell_length_b 21.811935
_cell_length_c 19.241166
_cell_angle_alpha 90.000000
_cell_angle_beta 90.000000
_cell_angle_gamma 90.000000
_cell_volume 3335.498180
_symmetry_space_group_name_H-M "I M M A"
_symmetry_group_IT_number 74
_symmetry_cell_setting 'orthorhombic'
loop_
_space_group_symop_operation_xyz
x,y,z
-x,1/2-y,z
x,-y,-z
-x,1/2+y,-z
-x,-y,-z
x,1/2+y,-z
-x,y,z
x,1/2-y,z
1/2+x,1/2+y,1/2+z
1/2-x,-y,1/2+z
1/2+x,1/2-y,1/2-z
1/2-x,y,1/2-z
1/2-x,1/2-y,1/2-z
1/2+x,y,1/2-z
1/2-x,1/2+y,1/2+z
1/2+x,-y,1/2+z
loop_
_atom_site_type_symbol
_atom_site_label
_atom_site_fract_x
_atom_site_fract_y
_atom_site_fract_z
Si Si1 0.302124 0.521188 0.424981
Si Si2 0.683120 0.250000 0.618206
Si Si3 0.000000 0.819126 0.617910
Si Si4 0.000000 0.250000 0.517254
Si Si5 0.694666 0.873628 0.176121
Si Si6 0.303775 0.598449 0.670841
O O1 0.234274 0.500000 0.500000
O O2 0.500000 0.536419 0.434506
O O3 0.221063 0.579036 0.386736
O O4 0.289499 0.463422 0.373721
O O5 0.500000 0.250000 0.583937
O O6 0.702695 0.188466 0.663007
O O7 0.834609 0.250000 0.563634
O O8 0.831852 0.853913 0.640819
O O9 0.000000 0.750000 0.648030
O O10 0.000000 0.807797 0.534993
O O11 0.500000 0.856932 0.179934
O O12 0.750000 0.901715 0.250000
O O13 0.500000 0.618641 0.668176
O O14 0.250000 0.586521 0.750000
#
# Coordination Sequence:
#
# PCOD9540116 Si02
#       6
#    16   8   8   4  16  16
#     4  10  24  42  66  99 134 175 229 277 342 408
#     4  12  25  45  73  97 143 181 220 278 340 405
#     4  10  26  44  68  99 136 167 233 277 330 421
#     4  10  26  48  62 108 134 168 230 272 340 406
#     4  12  25  43  68 102 137 179 230 281 335 409
#     4  11  23  43  69  96 134 180 222 285 341 403
#
# _framework density 20.386759999999999
#
# number of rings (size 3 to 8) (size 9 to 14) (size 15 to 20)
#    0.353    0.706    2.353    3.176    4.941    4.235 
#    0.000    0.000    0.000    0.000    0.000    0.000 
#    0.000    0.000    0.000    0.000    0.000    0.000 
#
# Total GULP energy -190030.372194 kJ/mol
# GULP energy per Si atom -5589.128594 kJ/mol
# Density = 2.034036 g / cm^3
# Si number density = 20.386760 Si / 1000 Ang^3
#
#
#
# Elastic Constant Matrix: (Units=GPa)
#
#
# Indices 1 2 3 4 5 6 
#
# 1 151.1783 40.9076 36.5105 0.0000 0.0000 0.0000
# 2 40.9076 84.4412 27.5019 0.0000 0.0000 0.0000
# 3 36.5105 27.5019 130.4553 0.0000 0.0000 0.0000
# 4 0.0000 0.0000 0.0000 30.2380 0.0000 0.0000
# 5 0.0000 0.0000 0.0000 0.0000 7.0309 0.0000
# 6 0.0000 0.0000 0.0000 0.0000 0.0000 7.6732
#
#
#
# Elastic Compliance Matrix: (Units=1/GPa)
#
#
# Indices 1 2 3 4 5 6 
#
# 1 0.007878 -0.003327 -0.001503 0.000000 0.000000 0.000000
# 2 -0.003327 0.014121 -0.002046 0.000000 0.000000 0.000000
# 3 -0.001503 -0.002046 0.008518 0.000000 0.000000 0.000000
# 4 0.000000 0.000000 0.000000 0.033071 0.000000 0.000000
# 5 0.000000 0.000000 0.000000 0.000000 0.142230 0.000000
# 6 0.000000 0.000000 0.000000 0.000000 0.000000 0.130324
#
#
# Mechanical properties :
#
#
# Convention : Reuss Voigt Hill
#
# Bulk Modulus (GPa) = 59.65175 63.99053 61.82114
# Shear Modulus (GPa) = 14.06547 26.39874 20.23211
#
# Velocity S-wave (km/s) = 2.62950 3.60237 3.15368
# Velocity P-wave (km/s) = 6.20827 6.98278 6.60688
#
# Compressibility (1/GPa) = 0.01676397
#
# Stress axis : x y z
#
# Youngs Moduli (GPa) = 126.93542 70.81884 117.40528
#
# Poissons Ratio (x) = 0.23560 0.17652
# Poissons Ratio (y) = 0.42229 0.24018
# Poissons Ratio (z) = 0.19084 0.14488
#
# Static dielectric constant tensor:
#      x y z
#    x 1.724230 0.000000 0.000000 
#    y 0.000000 1.703780 0.000000 
#    z 0.000000 0.000000 1.727530 
# 
# From -- ./inp_files/39228.got.cif
#   From: 2010.05.17/outbox.cif.g08.bks.cpg/sg74_20_cif.got.tgz:39228.got - 2010.06.03 17:57:02.
