data_PCOD9540786
_publ_section_title
;
Structure prediction by ZEFSAII (Michael W. Deem and Ramdas Pophale) SiO2 
 PCOD9540786
Probable space group: I M M A
;
_chemical_formula_sum "Si O2"
_cell_formula_units_Z 36
_cell_length_a 24.000000
_cell_length_b 9.000000
_cell_length_c 24.000000
_cell_angle_alpha 90.000000
_cell_angle_beta 90.000000
_cell_angle_gamma 90.000000
_cell_volume 5184.000000
_symmetry_space_group_name_H-M "I M M A"
_symmetry_group_IT_number 74
_symmetry_cell_setting 'orthorhombic'
loop_
_space_group_symop_operation_xyz
x,y,z
-x,1/2-y,z
x,-y,-z
-x,1/2+y,-z
-x,-y,-z
x,1/2+y,-z
-x,y,z
x,1/2-y,z
1/2+x,1/2+y,1/2+z
1/2-x,-y,1/2+z
1/2+x,1/2-y,1/2-z
1/2-x,y,1/2-z
1/2-x,1/2-y,1/2-z
1/2+x,y,1/2-z
1/2-x,1/2+y,1/2+z
1/2+x,-y,1/2+z
loop_
_atom_site_type_symbol
_atom_site_label
_atom_site_fract_x
_atom_site_fract_y
_atom_site_fract_z
Si Si1 0.892119 0.069262 0.624533
Si Si2 0.833485 0.930479 0.726960
Si Si3 0.000000 0.068346 0.437298
Si Si4 0.278884 0.569563 0.326650
Si Si5 0.775797 0.573002 0.439722
O O1 0.897520 0.250000 0.628268
O O2 0.836533 0.036783 0.587335
O O3 0.880535 0.997978 0.685760
O O4 0.945395 0.994745 0.594887
O O5 0.834092 0.750000 0.727440
O O6 0.776971 0.995138 0.698802
O O7 0.828523 0.997433 0.789850
O O8 0.000000 0.250000 0.439000
O O9 0.000000 0.000000 0.500000
O O10 0.277780 0.750000 0.319280
O O11 0.271130 0.537575 0.392627
O O12 0.768648 0.500000 0.500000
O O13 0.775015 0.750000 0.446903
#
# Coordination Sequence:
#
# PCOD9540786 Si02
#       5
#    16  16   8  16  16
#     4  10  20  34  47  60  80 110 143 179 219 257
#     4  10  17  26  42  63  80 100 133 174 213 251
#     4  12  24  36  48  64  84 110 145 184 219 254
#     4   9  16  27  40  57  81 109 136 166 206 254
#     4   9  18  28  41  59  81 109 141 172 206 247
#
# _framework density 6.9444439999999998
#
# number of rings (size 3 to 8) (size 9 to 14) (size 15 to 20)
#    0.000    2.222    0.000    7.667    0.000    7.111 
#    0.000    0.000    0.000    0.000    0.000    0.000 
#    0.000    0.000    0.000    1.000    0.000   13.556 
#
# Total GULP energy -200420.049826 kJ/mol
# GULP energy per Si atom -5567.223606 kJ/mol
# Density = 0.692864 g / cm^3
# Si number density = 6.944444 Si / 1000 Ang^3
#
#
#
# Elastic Constant Matrix: (Units=GPa)
#
#
# Indices 1 2 3 4 5 6 
#
# 1 52.9924 32.0916 53.2717 0.0000 0.0000 0.0000
# 2 32.0916 110.8036 55.6013 0.0000 0.0000 0.0000
# 3 53.2717 55.6013 143.7185 0.0000 0.0000 0.0000
# 4 0.0000 0.0000 0.0000 32.1190 0.0000 0.0000
# 5 0.0000 0.0000 0.0000 0.0000 29.6473 0.0000
# 6 0.0000 0.0000 0.0000 0.0000 0.0000 20.4148
#
#
#
# Elastic Compliance Matrix: (Units=1/GPa)
#
#
# Indices 1 2 3 4 5 6 
#
# 1 0.031476 -0.004048 -0.010101 0.000000 0.000000 0.000000
# 2 -0.004048 0.011720 -0.003034 0.000000 0.000000 0.000000
# 3 -0.010101 -0.003034 0.011876 0.000000 0.000000 0.000000
# 4 0.000000 0.000000 0.000000 0.031134 0.000000 0.000000
# 5 0.000000 0.000000 0.000000 0.000000 0.033730 0.000000
# 6 0.000000 0.000000 0.000000 0.000000 0.000000 0.048984
#
#
# Mechanical properties :
#
#
# Convention : Reuss Voigt Hill
#
# Bulk Modulus (GPa) = 48.29358 65.49374 56.89366
# Shear Modulus (GPa) = 23.78826 27.53954 25.66390
#
# Velocity S-wave (km/s) = 4.14303 4.45775 4.30327
# Velocity P-wave (km/s) = 7.59823 8.58797 8.10822
#
# Compressibility (1/GPa) = 0.02070669
#
# Stress axis : x y z
#
# Youngs Moduli (GPa) = 31.76985 85.32726 84.20365
#
# Poissons Ratio (x) = 0.34536 0.85057
# Poissons Ratio (y) = 0.12859 0.25545
# Poissons Ratio (z) = 0.32092 0.25886
#
# Static dielectric constant tensor:
#      x y z
#    x 1.452070 0.000000 0.000000 
#    y 0.000000 1.461860 0.000000 
#    z 0.000000 0.000000 1.500610 
# 
# From -- ./inp_files/48937.got.cif
#   From: 2010.05.17/outbox.ucp.g08.bks.cvg/sg74_25_cif.got.tgz:48937.got - 2010.06.11 16:37:44.
