data_PCOD9540977
_publ_section_title
;
Structure prediction by ZEFSAII (Michael W. Deem and Ramdas Pophale) SiO2 
 PCOD9540977
Probable space group: I M M A
;
_chemical_formula_sum "Si O2"
_cell_formula_units_Z 58
_cell_length_a 27.000000
_cell_length_b 18.000000
_cell_length_c 12.000000
_cell_angle_alpha 90.000000
_cell_angle_beta 90.000000
_cell_angle_gamma 90.000000
_cell_volume 5832.000000
_symmetry_space_group_name_H-M "I M M A"
_symmetry_group_IT_number 74
_symmetry_cell_setting 'orthorhombic'
loop_
_space_group_symop_operation_xyz
x,y,z
-x,1/2-y,z
x,-y,-z
-x,1/2+y,-z
-x,-y,-z
x,1/2+y,-z
-x,y,z
x,1/2-y,z
1/2+x,1/2+y,1/2+z
1/2-x,-y,1/2+z
1/2+x,1/2-y,1/2-z
1/2-x,y,1/2-z
1/2-x,1/2-y,1/2-z
1/2+x,y,1/2-z
1/2-x,1/2+y,1/2+z
1/2+x,-y,1/2+z
loop_
_atom_site_type_symbol
_atom_site_label
_atom_site_fract_x
_atom_site_fract_y
_atom_site_fract_z
Si Si1 0.057875 0.660920 0.030112
Si Si2 0.253394 0.337872 0.057299
Si Si3 0.703524 0.100616 0.830357
Si Si4 0.929956 0.092578 0.495302
Si Si5 0.664229 0.062496 0.161925
Si Si6 0.100687 0.837851 0.274879
Si Si7 0.149740 0.925356 0.924560
Si Si8 0.000000 0.250000 0.459923
O O1 0.062360 0.750000 0.010992
O O2 0.072184 0.647315 0.159678
O O3 0.000000 0.640590 0.009755
O O4 0.099230 0.617298 0.959355
O O5 0.250130 0.250000 0.079537
O O6 0.290424 0.380380 0.142010
O O7 0.199037 0.375605 0.055796
O O8 0.278634 0.352982 0.936972
O O9 0.750000 0.089033 0.750000
O O10 0.658805 0.142375 0.767322
O O11 0.683716 0.019922 0.868103
O O12 0.882163 0.086734 0.414923
O O13 0.918951 0.112116 0.623757
O O14 0.957820 0.175574 0.461929
O O15 0.946374 0.000000 0.500000
O O16 0.649293 0.058394 0.292191
O O17 0.094409 0.750000 0.299615
O O18 0.153601 0.000000 0.000000
#
# Coordination Sequence:
#
# PCOD9540977 Si02
#       8
#    16  16  16  16  16  16  16   4
#     4  10  24  46  72 100 135 184 240 303 365 428
#     4  12  25  41  67 106 145 189 239 292 369 449
#     4  12  23  41  69 105 147 191 244 300 364 448
#     4  12  25  48  76 110 150 194 246 311 389 457
#     4  12  25  45  70 103 147 197 238 302 369 454
#     4  11  22  41  72 105 146 188 237 305 372 451
#     4  12  26  46  70 101 142 190 249 301 358 438
#     4  12  30  48  76 118 144 194 254 312 394 478
#
# _framework density 9.9451300000000007
#
# number of rings (size 3 to 8) (size 9 to 14) (size 15 to 20)
#    0.000    0.414    3.448    6.000    1.931    4.138 
#    1.241    0.000    0.000    0.000    0.000    0.000 
#    0.000    0.000    0.000    0.000    0.000    0.000 
#
# Total GULP energy -323089.969117 kJ/mol
# GULP energy per Si atom -5570.516709 kJ/mol
# Density = 0.992249 g / cm^3
# Si number density = 9.945130 Si / 1000 Ang^3
#
#
#
# Elastic Constant Matrix: (Units=GPa)
#
#
# Indices 1 2 3 4 5 6 
#
# 1 146.5343 51.2853 43.0653 0.0000 0.0000 0.0000
# 2 51.2853 145.7837 31.2021 0.0000 0.0000 0.0000
# 3 43.0653 31.2021 94.5670 0.0000 0.0000 0.0000
# 4 0.0000 0.0000 0.0000 34.0349 0.0000 0.0000
# 5 0.0000 0.0000 0.0000 0.0000 16.6601 0.0000
# 6 0.0000 0.0000 0.0000 0.0000 0.0000 32.6980
#
#
#
# Elastic Compliance Matrix: (Units=1/GPa)
#
#
# Indices 1 2 3 4 5 6 
#
# 1 0.008563 -0.002343 -0.003127 0.000000 0.000000 0.000000
# 2 -0.002343 0.008022 -0.001580 0.000000 0.000000 0.000000
# 3 -0.003127 -0.001580 0.012520 0.000000 0.000000 0.000000
# 4 0.000000 0.000000 0.000000 0.029382 0.000000 0.000000
# 5 0.000000 0.000000 0.000000 0.000000 0.060024 0.000000
# 6 0.000000 0.000000 0.000000 0.000000 0.000000 0.030583
#
#
# Mechanical properties :
#
#
# Convention : Reuss Voigt Hill
#
# Bulk Modulus (GPa) = 66.64117 70.88784 68.76451
# Shear Modulus (GPa) = 29.72757 34.10074 31.91416
#
# Velocity S-wave (km/s) = 3.87017 4.14508 4.00998
# Velocity P-wave (km/s) = 7.31766 7.65674 7.48912
#
# Compressibility (1/GPa) = 0.01500574
#
# Stress axis : x y z
#
# Youngs Moduli (GPa) = 116.77687 124.65822 79.87525
#
# Poissons Ratio (x) = 0.29212 0.24973
# Poissons Ratio (y) = 0.27365 0.12618
# Poissons Ratio (z) = 0.36511 0.19692
#
# Static dielectric constant tensor:
#      x y z
#    x 1.744720 0.000000 0.000000 
#    y 0.000000 1.747810 0.000000 
#    z 0.000000 0.000000 1.710620 
# 
# From -- ./inp_files/26405.got.cif
#   From: 2010.05.17/outbox.ucp.g08.bks.cvg/sg74_14_cif.got.tgz:26405.got - 2010.06.11 16:37:44.
