data_PCOD9540762
_publ_section_title
;
Structure prediction by ZEFSAII (Michael W. Deem and Ramdas Pophale) SiO2 
 PCOD9540762
Probable space group: I M M A
;
_chemical_formula_sum "Si O2"
_cell_formula_units_Z 64
_cell_length_a 11.335393
_cell_length_b 33.676323
_cell_length_c 7.239160
_cell_angle_alpha 90.000000
_cell_angle_beta 90.000000
_cell_angle_gamma 90.000000
_cell_volume 2763.436081
_symmetry_space_group_name_H-M "I M M A"
_symmetry_group_IT_number 74
_symmetry_cell_setting 'orthorhombic'
loop_
_space_group_symop_operation_xyz
x,y,z
-x,1/2-y,z
x,-y,-z
-x,1/2+y,-z
-x,-y,-z
x,1/2+y,-z
-x,y,z
x,1/2-y,z
1/2+x,1/2+y,1/2+z
1/2-x,-y,1/2+z
1/2+x,1/2-y,1/2-z
1/2-x,y,1/2-z
1/2-x,1/2-y,1/2-z
1/2+x,y,1/2-z
1/2-x,1/2+y,1/2+z
1/2+x,-y,1/2+z
loop_
_atom_site_type_symbol
_atom_site_label
_atom_site_fract_x
_atom_site_fract_y
_atom_site_fract_z
Si Si1 0.372516 0.827815 0.550336
Si Si2 0.127427 0.577343 0.950437
Si Si3 0.627507 0.952943 0.971153
Si Si4 0.627712 0.202707 0.027449
O O1 0.500000 0.816882 0.465897
O O2 0.368765 0.875244 0.571826
O O3 0.373046 0.808440 0.754480
O O4 0.251116 0.814589 0.456571
O O5 0.249176 0.564270 0.043500
O O6 0.126962 0.557860 0.746649
O O7 0.000000 0.566420 0.035562
O O8 0.500000 0.937732 0.041702
O O9 0.630530 0.000000 0.000000
O O10 0.500000 0.187914 0.956583
O O11 0.631346 0.250000 0.007114
#
# Coordination Sequence:
#
# PCOD9540762 Si02
#       4
#    16  16  16  16
#     4   9  15  22  32  43  57  80 106 132 161 189
#     4   9  17  27  37  50  67  86 110 140 171 201
#     4   9  16  25  37  51  65  82 105 134 168 204
#     4   9  15  20  27  41  59  78 102 132 161 185
#
# _framework density 23.159573000000002
#
# number of rings (size 3 to 8) (size 9 to 14) (size 15 to 20)
#    0.000    3.000    0.000    4.500    0.000    5.000 
#    0.000    0.000    0.000    0.000    0.000    0.000 
#    0.000    0.000    0.000    0.000    0.000    0.000 
#
# Total GULP energy -178363.290661 kJ/mol
# GULP energy per Si atom -5573.852833 kJ/mol
# Density = 2.310686 g / cm^3
# Si number density = 23.159573 Si / 1000 Ang^3
#
#
#
# Elastic Constant Matrix: (Units=GPa)
#
#
# Indices 1 2 3 4 5 6 
#
# 1 345.7334 60.0079 22.2704 1.9384 0.0157 -0.0012
# 2 60.0079 63.9055 5.0809 0.6753 0.0097 0.0006
# 3 22.2704 5.0809 96.2232 4.3254 0.0774 -0.0011
# 4 1.9384 0.6753 4.3254 8411.2295 -3.5423 0.2292
# 5 0.0157 0.0097 0.0774 -3.5423 -2.7368 -0.0043
# 6 -0.0012 0.0006 -0.0011 0.2292 -0.0043 43.0882
#
#
#
# Elastic Compliance Matrix: (Units=1/GPa)
#
#
# Indices 1 2 3 4 5 6 
#
# 1 0.003494 -0.003230 -0.000638 0.000000 -0.000009 0.000000
# 2 -0.003230 0.018700 -0.000240 -0.000001 0.000042 0.000000
# 3 -0.000638 -0.000240 0.010553 -0.000005 0.000301 0.000000
# 4 0.000000 -0.000001 -0.000005 0.000119 -0.000154 -0.000001
# 5 -0.000009 0.000042 0.000301 -0.000154 -0.365180 -0.000036
# 6 0.000000 0.000000 0.000000 -0.000001 -0.000036 0.023208
#
#
# Mechanical properties :
#
#
# Convention : Reuss Voigt Hill
#
# Bulk Modulus (GPa) = 40.76477 75.62007 58.19242
# Shear Modulus (GPa) = -17.08163 1718.21637 850.56737
#
# Velocity S-wave (km/s) = -2.71876 27.26745 19.18492
# Velocity P-wave (km/s) = 2.79005 32.00116 22.71408
#
# Compressibility (1/GPa) = 0.02453098
#
# Stress axis : x y z
#
# Youngs Moduli (GPa) = 286.18955 53.47456 94.76119
#
# Poissons Ratio (x) = 0.17274 0.06047
# Poissons Ratio (y) = 0.92449 0.02272
# Poissons Ratio (z) = 0.18262 0.01282
#
# Static dielectric constant tensor:
#      x y z
#    x 2.001580 0.000000 0.000000 
#    y 0.000000 1.781680 0.000000 
#    z 0.000000 0.000000 1.795050 
# 
# From -- ./inp_files/7319.got.cif
#   From: 2010.05.17/outbox.cif.g08.bks.cpg/sg74_4_cif.got.tgz:7319.got - 2010.06.03 17:57:02.
