data_PCOD9540235
_publ_section_title
;
Structure prediction by ZEFSAII (Michael W. Deem and Ramdas Pophale) SiO2 
 PCOD9540235
Probable space group: I M M A
;
_chemical_formula_sum "Si O2"
_cell_formula_units_Z 72
_cell_length_a 9.917157
_cell_length_b 26.665000
_cell_length_c 17.371236
_cell_angle_alpha 90.000000
_cell_angle_beta 90.000000
_cell_angle_gamma 90.000000
_cell_volume 4593.666870
_symmetry_space_group_name_H-M "I M M A"
_symmetry_group_IT_number 74
_symmetry_cell_setting 'orthorhombic'
loop_
_space_group_symop_operation_xyz
x,y,z
-x,1/2-y,z
x,-y,-z
-x,1/2+y,-z
-x,-y,-z
x,1/2+y,-z
-x,y,z
x,1/2-y,z
1/2+x,1/2+y,1/2+z
1/2-x,-y,1/2+z
1/2+x,1/2-y,1/2-z
1/2-x,y,1/2-z
1/2-x,1/2-y,1/2-z
1/2+x,y,1/2-z
1/2-x,1/2+y,1/2+z
1/2+x,-y,1/2+z
loop_
_atom_site_type_symbol
_atom_site_label
_atom_site_fract_x
_atom_site_fract_y
_atom_site_fract_z
Si Si1 0.774500 0.525833 0.668729
Si Si2 0.000000 0.619633 0.139736
Si Si3 0.000000 0.361034 0.578700
Si Si4 0.500000 0.945015 0.204990
Si Si5 0.500000 0.987288 0.411640
Si Si6 0.500000 0.945868 0.951190
Si Si7 0.246119 0.691130 0.156124
O O1 0.750000 0.554420 0.750000
O O2 0.868196 0.479359 0.696873
O O3 0.633899 0.507682 0.631496
O O4 0.867767 0.551596 0.603760
O O5 0.126989 0.654936 0.131602
O O6 0.000000 0.590319 0.221146
O O7 0.000000 0.572688 0.084848
O O8 0.000000 0.408137 0.634758
O O9 0.873397 0.327540 0.606423
O O10 0.000000 0.393056 0.498685
O O11 0.500000 0.000000 0.500000
O O12 0.500000 0.000000 0.000000
O O13 0.222591 0.750000 0.142673
O O14 0.250000 0.685197 0.250000
#
# Coordination Sequence:
#
# PCOD9540235 Si02
#       7
#    16   8   8   8   8   8  16
#     4  11  21  37  51  72 111 149 183 223 264 321
#     4  12  22  35  55  75 108 152 189 222 268 319
#     4  12  22  36  56  76 109 147 185 234 278 316
#     4  11  20  32  52  76 100 149 193 211 260 332
#     4  12  25  31  51  81 111 134 185 231 266 315
#     4  11  23  35  54  79 113 140 190 232 270 328
#     4  11  23  37  54  79 109 145 192 234 267 315
#
# _framework density 15.673753
#
# number of rings (size 3 to 8) (size 9 to 14) (size 15 to 20)
#    0.000    0.667    6.667    3.333    3.111    1.778 
#    0.000    0.000    0.000    0.000    0.000    0.000 
#    0.000    3.556    0.000    0.000    0.000    0.000 
#
# Total GULP energy -200519.539218 kJ/mol
# GULP energy per Si atom -5569.987200 kJ/mol
# Density = 1.563808 g / cm^3
# Si number density = 15.673753 Si / 1000 Ang^3
#
#
#
# Elastic Constant Matrix: (Units=GPa)
#
#
# Indices 1 2 3 4 5 6 
#
# 1 143.4363 62.6568 51.3972 0.0000 0.0000 0.0000
# 2 62.6568 87.8164 59.5134 0.0000 0.0000 0.0000
# 3 51.3972 59.5134 108.2476 0.0000 0.0000 0.0000
# 4 0.0000 0.0000 0.0000 31.7707 0.0000 0.0000
# 5 0.0000 0.0000 0.0000 0.0000 32.4510 0.0000
# 6 0.0000 0.0000 0.0000 0.0000 0.0000 17.8483
#
#
#
# Elastic Compliance Matrix: (Units=1/GPa)
#
#
# Indices 1 2 3 4 5 6 
#
# 1 0.010251 -0.006400 -0.001349 0.000000 0.000000 0.000000
# 2 -0.006400 0.022146 -0.009137 0.000000 0.000000 0.000000
# 3 -0.001349 -0.009137 0.014902 0.000000 0.000000 0.000000
# 4 0.000000 0.000000 0.000000 0.031476 0.000000 0.000000
# 5 0.000000 0.000000 0.000000 0.000000 0.030816 0.000000
# 6 0.000000 0.000000 0.000000 0.000000 0.000000 0.056028
#
#
# Mechanical properties :
#
#
# Convention : Reuss Voigt Hill
#
# Bulk Modulus (GPa) = 73.92252 76.29278 75.10765
# Shear Modulus (GPa) = 24.52226 27.47619 25.99922
#
# Velocity S-wave (km/s) = 3.95972 4.19143 4.07722
# Velocity P-wave (km/s) = 8.25660 8.49737 8.37785
#
# Compressibility (1/GPa) = 0.01352768
#
# Stress axis : x y z
#
# Youngs Moduli (GPa) = 97.55541 45.15556 67.10674
#
# Poissons Ratio (x) = 0.28899 0.09049
# Poissons Ratio (y) = 0.62434 0.61314
# Poissons Ratio (z) = 0.13155 0.41257
#
# Static dielectric constant tensor:
#      x y z
#    x 1.625600 0.000000 0.000000 
#    y 0.000000 1.496340 0.000000 
#    z 0.000000 0.000000 1.493690 
# 
# From -- ./inp_files/39662.got.cif
#   From: 2010.05.17/outbox.cif.g08.bks.cpg/sg74_20_cif.got.tgz:39662.got - 2010.06.03 17:57:02.
