data_PCOD9540716
_publ_section_title
;
Structure prediction by ZEFSAII (Michael W. Deem and Ramdas Pophale) SiO2 
 PCOD9540716
Probable space group: I M M A
;
_chemical_formula_sum "Si O2"
_cell_formula_units_Z 80
_cell_length_a 28.063316
_cell_length_b 9.966912
_cell_length_c 13.813054
_cell_angle_alpha 90.000000
_cell_angle_beta 90.000000
_cell_angle_gamma 90.000000
_cell_volume 3863.574758
_symmetry_space_group_name_H-M "I M M A"
_symmetry_group_IT_number 74
_symmetry_cell_setting 'orthorhombic'
loop_
_space_group_symop_operation_xyz
x,y,z
-x,1/2-y,z
x,-y,-z
-x,1/2+y,-z
-x,-y,-z
x,1/2+y,-z
-x,y,z
x,1/2-y,z
1/2+x,1/2+y,1/2+z
1/2-x,-y,1/2+z
1/2+x,1/2-y,1/2-z
1/2-x,y,1/2-z
1/2-x,1/2-y,1/2-z
1/2+x,y,1/2-z
1/2-x,1/2+y,1/2+z
1/2+x,-y,1/2+z
loop_
_atom_site_type_symbol
_atom_site_label
_atom_site_fract_x
_atom_site_fract_y
_atom_site_fract_z
Si Si1 0.552255 0.412943 0.692381
Si Si2 0.741767 0.097721 0.366718
Si Si3 0.322179 0.895600 0.124255
Si Si4 0.343789 0.904142 0.355115
Si Si5 0.568332 0.404118 0.915287
O O1 0.500000 0.455744 0.655356
O O2 0.553649 0.250000 0.691498
O O3 0.601159 0.453023 0.638704
O O4 0.555768 0.450476 0.806317
O O5 0.737894 0.250000 0.400812
O O6 0.750000 0.102120 0.250000
O O7 0.788304 0.018034 0.400207
O O8 0.695325 0.009446 0.390894
O O9 0.299652 0.750000 0.102704
O O10 0.332477 0.896772 0.239820
O O11 0.374280 0.901760 0.079408
O O12 0.339527 0.750000 0.391724
O O13 0.552605 0.250000 0.926046
O O14 0.551142 0.500000 0.000000
#
# Coordination Sequence:
#
# PCOD9540716 Si02
#       5
#    16  16  16  16  16
#     4   8  14  25  39  52  66  88 121 155 181 208
#     4   9  15  21  32  51  70  84 100 129 169 209
#     4   8  14  24  35  47  64  86 111 136 166 208
#     4   8  13  22  36  50  64  85 110 136 168 206
#     4   9  17  27  38  51  67  89 118 153 187 214
#
# _framework density 20.706213000000002
#
# number of rings (size 3 to 8) (size 9 to 14) (size 15 to 20)
#    0.000    3.600    0.000    3.000    0.000    3.600 
#    0.000    3.000    0.000    1.800    0.000    0.000 
#    0.000    0.000    0.000    0.000    0.000    1.000 
#
# Total GULP energy -222965.134515 kJ/mol
# GULP energy per Si atom -5574.128363 kJ/mol
# Density = 2.065909 g / cm^3
# Si number density = 20.706213 Si / 1000 Ang^3
#
#
#
# Elastic Constant Matrix: (Units=GPa)
#
#
# Indices 1 2 3 4 5 6 
#
# 1 194.5589 75.5484 3.8065 0.0000 0.0000 0.0000
# 2 75.5484 109.3069 7.2859 0.0000 0.0000 0.0000
# 3 3.8065 7.2859 38.8549 0.0000 0.0000 0.0000
# 4 0.0000 0.0000 0.0000 0.6464 0.0000 0.0000
# 5 0.0000 0.0000 0.0000 0.0000 -4.2256 0.0000
# 6 0.0000 0.0000 0.0000 0.0000 0.0000 -2.0386
#
#
#
# Elastic Compliance Matrix: (Units=1/GPa)
#
#
# Indices 1 2 3 4 5 6 
#
# 1 0.007027 -0.004872 0.000225 0.000000 0.000000 0.000000
# 2 -0.004872 0.012642 -0.001893 0.000000 0.000000 0.000000
# 3 0.000225 -0.001893 0.026070 0.000000 0.000000 0.000000
# 4 0.000000 0.000000 0.000000 1.546914 0.000000 0.000000
# 5 0.000000 0.000000 0.000000 0.000000 -0.236655 0.000000
# 6 0.000000 0.000000 0.000000 0.000000 0.000000 -0.490529
#
#
# Mechanical properties :
#
#
# Convention : Reuss Voigt Hill
#
# Bulk Modulus (GPa) = 30.61962 57.33359 43.97661
# Shear Modulus (GPa) = 5.62154 15.94845 10.78499
#
# Velocity S-wave (km/s) = 1.64948 2.77830 2.28471
# Velocity P-wave (km/s) = 4.29505 6.16775 5.31454
#
# Compressibility (1/GPa) = 0.03265880
#
# Stress axis : x y z
#
# Youngs Moduli (GPa) = 142.30357 79.10116 38.35866
#
# Poissons Ratio (x) = 0.38538 -0.00864
# Poissons Ratio (y) = 0.69329 0.07262
# Poissons Ratio (z) = -0.03204 0.14976
#
# Static dielectric constant tensor:
#      x y z
#    x 1.773950 0.000000 0.000000 
#    y 0.000000 1.719730 0.000000 
#    z 0.000000 0.000000 1.745300 
# 
# From -- ./inp_files/39957.got.cif
#   From: 2010.05.17/outbox.cif.g08.bks.cpg/sg74_20_cif.got.tgz:39957.got - 2010.06.03 17:57:02.
