data_PCOD9540268
_publ_section_title
;
Structure prediction by ZEFSAII (Michael W. Deem and Ramdas Pophale) SiO2 
 PCOD9540268
Probable space group: I M M A
;
_chemical_formula_sum "Si O2"
_cell_formula_units_Z 84
_cell_length_a 10.268320
_cell_length_b 21.121044
_cell_length_c 24.935331
_cell_angle_alpha 90.000000
_cell_angle_beta 90.000000
_cell_angle_gamma 90.000000
_cell_volume 5407.915703
_symmetry_space_group_name_H-M "I M M A"
_symmetry_group_IT_number 74
_symmetry_cell_setting 'orthorhombic'
loop_
_space_group_symop_operation_xyz
x,y,z
-x,1/2-y,z
x,-y,-z
-x,1/2+y,-z
-x,-y,-z
x,1/2+y,-z
-x,y,z
x,1/2-y,z
1/2+x,1/2+y,1/2+z
1/2-x,-y,1/2+z
1/2+x,1/2-y,1/2-z
1/2-x,y,1/2-z
1/2-x,1/2-y,1/2-z
1/2+x,y,1/2-z
1/2-x,1/2+y,1/2+z
1/2+x,-y,1/2+z
loop_
_atom_site_type_symbol
_atom_site_label
_atom_site_fract_x
_atom_site_fract_y
_atom_site_fract_z
Si Si1 0.000000 0.250000 0.743401
Si Si2 0.000000 0.132357 0.824412
Si Si3 0.500000 0.326987 0.960887
Si Si4 0.000000 0.323584 0.945909
Si Si5 0.658646 0.988751 0.582479
Si Si6 0.753321 0.043812 0.809947
Si Si7 0.000000 0.128481 0.663035
Si Si8 0.763336 0.605814 0.006235
O O1 0.000000 0.304232 0.790704
O O2 0.000000 0.192684 0.698110
O O3 0.127684 0.093201 0.809902
O O4 0.000000 0.143293 0.887980
O O5 0.500000 0.250000 0.964248
O O6 0.500000 0.349082 0.898641
O O7 0.626584 0.359323 0.987351
O O8 0.125347 0.344644 0.978810
O O9 0.000000 0.250000 0.935580
O O10 0.500000 0.991117 0.580788
O O11 0.708392 0.927429 0.550523
O O12 0.712356 0.995323 0.642545
O O13 0.715439 0.049007 0.549550
O O14 0.750000 0.016094 0.750000
O O15 0.625117 0.084774 0.823811
#
# Coordination Sequence:
#
# PCOD9540268 Si02
#       8
#     4   8   8   8  16  16   8  16
#     4  12  24  38  48  70 112 166 200 238 240 294
#     4  12  22  35  49  72 105 152 197 231 264 290
#     4  12  24  38  51  79 118 149 179 232 274 332
#     4  12  20  34  55  79 106 145 195 236 264 320
#     4  11  20  37  62  78 106 139 187 245 277 323
#     4  12  22  36  53  77 106 143 187 233 269 314
#     4  12  24  35  49  74 109 148 201 225 264 304
#     4  11  21  36  56  80 105 142 188 225 295 327
#
# _framework density 15.532787000000001
#
# number of rings (size 3 to 8) (size 9 to 14) (size 15 to 20)
#    0.000    0.381    9.524    1.143    0.000    3.810 
#    0.000    0.000    0.000    0.000    0.000    0.000 
#    0.000    4.571    0.000    0.000    0.000    0.000 
#
# Total GULP energy -233955.307448 kJ/mol
# GULP energy per Si atom -5570.364463 kJ/mol
# Density = 1.549743 g / cm^3
# Si number density = 15.532787 Si / 1000 Ang^3
#
#
#
# Elastic Constant Matrix: (Units=GPa)
#
#
# Indices 1 2 3 4 5 6 
#
# 1 141.8258 36.3848 45.1359 0.0000 0.0000 0.0000
# 2 36.3848 42.4824 50.0947 0.0000 0.0000 0.0000
# 3 45.1359 50.0947 140.1633 0.0000 0.0000 0.0000
# 4 0.0000 0.0000 0.0000 39.4443 0.0000 0.0000
# 5 0.0000 0.0000 0.0000 0.0000 35.3915 0.0000
# 6 0.0000 0.0000 0.0000 0.0000 0.0000 39.4783
#
#
#
# Elastic Compliance Matrix: (Units=1/GPa)
#
#
# Indices 1 2 3 4 5 6 
#
# 1 0.009041 -0.007450 -0.000249 0.000000 0.000000 0.000000
# 2 -0.007450 0.046825 -0.014336 0.000000 0.000000 0.000000
# 3 -0.000249 -0.014336 0.012338 0.000000 0.000000 0.000000
# 4 0.000000 0.000000 0.000000 0.025352 0.000000 0.000000
# 5 0.000000 0.000000 0.000000 0.000000 0.028255 0.000000
# 6 0.000000 0.000000 0.000000 0.000000 0.000000 0.025330
#
#
# Mechanical properties :
#
#
# Convention : Reuss Voigt Hill
#
# Bulk Modulus (GPa) = 41.43465 65.30025 53.36745
# Shear Modulus (GPa) = 25.09299 35.71990 30.40645
#
# Velocity S-wave (km/s) = 4.02367 4.80066 4.42924
# Velocity P-wave (km/s) = 6.95127 8.53581 7.78396
#
# Compressibility (1/GPa) = 0.02413439
#
# Stress axis : x y z
#
# Youngs Moduli (GPa) = 110.60203 21.35597 81.04722
#
# Poissons Ratio (x) = 0.15911 0.02016
# Poissons Ratio (y) = 0.82402 1.16192
# Poissons Ratio (z) = 0.02752 0.30617
#
# Static dielectric constant tensor:
#      x y z
#    x 1.629930 0.000000 0.000000 
#    y 0.000000 1.483660 0.000000 
#    z 0.000000 0.000000 1.544690 
# 
# From -- ./inp_files/56938.got.cif
#   From: 2010.05.17/outbox.cif.g08.bks.cpg/sg74_29_cif.got.tgz:56938.got - 2010.06.03 17:57:02.
