data_PCOD9540859
_publ_section_title
;
Structure prediction by ZEFSAII (Michael W. Deem and Ramdas Pophale) SiO2 
 PCOD9540859
Probable space group: I M M A
;
_chemical_formula_sum "Si O2"
_cell_formula_units_Z 44
_cell_length_a 18.000000
_cell_length_b 9.000000
_cell_length_c 30.000000
_cell_angle_alpha 90.000000
_cell_angle_beta 90.000000
_cell_angle_gamma 90.000000
_cell_volume 4860.000000
_symmetry_space_group_name_H-M "I M M A"
_symmetry_group_IT_number 74
_symmetry_cell_setting 'orthorhombic'
loop_
_space_group_symop_operation_xyz
x,y,z
-x,1/2-y,z
x,-y,-z
-x,1/2+y,-z
-x,-y,-z
x,1/2+y,-z
-x,y,z
x,1/2-y,z
1/2+x,1/2+y,1/2+z
1/2-x,-y,1/2+z
1/2+x,1/2-y,1/2-z
1/2-x,y,1/2-z
1/2-x,1/2-y,1/2-z
1/2+x,y,1/2-z
1/2-x,1/2+y,1/2+z
1/2+x,-y,1/2+z
loop_
_atom_site_type_symbol
_atom_site_label
_atom_site_fract_x
_atom_site_fract_y
_atom_site_fract_z
Si Si1 0.914516 0.428676 0.615445
Si Si2 0.856147 0.928715 0.106536
Si Si3 0.912798 0.929586 0.805461
Si Si4 0.090406 0.921422 0.706742
Si Si5 0.500000 0.428586 0.548523
Si Si6 0.787608 0.929282 0.451430
O O1 0.913777 0.250000 0.617082
O O2 0.886868 0.488336 0.663190
O O3 0.861515 0.475869 0.575244
O O4 0.000000 0.477654 0.609170
O O5 0.856872 0.750000 0.111944
O O6 0.782398 0.970091 0.079541
O O7 0.927204 0.971315 0.076515
O O8 0.865733 0.003267 0.154507
O O9 0.910356 0.750000 0.806352
O O10 0.887133 0.976647 0.755853
O O11 0.000000 0.972802 0.811288
O O12 0.113636 0.750000 0.701883
O O13 0.000000 0.923359 0.707841
O O14 0.500000 0.250000 0.543884
O O15 0.500000 0.500000 0.500000
O O16 0.787742 0.750000 0.455823
O O17 0.782457 0.000000 0.500000
#
# Coordination Sequence:
#
# PCOD9540859 Si02
#       6
#    16  16  16  16   8  16
#     4   9  18  34  55  78 102 130 167 208 252 306
#     4  10  20  34  50  72 102 134 171 211 251 298
#     4   9  17  30  50  77 106 136 171 209 248 293
#     4   8  15  29  50  77 106 133 165 206 249 296
#     4  10  20  32  48  70  94 126 170 212 247 292
#     4  10  22  38  54  74 102 133 167 212 260 303
#
# _framework density 9.0534979999999994
#
# number of rings (size 3 to 8) (size 9 to 14) (size 15 to 20)
#    0.000    2.727    0.909    1.636    0.000    3.273 
#    0.000    2.727    0.000    5.455    0.000    0.000 
#    0.000    0.000    0.000    0.000    0.000    0.000 
#
# Total GULP energy -245341.596102 kJ/mol
# GULP energy per Si atom -5575.945366 kJ/mol
# Density = 0.903289 g / cm^3
# Si number density = 9.053498 Si / 1000 Ang^3
#
#
#
# Elastic Constant Matrix: (Units=GPa)
#
#
# Indices 1 2 3 4 5 6 
#
# 1 82.7395 22.7460 64.1931 0.0000 0.0000 0.0000
# 2 22.7460 7.0797 29.8530 0.0000 0.0000 0.0000
# 3 64.1931 29.8530 134.0635 0.0000 0.0000 0.0000
# 4 0.0000 0.0000 0.0000 37.1885 0.0000 0.0000
# 5 0.0000 0.0000 0.0000 0.0000 10.3874 0.0000
# 6 0.0000 0.0000 0.0000 0.0000 0.0000 8.7175
#
#
#
# Elastic Compliance Matrix: (Units=1/GPa)
#
#
# Indices 1 2 3 4 5 6 
#
# 1 -0.008826 0.172625 -0.034214 0.000000 0.000000 0.000000
# 2 0.172625 -1.062157 0.153862 0.000000 0.000000 0.000000
# 3 -0.034214 0.153862 -0.010420 0.000000 0.000000 0.000000
# 4 0.000000 0.000000 0.000000 0.026890 0.000000 0.000000
# 5 0.000000 0.000000 0.000000 0.000000 0.096271 0.000000
# 6 0.000000 0.000000 0.000000 0.000000 0.000000 0.114711
#
#
# Mechanical properties :
#
#
# Convention : Reuss Voigt Hill
#
# Bulk Modulus (GPa) = -2.01265 50.82966 24.40850
# Shear Modulus (GPa) = -3.13736 18.39807 7.63035
#
# Velocity S-wave (km/s) = -1.31774 3.19105 2.05504
# Velocity P-wave (km/s) = 1.85181 6.45832 4.37497
#
# Compressibility (1/GPa) = -0.49685678
#
# Stress axis : x y z
#
# Youngs Moduli (GPa) = -113.30780 -0.94148 -95.96848
#
# Poissons Ratio (x) = 0.16252 -3.28346
# Poissons Ratio (y) = 19.55973 14.76591
# Poissons Ratio (z) = -3.87670 0.14486
#
# Static dielectric constant tensor:
#      x y z
#    x 1.634340 0.000000 0.000000 
#    y 0.000000 1.608220 0.000000 
#    z 0.000000 0.000000 1.601510 
# 
# From -- ./inp_files/50540.got.cif
#   From: 2010.05.17/outbox.ucp.g08.bks.cvg/sg74_26_cif.got.tgz:50540.got - 2010.06.11 16:37:44.
