data_PCOD9540026
_publ_section_title
;
Structure prediction by ZEFSAII (Michael W. Deem and Ramdas Pophale) SiO2 
 PCOD9540026
Probable space group: I M M A
;
_chemical_formula_sum "Si O2"
_cell_formula_units_Z 60
_cell_length_a 9.458479
_cell_length_b 10.133090
_cell_length_c 29.511109
_cell_angle_alpha 90.000000
_cell_angle_beta 90.000000
_cell_angle_gamma 90.000000
_cell_volume 2828.451486
_symmetry_space_group_name_H-M "I M M A"
_symmetry_group_IT_number 74
_symmetry_cell_setting 'orthorhombic'
loop_
_space_group_symop_operation_xyz
x,y,z
-x,1/2-y,z
x,-y,-z
-x,1/2+y,-z
-x,-y,-z
x,1/2+y,-z
-x,y,z
x,1/2-y,z
1/2+x,1/2+y,1/2+z
1/2-x,-y,1/2+z
1/2+x,1/2-y,1/2-z
1/2-x,y,1/2-z
1/2-x,1/2-y,1/2-z
1/2+x,y,1/2-z
1/2-x,1/2+y,1/2+z
1/2+x,-y,1/2+z
loop_
_atom_site_type_symbol
_atom_site_label
_atom_site_fract_x
_atom_site_fract_y
_atom_site_fract_z
Si Si1 0.840420 0.007623 0.870804
Si Si2 0.665759 0.093013 0.044095
Si Si3 0.343543 0.096161 0.791018
Si Si4 0.000000 0.250000 0.275175
Si Si5 0.199150 0.750000 0.812866
O O1 0.766481 0.967650 0.917506
O O2 0.847581 0.876347 0.841001
O O3 0.000000 0.061692 0.876095
O O4 0.736175 0.091592 0.838681
O O5 0.500000 0.084972 0.057970
O O6 0.696126 0.250000 0.036289
O O7 0.681488 0.000000 0.000000
O O8 0.500000 0.031261 0.791462
O O9 0.362005 0.250000 0.779955
O O10 0.250000 0.038216 0.750000
O O11 0.880350 0.250000 0.234478
O O12 0.869694 0.250000 0.311931
#
# Coordination Sequence:
#
# PCOD9540026 Si02
#       5
#    16  16  16   4   8
#     4  12  24  39  63  92 129 165 209 264 320 386
#     4  10  23  44  69  96 126 166 217 276 341 405
#     4  10  23  41  61  88 126 173 221 266 315 378
#     4  10  24  38  56  86 134 174 212 250 312 372
#     4  11  24  38  56  94 130 170 210 260 309 378
#
# _framework density 21.213021999999999
#
# number of rings (size 3 to 8) (size 9 to 14) (size 15 to 20)
#    0.000    1.333    2.667    1.600    7.467    3.200 
#    0.000    2.667    0.000    0.000    0.000    0.000 
#    0.000    0.000    0.000    0.000    0.000    0.000 
#
# Total GULP energy -167064.339802 kJ/mol
# GULP energy per Si atom -5568.811327 kJ/mol
# Density = 2.116474 g / cm^3
# Si number density = 21.213022 Si / 1000 Ang^3
#
#
#
# Elastic Constant Matrix: (Units=GPa)
#
#
# Indices 1 2 3 4 5 6 
#
# 1 234.0932 29.6262 88.3105 0.0000 0.0000 0.0000
# 2 29.6262 50.0701 17.3330 0.0000 0.0000 0.0000
# 3 88.3105 17.3330 109.4186 0.0000 0.0000 0.0000
# 4 0.0000 0.0000 0.0000 -34.5734 0.0000 0.0000
# 5 0.0000 0.0000 0.0000 0.0000 44.7139 0.0000
# 6 0.0000 0.0000 0.0000 0.0000 0.0000 14.2826
#
#
#
# Elastic Compliance Matrix: (Units=1/GPa)
#
#
# Indices 1 2 3 4 5 6 
#
# 1 0.006343 -0.002096 -0.004787 0.000000 0.000000 0.000000
# 2 -0.002096 0.021823 -0.001765 0.000000 0.000000 0.000000
# 3 -0.004787 -0.001765 0.013283 0.000000 0.000000 0.000000
# 4 0.000000 0.000000 0.000000 -0.028924 0.000000 0.000000
# 5 0.000000 0.000000 0.000000 0.000000 0.022364 0.000000
# 6 0.000000 0.000000 0.000000 0.000000 0.000000 0.070015
#
#
# Mechanical properties :
#
#
# Convention : Reuss Voigt Hill
#
# Bulk Modulus (GPa) = 41.40518 73.79125 57.59822
# Shear Modulus (GPa) = 38.38691 22.10546 30.24618
#
# Velocity S-wave (km/s) = 4.25854 3.23161 3.78011
# Velocity P-wave (km/s) = 6.61373 6.98468 6.80173
#
# Compressibility (1/GPa) = 0.02415157
#
# Stress axis : x y z
#
# Youngs Moduli (GPa) = 157.65213 45.82266 75.28558
#
# Poissons Ratio (x) = 0.09604 0.36042
# Poissons Ratio (y) = 0.33042 0.13291
# Poissons Ratio (z) = 0.75475 0.08090
#
# Static dielectric constant tensor:
#      x y z
#    x 1.872220 0.000000 0.000000 
#    y 0.000000 1.109520 0.000000 
#    z 0.000000 0.000000 1.707230 
# 
# From -- ./inp_files/63321.got.cif
#   From: 2010.05.17/outbox.cif.g08.bks.cpg/sg74_32_cif.got.tgz:63321.got - 2010.06.03 17:57:02.
