data_PCOD9540524
_publ_section_title
;
Structure prediction by ZEFSAII (Michael W. Deem and Ramdas Pophale) SiO2 
 PCOD9540524
Probable space group: I M M A
;
_chemical_formula_sum "Si O2"
_cell_formula_units_Z 72
_cell_length_a 8.619664
_cell_length_b 18.317232
_cell_length_c 23.949516
_cell_angle_alpha 90.000000
_cell_angle_beta 90.000000
_cell_angle_gamma 90.000000
_cell_volume 3781.350409
_symmetry_space_group_name_H-M "I M M A"
_symmetry_group_IT_number 74
_symmetry_cell_setting 'orthorhombic'
loop_
_space_group_symop_operation_xyz
x,y,z
-x,1/2-y,z
x,-y,-z
-x,1/2+y,-z
-x,-y,-z
x,1/2+y,-z
-x,y,z
x,1/2-y,z
1/2+x,1/2+y,1/2+z
1/2-x,-y,1/2+z
1/2+x,1/2-y,1/2-z
1/2-x,y,1/2-z
1/2-x,1/2-y,1/2-z
1/2+x,y,1/2-z
1/2-x,1/2+y,1/2+z
1/2+x,-y,1/2+z
loop_
_atom_site_type_symbol
_atom_site_label
_atom_site_fract_x
_atom_site_fract_y
_atom_site_fract_z
Si Si1 0.686447 0.970475 0.187750
Si Si2 0.314741 0.163209 0.010422
Si Si3 0.684069 0.891041 0.622735
Si Si4 0.814391 0.750000 0.687196
Si Si5 0.188935 0.832776 0.383136
O O1 0.500000 0.971873 0.188997
O O2 0.750000 0.978935 0.250000
O O3 0.738812 0.893817 0.160490
O O4 0.745786 0.036249 0.149412
O O5 0.500000 0.150912 0.015240
O O6 0.288609 0.250000 0.019613
O O7 0.229104 0.118413 0.058003
O O8 0.266295 0.147479 0.946741
O O9 0.500000 0.890678 0.629594
O O10 0.754859 0.821521 0.655060
O O11 0.750000 0.750000 0.750000
O O12 0.000000 0.750000 0.687881
O O13 0.241319 0.750000 0.370991
O O14 0.000000 0.831372 0.383110
#
# Coordination Sequence:
#
# PCOD9540524 Si02
#       5
#    16  16  16   8  16
#     4  11  23  40  60  84 118 156 199 247 295 347
#     4   9  17  34  61  89 117 151 196 242 286 344
#     4  12  24  38  57  85 121 157 195 239 293 347
#     4  12  24  40  60  84 114 154 201 242 287 344
#     4   8  17  36  63  91 116 150 197 244 291 352
#
# _framework density 19.040817000000001
#
# number of rings (size 3 to 8) (size 9 to 14) (size 15 to 20)
#    0.000    1.778    1.111    5.667    0.000    1.333 
#    0.000    6.667    0.000    4.667    0.000    0.000 
#    0.000    0.000    0.000    0.000    0.000    0.000 
#
# Total GULP energy -201166.996332 kJ/mol
# GULP energy per Si atom -5587.972120 kJ/mol
# Density = 1.899748 g / cm^3
# Si number density = 19.040817 Si / 1000 Ang^3
#
#
#
# Elastic Constant Matrix: (Units=GPa)
#
#
# Indices 1 2 3 4 5 6 
#
# 1 80.7242 30.7443 22.8803 0.0000 0.0000 0.0000
# 2 30.7443 92.7446 23.1282 0.0000 0.0000 0.0000
# 3 22.8803 23.1282 36.1173 0.0000 0.0000 0.0000
# 4 0.0000 0.0000 0.0000 31.8232 0.0000 0.0000
# 5 0.0000 0.0000 0.0000 0.0000 29.2256 0.0000
# 6 0.0000 0.0000 0.0000 0.0000 0.0000 9.2869
#
#
#
# Elastic Compliance Matrix: (Units=1/GPa)
#
#
# Indices 1 2 3 4 5 6 
#
# 1 0.015897 -0.003282 -0.007969 0.000000 0.000000 0.000000
# 2 -0.003282 0.013509 -0.006571 0.000000 0.000000 0.000000
# 3 -0.007969 -0.006571 0.036944 0.000000 0.000000 0.000000
# 4 0.000000 0.000000 0.000000 0.031424 0.000000 0.000000
# 5 0.000000 0.000000 0.000000 0.000000 0.034217 0.000000
# 6 0.000000 0.000000 0.000000 0.000000 0.000000 0.107678
#
#
# Mechanical properties :
#
#
# Convention : Reuss Voigt Hill
#
# Bulk Modulus (GPa) = 32.56823 40.34353 36.45588
# Shear Modulus (GPa) = 17.51021 22.92268 20.21645
#
# Velocity S-wave (km/s) = 3.03580 3.47345 3.26197
# Velocity P-wave (km/s) = 5.42491 6.10904 5.77711
#
# Compressibility (1/GPa) = 0.03070477
#
# Stress axis : x y z
#
# Youngs Moduli (GPa) = 62.90651 74.02384 27.06822
#
# Poissons Ratio (x) = 0.24298 0.21569
# Poissons Ratio (y) = 0.20649 0.17787
# Poissons Ratio (z) = 0.50127 0.48644
#
# Static dielectric constant tensor:
#      x y z
#    x 1.644600 0.000000 0.000000 
#    y 0.000000 1.647240 0.000000 
#    z 0.000000 0.000000 1.646070 
# 
# From -- ./inp_files/56671.got.cif
#   From: 2010.05.17/outbox.cif.g08.bks.cpg/sg74_29_cif.got.tgz:56671.got - 2010.06.03 17:57:02.
