data_PCOD9540629
_publ_section_title
;
Structure prediction by ZEFSAII (Michael W. Deem and Ramdas Pophale) SiO2 
 PCOD9540629
Probable space group: I M M A
;
_chemical_formula_sum "Si O2"
_cell_formula_units_Z 52
_cell_length_a 13.982591
_cell_length_b 18.921977
_cell_length_c 6.817557
_cell_angle_alpha 90.000000
_cell_angle_beta 90.000000
_cell_angle_gamma 90.000000
_cell_volume 1803.777405
_symmetry_space_group_name_H-M "I M M A"
_symmetry_group_IT_number 74
_symmetry_cell_setting 'orthorhombic'
loop_
_space_group_symop_operation_xyz
x,y,z
-x,1/2-y,z
x,-y,-z
-x,1/2+y,-z
-x,-y,-z
x,1/2+y,-z
-x,y,z
x,1/2-y,z
1/2+x,1/2+y,1/2+z
1/2-x,-y,1/2+z
1/2+x,1/2-y,1/2-z
1/2-x,y,1/2-z
1/2-x,1/2-y,1/2-z
1/2+x,y,1/2-z
1/2-x,1/2+y,1/2+z
1/2+x,-y,1/2+z
loop_
_atom_site_type_symbol
_atom_site_label
_atom_site_fract_x
_atom_site_fract_y
_atom_site_fract_z
Si Si1 0.250000 0.250000 0.750000
Si Si2 0.611148 0.828990 0.656267
Si Si3 0.611082 0.867538 0.190908
Si Si4 0.884000 0.519975 0.776728
O O1 0.311089 0.311253 0.871958
O O2 0.500000 0.823166 0.712581
O O3 0.651817 0.750000 0.671140
O O4 0.608898 0.848486 0.424817
O O5 0.647617 0.899841 0.761964
O O6 0.500000 0.858240 0.128773
O O7 0.640821 0.948785 0.160899
O O8 0.000000 0.521429 0.769978
O O9 0.857180 0.500000 0.000000
#
# Coordination Sequence:
#
# PCOD9540629 Si02
#       4
#     4  16  16  16
#     4  12  18  20  32  46  66 104 122 126 156 196
#     4   8  11  18  33  50  67  86 105 131 169 208
#     4   9  16  24  30  44  71  95 115 136 157 194
#     4   7  11  19  31  44  62  88 109 130 167 203
#
# _framework density 28.828392999999998
#
# number of rings (size 3 to 8) (size 9 to 14) (size 15 to 20)
#    0.000    3.692    1.538    4.154    0.000    0.000 
#    0.000    0.000    0.000    0.000    0.000    1.077 
#    0.000   44.308    0.000    0.000    0.000    0.000 
#
# Total GULP energy -144901.447287 kJ/mol
# GULP energy per Si atom -5573.132588 kJ/mol
# Density = 2.876278 g / cm^3
# Si number density = 28.828393 Si / 1000 Ang^3
#
#
#
# Elastic Constant Matrix: (Units=GPa)
#
#
# Indices 1 2 3 4 5 6 
#
# 1 175.2580 68.5975 -1.9413 0.0000 0.0000 0.0000
# 2 68.5975 432.5934 60.5709 0.0000 0.0000 0.0000
# 3 -1.9413 60.5709 121.3040 0.0000 0.0000 0.0000
# 4 0.0000 0.0000 0.0000 20.7003 0.0000 0.0000
# 5 0.0000 0.0000 0.0000 0.0000 7.5324 0.0000
# 6 0.0000 0.0000 0.0000 0.0000 0.0000 -74.8860
#
#
#
# Elastic Compliance Matrix: (Units=1/GPa)
#
#
# Indices 1 2 3 4 5 6 
#
# 1 0.006128 -0.001059 0.000627 0.000000 0.000000 0.000000
# 2 -0.001059 0.002669 -0.001349 0.000000 0.000000 0.000000
# 3 0.000627 -0.001349 0.008928 0.000000 0.000000 0.000000
# 4 0.000000 0.000000 0.000000 0.048309 0.000000 0.000000
# 5 0.000000 0.000000 0.000000 0.000000 0.132759 0.000000
# 6 0.000000 0.000000 0.000000 0.000000 0.000000 -0.013354
#
#
# Mechanical properties :
#
#
# Convention : Reuss Voigt Hill
#
# Bulk Modulus (GPa) = 70.62136 109.28996 89.95566
# Shear Modulus (GPa) = 25.81026 30.79791 28.30408
#
# Velocity S-wave (km/s) = 2.99541 3.27206 3.13679
# Velocity P-wave (km/s) = 6.04265 7.22966 6.66264
#
# Compressibility (1/GPa) = 0.01416002
#
# Stress axis : x y z
#
# Youngs Moduli (GPa) = 163.19864 374.72978 112.01202
#
# Poissons Ratio (x) = 0.39701 -0.07024
# Poissons Ratio (y) = 0.17290 0.15116
# Poissons Ratio (z) = -0.10234 0.50568
#
# Static dielectric constant tensor:
#      x y z
#    x 2.236810 0.000000 0.000000 
#    y 0.000000 2.151860 0.000000 
#    z 0.000000 0.000000 2.437010 
# 
# From -- ./inp_files/10151.got.cif
#   From: 2010.05.17/outbox.cif.g08.bks.cpg/sg74_6_cif.got.tgz:10151.got - 2010.06.03 17:57:02.
