data_PCOD9540609
_publ_section_title
;
Structure prediction by ZEFSAII (Michael W. Deem and Ramdas Pophale) SiO2 
 PCOD9540609
Probable space group: I M M A
;
_chemical_formula_sum "Si O2"
_cell_formula_units_Z 40
_cell_length_a 31.893747
_cell_length_b 10.477165
_cell_length_c 5.494162
_cell_angle_alpha 90.000000
_cell_angle_beta 90.000000
_cell_angle_gamma 90.000000
_cell_volume 1835.907471
_symmetry_space_group_name_H-M "I M M A"
_symmetry_group_IT_number 74
_symmetry_cell_setting 'orthorhombic'
loop_
_space_group_symop_operation_xyz
x,y,z
-x,1/2-y,z
x,-y,-z
-x,1/2+y,-z
-x,-y,-z
x,1/2+y,-z
-x,y,z
x,1/2-y,z
1/2+x,1/2+y,1/2+z
1/2-x,-y,1/2+z
1/2+x,1/2-y,1/2-z
1/2-x,y,1/2-z
1/2-x,1/2-y,1/2-z
1/2+x,y,1/2-z
1/2-x,1/2+y,1/2+z
1/2+x,-y,1/2+z
loop_
_atom_site_type_symbol
_atom_site_label
_atom_site_fract_x
_atom_site_fract_y
_atom_site_fract_z
Si Si1 0.750000 0.938996 0.750000
Si Si2 0.000000 0.889890 0.809240
Si Si3 0.823392 0.750000 0.864419
Si Si4 0.624059 0.750000 0.138121
Si Si5 0.573956 0.500000 0.000000
O O1 0.790733 0.865396 0.847266
O O2 0.766131 0.000000 0.500000
O O3 0.042129 0.913905 0.658247
O O4 0.000000 0.750000 0.919694
O O5 0.000000 0.000000 0.000000
O O6 0.852220 0.750000 0.623524
O O7 0.847805 0.750000 0.118646
O O8 0.599878 0.611794 0.138156
#
# Coordination Sequence:
#
# PCOD9540609 Si02
#       5
#     8   8   8   8   8
#     4  11  24  47  76 104 144 197 250 309 370 467
#     4  11  26  48  75 105 147 203 250 305 368 461
#     4  11  28  46  72 109 146 196 249 306 384 440
#     4  12  28  46  76 112 154 196 245 321 372 443
#     4  11  28  46  72 110 152 196 254 304 382 444
#
# _framework density 21.787590999999999
#
# number of rings (size 3 to 8) (size 9 to 14) (size 15 to 20)
#    0.000    0.800    2.000    2.400   16.800    3.200 
#    0.000    0.000    0.000    0.000    0.000    0.000 
#    0.000    0.000    0.000    0.000    0.000    0.000 
#
# Total GULP energy -111489.746280 kJ/mol
# GULP energy per Si atom -5574.487314 kJ/mol
# Density = 2.173800 g / cm^3
# Si number density = 21.787591 Si / 1000 Ang^3
#
#
#
# Elastic Constant Matrix: (Units=GPa)
#
#
# Indices 1 2 3 4 5 6 
#
# 1 123.4272 57.5439 70.0384 -0.0005 -0.0019 -0.0003
# 2 57.5439 159.7774 58.5331 -0.0023 -0.0039 -0.0024
# 3 70.0384 58.5331 156.2813 -0.0050 -0.0106 -0.0058
# 4 -0.0005 -0.0023 -0.0050 19.8927 -0.0065 -0.0043
# 5 -0.0019 -0.0039 -0.0106 -0.0065 277.0732 -0.0053
# 6 -0.0003 -0.0024 -0.0058 -0.0043 -0.0053 -446.1813
#
#
#
# Elastic Compliance Matrix: (Units=1/GPa)
#
#
# Indices 1 2 3 4 5 6 
#
# 1 0.011775 -0.002675 -0.004275 -0.000001 0.000000 0.000000
# 2 -0.002675 0.007862 -0.001746 0.000000 0.000000 0.000000
# 3 -0.004275 -0.001746 0.008969 0.000002 0.000000 0.000000
# 4 -0.000001 0.000000 0.000002 0.050270 0.000001 0.000000
# 5 0.000000 0.000000 0.000000 0.000001 0.003609 0.000000
# 6 0.000000 0.000000 0.000000 0.000000 0.000000 -0.002241
#
#
# Mechanical properties :
#
#
# Convention : Reuss Voigt Hill
#
# Bulk Modulus (GPa) = 89.17643 90.19074 89.68359
# Shear Modulus (GPa) = 49.32348 -12.95173 18.18588
#
# Velocity S-wave (km/s) = 4.76314 -2.44079 2.89223
# Velocity P-wave (km/s) = 8.44208 5.79155 7.23916
#
# Compressibility (1/GPa) = 0.01121372
#
# Stress axis : x y z
#
# Youngs Moduli (GPa) = 84.92701 127.20212 111.50038
#
# Poissons Ratio (x) = 0.34020 0.47669
# Poissons Ratio (y) = 0.22714 0.19466
# Poissons Ratio (z) = 0.36308 0.22207
#
# Static dielectric constant tensor:
#      x y z
#    x 1.864830 0.000000 0.000000 
#    y 0.000000 1.819070 0.000000 
#    z 0.000000 0.000000 1.861390 
# 
# From -- ./inp_files/717.got.cif
#   From: 2010.05.17/outbox.cif.g08.bks.cpg/sg74_1_cif.got.tgz:717.got - 2010.06.03 17:57:02.
