data_PCOD9540803
_publ_section_title
;
Structure prediction by ZEFSAII (Michael W. Deem and Ramdas Pophale) SiO2 
 PCOD9540803
Probable space group: I M M A
;
_chemical_formula_sum "Si O2"
_cell_formula_units_Z 60
_cell_length_a 24.000000
_cell_length_b 15.000000
_cell_length_c 21.000000
_cell_angle_alpha 90.000000
_cell_angle_beta 90.000000
_cell_angle_gamma 90.000000
_cell_volume 7560.000000
_symmetry_space_group_name_H-M "I M M A"
_symmetry_group_IT_number 74
_symmetry_cell_setting 'orthorhombic'
loop_
_space_group_symop_operation_xyz
x,y,z
-x,1/2-y,z
x,-y,-z
-x,1/2+y,-z
-x,-y,-z
x,1/2+y,-z
-x,y,z
x,1/2-y,z
1/2+x,1/2+y,1/2+z
1/2-x,-y,1/2+z
1/2+x,1/2-y,1/2-z
1/2-x,y,1/2-z
1/2-x,1/2-y,1/2-z
1/2+x,y,1/2-z
1/2-x,1/2+y,1/2+z
1/2+x,-y,1/2+z
loop_
_atom_site_type_symbol
_atom_site_label
_atom_site_fract_x
_atom_site_fract_y
_atom_site_fract_z
Si Si1 0.754900 0.646413 0.632754
Si Si2 0.845681 0.853488 0.077611
Si Si3 0.935343 0.098848 0.029300
Si Si4 0.721624 0.853740 0.017617
Si Si5 0.432575 0.644110 0.911579
Si Si6 0.134682 0.500000 0.500000
Si Si7 0.639561 0.956772 0.648034
Si Si8 0.635641 0.643701 0.781726
O O1 0.738128 0.750000 0.643247
O O2 0.775730 0.640588 0.559616
O O3 0.701538 0.583142 0.638048
O O4 0.804399 0.627038 0.683223
O O5 0.845726 0.750000 0.102772
O O6 0.783880 0.869496 0.046516
O O7 0.858058 0.936899 0.126754
O O8 0.892452 0.855889 0.021120
O O9 0.903729 0.088482 0.097431
O O10 0.000000 0.133063 0.033757
O O11 0.939900 0.000000 0.000000
O O12 0.706632 0.750000 0.033295
O O13 0.676754 0.930184 0.036338
O O14 0.500000 0.634865 0.914076
O O15 0.419463 0.750000 0.928664
O O16 0.402807 0.568133 0.956213
O O17 0.408925 0.632339 0.839462
O O18 0.626503 0.921769 0.720656
O O19 0.634524 0.750000 0.763126
#
# Coordination Sequence:
#
# PCOD9540803 Si02
#       8
#    16  16  16  16  16   8  16  16
#     4  10  18  32  53  80 108 135 170 219 277 330
#     4  10  21  35  51  76 112 148 183 224 275 322
#     4   9  19  34  52  76 105 138 182 232 274 313
#     4  10  19  31  53  82 111 139 173 220 271 326
#     4  10  22  39  57  82 115 144 175 219 269 325
#     4  12  19  32  60  86 107 138 180 218 270 322
#     4  11  20  32  55  79 107 144 184 228 269 321
#     4  10  21  36  54  79 109 142 176 219 276 333
#
# _framework density 7.9365079999999999
#
# number of rings (size 3 to 8) (size 9 to 14) (size 15 to 20)
#    0.000    1.867    2.667    2.200    0.933    2.400 
#    0.000    0.000    0.000    3.200    0.000    0.000 
#    0.000    0.000    0.000    0.000    0.000    0.000 
#
# Total GULP energy -334208.205878 kJ/mol
# GULP energy per Si atom -5570.136765 kJ/mol
# Density = 0.791844 g / cm^3
# Si number density = 7.936508 Si / 1000 Ang^3
#
#
#
# Elastic Constant Matrix: (Units=GPa)
#
#
# Indices 1 2 3 4 5 6 
#
# 1 116.0127 47.2838 32.4846 0.0000 0.0000 0.0000
# 2 47.2838 124.0350 47.7521 0.0000 0.0000 0.0000
# 3 32.4846 47.7521 94.1537 0.0000 0.0000 0.0000
# 4 0.0000 0.0000 0.0000 33.2271 0.0000 0.0000
# 5 0.0000 0.0000 0.0000 0.0000 25.0831 0.0000
# 6 0.0000 0.0000 0.0000 0.0000 0.0000 29.7293
#
#
#
# Elastic Compliance Matrix: (Units=1/GPa)
#
#
# Indices 1 2 3 4 5 6 
#
# 1 0.010494 -0.003239 -0.001978 0.000000 0.000000 0.000000
# 2 -0.003239 0.011018 -0.004471 0.000000 0.000000 0.000000
# 3 -0.001978 -0.004471 0.013571 0.000000 0.000000 0.000000
# 4 0.000000 0.000000 0.000000 0.030096 0.000000 0.000000
# 5 0.000000 0.000000 0.000000 0.000000 0.039867 0.000000
# 6 0.000000 0.000000 0.000000 0.000000 0.000000 0.033637
#
#
# Mechanical properties :
#
#
# Convention : Reuss Voigt Hill
#
# Bulk Modulus (GPa) = 63.66259 65.47138 64.56698
# Shear Modulus (GPa) = 30.61977 31.38661 31.00319
#
# Velocity S-wave (km/s) = 4.39686 4.45157 4.42430
# Velocity P-wave (km/s) = 8.12225 8.23156 8.17709
#
# Compressibility (1/GPa) = 0.01570781
#
# Stress axis : x y z
#
# Youngs Moduli (GPa) = 95.29588 90.75994 73.68835
#
# Poissons Ratio (x) = 0.29396 0.14574
# Poissons Ratio (y) = 0.30865 0.32943
# Poissons Ratio (z) = 0.18848 0.40575
#
# Static dielectric constant tensor:
#      x y z
#    x 1.561210 0.000000 0.000000 
#    y 0.000000 1.559710 0.000000 
#    z 0.000000 0.000000 1.529800 
# 
# From -- ./inp_files/54822.got.cif
#   From: 2010.05.17/outbox.ucp.g08.bks.cvg/sg74_28_cif.got.tgz:54822.got - 2010.06.11 16:37:44.
