data_PCOD9540942
_publ_section_title
;
Structure prediction by ZEFSAII (Michael W. Deem and Ramdas Pophale) SiO2 
 PCOD9540942
Probable space group: I M M A
;
_chemical_formula_sum "Si O2"
_cell_formula_units_Z 28
_cell_length_a 12.000000
_cell_length_b 9.000000
_cell_length_c 27.000000
_cell_angle_alpha 90.000000
_cell_angle_beta 90.000000
_cell_angle_gamma 90.000000
_cell_volume 2916.000000
_symmetry_space_group_name_H-M "I M M A"
_symmetry_group_IT_number 74
_symmetry_cell_setting 'orthorhombic'
loop_
_space_group_symop_operation_xyz
x,y,z
-x,1/2-y,z
x,-y,-z
-x,1/2+y,-z
-x,-y,-z
x,1/2+y,-z
-x,y,z
x,1/2-y,z
1/2+x,1/2+y,1/2+z
1/2-x,-y,1/2+z
1/2+x,1/2-y,1/2-z
1/2-x,y,1/2-z
1/2-x,1/2-y,1/2-z
1/2+x,y,1/2-z
1/2-x,1/2+y,1/2+z
1/2+x,-y,1/2+z
loop_
_atom_site_type_symbol
_atom_site_label
_atom_site_fract_x
_atom_site_fract_y
_atom_site_fract_z
Si Si1 0.692467 0.423880 0.886411
Si Si2 0.866326 0.923866 0.947887
Si Si3 0.870163 0.074380 0.728605
Si Si4 0.500000 0.575012 0.947378
O O1 0.689613 0.250000 0.899520
O O2 0.811410 0.491226 0.901666
O O3 0.651957 0.436672 0.830061
O O4 0.607069 0.517243 0.918609
O O5 0.835016 0.750000 0.948160
O O6 0.000000 0.933656 0.945179
O O7 0.831380 0.000000 0.000000
O O8 0.872760 0.250000 0.742560
O O9 0.750000 0.014125 0.750000
O O10 0.000000 0.019656 0.739115
O O11 0.500000 0.750000 0.951454
O O12 0.500000 0.500000 0.000000
#
# Coordination Sequence:
#
# PCOD9540942 Si02
#       4
#    16  16  16   8
#     4  11  21  36  58  86 118 151 194 246 299 355
#     4  10  21  37  56  81 116 157 198 241 291 355
#     4   9  18  34  57  86 119 153 195 251 307 359
#     4  12  24  38  58  84 118 158 198 240 297 360
#
# _framework density 9.602195
#
# number of rings (size 3 to 8) (size 9 to 14) (size 15 to 20)
#    0.000    1.714    1.429    3.857    0.000    2.857 
#    0.000    2.857    0.000    3.429    0.000    0.000 
#    0.000    0.000    0.000    0.000    0.000    0.000 
#
# Total GULP energy -156057.368267 kJ/mol
# GULP energy per Si atom -5573.477438 kJ/mol
# Density = 0.958034 g / cm^3
# Si number density = 9.602195 Si / 1000 Ang^3
#
#
#
# Elastic Constant Matrix: (Units=GPa)
#
#
# Indices 1 2 3 4 5 6 
#
# 1 115.7435 41.5697 33.2897 0.0000 0.0000 0.0000
# 2 41.5697 121.0281 37.9822 0.0000 0.0000 0.0000
# 3 33.2897 37.9822 37.3133 0.0000 0.0000 0.0000
# 4 0.0000 0.0000 0.0000 17.5499 0.0000 0.0000
# 5 0.0000 0.0000 0.0000 0.0000 44.3224 0.0000
# 6 0.0000 0.0000 0.0000 0.0000 0.0000 31.4233
#
#
#
# Elastic Compliance Matrix: (Units=1/GPa)
#
#
# Indices 1 2 3 4 5 6 
#
# 1 0.011720 -0.001093 -0.009343 0.000000 0.000000 0.000000
# 2 -0.001093 0.012243 -0.011487 0.000000 0.000000 0.000000
# 3 -0.009343 -0.011487 0.046829 0.000000 0.000000 0.000000
# 4 0.000000 0.000000 0.000000 0.056980 0.000000 0.000000
# 5 0.000000 0.000000 0.000000 0.000000 0.022562 0.000000
# 6 0.000000 0.000000 0.000000 0.000000 0.000000 0.031823
#
#
# Mechanical properties :
#
#
# Convention : Reuss Voigt Hill
#
# Bulk Modulus (GPa) = 37.11324 55.52978 46.32151
# Shear Modulus (GPa) = 21.27787 29.40868 25.34327
#
# Velocity S-wave (km/s) = 3.33223 3.91749 3.63665
# Velocity P-wave (km/s) = 5.84571 7.03138 6.46578
#
# Compressibility (1/GPa) = 0.02694456
#
# Stress axis : x y z
#
# Youngs Moduli (GPa) = 85.32676 81.67879 21.35433
#
# Poissons Ratio (x) = 0.08929 0.19951
# Poissons Ratio (y) = 0.09328 0.24530
# Poissons Ratio (z) = 0.79721 0.93826
#
# Static dielectric constant tensor:
#      x y z
#    x 1.790490 0.000000 0.000000 
#    y 0.000000 1.641150 0.000000 
#    z 0.000000 0.000000 1.645510 
# 
# From -- ./inp_files/63243.got.cif
#   From: 2010.05.17/outbox.ucp.g08.bks.cvg/sg74_32_cif.got.tgz:63243.got - 2010.06.11 16:37:44.
