data_PCOD9540572
_publ_section_title
;
Structure prediction by ZEFSAII (Michael W. Deem and Ramdas Pophale) SiO2 
 PCOD9540572
Probable space group: I M M A
;
_chemical_formula_sum "Si O2"
_cell_formula_units_Z 56
_cell_length_a 18.767151
_cell_length_b 16.958698
_cell_length_c 9.313026
_cell_angle_alpha 90.000000
_cell_angle_beta 90.000000
_cell_angle_gamma 90.000000
_cell_volume 2964.023688
_symmetry_space_group_name_H-M "I M M A"
_symmetry_group_IT_number 74
_symmetry_cell_setting 'orthorhombic'
loop_
_space_group_symop_operation_xyz
x,y,z
-x,1/2-y,z
x,-y,-z
-x,1/2+y,-z
-x,-y,-z
x,1/2+y,-z
-x,y,z
x,1/2-y,z
1/2+x,1/2+y,1/2+z
1/2-x,-y,1/2+z
1/2+x,1/2-y,1/2-z
1/2-x,y,1/2-z
1/2-x,1/2-y,1/2-z
1/2+x,y,1/2-z
1/2-x,1/2+y,1/2+z
1/2+x,-y,1/2+z
loop_
_atom_site_type_symbol
_atom_site_label
_atom_site_fract_x
_atom_site_fract_y
_atom_site_fract_z
Si Si1 0.579299 0.873708 0.017695
Si Si2 0.808608 0.500000 0.000000
Si Si3 0.263641 0.164408 0.920345
Si Si4 0.421044 0.983366 0.753720
O O1 0.500000 0.837846 0.030439
O O2 0.652244 0.830896 0.051390
O O3 0.579998 0.944887 0.133277
O O4 0.585847 0.907854 0.856681
O O5 0.764471 0.581878 0.012816
O O6 0.859182 0.492668 0.138954
O O7 0.231923 0.250000 0.968206
O O8 0.250000 0.158289 0.750000
O O9 0.500000 0.981737 0.685831
#
# Coordination Sequence:
#
# PCOD9540572 Si02
#       4
#    16   8  16  16
#     4   9  18  36  58  83 115 155 196 239 287 348
#     4  12  21  36  63  86 122 160 184 242 309 332
#     4  11  24  39  59  90 120 153 200 241 287 357
#     4   9  18  33  59  89 115 152 202 235 285 355
#
# _framework density 18.893236999999999
#
# number of rings (size 3 to 8) (size 9 to 14) (size 15 to 20)
#    0.000    2.000    2.857    3.857    0.000    0.571 
#    0.000    2.857    0.000    5.143    0.000    0.000 
#    0.000    0.000    0.000    0.000    0.000    0.000 
#
# Total GULP energy -155913.452972 kJ/mol
# GULP energy per Si atom -5568.337606 kJ/mol
# Density = 1.885024 g / cm^3
# Si number density = 18.893237 Si / 1000 Ang^3
#
#
#
# Elastic Constant Matrix: (Units=GPa)
#
#
# Indices 1 2 3 4 5 6 
#
# 1 145.6276 67.0560 49.7861 0.0000 0.0000 0.0000
# 2 67.0560 140.0518 34.8842 0.0000 0.0000 0.0000
# 3 49.7861 34.8842 69.5378 0.0000 0.0000 0.0000
# 4 0.0000 0.0000 0.0000 51.4031 0.0000 0.0000
# 5 0.0000 0.0000 0.0000 0.0000 27.1345 0.0000
# 6 0.0000 0.0000 0.0000 0.0000 0.0000 36.4652
#
#
#
# Elastic Compliance Matrix: (Units=1/GPa)
#
#
# Indices 1 2 3 4 5 6 
#
# 1 0.010468 -0.003594 -0.005691 0.000000 0.000000 0.000000
# 2 -0.003594 0.009394 -0.002139 0.000000 0.000000 0.000000
# 3 -0.005691 -0.002139 0.019529 0.000000 0.000000 0.000000
# 4 0.000000 0.000000 0.000000 0.019454 0.000000 0.000000
# 5 0.000000 0.000000 0.000000 0.000000 0.036853 0.000000
# 6 0.000000 0.000000 0.000000 0.000000 0.000000 0.027423
#
#
# Mechanical properties :
#
#
# Convention : Reuss Voigt Hill
#
# Bulk Modulus (GPa) = 60.45727 73.18554 66.82140
# Shear Modulus (GPa) = 33.00683 36.56661 34.78672
#
# Velocity S-wave (km/s) = 4.18427 4.40413 4.29561
# Velocity P-wave (km/s) = 7.44399 8.04253 7.74904
#
# Compressibility (1/GPa) = 0.01654061
#
# Stress axis : x y z
#
# Youngs Moduli (GPa) = 95.53368 106.45147 51.20714
#
# Poissons Ratio (x) = 0.38261 0.29143
# Poissons Ratio (y) = 0.34337 0.10954
# Poissons Ratio (z) = 0.54370 0.22773
#
# Static dielectric constant tensor:
#      x y z
#    x 1.675460 0.000000 0.000000 
#    y 0.000000 1.714030 0.000000 
#    z 0.000000 0.000000 1.617260 
# 
# From -- ./inp_files/9979.got.cif
#   From: 2010.05.17/outbox.cif.g08.bks.cpg/sg74_5_cif.got.tgz:9979.got - 2010.06.03 17:57:02.
