data_PCOD9540131
_publ_section_title
;
Structure prediction by ZEFSAII (Michael W. Deem and Ramdas Pophale) SiO2 
 PCOD9540131
Probable space group: I M M A
;
_chemical_formula_sum "Si O2"
_cell_formula_units_Z 80
_cell_length_a 30.387110
_cell_length_b 16.348164
_cell_length_c 7.473083
_cell_angle_alpha 90.000000
_cell_angle_beta 90.000000
_cell_angle_gamma 90.000000
_cell_volume 3712.429282
_symmetry_space_group_name_H-M "I M M A"
_symmetry_group_IT_number 74
_symmetry_cell_setting 'orthorhombic'
loop_
_space_group_symop_operation_xyz
x,y,z
-x,1/2-y,z
x,-y,-z
-x,1/2+y,-z
-x,-y,-z
x,1/2+y,-z
-x,y,z
x,1/2-y,z
1/2+x,1/2+y,1/2+z
1/2-x,-y,1/2+z
1/2+x,1/2-y,1/2-z
1/2-x,y,1/2-z
1/2-x,1/2-y,1/2-z
1/2+x,y,1/2-z
1/2-x,1/2+y,1/2+z
1/2+x,-y,1/2+z
loop_
_atom_site_type_symbol
_atom_site_label
_atom_site_fract_x
_atom_site_fract_y
_atom_site_fract_z
Si Si1 0.392269 0.847922 0.160370
Si Si2 0.703820 0.657050 0.192832
Si Si3 0.622782 0.153934 0.256535
Si Si4 0.295495 0.072198 0.148200
Si Si5 0.450190 0.596631 0.467540
O O1 0.393375 0.750000 0.184522
O O2 0.344536 0.876987 0.236983
O O3 0.431427 0.886725 0.270215
O O4 0.392902 0.862798 0.948023
O O5 0.704092 0.750000 0.260119
O O6 0.750000 0.617808 0.250000
O O7 0.705840 0.652344 0.978402
O O8 0.635180 0.250000 0.271298
O O9 0.663964 0.092038 0.278876
O O10 0.583910 0.136885 0.394704
O O11 0.250000 0.062156 0.250000
O O12 0.302218 0.000000 0.000000
O O13 0.450242 0.500000 0.500000
O O14 0.500000 0.627726 0.488170
#
# Coordination Sequence:
#
# PCOD9540131 Si02
#       5
#    16  16  16  16  16
#     4   9  20  40  64  91 128 172 215 266 327 386
#     4   9  19  36  58  86 121 162 208 254 309 380
#     4  10  24  44  68  97 130 175 224 271 327 395
#     4  11  24  38  59  92 130 172 214 263 323 383
#     4  11  26  43  66  99 130 168 218 276 343 402
#
# _framework density 21.549233000000001
#
# number of rings (size 3 to 8) (size 9 to 14) (size 15 to 20)
#    0.000    2.000    0.000    3.000    8.400    4.800 
#    0.000    4.000    0.000    0.000    0.000    0.000 
#    0.000    0.000    0.000    0.000    0.000    0.000 
#
# Total GULP energy -223160.609621 kJ/mol
# GULP energy per Si atom -5579.015241 kJ/mol
# Density = 2.150019 g / cm^3
# Si number density = 21.549233 Si / 1000 Ang^3
#
#
#
# Elastic Constant Matrix: (Units=GPa)
#
#
# Indices 1 2 3 4 5 6 
#
# 1 144.0319 44.5552 33.5892 0.0000 0.0000 0.0000
# 2 44.5552 65.5810 20.0911 0.0000 0.0000 0.0000
# 3 33.5892 20.0911 40.4711 0.0000 0.0000 0.0000
# 4 0.0000 0.0000 0.0000 29.3175 0.0000 0.0000
# 5 0.0000 0.0000 0.0000 0.0000 36.5582 0.0000
# 6 0.0000 0.0000 0.0000 0.0000 0.0000 12.8313
#
#
#
# Elastic Compliance Matrix: (Units=1/GPa)
#
#
# Indices 1 2 3 4 5 6 
#
# 1 0.009787 -0.004907 -0.005687 0.000000 0.000000 0.000000
# 2 -0.004907 0.020444 -0.006076 0.000000 0.000000 0.000000
# 3 -0.005687 -0.006076 0.032445 0.000000 0.000000 0.000000
# 4 0.000000 0.000000 0.000000 0.034109 0.000000 0.000000
# 5 0.000000 0.000000 0.000000 0.000000 0.027354 0.000000
# 6 0.000000 0.000000 0.000000 0.000000 0.000000 0.077935
#
#
# Mechanical properties :
#
#
# Convention : Reuss Voigt Hill
#
# Bulk Modulus (GPa) = 34.08810 49.61721 41.85265
# Shear Modulus (GPa) = 20.39217 25.86463 23.12840
#
# Velocity S-wave (km/s) = 3.07955 3.46823 3.27965
# Velocity P-wave (km/s) = 5.33834 6.25406 5.81425
#
# Compressibility (1/GPa) = 0.02933575
#
# Stress axis : x y z
#
# Youngs Moduli (GPa) = 102.17561 48.91498 30.82117
#
# Poissons Ratio (x) = 0.24003 0.17527
# Poissons Ratio (y) = 0.50138 0.18728
# Poissons Ratio (z) = 0.58105 0.29722
#
# Static dielectric constant tensor:
#      x y z
#    x 1.826420 0.000000 0.000000 
#    y 0.000000 1.867140 0.000000 
#    z 0.000000 0.000000 1.789370 
# 
# From -- ./inp_files/14947.got.cif
#   From: 2010.05.17/outbox.cif.g08.bks.cpg/sg74_8_cif.got.tgz:14947.got - 2010.06.03 17:57:02.
