data_PCOD9540738
_publ_section_title
;
Structure prediction by ZEFSAII (Michael W. Deem and Ramdas Pophale) SiO2 
 PCOD9540738
Probable space group: I M M A
;
_chemical_formula_sum "Si O2"
_cell_formula_units_Z 128
_cell_length_a 15.442685
_cell_length_b 24.847504
_cell_length_c 17.391774
_cell_angle_alpha 90.000000
_cell_angle_beta 90.000000
_cell_angle_gamma 90.000000
_cell_volume 6673.435469
_symmetry_space_group_name_H-M "I M M A"
_symmetry_group_IT_number 74
_symmetry_cell_setting 'orthorhombic'
loop_
_space_group_symop_operation_xyz
x,y,z
-x,1/2-y,z
x,-y,-z
-x,1/2+y,-z
-x,-y,-z
x,1/2+y,-z
-x,y,z
x,1/2-y,z
1/2+x,1/2+y,1/2+z
1/2-x,-y,1/2+z
1/2+x,1/2-y,1/2-z
1/2-x,y,1/2-z
1/2-x,1/2-y,1/2-z
1/2+x,y,1/2-z
1/2-x,1/2+y,1/2+z
1/2+x,-y,1/2+z
loop_
_atom_site_type_symbol
_atom_site_label
_atom_site_fract_x
_atom_site_fract_y
_atom_site_fract_z
Si Si1 0.399924 0.315290 0.579748
Si Si2 0.895726 0.527333 0.680071
Si Si3 0.873140 0.189301 0.389810
Si Si4 0.852251 0.867829 0.763359
Si Si5 0.106086 0.311861 0.749692
Si Si6 0.833535 0.812027 0.916014
Si Si7 0.393910 0.589387 0.146745
Si Si8 0.401899 0.582749 0.974884
O O1 0.500000 0.332454 0.573228
O O2 0.398935 0.250000 0.580937
O O3 0.366510 0.330089 0.664487
O O4 0.351494 0.331986 0.502269
O O5 0.870397 0.570103 0.744709
O O6 0.869937 0.465565 0.690653
O O7 0.862372 0.550461 0.597406
O O8 0.000000 0.528931 0.675538
O O9 0.902652 0.250000 0.401942
O O10 0.894412 0.167971 0.304275
O O11 0.769257 0.188982 0.401272
O O12 0.906060 0.144521 0.448124
O O13 0.750000 0.859837 0.750000
O O14 0.874250 0.847542 0.848146
O O15 0.133688 0.250000 0.734768
O O16 0.134494 0.355703 0.687456
O O17 0.000000 0.310969 0.751007
O O18 0.864765 0.750000 0.909621
O O19 0.500000 0.592031 0.144260
O O20 0.361985 0.581766 0.059282
O O21 0.500000 0.561964 0.983487
#
# Coordination Sequence:
#
# PCOD9540738 Si02
#       8
#    16  16  16  16  16  16  16  16
#     4   8  14  25  42  64  87 111 142 179 215 253
#     4   9  17  29  45  65  88 114 146 183 219 255
#     4   9  17  28  42  63  91 119 145 175 216 265
#     4   9  17  29  45  63  87 117 149 181 215 258
#     4   8  14  25  42  65  89 111 139 176 216 257
#     4   9  16  27  45  65  86 116 149 178 215 265
#     4   9  16  27  46  67  86 113 146 178 216 264
#     4   9  17  28  43  64  88 115 147 182 217 255
#
# _framework density 19.180524999999999
#
# number of rings (size 3 to 8) (size 9 to 14) (size 15 to 20)
#    0.000    3.250    0.000    1.500    0.000    4.250 
#    0.000    1.250    2.750    3.000    0.000    7.000 
#    0.000    0.000    0.000    0.000    0.000    0.000 
#
# Total GULP energy -356420.406287 kJ/mol
# GULP energy per Si atom -5569.068848 kJ/mol
# Density = 1.913687 g / cm^3
# Si number density = 19.180525 Si / 1000 Ang^3
#
#
#
# Elastic Constant Matrix: (Units=GPa)
#
#
# Indices 1 2 3 4 5 6 
#
# 1 19.5107 5.0974 5.4388 0.0000 0.0000 0.0000
# 2 5.0974 115.2103 41.4826 0.0002 0.0000 -0.0001
# 3 5.4388 41.4826 73.9036 0.0001 0.0000 -0.0001
# 4 0.0000 0.0002 0.0001 17.9263 0.0000 -0.0002
# 5 0.0000 0.0000 0.0000 0.0000 11.1846 0.0001
# 6 0.0000 -0.0001 -0.0001 -0.0002 0.0001 33.2319
#
#
#
# Elastic Compliance Matrix: (Units=1/GPa)
#
#
# Indices 1 2 3 4 5 6 
#
# 1 0.052452 -0.001167 -0.003205 0.000000 0.000000 0.000000
# 2 -0.001167 0.010904 -0.006035 0.000000 0.000000 0.000000
# 3 -0.003205 -0.006035 0.017154 0.000000 0.000000 0.000000
# 4 0.000000 0.000000 0.000000 0.055784 0.000000 0.000000
# 5 0.000000 0.000000 0.000000 0.000000 0.089409 0.000000
# 6 0.000000 0.000000 0.000000 0.000000 0.000000 0.030092
#
#
# Mechanical properties :
#
#
# Convention : Reuss Voigt Hill
#
# Bulk Modulus (GPa) = 16.75116 34.74027 25.74571
# Shear Modulus (GPa) = 16.86297 22.90895 19.88596
#
# Velocity S-wave (km/s) = 2.96830 3.45974 3.22340
# Velocity P-wave (km/s) = 4.52770 5.84049 5.22549
#
# Compressibility (1/GPa) = 0.05969737
#
# Stress axis : x y z
#
# Youngs Moduli (GPa) = 19.06501 91.70708 58.29410
#
# Poissons Ratio (x) = 0.10699 0.18685
# Poissons Ratio (y) = 0.02224 0.35179
# Poissons Ratio (z) = 0.06111 0.55343
#
# Static dielectric constant tensor:
#      x y z
#    x 1.698380 0.000000 0.000000 
#    y 0.000000 1.665660 0.000000 
#    z 0.000000 0.000000 1.689290 
# 
# From -- ./inp_files/45624.got.cif
#   From: 2010.05.17/outbox.cif.g08.bks.cpg/sg74_23_cif.got.tgz:45624.got - 2010.06.03 17:57:02.
