data_PCOD9540784
_publ_section_title
;
Structure prediction by ZEFSAII (Michael W. Deem and Ramdas Pophale) SiO2 
 PCOD9540784
Probable space group: I M M A
;
_chemical_formula_sum "Si O2"
_cell_formula_units_Z 64
_cell_length_a 18.752461
_cell_length_b 18.729986
_cell_length_c 8.405368
_cell_angle_alpha 90.000000
_cell_angle_beta 90.000000
_cell_angle_gamma 90.000000
_cell_volume 2952.245409
_symmetry_space_group_name_H-M "I M M A"
_symmetry_group_IT_number 74
_symmetry_cell_setting 'orthorhombic'
loop_
_space_group_symop_operation_xyz
x,y,z
-x,1/2-y,z
x,-y,-z
-x,1/2+y,-z
-x,-y,-z
x,1/2+y,-z
-x,y,z
x,1/2-y,z
1/2+x,1/2+y,1/2+z
1/2-x,-y,1/2+z
1/2+x,1/2-y,1/2-z
1/2-x,y,1/2-z
1/2-x,1/2-y,1/2-z
1/2+x,y,1/2-z
1/2-x,1/2+y,1/2+z
1/2+x,-y,1/2+z
loop_
_atom_site_type_symbol
_atom_site_label
_atom_site_fract_x
_atom_site_fract_y
_atom_site_fract_z
Si Si1 0.792477 0.331628 0.081964
Si Si2 0.674109 0.917635 0.062465
Si Si3 0.079331 0.625931 0.714410
Si Si4 0.919386 0.968284 0.166822
O O1 0.786804 0.250000 0.029786
O O2 0.750000 0.340373 0.250000
O O3 0.873212 0.347839 0.137022
O O4 0.751528 0.382795 0.960342
O O5 0.865397 0.921204 0.268273
O O6 0.623294 0.869198 0.948829
O O7 0.680548 0.000000 0.000000
O O8 0.072513 0.540727 0.732400
O O9 0.000000 0.656838 0.710173
O O10 0.000000 0.938297 0.143055
O O11 0.892554 0.000000 0.000000
#
# Coordination Sequence:
#
# PCOD9540784 Si02
#       4
#    16  16  16  16
#     4   9  18  32  50  77 115 154 193 241 296 357
#     4   9  17  31  53  79 109 146 190 240 297 357
#     4   9  17  30  50  77 107 142 187 237 289 346
#     4   9  17  30  51  79 106 133 174 233 295 350
#
# _framework density 21.678415000000001
#
# number of rings (size 3 to 8) (size 9 to 14) (size 15 to 20)
#    0.000    3.000    0.000    0.750    0.000    4.500 
#    0.000    3.750    0.000    5.250    0.000    3.500 
#    0.000    1.000    0.000    0.000    0.000    0.000 
#
# Total GULP energy -178270.908332 kJ/mol
# GULP energy per Si atom -5570.965885 kJ/mol
# Density = 2.162907 g / cm^3
# Si number density = 21.678415 Si / 1000 Ang^3
#
#
#
# Elastic Constant Matrix: (Units=GPa)
#
#
# Indices 1 2 3 4 5 6 
#
# 1 173.9477 43.2011 82.5501 0.0000 0.0000 0.0000
# 2 43.2011 48.3029 23.1630 0.0000 0.0000 0.0000
# 3 82.5501 23.1630 116.5554 0.0000 0.0000 0.0000
# 4 0.0000 0.0000 0.0000 17.4121 0.0000 0.0000
# 5 0.0000 0.0000 0.0000 0.0000 26.6305 0.0000
# 6 0.0000 0.0000 0.0000 0.0000 0.0000 2.9425
#
#
#
# Elastic Compliance Matrix: (Units=1/GPa)
#
#
# Indices 1 2 3 4 5 6 
#
# 1 0.010096 -0.006191 -0.005920 0.000000 0.000000 0.000000
# 2 -0.006191 0.026679 -0.000918 0.000000 0.000000 0.000000
# 3 -0.005920 -0.000918 0.012955 0.000000 0.000000 0.000000
# 4 0.000000 0.000000 0.000000 0.057431 0.000000 0.000000
# 5 0.000000 0.000000 0.000000 0.000000 0.037551 0.000000
# 6 0.000000 0.000000 0.000000 0.000000 0.000000 0.339844
#
#
# Mechanical properties :
#
#
# Convention : Reuss Voigt Hill
#
# Bulk Modulus (GPa) = 42.24103 70.73714 56.48908
# Shear Modulus (GPa) = 9.64312 22.05649 15.84980
#
# Velocity S-wave (km/s) = 2.11138 3.19319 2.70688
# Velocity P-wave (km/s) = 5.04693 6.80414 5.99032
#
# Compressibility (1/GPa) = 0.02367367
#
# Stress axis : x y z
#
# Youngs Moduli (GPa) = 99.05101 37.48212 77.19132
#
# Poissons Ratio (x) = 0.23204 0.45698
# Poissons Ratio (y) = 0.61318 0.07082
# Poissons Ratio (z) = 0.58639 0.03439
#
# Static dielectric constant tensor:
#      x y z
#    x 1.866070 0.000000 0.000000 
#    y 0.000000 1.775910 0.000000 
#    z 0.000000 0.000000 1.829040 
# 
# From -- ./inp_files/21743.got.cif
#   From: 2010.05.17/outbox.cif.g08.bks.cpg/sg74_11_cif.got.tgz:21743.got - 2010.06.03 17:57:02.
