data_PCOD9540427
_publ_section_title
;
Structure prediction by ZEFSAII (Michael W. Deem and Ramdas Pophale) SiO2 
 PCOD9540427
Probable space group: I M M A
;
_chemical_formula_sum "Si O2"
_cell_formula_units_Z 112
_cell_length_a 24.128845
_cell_length_b 14.965939
_cell_length_c 16.279608
_cell_angle_alpha 90.000000
_cell_angle_beta 90.000000
_cell_angle_gamma 90.000000
_cell_volume 5878.742633
_symmetry_space_group_name_H-M "I M M A"
_symmetry_group_IT_number 74
_symmetry_cell_setting 'orthorhombic'
loop_
_space_group_symop_operation_xyz
x,y,z
-x,1/2-y,z
x,-y,-z
-x,1/2+y,-z
-x,-y,-z
x,1/2+y,-z
-x,y,z
x,1/2-y,z
1/2+x,1/2+y,1/2+z
1/2-x,-y,1/2+z
1/2+x,1/2-y,1/2-z
1/2-x,y,1/2-z
1/2-x,1/2-y,1/2-z
1/2+x,y,1/2-z
1/2-x,1/2+y,1/2+z
1/2+x,-y,1/2+z
loop_
_atom_site_type_symbol
_atom_site_label
_atom_site_fract_x
_atom_site_fract_y
_atom_site_fract_z
Si Si1 0.059947 0.598611 0.960065
Si Si2 0.205945 0.847471 0.822690
Si Si3 0.742300 0.393101 0.001237
Si Si4 0.566053 0.494277 0.121070
Si Si5 0.386156 0.354082 0.994794
Si Si6 0.353088 0.151234 0.589923
Si Si7 0.391936 0.482424 0.305130
O O1 0.070118 0.577693 0.865064
O O2 0.000000 0.641037 0.974684
O O3 0.058904 0.500000 0.000000
O O4 0.110780 0.645299 0.005847
O O5 0.177700 0.750000 0.825596
O O6 0.250000 0.845497 0.750000
O O7 0.164433 0.926592 0.802662
O O8 0.235862 0.862927 0.909633
O O9 0.680593 0.357369 0.986813
O O10 0.789461 0.365487 0.935933
O O11 0.739276 0.500000 0.000000
O O12 0.500000 0.487099 0.109963
O O13 0.587554 0.584983 0.077295
O O14 0.582020 0.495546 0.216409
O O15 0.595473 0.410065 0.075799
O O16 0.403615 0.250000 0.995874
O O17 0.359076 0.250000 0.625287
O O18 0.377163 0.075432 0.649613
#
# Coordination Sequence:
#
# PCOD9540427 Si02
#       7
#    16  16  16  16  16  16  16
#     4   9  18  35  56  81 117 163 208 248 290 344
#     4  11  23  37  59  90 124 161 203 254 313 372
#     4  12  20  40  64  93 129 167 210 258 316 376
#     4  11  25  44  67  95 125 162 210 265 321 386
#     4  11  24  44  69  95 123 161 208 263 327 394
#     4  11  22  37  59  91 130 174 214 250 301 368
#     4  11  22  38  60  89 125 163 208 258 311 366
#
# _framework density 19.051693
#
# number of rings (size 3 to 8) (size 9 to 14) (size 15 to 20)
#    0.000    1.143    4.286    3.857    0.000    4.286 
#    0.000    0.000    0.000    4.714    0.000    0.000 
#    0.000    0.000    0.000    0.000    0.000    0.000 
#
# Total GULP energy -312675.330847 kJ/mol
# GULP energy per Si atom -5583.488051 kJ/mol
# Density = 1.900833 g / cm^3
# Si number density = 19.051693 Si / 1000 Ang^3
#
#
#
# Elastic Constant Matrix: (Units=GPa)
#
#
# Indices 1 2 3 4 5 6 
#
# 1 122.1970 31.7936 29.0508 0.0000 0.0000 0.0000
# 2 31.7936 148.4923 26.0699 0.0000 0.0000 0.0000
# 3 29.0508 26.0699 100.0745 0.0000 0.0000 0.0000
# 4 0.0000 0.0000 0.0000 8.5420 0.0000 0.0000
# 5 0.0000 0.0000 0.0000 0.0000 24.9929 0.0000
# 6 0.0000 0.0000 0.0000 0.0000 0.0000 -8.0763
#
#
#
# Elastic Compliance Matrix: (Units=1/GPa)
#
#
# Indices 1 2 3 4 5 6 
#
# 1 0.009122 -0.001560 -0.002242 0.000000 0.000000 0.000000
# 2 -0.001560 0.007324 -0.001455 0.000000 0.000000 0.000000
# 3 -0.002242 -0.001455 0.011022 0.000000 0.000000 0.000000
# 4 0.000000 0.000000 0.000000 0.117069 0.000000 0.000000
# 5 0.000000 0.000000 0.000000 0.000000 0.040011 0.000000
# 6 0.000000 0.000000 0.000000 0.000000 0.000000 -0.123819
#
#
# Mechanical properties :
#
#
# Convention : Reuss Voigt Hill
#
# Bulk Modulus (GPa) = 58.97858 60.51026 59.74442
# Shear Modulus (GPa) = 65.02392 24.01501 44.51947
#
# Velocity S-wave (km/s) = 5.84845 3.55423 4.83926
# Velocity P-wave (km/s) = 8.75386 6.97664 7.91529
#
# Compressibility (1/GPa) = 0.01695531
#
# Stress axis : x y z
#
# Youngs Moduli (GPa) = 109.62210 136.54218 90.72423
#
# Poissons Ratio (x) = 0.21295 0.20339
# Poissons Ratio (y) = 0.17096 0.13202
# Poissons Ratio (z) = 0.24575 0.19869
#
# Static dielectric constant tensor:
#      x y z
#    x 1.054520 0.000000 0.000000 
#    y 0.000000 1.672010 0.000000 
#    z 0.000000 0.000000 1.659150 
# 
# From -- ./inp_files/36544.got.cif
#   From: 2010.05.17/outbox.cif.g08.bks.cpg/sg74_19_cif.got.tgz:36544.got - 2010.06.03 17:57:02.
