data_PCOD9540353
_publ_section_title
;
Structure prediction by ZEFSAII (Michael W. Deem and Ramdas Pophale) SiO2 
 PCOD9540353
Probable space group: I M M A
;
_chemical_formula_sum "Si O2"
_cell_formula_units_Z 68
_cell_length_a 19.990150
_cell_length_b 14.176953
_cell_length_c 12.954620
_cell_angle_alpha 90.000000
_cell_angle_beta 90.000000
_cell_angle_gamma 90.000000
_cell_volume 3671.331756
_symmetry_space_group_name_H-M "I M M A"
_symmetry_group_IT_number 74
_symmetry_cell_setting 'orthorhombic'
loop_
_space_group_symop_operation_xyz
x,y,z
-x,1/2-y,z
x,-y,-z
-x,1/2+y,-z
-x,-y,-z
x,1/2+y,-z
-x,y,z
x,1/2-y,z
1/2+x,1/2+y,1/2+z
1/2-x,-y,1/2+z
1/2+x,1/2-y,1/2-z
1/2-x,y,1/2-z
1/2-x,1/2-y,1/2-z
1/2+x,y,1/2-z
1/2-x,1/2+y,1/2+z
1/2+x,-y,1/2+z
loop_
_atom_site_type_symbol
_atom_site_label
_atom_site_fract_x
_atom_site_fract_y
_atom_site_fract_z
Si Si1 0.805935 0.959016 0.664080
Si Si2 0.610579 0.389318 0.508621
Si Si3 0.579091 0.855869 0.728107
Si Si4 0.266382 0.140357 0.951730
Si Si5 0.000000 0.750000 0.087424
O O1 0.750000 0.938365 0.750000
O O2 0.877036 0.931071 0.711001
O O3 0.791073 0.895456 0.563715
O O4 0.798289 0.067521 0.629479
O O5 0.596358 0.500000 0.500000
O O6 0.601925 0.354277 0.390974
O O7 0.686189 0.374594 0.547138
O O8 0.558469 0.332095 0.576973
O O9 0.500000 0.874755 0.730550
O O10 0.590647 0.750000 0.770466
O O11 0.281535 0.250000 0.934477
#
# Coordination Sequence:
#
# PCOD9540353 Si02
#       5
#    16  16  16  16   4
#     4  11  22  38  61  88 118 162 204 250 303 355
#     4  12  20  36  57  87 125 157 197 246 305 374
#     4  11  21  37  60  90 120 154 201 254 307 357
#     4  11  22  38  59  86 121 158 205 253 302 355
#     4  12  22  32  56  88 126 170 182 242 318 382
#
# _framework density 18.521889999999999
#
# number of rings (size 3 to 8) (size 9 to 14) (size 15 to 20)
#    0.000    0.706    8.235    1.059    0.000    1.412 
#    0.000    2.353    0.000    2.118    0.000    0.000 
#    0.000    0.000    0.000    0.000    0.000    0.000 
#
# Total GULP energy -189422.900036 kJ/mol
# GULP energy per Si atom -5571.261766 kJ/mol
# Density = 1.847973 g / cm^3
# Si number density = 18.521890 Si / 1000 Ang^3
#
#
#
# Elastic Constant Matrix: (Units=GPa)
#
#
# Indices 1 2 3 4 5 6 
#
# 1 81.4542 65.2273 31.2782 0.0000 0.0000 0.0000
# 2 65.2273 165.6863 12.9480 0.0000 0.0000 0.0000
# 3 31.2782 12.9480 40.0352 0.0000 0.0000 0.0000
# 4 0.0000 0.0000 0.0000 14.4885 0.0000 0.0000
# 5 0.0000 0.0000 0.0000 0.0000 -15.1492 0.0000
# 6 0.0000 0.0000 0.0000 0.0000 0.0000 38.4509
#
#
#
# Elastic Compliance Matrix: (Units=1/GPa)
#
#
# Indices 1 2 3 4 5 6 
#
# 1 0.026171 -0.008931 -0.017558 0.000000 0.000000 0.000000
# 2 -0.008931 0.009240 0.003989 0.000000 0.000000 0.000000
# 3 -0.017558 0.003989 0.037405 0.000000 0.000000 0.000000
# 4 0.000000 0.000000 0.000000 0.069020 0.000000 0.000000
# 5 0.000000 0.000000 0.000000 0.000000 -0.066010 0.000000
# 6 0.000000 0.000000 0.000000 0.000000 0.000000 0.026007
#
#
# Mechanical properties :
#
#
# Convention : Reuss Voigt Hill
#
# Bulk Modulus (GPa) = 35.95006 56.23140 46.09073
# Shear Modulus (GPa) = 32.02989 19.40619 25.71804
#
# Velocity S-wave (km/s) = 4.16300 3.24040 3.73033
# Velocity P-wave (km/s) = 6.52373 6.66525 6.59487
#
# Compressibility (1/GPa) = 0.02781636
#
# Stress axis : x y z
#
# Youngs Moduli (GPa) = 38.21090 108.22982 26.73423
#
# Poissons Ratio (x) = 0.96657 0.46940
# Poissons Ratio (y) = 0.34125 -0.10664
# Poissons Ratio (z) = 0.67090 -0.43173
#
# Static dielectric constant tensor:
#      x y z
#    x 1.614910 0.000000 0.000000 
#    y 0.000000 1.719720 0.000000 
#    z 0.000000 0.000000 1.643740 
# 
# From -- ./inp_files/20216.got.cif
#   From: 2010.05.17/outbox.cif.g08.bks.cpg/sg74_11_cif.got.tgz:20216.got - 2010.06.03 17:57:02.
