data_PCOD9540523
_publ_section_title
;
Structure prediction by ZEFSAII (Michael W. Deem and Ramdas Pophale) SiO2 
 PCOD9540523
Probable space group: I M M A
;
_chemical_formula_sum "Si O2"
_cell_formula_units_Z 60
_cell_length_a 14.715521
_cell_length_b 22.059729
_cell_length_c 7.025512
_cell_angle_alpha 90.000000
_cell_angle_beta 90.000000
_cell_angle_gamma 90.000000
_cell_volume 2280.624553
_symmetry_space_group_name_H-M "I M M A"
_symmetry_group_IT_number 74
_symmetry_cell_setting 'orthorhombic'
loop_
_space_group_symop_operation_xyz
x,y,z
-x,1/2-y,z
x,-y,-z
-x,1/2+y,-z
-x,-y,-z
x,1/2+y,-z
-x,y,z
x,1/2-y,z
1/2+x,1/2+y,1/2+z
1/2-x,-y,1/2+z
1/2+x,1/2-y,1/2-z
1/2-x,y,1/2-z
1/2-x,1/2-y,1/2-z
1/2+x,y,1/2-z
1/2-x,1/2+y,1/2+z
1/2+x,-y,1/2+z
loop_
_atom_site_type_symbol
_atom_site_label
_atom_site_fract_x
_atom_site_fract_y
_atom_site_fract_z
Si Si1 0.500000 0.412685 0.134795
Si Si2 0.642970 0.510688 0.278197
Si Si3 0.250000 0.250000 0.750000
Si Si4 0.395330 0.151203 0.726456
Si Si5 0.644443 0.322377 0.280849
O O1 0.579371 0.464444 0.168882
O O2 0.579014 0.359734 0.147085
O O3 0.621651 0.500000 0.500000
O O4 0.750000 0.499959 0.250000
O O5 0.620411 0.580497 0.231085
O O6 0.322811 0.197025 0.812254
O O7 0.500000 0.165481 0.766049
O O8 0.381666 0.159901 0.497833
O O9 0.634041 0.250000 0.267018
O O10 0.750000 0.337059 0.250000
#
# Coordination Sequence:
#
# PCOD9540523 Si02
#       5
#     8  16   4  16  16
#     4  12  22  40  65  97 125 175 213 275 314 413
#     4  12  24  41  68  96 131 171 224 274 331 400
#     4  12  26  40  70  94 134 164 226 278 320 378
#     4  12  23  43  71  95 126 178 223 266 329 403
#     4  11  23  39  68  98 127 167 222 271 326 392
#
# _framework density 26.308582999999999
#
# number of rings (size 3 to 8) (size 9 to 14) (size 15 to 20)
#    0.000    0.267    8.000    2.000    0.000    0.000 
#    0.000    0.667   11.733    0.000    0.000    0.000 
#    0.000    0.000    0.000    0.000    0.000    0.000 
#
# Total GULP energy -167105.184106 kJ/mol
# GULP energy per Si atom -5570.172804 kJ/mol
# Density = 2.624870 g / cm^3
# Si number density = 26.308583 Si / 1000 Ang^3
#
#
#
# Elastic Constant Matrix: (Units=GPa)
#
#
# Indices 1 2 3 4 5 6 
#
# 1 298.3040 145.1821 18.2327 0.0000 0.0000 0.0000
# 2 145.1821 232.0671 26.7217 0.0000 0.0000 0.0000
# 3 18.2327 26.7217 108.7398 0.0000 0.0000 0.0000
# 4 0.0000 0.0000 0.0000 36.0190 0.0000 0.0000
# 5 0.0000 0.0000 0.0000 0.0000 26.4845 0.0000
# 6 0.0000 0.0000 0.0000 0.0000 0.0000 80.0969
#
#
#
# Elastic Compliance Matrix: (Units=1/GPa)
#
#
# Indices 1 2 3 4 5 6 
#
# 1 0.004820 -0.003008 -0.000069 0.000000 0.000000 0.000000
# 2 -0.003008 0.006311 -0.001047 0.000000 0.000000 0.000000
# 3 -0.000069 -0.001047 0.009465 0.000000 0.000000 0.000000
# 4 0.000000 0.000000 0.000000 0.027763 0.000000 0.000000
# 5 0.000000 0.000000 0.000000 0.000000 0.037758 0.000000
# 6 0.000000 0.000000 0.000000 0.000000 0.000000 0.012485
#
#
# Mechanical properties :
#
#
# Convention : Reuss Voigt Hill
#
# Bulk Modulus (GPa) = 80.97314 113.26488 97.11901
# Shear Modulus (GPa) = 45.05892 58.45172 51.75532
#
# Velocity S-wave (km/s) = 4.14298 4.71868 4.44017
# Velocity P-wave (km/s) = 7.33012 8.53428 7.95502
#
# Compressibility (1/GPa) = 0.01234977
#
# Stress axis : x y z
#
# Youngs Moduli (GPa) = 207.45572 158.44831 105.65184
#
# Poissons Ratio (x) = 0.47656 0.00730
# Poissons Ratio (y) = 0.62395 0.11058
# Poissons Ratio (z) = 0.01434 0.16583
#
# Static dielectric constant tensor:
#      x y z
#    x 1.966470 0.000000 0.000000 
#    y 0.000000 1.957710 0.000000 
#    z 0.000000 0.000000 2.264060 
# 
# From -- ./inp_files/18447.got.cif
#   From: 2010.05.17/outbox.cif.g08.bks.cpg/sg74_10_cif.got.tgz:18447.got - 2010.06.03 17:57:02.
