data_PCOD9540507
_publ_section_title
;
Structure prediction by ZEFSAII (Michael W. Deem and Ramdas Pophale) SiO2 
 PCOD9540507
Probable space group: I M M A
;
_chemical_formula_sum "Si O2"
_cell_formula_units_Z 72
_cell_length_a 8.931119
_cell_length_b 18.049385
_cell_length_c 23.915967
_cell_angle_alpha 90.000000
_cell_angle_beta 90.000000
_cell_angle_gamma 90.000000
_cell_volume 3855.282707
_symmetry_space_group_name_H-M "I M M A"
_symmetry_group_IT_number 74
_symmetry_cell_setting 'orthorhombic'
loop_
_space_group_symop_operation_xyz
x,y,z
-x,1/2-y,z
x,-y,-z
-x,1/2+y,-z
-x,-y,-z
x,1/2+y,-z
-x,y,z
x,1/2-y,z
1/2+x,1/2+y,1/2+z
1/2-x,-y,1/2+z
1/2+x,1/2-y,1/2-z
1/2-x,y,1/2-z
1/2-x,1/2-y,1/2-z
1/2+x,y,1/2-z
1/2-x,1/2+y,1/2+z
1/2+x,-y,1/2+z
loop_
_atom_site_type_symbol
_atom_site_label
_atom_site_fract_x
_atom_site_fract_y
_atom_site_fract_z
Si Si1 0.821608 0.964430 0.189333
Si Si2 0.321973 0.161618 0.011024
Si Si3 0.678200 0.886587 0.621753
Si Si4 0.820717 0.750000 0.688342
Si Si5 0.180221 0.836148 0.382528
O O1 0.750000 0.975013 0.250000
O O2 0.757653 0.891283 0.160056
O O3 0.000000 0.959081 0.194876
O O4 0.786938 0.035105 0.150381
O O5 0.500000 0.148645 0.017771
O O6 0.297490 0.250000 0.019277
O O7 0.231774 0.117970 0.057811
O O8 0.280780 0.144617 0.946934
O O9 0.500000 0.873829 0.625257
O O10 0.763241 0.821913 0.655124
O O11 0.750000 0.750000 0.750000
O O12 0.000000 0.750000 0.691407
O O13 0.220146 0.750000 0.373181
O O14 0.000000 0.841812 0.377814
#
# Coordination Sequence:
#
# PCOD9540507 Si02
#       5
#    16  16  16   8  16
#     4  11  25  42  60  85 118 156 200 248 299 354
#     4   9  18  35  60  90 121 156 198 240 288 349
#     4  11  23  38  58  87 121 158 199 244 294 348
#     4  12  24  38  58  84 116 158 205 246 291 350
#     4   9  20  40  65  91 119 153 196 243 295 357
#
# _framework density 18.675674000000001
#
# number of rings (size 3 to 8) (size 9 to 14) (size 15 to 20)
#    0.000    1.778    1.111    4.333    0.000    8.000 
#    0.000    6.667    0.000    0.000    0.000    0.000 
#    0.000    0.000    0.000    0.000    0.000    0.000 
#
# Total GULP energy -201204.516953 kJ/mol
# GULP energy per Si atom -5589.014360 kJ/mol
# Density = 1.863317 g / cm^3
# Si number density = 18.675674 Si / 1000 Ang^3
#
#
#
# Elastic Constant Matrix: (Units=GPa)
#
#
# Indices 1 2 3 4 5 6 
#
# 1 54.1795 44.3440 30.3318 0.0000 0.0000 0.0000
# 2 44.3440 79.8929 29.6961 0.0000 0.0000 0.0000
# 3 30.3318 29.6961 50.3076 0.0000 0.0000 0.0000
# 4 0.0000 0.0000 0.0000 20.3053 0.0000 0.0000
# 5 0.0000 0.0000 0.0000 0.0000 38.6914 0.0000
# 6 0.0000 0.0000 0.0000 0.0000 0.0000 18.8758
#
#
#
# Elastic Compliance Matrix: (Units=1/GPa)
#
#
# Indices 1 2 3 4 5 6 
#
# 1 0.040515 -0.017176 -0.014288 0.000000 0.000000 0.000000
# 2 -0.017176 0.023317 -0.003408 0.000000 0.000000 0.000000
# 3 -0.014288 -0.003408 0.030504 0.000000 0.000000 0.000000
# 4 0.000000 0.000000 0.000000 0.049248 0.000000 0.000000
# 5 0.000000 0.000000 0.000000 0.000000 0.025846 0.000000
# 6 0.000000 0.000000 0.000000 0.000000 0.000000 0.052978
#
#
# Mechanical properties :
#
#
# Convention : Reuss Voigt Hill
#
# Bulk Modulus (GPa) = 40.66545 43.68042 42.17294
# Shear Modulus (GPa) = 16.64730 20.90837 18.77783
#
# Velocity S-wave (km/s) = 2.98885 3.34960 3.17436
# Velocity P-wave (km/s) = 5.80800 6.19673 6.00551
#
# Compressibility (1/GPa) = 0.02459090
#
# Stress axis : x y z
#
# Youngs Moduli (GPa) = 24.68247 42.88704 32.78260
#
# Poissons Ratio (x) = 0.73665 0.46841
# Poissons Ratio (y) = 0.42396 0.11171
# Poissons Ratio (z) = 0.35267 0.14615
#
# Static dielectric constant tensor:
#      x y z
#    x 1.621730 0.000000 0.000000 
#    y 0.000000 1.623600 0.000000 
#    z 0.000000 0.000000 1.631660 
# 
# From -- ./inp_files/56672.got.cif
#   From: 2010.05.17/outbox.cif.g08.bks.cpg/sg74_29_cif.got.tgz:56672.got - 2010.06.03 17:57:02.
