data_PCOD9540911
_publ_section_title
;
Structure prediction by ZEFSAII (Michael W. Deem and Ramdas Pophale) SiO2 
 PCOD9540911
Probable space group: I M M A
;
_chemical_formula_sum "Si O2"
_cell_formula_units_Z 52
_cell_length_a 27.000000
_cell_length_b 9.000000
_cell_length_c 21.000000
_cell_angle_alpha 90.000000
_cell_angle_beta 90.000000
_cell_angle_gamma 90.000000
_cell_volume 5103.000000
_symmetry_space_group_name_H-M "I M M A"
_symmetry_group_IT_number 74
_symmetry_cell_setting 'orthorhombic'
loop_
_space_group_symop_operation_xyz
x,y,z
-x,1/2-y,z
x,-y,-z
-x,1/2+y,-z
-x,-y,-z
x,1/2+y,-z
-x,y,z
x,1/2-y,z
1/2+x,1/2+y,1/2+z
1/2-x,-y,1/2+z
1/2+x,1/2-y,1/2-z
1/2-x,y,1/2-z
1/2-x,1/2-y,1/2-z
1/2+x,y,1/2-z
1/2-x,1/2+y,1/2+z
1/2+x,-y,1/2+z
loop_
_atom_site_type_symbol
_atom_site_label
_atom_site_fract_x
_atom_site_fract_y
_atom_site_fract_z
Si Si1 0.128028 0.080687 0.436861
Si Si2 0.608188 0.076664 0.608428
Si Si3 0.056730 0.430185 0.334419
Si Si4 0.711205 0.929701 0.435453
Si Si5 0.000000 0.931315 0.070145
Si Si6 0.281972 0.077994 0.164039
Si Si7 0.857159 0.077607 0.746814
O O1 0.119333 0.250000 0.453976
O O2 0.078019 0.023912 0.403329
O O3 0.171311 0.074509 0.384797
O O4 0.142859 0.000000 0.500000
O O5 0.604675 0.250000 0.589727
O O6 0.654282 0.013261 0.569110
O O7 0.552188 0.018190 0.601678
O O8 0.628998 0.071188 0.679582
O O9 0.060657 0.250000 0.330009
O O10 0.095339 0.503365 0.286490
O O11 0.000000 0.472347 0.323871
O O12 0.712840 0.750000 0.437707
O O13 0.732963 0.000000 0.500000
O O14 0.740293 0.986201 0.373149
O O15 0.000000 0.750000 0.069476
O O16 0.000000 0.000000 0.000000
O O17 0.267656 0.250000 0.173363
O O18 0.306872 0.006620 0.226672
O O19 0.852200 0.250000 0.727272
#
# Coordination Sequence:
#
# PCOD9540911 Si02
#       7
#    16  16  16  16   8  16  16
#     4   9  18  31  48  70 100 137 179 223 275 332
#     4   9  21  38  60  87 119 155 191 239 299 352
#     4   9  19  35  51  71 106 147 183 233 294 348
#     4  11  22  38  59  87 118 153 194 239 290 350
#     4  10  20  40  64  88 120 158 197 242 295 354
#     4  10  21  38  57  81 114 154 190 235 292 346
#     4  10  20  36  58  85 112 147 194 242 289 347
#
# _framework density 10.190084000000001
#
# number of rings (size 3 to 8) (size 9 to 14) (size 15 to 20)
#    0.000    2.308    0.000    3.231    1.077    5.538 
#    0.000    8.462    0.000    0.000    0.000    0.000 
#    0.000    0.000    0.000    0.000    0.000    0.000 
#
# Total GULP energy -289913.706515 kJ/mol
# GULP energy per Si atom -5575.263587 kJ/mol
# Density = 1.016689 g / cm^3
# Si number density = 10.190084 Si / 1000 Ang^3
#
#
#
# Elastic Constant Matrix: (Units=GPa)
#
#
# Indices 1 2 3 4 5 6 
#
# 1 136.6047 36.3819 31.7235 0.0000 0.0000 0.0000
# 2 36.3819 44.2812 10.2360 0.0000 0.0000 0.0000
# 3 31.7235 10.2360 34.1141 0.0000 0.0000 0.0000
# 4 0.0000 0.0000 0.0000 23.2704 0.0000 0.0000
# 5 0.0000 0.0000 0.0000 0.0000 22.6985 0.0000
# 6 0.0000 0.0000 0.0000 0.0000 0.0000 31.9481
#
#
#
# Elastic Compliance Matrix: (Units=1/GPa)
#
#
# Indices 1 2 3 4 5 6 
#
# 1 0.011162 -0.007276 -0.008196 0.000000 0.000000 0.000000
# 2 -0.007276 0.029009 -0.001938 0.000000 0.000000 0.000000
# 3 -0.008196 -0.001938 0.037517 0.000000 0.000000 0.000000
# 4 0.000000 0.000000 0.000000 0.042973 0.000000 0.000000
# 5 0.000000 0.000000 0.000000 0.000000 0.044056 0.000000
# 6 0.000000 0.000000 0.000000 0.000000 0.000000 0.031301
#
#
# Mechanical properties :
#
#
# Convention : Reuss Voigt Hill
#
# Bulk Modulus (GPa) = 23.32811 41.29808 32.31310
# Shear Modulus (GPa) = 20.39764 24.69397 22.54581
#
# Velocity S-wave (km/s) = 3.16707 3.48468 3.32966
# Velocity P-wave (km/s) = 4.98448 6.04140 5.53821
#
# Compressibility (1/GPa) = 0.04286673
#
# Stress axis : x y z
#
# Youngs Moduli (GPa) = 89.59303 34.47227 26.65465
#
# Poissons Ratio (x) = 0.25081 0.21847
# Poissons Ratio (y) = 0.65186 0.05166
# Poissons Ratio (z) = 0.73433 0.06681
#
# Static dielectric constant tensor:
#      x y z
#    x 1.743510 0.000000 0.000000 
#    y 0.000000 1.698390 0.000000 
#    z 0.000000 0.000000 1.815010 
# 
# From -- ./inp_files/55266.got.cif
#   From: 2010.05.17/outbox.ucp.g08.bks.cvg/sg74_28_cif.got.tgz:55266.got - 2010.06.11 16:37:44.
