data_PCOD9540411
_publ_section_title
;
Structure prediction by ZEFSAII (Michael W. Deem and Ramdas Pophale) SiO2 
 PCOD9540411
Probable space group: I M M A
;
_chemical_formula_sum "Si O2"
_cell_formula_units_Z 112
_cell_length_a 28.414310
_cell_length_b 15.700118
_cell_length_c 14.407623
_cell_angle_alpha 90.000000
_cell_angle_beta 90.000000
_cell_angle_gamma 90.000000
_cell_volume 6427.356168
_symmetry_space_group_name_H-M "I M M A"
_symmetry_group_IT_number 74
_symmetry_cell_setting 'orthorhombic'
loop_
_space_group_symop_operation_xyz
x,y,z
-x,1/2-y,z
x,-y,-z
-x,1/2+y,-z
-x,-y,-z
x,1/2+y,-z
-x,y,z
x,1/2-y,z
1/2+x,1/2+y,1/2+z
1/2-x,-y,1/2+z
1/2+x,1/2-y,1/2-z
1/2-x,y,1/2-z
1/2-x,1/2-y,1/2-z
1/2+x,y,1/2-z
1/2-x,1/2+y,1/2+z
1/2+x,-y,1/2+z
loop_
_atom_site_type_symbol
_atom_site_label
_atom_site_fract_x
_atom_site_fract_y
_atom_site_fract_z
Si Si1 0.777805 0.349825 0.009566
Si Si2 0.826765 0.602003 0.498737
Si Si3 0.126059 0.153466 0.681320
Si Si4 0.609956 0.655815 0.837577
Si Si5 0.698646 0.109343 0.288047
Si Si6 0.444784 0.008205 0.887469
Si Si7 0.203487 0.591495 0.194740
O O1 0.780524 0.250000 0.988282
O O2 0.789676 0.399921 0.915519
O O3 0.724467 0.375021 0.034558
O O4 0.805986 0.369346 0.103209
O O5 0.831866 0.500000 0.500000
O O6 0.833917 0.637266 0.396365
O O7 0.865448 0.645967 0.562261
O O8 0.108722 0.250000 0.677169
O O9 0.086300 0.085176 0.653950
O O10 0.155144 0.136458 0.774871
O O11 0.589404 0.750000 0.826393
O O12 0.653806 0.643891 0.767584
O O13 0.573472 0.578011 0.837932
O O14 0.750000 0.139915 0.250000
O O15 0.698547 0.007285 0.277140
O O16 0.500000 0.021545 0.871772
O O17 0.438223 0.000000 0.000000
O O18 0.250000 0.624362 0.250000
#
# Coordination Sequence:
#
# PCOD9540411 Si02
#       7
#    16  16  16  16  16  16  16
#     4  12  24  34  50  84 119 157 204 240 272 326
#     4  12  20  34  52  78 118 160 197 231 277 335
#     4  12  22  37  59  84 114 156 197 234 285 342
#     4  12  22  37  59  84 114 156 197 234 285 342
#     4  11  22  36  55  80 116 161 198 232 279 334
#     4  11  24  42  61  85 117 149 189 244 297 347
#     4  11  22  36  55  80 116 161 198 232 279 334
#
# _framework density 17.425515999999998
#
# number of rings (size 3 to 8) (size 9 to 14) (size 15 to 20)
#    0.000    0.429    7.143    3.429    0.000    1.714 
#    0.000    1.429    0.000    0.000    0.000    2.000 
#    0.000    3.429    0.000    0.000    0.000    0.000 
#
# Total GULP energy -312783.898506 kJ/mol
# GULP energy per Si atom -5585.426759 kJ/mol
# Density = 1.738585 g / cm^3
# Si number density = 17.425516 Si / 1000 Ang^3
#
#
#
# Elastic Constant Matrix: (Units=GPa)
#
#
# Indices 1 2 3 4 5 6 
#
# 1 83.5799 35.2714 17.7816 0.0000 0.0000 0.0000
# 2 35.2714 122.2885 -0.9644 0.0000 0.0000 0.0000
# 3 17.7816 -0.9644 64.8920 0.0000 0.0000 0.0000
# 4 0.0000 0.0000 0.0000 12.7776 0.0000 0.0000
# 5 0.0000 0.0000 0.0000 0.0000 22.8853 0.0000
# 6 0.0000 0.0000 0.0000 0.0000 0.0000 3.9758
#
#
#
# Elastic Compliance Matrix: (Units=1/GPa)
#
#
# Indices 1 2 3 4 5 6 
#
# 1 0.014624 -0.004250 -0.004070 0.000000 0.000000 0.000000
# 2 -0.004250 0.009414 0.001305 0.000000 0.000000 0.000000
# 3 -0.004070 0.001305 0.016545 0.000000 0.000000 0.000000
# 4 0.000000 0.000000 0.000000 0.078262 0.000000 0.000000
# 5 0.000000 0.000000 0.000000 0.000000 0.043696 0.000000
# 6 0.000000 0.000000 0.000000 0.000000 0.000000 0.251524
#
#
# Mechanical properties :
#
#
# Convention : Reuss Voigt Hill
#
# Bulk Modulus (GPa) = 37.66402 41.65976 39.66189
# Shear Modulus (GPa) = 11.44304 22.50585 16.97445
#
# Velocity S-wave (km/s) = 2.56536 3.59771 3.12447
# Velocity P-wave (km/s) = 5.51688 6.42006 5.98553
#
# Compressibility (1/GPa) = 0.02655054
#
# Stress axis : x y z
#
# Youngs Moduli (GPa) = 68.37992 106.23008 60.44129
#
# Poissons Ratio (x) = 0.45149 0.24602
# Poissons Ratio (y) = 0.29062 -0.07885
# Poissons Ratio (z) = 0.27834 -0.13858
#
# Static dielectric constant tensor:
#      x y z
#    x 1.569860 0.000000 0.000000 
#    y 0.000000 1.630890 0.000000 
#    z 0.000000 0.000000 1.618310 
# 
# From -- ./inp_files/32934.got.cif
#   From: 2010.05.17/outbox.cif.g08.bks.cpg/sg74_17_cif.got.tgz:32934.got - 2010.06.03 17:57:02.
