data_PCOD9540696
_publ_section_title
;
Structure prediction by ZEFSAII (Michael W. Deem and Ramdas Pophale) SiO2 
 PCOD9540696
Probable space group: I M M A
;
_chemical_formula_sum "Si O2"
_cell_formula_units_Z 80
_cell_length_a 28.732763
_cell_length_b 14.593076
_cell_length_c 7.037838
_cell_angle_alpha 90.000000
_cell_angle_beta 90.000000
_cell_angle_gamma 90.000000
_cell_volume 2950.961210
_symmetry_space_group_name_H-M "I M M A"
_symmetry_group_IT_number 74
_symmetry_cell_setting 'orthorhombic'
loop_
_space_group_symop_operation_xyz
x,y,z
-x,1/2-y,z
x,-y,-z
-x,1/2+y,-z
-x,-y,-z
x,1/2+y,-z
-x,y,z
x,1/2-y,z
1/2+x,1/2+y,1/2+z
1/2-x,-y,1/2+z
1/2+x,1/2-y,1/2-z
1/2-x,y,1/2-z
1/2-x,1/2-y,1/2-z
1/2+x,y,1/2-z
1/2-x,1/2+y,1/2+z
1/2+x,-y,1/2+z
loop_
_atom_site_type_symbol
_atom_site_label
_atom_site_fract_x
_atom_site_fract_y
_atom_site_fract_z
Si Si1 0.000000 0.102466 0.087576
Si Si2 0.901702 0.896895 0.925983
Si Si3 0.803393 0.110567 0.039306
Si Si4 0.296494 0.608807 0.987959
Si Si5 0.399049 0.358364 0.986170
Si Si6 0.500000 0.360870 0.962444
O O1 0.951334 0.147137 0.029650
O O2 0.000000 0.106642 0.317150
O O3 0.000000 0.000000 0.000000
O O4 0.854778 0.853604 0.006926
O O5 0.897854 0.901645 0.697122
O O6 0.903092 0.000000 0.000000
O O7 0.754672 0.143779 0.952826
O O8 0.800120 0.130729 0.264508
O O9 0.804956 0.000000 0.000000
O O10 0.345946 0.629606 0.085663
O O11 0.292836 0.500000 0.000000
O O12 0.404288 0.250000 0.013472
O O13 0.448087 0.390877 0.891413
O O14 0.500000 0.250000 0.952555
#
# Coordination Sequence:
#
# PCOD9540696 Si02
#       6
#     8  16  16  16  16   8
#     4   8  12  18  32  53  74  97 130 166 196 228
#     4   8  13  22  36  55  78 104 132 164 200 241
#     4   8  14  25  40  58  80 109 139 166 204 255
#     4   9  16  26  40  60  81 107 141 174 206 243
#     4   9  16  26  40  60  83 108 137 173 211 249
#     4   8  14  24  37  53  80 111 133 158 208 262
#
# _framework density 27.109811000000001
#
# number of rings (size 3 to 8) (size 9 to 14) (size 15 to 20)
#    0.000    3.600    0.000    0.000    0.000    0.000 
#    0.000    8.500    0.000    0.000    0.000   33.600 
#    0.000    1.600    0.000  143.000    0.000    6.400 
#
# Total GULP energy -222987.629427 kJ/mol
# GULP energy per Si atom -5574.690736 kJ/mol
# Density = 2.704811 g / cm^3
# Si number density = 27.109811 Si / 1000 Ang^3
#
#
#
# Elastic Constant Matrix: (Units=GPa)
#
#
# Indices 1 2 3 4 5 6 
#
# 1 445.9545 16.6738 16.1333 0.0000 0.0000 0.0000
# 2 16.6738 97.0131 -30.4796 0.0000 0.0000 0.0000
# 3 16.1333 -30.4796 97.6960 0.0000 0.0000 0.0000
# 4 0.0000 0.0000 0.0000 173.3604 0.0000 0.0000
# 5 0.0000 0.0000 0.0000 0.0000 -2.1162 0.0000
# 6 0.0000 0.0000 0.0000 0.0000 0.0000 61.9508
#
#
#
# Elastic Compliance Matrix: (Units=1/GPa)
#
#
# Indices 1 2 3 4 5 6 
#
# 1 0.002284 -0.000566 -0.000554 0.000000 0.000000 0.000000
# 2 -0.000566 0.011569 0.003703 0.000000 0.000000 0.000000
# 3 -0.000554 0.003703 0.011482 0.000000 0.000000 0.000000
# 4 0.000000 0.000000 0.000000 0.005768 0.000000 0.000000
# 5 0.000000 0.000000 0.000000 0.000000 -0.472537 0.000000
# 6 0.000000 0.000000 0.000000 0.000000 0.000000 0.016142
#
#
# Mechanical properties :
#
#
# Convention : Reuss Voigt Hill
#
# Bulk Modulus (GPa) = 32.78738 71.70206 52.24472
# Shear Modulus (GPa) = -11.89654 89.19474 38.64910
#
# Velocity S-wave (km/s) = -2.09709 5.74219 3.77987
# Velocity P-wave (km/s) = 2.50136 8.39463 6.19381
#
# Compressibility (1/GPa) = 0.03049954
#
# Stress axis : x y z
#
# Youngs Moduli (GPa) = 437.90538 86.44099 87.08905
#
# Poissons Ratio (x) = 0.04897 0.04823
# Poissons Ratio (y) = 0.24807 -0.32247
# Poissons Ratio (z) = 0.24253 -0.32007
#
# Static dielectric constant tensor:
#      x y z
#    x 2.250170 0.000000 0.000000 
#    y 0.000000 1.975470 0.000000 
#    z 0.000000 0.000000 1.999200 
# 
# From -- ./inp_files/16052.got.cif
#   From: 2010.05.17/outbox.cif.g08.bks.cpg/sg74_9_cif.got.tgz:16052.got - 2010.06.03 17:57:02.
