data_PCOD9540027
_publ_section_title
;
Structure prediction by ZEFSAII (Michael W. Deem and Ramdas Pophale) SiO2 
 PCOD9540027
Probable space group: I M M A
;
_chemical_formula_sum "Si O2"
_cell_formula_units_Z 60
_cell_length_a 8.141624
_cell_length_b 20.258158
_cell_length_c 16.654885
_cell_angle_alpha 90.000000
_cell_angle_beta 90.000000
_cell_angle_gamma 90.000000
_cell_volume 2746.961888
_symmetry_space_group_name_H-M "I M M A"
_symmetry_group_IT_number 74
_symmetry_cell_setting 'orthorhombic'
loop_
_space_group_symop_operation_xyz
x,y,z
-x,1/2-y,z
x,-y,-z
-x,1/2+y,-z
-x,-y,-z
x,1/2+y,-z
-x,y,z
x,1/2-y,z
1/2+x,1/2+y,1/2+z
1/2-x,-y,1/2+z
1/2+x,1/2-y,1/2-z
1/2-x,y,1/2-z
1/2-x,1/2-y,1/2-z
1/2+x,y,1/2-z
1/2-x,1/2+y,1/2+z
1/2+x,-y,1/2+z
loop_
_atom_site_type_symbol
_atom_site_label
_atom_site_fract_x
_atom_site_fract_y
_atom_site_fract_z
Si Si1 0.194769 0.866113 0.368093
Si Si2 0.304517 0.371161 0.451022
Si Si3 0.802403 0.250000 0.158341
Si Si4 0.303415 0.484724 0.162779
Si Si5 0.250000 0.750000 0.250000
O O1 0.221583 0.861518 0.463138
O O2 0.277910 0.808161 0.318155
O O3 0.000000 0.859328 0.350427
O O4 0.252782 0.939314 0.343898
O O5 0.500000 0.365211 0.462183
O O6 0.246234 0.314750 0.389464
O O7 0.265971 0.440705 0.409023
O O8 0.750000 0.250000 0.250000
O O9 0.000000 0.250000 0.156683
O O10 0.500000 0.484115 0.157314
O O11 0.250000 0.458388 0.250000
#
# Coordination Sequence:
#
# PCOD9540027 Si02
#       5
#    16  16   8  16   4
#     4  11  25  43  66  96 131 173 221 274 332 396
#     4  11  24  42  66  96 131 173 220 273 332 396
#     4  10  23  41  61  91 126 163 210 264 325 387
#     4  11  23  42  66  97 134 173 221 274 330 395
#     4  12  24  46  70  98 132 178 224 276 336 404
#
# _framework density 21.842312
#
# number of rings (size 3 to 8) (size 9 to 14) (size 15 to 20)
#    0.000    1.067    1.333    4.400    0.000   11.733 
#    0.000    0.000    0.000    0.000    0.000    0.000 
#    0.000    0.000    0.000    0.000    0.000    0.000 
#
# Total GULP energy -167397.560531 kJ/mol
# GULP energy per Si atom -5579.918684 kJ/mol
# Density = 2.179260 g / cm^3
# Si number density = 21.842312 Si / 1000 Ang^3
#
#
#
# Elastic Constant Matrix: (Units=GPa)
#
#
# Indices 1 2 3 4 5 6 
#
# 1 25.0626 8.9332 -6.4180 0.0000 0.0000 0.0000
# 2 8.9332 150.0057 58.0660 0.0000 0.0000 0.0000
# 3 -6.4180 58.0660 169.9384 0.0000 0.0000 0.0000
# 4 0.0000 0.0000 0.0000 57.4565 0.0000 0.0000
# 5 0.0000 0.0000 0.0000 0.0000 18.6175 0.0000
# 6 0.0000 0.0000 0.0000 0.0000 0.0000 41.9957
#
#
#
# Elastic Compliance Matrix: (Units=1/GPa)
#
#
# Indices 1 2 3 4 5 6 
#
# 1 0.041895 -0.003581 0.002806 0.000000 0.000000 0.000000
# 2 -0.003581 0.007989 -0.002865 0.000000 0.000000 0.000000
# 3 0.002806 -0.002865 0.006969 0.000000 0.000000 0.000000
# 4 0.000000 0.000000 0.000000 0.017404 0.000000 0.000000
# 5 0.000000 0.000000 0.000000 0.000000 0.053713 0.000000
# 6 0.000000 0.000000 0.000000 0.000000 0.000000 0.023812
#
#
# Mechanical properties :
#
#
# Convention : Reuss Voigt Hill
#
# Bulk Modulus (GPa) = 20.17237 51.79657 35.98447
# Shear Modulus (GPa) = 28.47595 42.57565 35.52580
#
# Velocity S-wave (km/s) = 3.61460 4.41980 4.03732
# Velocity P-wave (km/s) = 5.16488 7.05772 6.18415
#
# Compressibility (1/GPa) = 0.04957276
#
# Stress axis : x y z
#
# Youngs Moduli (GPa) = 23.86922 125.17768 143.48550
#
# Poissons Ratio (x) = 0.44827 -0.40260
# Poissons Ratio (y) = 0.08548 0.41107
# Poissons Ratio (z) = -0.06697 0.35862
#
# Static dielectric constant tensor:
#      x y z
#    x 1.799820 0.000000 0.000000 
#    y 0.000000 1.794250 0.000000 
#    z 0.000000 0.000000 1.745560 
# 
# From -- ./inp_files/38896.got.cif
#   From: 2010.05.17/outbox.cif.g08.bks.cpg/sg74_20_cif.got.tgz:38896.got - 2010.06.03 17:57:02.
