data_PCOD9540657
_publ_section_title
;
Structure prediction by ZEFSAII (Michael W. Deem and Ramdas Pophale) SiO2 
 PCOD9540657
Probable space group: I M M A
;
_chemical_formula_sum "Si O2"
_cell_formula_units_Z 112
_cell_length_a 14.123471
_cell_length_b 14.608285
_cell_length_c 29.836878
_cell_angle_alpha 90.000000
_cell_angle_beta 90.000000
_cell_angle_gamma 90.000000
_cell_volume 6155.935406
_symmetry_space_group_name_H-M "I M M A"
_symmetry_group_IT_number 74
_symmetry_cell_setting 'orthorhombic'
loop_
_space_group_symop_operation_xyz
x,y,z
-x,1/2-y,z
x,-y,-z
-x,1/2+y,-z
-x,-y,-z
x,1/2+y,-z
-x,y,z
x,1/2-y,z
1/2+x,1/2+y,1/2+z
1/2-x,-y,1/2+z
1/2+x,1/2-y,1/2-z
1/2-x,y,1/2-z
1/2-x,1/2-y,1/2-z
1/2+x,y,1/2-z
1/2-x,1/2+y,1/2+z
1/2+x,-y,1/2+z
loop_
_atom_site_type_symbol
_atom_site_label
_atom_site_fract_x
_atom_site_fract_y
_atom_site_fract_z
Si Si1 0.610920 0.549356 0.830437
Si Si2 0.385189 0.645604 0.479194
Si Si3 0.789729 0.146298 0.146754
Si Si4 0.884894 0.847889 0.328597
Si Si5 0.615250 0.347936 0.723163
Si Si6 0.888190 0.548354 0.777598
Si Si7 0.113999 0.466079 0.069550
O O1 0.500000 0.561783 0.840063
O O2 0.678872 0.624075 0.851431
O O3 0.642459 0.447466 0.846263
O O4 0.621375 0.551619 0.776145
O O5 0.500000 0.648865 0.477241
O O6 0.350690 0.750000 0.474415
O O7 0.362393 0.599539 0.527176
O O8 0.355729 0.569766 0.442563
O O9 0.809631 0.250000 0.133808
O O10 0.831077 0.124166 0.195894
O O11 0.840074 0.076880 0.113068
O O12 0.854141 0.750000 0.348500
O O13 0.858985 0.846462 0.275802
O O14 0.000000 0.848635 0.329311
O O15 0.500000 0.349376 0.721265
O O16 0.645866 0.250000 0.703161
O O17 0.645685 0.447177 0.706148
O O18 0.000000 0.557075 0.787469
O O19 0.000000 0.466128 0.074107
#
# Coordination Sequence:
#
# PCOD9540657 Si02
#       7
#    16  16  16  16  16  16  16
#     4   9  19  35  50  64  88 125 170 214 247 280
#     4   8  14  29  55  81 105 134 159 179 218 285
#     4  12  24  34  46  66  93 125 164 210 253 289
#     4   7  10  21  44  66  79  99 138 189 241 285
#     4   7  10  20  40  62  82 107 140 179 227 283
#     4   9  18  32  48  66  91 125 164 205 248 291
#     4   9  18  32  51  78 108 132 156 188 229 284
#
# _framework density 18.193822999999998
#
# number of rings (size 3 to 8) (size 9 to 14) (size 15 to 20)
#    0.000    3.286    0.000    4.714    0.000    3.143 
#    0.000    3.571    0.000    6.857    0.000    2.000 
#    0.000    1.143    0.000    0.000    0.000    0.000 
#
# Total GULP energy -311886.370569 kJ/mol
# GULP energy per Si atom -5569.399474 kJ/mol
# Density = 1.815241 g / cm^3
# Si number density = 18.193823 Si / 1000 Ang^3
#
#
#
# Elastic Constant Matrix: (Units=GPa)
#
#
# Indices 1 2 3 4 5 6 
#
# 1 47.3724 15.6301 10.2693 0.0000 0.0000 0.0000
# 2 15.6301 104.4156 19.5986 0.0000 0.0000 0.0000
# 3 10.2693 19.5986 16.8368 0.0000 0.0000 0.0000
# 4 0.0000 0.0000 0.0000 12.9842 0.0000 0.0000
# 5 0.0000 0.0000 0.0000 0.0000 6.9168 0.0000
# 6 0.0000 0.0000 0.0000 0.0000 0.0000 11.8994
#
#
#
# Elastic Compliance Matrix: (Units=1/GPa)
#
#
# Indices 1 2 3 4 5 6 
#
# 1 0.024424 -0.001100 -0.013616 0.000000 0.000000 0.000000
# 2 -0.001100 0.012304 -0.013651 0.000000 0.000000 0.000000
# 3 -0.013616 -0.013651 0.083589 0.000000 0.000000 0.000000
# 4 0.000000 0.000000 0.000000 0.077016 0.000000 0.000000
# 5 0.000000 0.000000 0.000000 0.000000 0.144575 0.000000
# 6 0.000000 0.000000 0.000000 0.000000 0.000000 0.084038
#
#
# Mechanical properties :
#
#
# Convention : Reuss Voigt Hill
#
# Bulk Modulus (GPa) = 15.72775 28.84675 22.28725
# Shear Modulus (GPa) = 9.92306 14.56854 12.24580
#
# Velocity S-wave (km/s) = 2.33793 2.83281 2.59718
# Velocity P-wave (km/s) = 3.99390 5.15649 4.61197
#
# Compressibility (1/GPa) = 0.06358188
#
# Stress axis : x y z
#
# Youngs Moduli (GPa) = 40.94319 81.27328 11.96324
#
# Poissons Ratio (x) = 0.08943 0.16289
# Poissons Ratio (y) = 0.04505 0.16331
# Poissons Ratio (z) = 0.55749 1.10949
#
# Static dielectric constant tensor:
#      x y z
#    x 1.652000 0.000000 0.000000 
#    y 0.000000 1.690050 0.000000 
#    z 0.000000 0.000000 1.612510 
# 
# From -- ./inp_files/72657.got.cif
#   From: 2010.05.17/outbox.cif.g08.bks.cpg/sg74_37_cif.got.tgz:72657.got - 2010.06.03 17:57:02.
