data_PCOD9540889
_publ_section_title
;
Structure prediction by ZEFSAII (Michael W. Deem and Ramdas Pophale) SiO2 
 PCOD9540889
Probable space group: I M M A
;
_chemical_formula_sum "Si O2"
_cell_formula_units_Z 60
_cell_length_a 9.000000
_cell_length_b 27.000000
_cell_length_c 27.000000
_cell_angle_alpha 90.000000
_cell_angle_beta 90.000000
_cell_angle_gamma 90.000000
_cell_volume 6561.000000
_symmetry_space_group_name_H-M "I M M A"
_symmetry_group_IT_number 74
_symmetry_cell_setting 'orthorhombic'
loop_
_space_group_symop_operation_xyz
x,y,z
-x,1/2-y,z
x,-y,-z
-x,1/2+y,-z
-x,-y,-z
x,1/2+y,-z
-x,y,z
x,1/2-y,z
1/2+x,1/2+y,1/2+z
1/2-x,-y,1/2+z
1/2+x,1/2-y,1/2-z
1/2-x,y,1/2-z
1/2-x,1/2-y,1/2-z
1/2+x,y,1/2-z
1/2-x,1/2+y,1/2+z
1/2+x,-y,1/2+z
loop_
_atom_site_type_symbol
_atom_site_label
_atom_site_fract_x
_atom_site_fract_y
_atom_site_fract_z
Si Si1 0.173663 0.840641 0.521592
Si Si2 0.676025 0.967057 0.200385
Si Si3 0.828378 0.445602 0.521184
Si Si4 0.821492 0.196058 0.922814
Si Si5 0.825182 0.593137 0.115773
Si Si6 0.823106 0.580144 0.699955
Si Si7 0.821899 0.832427 0.632032
Si Si8 0.325134 0.750000 0.697243
O O1 0.183904 0.900389 0.517445
O O2 0.263266 0.815962 0.477528
O O3 0.222745 0.824712 0.575631
O O4 0.000000 0.827988 0.515389
O O5 0.500000 0.967369 0.204802
O O6 0.750000 0.947639 0.250000
O O7 0.730019 0.934802 0.155626
O O8 0.728040 0.023837 0.193517
O O9 0.804357 0.500000 0.500000
O O10 0.712792 0.432353 0.563665
O O11 0.000000 0.443825 0.540208
O O12 0.769236 0.250000 0.906713
O O13 0.776069 0.150118 0.889126
O O14 0.000000 0.195748 0.924061
O O15 0.000000 0.590475 0.126339
O O16 0.750000 0.600826 0.750000
O O17 0.792719 0.612528 0.651871
O O18 0.000000 0.580247 0.707567
O O19 0.732981 0.796821 0.667303
O O20 0.000000 0.823556 0.635894
O O21 0.500000 0.750000 0.702225
O O22 0.250000 0.750000 0.750000
#
# Coordination Sequence:
#
# PCOD9540889 Si02
#       8
#    16  16  16  16  16  16  16   8
#     4   9  19  33  51  78 107 137 174 216 261 309
#     4  10  20  35  57  83 113 144 178 216 261 315
#     4   9  18  32  53  77 107 144 180 215 258 313
#     4   9  19  36  56  76 105 141 177 220 266 315
#     4  10  20  34  53  79 110 142 179 220 267 318
#     4   9  19  34  54  76 102 135 172 215 262 314
#     4  10  21  37  56  78 105 135 173 221 271 318
#     4  12  26  42  58  76 100 134 178 226 281 330
#
# _framework density 9.1449470000000002
#
# number of rings (size 3 to 8) (size 9 to 14) (size 15 to 20)
#    0.000    2.400    0.000    1.800    2.800    3.733 
#    0.000    0.000    0.000    0.400    0.000    0.000 
#    0.000    0.000    0.000    0.000    0.000    0.000 
#
# Total GULP energy -334470.026390 kJ/mol
# GULP energy per Si atom -5574.500440 kJ/mol
# Density = 0.912413 g / cm^3
# Si number density = 9.144947 Si / 1000 Ang^3
#
#
#
# Elastic Constant Matrix: (Units=GPa)
#
#
# Indices 1 2 3 4 5 6 
#
# 1 10.0881 15.7765 19.3267 0.0000 0.0000 0.0000
# 2 15.7765 52.4748 8.9811 0.0000 0.0000 0.0000
# 3 19.3267 8.9811 48.9632 0.0000 0.0000 0.0000
# 4 0.0000 0.0000 0.0000 8.0271 0.0000 0.0000
# 5 0.0000 0.0000 0.0000 0.0000 25.1962 0.0000
# 6 0.0000 0.0000 0.0000 0.0000 0.0000 4.9071
#
#
#
# Elastic Compliance Matrix: (Units=1/GPa)
#
#
# Indices 1 2 3 4 5 6 
#
# 1 -2.065841 0.497140 0.724239 -0.000001 0.000000 0.000000
# 2 0.497140 -0.099961 -0.177895 0.000000 0.000000 0.000000
# 3 0.724239 -0.177895 -0.232817 0.000000 0.000000 0.000000
# 4 -0.000001 0.000000 0.000000 0.124579 0.000000 0.000000
# 5 0.000000 0.000000 0.000000 0.000000 0.039689 0.000000
# 6 0.000000 0.000000 0.000000 0.000000 0.000000 0.203786
#
#
# Mechanical properties :
#
#
# Convention : Reuss Voigt Hill
#
# Bulk Modulus (GPa) = -3.20871 22.18831 9.48980
# Shear Modulus (GPa) = -1.18444 12.12218 5.46887
#
# Velocity S-wave (km/s) = -0.80560 2.57724 1.73107
# Velocity P-wave (km/s) = 1.61972 4.58411 3.03237
#
# Compressibility (1/GPa) = -0.31165139
#
# Stress axis : x y z
#
# Youngs Moduli (GPa) = -0.48406 -10.00389 -4.29521
#
# Poissons Ratio (x) = 4.97333 3.11076
# Poissons Ratio (y) = 0.24065 -0.76410
# Poissons Ratio (z) = 0.35058 -1.77965
#
# Static dielectric constant tensor:
#      x y z
#    x 1.611010 0.000000 0.000000 
#    y 0.000000 1.407140 0.000000 
#    z 0.000000 0.000000 1.322270 
# 
# From -- ./inp_files/65074.got.cif
#   From: 2010.05.17/outbox.ucp.g08.bks.cvg/sg74_33_cif.got.tgz:65074.got - 2010.06.11 16:37:44.
