data_PCOD9540583
_publ_section_title
;
Structure prediction by ZEFSAII (Michael W. Deem and Ramdas Pophale) SiO2 
 PCOD9540583
Probable space group: I M M A
;
_chemical_formula_sum "Si O2"
_cell_formula_units_Z 52
_cell_length_a 21.005258
_cell_length_b 16.164809
_cell_length_c 7.333336
_cell_angle_alpha 90.000000
_cell_angle_beta 90.000000
_cell_angle_gamma 90.000000
_cell_volume 2490.004785
_symmetry_space_group_name_H-M "I M M A"
_symmetry_group_IT_number 74
_symmetry_cell_setting 'orthorhombic'
loop_
_space_group_symop_operation_xyz
x,y,z
-x,1/2-y,z
x,-y,-z
-x,1/2+y,-z
-x,-y,-z
x,1/2+y,-z
-x,y,z
x,1/2-y,z
1/2+x,1/2+y,1/2+z
1/2-x,-y,1/2+z
1/2+x,1/2-y,1/2-z
1/2-x,y,1/2-z
1/2-x,1/2-y,1/2-z
1/2+x,y,1/2-z
1/2-x,1/2+y,1/2+z
1/2+x,-y,1/2+z
loop_
_atom_site_type_symbol
_atom_site_label
_atom_site_fract_x
_atom_site_fract_y
_atom_site_fract_z
Si Si1 0.650793 0.894686 0.809742
Si Si2 0.676627 0.085921 0.772574
Si Si3 0.750000 0.750000 0.750000
Si Si4 0.070206 0.150781 0.002821
O O1 0.695710 0.822747 0.735273
O O2 0.584576 0.882177 0.705930
O O3 0.675919 0.986330 0.764417
O O4 0.651977 0.887775 0.028020
O O5 0.750000 0.114905 0.750000
O O6 0.627626 0.118922 0.623318
O O7 0.070983 0.250000 0.002027
O O8 0.000000 0.123145 0.940690
#
# Coordination Sequence:
#
# PCOD9540583 Si02
#       4
#    16  16   4  16
#     4  11  24  41  68  99 136 181 223 279 345 403
#     4  11  25  42  68 106 139 175 227 287 343 410
#     4  12  20  40  68  96 134 174 218 282 336 396
#     4  11  26  46  69  99 138 185 232 281 342 414
#
# _framework density 20.883493000000001
#
# number of rings (size 3 to 8) (size 9 to 14) (size 15 to 20)
#    0.000    0.923    3.077    2.769    6.462    4.308 
#    0.000    6.154    0.000    0.000    0.000    0.000 
#    0.000    0.000    0.000    0.000    0.000    0.000 
#
# Total GULP energy -144801.155870 kJ/mol
# GULP energy per Si atom -5569.275226 kJ/mol
# Density = 2.083596 g / cm^3
# Si number density = 20.883493 Si / 1000 Ang^3
#
#
#
# Elastic Constant Matrix: (Units=GPa)
#
#
# Indices 1 2 3 4 5 6 
#
# 1 139.6863 42.7716 84.7424 0.0000 0.0000 0.0000
# 2 42.7716 38.3634 36.1050 0.0000 0.0000 0.0000
# 3 84.7424 36.1050 121.2026 0.0000 0.0000 0.0000
# 4 0.0000 0.0000 0.0000 15.1467 0.0000 0.0000
# 5 0.0000 0.0000 0.0000 0.0000 40.9502 0.0000
# 6 0.0000 0.0000 0.0000 0.0000 0.0000 5.3703
#
#
#
# Elastic Compliance Matrix: (Units=1/GPa)
#
#
# Indices 1 2 3 4 5 6 
#
# 1 0.014428 -0.009160 -0.007359 0.000000 0.000000 0.000000
# 2 -0.009160 0.042037 -0.006118 0.000000 0.000000 0.000000
# 3 -0.007359 -0.006118 0.015218 0.000000 0.000000 0.000000
# 4 0.000000 0.000000 0.000000 0.066021 0.000000 0.000000
# 5 0.000000 0.000000 0.000000 0.000000 0.024420 0.000000
# 6 0.000000 0.000000 0.000000 0.000000 0.000000 0.186210
#
#
# Mechanical properties :
#
#
# Convention : Reuss Voigt Hill
#
# Bulk Modulus (GPa) = 37.86546 69.61003 53.73774
# Shear Modulus (GPa) = 12.42508 21.33565 16.88037
#
# Velocity S-wave (km/s) = 2.44185 3.19980 2.84617
# Velocity P-wave (km/s) = 5.11090 6.85978 6.04888
#
# Compressibility (1/GPa) = 0.02640929
#
# Stress axis : x y z
#
# Youngs Moduli (GPa) = 69.30827 23.78870 65.70953
#
# Poissons Ratio (x) = 0.21791 0.48357
# Poissons Ratio (y) = 0.63487 0.40199
# Poissons Ratio (z) = 0.51006 0.14553
#
# Static dielectric constant tensor:
#      x y z
#    x 1.773020 0.000000 0.000000 
#    y 0.000000 1.716460 0.000000 
#    z 0.000000 0.000000 1.803720 
# 
# From -- ./inp_files/11580.got.cif
#   From: 2010.05.17/outbox.cif.g08.bks.cpg/sg74_6_cif.got.tgz:11580.got - 2010.06.03 17:57:02.
