data_PCOD9540948
_publ_section_title
;
Structure prediction by ZEFSAII (Michael W. Deem and Ramdas Pophale) SiO2 
 PCOD9540948
Probable space group: I M M A
;
_chemical_formula_sum "Si O2"
_cell_formula_units_Z 34
_cell_length_a 21.000000
_cell_length_b 15.000000
_cell_length_c 12.000000
_cell_angle_alpha 90.000000
_cell_angle_beta 90.000000
_cell_angle_gamma 90.000000
_cell_volume 3780.000000
_symmetry_space_group_name_H-M "I M M A"
_symmetry_group_IT_number 74
_symmetry_cell_setting 'orthorhombic'
loop_
_space_group_symop_operation_xyz
x,y,z
-x,1/2-y,z
x,-y,-z
-x,1/2+y,-z
-x,-y,-z
x,1/2+y,-z
-x,y,z
x,1/2-y,z
1/2+x,1/2+y,1/2+z
1/2-x,-y,1/2+z
1/2+x,1/2-y,1/2-z
1/2-x,y,1/2-z
1/2-x,1/2-y,1/2-z
1/2+x,y,1/2-z
1/2-x,1/2+y,1/2+z
1/2+x,-y,1/2+z
loop_
_atom_site_type_symbol
_atom_site_label
_atom_site_fract_x
_atom_site_fract_y
_atom_site_fract_z
Si Si1 0.319669 0.500000 0.000000
Si Si2 0.500000 0.750000 0.468609
Si Si3 0.676233 0.250000 0.714725
Si Si4 0.000000 0.550677 0.122593
Si Si5 0.630153 0.052953 0.758582
Si Si6 0.283633 0.091245 0.359657
Si Si7 0.360555 0.250000 0.457288
O O1 0.359947 0.524164 0.111415
O O2 0.269791 0.425996 0.046447
O O3 0.500000 0.842635 0.400656
O O4 0.436144 0.750000 0.539545
O O5 0.750000 0.250000 0.750000
O O6 0.643961 0.158439 0.755440
O O7 0.666515 0.250000 0.582304
O O8 0.063031 0.531982 0.197373
O O9 0.000000 0.500000 0.000000
O O10 0.682918 0.999985 0.683976
O O11 0.250000 0.129292 0.250000
O O12 0.335334 0.160531 0.401013
#
# Coordination Sequence:
#
# PCOD9540948 Si02
#       7
#     8   4   8   8  16  16   8
#     4  10  22  39  60  87 122 156 206 254 304 374
#     4  12  24  38  54  92 120 154 210 250 286 370
#     4  12  22  35  61  91 118 157 199 251 311 358
#     4  12  24  41  63  87 126 167 206 258 302 359
#     4  11  23  40  61  90 124 163 207 250 306 363
#     4  10  21  37  58  88 121 157 201 256 308 365
#     4  12  21  36  59  84 125 159 199 251 305 357
#
# _framework density 8.9947090000000003
#
# number of rings (size 3 to 8) (size 9 to 14) (size 15 to 20)
#    0.000    0.941    2.353    6.706    1.647    0.471 
#    0.000    1.176    0.000    0.000    0.000    0.000 
#    0.000    0.000    0.000    0.000    0.000    0.000 
#
# Total GULP energy -189763.045988 kJ/mol
# GULP energy per Si atom -5581.266058 kJ/mol
# Density = 0.897424 g / cm^3
# Si number density = 8.994709 Si / 1000 Ang^3
#
#
#
# Elastic Constant Matrix: (Units=GPa)
#
#
# Indices 1 2 3 4 5 6 
#
# 1 151.4873 32.5971 70.9617 0.0000 0.0000 0.0000
# 2 32.5971 97.3851 44.7930 0.0000 0.0000 0.0000
# 3 70.9617 44.7930 131.7703 0.0000 0.0000 0.0000
# 4 0.0000 0.0000 0.0000 27.5785 0.0000 0.0000
# 5 0.0000 0.0000 0.0000 0.0000 42.6481 0.0000
# 6 0.0000 0.0000 0.0000 0.0000 0.0000 29.2709
#
#
#
# Elastic Compliance Matrix: (Units=1/GPa)
#
#
# Indices 1 2 3 4 5 6 
#
# 1 0.008897 -0.000918 -0.004479 0.000000 0.000000 0.000000
# 2 -0.000918 0.012266 -0.003675 0.000000 0.000000 0.000000
# 3 -0.004479 -0.003675 0.011251 0.000000 0.000000 0.000000
# 4 0.000000 0.000000 0.000000 0.036260 0.000000 0.000000
# 5 0.000000 0.000000 0.000000 0.000000 0.023448 0.000000
# 6 0.000000 0.000000 0.000000 0.000000 0.000000 0.034164
#
#
# Mechanical properties :
#
#
# Convention : Reuss Voigt Hill
#
# Bulk Modulus (GPa) = 70.08289 75.26069 72.67179
# Shear Modulus (GPa) = 33.51512 35.38556 34.45034
#
# Velocity S-wave (km/s) = 4.32098 4.43992 4.38086
# Velocity P-wave (km/s) = 7.99606 8.25898 8.12858
#
# Compressibility (1/GPa) = 0.01426882
#
# Stress axis : x y z
#
# Youngs Moduli (GPa) = 112.39837 81.52446 88.88439
#
# Poissons Ratio (x) = 0.07482 0.39814
# Poissons Ratio (y) = 0.10315 0.32669
# Poissons Ratio (z) = 0.50346 0.29964
#
# Static dielectric constant tensor:
#      x y z
#    x 0.133500 0.000000 0.000000 
#    y 0.000000 1.629980 0.000000 
#    z 0.000000 0.000000 1.613180 
# 
# From -- ./inp_files/20290.got.cif
#   From: 2010.05.17/outbox.ucp.g08.bks.cvg/sg74_11_cif.got.tgz:20290.got - 2010.06.11 16:37:44.
