data_PCOD9540617
_publ_section_title
;
Structure prediction by ZEFSAII (Michael W. Deem and Ramdas Pophale) SiO2 
 PCOD9540617
Probable space group: I M M A
;
_chemical_formula_sum "Si O2"
_cell_formula_units_Z 48
_cell_length_a 17.146196
_cell_length_b 14.217843
_cell_length_c 9.177617
_cell_angle_alpha 90.000000
_cell_angle_beta 90.000000
_cell_angle_gamma 90.000000
_cell_volume 2237.337119
_symmetry_space_group_name_H-M "I M M A"
_symmetry_group_IT_number 74
_symmetry_cell_setting 'orthorhombic'
loop_
_space_group_symop_operation_xyz
x,y,z
-x,1/2-y,z
x,-y,-z
-x,1/2+y,-z
-x,-y,-z
x,1/2+y,-z
-x,y,z
x,1/2-y,z
1/2+x,1/2+y,1/2+z
1/2-x,-y,1/2+z
1/2+x,1/2-y,1/2-z
1/2-x,y,1/2-z
1/2-x,1/2-y,1/2-z
1/2+x,y,1/2-z
1/2-x,1/2+y,1/2+z
1/2+x,-y,1/2+z
loop_
_atom_site_type_symbol
_atom_site_label
_atom_site_fract_x
_atom_site_fract_y
_atom_site_fract_z
Si Si1 0.406836 0.750000 0.024703
Si Si2 0.911182 0.564471 0.858707
Si Si3 0.839120 0.250000 0.204471
Si Si4 0.320034 0.562611 0.137580
O O1 0.500000 0.750000 0.053750
O O2 0.364209 0.656979 0.087627
O O3 0.390401 0.750000 0.851633
O O4 0.859011 0.656067 0.881356
O O5 0.879698 0.505048 0.723381
O O6 0.000000 0.594471 0.832588
O O7 0.909061 0.500000 0.000000
O O8 0.750000 0.250000 0.250000
O O9 0.250000 0.582928 0.250000
O O10 0.291899 0.500000 0.000000
#
# Coordination Sequence:
#
# PCOD9540617 Si02
#       4
#     8  16   8  16
#     4  12  27  46  74 107 146 194 244 297 359 436
#     4  11  25  45  73 103 143 189 241 299 360 431
#     4  12  26  44  72 106 146 193 239 298 365 434
#     4  12  26  45  73 106 145 189 243 300 364 428
#
# _framework density 21.454077000000002
#
# number of rings (size 3 to 8) (size 9 to 14) (size 15 to 20)
#    0.000    0.333    3.333    5.000    4.667    2.667 
#    0.000    1.667    0.000    0.000    0.000    0.000 
#    0.000    0.000    0.000    0.000    0.000    0.000 
#
# Total GULP energy -134458.873500 kJ/mol
# GULP energy per Si atom -5602.453063 kJ/mol
# Density = 2.140525 g / cm^3
# Si number density = 21.454077 Si / 1000 Ang^3
#
#
#
# Elastic Constant Matrix: (Units=GPa)
#
#
# Indices 1 2 3 4 5 6 
#
# 1 156.2424 61.7421 30.7071 0.0000 0.0000 0.0000
# 2 61.7421 165.2256 31.4688 0.0000 0.0000 0.0000
# 3 30.7071 31.4688 91.3505 0.0000 0.0000 0.0000
# 4 0.0000 0.0000 0.0000 37.3543 0.0000 0.0000
# 5 0.0000 0.0000 0.0000 0.0000 34.1155 0.0000
# 6 0.0000 0.0000 0.0000 0.0000 0.0000 38.4668
#
#
#
# Elastic Compliance Matrix: (Units=1/GPa)
#
#
# Indices 1 2 3 4 5 6 
#
# 1 0.007754 -0.002570 -0.001721 0.000000 0.000000 0.000000
# 2 -0.002570 0.007329 -0.001661 0.000000 0.000000 0.000000
# 3 -0.001721 -0.001661 0.012098 0.000000 0.000000 0.000000
# 4 0.000000 0.000000 0.000000 0.026771 0.000000 0.000000
# 5 0.000000 0.000000 0.000000 0.000000 0.029312 0.000000
# 6 0.000000 0.000000 0.000000 0.000000 0.000000 0.025996
#
#
# Mechanical properties :
#
#
# Convention : Reuss Voigt Hill
#
# Bulk Modulus (GPa) = 65.45868 73.40603 69.43235
# Shear Modulus (GPa) = 39.60208 41.24736 40.42472
#
# Velocity S-wave (km/s) = 4.30106 4.38949 4.34550
# Velocity P-wave (km/s) = 7.43255 7.74467 7.59021
#
# Compressibility (1/GPa) = 0.01527681
#
# Stress axis : x y z
#
# Youngs Moduli (GPa) = 128.96433 136.44548 82.66104
#
# Poissons Ratio (x) = 0.35063 0.14228
# Poissons Ratio (y) = 0.33140 0.13729
# Poissons Ratio (z) = 0.22198 0.22662
#
# Static dielectric constant tensor:
#      x y z
#    x 1.768270 0.000000 0.000000 
#    y 0.000000 1.759430 0.000000 
#    z 0.000000 0.000000 1.751220 
# 
# From -- ./inp_files/8116.got.cif
#   From: 2010.05.17/outbox.cif.g08.bks.cpg/sg74_5_cif.got.tgz:8116.got - 2010.06.03 17:57:02.
