data_PCOD9540338
_publ_section_title
;
Structure prediction by ZEFSAII (Michael W. Deem and Ramdas Pophale) SiO2 
 PCOD9540338
Probable space group: I M M A
;
_chemical_formula_sum "Si O2"
_cell_formula_units_Z 80
_cell_length_a 9.820248
_cell_length_b 17.671667
_cell_length_c 27.004735
_cell_angle_alpha 90.000000
_cell_angle_beta 90.000000
_cell_angle_gamma 90.000000
_cell_volume 4686.405830
_symmetry_space_group_name_H-M "I M M A"
_symmetry_group_IT_number 74
_symmetry_cell_setting 'orthorhombic'
loop_
_space_group_symop_operation_xyz
x,y,z
-x,1/2-y,z
x,-y,-z
-x,1/2+y,-z
-x,-y,-z
x,1/2+y,-z
-x,y,z
x,1/2-y,z
1/2+x,1/2+y,1/2+z
1/2-x,-y,1/2+z
1/2+x,1/2-y,1/2-z
1/2-x,y,1/2-z
1/2-x,1/2-y,1/2-z
1/2+x,y,1/2-z
1/2-x,1/2+y,1/2+z
1/2+x,-y,1/2+z
loop_
_atom_site_type_symbol
_atom_site_label
_atom_site_fract_x
_atom_site_fract_y
_atom_site_fract_z
Si Si1 0.500000 0.161551 0.821595
Si Si2 0.500000 0.341971 0.702983
Si Si3 0.841535 0.662726 0.884636
Si Si4 0.248247 0.433080 0.846154
Si Si5 0.664939 0.092324 0.200638
Si Si6 0.837877 0.016367 0.054620
O O1 0.500000 0.250000 0.828033
O O2 0.500000 0.147139 0.762288
O O3 0.628883 0.124298 0.846420
O O4 0.500000 0.250000 0.693854
O O5 0.373041 0.386674 0.679542
O O6 0.832010 0.750000 0.899457
O O7 0.732149 0.643696 0.842250
O O8 0.816269 0.602949 0.928385
O O9 0.000000 0.649245 0.867462
O O10 0.295039 0.506377 0.814561
O O11 0.214657 0.464378 0.900613
O O12 0.500000 0.099429 0.205087
O O13 0.750000 0.110467 0.250000
O O14 0.000000 0.003750 0.053039
O O15 0.781696 0.000000 0.000000
#
# Coordination Sequence:
#
# PCOD9540338 Si02
#       6
#     8   8  16  16  16  16
#     4  11  22  36  53  78 121 159 186 227 286 336
#     4  11  22  36  55  82 115 157 196 233 278 332
#     4   9  19  36  57  82 112 144 181 226 278 332
#     4  11  21  36  56  83 110 149 192 236 275 339
#     4  11  22  34  55  82 110 149 188 226 272 329
#     4   9  18  36  62  85 108 141 186 238 285 328
#
# _framework density 17.070651999999999
#
# number of rings (size 3 to 8) (size 9 to 14) (size 15 to 20)
#    0.000    1.800    2.000    3.000    2.800    2.400 
#    0.000    2.500    0.000    0.000    0.000    0.000 
#    0.000    0.000    0.000    0.000    0.000    0.000 
#
# Total GULP energy -223010.691671 kJ/mol
# GULP energy per Si atom -5575.267292 kJ/mol
# Density = 1.703180 g / cm^3
# Si number density = 17.070652 Si / 1000 Ang^3
#
#
#
# Elastic Constant Matrix: (Units=GPa)
#
#
# Indices 1 2 3 4 5 6 
#
# 1 117.6702 55.5346 50.3779 0.0000 0.0000 0.0000
# 2 55.5346 121.1552 61.4887 0.0000 0.0000 0.0000
# 3 50.3779 61.4887 109.6081 0.0000 0.0000 0.0000
# 4 0.0000 0.0000 0.0000 9.5904 0.0000 0.0000
# 5 0.0000 0.0000 0.0000 0.0000 17.3212 0.0000
# 6 0.0000 0.0000 0.0000 0.0000 0.0000 31.8350
#
#
#
# Elastic Compliance Matrix: (Units=1/GPa)
#
#
# Indices 1 2 3 4 5 6 
#
# 1 0.011637 -0.003662 -0.003294 0.000000 0.000000 0.000000
# 2 -0.003662 0.012692 -0.005437 0.000000 0.000000 0.000000
# 3 -0.003294 -0.005437 0.013687 0.000000 0.000000 0.000000
# 4 0.000000 0.000000 0.000000 0.104271 0.000000 0.000000
# 5 0.000000 0.000000 0.000000 0.000000 0.057733 0.000000
# 6 0.000000 0.000000 0.000000 0.000000 0.000000 0.031412
#
#
# Mechanical properties :
#
#
# Convention : Reuss Voigt Hill
#
# Bulk Modulus (GPa) = 75.58557 75.91512 75.75035
# Shear Modulus (GPa) = 19.18445 23.81814 21.50129
#
# Velocity S-wave (km/s) = 3.35599 3.73938 3.55286
# Velocity P-wave (km/s) = 7.70656 7.95057 7.82952
#
# Compressibility (1/GPa) = 0.01323004
#
# Stress axis : x y z
#
# Youngs Moduli (GPa) = 85.93229 78.79090 73.06018
#
# Poissons Ratio (x) = 0.28856 0.24067
# Poissons Ratio (y) = 0.31471 0.39720
# Poissons Ratio (z) = 0.28307 0.42836
#
# Static dielectric constant tensor:
#      x y z
#    x 1.576670 0.000000 0.000000 
#    y 0.000000 1.574930 0.000000 
#    z 0.000000 0.000000 1.568830 
# 
# From -- ./inp_files/64046.got.cif
#   From: 2010.05.17/outbox.cif.g08.bks.cpg/sg74_33_cif.got.tgz:64046.got - 2010.06.03 17:57:02.
