data_PCOD9540023
_publ_section_title
;
Structure prediction by ZEFSAII (Michael W. Deem and Ramdas Pophale) SiO2 
 PCOD9540023
Probable space group: I M M A
;
_chemical_formula_sum "Si O2"
_cell_formula_units_Z 96
_cell_length_a 15.913826
_cell_length_b 23.840969
_cell_length_c 12.034918
_cell_angle_alpha 90.000000
_cell_angle_beta 90.000000
_cell_angle_gamma 90.000000
_cell_volume 4566.060313
_symmetry_space_group_name_H-M "I M M A"
_symmetry_group_IT_number 74
_symmetry_cell_setting 'orthorhombic'
loop_
_space_group_symop_operation_xyz
x,y,z
-x,1/2-y,z
x,-y,-z
-x,1/2+y,-z
-x,-y,-z
x,1/2+y,-z
-x,y,z
x,1/2-y,z
1/2+x,1/2+y,1/2+z
1/2-x,-y,1/2+z
1/2+x,1/2-y,1/2-z
1/2-x,y,1/2-z
1/2-x,1/2-y,1/2-z
1/2+x,y,1/2-z
1/2-x,1/2+y,1/2+z
1/2+x,-y,1/2+z
loop_
_atom_site_type_symbol
_atom_site_label
_atom_site_fract_x
_atom_site_fract_y
_atom_site_fract_z
Si Si1 0.148015 0.687415 0.267608
Si Si2 0.343818 0.597157 0.063916
Si Si3 0.600957 0.813973 0.631261
Si Si4 0.401047 0.394522 0.186046
Si Si5 0.642345 0.105753 0.572804
Si Si6 0.648027 0.486277 0.740563
O O1 0.116505 0.750000 0.264689
O O2 0.250000 0.688256 0.250000
O O3 0.128050 0.655542 0.380942
O O4 0.115881 0.650142 0.167009
O O5 0.242933 0.598392 0.069626
O O6 0.376463 0.548780 0.147850
O O7 0.366888 0.593850 0.936394
O O8 0.500000 0.809889 0.637502
O O9 0.632223 0.750000 0.607688
O O10 0.633154 0.840544 0.747378
O O11 0.618309 0.862420 0.539814
O O12 0.500000 0.386746 0.175012
O O13 0.383618 0.450761 0.255579
O O14 0.617109 0.046457 0.629841
O O15 0.750000 0.487479 0.750000
#
# Coordination Sequence:
#
# PCOD9540023 Si02
#       6
#    16  16  16  16  16  16
#     4   8  14  28  52  81 111 138 177 235 287 331
#     4   9  19  34  55  85 112 145 187 230 288 341
#     4  10  23  41  57  78 114 156 194 238 288 335
#     4  11  24  39  56  80 116 159 193 230 286 351
#     4   9  18  35  59  85 109 144 188 238 292 338
#     4   9  20  37  59  86 116 145 183 241 294 340
#
# _framework density 21.02469
#
# number of rings (size 3 to 8) (size 9 to 14) (size 15 to 20)
#    0.000    2.667    0.000    3.000    2.333    4.000 
#    0.000    5.000    0.000    1.000    0.000    0.000 
#    0.000    0.000    0.000    0.000    0.000    0.000 
#
# Total GULP energy -267432.563804 kJ/mol
# GULP energy per Si atom -5571.511746 kJ/mol
# Density = 2.097684 g / cm^3
# Si number density = 21.024690 Si / 1000 Ang^3
#
#
#
# Elastic Constant Matrix: (Units=GPa)
#
#
# Indices 1 2 3 4 5 6 
#
# 1 10.1622 1.0023 0.2978 0.0000 0.0000 0.0000
# 2 1.0023 94.6271 45.8363 0.0000 0.0000 0.0000
# 3 0.2978 45.8363 104.7468 0.0000 0.0000 0.0000
# 4 0.0000 0.0000 0.0000 15.6440 0.0000 0.0000
# 5 0.0000 0.0000 0.0000 0.0000 28.1000 0.0000
# 6 0.0000 0.0000 0.0000 0.0000 0.0000 17.8035
#
#
#
# Elastic Compliance Matrix: (Units=1/GPa)
#
#
# Indices 1 2 3 4 5 6 
#
# 1 0.098511 -0.001152 0.000224 0.000000 0.000000 0.000000
# 2 -0.001152 0.013424 -0.005871 0.000000 0.000000 0.000000
# 3 0.000224 -0.005871 0.012115 0.000000 0.000000 0.000000
# 4 0.000000 0.000000 0.000000 0.063922 0.000000 0.000000
# 5 0.000000 0.000000 0.000000 0.000000 0.035587 0.000000
# 6 0.000000 0.000000 0.000000 0.000000 0.000000 0.056169
#
#
# Mechanical properties :
#
#
# Convention : Reuss Voigt Hill
#
# Bulk Modulus (GPa) = 9.05370 33.75655 21.40513
# Shear Modulus (GPa) = 15.14497 23.13615 19.14056
#
# Velocity S-wave (km/s) = 2.68683 3.32087 3.02053
# Velocity P-wave (km/s) = 3.73376 5.54930 4.72947
#
# Compressibility (1/GPa) = 0.11045204
#
# Stress axis : x y z
#
# Youngs Moduli (GPa) = 10.15119 74.49467 82.54078
#
# Poissons Ratio (x) = 0.08581 -0.01849
# Poissons Ratio (y) = 0.01169 0.48458
# Poissons Ratio (z) = -0.00227 0.43735
#
# Static dielectric constant tensor:
#      x y z
#    x 1.769270 0.000000 0.000000 
#    y 0.000000 1.774120 0.000000 
#    z 0.000000 0.000000 1.782770 
# 
# From -- ./inp_files/22456.got.cif
#   From: 2010.05.17/outbox.cif.g08.bks.cpg/sg74_12_cif.got.tgz:22456.got - 2010.06.03 17:57:02.
