data_PCOD9540105
_publ_section_title
;
Structure prediction by ZEFSAII (Michael W. Deem and Ramdas Pophale) SiO2 
 PCOD9540105
Probable space group: I M M A
;
_chemical_formula_sum "Si O2"
_cell_formula_units_Z 80
_cell_length_a 26.262161
_cell_length_b 13.900711
_cell_length_c 9.966273
_cell_angle_alpha 90.000000
_cell_angle_beta 90.000000
_cell_angle_gamma 90.000000
_cell_volume 3638.314633
_symmetry_space_group_name_H-M "I M M A"
_symmetry_group_IT_number 74
_symmetry_cell_setting 'orthorhombic'
loop_
_space_group_symop_operation_xyz
x,y,z
-x,1/2-y,z
x,-y,-z
-x,1/2+y,-z
-x,-y,-z
x,1/2+y,-z
-x,y,z
x,1/2-y,z
1/2+x,1/2+y,1/2+z
1/2-x,-y,1/2+z
1/2+x,1/2-y,1/2-z
1/2-x,y,1/2-z
1/2-x,1/2-y,1/2-z
1/2+x,y,1/2-z
1/2-x,1/2+y,1/2+z
1/2+x,-y,1/2+z
loop_
_atom_site_type_symbol
_atom_site_label
_atom_site_fract_x
_atom_site_fract_y
_atom_site_fract_z
Si Si1 0.713664 0.141104 0.620730
Si Si2 0.287242 0.140397 0.123004
Si Si3 0.057790 0.363384 0.568903
Si Si4 0.634297 0.008994 0.758359
Si Si5 0.558796 0.858989 0.744736
O O1 0.694825 0.250000 0.595101
O O2 0.750000 0.143024 0.750000
O O3 0.750929 0.114397 0.500058
O O4 0.668648 0.069710 0.657357
O O5 0.307765 0.250000 0.100395
O O6 0.250000 0.143745 0.250000
O O7 0.329691 0.061771 0.154538
O O8 0.062100 0.250000 0.599513
O O9 0.101013 0.421502 0.646428
O O10 0.061419 0.371997 0.407338
O O11 0.000000 0.395425 0.605840
O O12 0.595423 0.937945 0.683993
O O13 0.500000 0.869764 0.706544
O O14 0.575011 0.750000 0.714880
#
# Coordination Sequence:
#
# PCOD9540105 Si02
#       5
#    16  16  16  16  16
#     4  10  24  41  57  86 125 160 202 260 317 367
#     4  10  24  45  63  83 121 169 215 260 309 371
#     4   9  19  34  52  82 125 168 209 256 312 379
#     4  12  21  32  60  89 117 161 216 257 316 379
#     4   9  19  34  52  82 124 166 211 259 310 375
#
# _framework density 21.988202000000001
#
# number of rings (size 3 to 8) (size 9 to 14) (size 15 to 20)
#    0.000    2.000    0.000    4.200    5.600    4.000 
#    0.000    0.000    0.000    2.400    0.000   11.200 
#    0.000   32.000    0.000    0.000    0.000    0.000 
#
# Total GULP energy -223920.463579 kJ/mol
# GULP energy per Si atom -5598.011589 kJ/mol
# Density = 2.193816 g / cm^3
# Si number density = 21.988202 Si / 1000 Ang^3
#
#
#
# Elastic Constant Matrix: (Units=GPa)
#
#
# Indices 1 2 3 4 5 6 
#
# 1 119.8019 87.0861 21.3479 0.0000 0.0000 0.0000
# 2 87.0861 153.4703 17.6271 0.0000 0.0000 0.0000
# 3 21.3479 17.6271 56.0882 0.0000 0.0000 0.0000
# 4 0.0000 0.0000 0.0000 20.0205 0.0000 0.0000
# 5 0.0000 0.0000 0.0000 0.0000 17.8624 0.0000
# 6 0.0000 0.0000 0.0000 0.0000 0.0000 82.0524
#
#
#
# Elastic Compliance Matrix: (Units=1/GPa)
#
#
# Indices 1 2 3 4 5 6 
#
# 1 0.014705 -0.007990 -0.003086 0.000000 0.000000 0.000000
# 2 -0.007990 0.011101 -0.000448 0.000000 0.000000 0.000000
# 3 -0.003086 -0.000448 0.019144 0.000000 0.000000 0.000000
# 4 0.000000 0.000000 0.000000 0.049949 0.000000 0.000000
# 5 0.000000 0.000000 0.000000 0.000000 0.055983 0.000000
# 6 0.000000 0.000000 0.000000 0.000000 0.000000 0.012187
#
#
# Mechanical properties :
#
#
# Convention : Reuss Voigt Hill
#
# Bulk Modulus (GPa) = 45.65499 64.60919 55.13209
# Shear Modulus (GPa) = 25.85073 37.54036 31.69554
#
# Velocity S-wave (km/s) = 3.43251 4.13643 3.80080
# Velocity P-wave (km/s) = 6.04301 7.22916 6.66253
#
# Compressibility (1/GPa) = 0.02190341
#
# Stress axis : x y z
#
# Youngs Moduli (GPa) = 68.00438 90.08091 52.23480
#
# Poissons Ratio (x) = 0.71973 0.16119
# Poissons Ratio (y) = 0.54334 0.02339
# Poissons Ratio (z) = 0.20985 0.04034
#
# Static dielectric constant tensor:
#      x y z
#    x 1.806330 0.000000 0.000000 
#    y 0.000000 1.866710 0.000000 
#    z 0.000000 0.000000 1.752850 
# 
# From -- ./inp_files/20516.got.cif
#   From: 2010.05.17/outbox.cif.g08.bks.cpg/sg74_11_cif.got.tgz:20516.got - 2010.06.03 17:57:02.
