data_PCOD9540991
_publ_section_title
;
Structure prediction by ZEFSAII (Michael W. Deem and Ramdas Pophale) SiO2 
 PCOD9540991
Probable space group: P 4
;
_chemical_formula_sum "Si O2"
_cell_formula_units_Z 24
_cell_length_a 10.856450
_cell_length_b 10.856450
_cell_length_c 9.825421
_cell_angle_alpha 90.000000
_cell_angle_beta 90.000000
_cell_angle_gamma 90.000000
_cell_volume 1158.048747
_symmetry_space_group_name_H-M "P 4"
_symmetry_group_IT_number 75
_symmetry_cell_setting 'tetragonal'
loop_
_space_group_symop_operation_xyz
x,y,z
-y,x,z
-x,-y,z
y,-x,z
loop_
_atom_site_type_symbol
_atom_site_label
_atom_site_fract_x
_atom_site_fract_y
_atom_site_fract_z
Si Si1 0.137780 0.550739 0.564530
Si Si2 0.126341 0.719790 0.005305
Si Si3 0.510618 0.292563 0.297671
Si Si4 0.662151 0.139183 0.095496
Si Si5 0.150062 0.485913 0.851545
Si Si6 0.187206 0.078524 0.701586
O O1 0.223595 0.516491 0.439186
O O2 0.192585 0.483948 0.698417
O O3 0.122862 0.692893 0.616794
O O4 0.000000 0.500000 0.538119
O O5 0.205939 0.798150 0.110829
O O6 0.006462 0.674162 0.086410
O O7 0.193592 0.601039 0.940906
O O8 0.086235 0.789217 0.865416
O O9 0.623445 0.389385 0.281427
O O10 0.555290 0.187646 0.192549
O O11 0.631507 0.178476 0.940006
O O12 0.000000 0.500000 0.843752
O O13 0.064587 0.156967 0.670473
#
# Coordination Sequence:
#
# PCOD9540991 Si02
#       6
#     4   4   4   4   4   4
#     4  10  23  39  68  97 131 177 232 279 350 422
#     4  10  19  33  64 100 136 172 219 282 355 432
#     4  11  27  47  64  88 128 185 242 290 338 399
#     4  11  21  38  64  93 135 169 227 281 351 420
#     4   8  18  35  57  93 123 161 212 264 330 410
#     4  10  20  37  67 108 149 177 216 292 377 440
#
# _framework density 20.724515
#
# number of rings (size 3 to 8) (size 9 to 14) (size 15 to 20)
#    0.000    2.000    1.667    2.000    2.333    5.000 
#    0.000    0.000    0.000    2.000    0.000    0.000 
#    0.000    0.000    0.000    0.000    0.000    0.000 
#
# Total GULP energy -133765.202589 kJ/mol
# GULP energy per Si atom -5573.550108 kJ/mol
# Density = 2.067734 g / cm^3
# Si number density = 20.724515 Si / 1000 Ang^3
#
#
#
# Elastic Constant Matrix: (Units=GPa)
#
#
# Indices 1 2 3 4 5 6 
#
# 1 66.4596 40.1013 41.8874 0.0000 0.0000 1.8906
# 2 40.1013 66.4596 41.8874 0.0000 0.0000 -1.8906
# 3 41.8874 41.8874 100.0516 0.0000 0.0000 0.0000
# 4 0.0000 0.0000 0.0000 26.4313 0.0000 0.0000
# 5 0.0000 0.0000 0.0000 0.0000 26.4313 0.0000
# 6 1.8906 -1.8906 0.0000 0.0000 0.0000 28.0492
#
#
#
# Elastic Compliance Matrix: (Units=1/GPa)
#
#
# Indices 1 2 3 4 5 6 
#
# 1 0.026149 -0.012160 -0.005856 0.000000 0.000000 -0.002582
# 2 -0.012160 0.026149 -0.005856 0.000000 0.000000 0.002582
# 3 -0.005856 -0.005856 0.014898 0.000000 0.000000 0.000000
# 4 0.000000 0.000000 0.000000 0.037834 0.000000 0.000000
# 5 0.000000 0.000000 0.000000 0.000000 0.037834 0.000000
# 6 -0.002582 0.002582 0.000000 0.000000 0.000000 0.036000
#
#
# Mechanical properties :
#
#
# Convention : Reuss Voigt Hill
#
# Bulk Modulus (GPa) = 51.41433 53.41366 52.41399
# Shear Modulus (GPa) = 21.45066 23.45535 22.45300
#
# Velocity S-wave (km/s) = 3.22069 3.36783 3.29508
# Velocity P-wave (km/s) = 6.22035 6.39939 6.31050
#
# Compressibility (1/GPa) = 0.01944983
#
# Stress axis : x y z
#
# Youngs Moduli (GPa) = 38.24270 38.24270 67.12096
#
# Poissons Ratio (x) = 0.46505 0.39308
# Poissons Ratio (y) = 0.46505 0.39308
# Poissons Ratio (z) = 0.22396 0.22396
#
# Static dielectric constant tensor:
#      x y z
#    x 1.788740 0.000000 0.000000 
#    y 0.000000 1.788740 0.000000 
#    z 0.000000 0.000000 1.747940 
# 
# From -- ./inp_files/330.got.cif
#   From: 2010.05.17/outbox.cif.g08.bks.cpg/sg75_cif.got.tgz:330.got - 2010.06.03 18:42:43.
