data_PCOD9540943
_publ_section_title
;
Structure prediction by ZEFSAII (Michael W. Deem and Ramdas Pophale) SiO2 
 PCOD9540943
Probable space group: I M M A
;
_chemical_formula_sum "Si O2"
_cell_formula_units_Z 48
_cell_length_a 27.000000
_cell_length_b 9.000000
_cell_length_c 21.000000
_cell_angle_alpha 90.000000
_cell_angle_beta 90.000000
_cell_angle_gamma 90.000000
_cell_volume 5103.000000
_symmetry_space_group_name_H-M "I M M A"
_symmetry_group_IT_number 74
_symmetry_cell_setting 'orthorhombic'
loop_
_space_group_symop_operation_xyz
x,y,z
-x,1/2-y,z
x,-y,-z
-x,1/2+y,-z
-x,-y,-z
x,1/2+y,-z
-x,y,z
x,1/2-y,z
1/2+x,1/2+y,1/2+z
1/2-x,-y,1/2+z
1/2+x,1/2-y,1/2-z
1/2-x,y,1/2-z
1/2-x,1/2-y,1/2-z
1/2+x,y,1/2-z
1/2-x,1/2+y,1/2+z
1/2+x,-y,1/2+z
loop_
_atom_site_type_symbol
_atom_site_label
_atom_site_fract_x
_atom_site_fract_y
_atom_site_fract_z
Si Si1 0.444170 0.924661 0.234303
Si Si2 0.944539 0.072608 0.069154
Si Si3 0.255438 0.429243 0.325883
Si Si4 0.136609 0.928045 0.158517
Si Si5 0.829779 0.430448 0.432135
Si Si6 0.555948 0.072582 0.098627
O O1 0.500000 0.942751 0.263069
O O2 0.440793 0.750000 0.216228
O O3 0.396516 0.957750 0.277906
O O4 0.443077 0.026704 0.172421
O O5 0.938228 0.250000 0.066018
O O6 0.000000 0.044426 0.096450
O O7 0.899474 0.998921 0.106280
O O8 0.944752 0.000000 0.000000
O O9 0.259516 0.250000 0.330406
O O10 0.250000 0.465707 0.250000
O O11 0.308415 0.502563 0.343871
O O12 0.208669 0.470788 0.373334
O O13 0.140060 0.750000 0.151527
O O14 0.813059 0.500000 0.500000
O O15 0.829165 0.250000 0.435418
O O16 0.888517 0.477091 0.424364
O O17 0.500000 0.018986 0.075637
O O18 0.555396 0.250000 0.090063
#
# Coordination Sequence:
#
# PCOD9540943 Si02
#       6
#    16  16  16  16  16  16
#     4   9  18  32  51  79 114 147 179 221 275 330
#     4  10  21  37  57  81 111 148 189 233 284 343
#     4  10  22  41  62  82 110 151 199 248 294 344
#     4  11  22  35  55  82 112 146 186 234 286 344
#     4  10  22  39  59  84 114 148 185 231 286 340
#     4   9  18  34  57  84 112 143 182 225 270 327
#
# _framework density 9.4062319999999993
#
# number of rings (size 3 to 8) (size 9 to 14) (size 15 to 20)
#    0.000    2.167    0.000    2.500    0.000    7.000 
#    0.000    3.333    0.000    0.000    0.000    0.000 
#    0.000    0.000    0.000    0.000    0.000    0.000 
#
# Total GULP energy -267263.913899 kJ/mol
# GULP energy per Si atom -5567.998206 kJ/mol
# Density = 0.938482 g / cm^3
# Si number density = 9.406232 Si / 1000 Ang^3
#
#
#
# Elastic Constant Matrix: (Units=GPa)
#
#
# Indices 1 2 3 4 5 6 
#
# 1 189.2223 37.3855 66.1469 0.0000 0.0000 0.0000
# 2 37.3855 18.4975 33.9988 0.0000 0.0000 0.0000
# 3 66.1469 33.9988 101.4263 0.0000 0.0000 0.0000
# 4 0.0000 0.0000 0.0000 27.5132 0.0000 0.0000
# 5 0.0000 0.0000 0.0000 0.0000 36.1052 0.0000
# 6 0.0000 0.0000 0.0000 0.0000 0.0000 15.8505
#
#
#
# Elastic Compliance Matrix: (Units=1/GPa)
#
#
# Indices 1 2 3 4 5 6 
#
# 1 0.008811 -0.018877 0.000581 0.000000 0.000000 0.000000
# 2 -0.018877 0.181269 -0.048452 0.000000 0.000000 0.000000
# 3 0.000581 -0.048452 0.025722 0.000000 0.000000 0.000000
# 4 0.000000 0.000000 0.000000 0.036346 0.000000 0.000000
# 5 0.000000 0.000000 0.000000 0.000000 0.027697 0.000000
# 6 0.000000 0.000000 0.000000 0.000000 0.000000 0.063090
#
#
# Mechanical properties :
#
#
# Convention : Reuss Voigt Hill
#
# Bulk Modulus (GPa) = 12.14960 64.91206 38.53083
# Shear Modulus (GPa) = 9.92331 27.33475 18.62903
#
# Velocity S-wave (km/s) = 2.29920 3.81598 3.15024
# Velocity P-wave (km/s) = 3.67705 7.34815 5.81016
#
# Compressibility (1/GPa) = 0.08230723
#
# Stress axis : x y z
#
# Youngs Moduli (GPa) = 113.49247 5.51667 38.87777
#
# Poissons Ratio (x) = 0.10414 -0.02260
# Poissons Ratio (y) = 2.14236 1.88369
# Poissons Ratio (z) = -0.06597 0.26729
#
# Static dielectric constant tensor:
#      x y z
#    x 1.670820 0.000000 0.000000 
#    y 0.000000 1.635780 0.000000 
#    z 0.000000 0.000000 1.654910 
# 
# From -- ./inp_files/55096.got.cif
#   From: 2010.05.17/outbox.ucp.g08.bks.cvg/sg74_28_cif.got.tgz:55096.got - 2010.06.11 16:37:44.
