data_PCOD9540947
_publ_section_title
;
Structure prediction by ZEFSAII (Michael W. Deem and Ramdas Pophale) SiO2 
 PCOD9540947
Probable space group: I M M A
;
_chemical_formula_sum "Si O2"
_cell_formula_units_Z 52
_cell_length_a 9.000000
_cell_length_b 21.000000
_cell_length_c 27.000000
_cell_angle_alpha 90.000000
_cell_angle_beta 90.000000
_cell_angle_gamma 90.000000
_cell_volume 5103.000000
_symmetry_space_group_name_H-M "I M M A"
_symmetry_group_IT_number 74
_symmetry_cell_setting 'orthorhombic'
loop_
_space_group_symop_operation_xyz
x,y,z
-x,1/2-y,z
x,-y,-z
-x,1/2+y,-z
-x,-y,-z
x,1/2+y,-z
-x,y,z
x,1/2-y,z
1/2+x,1/2+y,1/2+z
1/2-x,-y,1/2+z
1/2+x,1/2-y,1/2-z
1/2-x,y,1/2-z
1/2-x,1/2-y,1/2-z
1/2+x,y,1/2-z
1/2-x,1/2+y,1/2+z
1/2+x,-y,1/2+z
loop_
_atom_site_type_symbol
_atom_site_label
_atom_site_fract_x
_atom_site_fract_y
_atom_site_fract_z
Si Si1 0.326508 0.648960 0.127123
Si Si2 0.168608 0.674227 0.801100
Si Si3 0.177937 0.823998 0.021997
Si Si4 0.322173 0.074584 0.144129
Si Si5 0.172298 0.460143 0.702301
Si Si6 0.321307 0.560596 0.967236
Si Si7 0.824093 0.250000 0.803179
O O1 0.500000 0.668061 0.125149
O O2 0.253716 0.657177 0.073975
O O3 0.320520 0.579939 0.151901
O O4 0.234828 0.691096 0.165349
O O5 0.169108 0.750000 0.805569
O O6 0.250000 0.658205 0.750000
O O7 0.253729 0.642843 0.846391
O O8 0.000000 0.651484 0.799416
O O9 0.213781 0.750000 0.010986
O O10 0.000000 0.829122 0.025918
O O11 0.241625 0.874890 0.983695
O O12 0.500000 0.076950 0.148286
O O13 0.287235 0.048825 0.090024
O O14 0.263701 0.028376 0.187255
O O15 0.250000 0.430933 0.750000
O O16 0.000000 0.465851 0.715381
O O17 0.500000 0.568319 0.972990
O O18 0.276041 0.500000 0.000000
O O19 0.750000 0.250000 0.750000
O O20 0.000000 0.250000 0.798797
#
# Coordination Sequence:
#
# PCOD9540947 Si02
#       7
#    16  16  16  16  16  16   8
#     4  11  22  39  62  86 116 159 205 248 300 358
#     4  10  21  37  58  85 118 155 194 237 288 352
#     4  11  24  41  62  91 126 161 202 258 314 372
#     4  10  21  38  60  87 118 151 193 246 298 355
#     4  10  22  38  58  87 120 155 197 244 296 355
#     4  10  22  42  66  90 119 158 206 259 310 368
#     4  12  24  38  56  84 120 156 200 250 299 352
#
# _framework density 10.190084000000001
#
# number of rings (size 3 to 8) (size 9 to 14) (size 15 to 20)
#    0.000    1.538    0.769    3.923    0.000   10.154 
#    0.000    4.615    0.000    0.000    0.000    0.000 
#    0.000    0.000    0.000    0.000    0.000    0.000 
#
# Total GULP energy -290261.117636 kJ/mol
# GULP energy per Si atom -5581.944570 kJ/mol
# Density = 1.016689 g / cm^3
# Si number density = 10.190084 Si / 1000 Ang^3
#
#
#
# Elastic Constant Matrix: (Units=GPa)
#
#
# Indices 1 2 3 4 5 6 
#
# 1 44.0851 33.8520 38.6673 0.0000 0.0000 0.0000
# 2 33.8520 66.7576 40.8219 0.0000 0.0000 0.0000
# 3 38.6673 40.8219 71.0622 0.0000 0.0000 0.0000
# 4 0.0000 0.0000 0.0000 31.6344 0.0000 0.0000
# 5 0.0000 0.0000 0.0000 0.0000 28.7691 0.0000
# 6 0.0000 0.0000 0.0000 0.0000 0.0000 27.0186
#
#
#
# Elastic Compliance Matrix: (Units=1/GPa)
#
#
# Indices 1 2 3 4 5 6 
#
# 1 0.050209 -0.013494 -0.019569 0.000000 0.000000 0.000000
# 2 -0.013494 0.026718 -0.008005 0.000000 0.000000 0.000000
# 3 -0.019569 -0.008005 0.029319 0.000000 0.000000 0.000000
# 4 0.000000 0.000000 0.000000 0.031611 0.000000 0.000000
# 5 0.000000 0.000000 0.000000 0.000000 0.034760 0.000000
# 6 0.000000 0.000000 0.000000 0.000000 0.000000 0.037012
#
#
# Mechanical properties :
#
#
# Convention : Reuss Voigt Hill
#
# Bulk Modulus (GPa) = 41.47825 45.39860 43.43842
# Shear Modulus (GPa) = 16.67776 22.05533 19.36654
#
# Velocity S-wave (km/s) = 2.86376 3.29324 3.08598
# Velocity P-wave (km/s) = 5.59743 6.06505 5.83593
#
# Compressibility (1/GPa) = 0.02410902
#
# Stress axis : x y z
#
# Youngs Moduli (GPa) = 19.91670 37.42857 34.10786
#
# Poissons Ratio (x) = 0.50508 0.66744
# Poissons Ratio (y) = 0.26876 0.27304
# Poissons Ratio (z) = 0.38974 0.29962
#
# Static dielectric constant tensor:
#      x y z
#    x 1.678560 0.000000 0.000000 
#    y 0.000000 1.729820 0.000000 
#    z 0.000000 0.000000 1.686940 
# 
# From -- ./inp_files/64484.got.cif
#   From: 2010.05.17/outbox.ucp.g08.bks.cvg/sg74_33_cif.got.tgz:64484.got - 2010.06.11 16:37:44.
