data_PCOD9540587
_publ_section_title
;
Structure prediction by ZEFSAII (Michael W. Deem and Ramdas Pophale) SiO2 
 PCOD9540587
Probable space group: I M M A
;
_chemical_formula_sum "Si O2"
_cell_formula_units_Z 52
_cell_length_a 17.250585
_cell_length_b 8.304495
_cell_length_c 17.707869
_cell_angle_alpha 90.000000
_cell_angle_beta 90.000000
_cell_angle_gamma 90.000000
_cell_volume 2536.783217
_symmetry_space_group_name_H-M "I M M A"
_symmetry_group_IT_number 74
_symmetry_cell_setting 'orthorhombic'
loop_
_space_group_symop_operation_xyz
x,y,z
-x,1/2-y,z
x,-y,-z
-x,1/2+y,-z
-x,-y,-z
x,1/2+y,-z
-x,y,z
x,1/2-y,z
1/2+x,1/2+y,1/2+z
1/2-x,-y,1/2+z
1/2+x,1/2-y,1/2-z
1/2-x,y,1/2-z
1/2-x,1/2-y,1/2-z
1/2+x,y,1/2-z
1/2-x,1/2+y,1/2+z
1/2+x,-y,1/2+z
loop_
_atom_site_type_symbol
_atom_site_label
_atom_site_fract_x
_atom_site_fract_y
_atom_site_fract_z
Si Si1 0.000000 0.500000 0.000000
Si Si2 0.865554 0.441294 0.113440
Si Si3 0.189227 0.442892 0.418099
Si Si4 0.090162 0.441433 0.723430
O O1 0.931856 0.475072 0.935597
O O2 0.874923 0.250000 0.097972
O O3 0.779116 0.493647 0.091544
O O4 0.878214 0.472379 0.201812
O O5 0.161384 0.500000 0.500000
O O6 0.187154 0.250000 0.414182
O O7 0.138986 0.512133 0.349970
O O8 0.095366 0.250000 0.735525
O O9 0.000000 0.485063 0.713100
#
# Coordination Sequence:
#
# PCOD9540587 Si02
#       4
#     4  16  16  16
#     4  12  22  40  68 102 134 164 204 262 310 380
#     4  11  24  42  66  97 132 169 210 258 318 382
#     4  11  24  43  66  94 128 168 214 263 316 377
#     4  11  25  43  65  94 128 168 215 264 317 377
#
# _framework density 20.498401000000001
#
# number of rings (size 3 to 8) (size 9 to 14) (size 15 to 20)
#    0.000    0.923    3.077    3.231    0.000   11.077 
#    0.000    0.000    0.000    0.000    0.000    0.000 
#    0.000    0.000    0.000    0.000    0.000    0.000 
#
# Total GULP energy -144975.309115 kJ/mol
# GULP energy per Si atom -5575.973428 kJ/mol
# Density = 2.045175 g / cm^3
# Si number density = 20.498401 Si / 1000 Ang^3
#
#
#
# Elastic Constant Matrix: (Units=GPa)
#
#
# Indices 1 2 3 4 5 6 
#
# 1 44.8875 3.6256 34.3936 0.0000 0.0000 0.0000
# 2 3.6256 19.6751 -4.1477 0.0000 0.0000 0.0000
# 3 34.3936 -4.1477 150.5731 0.0000 0.0000 0.0000
# 4 0.0000 0.0000 0.0000 18.9037 0.0000 0.0000
# 5 0.0000 0.0000 0.0000 0.0000 50.6987 0.0000
# 6 0.0000 0.0000 0.0000 0.0000 0.0000 14.2115
#
#
#
# Elastic Compliance Matrix: (Units=1/GPa)
#
#
# Indices 1 2 3 4 5 6 
#
# 1 0.027807 -0.006501 -0.006531 0.000000 0.000000 0.000000
# 2 -0.006501 0.052642 0.002935 0.000000 0.000000 0.000000
# 3 -0.006531 0.002935 0.008214 0.000000 0.000000 0.000000
# 4 0.000000 0.000000 0.000000 0.052900 0.000000 0.000000
# 5 0.000000 0.000000 0.000000 0.000000 0.019724 0.000000
# 6 0.000000 0.000000 0.000000 0.000000 0.000000 0.070366
#
#
# Mechanical properties :
#
#
# Convention : Reuss Voigt Hill
#
# Bulk Modulus (GPa) = 14.60490 31.43097 23.01793
# Shear Modulus (GPa) = 18.20372 28.84706 23.52539
#
# Velocity S-wave (km/s) = 2.98326 3.75545 3.39140
# Velocity P-wave (km/s) = 4.35968 5.84561 5.15645
#
# Compressibility (1/GPa) = 0.06847018
#
# Stress axis : x y z
#
# Youngs Moduli (GPa) = 35.96225 18.99611 121.74530
#
# Poissons Ratio (x) = 0.12349 0.79508
# Poissons Ratio (y) = 0.23378 -0.35732
# Poissons Ratio (z) = 0.23486 -0.05575
#
# Static dielectric constant tensor:
#      x y z
#    x 1.703570 0.000000 0.000000 
#    y 0.000000 1.751100 0.000000 
#    z 0.000000 0.000000 1.684110 
# 
# From -- ./inp_files/38769.got.cif
#   From: 2010.05.17/outbox.cif.g08.bks.cpg/sg74_20_cif.got.tgz:38769.got - 2010.06.03 17:57:02.
