data_PCOD9540447
_publ_section_title
;
Structure prediction by ZEFSAII (Michael W. Deem and Ramdas Pophale) SiO2 
 PCOD9540447
Probable space group: I M M A
;
_chemical_formula_sum "Si O2"
_cell_formula_units_Z 80
_cell_length_a 27.854095
_cell_length_b 17.165675
_cell_length_c 7.878120
_cell_angle_alpha 90.000000
_cell_angle_beta 90.000000
_cell_angle_gamma 90.000000
_cell_volume 3766.799724
_symmetry_space_group_name_H-M "I M M A"
_symmetry_group_IT_number 74
_symmetry_cell_setting 'orthorhombic'
loop_
_space_group_symop_operation_xyz
x,y,z
-x,1/2-y,z
x,-y,-z
-x,1/2+y,-z
-x,-y,-z
x,1/2+y,-z
-x,y,z
x,1/2-y,z
1/2+x,1/2+y,1/2+z
1/2-x,-y,1/2+z
1/2+x,1/2-y,1/2-z
1/2-x,y,1/2-z
1/2-x,1/2-y,1/2-z
1/2+x,y,1/2-z
1/2-x,1/2+y,1/2+z
1/2+x,-y,1/2+z
loop_
_atom_site_type_symbol
_atom_site_label
_atom_site_fract_x
_atom_site_fract_y
_atom_site_fract_z
Si Si1 0.280131 0.930382 0.888197
Si Si2 0.617138 0.602207 0.842010
Si Si3 0.387007 0.581498 0.233821
Si Si4 0.707770 0.837468 0.386447
Si Si5 0.555430 0.659454 0.532317
O O1 0.250000 0.977545 0.750000
O O2 0.325860 0.880314 0.835499
O O3 0.237279 0.879647 0.965461
O O4 0.301087 0.000000 0.000000
O O5 0.612644 0.511741 0.784614
O O6 0.586553 0.647569 0.702921
O O7 0.603682 0.612060 0.041110
O O8 0.336227 0.613995 0.306884
O O9 0.424549 0.609223 0.375588
O O10 0.690881 0.750000 0.431356
O O11 0.750000 0.830225 0.250000
O O12 0.500000 0.639611 0.567420
O O13 0.558329 0.750000 0.482537
#
# Coordination Sequence:
#
# PCOD9540447 Si02
#       5
#    16  16  16  16  16
#     4  12  22  37  62  93 133 176 220 266 318 372
#     4  11  23  41  69  98 131 171 224 272 323 388
#     4  11  22  43  67  98 136 176 221 273 327 383
#     4  11  22  38  61  94 136 176 215 260 315 384
#     4  11  27  48  69  97 130 166 215 276 342 406
#
# _framework density 21.238187
#
# number of rings (size 3 to 8) (size 9 to 14) (size 15 to 20)
#    0.000    0.800    4.000    4.200    0.000    5.200 
#    0.000    4.000    0.000    0.000    0.000    0.000 
#    0.000    0.000    0.000    0.000    0.000    0.000 
#
# Total GULP energy -223301.722379 kJ/mol
# GULP energy per Si atom -5582.543059 kJ/mol
# Density = 2.118985 g / cm^3
# Si number density = 21.238187 Si / 1000 Ang^3
#
#
#
# Elastic Constant Matrix: (Units=GPa)
#
#
# Indices 1 2 3 4 5 6 
#
# 1 110.7521 29.7260 75.4310 0.0000 0.0000 0.0000
# 2 29.7260 64.0755 24.1331 0.0000 0.0000 0.0000
# 3 75.4310 24.1331 102.3841 0.0000 0.0000 0.0000
# 4 0.0000 0.0000 0.0000 18.7637 0.0000 0.0000
# 5 0.0000 0.0000 0.0000 0.0000 17.3074 0.0000
# 6 0.0000 0.0000 0.0000 0.0000 0.0000 25.2768
#
#
#
# Elastic Compliance Matrix: (Units=1/GPa)
#
#
# Indices 1 2 3 4 5 6 
#
# 1 0.018963 -0.003880 -0.013056 0.000000 0.000000 0.000000
# 2 -0.003880 0.017921 -0.001366 0.000000 0.000000 0.000000
# 3 -0.013056 -0.001366 0.019708 0.000000 0.000000 0.000000
# 4 0.000000 0.000000 0.000000 0.053294 0.000000 0.000000
# 5 0.000000 0.000000 0.000000 0.000000 0.057779 0.000000
# 6 0.000000 0.000000 0.000000 0.000000 0.000000 0.039562
#
#
# Mechanical properties :
#
#
# Convention : Reuss Voigt Hill
#
# Bulk Modulus (GPa) = 50.02919 59.53243 54.78081
# Shear Modulus (GPa) = 19.96060 22.13102 21.04581
#
# Velocity S-wave (km/s) = 3.06901 3.23157 3.15134
# Velocity P-wave (km/s) = 6.01380 6.48195 6.25226
#
# Compressibility (1/GPa) = 0.01998833
#
# Stress axis : x y z
#
# Youngs Moduli (GPa) = 52.73453 55.80071 50.74024
#
# Poissons Ratio (x) = 0.21650 0.66248
# Poissons Ratio (y) = 0.20460 0.06930
# Poissons Ratio (z) = 0.68852 0.07621
#
# Static dielectric constant tensor:
#      x y z
#    x 1.737750 0.000000 0.000000 
#    y 0.000000 1.762320 0.000000 
#    z 0.000000 0.000000 2.137630 
# 
# From -- ./inp_files/14941.got.cif
#   From: 2010.05.17/outbox.cif.g08.bks.cpg/sg74_8_cif.got.tgz:14941.got - 2010.06.03 17:57:02.
