data_PCOD9540111
_publ_section_title
;
Structure prediction by ZEFSAII (Michael W. Deem and Ramdas Pophale) SiO2 
 PCOD9540111
Probable space group: I M M A
;
_chemical_formula_sum "Si O2"
_cell_formula_units_Z 88
_cell_length_a 17.698947
_cell_length_b 14.978568
_cell_length_c 14.844140
_cell_angle_alpha 90.000000
_cell_angle_beta 90.000000
_cell_angle_gamma 90.000000
_cell_volume 3935.253971
_symmetry_space_group_name_H-M "I M M A"
_symmetry_group_IT_number 74
_symmetry_cell_setting 'orthorhombic'
loop_
_space_group_symop_operation_xyz
x,y,z
-x,1/2-y,z
x,-y,-z
-x,1/2+y,-z
-x,-y,-z
x,1/2+y,-z
-x,y,z
x,1/2-y,z
1/2+x,1/2+y,1/2+z
1/2-x,-y,1/2+z
1/2+x,1/2-y,1/2-z
1/2-x,y,1/2-z
1/2-x,1/2-y,1/2-z
1/2+x,y,1/2-z
1/2-x,1/2+y,1/2+z
1/2+x,-y,1/2+z
loop_
_atom_site_type_symbol
_atom_site_label
_atom_site_fract_x
_atom_site_fract_y
_atom_site_fract_z
Si Si1 0.833265 0.402636 0.285163
Si Si2 0.582670 0.355500 0.389067
Si Si3 0.861874 0.600341 0.507683
Si Si4 0.836709 0.610441 0.240152
Si Si5 0.904656 0.750000 0.374936
Si Si6 0.306314 0.358349 0.542334
O O1 0.750000 0.374896 0.250000
O O2 0.893035 0.366382 0.213757
O O3 0.848575 0.375974 0.387621
O O4 0.837487 0.509948 0.276352
O O5 0.500000 0.394981 0.405564
O O6 0.579036 0.250000 0.408816
O O7 0.647577 0.390134 0.455336
O O8 0.891703 0.500000 0.500000
O O9 0.908393 0.672247 0.452701
O O10 0.778066 0.603398 0.462078
O O11 0.750000 0.644711 0.250000
O O12 0.890979 0.672718 0.297177
O O13 0.849063 0.613841 0.133128
O O14 0.297505 0.250000 0.542771
#
# Coordination Sequence:
#
# PCOD9540111 Si02
#       6
#    16  16  16  16   8  16
#     4  11  22  36  59  89 121 157 204 255 305 362
#     4  10  24  42  58  85 126 167 204 245 302 372
#     4  12  21  33  55  93 125 158 198 254 313 364
#     4  11  19  34  55  86 122 157 195 255 309 355
#     4  12  21  34  53  88 130 155 196 250 319 358
#     4  11  20  34  59  83 116 161 205 250 306 362
#
# _framework density 22.361961999999998
#
# number of rings (size 3 to 8) (size 9 to 14) (size 15 to 20)
#    0.000    0.909    7.273    1.364    1.273    0.364 
#    0.000    1.818    0.000    0.545    0.000    2.545 
#    0.000    0.000    0.000    0.000    0.000    0.000 
#
# Total GULP energy -245083.865761 kJ/mol
# GULP energy per Si atom -5570.087858 kJ/mol
# Density = 2.231106 g / cm^3
# Si number density = 22.361962 Si / 1000 Ang^3
#
#
#
# Elastic Constant Matrix: (Units=GPa)
#
#
# Indices 1 2 3 4 5 6 
#
# 1 46.5790 7.2658 -7.5376 0.0000 0.0000 0.0000
# 2 7.2658 73.3135 8.9786 0.0000 0.0000 0.0000
# 3 -7.5376 8.9786 153.6287 0.0000 0.0000 0.0000
# 4 0.0000 0.0000 0.0000 35.8272 0.0000 0.0000
# 5 0.0000 0.0000 0.0000 0.0000 -12.8421 0.0000
# 6 0.0000 0.0000 0.0000 0.0000 0.0000 -1.8413
#
#
#
# Elastic Compliance Matrix: (Units=1/GPa)
#
#
# Indices 1 2 3 4 5 6 
#
# 1 0.022030 -0.002332 0.001217 0.000000 0.000000 0.000000
# 2 -0.002332 0.013985 -0.000932 0.000000 0.000000 0.000000
# 3 0.001217 -0.000932 0.006623 0.000000 0.000000 0.000000
# 4 0.000000 0.000000 0.000000 0.027912 0.000000 0.000000
# 5 0.000000 0.000000 0.000000 0.000000 -0.077869 0.000000
# 6 0.000000 0.000000 0.000000 0.000000 0.000000 -0.543097
#
#
# Mechanical properties :
#
#
# Convention : Reuss Voigt Hill
#
# Bulk Modulus (GPa) = 25.94408 32.32610 29.13509
# Shear Modulus (GPa) = -9.37254 21.88305 6.25525
#
# Velocity S-wave (km/s) = -2.04948 3.13163 1.67432
# Velocity P-wave (km/s) = 2.45490 5.25008 4.09816
#
# Compressibility (1/GPa) = 0.03854444
#
# Stress axis : x y z
#
# Youngs Moduli (GPa) = 45.39333 71.50360 150.98040
#
# Poissons Ratio (x) = 0.16677 -0.18377
# Poissons Ratio (y) = 0.10587 0.14068
# Poissons Ratio (z) = -0.05525 0.06663
#
# Static dielectric constant tensor:
#      x y z
#    x 1.889730 0.000000 0.000000 
#    y 0.000000 1.835830 0.000000 
#    z 0.000000 0.000000 1.817940 
# 
# From -- ./inp_files/35151.got.cif
#   From: 2010.05.17/outbox.cif.g08.bks.cpg/sg74_18_cif.got.tgz:35151.got - 2010.06.03 17:57:02.
