data_PCOD9540663
_publ_section_title
;
Structure prediction by ZEFSAII (Michael W. Deem and Ramdas Pophale) SiO2 
 PCOD9540663
Probable space group: I M M A
;
_chemical_formula_sum "Si O2"
_cell_formula_units_Z 56
_cell_length_a 21.940118
_cell_length_b 13.286854
_cell_length_c 9.182452
_cell_angle_alpha 90.000000
_cell_angle_beta 90.000000
_cell_angle_gamma 90.000000
_cell_volume 2676.823823
_symmetry_space_group_name_H-M "I M M A"
_symmetry_group_IT_number 74
_symmetry_cell_setting 'orthorhombic'
loop_
_space_group_symop_operation_xyz
x,y,z
-x,1/2-y,z
x,-y,-z
-x,1/2+y,-z
-x,-y,-z
x,1/2+y,-z
-x,y,z
x,1/2-y,z
1/2+x,1/2+y,1/2+z
1/2-x,-y,1/2+z
1/2+x,1/2-y,1/2-z
1/2-x,y,1/2-z
1/2-x,1/2-y,1/2-z
1/2+x,y,1/2-z
1/2-x,1/2+y,1/2+z
1/2+x,-y,1/2+z
loop_
_atom_site_type_symbol
_atom_site_label
_atom_site_fract_x
_atom_site_fract_y
_atom_site_fract_z
Si Si1 0.431324 0.575918 0.212025
Si Si2 0.340171 0.250000 0.296889
Si Si3 0.064423 0.250000 0.950531
Si Si4 0.429785 0.250000 0.025996
Si Si5 0.189676 0.025714 0.172252
O O1 0.500000 0.529327 0.201086
O O2 0.433123 0.653124 0.347527
O O3 0.422414 0.350238 0.926165
O O4 0.373119 0.506960 0.246098
O O5 0.383268 0.250000 0.436141
O O6 0.380894 0.250000 0.152297
O O7 0.306162 0.145260 0.311330
O O8 0.000000 0.250000 0.030151
O O9 0.500000 0.250000 0.077034
O O10 0.250000 0.980085 0.250000
O O11 0.187005 0.000000 0.000000
#
# Coordination Sequence:
#
# PCOD9540663 Si02
#       5
#    16   8   8   8  16
#     4   9  20  43  71  98 132 178 223 267 331 404
#     4  12  24  42  65 100 135 173 222 284 328 395
#     4   9  17  36  66 100 131 163 216 277 326 384
#     4   9  21  40  68 107 143 174 215 275 342 398
#     4  12  28  47  68  98 135 178 228 278 338 401
#
# _framework density 20.920314999999999
#
# number of rings (size 3 to 8) (size 9 to 14) (size 15 to 20)
#    0.000    1.714    2.857    2.571    4.000    2.857 
#    0.000    6.429    0.000    0.000    0.000    0.000 
#    0.000    0.000    0.000    0.000    0.000    0.000 
#
# Total GULP energy -156304.065227 kJ/mol
# GULP energy per Si atom -5582.288044 kJ/mol
# Density = 2.087270 g / cm^3
# Si number density = 20.920315 Si / 1000 Ang^3
#
#
#
# Elastic Constant Matrix: (Units=GPa)
#
#
# Indices 1 2 3 4 5 6 
#
# 1 121.3494 51.9208 54.5268 0.0000 0.0000 0.0000
# 2 51.9208 95.1047 19.2313 0.0000 0.0000 0.0000
# 3 54.5268 19.2313 115.0658 0.0000 0.0000 0.0000
# 4 0.0000 0.0000 0.0000 5.7709 0.0000 0.0000
# 5 0.0000 0.0000 0.0000 0.0000 37.9915 0.0000
# 6 0.0000 0.0000 0.0000 0.0000 0.0000 6.1126
#
#
#
# Elastic Compliance Matrix: (Units=1/GPa)
#
#
# Indices 1 2 3 4 5 6 
#
# 1 0.013233 -0.006165 -0.005240 0.000000 0.000000 0.000000
# 2 -0.006165 0.013754 0.000622 0.000000 0.000000 0.000000
# 3 -0.005240 0.000622 0.011070 0.000000 0.000000 0.000000
# 4 0.000000 0.000000 0.000000 0.173283 0.000000 0.000000
# 5 0.000000 0.000000 0.000000 0.000000 0.026322 0.000000
# 6 0.000000 0.000000 0.000000 0.000000 0.000000 0.163597
#
#
# Mechanical properties :
#
#
# Convention : Reuss Voigt Hill
#
# Bulk Modulus (GPa) = 60.63544 64.76420 62.69982
# Shear Modulus (GPa) = 11.67347 23.69773 17.68560
#
# Velocity S-wave (km/s) = 2.36476 3.36930 2.91069
# Velocity P-wave (km/s) = 6.04177 6.79419 6.42900
#
# Compressibility (1/GPa) = 0.01649200
#
# Stress axis : x y z
#
# Youngs Moduli (GPa) = 75.56851 72.70430 90.33449
#
# Poissons Ratio (x) = 0.44820 0.47340
# Poissons Ratio (y) = 0.46585 -0.05623
# Poissons Ratio (z) = 0.39601 -0.04526
#
# Static dielectric constant tensor:
#      x y z
#    x 1.758790 0.000000 0.000000 
#    y 0.000000 1.751890 0.000000 
#    z 0.000000 0.000000 1.713990 
# 
# From -- ./inp_files/18376.got.cif
#   From: 2010.05.17/outbox.cif.g08.bks.cpg/sg74_10_cif.got.tgz:18376.got - 2010.06.03 17:57:02.
