data_PCOD9540022
_publ_section_title
;
Structure prediction by ZEFSAII (Michael W. Deem and Ramdas Pophale) SiO2 
 PCOD9540022
Probable space group: I M M A
;
_chemical_formula_sum "Si O2"
_cell_formula_units_Z 96
_cell_length_a 13.733943
_cell_length_b 26.216234
_cell_length_c 13.495921
_cell_angle_alpha 90.000000
_cell_angle_beta 90.000000
_cell_angle_gamma 90.000000
_cell_volume 4859.236903
_symmetry_space_group_name_H-M "I M M A"
_symmetry_group_IT_number 74
_symmetry_cell_setting 'orthorhombic'
loop_
_space_group_symop_operation_xyz
x,y,z
-x,1/2-y,z
x,-y,-z
-x,1/2+y,-z
-x,-y,-z
x,1/2+y,-z
-x,y,z
x,1/2-y,z
1/2+x,1/2+y,1/2+z
1/2-x,-y,1/2+z
1/2+x,1/2-y,1/2-z
1/2-x,y,1/2-z
1/2-x,1/2-y,1/2-z
1/2+x,y,1/2-z
1/2-x,1/2+y,1/2+z
1/2+x,-y,1/2+z
loop_
_atom_site_type_symbol
_atom_site_label
_atom_site_fract_x
_atom_site_fract_y
_atom_site_fract_z
Si Si1 0.252719 0.834653 0.402514
Si Si2 0.615848 0.579040 0.078565
Si Si3 0.115658 0.959708 0.629136
Si Si4 0.616841 0.983978 0.658610
Si Si5 0.616085 0.421583 0.539937
Si Si6 0.385600 0.250000 0.701506
Si Si7 0.887576 0.750000 0.441079
O O1 0.178158 0.878668 0.363512
O O2 0.331153 0.868178 0.459964
O O3 0.320815 0.798195 0.335005
O O4 0.178836 0.798946 0.464605
O O5 0.500000 0.590299 0.086865
O O6 0.629758 0.520228 0.109565
O O7 0.648502 0.575426 0.962396
O O8 0.149266 0.955894 0.741985
O O9 0.000000 0.951661 0.627014
O O10 0.500000 0.988066 0.666879
O O11 0.637382 0.951551 0.561074
O O12 0.648968 0.041498 0.630999
O O13 0.500000 0.415592 0.547567
O O14 0.500000 0.250000 0.667438
O O15 0.390301 0.250000 0.820478
O O16 0.000000 0.750000 0.475673
#
# Coordination Sequence:
#
# PCOD9540022 Si02
#       7
#    16  16  16  16  16   8   8
#     4  11  20  33  53  76  99 129 166 208 255 303
#     4   9  18  31  48  74 106 140 178 212 246 295
#     4   8  15  29  47  70 107 148 177 207 248 292
#     4   8  15  29  47  70 107 148 177 207 248 292
#     4   9  18  31  48  74 106 140 178 212 246 295
#     4  10  23  41  56  73  99 128 162 208 262 318
#     4  10  23  41  56  73  99 128 162 208 262 318
#
# _framework density 19.756188000000002
#
# number of rings (size 3 to 8) (size 9 to 14) (size 15 to 20)
#    0.000    2.833    0.000    4.000    0.000    5.333 
#    0.000    5.833    0.000    0.000    0.000    9.333 
#    0.000   26.667    0.000    0.000    0.000    0.000 
#
# Total GULP energy -267272.265876 kJ/mol
# GULP energy per Si atom -5568.172206 kJ/mol
# Density = 1.971122 g / cm^3
# Si number density = 19.756188 Si / 1000 Ang^3
#
#
#
# Elastic Constant Matrix: (Units=GPa)
#
#
# Indices 1 2 3 4 5 6 
#
# 1 153.0670 39.5856 9.8324 0.0000 0.0000 0.0000
# 2 39.5856 93.8664 20.6871 0.0001 0.0000 0.0000
# 3 9.8324 20.6871 63.8883 0.0000 0.0000 0.0000
# 4 0.0000 0.0001 0.0000 10.5386 0.0000 0.0000
# 5 0.0000 0.0000 0.0000 0.0000 -3.5175 0.0000
# 6 0.0000 0.0000 0.0000 0.0000 0.0000 39.7542
#
#
#
# Elastic Compliance Matrix: (Units=1/GPa)
#
#
# Indices 1 2 3 4 5 6 
#
# 1 0.007334 -0.003063 -0.000137 0.000000 0.000000 0.000000
# 2 -0.003063 0.012751 -0.003657 0.000000 0.000000 0.000000
# 3 -0.000137 -0.003657 0.016858 0.000000 0.000000 0.000000
# 4 0.000000 0.000000 0.000000 0.094889 0.000000 0.000000
# 5 0.000000 0.000000 0.000000 0.000000 -0.284293 0.000000
# 6 0.000000 0.000000 0.000000 0.000000 0.000000 0.025155
#
#
# Mechanical properties :
#
#
# Convention : Reuss Voigt Hill
#
# Bulk Modulus (GPa) = 43.05070 50.11466 46.58268
# Shear Modulus (GPa) = -47.23708 25.40283 -10.91712
#
# Velocity S-wave (km/s) = -4.89509 3.58972 -2.35328
# Velocity P-wave (km/s) = 3.17977 6.52710 4.03064
#
# Compressibility (1/GPa) = 0.02322843
#
# Stress axis : x y z
#
# Youngs Moduli (GPa) = 136.35215 78.42443 59.32006
#
# Poissons Ratio (x) = 0.24019 0.00813
# Poissons Ratio (y) = 0.41761 0.21696
# Poissons Ratio (z) = 0.01868 0.28684
#
# Static dielectric constant tensor:
#      x y z
#    x 1.780340 0.000000 0.000000 
#    y 0.000000 1.645730 0.000000 
#    z 0.000000 0.000000 1.754770 
# 
# From -- ./inp_files/32646.got.cif
#   From: 2010.05.17/outbox.cif.g08.bks.cpg/sg74_17_cif.got.tgz:32646.got - 2010.06.03 17:57:02.
