data_PCOD9540073
_publ_section_title
;
Structure prediction by ZEFSAII (Michael W. Deem and Ramdas Pophale) SiO2 
 PCOD9540073
Probable space group: I M M A
;
_chemical_formula_sum "Si O2"
_cell_formula_units_Z 60
_cell_length_a 30.134022
_cell_length_b 19.417521
_cell_length_c 5.009070
_cell_angle_alpha 90.000000
_cell_angle_beta 90.000000
_cell_angle_gamma 90.000000
_cell_volume 2930.947136
_symmetry_space_group_name_H-M "I M M A"
_symmetry_group_IT_number 74
_symmetry_cell_setting 'orthorhombic'
loop_
_space_group_symop_operation_xyz
x,y,z
-x,1/2-y,z
x,-y,-z
-x,1/2+y,-z
-x,-y,-z
x,1/2+y,-z
-x,y,z
x,1/2-y,z
1/2+x,1/2+y,1/2+z
1/2-x,-y,1/2+z
1/2+x,1/2-y,1/2-z
1/2-x,y,1/2-z
1/2-x,1/2-y,1/2-z
1/2+x,y,1/2-z
1/2-x,1/2+y,1/2+z
1/2+x,-y,1/2+z
loop_
_atom_site_type_symbol
_atom_site_label
_atom_site_fract_x
_atom_site_fract_y
_atom_site_fract_z
Si Si1 0.051333 0.952451 0.761032
Si Si2 0.614308 0.828819 0.901053
Si Si3 0.827658 0.142529 0.904755
Si Si4 0.750000 0.250000 0.750000
Si Si5 0.281118 0.000000 0.500000
O O1 0.078793 0.884045 0.700841
O O2 0.000000 0.935258 0.825870
O O3 0.051974 0.000000 0.500000
O O4 0.069539 0.000000 0.000000
O O5 0.598215 0.750000 0.900429
O O6 0.655304 0.834985 0.695452
O O7 0.632770 0.847548 0.192822
O O8 0.787275 0.190417 0.815992
O O9 0.811043 0.064432 0.917080
O O10 0.250000 0.980288 0.750000
#
# Coordination Sequence:
#
# PCOD9540073 Si02
#       5
#    16  16  16   4   8
#     4  10  23  44  70 100 134 175 217 269 339 406
#     4  12  25  44  65 102 132 172 226 275 336 397
#     4  12  27  42  68  94 133 176 224 282 335 394
#     4  12  24  50  64  90 134 184 216 282 332 406
#     4  12  26  44  62  94 127 172 235 280 338 396
#
# _framework density 20.471195999999999
#
# number of rings (size 3 to 8) (size 9 to 14) (size 15 to 20)
#    0.000    0.533    4.000    3.200    5.600    1.600 
#    0.000    0.000    0.000    8.000    0.000    0.000 
#    0.000    0.000    0.000    0.000    0.000    0.000 
#
# Total GULP energy -167395.154722 kJ/mol
# GULP energy per Si atom -5579.838491 kJ/mol
# Density = 2.042460 g / cm^3
# Si number density = 20.471196 Si / 1000 Ang^3
#
#
#
# Elastic Constant Matrix: (Units=GPa)
#
#
# Indices 1 2 3 4 5 6 
#
# 1 54.5311 60.1221 -10.7929 0.0000 0.0000 0.0000
# 2 60.1221 216.3804 12.1844 0.0000 0.0000 0.0000
# 3 -10.7929 12.1844 76.6894 0.0000 0.0000 0.0000
# 4 0.0000 0.0000 0.0000 3.4131 0.0000 0.0000
# 5 0.0000 0.0000 0.0000 0.0000 4.2716 0.0000
# 6 0.0000 0.0000 0.0000 0.0000 0.0000 -211.7367
#
#
#
# Elastic Compliance Matrix: (Units=1/GPa)
#
#
# Indices 1 2 3 4 5 6 
#
# 1 0.028424 -0.008196 0.005303 0.000000 0.000000 0.000000
# 2 -0.008196 0.007027 -0.002270 0.000000 0.000000 0.000000
# 3 0.005303 -0.002270 0.014147 0.000000 0.000000 0.000000
# 4 0.000000 0.000000 0.000000 0.292990 0.000000 0.000000
# 5 0.000000 0.000000 0.000000 0.000000 0.234103 0.000000
# 6 0.000000 0.000000 0.000000 0.000000 0.000000 -0.004723
#
#
# Mechanical properties :
#
#
# Convention : Reuss Voigt Hill
#
# Bulk Modulus (GPa) = 25.46467 52.29200 38.87833
# Shear Modulus (GPa) = 8.39792 -21.73792 -6.67000
#
# Velocity S-wave (km/s) = 2.02761 -3.26218 -1.80702
# Velocity P-wave (km/s) = 4.23650 3.37795 3.83135
#
# Compressibility (1/GPa) = 0.03927010
#
# Stress axis : x y z
#
# Youngs Moduli (GPa) = 35.18097 142.31400 70.68882
#
# Poissons Ratio (x) = 1.16647 -0.37483
# Poissons Ratio (y) = 0.28836 0.16046
# Poissons Ratio (z) = -0.18655 0.32304
#
# Static dielectric constant tensor:
#      x y z
#    x 1.716730 0.000000 0.000000 
#    y 0.000000 1.626390 0.000000 
#    z 0.000000 0.000000 1.728230 
# 
# From -- ./inp_files/4273.got.cif
#   From: 2010.05.17/outbox.cif.g08.bks.cpg/sg74_3_cif.got.tgz:4273.got - 2010.06.03 17:57:02.
