data_PCOD9540770
_publ_section_title
;
Structure prediction by ZEFSAII (Michael W. Deem and Ramdas Pophale) SiO2 
 PCOD9540770
Probable space group: I M M A
;
_chemical_formula_sum "Si O2"
_cell_formula_units_Z 80
_cell_length_a 16.353527
_cell_length_b 7.351368
_cell_length_c 30.242650
_cell_angle_alpha 90.000000
_cell_angle_beta 90.000000
_cell_angle_gamma 90.000000
_cell_volume 3635.795428
_symmetry_space_group_name_H-M "I M M A"
_symmetry_group_IT_number 74
_symmetry_cell_setting 'orthorhombic'
loop_
_space_group_symop_operation_xyz
x,y,z
-x,1/2-y,z
x,-y,-z
-x,1/2+y,-z
-x,-y,-z
x,1/2+y,-z
-x,y,z
x,1/2-y,z
1/2+x,1/2+y,1/2+z
1/2-x,-y,1/2+z
1/2+x,1/2-y,1/2-z
1/2-x,y,1/2-z
1/2-x,1/2-y,1/2-z
1/2+x,y,1/2-z
1/2-x,1/2+y,1/2+z
1/2+x,-y,1/2+z
loop_
_atom_site_type_symbol
_atom_site_label
_atom_site_fract_x
_atom_site_fract_y
_atom_site_fract_z
Si Si1 0.092966 0.971887 0.861487
Si Si2 0.638756 0.966880 0.950457
Si Si3 0.000000 0.471851 0.282435
Si Si4 0.675333 0.032842 0.450777
Si Si5 0.000000 0.527223 0.615612
Si Si6 0.163519 0.028139 0.230147
O O1 0.092828 0.750000 0.861803
O O2 0.123883 0.034490 0.909247
O O3 0.149832 0.026975 0.820675
O O4 0.000000 0.028641 0.853058
O O5 0.643515 0.750000 0.945058
O O6 0.731478 0.038593 0.948812
O O7 0.578967 0.033458 0.912270
O O8 0.606382 0.000000 0.000000
O O9 0.916780 0.528579 0.257730
O O10 0.000000 0.250000 0.281489
O O11 0.000000 0.528975 0.333540
O O12 0.679713 0.250000 0.446090
O O13 0.642037 0.000000 0.500000
O O14 0.000000 0.750000 0.615575
O O15 0.164238 0.250000 0.231156
O O16 0.250000 0.967657 0.250000
#
# Coordination Sequence:
#
# PCOD9540770 Si02
#       6
#    16  16   8  16   8  16
#     4   9  16  27  41  58  83 114 144 176 216 260
#     4   9  17  29  43  61  86 116 147 179 215 257
#     4   9  16  25  35  56  85 111 143 179 214 261
#     4   9  18  30  45  64  88 115 146 182 218 258
#     4   9  17  25  38  58  84 115 145 177 216 257
#     4   9  16  24  37  56  82 115 145 175 215 263
#
# _framework density 22.003437000000002
#
# number of rings (size 3 to 8) (size 9 to 14) (size 15 to 20)
#    0.000    3.000    1.000    0.300    2.800    0.400 
#    0.000    0.000    0.000    0.000    0.000    0.000 
#    0.000    4.000    0.000    0.000    0.000    0.000 
#
# Total GULP energy -223347.730205 kJ/mol
# GULP energy per Si atom -5583.693255 kJ/mol
# Density = 2.195336 g / cm^3
# Si number density = 22.003437 Si / 1000 Ang^3
#
#
#
# Elastic Constant Matrix: (Units=GPa)
#
#
# Indices 1 2 3 4 5 6 
#
# 1 138.3805 2.8447 103.6638 0.0000 0.0000 0.0000
# 2 2.8447 82.4326 -0.9270 0.0000 0.0000 0.0000
# 3 103.6638 -0.9270 213.4056 0.0000 0.0000 0.0000
# 4 0.0000 0.0000 0.0000 10.8142 0.0000 0.0000
# 5 0.0000 0.0000 0.0000 0.0000 30.1957 0.0000
# 6 0.0000 0.0000 0.0000 0.0000 0.0000 -708.7340
#
#
#
# Elastic Compliance Matrix: (Units=1/GPa)
#
#
# Indices 1 2 3 4 5 6 
#
# 1 0.011377 -0.000455 -0.005529 0.000000 0.000000 0.000000
# 2 -0.000455 0.012150 0.000274 0.000000 0.000000 0.000000
# 3 -0.005529 0.000274 0.007373 0.000000 0.000000 0.000000
# 4 0.000000 0.000000 0.000000 0.092471 0.000000 0.000000
# 5 0.000000 0.000000 0.000000 0.000000 0.033117 0.000000
# 6 0.000000 0.000000 0.000000 0.000000 0.000000 -0.001411
#
#
# Mechanical properties :
#
#
# Convention : Reuss Voigt Hill
#
# Bulk Modulus (GPa) = 51.33340 71.70908 61.52124
# Shear Modulus (GPa) = 28.90327 -111.63569 -41.36621
#
# Velocity S-wave (km/s) = 3.62827 -7.13062 -4.34059
# Velocity P-wave (km/s) = 6.39787 5.92736 1.70282
#
# Compressibility (1/GPa) = 0.01948049
#
# Stress axis : x y z
#
# Youngs Moduli (GPa) = 87.89316 82.30525 135.63541
#
# Poissons Ratio (x) = 0.03743 0.74988
# Poissons Ratio (y) = 0.03997 -0.03712
# Poissons Ratio (z) = 0.48593 -0.02253
#
# Static dielectric constant tensor:
#      x y z
#    x 1.773910 0.000000 0.000000 
#    y 0.000000 1.865890 0.000000 
#    z 0.000000 0.000000 1.768680 
# 
# From -- ./inp_files/60703.got.cif
#   From: 2010.05.17/outbox.cif.g08.bks.cpg/sg74_31_cif.got.tgz:60703.got - 2010.06.03 17:57:02.
