data_PCOD9540968
_publ_section_title
;
Structure prediction by ZEFSAII (Michael W. Deem and Ramdas Pophale) SiO2 
 PCOD9540968
Probable space group: I M M A
;
_chemical_formula_sum "Si O2"
_cell_formula_units_Z 36
_cell_length_a 15.000000
_cell_length_b 9.000000
_cell_length_c 27.000000
_cell_angle_alpha 90.000000
_cell_angle_beta 90.000000
_cell_angle_gamma 90.000000
_cell_volume 3645.000000
_symmetry_space_group_name_H-M "I M M A"
_symmetry_group_IT_number 74
_symmetry_cell_setting 'orthorhombic'
loop_
_space_group_symop_operation_xyz
x,y,z
-x,1/2-y,z
x,-y,-z
-x,1/2+y,-z
-x,-y,-z
x,1/2+y,-z
-x,y,z
x,1/2-y,z
1/2+x,1/2+y,1/2+z
1/2-x,-y,1/2+z
1/2+x,1/2-y,1/2-z
1/2-x,y,1/2-z
1/2-x,1/2-y,1/2-z
1/2+x,y,1/2-z
1/2-x,1/2+y,1/2+z
1/2+x,-y,1/2+z
loop_
_atom_site_type_symbol
_atom_site_label
_atom_site_fract_x
_atom_site_fract_y
_atom_site_fract_z
Si Si1 0.000000 0.931398 0.056938
Si Si2 0.393970 0.081453 0.049239
Si Si3 0.124924 0.576205 0.860522
Si Si4 0.166151 0.077550 0.345821
Si Si5 0.896687 0.579280 0.246700
O O1 0.000000 0.750000 0.054024
O O2 0.918629 0.990593 0.092505
O O3 0.000000 0.000000 0.000000
O O4 0.500000 0.091017 0.042606
O O5 0.357376 0.250000 0.050668
O O6 0.380536 0.015205 0.104406
O O7 0.358014 0.000000 0.000000
O O8 0.097738 0.750000 0.861360
O O9 0.231186 0.573701 0.861463
O O10 0.104952 0.503333 0.806564
O O11 0.137096 0.250000 0.338745
O O12 0.153422 0.996893 0.293014
O O13 0.866673 0.750000 0.239851
O O14 0.000000 0.580555 0.262293
#
# Coordination Sequence:
#
# PCOD9540968 Si02
#       5
#     8  16  16  16  16
#     4  12  26  46  70  94 122 162 211 260 315 376
#     4   9  18  34  55  79 112 152 192 238 290 349
#     4  11  23  41  64  90 121 158 201 255 313 371
#     4  10  22  38  59  89 121 157 204 251 306 372
#     4  11  23  38  59  89 125 164 205 250 305 368
#
# _framework density 9.8765429999999999
#
# number of rings (size 3 to 8) (size 9 to 14) (size 15 to 20)
#    0.000    1.556    1.111    3.667    0.000    8.444 
#    0.000    4.444    0.000    0.000    0.000    0.000 
#    0.000    0.000    0.000    0.000    0.000    0.000 
#
# Total GULP energy -200652.994923 kJ/mol
# GULP energy per Si atom -5573.694303 kJ/mol
# Density = 0.985406 g / cm^3
# Si number density = 9.876543 Si / 1000 Ang^3
#
#
#
# Elastic Constant Matrix: (Units=GPa)
#
#
# Indices 1 2 3 4 5 6 
#
# 1 61.8399 20.1290 25.9495 0.0000 0.0000 0.0000
# 2 20.1290 136.3605 88.8233 0.0000 0.0000 0.0000
# 3 25.9495 88.8233 209.8490 0.0000 0.0000 0.0000
# 4 0.0000 0.0000 0.0000 45.7001 0.0000 0.0000
# 5 0.0000 0.0000 0.0000 0.0000 7.8036 0.0000
# 6 0.0000 0.0000 0.0000 0.0000 0.0000 22.2864
#
#
#
# Elastic Compliance Matrix: (Units=1/GPa)
#
#
# Indices 1 2 3 4 5 6 
#
# 1 0.017306 -0.001602 -0.001462 0.000000 0.000000 0.000000
# 2 -0.001602 0.010274 -0.004150 0.000000 0.000000 0.000000
# 3 -0.001462 -0.004150 0.006703 0.000000 0.000000 0.000000
# 4 0.000000 0.000000 0.000000 0.021882 0.000000 0.000000
# 5 0.000000 0.000000 0.000000 0.000000 0.128147 0.000000
# 6 0.000000 0.000000 0.000000 0.000000 0.000000 0.044870
#
#
# Mechanical properties :
#
#
# Convention : Reuss Voigt Hill
#
# Bulk Modulus (GPa) = 50.37010 75.31699 62.84354
# Shear Modulus (GPa) = 19.98180 33.36786 26.67483
#
# Velocity S-wave (km/s) = 3.18398 4.11450 3.67878
# Velocity P-wave (km/s) = 6.25078 7.79642 7.06599
#
# Compressibility (1/GPa) = 0.01985305
#
# Stress axis : x y z
#
# Youngs Moduli (GPa) = 57.78422 97.33756 149.19120
#
# Poissons Ratio (x) = 0.15598 0.21807
# Poissons Ratio (y) = 0.09260 0.61919
# Poissons Ratio (z) = 0.08446 0.40398
#
# Static dielectric constant tensor:
#      x y z
#    x 1.752660 0.000000 0.000000 
#    y 0.000000 1.723280 0.000000 
#    z 0.000000 0.000000 1.675130 
# 
# From -- ./inp_files/56692.got.cif
#   From: 2010.05.17/outbox.ucp.g08.bks.cvg/sg74_29_cif.got.tgz:56692.got - 2010.06.11 16:37:44.
