data_PCOD9540357
_publ_section_title
;
Structure prediction by ZEFSAII (Michael W. Deem and Ramdas Pophale) SiO2 
 PCOD9540357
Probable space group: I M M A
;
_chemical_formula_sum "Si O2"
_cell_formula_units_Z 64
_cell_length_a 14.444419
_cell_length_b 14.471756
_cell_length_c 15.316299
_cell_angle_alpha 90.000000
_cell_angle_beta 90.000000
_cell_angle_gamma 90.000000
_cell_volume 3201.659522
_symmetry_space_group_name_H-M "I M M A"
_symmetry_group_IT_number 74
_symmetry_cell_setting 'orthorhombic'
loop_
_space_group_symop_operation_xyz
x,y,z
-x,1/2-y,z
x,-y,-z
-x,1/2+y,-z
-x,-y,-z
x,1/2+y,-z
-x,y,z
x,1/2-y,z
1/2+x,1/2+y,1/2+z
1/2-x,-y,1/2+z
1/2+x,1/2-y,1/2-z
1/2-x,y,1/2-z
1/2-x,1/2-y,1/2-z
1/2+x,y,1/2-z
1/2-x,1/2+y,1/2+z
1/2+x,-y,1/2+z
loop_
_atom_site_type_symbol
_atom_site_label
_atom_site_fract_x
_atom_site_fract_y
_atom_site_fract_z
Si Si1 0.894233 0.021942 0.381523
Si Si2 0.141772 0.646844 0.774647
Si Si3 0.694687 0.355032 0.964985
Si Si4 0.896119 0.891473 0.978382
O O1 0.837910 0.926707 0.390863
O O2 0.000000 0.004763 0.407253
O O3 0.895949 0.067021 0.286763
O O4 0.846406 0.095939 0.447410
O O5 0.106101 0.750000 0.754292
O O6 0.250000 0.648396 0.750000
O O7 0.122360 0.626810 0.875791
O O8 0.660753 0.250000 0.956378
O O9 0.805805 0.353066 0.973064
O O10 0.000000 0.857422 0.999660
O O11 0.895174 0.000000 0.000000
#
# Coordination Sequence:
#
# PCOD9540357 Si02
#       4
#    16  16  16  16
#     4  11  23  38  58  90 123 157 203 251 301 355
#     4  11  21  37  62  91 124 157 197 252 306 356
#     4  11  21  38  60  86 122 159 198 245 300 360
#     4  11  22  38  61  89 123 161 198 243 301 365
#
# _framework density 19.989633000000001
#
# number of rings (size 3 to 8) (size 9 to 14) (size 15 to 20)
#    0.000    1.000    5.000    3.750    0.000    6.500 
#    0.000    0.000    0.000    8.250    0.000   10.500 
#    0.000    0.000    0.000    0.000    0.000    0.000 
#
# Total GULP energy -178635.333295 kJ/mol
# GULP energy per Si atom -5582.354165 kJ/mol
# Density = 1.994414 g / cm^3
# Si number density = 19.989633 Si / 1000 Ang^3
#
#
#
# Elastic Constant Matrix: (Units=GPa)
#
#
# Indices 1 2 3 4 5 6 
#
# 1 161.5264 42.2748 23.1128 0.0000 0.0000 0.0000
# 2 42.2748 182.1702 44.2894 0.0000 0.0000 0.0000
# 3 23.1128 44.2894 46.3169 0.0000 0.0000 0.0000
# 4 0.0000 0.0000 0.0000 7.8138 0.0000 0.0000
# 5 0.0000 0.0000 0.0000 0.0000 8.2607 0.0000
# 6 0.0000 0.0000 0.0000 0.0000 0.0000 -11.2464
#
#
#
# Elastic Compliance Matrix: (Units=1/GPa)
#
#
# Indices 1 2 3 4 5 6 
#
# 1 0.006799 -0.000981 -0.002455 0.000000 0.000000 0.000000
# 2 -0.000981 0.007294 -0.006485 0.000000 0.000000 0.000000
# 3 -0.002455 -0.006485 0.029016 0.000000 0.000000 0.000000
# 4 0.000000 0.000000 0.000000 0.127979 0.000000 0.000000
# 5 0.000000 0.000000 0.000000 0.000000 0.121055 0.000000
# 6 0.000000 0.000000 0.000000 0.000000 0.000000 -0.088917
#
#
# Mechanical properties :
#
#
# Convention : Reuss Voigt Hill
#
# Bulk Modulus (GPa) = 42.97788 67.70751 55.34270
# Shear Modulus (GPa) = 21.66166 19.65472 20.65819
#
# Velocity S-wave (km/s) = 3.29545 3.13908 3.21821
# Velocity P-wave (km/s) = 6.00223 6.86172 6.44632
#
# Compressibility (1/GPa) = 0.02326778
#
# Stress axis : x y z
#
# Youngs Moduli (GPa) = 147.08207 137.10620 34.46339
#
# Poissons Ratio (x) = 0.13450 0.08460
# Poissons Ratio (y) = 0.14428 0.22349
# Poissons Ratio (z) = 0.36105 0.88911
#
# Static dielectric constant tensor:
#      x y z
#    x 1.763490 0.000000 0.000000 
#    y 0.000000 1.703140 0.000000 
#    z 0.000000 0.000000 1.705390 
# 
# From -- ./inp_files/31689.got.cif
#   From: 2010.05.17/outbox.cif.g08.bks.cpg/sg74_16_cif.got.tgz:31689.got - 2010.06.03 17:57:02.
