data_PCOD9540141
_publ_section_title
;
Structure prediction by ZEFSAII (Michael W. Deem and Ramdas Pophale) SiO2 
 PCOD9540141
Probable space group: I M M A
;
_chemical_formula_sum "Si O2"
_cell_formula_units_Z 100
_cell_length_a 8.918006
_cell_length_b 27.978114
_cell_length_c 21.605559
_cell_angle_alpha 90.000000
_cell_angle_beta 90.000000
_cell_angle_gamma 90.000000
_cell_volume 5390.781173
_symmetry_space_group_name_H-M "I M M A"
_symmetry_group_IT_number 74
_symmetry_cell_setting 'orthorhombic'
loop_
_space_group_symop_operation_xyz
x,y,z
-x,1/2-y,z
x,-y,-z
-x,1/2+y,-z
-x,-y,-z
x,1/2+y,-z
-x,y,z
x,1/2-y,z
1/2+x,1/2+y,1/2+z
1/2-x,-y,1/2+z
1/2+x,1/2-y,1/2-z
1/2-x,y,1/2-z
1/2-x,1/2-y,1/2-z
1/2+x,y,1/2-z
1/2-x,1/2+y,1/2+z
1/2+x,-y,1/2+z
loop_
_atom_site_type_symbol
_atom_site_label
_atom_site_fract_x
_atom_site_fract_y
_atom_site_fract_z
Si Si1 0.680211 0.569843 0.442462
Si Si2 0.824374 0.696039 0.961023
Si Si3 0.168012 0.376785 0.369243
Si Si4 0.179001 0.537267 0.916740
Si Si5 0.500000 0.750000 0.709173
Si Si6 0.181948 0.750000 0.180574
Si Si7 0.679578 0.829353 0.090276
Si Si8 0.250000 0.823698 0.750000
O O1 0.500000 0.577088 0.437812
O O2 0.713883 0.559759 0.515195
O O3 0.719023 0.518496 0.412919
O O4 0.762939 0.615683 0.414266
O O5 0.810651 0.750000 0.935472
O O6 0.766686 0.657320 0.912977
O O7 0.000000 0.687919 0.974919
O O8 0.731303 0.691951 0.024087
O O9 0.236275 0.429323 0.369447
O O10 0.170284 0.355184 0.301449
O O11 0.000000 0.377233 0.394744
O O12 0.000000 0.540535 0.910082
O O13 0.369706 0.791123 0.714879
O O14 0.250000 0.750000 0.250000
O O15 0.242223 0.703457 0.142705
O O16 0.000000 0.750000 0.181729
O O17 0.500000 0.827365 0.097035
#
# Coordination Sequence:
#
# PCOD9540141 Si02
#       8
#    16  16  16  16   4   8  16   8
#     4   9  18  36  60  90 122 163 202 249 300 368
#     4  11  24  37  57  85 120 162 201 249 306 367
#     4  12  25  38  57  88 119 156 205 264 316 370
#     4   9  19  35  60  87 120 158 206 250 308 368
#     4  10  24  46  60  78 104 154 210 248 302 356
#     4  12  26  46  70  96 130 169 207 248 300 370
#     4  12  23  38  62  95 129 161 200 248 302 359
#     4  11  26  42  62  82 118 162 210 263 306 370
#
# _framework density 18.550186
#
# number of rings (size 3 to 8) (size 9 to 14) (size 15 to 20)
#    0.000    1.280    3.200    4.080    4.480    1.600 
#    0.000    1.600    1.760    0.000    0.000    0.000 
#    0.000    0.000    0.000    0.000    0.000    0.000 
#
# Total GULP energy -278685.272094 kJ/mol
# GULP energy per Si atom -5573.705442 kJ/mol
# Density = 1.850797 g / cm^3
# Si number density = 18.550186 Si / 1000 Ang^3
#
#
#
# Elastic Constant Matrix: (Units=GPa)
#
#
# Indices 1 2 3 4 5 6 
#
# 1 116.6530 65.7362 24.9759 0.0000 0.0000 0.0000
# 2 65.7362 158.4677 40.4847 0.0000 0.0000 0.0000
# 3 24.9759 40.4847 63.0103 0.0000 0.0000 0.0000
# 4 0.0000 0.0000 0.0000 -1.7794 0.0000 0.0000
# 5 0.0000 0.0000 0.0000 0.0000 17.1962 0.0000
# 6 0.0000 0.0000 0.0000 0.0000 0.0000 58.7725
#
#
#
# Elastic Compliance Matrix: (Units=1/GPa)
#
#
# Indices 1 2 3 4 5 6 
#
# 1 0.011349 -0.004257 -0.001763 0.000000 0.000000 0.000000
# 2 -0.004257 0.009147 -0.004189 0.000000 0.000000 0.000000
# 3 -0.001763 -0.004189 0.019261 0.000000 0.000000 0.000000
# 4 0.000000 0.000000 0.000000 -0.561979 0.000000 0.000000
# 5 0.000000 0.000000 0.000000 0.000000 0.058152 0.000000
# 6 0.000000 0.000000 0.000000 0.000000 0.000000 0.017015
#
#
# Mechanical properties :
#
#
# Convention : Reuss Voigt Hill
#
# Bulk Modulus (GPa) = 51.71408 66.72497 59.21953
# Shear Modulus (GPa) = -11.89940 28.63348 8.36704
#
# Velocity S-wave (km/s) = -2.53547 3.93309 2.12609
# Velocity P-wave (km/s) = 4.40079 7.52819 6.16606
#
# Compressibility (1/GPa) = 0.01933709
#
# Stress axis : x y z
#
# Youngs Moduli (GPa) = 88.11302 109.32787 51.91853
#
# Poissons Ratio (x) = 0.46546 0.09154
# Poissons Ratio (y) = 0.37514 0.21750
# Poissons Ratio (z) = 0.15535 0.45801
#
# Static dielectric constant tensor:
#      x y z
#    x 1.641880 0.000000 0.000000 
#    y 0.000000 1.664850 0.000000 
#    z 0.000000 0.000000 1.651060 
# 
# From -- ./inp_files/49371.got.cif
#   From: 2010.05.17/outbox.cif.g08.bks.cpg/sg74_25_cif.got.tgz:49371.got - 2010.06.03 17:57:02.
