data_PCOD9540822
_publ_section_title
;
Structure prediction by ZEFSAII (Michael W. Deem and Ramdas Pophale) SiO2 
 PCOD9540822
Probable space group: I M M A
;
_chemical_formula_sum "Si O2"
_cell_formula_units_Z 48
_cell_length_a 21.000000
_cell_length_b 24.000000
_cell_length_c 12.000000
_cell_angle_alpha 90.000000
_cell_angle_beta 90.000000
_cell_angle_gamma 90.000000
_cell_volume 6048.000000
_symmetry_space_group_name_H-M "I M M A"
_symmetry_group_IT_number 74
_symmetry_cell_setting 'orthorhombic'
loop_
_space_group_symop_operation_xyz
x,y,z
-x,1/2-y,z
x,-y,-z
-x,1/2+y,-z
-x,-y,-z
x,1/2+y,-z
-x,y,z
x,1/2-y,z
1/2+x,1/2+y,1/2+z
1/2-x,-y,1/2+z
1/2+x,1/2-y,1/2-z
1/2-x,y,1/2-z
1/2-x,1/2-y,1/2-z
1/2+x,y,1/2-z
1/2-x,1/2+y,1/2+z
1/2+x,-y,1/2+z
loop_
_atom_site_type_symbol
_atom_site_label
_atom_site_fract_x
_atom_site_fract_y
_atom_site_fract_z
Si Si1 0.426218 0.315494 0.680074
Si Si2 0.692576 0.478068 0.172232
Si Si3 0.732118 0.581713 0.049390
Si Si4 0.808371 0.686367 0.337757
Si Si5 0.427005 0.522916 0.678833
Si Si6 0.385250 0.416433 0.540321
O O1 0.500000 0.324874 0.711783
O O2 0.418958 0.250000 0.652184
O O3 0.374562 0.327576 0.776308
O O4 0.407530 0.356051 0.579522
O O5 0.750000 0.458372 0.250000
O O6 0.705889 0.543265 0.149013
O O7 0.624271 0.469639 0.225113
O O8 0.702222 0.445285 0.059074
O O9 0.708798 0.643807 0.066446
O O10 0.808668 0.577938 0.044525
O O11 0.811324 0.750000 0.375091
O O12 0.750000 0.681424 0.250000
O O13 0.500000 0.527760 0.712811
O O14 0.414289 0.462248 0.624358
O O15 0.410475 0.566237 0.580487
#
# Coordination Sequence:
#
# PCOD9540822 Si02
#       6
#    16  16  16  16  16  16
#     4  10  20  32  48  74 104 131 159 195 245 294
#     4  11  19  34  50  71  98 133 162 195 241 287
#     4  11  20  31  53  76  97 126 168 199 235 293
#     4  10  19  32  51  74 101 129 158 199 242 285
#     4  11  21  32  49  74 101 128 162 200 243 290
#     4  11  18  31  52  75 100 126 158 206 247 285
#
# _framework density 7.9365079999999999
#
# number of rings (size 3 to 8) (size 9 to 14) (size 15 to 20)
#    0.000    1.333    5.000    4.500    0.000    0.000 
#    0.000    2.500    0.000    1.500    0.000    0.000 
#    0.000    0.000    0.000    0.000    0.000    0.000 
#
# Total GULP energy -267693.334393 kJ/mol
# GULP energy per Si atom -5576.944467 kJ/mol
# Density = 0.791844 g / cm^3
# Si number density = 7.936508 Si / 1000 Ang^3
#
#
#
# Elastic Constant Matrix: (Units=GPa)
#
#
# Indices 1 2 3 4 5 6 
#
# 1 160.8370 41.0437 39.6349 0.0000 0.0000 0.0000
# 2 41.0437 41.2030 35.0200 0.0000 0.0000 0.0000
# 3 39.6349 35.0200 47.4763 0.0000 0.0000 0.0000
# 4 0.0000 0.0000 0.0000 11.3060 0.0000 0.0000
# 5 0.0000 0.0000 0.0000 0.0000 72.2901 0.0000
# 6 0.0000 0.0000 0.0000 0.0000 0.0000 28.1274
#
#
#
# Elastic Compliance Matrix: (Units=1/GPa)
#
#
# Indices 1 2 3 4 5 6 
#
# 1 0.008426 -0.006473 -0.002260 0.000000 0.000000 0.000000
# 2 -0.006473 0.070029 -0.046252 0.000000 0.000000 0.000000
# 3 -0.002260 -0.046252 0.057067 0.000000 0.000000 0.000000
# 4 0.000000 0.000000 0.000000 0.088449 0.000000 0.000000
# 5 0.000000 0.000000 0.000000 0.000000 0.013833 0.000000
# 6 0.000000 0.000000 0.000000 0.000000 0.000000 0.035553
#
#
# Mechanical properties :
#
#
# Convention : Reuss Voigt Hill
#
# Bulk Modulus (GPa) = 39.13488 53.43483 46.28486
# Shear Modulus (GPa) = 12.76018 31.26588 22.01303
#
# Velocity S-wave (km/s) = 2.83837 4.44300 3.72804
# Velocity P-wave (km/s) = 5.95402 7.74967 6.91042
#
# Compressibility (1/GPa) = 0.02555265
#
# Stress axis : x y z
#
# Youngs Moduli (GPa) = 118.67792 14.27972 17.52332
#
# Poissons Ratio (x) = 0.09243 0.03960
# Poissons Ratio (y) = 0.76818 0.81049
# Poissons Ratio (z) = 0.26820 0.66047
#
# Static dielectric constant tensor:
#      x y z
#    x 1.527480 0.000000 0.000000 
#    y 0.000000 1.550750 0.000000 
#    z 0.000000 0.000000 1.504280 
# 
# From -- ./inp_files/22490.got.cif
#   From: 2010.05.17/outbox.ucp.g08.bks.cvg/sg74_12_cif.got.tgz:22490.got - 2010.06.11 16:37:44.
