data_PCOD9540931
_publ_section_title
;
Structure prediction by ZEFSAII (Michael W. Deem and Ramdas Pophale) SiO2 
 PCOD9540931
Probable space group: I M M A
;
_chemical_formula_sum "Si O2"
_cell_formula_units_Z 48
_cell_length_a 9.000000
_cell_length_b 21.000000
_cell_length_c 27.000000
_cell_angle_alpha 90.000000
_cell_angle_beta 90.000000
_cell_angle_gamma 90.000000
_cell_volume 5103.000000
_symmetry_space_group_name_H-M "I M M A"
_symmetry_group_IT_number 74
_symmetry_cell_setting 'orthorhombic'
loop_
_space_group_symop_operation_xyz
x,y,z
-x,1/2-y,z
x,-y,-z
-x,1/2+y,-z
-x,-y,-z
x,1/2+y,-z
-x,y,z
x,1/2-y,z
1/2+x,1/2+y,1/2+z
1/2-x,-y,1/2+z
1/2+x,1/2-y,1/2-z
1/2-x,y,1/2-z
1/2-x,1/2-y,1/2-z
1/2+x,y,1/2-z
1/2-x,1/2+y,1/2+z
1/2+x,-y,1/2+z
loop_
_atom_site_type_symbol
_atom_site_label
_atom_site_fract_x
_atom_site_fract_y
_atom_site_fract_z
Si Si1 0.677947 0.677555 0.045335
Si Si2 0.177601 0.429744 0.371711
Si Si3 0.823602 0.823446 0.803728
Si Si4 0.179984 0.680128 0.337600
Si Si5 0.178932 0.044315 0.699336
Si Si6 0.824977 0.570555 0.978201
O O1 0.500000 0.668769 0.040153
O O2 0.713318 0.750000 0.029128
O O3 0.712271 0.673662 0.103899
O O4 0.762463 0.624048 0.014999
O O5 0.249599 0.373079 0.340465
O O6 0.216661 0.496806 0.345358
O O7 0.238596 0.426596 0.426784
O O8 0.000000 0.423970 0.371180
O O9 0.799367 0.750000 0.819466
O O10 0.750000 0.831112 0.750000
O O11 0.000000 0.834201 0.800292
O O12 0.234377 0.750000 0.320613
O O13 0.233223 0.616405 0.310773
O O14 0.000000 0.680811 0.333338
O O15 0.250000 0.020051 0.750000
O O16 0.000000 0.045165 0.703786
O O17 0.000000 0.580734 0.970125
O O18 0.803834 0.500000 0.000000
#
# Coordination Sequence:
#
# PCOD9540931 Si02
#       6
#    16  16  16  16  16  16
#     4   9  18  35  60  85 108 141 185 228 270 321
#     4  11  23  38  58  81 107 144 188 232 276 326
#     4  10  21  38  60  85 114 147 183 226 276 331
#     4   8  15  31  55  80 107 140 178 218 259 308
#     4  10  21  35  53  79 108 140 178 220 266 313
#     4  11  24  39  56  81 113 147 182 226 282 338
#
# _framework density 9.4062319999999993
#
# number of rings (size 3 to 8) (size 9 to 14) (size 15 to 20)
#    0.000    2.167    0.000    4.000    0.000    7.667 
#    0.000    0.833    0.000    1.000    0.000    0.000 
#    0.000    0.000    0.000    0.000    0.000    0.000 
#
# Total GULP energy -268012.932143 kJ/mol
# GULP energy per Si atom -5583.602753 kJ/mol
# Density = 0.938482 g / cm^3
# Si number density = 9.406232 Si / 1000 Ang^3
#
#
#
# Elastic Constant Matrix: (Units=GPa)
#
#
# Indices 1 2 3 4 5 6 
#
# 1 44.3544 48.1294 22.2332 0.0000 0.0000 0.0000
# 2 48.1294 77.3990 23.6663 0.0000 0.0000 0.0000
# 3 22.2332 23.6663 41.9144 0.0000 0.0000 0.0000
# 4 0.0000 0.0000 0.0000 34.2503 0.0000 0.0000
# 5 0.0000 0.0000 0.0000 0.0000 23.2554 0.0000
# 6 0.0000 0.0000 0.0000 0.0000 0.0000 86.3188
#
#
#
# Elastic Compliance Matrix: (Units=1/GPa)
#
#
# Indices 1 2 3 4 5 6 
#
# 1 0.078146 -0.043415 -0.016939 0.000000 0.000000 0.000000
# 2 -0.043415 0.039736 0.000593 0.000000 0.000000 0.000000
# 3 -0.016939 0.000593 0.032508 0.000000 0.000000 0.000000
# 4 0.000000 0.000000 0.000000 0.029197 0.000000 0.000000
# 5 0.000000 0.000000 0.000000 0.000000 0.043001 0.000000
# 6 0.000000 0.000000 0.000000 0.000000 0.000000 0.011585
#
#
# Mechanical properties :
#
#
# Convention : Reuss Voigt Hill
#
# Bulk Modulus (GPa) = 32.39467 39.08061 35.73764
# Shear Modulus (GPa) = 13.73691 33.40749 23.57220
#
# Velocity S-wave (km/s) = 2.70516 4.21862 3.54363
# Velocity P-wave (km/s) = 5.19753 6.67442 5.98173
#
# Compressibility (1/GPa) = 0.03086927
#
# Stress axis : x y z
#
# Youngs Moduli (GPa) = 12.79656 25.16640 30.76140
#
# Poissons Ratio (x) = 1.09259 0.52105
# Poissons Ratio (y) = 0.55556 -0.01824
# Poissons Ratio (z) = 0.21676 -0.01492
#
# Static dielectric constant tensor:
#      x y z
#    x 1.619770 0.000000 0.000000 
#    y 0.000000 1.659170 0.000000 
#    z 0.000000 0.000000 1.620810 
# 
# From -- ./inp_files/64248.got.cif
#   From: 2010.05.17/outbox.ucp.g08.bks.cvg/sg74_33_cif.got.tgz:64248.got - 2010.06.11 16:37:44.
