data_PCOD9540852
_publ_section_title
;
Structure prediction by ZEFSAII (Michael W. Deem and Ramdas Pophale) SiO2 
 PCOD9540852
Probable space group: I M M A
;
_chemical_formula_sum "Si O2"
_cell_formula_units_Z 48
_cell_length_a 15.000000
_cell_length_b 15.000000
_cell_length_c 21.000000
_cell_angle_alpha 90.000000
_cell_angle_beta 90.000000
_cell_angle_gamma 90.000000
_cell_volume 4725.000000
_symmetry_space_group_name_H-M "I M M A"
_symmetry_group_IT_number 74
_symmetry_cell_setting 'orthorhombic'
loop_
_space_group_symop_operation_xyz
x,y,z
-x,1/2-y,z
x,-y,-z
-x,1/2+y,-z
-x,-y,-z
x,1/2+y,-z
-x,y,z
x,1/2-y,z
1/2+x,1/2+y,1/2+z
1/2-x,-y,1/2+z
1/2+x,1/2-y,1/2-z
1/2-x,y,1/2-z
1/2-x,1/2-y,1/2-z
1/2+x,y,1/2-z
1/2-x,1/2+y,1/2+z
1/2+x,-y,1/2+z
loop_
_atom_site_type_symbol
_atom_site_label
_atom_site_fract_x
_atom_site_fract_y
_atom_site_fract_z
Si Si1 0.851266 0.148236 0.243077
Si Si2 0.896879 0.849748 0.388598
Si Si3 0.105940 0.842398 0.237024
Si Si4 0.732939 0.493904 0.072713
Si Si5 0.095369 0.352421 0.387378
Si Si6 0.401411 0.501104 0.653625
O O1 0.844068 0.250000 0.222156
O O2 0.750000 0.113611 0.250000
O O3 0.898338 0.144558 0.311023
O O4 0.903243 0.091209 0.192888
O O5 0.879166 0.750000 0.413281
O O6 0.888619 0.847087 0.312267
O O7 0.827662 0.923003 0.408291
O O8 0.000000 0.871773 0.404088
O O9 0.147377 0.750000 0.213741
O O10 0.000000 0.840234 0.223974
O O11 0.139039 0.928329 0.202060
O O12 0.678416 0.406429 0.089628
O O13 0.829945 0.491387 0.100437
O O14 0.743400 0.500000 0.000000
O O15 0.099377 0.250000 0.407081
O O16 0.000000 0.390679 0.408188
O O17 0.500000 0.476912 0.631937
#
# Coordination Sequence:
#
# PCOD9540852 Si02
#       6
#    16  16  16  16  16  16
#     4  10  19  35  61  91 121 146 176 228 295 360
#     4   9  19  37  61  90 120 145 175 225 292 359
#     4   8  16  33  58  88 117 140 170 222 287 351
#     4  12  26  40  55  78 112 156 206 246 274 319
#     4  10  21  38  61  89 119 147 178 228 295 358
#     4  11  23  38  59  84 114 154 195 237 286 337
#
# _framework density 10.15873
#
# number of rings (size 3 to 8) (size 9 to 14) (size 15 to 20)
#    0.000    2.000    1.667    3.000    0.000    5.333 
#    0.000    3.333    0.000    0.000    0.000    4.667 
#    0.000    0.000    0.000    0.000    0.000    0.000 
#
# Total GULP energy -267393.400666 kJ/mol
# GULP energy per Si atom -5570.695847 kJ/mol
# Density = 1.013561 g / cm^3
# Si number density = 10.158730 Si / 1000 Ang^3
#
#
#
# Elastic Constant Matrix: (Units=GPa)
#
#
# Indices 1 2 3 4 5 6 
#
# 1 112.8384 57.6091 51.4521 0.0000 0.0000 0.0000
# 2 57.6091 68.0447 61.0743 0.0000 0.0000 0.0000
# 3 51.4521 61.0743 50.5692 0.0000 0.0000 0.0000
# 4 0.0000 0.0000 0.0000 -115.4360 0.0000 0.0000
# 5 0.0000 0.0000 0.0000 0.0000 59.1318 0.0000
# 6 0.0000 0.0000 0.0000 0.0000 0.0000 20.7532
#
#
#
# Elastic Compliance Matrix: (Units=1/GPa)
#
#
# Indices 1 2 3 4 5 6 
#
# 1 0.015606 -0.012369 -0.000939 0.000000 0.000000 0.000000
# 2 -0.012369 -0.165110 0.211994 0.000000 0.000000 0.000000
# 3 -0.000939 0.211994 -0.235303 0.000000 0.000000 0.000000
# 4 0.000000 0.000000 0.000000 -0.008663 0.000000 0.000000
# 5 0.000000 0.000000 0.000000 0.000000 0.016911 0.000000
# 6 0.000000 0.000000 0.000000 0.000000 0.000000 0.048185
#
#
# Mechanical properties :
#
#
# Convention : Reuss Voigt Hill
#
# Bulk Modulus (GPa) = 79.58854 63.52482 71.55668
# Shear Modulus (GPa) = -6.92946 -3.02242 -4.97594
#
# Velocity S-wave (km/s) = -1.84878 -1.22099 -1.56666
# Velocity P-wave (km/s) = 5.89069 5.41722 5.65891
#
# Compressibility (1/GPa) = 0.01256462
#
# Stress axis : x y z
#
# Youngs Moduli (GPa) = 64.07975 -6.05658 -4.24984
#
# Poissons Ratio (x) = -0.07492 -0.00399
# Poissons Ratio (y) = 0.79262 0.90094
# Poissons Ratio (z) = 0.06018 1.28396
#
# Static dielectric constant tensor:
#      x y z
#    x 1.722210 0.000000 0.000000 
#    y 0.000000 1.751850 0.000000 
#    z 0.000000 0.000000 1.697570 
# 
# From -- ./inp_files/51841.got.cif
#   From: 2010.05.17/outbox.ucp.g08.bks.cvg/sg74_26_cif.got.tgz:51841.got - 2010.06.11 16:37:44.
