data_PCOD9540717
_publ_section_title
;
Structure prediction by ZEFSAII (Michael W. Deem and Ramdas Pophale) SiO2 
 PCOD9540717
Probable space group: I M M A
;
_chemical_formula_sum "Si O2"
_cell_formula_units_Z 80
_cell_length_a 19.532816
_cell_length_b 7.357275
_cell_length_c 27.658399
_cell_angle_alpha 90.000000
_cell_angle_beta 90.000000
_cell_angle_gamma 90.000000
_cell_volume 3974.741469
_symmetry_space_group_name_H-M "I M M A"
_symmetry_group_IT_number 74
_symmetry_cell_setting 'orthorhombic'
loop_
_space_group_symop_operation_xyz
x,y,z
-x,1/2-y,z
x,-y,-z
-x,1/2+y,-z
-x,-y,-z
x,1/2+y,-z
-x,y,z
x,1/2-y,z
1/2+x,1/2+y,1/2+z
1/2-x,-y,1/2+z
1/2+x,1/2-y,1/2-z
1/2-x,y,1/2-z
1/2-x,1/2-y,1/2-z
1/2+x,y,1/2-z
1/2-x,1/2+y,1/2+z
1/2+x,-y,1/2+z
loop_
_atom_site_type_symbol
_atom_site_label
_atom_site_fract_x
_atom_site_fract_y
_atom_site_fract_z
Si Si1 0.423621 0.028140 0.653760
Si Si2 0.716976 0.471718 0.900626
Si Si3 0.716422 0.028732 0.700207
Si Si4 0.356714 0.033792 0.554543
Si Si5 0.075104 0.467106 0.557210
O O1 0.500000 0.968200 0.666407
O O2 0.423999 0.250000 0.654041
O O3 0.361591 0.971965 0.688813
O O4 0.403199 0.969278 0.599194
O O5 0.715620 0.250000 0.902198
O O6 0.739202 0.523596 0.846635
O O7 0.778947 0.531703 0.935757
O O8 0.642558 0.537440 0.916323
O O9 0.715853 0.250000 0.701334
O O10 0.750000 0.966140 0.750000
O O11 0.354540 0.250000 0.560051
O O12 0.379804 0.000000 0.500000
O O13 0.082453 0.500000 0.500000
O O14 0.073828 0.250000 0.564508
O O15 0.000000 0.537446 0.572008
#
# Coordination Sequence:
#
# PCOD9540717 Si02
#       5
#    16  16  16  16  16
#     4   8  14  24  36  51  73  99 124 152 188 225
#     4   8  14  24  36  51  73  99 125 154 189 225
#     4   8  13  22  36  52  71  97 126 153 185 227
#     4   9  16  25  38  55  76 103 130 154 182 218
#     4   9  16  25  37  53  75 102 127 152 185 223
#
# _framework density 20.127094
#
# number of rings (size 3 to 8) (size 9 to 14) (size 15 to 20)
#    0.000    3.600    0.000    3.000    0.000    0.400 
#    0.000    1.000    0.000    6.000    0.000    0.000 
#    0.000   20.000    0.000    2.000    0.000    1.600 
#
# Total GULP energy -222963.648657 kJ/mol
# GULP energy per Si atom -5574.091216 kJ/mol
# Density = 2.008128 g / cm^3
# Si number density = 20.127094 Si / 1000 Ang^3
#
#
#
# Elastic Constant Matrix: (Units=GPa)
#
#
# Indices 1 2 3 4 5 6 
#
# 1 195.4895 6.3440 75.2878 0.0000 0.0000 0.0000
# 2 6.3440 73.0609 -3.5886 0.0000 0.0000 0.0000
# 3 75.2878 -3.5886 108.1859 0.0000 0.0000 0.0000
# 4 0.0000 0.0000 0.0000 6.5942 0.0000 0.0000
# 5 0.0000 0.0000 0.0000 0.0000 15.4167 0.0000
# 6 0.0000 0.0000 0.0000 0.0000 0.0000 -0.2941
#
#
#
# Elastic Compliance Matrix: (Units=1/GPa)
#
#
# Indices 1 2 3 4 5 6 
#
# 1 0.007041 -0.000853 -0.004928 0.000000 0.000000 0.000000
# 2 -0.000853 0.013813 0.001052 0.000000 0.000000 0.000000
# 3 -0.004928 0.001052 0.012708 0.000000 0.000000 0.000000
# 4 0.000000 0.000000 0.000000 0.151649 0.000000 0.000000
# 5 0.000000 0.000000 0.000000 0.000000 0.064865 0.000000
# 6 0.000000 0.000000 0.000000 0.000000 0.000000 -3.400464
#
#
# Mechanical properties :
#
#
# Convention : Reuss Voigt Hill
#
# Bulk Modulus (GPa) = 41.48909 59.20254 50.34582
# Shear Modulus (GPa) = -1.59597 24.25622 11.33013
#
# Velocity S-wave (km/s) = -0.89144 3.47530 2.37519
# Velocity P-wave (km/s) = 4.42705 6.75143 5.70879
#
# Compressibility (1/GPa) = 0.02410272
#
# Stress axis : x y z
#
# Youngs Moduli (GPa) = 142.02418 72.39561 78.69135
#
# Poissons Ratio (x) = 0.06179 0.38781
# Poissons Ratio (y) = 0.12121 -0.08279
# Poissons Ratio (z) = 0.69993 -0.07617
#
# Static dielectric constant tensor:
#      x y z
#    x 1.722470 0.000000 0.000000 
#    y 0.000000 1.934120 0.000000 
#    z 0.000000 0.000000 1.675620 
# 
# From -- ./inp_files/63931.got.cif
#   From: 2010.05.17/outbox.cif.g08.bks.cpg/sg74_32_cif.got.tgz:63931.got - 2010.06.03 17:57:02.
