data_PCOD9540959
_publ_section_title
;
Structure prediction by ZEFSAII (Michael W. Deem and Ramdas Pophale) SiO2 
 PCOD9540959
Probable space group: I M M A
;
_chemical_formula_sum "Si O2"
_cell_formula_units_Z 48
_cell_length_a 9.000000
_cell_length_b 24.000000
_cell_length_c 24.000000
_cell_angle_alpha 90.000000
_cell_angle_beta 90.000000
_cell_angle_gamma 90.000000
_cell_volume 5184.000000
_symmetry_space_group_name_H-M "I M M A"
_symmetry_group_IT_number 74
_symmetry_cell_setting 'orthorhombic'
loop_
_space_group_symop_operation_xyz
x,y,z
-x,1/2-y,z
x,-y,-z
-x,1/2+y,-z
-x,-y,-z
x,1/2+y,-z
-x,y,z
x,1/2-y,z
1/2+x,1/2+y,1/2+z
1/2-x,-y,1/2+z
1/2+x,1/2-y,1/2-z
1/2-x,y,1/2-z
1/2-x,1/2-y,1/2-z
1/2+x,y,1/2-z
1/2-x,1/2+y,1/2+z
1/2+x,-y,1/2+z
loop_
_atom_site_type_symbol
_atom_site_label
_atom_site_fract_x
_atom_site_fract_y
_atom_site_fract_z
Si Si1 0.330840 0.183115 0.693778
Si Si2 0.176593 0.935697 0.001660
Si Si3 0.177570 0.497664 0.689752
Si Si4 0.675302 0.901038 0.624015
Si Si5 0.176138 0.892776 0.389257
Si Si6 0.329666 0.316681 0.193327
O O1 0.500000 0.163253 0.694217
O O2 0.330236 0.250000 0.693934
O O3 0.250000 0.163742 0.750000
O O4 0.247306 0.160058 0.640489
O O5 0.259899 0.903652 0.050035
O O6 0.000000 0.935078 0.013460
O O7 0.202148 0.911180 0.940835
O O8 0.225617 0.000000 0.000000
O O9 0.250000 0.490632 0.750000
O O10 0.241171 0.552528 0.660223
O O11 0.214699 0.445704 0.649752
O O12 0.000000 0.501223 0.694963
O O13 0.500000 0.905268 0.634611
O O14 0.738571 0.842153 0.642965
O O15 0.000000 0.887695 0.390928
O O16 0.500000 0.335601 0.192602
O O17 0.327832 0.250000 0.192247
O O18 0.250000 0.335490 0.250000
#
# Coordination Sequence:
#
# PCOD9540959 Si02
#       6
#    16  16  16  16  16  16
#     4  10  21  38  61  87 117 153 192 237 289 345
#     4  10  21  39  60  82 112 154 196 235 284 340
#     4  11  23  36  53  81 115 148 184 229 283 339
#     4  11  22  37  59  84 112 148 189 234 283 336
#     4  11  23  37  58  86 115 151 192 238 287 339
#     4  10  21  38  60  85 115 150 187 231 283 338
#
# _framework density 9.2592590000000001
#
# number of rings (size 3 to 8) (size 9 to 14) (size 15 to 20)
#    0.000    1.500    1.667    3.500    0.000    7.000 
#    0.000    0.833    0.000    1.000    0.000    0.000 
#    0.000    0.000    0.000    0.000    0.000    0.000 
#
# Total GULP energy -268194.865207 kJ/mol
# GULP energy per Si atom -5587.393025 kJ/mol
# Density = 0.923818 g / cm^3
# Si number density = 9.259259 Si / 1000 Ang^3
#
#
#
# Elastic Constant Matrix: (Units=GPa)
#
#
# Indices 1 2 3 4 5 6 
#
# 1 45.5160 33.3902 72.3098 0.0000 0.0000 0.0000
# 2 33.3902 19.8834 22.4341 0.0000 0.0000 0.0000
# 3 72.3098 22.4341 21.2747 0.0000 0.0000 0.0000
# 4 0.0000 0.0000 0.0000 11.9920 0.0000 0.0000
# 5 0.0000 0.0000 0.0000 0.0000 34.6935 0.0000
# 6 0.0000 0.0000 0.0000 0.0000 0.0000 22.3261
#
#
#
# Elastic Compliance Matrix: (Units=1/GPa)
#
#
# Indices 1 2 3 4 5 6 
#
# 1 0.003489 -0.039635 0.029935 0.000000 0.000000 0.000000
# 2 -0.039635 0.185185 -0.060564 0.000000 0.000000 0.000000
# 3 0.029935 -0.060564 0.009123 0.000000 0.000000 0.000000
# 4 0.000000 0.000000 0.000000 0.083389 0.000000 0.000000
# 5 0.000000 0.000000 0.000000 0.000000 0.028824 0.000000
# 6 0.000000 0.000000 0.000000 0.000000 0.000000 0.044791
#
#
# Mechanical properties :
#
#
# Convention : Reuss Voigt Hill
#
# Bulk Modulus (GPa) = 17.46097 38.10469 27.78283
# Shear Modulus (GPa) = 9.71974 11.03833 10.37904
#
# Velocity S-wave (km/s) = 2.29348 2.44410 2.36999
# Velocity P-wave (km/s) = 4.05744 5.34659 4.74599
#
# Compressibility (1/GPa) = 0.05727060
#
# Stress axis : x y z
#
# Youngs Moduli (GPa) = 286.58693 5.40002 109.60846
#
# Poissons Ratio (x) = 0.21403 -3.28113
# Poissons Ratio (y) = 11.35881 6.63828
# Poissons Ratio (z) = -8.57898 0.32704
#
# Static dielectric constant tensor:
#      x y z
#    x 1.625490 0.000000 0.000000 
#    y 0.000000 1.656290 0.000000 
#    z 0.000000 0.000000 1.477770 
# 
# From -- ./inp_files/49062.got.cif
#   From: 2010.05.17/outbox.ucp.g08.bks.cvg/sg74_25_cif.got.tgz:49062.got - 2010.06.11 16:37:44.
