data_PCOD9540299
_publ_section_title
;
Structure prediction by ZEFSAII (Michael W. Deem and Ramdas Pophale) SiO2 
 PCOD9540299
Probable space group: I M M A
;
_chemical_formula_sum "Si O2"
_cell_formula_units_Z 96
_cell_length_a 11.605799
_cell_length_b 14.587225
_cell_length_c 31.472070
_cell_angle_alpha 90.000000
_cell_angle_beta 90.000000
_cell_angle_gamma 90.000000
_cell_volume 5328.108193
_symmetry_space_group_name_H-M "I M M A"
_symmetry_group_IT_number 74
_symmetry_cell_setting 'orthorhombic'
loop_
_space_group_symop_operation_xyz
x,y,z
-x,1/2-y,z
x,-y,-z
-x,1/2+y,-z
-x,-y,-z
x,1/2+y,-z
-x,y,z
x,1/2-y,z
1/2+x,1/2+y,1/2+z
1/2-x,-y,1/2+z
1/2+x,1/2-y,1/2-z
1/2-x,y,1/2-z
1/2-x,1/2-y,1/2-z
1/2+x,y,1/2-z
1/2-x,1/2+y,1/2+z
1/2+x,-y,1/2+z
loop_
_atom_site_type_symbol
_atom_site_label
_atom_site_fract_x
_atom_site_fract_y
_atom_site_fract_z
Si Si1 0.268216 0.852419 0.430698
Si Si2 0.367703 0.107003 0.012496
Si Si3 0.251394 0.357465 0.397044
Si Si4 0.366605 0.474098 0.863179
Si Si5 0.500000 0.137458 0.524930
Si Si6 0.367722 0.358192 0.777126
Si Si7 0.000000 0.638523 0.926820
O O1 0.287098 0.750000 0.413140
O O2 0.188664 0.845664 0.472166
O O3 0.207599 0.916099 0.396643
O O4 0.387496 0.890796 0.449208
O O5 0.500000 0.132887 0.018099
O O6 0.301704 0.128304 0.055852
O O7 0.361706 0.000000 0.000000
O O8 0.244214 0.250000 0.386274
O O9 0.183797 0.423623 0.365200
O O10 0.384303 0.386553 0.402213
O O11 0.500000 0.475702 0.877261
O O12 0.361113 0.423468 0.818110
O O13 0.500000 0.250000 0.523719
O O14 0.500000 0.106015 0.475953
O O15 0.500000 0.371794 0.758658
O O16 0.363781 0.250000 0.789159
O O17 0.250000 0.374418 0.750000
O O18 0.000000 0.750000 0.929629
#
# Coordination Sequence:
#
# PCOD9540299 Si02
#       7
#    16  16  16  16   8  16   8
#     4  11  21  34  51  73 105 144 185 231 283 330
#     4  11  21  33  47  70 105 144 190 238 275 321
#     4  11  22  37  55  75 106 149 195 239 283 329
#     4  11  23  38  56  84 116 142 179 229 277 333
#     4   9  18  33  49  69 102 145 193 238 281 329
#     4   9  19  40  68  94 122 152 178 213 270 341
#     4   9  18  35  53  69  98 147 199 240 281 327
#
# _framework density 18.017651999999998
#
# number of rings (size 3 to 8) (size 9 to 14) (size 15 to 20)
#    0.000    1.667    3.333    2.000    0.000    4.667 
#    3.000    1.667    0.000    0.500    0.000    0.000 
#    0.000    0.000    0.000    0.000    0.000    0.000 
#
# Total GULP energy -267912.592145 kJ/mol
# GULP energy per Si atom -5581.512336 kJ/mol
# Density = 1.797664 g / cm^3
# Si number density = 18.017652 Si / 1000 Ang^3
#
#
#
# Elastic Constant Matrix: (Units=GPa)
#
#
# Indices 1 2 3 4 5 6 
#
# 1 107.1791 34.7909 29.6732 0.0000 0.0000 0.0000
# 2 34.7909 85.3584 26.4261 0.0000 0.0000 0.0000
# 3 29.6732 26.4261 42.8186 0.0000 0.0000 0.0000
# 4 0.0000 0.0000 0.0000 -6.2322 0.0000 0.0000
# 5 0.0000 0.0000 0.0000 0.0000 26.4933 0.0000
# 6 0.0000 0.0000 0.0000 0.0000 0.0000 23.1576
#
#
#
# Elastic Compliance Matrix: (Units=1/GPa)
#
#
# Indices 1 2 3 4 5 6 
#
# 1 0.012094 -0.002886 -0.006600 0.000000 0.000000 0.000000
# 2 -0.002886 0.015171 -0.007363 0.000000 0.000000 0.000000
# 3 -0.006600 -0.007363 0.032472 0.000000 0.000000 0.000000
# 4 0.000000 0.000000 0.000000 -0.160456 0.000000 0.000000
# 5 0.000000 0.000000 0.000000 0.000000 0.037745 0.000000
# 6 0.000000 0.000000 0.000000 0.000000 0.000000 0.043182
#
#
# Mechanical properties :
#
#
# Convention : Reuss Voigt Hill
#
# Bulk Modulus (GPa) = 38.40345 46.34849 42.37597
# Shear Modulus (GPa) = 221.35675 18.31480 119.83578
#
# Velocity S-wave (km/s) = 11.09604 3.19171 8.16423
# Velocity P-wave (km/s) = 13.62070 6.27395 10.60391
#
# Compressibility (1/GPa) = 0.02603933
#
# Stress axis : x y z
#
# Youngs Moduli (GPa) = 82.68350 65.91447 30.79545
#
# Poissons Ratio (x) = 0.19024 0.20325
# Poissons Ratio (y) = 0.23864 0.22675
# Poissons Ratio (z) = 0.54572 0.48533
#
# Static dielectric constant tensor:
#      x y z
#    x 1.683700 0.000000 0.000000 
#    y 0.000000 2.082910 0.000000 
#    z 0.000000 0.000000 1.562300 
# 
# From -- ./inp_files/71822.got.cif
#   From: 2010.05.17/outbox.cif.g08.bks.cpg/sg74_36_cif.got.tgz:71822.got - 2010.06.03 17:57:02.
