data_PCOD9540310
_publ_section_title
;
Structure prediction by ZEFSAII (Michael W. Deem and Ramdas Pophale) SiO2 
 PCOD9540310
Probable space group: I M M A
;
_chemical_formula_sum "Si O2"
_cell_formula_units_Z 80
_cell_length_a 28.756469
_cell_length_b 8.655308
_cell_length_c 16.770310
_cell_angle_alpha 90.000000
_cell_angle_beta 90.000000
_cell_angle_gamma 90.000000
_cell_volume 4174.064691
_symmetry_space_group_name_H-M "I M M A"
_symmetry_group_IT_number 74
_symmetry_cell_setting 'orthorhombic'
loop_
_space_group_symop_operation_xyz
x,y,z
-x,1/2-y,z
x,-y,-z
-x,1/2+y,-z
-x,-y,-z
x,1/2+y,-z
-x,y,z
x,1/2-y,z
1/2+x,1/2+y,1/2+z
1/2-x,-y,1/2+z
1/2+x,1/2-y,1/2-z
1/2-x,y,1/2-z
1/2-x,1/2-y,1/2-z
1/2+x,y,1/2-z
1/2-x,1/2+y,1/2+z
1/2+x,-y,1/2+z
loop_
_atom_site_type_symbol
_atom_site_label
_atom_site_fract_x
_atom_site_fract_y
_atom_site_fract_z
Si Si1 0.207719 0.921524 0.811564
Si Si2 0.622269 0.065981 0.089217
Si Si3 0.223039 0.072479 0.582878
Si Si4 0.946042 0.064219 0.915275
Si Si5 0.611255 0.436244 0.744502
O O1 0.200662 0.750000 0.847832
O O2 0.250000 0.904103 0.750000
O O3 0.230699 0.049958 0.866850
O O4 0.160396 0.983440 0.775074
O O5 0.616889 0.250000 0.087950
O O6 0.676565 0.022356 0.104686
O O7 0.596590 0.994800 0.166956
O O8 0.611251 0.000000 0.000000
O O9 0.208868 0.250000 0.579002
O O10 0.236505 0.000000 0.500000
O O11 0.944584 0.250000 0.920503
O O12 0.920701 0.022796 0.832167
O O13 0.000000 0.014223 0.910076
O O14 0.927021 0.000000 0.000000
O O15 0.615810 0.250000 0.747791
#
# Coordination Sequence:
#
# PCOD9540310 Si02
#       5
#    16  16  16  16  16
#     4  11  22  35  51  74 109 149 190 237 285 336
#     4  11  21  35  54  79 111 149 192 236 281 335
#     4  11  21  34  52  72 101 142 189 235 282 336
#     4   9  20  40  65  92 121 152 189 237 296 357
#     4  11  22  36  58  86 115 152 194 240 293 351
#
# _framework density 19.165970000000002
#
# number of rings (size 3 to 8) (size 9 to 14) (size 15 to 20)
#    0.000    1.400    2.000    6.000    0.000    3.200 
#    0.000    2.000    0.000    0.600    0.000    0.000 
#    0.000    0.000    0.000    0.000    0.000    0.000 
#
# Total GULP energy -222778.694641 kJ/mol
# GULP energy per Si atom -5569.467366 kJ/mol
# Density = 1.912235 g / cm^3
# Si number density = 19.165970 Si / 1000 Ang^3
#
#
#
# Elastic Constant Matrix: (Units=GPa)
#
#
# Indices 1 2 3 4 5 6 
#
# 1 43.9678 20.4557 48.8153 0.0000 0.0000 0.0000
# 2 20.4557 103.5724 41.2084 0.0000 0.0000 0.0000
# 3 48.8153 41.2084 156.8421 0.0000 0.0000 0.0000
# 4 0.0000 0.0000 0.0000 27.7104 0.0000 0.0000
# 5 0.0000 0.0000 0.0000 0.0000 30.9510 0.0000
# 6 0.0000 0.0000 0.0000 0.0000 0.0000 2.2558
#
#
#
# Elastic Compliance Matrix: (Units=1/GPa)
#
#
# Indices 1 2 3 4 5 6 
#
# 1 0.035528 -0.002923 -0.010290 0.000000 0.000000 0.000000
# 2 -0.002923 0.011023 -0.001986 0.000000 0.000000 0.000000
# 3 -0.010290 -0.001986 0.010100 0.000000 0.000000 0.000000
# 4 0.000000 0.000000 0.000000 0.036087 0.000000 0.000000
# 5 0.000000 0.000000 0.000000 0.000000 0.032309 0.000000
# 6 0.000000 0.000000 0.000000 0.000000 0.000000 0.443295
#
#
# Mechanical properties :
#
#
# Convention : Reuss Voigt Hill
#
# Bulk Modulus (GPa) = 38.09084 58.37123 48.23104
# Shear Modulus (GPa) = 8.23057 25.11033 16.67045
#
# Velocity S-wave (km/s) = 2.07453 3.62353 2.95243
# Velocity P-wave (km/s) = 5.06514 6.93025 6.06976
#
# Compressibility (1/GPa) = 0.02625303
#
# Stress axis : x y z
#
# Youngs Moduli (GPa) = 28.14685 90.72215 99.00707
#
# Poissons Ratio (x) = 0.26517 1.01876
# Poissons Ratio (y) = 0.08227 0.19666
# Poissons Ratio (z) = 0.28962 0.18021
#
# Static dielectric constant tensor:
#      x y z
#    x 1.687750 0.000000 0.000000 
#    y 0.000000 1.131800 0.000000 
#    z 0.000000 0.000000 1.904250 
# 
# From -- ./inp_files/39756.got.cif
#   From: 2010.05.17/outbox.cif.g08.bks.cpg/sg74_20_cif.got.tgz:39756.got - 2010.06.03 17:57:02.
