data_PCOD9540519
_publ_section_title
;
Structure prediction by ZEFSAII (Michael W. Deem and Ramdas Pophale) SiO2 
 PCOD9540519
Probable space group: I M M A
;
_chemical_formula_sum "Si O2"
_cell_formula_units_Z 96
_cell_length_a 15.027705
_cell_length_b 15.181537
_cell_length_c 20.077211
_cell_angle_alpha 90.000000
_cell_angle_beta 90.000000
_cell_angle_gamma 90.000000
_cell_volume 4580.488390
_symmetry_space_group_name_H-M "I M M A"
_symmetry_group_IT_number 74
_symmetry_cell_setting 'orthorhombic'
loop_
_space_group_symop_operation_xyz
x,y,z
-x,1/2-y,z
x,-y,-z
-x,1/2+y,-z
-x,-y,-z
x,1/2+y,-z
-x,y,z
x,1/2-y,z
1/2+x,1/2+y,1/2+z
1/2-x,-y,1/2+z
1/2+x,1/2-y,1/2-z
1/2-x,y,1/2-z
1/2-x,1/2-y,1/2-z
1/2+x,y,1/2-z
1/2-x,1/2+y,1/2+z
1/2+x,-y,1/2+z
loop_
_atom_site_type_symbol
_atom_site_label
_atom_site_fract_x
_atom_site_fract_y
_atom_site_fract_z
Si Si1 0.210990 0.900779 0.523507
Si Si2 0.601269 0.850095 0.846926
Si Si3 0.104354 0.152130 0.837710
Si Si4 0.898194 0.356388 0.983770
Si Si5 0.152141 0.020993 0.722246
Si Si6 0.394140 0.151380 0.895887
O O1 0.165668 0.875760 0.592728
O O2 0.317033 0.885909 0.529523
O O3 0.161756 0.848353 0.464042
O O4 0.195164 0.000000 0.500000
O O5 0.500000 0.852106 0.872485
O O6 0.619555 0.750000 0.823905
O O7 0.609628 0.926323 0.791921
O O8 0.143146 0.250000 0.823623
O O9 0.135352 0.117603 0.909456
O O10 0.112301 0.084133 0.778543
O O11 0.000000 0.163890 0.849445
O O12 0.900915 0.250000 0.983870
O O13 0.000000 0.387087 0.997168
O O14 0.250000 0.005077 0.750000
O O15 0.144271 0.078780 0.654765
O O16 0.500000 0.133310 0.907337
O O17 0.388321 0.250000 0.865931
#
# Coordination Sequence:
#
# PCOD9540519 Si02
#       6
#    16  16  16  16  16  16
#     4  12  23  37  63  93 126 161 205 256 312 371
#     4  11  25  45  66  87 118 163 212 262 309 356
#     4   9  18  34  58  88 122 157 191 234 294 365
#     4   9  19  37  61  90 126 163 198 245 308 378
#     4  12  24  37  59  88 122 161 202 251 301 360
#     4  11  23  39  62  95 133 166 199 248 308 373
#
# _framework density 20.958463999999999
#
# number of rings (size 3 to 8) (size 9 to 14) (size 15 to 20)
#    0.000    1.333    1.667    6.000    0.000    6.667 
#    0.000    0.000    0.000    0.000    0.000    2.333 
#    0.000    0.000    0.000    0.000    0.000    0.000 
#
# Total GULP energy -267941.652067 kJ/mol
# GULP energy per Si atom -5582.117751 kJ/mol
# Density = 2.091076 g / cm^3
# Si number density = 20.958464 Si / 1000 Ang^3
#
#
#
# Elastic Constant Matrix: (Units=GPa)
#
#
# Indices 1 2 3 4 5 6 
#
# 1 110.7984 35.6675 39.5301 0.0000 0.0000 0.0000
# 2 35.6675 127.5125 20.1777 0.0000 0.0000 0.0000
# 3 39.5301 20.1777 31.7393 0.0000 0.0000 0.0000
# 4 0.0000 0.0000 0.0000 8.4675 0.0000 0.0000
# 5 0.0000 0.0000 0.0000 0.0000 -37.0679 0.0000
# 6 0.0000 0.0000 0.0000 0.0000 0.0000 25.8952
#
#
#
# Elastic Compliance Matrix: (Units=1/GPa)
#
#
# Indices 1 2 3 4 5 6 
#
# 1 0.016502 -0.001516 -0.019589 0.000000 0.000000 0.000000
# 2 -0.001516 0.008859 -0.003744 0.000000 0.000000 0.000000
# 3 -0.019589 -0.003744 0.058284 0.000000 0.000000 0.000000
# 4 0.000000 0.000000 0.000000 0.118099 0.000000 0.000000
# 5 0.000000 0.000000 0.000000 0.000000 -0.026978 0.000000
# 6 0.000000 0.000000 0.000000 0.000000 0.000000 0.038617
#
#
# Mechanical properties :
#
#
# Convention : Reuss Voigt Hill
#
# Bulk Modulus (GPa) = 29.45713 51.20009 40.32861
# Shear Modulus (GPa) = 18.22169 11.10395 14.66282
#
# Velocity S-wave (km/s) = 2.95179 2.30425 2.64789
# Velocity P-wave (km/s) = 5.06981 5.61799 5.35092
#
# Compressibility (1/GPa) = 0.03394764
#
# Stress axis : x y z
#
# Youngs Moduli (GPa) = 60.59705 112.88143 17.15727
#
# Poissons Ratio (x) = 0.17115 0.33610
# Poissons Ratio (y) = 0.09188 0.06423
# Poissons Ratio (z) = 1.18705 0.42257
#
# Static dielectric constant tensor:
#      x y z
#    x 1.724800 0.000000 0.000000 
#    y 0.000000 1.789850 0.000000 
#    z 0.000000 0.000000 1.762830 
# 
# From -- ./inp_files/51889.got.cif
#   From: 2010.05.17/outbox.cif.g08.bks.cpg/sg74_26_cif.got.tgz:51889.got - 2010.06.03 17:57:02.
