data_PCOD9540042
_publ_section_title
;
Structure prediction by ZEFSAII (Michael W. Deem and Ramdas Pophale) SiO2 
 PCOD9540042
Probable space group: I M M A
;
_chemical_formula_sum "Si O2"
_cell_formula_units_Z 116
_cell_length_a 8.870636
_cell_length_b 27.507937
_cell_length_c 24.206454
_cell_angle_alpha 90.000000
_cell_angle_beta 90.000000
_cell_angle_gamma 90.000000
_cell_volume 5906.686948
_symmetry_space_group_name_H-M "I M M A"
_symmetry_group_IT_number 74
_symmetry_cell_setting 'orthorhombic'
loop_
_space_group_symop_operation_xyz
x,y,z
-x,1/2-y,z
x,-y,-z
-x,1/2+y,-z
-x,-y,-z
x,1/2+y,-z
-x,y,z
x,1/2-y,z
1/2+x,1/2+y,1/2+z
1/2-x,-y,1/2+z
1/2+x,1/2-y,1/2-z
1/2-x,y,1/2-z
1/2-x,1/2-y,1/2-z
1/2+x,y,1/2-z
1/2-x,1/2+y,1/2+z
1/2+x,-y,1/2+z
loop_
_atom_site_type_symbol
_atom_site_label
_atom_site_fract_x
_atom_site_fract_y
_atom_site_fract_z
Si Si1 0.174044 0.946073 0.475562
Si Si2 0.819648 0.306383 0.587312
Si Si3 0.321952 0.645949 0.520710
Si Si4 0.500000 0.250000 0.173782
Si Si5 0.318730 0.439608 0.189087
Si Si6 0.319387 0.872079 0.193403
Si Si7 0.820488 0.464449 0.859281
Si Si8 0.667144 0.839882 0.870018
O O1 0.243262 0.906847 0.516992
O O2 0.270313 0.946563 0.419743
O O3 0.000000 0.933362 0.462755
O O4 0.177424 0.000000 0.500000
O O5 0.784099 0.250000 0.597100
O O6 0.737744 0.325260 0.532586
O O7 0.781269 0.338600 0.640705
O O8 0.000000 0.310577 0.578535
O O9 0.500000 0.640645 0.518069
O O10 0.272064 0.670481 0.577934
O O11 0.630021 0.206730 0.167448
O O12 0.500000 0.443666 0.191297
O O13 0.250000 0.443896 0.250000
O O14 0.251818 0.483170 0.152672
O O15 0.280264 0.386869 0.163698
O O16 0.500000 0.875620 0.197353
O O17 0.250000 0.852187 0.250000
O O18 0.248187 0.924943 0.182461
O O19 0.000000 0.466604 0.854451
O O20 0.500000 0.852465 0.894051
#
# Coordination Sequence:
#
# PCOD9540042 Si02
#       8
#    16  16  16   4  16  16  16  16
#     4  11  23  39  60  87 126 170 211 249 308 381
#     4  10  23  42  65  89 119 167 218 260 313 377
#     4  12  24  37  60  96 131 164 206 264 319 371
#     4   8  20  44  72  92 118 172 222 252 314 402
#     4  11  23  41  65  94 126 165 211 263 316 382
#     4  11  23  41  64  89 124 166 212 263 315 375
#     4  12  24  39  61  92 128 167 212 260 314 376
#     4   9  21  41  67  90 123 165 213 253 314 383
#
# _framework density 19.638759
#
# number of rings (size 3 to 8) (size 9 to 14) (size 15 to 20)
#    0.414    0.828    1.379    4.966    0.966    6.621 
#    0.000    0.345    0.000    0.000    0.000    0.000 
#    0.000    0.000    0.000    0.000    0.000    0.000 
#
# Total GULP energy -323569.355597 kJ/mol
# GULP energy per Si atom -5578.781993 kJ/mol
# Density = 1.959406 g / cm^3
# Si number density = 19.638759 Si / 1000 Ang^3
#
#
#
# Elastic Constant Matrix: (Units=GPa)
#
#
# Indices 1 2 3 4 5 6 
#
# 1 73.4140 14.0804 7.9358 0.0000 0.0000 0.0000
# 2 14.0804 93.1060 -19.9075 0.0000 0.0000 0.0000
# 3 7.9358 -19.9075 17.9151 0.0000 0.0000 0.0000
# 4 0.0000 0.0000 0.0000 6.1825 0.0000 0.0000
# 5 0.0000 0.0000 0.0000 0.0000 13.2750 0.0000
# 6 0.0000 0.0000 0.0000 0.0000 0.0000 16.9162
#
#
#
# Elastic Compliance Matrix: (Units=1/GPa)
#
#
# Indices 1 2 3 4 5 6 
#
# 1 0.015997 -0.005160 -0.012821 0.000000 0.000000 0.000000
# 2 -0.005160 0.015752 0.019790 0.000000 0.000000 0.000000
# 3 -0.012821 0.019790 0.083489 0.000000 0.000000 0.000000
# 4 0.000000 0.000000 0.000000 0.161746 0.000000 0.000000
# 5 0.000000 0.000000 0.000000 0.000000 0.075329 0.000000
# 6 0.000000 0.000000 0.000000 0.000000 0.000000 0.059115
#
#
# Mechanical properties :
#
#
# Convention : Reuss Voigt Hill
#
# Bulk Modulus (GPa) = 8.41353 20.96141 14.68747
# Shear Modulus (GPa) = 11.17496 19.42984 15.30240
#
# Velocity S-wave (km/s) = 2.38801 3.14882 2.79443
# Velocity P-wave (km/s) = 3.44919 4.89048 4.23165
#
# Compressibility (1/GPa) = 0.11885619
#
# Stress axis : x y z
#
# Youngs Moduli (GPa) = 62.51174 63.48297 11.97765
#
# Poissons Ratio (x) = 0.32760 0.15356
# Poissons Ratio (y) = 0.32259 -0.23704
# Poissons Ratio (z) = 0.80143 -1.25633
#
# Static dielectric constant tensor:
#      x y z
#    x 1.663090 0.000000 0.000000 
#    y 0.000000 1.689560 0.000000 
#    z 0.000000 0.000000 1.698370 
# 
# From -- ./inp_files/57702.got.cif
#   From: 2010.05.17/outbox.cif.g08.bks.cpg/sg74_29_cif.got.tgz:57702.got - 2010.06.03 17:57:02.
