data_PCOD9540667
_publ_section_title
;
Structure prediction by ZEFSAII (Michael W. Deem and Ramdas Pophale) SiO2 
 PCOD9540667
Probable space group: I M M A
;
_chemical_formula_sum "Si O2"
_cell_formula_units_Z 116
_cell_length_a 26.042212
_cell_length_b 7.495992
_cell_length_c 27.442392
_cell_angle_alpha 90.000000
_cell_angle_beta 90.000000
_cell_angle_gamma 90.000000
_cell_volume 5357.090067
_symmetry_space_group_name_H-M "I M M A"
_symmetry_group_IT_number 74
_symmetry_cell_setting 'orthorhombic'
loop_
_space_group_symop_operation_xyz
x,y,z
-x,1/2-y,z
x,-y,-z
-x,1/2+y,-z
-x,-y,-z
x,1/2+y,-z
-x,y,z
x,1/2-y,z
1/2+x,1/2+y,1/2+z
1/2-x,-y,1/2+z
1/2+x,1/2-y,1/2-z
1/2-x,y,1/2-z
1/2-x,1/2-y,1/2-z
1/2+x,y,1/2-z
1/2-x,1/2+y,1/2+z
1/2+x,-y,1/2+z
loop_
_atom_site_type_symbol
_atom_site_label
_atom_site_fract_x
_atom_site_fract_y
_atom_site_fract_z
Si Si1 0.943319 0.031739 0.389277
Si Si2 0.701230 0.544316 0.807924
Si Si3 0.091912 0.532887 0.718565
Si Si4 0.336869 0.955719 0.921003
Si Si5 0.692125 0.466806 0.342764
Si Si6 0.770042 0.463461 0.052110
Si Si7 0.425133 0.052766 0.675716
Si Si8 0.000000 0.750000 0.857760
O O1 0.941812 0.250000 0.390140
O O2 0.933533 0.981549 0.332726
O O3 0.894097 0.967176 0.419914
O O4 0.000000 0.975294 0.404929
O O5 0.705327 0.750000 0.791366
O O6 0.651329 0.467503 0.781350
O O7 0.682130 0.547716 0.864484
O O8 0.758981 0.470523 0.810410
O O9 0.092973 0.750000 0.719724
O O10 0.063413 0.471204 0.766739
O O11 0.341943 0.750000 0.937285
O O12 0.288195 0.039188 0.947757
O O13 0.693649 0.250000 0.340822
O O14 0.702478 0.524671 0.398683
O O15 0.636000 0.525924 0.328175
O O16 0.765855 0.250000 0.057233
O O17 0.794901 0.500000 0.000000
O O18 0.438412 0.250000 0.659600
O O19 0.455401 0.904760 0.646454
#
# Coordination Sequence:
#
# PCOD9540667 Si02
#       8
#    16  16  16  16  16  16  16   4
#     4   8  13  20  40  67  94 135 190 240 275 305
#     4   7  12  24  48  73 101 147 183 213 268 335
#     4   9  16  29  48  75 109 143 185 233 284 320
#     4   7  11  22  37  64  98 133 177 220 263 321
#     4   9  17  35  55  77 111 144 179 220 271 332
#     4   9  17  29  52  79 108 136 165 208 267 328
#     4  12  25  39  59  83 107 144 188 233 274 324
#     4  12  26  48  60  72 110 148 188 228 282 314
#
# _framework density 21.653548000000001
#
# number of rings (size 3 to 8) (size 9 to 14) (size 15 to 20)
#    0.000    3.172    1.379    3.517    0.966    1.103 
#    0.000    3.448    0.000    5.379    0.000    0.483 
#    0.000    0.000    0.000    0.000    0.000    0.000 
#
# Total GULP energy -322961.203729 kJ/mol
# GULP energy per Si atom -5568.296616 kJ/mol
# Density = 2.160426 g / cm^3
# Si number density = 21.653548 Si / 1000 Ang^3
#
#
#
# Elastic Constant Matrix: (Units=GPa)
#
#
# Indices 1 2 3 4 5 6 
#
# 1 107.9422 17.4437 -3.9693 0.0000 0.0000 0.0000
# 2 17.4437 96.6193 -3.0554 0.0000 0.0000 0.0000
# 3 -3.9693 -3.0554 50.6141 0.0000 0.0000 0.0000
# 4 0.0000 0.0000 0.0000 -46.8058 0.0000 0.0000
# 5 0.0000 0.0000 0.0000 0.0000 5.7746 0.0000
# 6 0.0000 0.0000 0.0000 0.0000 0.0000 -71.1092
#
#
#
# Elastic Compliance Matrix: (Units=1/GPa)
#
#
# Indices 1 2 3 4 5 6 
#
# 1 0.009564 -0.001706 0.000647 0.000000 0.000000 0.000000
# 2 -0.001706 0.010674 0.000511 0.000000 0.000000 0.000000
# 3 0.000647 0.000511 0.019839 0.000000 0.000000 0.000000
# 4 0.000000 0.000000 0.000000 -0.021365 0.000000 0.000000
# 5 0.000000 0.000000 0.000000 0.000000 0.173172 0.000000
# 6 0.000000 0.000000 0.000000 0.000000 0.000000 -0.014063
#
#
# Mechanical properties :
#
#
# Convention : Reuss Voigt Hill
#
# Bulk Modulus (GPa) = 25.65452 30.66820 28.16136
# Shear Modulus (GPa) = 26.05368 -6.11097 9.97135
#
# Velocity S-wave (km/s) = 3.47249 -1.68175 2.14824
# Velocity P-wave (km/s) = 5.28687 3.22844 4.38029
#
# Compressibility (1/GPa) = 0.03897948
#
# Stress axis : x y z
#
# Youngs Moduli (GPa) = 104.56172 93.68493 50.40598
#
# Poissons Ratio (x) = 0.15984 -0.03261
# Poissons Ratio (y) = 0.17840 -0.02573
# Poissons Ratio (z) = -0.06765 -0.04783
#
# Static dielectric constant tensor:
#      x y z
#    x 1.818910 0.000000 0.000000 
#    y 0.000000 1.823030 0.000000 
#    z 0.000000 0.000000 1.790330 
# 
# From -- ./inp_files/73793.got.cif
#   From: 2010.05.17/outbox.cif.g08.bks.cpg/sg74_37_cif.got.tgz:73793.got - 2010.06.03 17:57:02.
