data_PCOD9540211
_publ_section_title
;
Structure prediction by ZEFSAII (Michael W. Deem and Ramdas Pophale) SiO2 
 PCOD9540211
Probable space group: I M M A
;
_chemical_formula_sum "Si O2"
_cell_formula_units_Z 112
_cell_length_a 21.141542
_cell_length_b 22.111485
_cell_length_c 12.555964
_cell_angle_alpha 90.000000
_cell_angle_beta 90.000000
_cell_angle_gamma 90.000000
_cell_volume 5869.547651
_symmetry_space_group_name_H-M "I M M A"
_symmetry_group_IT_number 74
_symmetry_cell_setting 'orthorhombic'
loop_
_space_group_symop_operation_xyz
x,y,z
-x,1/2-y,z
x,-y,-z
-x,1/2+y,-z
-x,-y,-z
x,1/2+y,-z
-x,y,z
x,1/2-y,z
1/2+x,1/2+y,1/2+z
1/2-x,-y,1/2+z
1/2+x,1/2-y,1/2-z
1/2-x,y,1/2-z
1/2-x,1/2-y,1/2-z
1/2+x,y,1/2-z
1/2-x,1/2+y,1/2+z
1/2+x,-y,1/2+z
loop_
_atom_site_type_symbol
_atom_site_label
_atom_site_fract_x
_atom_site_fract_y
_atom_site_fract_z
Si Si1 0.395998 0.071789 0.381229
Si Si2 0.178705 0.621143 0.275507
Si Si3 0.177255 0.492493 0.379947
Si Si4 0.656307 0.820787 0.001682
Si Si5 0.426433 0.428430 0.621936
Si Si6 0.756893 0.375513 0.138866
Si Si7 0.928254 0.092147 0.355949
O O1 0.426182 0.085929 0.495637
O O2 0.324897 0.097372 0.387165
O O3 0.423427 0.099824 0.272170
O O4 0.402809 0.998698 0.369003
O O5 0.250000 0.644273 0.250000
O O6 0.189095 0.552767 0.317209
O O7 0.151716 0.657486 0.376618
O O8 0.125218 0.612800 0.184024
O O9 0.199849 0.500000 0.500000
O O10 0.212012 0.433336 0.339007
O O11 0.104422 0.472544 0.378848
O O12 0.645592 0.750000 0.992329
O O13 0.725838 0.839187 0.957805
O O14 0.609661 0.858522 0.924815
O O15 0.500000 0.424750 0.659773
O O16 0.750000 0.339447 0.250000
O O17 0.000000 0.092679 0.389006
#
# Coordination Sequence:
#
# PCOD9540211 Si02
#       7
#    16  16  16  16  16  16  16
#     4  11  20  35  57  92 132 160 196 242 303 379
#     4  12  23  40  62  91 126 168 206 254 311 375
#     4  11  20  34  57  93 127 152 194 243 312 385
#     4  11  26  45  63  88 116 156 220 272 315 358
#     4  11  23  35  57  93 134 175 202 235 303 392
#     4  11  19  36  60  91 119 153 189 248 319 377
#     4  11  22  39  61  87 124 162 201 254 314 371
#
# _framework density 19.081537999999998
#
# number of rings (size 3 to 8) (size 9 to 14) (size 15 to 20)
#    0.000    0.857    7.143    3.857    2.000    1.714 
#    0.000    0.000    0.000    0.857    0.000    0.000 
#    0.000    0.000    0.000    0.000    0.000    0.000 
#
# Total GULP energy -312265.781725 kJ/mol
# GULP energy per Si atom -5576.174674 kJ/mol
# Density = 1.903811 g / cm^3
# Si number density = 19.081538 Si / 1000 Ang^3
#
#
#
# Elastic Constant Matrix: (Units=GPa)
#
#
# Indices 1 2 3 4 5 6 
#
# 1 122.4368 9.3617 25.3245 0.0000 0.0000 0.0000
# 2 9.3617 34.3967 14.6530 0.0000 0.0000 0.0000
# 3 25.3245 14.6530 117.9251 0.0000 0.0000 0.0000
# 4 0.0000 0.0000 0.0000 0.1346 0.0000 0.0000
# 5 0.0000 0.0000 0.0000 0.0000 21.5703 0.0000
# 6 0.0000 0.0000 0.0000 0.0000 0.0000 8.8108
#
#
#
# Elastic Compliance Matrix: (Units=1/GPa)
#
#
# Indices 1 2 3 4 5 6 
#
# 1 0.008635 -0.001647 -0.001650 0.000000 0.000000 0.000000
# 2 -0.001647 0.031012 -0.003500 0.000000 0.000000 0.000000
# 3 -0.001650 -0.003500 0.009269 0.000000 0.000000 0.000000
# 4 0.000000 0.000000 0.000000 7.427912 0.000000 0.000000
# 5 0.000000 0.000000 0.000000 0.000000 0.046360 0.000000
# 6 0.000000 0.000000 0.000000 0.000000 0.000000 0.113497
#
#
# Mechanical properties :
#
#
# Convention : Reuss Voigt Hill
#
# Bulk Modulus (GPa) = 28.31075 41.49297 34.90186
# Shear Modulus (GPa) = 0.65257 21.13113 10.89185
#
# Velocity S-wave (km/s) = 0.58543 3.33139 2.39175
# Velocity P-wave (km/s) = 3.91483 6.04895 5.09489
#
# Compressibility (1/GPa) = 0.03532228
#
# Stress axis : x y z
#
# Youngs Moduli (GPa) = 115.81266 32.24585 107.88571
#
# Poissons Ratio (x) = 0.05312 0.17797
# Poissons Ratio (y) = 0.19078 0.37756
# Poissons Ratio (z) = 0.19104 0.11285
#
# Static dielectric constant tensor:
#      x y z
#    x 1.725030 0.000000 0.000000 
#    y 0.000000 1.631640 0.000000 
#    z 0.000000 0.000000 1.741560 
# 
# From -- ./inp_files/24207.got.cif
#   From: 2010.05.17/outbox.cif.g08.bks.cpg/sg74_13_cif.got.tgz:24207.got - 2010.06.03 17:57:02.
