data_PCOD9540645
_publ_section_title
;
Structure prediction by ZEFSAII (Michael W. Deem and Ramdas Pophale) SiO2 
 PCOD9540645
Probable space group: I M M A
;
_chemical_formula_sum "Si O2"
_cell_formula_units_Z 56
_cell_length_a 16.785992
_cell_length_b 18.859046
_cell_length_c 9.084072
_cell_angle_alpha 90.000000
_cell_angle_beta 90.000000
_cell_angle_gamma 90.000000
_cell_volume 2875.724645
_symmetry_space_group_name_H-M "I M M A"
_symmetry_group_IT_number 74
_symmetry_cell_setting 'orthorhombic'
loop_
_space_group_symop_operation_xyz
x,y,z
-x,1/2-y,z
x,-y,-z
-x,1/2+y,-z
-x,-y,-z
x,1/2+y,-z
-x,y,z
x,1/2-y,z
1/2+x,1/2+y,1/2+z
1/2-x,-y,1/2+z
1/2+x,1/2-y,1/2-z
1/2-x,y,1/2-z
1/2-x,1/2-y,1/2-z
1/2+x,y,1/2-z
1/2-x,1/2+y,1/2+z
1/2+x,-y,1/2+z
loop_
_atom_site_type_symbol
_atom_site_label
_atom_site_fract_x
_atom_site_fract_y
_atom_site_fract_z
Si Si1 0.330630 0.485738 0.824203
Si Si2 0.869807 0.171440 0.728906
Si Si3 0.500000 0.669197 0.482272
Si Si4 0.500000 0.053422 0.261820
Si Si5 0.500000 0.325421 0.023582
O O1 0.250000 0.518059 0.750000
O O2 0.325897 0.401914 0.794545
O O3 0.416249 0.510819 0.755248
O O4 0.331642 0.500000 0.000000
O O5 0.832716 0.250000 0.736525
O O6 0.926007 0.173310 0.585796
O O7 0.924141 0.164445 0.874323
O O8 0.500000 0.750000 0.544724
O O9 0.500000 0.604185 0.595349
O O10 0.500000 0.107617 0.126071
O O11 0.500000 0.250000 0.105224
#
# Coordination Sequence:
#
# PCOD9540645 Si02
#       5
#    16  16   8   8   8
#     4  12  27  43  65  98 130 166 219 267 322 387
#     4   9  19  39  64  89 125 171 216 255 311 386
#     4   9  20  36  64 102 129 165 219 262 312 381
#     4  12  22  40  69  93 130 174 202 266 331 369
#     4   9  16  33  64  93 117 163 217 254 302 379
#
# _framework density 19.473351999999998
#
# number of rings (size 3 to 8) (size 9 to 14) (size 15 to 20)
#    0.000    1.714    2.857    4.286    4.000    1.714 
#    0.000    0.000    0.000    4.286    0.000    0.000 
#    0.000    0.000    0.000    0.000    0.000    0.000 
#
# Total GULP energy -155930.644788 kJ/mol
# GULP energy per Si atom -5568.951600 kJ/mol
# Density = 1.942903 g / cm^3
# Si number density = 19.473352 Si / 1000 Ang^3
#
#
#
# Elastic Constant Matrix: (Units=GPa)
#
#
# Indices 1 2 3 4 5 6 
#
# 1 124.6990 71.1771 38.5759 0.0000 0.0000 0.0000
# 2 71.1771 158.2761 59.0788 0.0000 0.0000 0.0000
# 3 38.5759 59.0788 99.2391 0.0000 0.0000 0.0000
# 4 0.0000 0.0000 0.0000 31.6697 0.0000 0.0000
# 5 0.0000 0.0000 0.0000 0.0000 -138.0859 0.0000
# 6 0.0000 0.0000 0.0000 0.0000 0.0000 2.7111
#
#
#
# Elastic Compliance Matrix: (Units=1/GPa)
#
#
# Indices 1 2 3 4 5 6 
#
# 1 0.011010 -0.004312 -0.001713 0.000000 0.000000 0.000000
# 2 -0.004312 0.009812 -0.004165 0.000000 0.000000 0.000000
# 3 -0.001713 -0.004165 0.013222 0.000000 0.000000 0.000000
# 4 0.000000 0.000000 0.000000 0.031576 0.000000 0.000000
# 5 0.000000 0.000000 0.000000 0.000000 -0.007242 0.000000
# 6 0.000000 0.000000 0.000000 0.000000 0.000000 0.368857
#
#
# Mechanical properties :
#
#
# Convention : Reuss Voigt Hill
#
# Bulk Modulus (GPa) = 73.18288 79.98643 76.58465
# Shear Modulus (GPa) = 11.05778 -6.51551 2.27113
#
# Velocity S-wave (km/s) = 2.38553 -1.83115 1.08111
# Velocity P-wave (km/s) = 6.72683 6.05749 6.40091
#
# Compressibility (1/GPa) = 0.01366440
#
# Stress axis : x y z
#
# Youngs Moduli (GPa) = 90.82241 101.91739 75.63151
#
# Poissons Ratio (x) = 0.43948 0.12955
# Poissons Ratio (y) = 0.39163 0.31501
# Poissons Ratio (z) = 0.15557 0.42449
#
# Static dielectric constant tensor:
#      x y z
#    x 1.719800 0.000000 0.000000 
#    y 0.000000 1.707450 0.000000 
#    z 0.000000 0.000000 1.655660 
# 
# From -- ./inp_files/10030.got.cif
#   From: 2010.05.17/outbox.cif.g08.bks.cpg/sg74_6_cif.got.tgz:10030.got - 2010.06.03 17:57:02.
