data_PCOD9540653
_publ_section_title
;
Structure prediction by ZEFSAII (Michael W. Deem and Ramdas Pophale) SiO2 
 PCOD9540653
Probable space group: I M M A
;
_chemical_formula_sum "Si O2"
_cell_formula_units_Z 40
_cell_length_a 10.997952
_cell_length_b 21.211321
_cell_length_c 7.413227
_cell_angle_alpha 90.000000
_cell_angle_beta 90.000000
_cell_angle_gamma 90.000000
_cell_volume 1729.365677
_symmetry_space_group_name_H-M "I M M A"
_symmetry_group_IT_number 74
_symmetry_cell_setting 'orthorhombic'
loop_
_space_group_symop_operation_xyz
x,y,z
-x,1/2-y,z
x,-y,-z
-x,1/2+y,-z
-x,-y,-z
x,1/2+y,-z
-x,y,z
x,1/2-y,z
1/2+x,1/2+y,1/2+z
1/2-x,-y,1/2+z
1/2+x,1/2-y,1/2-z
1/2-x,y,1/2-z
1/2-x,1/2-y,1/2-z
1/2+x,y,1/2-z
1/2-x,1/2+y,1/2+z
1/2+x,-y,1/2+z
loop_
_atom_site_type_symbol
_atom_site_label
_atom_site_fract_x
_atom_site_fract_y
_atom_site_fract_z
Si Si1 0.500000 0.055597 0.859330
Si Si2 0.500000 0.323605 0.109280
Si Si3 0.250000 0.089865 0.750000
Si Si4 0.860383 0.822782 0.962096
O O1 0.373053 0.050401 0.756908
O O2 0.500000 0.123987 0.957193
O O3 0.500000 0.000000 0.000000
O O4 0.500000 0.250000 0.050868
O O5 0.386694 0.332693 0.249146
O O6 0.271721 0.133601 0.575126
O O7 0.826075 0.750000 0.987263
O O8 0.000000 0.830793 0.037772
#
# Coordination Sequence:
#
# PCOD9540653 Si02
#       4
#     8   8   8  16
#     4  12  29  46  68  98 130 178 223 274 334 398
#     4   8  19  42  67  96 133 174 223 272 328 392
#     4  12  23  44  66  96 135 176 224 272 334 394
#     4   8  17  37  65 101 137 172 216 272 327 386
#
# _framework density 23.129868999999999
#
# number of rings (size 3 to 8) (size 9 to 14) (size 15 to 20)
#    1.200    1.200    2.000    0.600    0.000    8.000 
#    0.000    7.000    0.000    0.000    0.000    0.000 
#    0.000    0.000    0.000    0.000    0.000    0.000 
#
# Total GULP energy -111642.977613 kJ/mol
# GULP energy per Si atom -5582.148881 kJ/mol
# Density = 2.307722 g / cm^3
# Si number density = 23.129869 Si / 1000 Ang^3
#
#
#
# Elastic Constant Matrix: (Units=GPa)
#
#
# Indices 1 2 3 4 5 6 
#
# 1 162.1687 13.7984 18.0718 0.0000 0.0002 0.0000
# 2 13.7984 29.4001 17.8753 0.0003 0.0000 -0.0002
# 3 18.0718 17.8753 49.3330 0.0013 -0.0007 -0.0009
# 4 0.0000 0.0003 0.0013 31.8775 -0.0002 -0.0002
# 5 0.0002 0.0000 -0.0007 -0.0002 31.1893 0.0001
# 6 0.0000 -0.0002 -0.0009 -0.0002 0.0001 -8.3679
#
#
#
# Elastic Compliance Matrix: (Units=1/GPa)
#
#
# Indices 1 2 3 4 5 6 
#
# 1 0.006525 -0.002064 -0.001642 0.000000 0.000000 0.000000
# 2 -0.002064 0.044277 -0.015287 0.000000 0.000000 0.000001
# 3 -0.001642 -0.015287 0.026411 -0.000001 0.000001 -0.000002
# 4 0.000000 0.000000 -0.000001 0.031370 0.000000 -0.000001
# 5 0.000000 0.000000 0.000001 0.000000 0.032062 0.000001
# 6 0.000000 0.000001 -0.000002 -0.000001 0.000001 -0.119505
#
#
# Mechanical properties :
#
#
# Convention : Reuss Voigt Hill
#
# Bulk Modulus (GPa) = 25.49325 37.82144 31.65734
# Shear Modulus (GPa) = 69.24916 23.68354 46.46635
#
# Velocity S-wave (km/s) = 5.47762 3.20337 4.48697
# Velocity P-wave (km/s) = 7.14503 5.48356 6.36871
#
# Compressibility (1/GPa) = 0.03922607
#
# Stress axis : x y z
#
# Youngs Moduli (GPa) = 153.25546 22.58518 37.86257
#
# Poissons Ratio (x) = 0.04661 0.06219
# Poissons Ratio (y) = 0.31629 0.57882
# Poissons Ratio (z) = 0.25172 0.34527
#
# Static dielectric constant tensor:
#      x y z
#    x 2.117050 0.000000 0.000000 
#    y 0.000000 1.754230 0.000000 
#    z 0.000000 0.000000 1.889780 
# 
# From -- ./inp_files/6615.got.cif
#   From: 2010.05.17/outbox.cif.g08.bks.cpg/sg74_4_cif.got.tgz:6615.got - 2010.06.03 17:57:02.
