data_PCOD9540574
_publ_section_title
;
Structure prediction by ZEFSAII (Michael W. Deem and Ramdas Pophale) SiO2 
 PCOD9540574
Probable space group: I M M A
;
_chemical_formula_sum "Si O2"
_cell_formula_units_Z 88
_cell_length_a 27.449910
_cell_length_b 13.323993
_cell_length_c 12.855453
_cell_angle_alpha 90.000000
_cell_angle_beta 90.000000
_cell_angle_gamma 90.000000
_cell_volume 4701.784345
_symmetry_space_group_name_H-M "I M M A"
_symmetry_group_IT_number 74
_symmetry_cell_setting 'orthorhombic'
loop_
_space_group_symop_operation_xyz
x,y,z
-x,1/2-y,z
x,-y,-z
-x,1/2+y,-z
-x,-y,-z
x,1/2+y,-z
-x,y,z
x,1/2-y,z
1/2+x,1/2+y,1/2+z
1/2-x,-y,1/2+z
1/2+x,1/2-y,1/2-z
1/2-x,y,1/2-z
1/2-x,1/2-y,1/2-z
1/2+x,y,1/2-z
1/2-x,1/2+y,1/2+z
1/2+x,-y,1/2+z
loop_
_atom_site_type_symbol
_atom_site_label
_atom_site_fract_x
_atom_site_fract_y
_atom_site_fract_z
Si Si1 0.874212 0.979851 0.184623
Si Si2 0.944549 0.134183 0.967797
Si Si3 0.800459 0.365283 0.685806
Si Si4 0.056696 0.138358 0.219686
Si Si5 0.224653 0.500000 0.500000
Si Si6 0.785738 0.867267 0.850820
O O1 0.911859 0.043785 0.254862
O O2 0.833153 0.062966 0.158387
O O3 0.904583 0.931193 0.090677
O O4 0.845228 0.890821 0.239743
O O5 0.939732 0.250000 0.935125
O O6 0.000000 0.100948 0.941734
O O7 0.940353 0.134472 0.093055
O O8 0.800815 0.250000 0.650798
O O9 0.750000 0.381401 0.750000
O O10 0.803232 0.444417 0.592222
O O11 0.074131 0.250000 0.251318
O O12 0.000000 0.130025 0.247243
O O13 0.257001 0.412796 0.448198
O O14 0.798095 0.750000 0.863450
O O15 0.750000 0.875998 0.750000
#
# Coordination Sequence:
#
# PCOD9540574 Si02
#       6
#    16  16  16  16   8  16
#     4  12  19  34  51  80 108 145 183 226 273 322
#     4   9  19  33  50  76 112 151 187 224 273 335
#     4  11  24  40  57  82 115 147 188 235 279 332
#     4   9  19  33  49  76 112 149 187 225 271 331
#     4  12  20  44  58  80 106 156 182 232 286 326
#     4  11  24  40  56  80 112 146 189 232 275 332
#
# _framework density 18.716298999999999
#
# number of rings (size 3 to 8) (size 9 to 14) (size 15 to 20)
#    0.000    1.455    3.636    3.818    2.545    1.455 
#    0.000    0.000    0.000    0.000    0.000    2.545 
#    0.000    2.909    0.000    0.000    0.000    0.000 
#
# Total GULP energy -245583.565326 kJ/mol
# GULP energy per Si atom -5581.444666 kJ/mol
# Density = 1.867370 g / cm^3
# Si number density = 18.716299 Si / 1000 Ang^3
#
#
#
# Elastic Constant Matrix: (Units=GPa)
#
#
# Indices 1 2 3 4 5 6 
#
# 1 74.6825 29.4596 14.4532 0.0000 0.0000 0.0000
# 2 29.4596 120.8285 12.5078 0.0000 0.0000 0.0000
# 3 14.4532 12.5078 38.3785 0.0000 0.0000 0.0000
# 4 0.0000 0.0000 0.0000 21.2377 0.0000 0.0000
# 5 0.0000 0.0000 0.0000 0.0000 5.1922 0.0000
# 6 0.0000 0.0000 0.0000 0.0000 0.0000 18.1887
#
#
#
# Elastic Compliance Matrix: (Units=1/GPa)
#
#
# Indices 1 2 3 4 5 6 
#
# 1 0.015627 -0.003313 -0.004805 0.000000 0.000000 0.000000
# 2 -0.003313 0.009267 -0.001773 0.000000 0.000000 0.000000
# 3 -0.004805 -0.001773 0.028444 0.000000 0.000000 0.000000
# 4 0.000000 0.000000 0.000000 0.047086 0.000000 0.000000
# 5 0.000000 0.000000 0.000000 0.000000 0.192595 0.000000
# 6 0.000000 0.000000 0.000000 0.000000 0.000000 0.054979
#
#
# Mechanical properties :
#
#
# Convention : Reuss Voigt Hill
#
# Bulk Modulus (GPa) = 29.80064 38.52562 34.16313
# Shear Modulus (GPa) = 13.19383 20.75500 16.97442
#
# Velocity S-wave (km/s) = 2.65795 3.33367 3.01480
# Velocity P-wave (km/s) = 5.03750 5.95369 5.51466
#
# Compressibility (1/GPa) = 0.03355632
#
# Stress axis : x y z
#
# Youngs Moduli (GPa) = 63.99313 107.90568 35.15717
#
# Poissons Ratio (x) = 0.35744 0.16894
# Poissons Ratio (y) = 0.21198 0.06233
# Poissons Ratio (z) = 0.30751 0.19129
#
# Static dielectric constant tensor:
#      x y z
#    x 1.683340 0.000000 0.000000 
#    y 0.000000 1.695600 0.000000 
#    z 0.000000 0.000000 1.624890 
# 
# From -- ./inp_files/25000.got.cif
#   From: 2010.05.17/outbox.cif.g08.bks.cpg/sg74_13_cif.got.tgz:25000.got - 2010.06.03 17:57:02.
