data_PCOD9540828
_publ_section_title
;
Structure prediction by ZEFSAII (Michael W. Deem and Ramdas Pophale) SiO2 
 PCOD9540828
Probable space group: I M M A
;
_chemical_formula_sum "Si O2"
_cell_formula_units_Z 48
_cell_length_a 15.000000
_cell_length_b 15.000000
_cell_length_c 21.000000
_cell_angle_alpha 90.000000
_cell_angle_beta 90.000000
_cell_angle_gamma 90.000000
_cell_volume 4725.000000
_symmetry_space_group_name_H-M "I M M A"
_symmetry_group_IT_number 74
_symmetry_cell_setting 'orthorhombic'
loop_
_space_group_symop_operation_xyz
x,y,z
-x,1/2-y,z
x,-y,-z
-x,1/2+y,-z
-x,-y,-z
x,1/2+y,-z
-x,y,z
x,1/2-y,z
1/2+x,1/2+y,1/2+z
1/2-x,-y,1/2+z
1/2+x,1/2-y,1/2-z
1/2-x,y,1/2-z
1/2-x,1/2-y,1/2-z
1/2+x,y,1/2-z
1/2-x,1/2+y,1/2+z
1/2+x,-y,1/2+z
loop_
_atom_site_type_symbol
_atom_site_label
_atom_site_fract_x
_atom_site_fract_y
_atom_site_fract_z
Si Si1 0.396333 0.141455 0.920317
Si Si2 0.724330 0.642958 0.961124
Si Si3 0.648901 0.147316 0.775659
Si Si4 0.895526 0.356960 0.961745
Si Si5 0.100656 0.525530 0.160025
Si Si6 0.777529 0.854311 0.824702
O O1 0.500000 0.114381 0.924291
O O2 0.393567 0.250000 0.921694
O O3 0.359086 0.117844 0.849653
O O4 0.340679 0.108985 0.982211
O O5 0.717746 0.750000 0.965737
O O6 0.711518 0.624907 0.885453
O O7 0.825342 0.618820 0.982938
O O8 0.615223 0.250000 0.771855
O O9 0.750000 0.148061 0.750000
O O10 0.602693 0.081668 0.725689
O O11 0.887787 0.250000 0.950058
O O12 0.868606 0.409973 0.897745
O O13 0.000000 0.374564 0.976801
O O14 0.152986 0.434108 0.167931
O O15 0.000000 0.502313 0.144056
O O16 0.806033 0.750000 0.834958
O O17 0.750000 0.858336 0.750000
#
# Coordination Sequence:
#
# PCOD9540828 Si02
#       6
#    16  16  16  16  16  16
#     4   9  17  30  52  85 121 153 185 224 279 351
#     4   9  18  35  58  81 109 146 186 234 291 344
#     4  10  19  32  55  88 125 161 192 222 267 338
#     4   9  18  33  56  89 124 151 176 213 272 350
#     4  11  22  35  55  84 118 152 185 227 282 343
#     4  10  23  43  61  76 100 141 197 254 298 335
#
# _framework density 10.15873
#
# number of rings (size 3 to 8) (size 9 to 14) (size 15 to 20)
#    0.000    2.333    0.000    2.500    0.000    6.000 
#    0.000    4.167    0.000    3.000    0.000    8.167 
#    0.000    0.000    0.000    0.000    0.000    0.000 
#
# Total GULP energy -267667.330128 kJ/mol
# GULP energy per Si atom -5576.402711 kJ/mol
# Density = 1.013561 g / cm^3
# Si number density = 10.158730 Si / 1000 Ang^3
#
#
#
# Elastic Constant Matrix: (Units=GPa)
#
#
# Indices 1 2 3 4 5 6 
#
# 1 83.5694 19.5587 53.5073 0.0000 0.0000 0.0000
# 2 19.5587 63.3486 25.2466 0.0000 0.0000 0.0000
# 3 53.5073 25.2466 187.3809 0.0000 0.0000 0.0000
# 4 0.0000 0.0000 0.0000 12.9987 0.0000 0.0000
# 5 0.0000 0.0000 0.0000 0.0000 12.7682 0.0000
# 6 0.0000 0.0000 0.0000 0.0000 0.0000 -1.9831
#
#
#
# Elastic Compliance Matrix: (Units=1/GPa)
#
#
# Indices 1 2 3 4 5 6 
#
# 1 0.015210 -0.003133 -0.003921 0.000000 0.000000 0.000000
# 2 -0.003133 0.017327 -0.001440 0.000000 0.000000 0.000000
# 3 -0.003921 -0.001440 0.006650 0.000000 0.000000 0.000000
# 4 0.000000 0.000000 0.000000 0.076931 0.000000 0.000000
# 5 0.000000 0.000000 0.000000 0.000000 0.078320 0.000000
# 6 0.000000 0.000000 0.000000 0.000000 0.000000 -0.504256
#
#
# Mechanical properties :
#
#
# Convention : Reuss Voigt Hill
#
# Bulk Modulus (GPa) = 45.04744 58.99155 52.01950
# Shear Modulus (GPa) = -17.51740 20.48919 1.48590
#
# Velocity S-wave (km/s) = -2.93948 3.17906 0.85611
# Velocity P-wave (km/s) = 3.27096 6.52481 5.16102
#
# Compressibility (1/GPa) = 0.02219882
#
# Stress axis : x y z
#
# Youngs Moduli (GPa) = 65.74617 57.71382 150.36698
#
# Poissons Ratio (x) = 0.18084 0.58960
# Poissons Ratio (y) = 0.20601 0.21650
# Poissons Ratio (z) = 0.25780 0.08310
#
# Static dielectric constant tensor:
#      x y z
#    x 1.759270 0.000000 0.000000 
#    y 0.000000 1.722400 0.000000 
#    z 0.000000 0.000000 1.739290 
# 
# From -- ./inp_files/51854.got.cif
#   From: 2010.05.17/outbox.ucp.g08.bks.cvg/sg74_26_cif.got.tgz:51854.got - 2010.06.11 16:37:44.
