data_PCOD9540732
_publ_section_title
;
Structure prediction by ZEFSAII (Michael W. Deem and Ramdas Pophale) SiO2 
 PCOD9540732
Probable space group: I M M A
;
_chemical_formula_sum "Si O2"
_cell_formula_units_Z 96
_cell_length_a 34.150288
_cell_length_b 7.406921
_cell_length_c 19.358893
_cell_angle_alpha 90.000000
_cell_angle_beta 90.000000
_cell_angle_gamma 90.000000
_cell_volume 4896.802662
_symmetry_space_group_name_H-M "I M M A"
_symmetry_group_IT_number 74
_symmetry_cell_setting 'orthorhombic'
loop_
_space_group_symop_operation_xyz
x,y,z
-x,1/2-y,z
x,-y,-z
-x,1/2+y,-z
-x,-y,-z
x,1/2+y,-z
-x,y,z
x,1/2-y,z
1/2+x,1/2+y,1/2+z
1/2-x,-y,1/2+z
1/2+x,1/2-y,1/2-z
1/2-x,y,1/2-z
1/2-x,1/2-y,1/2-z
1/2+x,y,1/2-z
1/2-x,1/2+y,1/2+z
1/2+x,-y,1/2+z
loop_
_atom_site_type_symbol
_atom_site_label
_atom_site_fract_x
_atom_site_fract_y
_atom_site_fract_z
Si Si1 0.331685 0.966005 0.920501
Si Si2 0.665871 0.970326 0.651894
Si Si3 0.121593 0.030007 0.289824
Si Si4 0.043925 0.970576 0.785425
Si Si5 0.087913 0.464925 0.078911
Si Si6 0.256697 0.034219 0.419910
O O1 0.329857 0.750000 0.912602
O O2 0.361840 0.032892 0.862988
O O3 0.287359 0.036011 0.908606
O O4 0.342441 0.000000 0.000000
O O5 0.666879 0.750000 0.650709
O O6 0.651114 0.022215 0.727924
O O7 0.631549 0.029594 0.599186
O O8 0.708394 0.034569 0.628235
O O9 0.120793 0.250000 0.290321
O O10 0.078143 0.972416 0.267126
O O11 0.043509 0.750000 0.784922
O O12 0.058127 0.028916 0.861923
O O13 0.000000 0.031045 0.770197
O O14 0.089171 0.250000 0.086827
O O15 0.077492 0.500000 0.000000
O O16 0.254959 0.250000 0.410292
O O17 0.266834 0.000000 0.500000
#
# Coordination Sequence:
#
# PCOD9540732 Si02
#       6
#    16  16  16  16  16  16
#     4   9  17  28  43  62  81 102 128 159 197 239
#     4   8  14  24  38  57  80 105 135 169 195 217
#     4   8  14  25  41  60  79 100 130 165 197 230
#     4   8  14  25  41  60  80 102 130 164 198 230
#     4   9  16  25  38  57  81 108 136 164 193 224
#     4   9  16  25  38  57  81 108 135 162 193 227
#
# _framework density 19.604628999999999
#
# number of rings (size 3 to 8) (size 9 to 14) (size 15 to 20)
#    0.000    3.500    0.000    2.500    0.000    1.000 
#    0.000    3.333    0.000    5.500    0.000    4.667 
#    0.000    0.000    0.000    0.000    0.000    0.000 
#
# Total GULP energy -267571.407891 kJ/mol
# GULP energy per Si atom -5574.404331 kJ/mol
# Density = 1.956001 g / cm^3
# Si number density = 19.604629 Si / 1000 Ang^3
#
#
#
# Elastic Constant Matrix: (Units=GPa)
#
#
# Indices 1 2 3 4 5 6 
#
# 1 167.9067 6.6666 131.6079 0.0000 0.0000 0.0000
# 2 6.6666 63.6327 0.4096 0.0000 0.0000 0.0000
# 3 131.6079 0.4096 137.0742 0.0000 0.0000 0.0000
# 4 0.0000 0.0000 0.0000 15.8333 0.0000 0.0000
# 5 0.0000 0.0000 0.0000 0.0000 15.2212 0.0000
# 6 0.0000 0.0000 0.0000 0.0000 0.0000 -5.5056
#
#
#
# Elastic Compliance Matrix: (Units=1/GPa)
#
#
# Indices 1 2 3 4 5 6 
#
# 1 0.024433 -0.002409 -0.023451 0.000000 0.000000 0.000000
# 2 -0.002409 0.015953 0.002265 0.000000 0.000000 0.000000
# 3 -0.023451 0.002265 0.029805 0.000000 0.000000 0.000000
# 4 0.000000 0.000000 0.000000 0.063158 0.000000 0.000000
# 5 0.000000 0.000000 0.000000 0.000000 0.065698 0.000000
# 6 0.000000 0.000000 0.000000 0.000000 0.000000 -0.181634
#
#
# Mechanical properties :
#
#
# Convention : Reuss Voigt Hill
#
# Bulk Modulus (GPa) = 43.47750 71.77574 57.62662
# Shear Modulus (GPa) = 69.18563 20.43841 44.81202
#
# Velocity S-wave (km/s) = 5.94702 3.23233 4.78618
# Velocity P-wave (km/s) = 8.32955 7.11489 7.74607
#
# Compressibility (1/GPa) = 0.02300040
#
# Stress axis : x y z
#
# Youngs Moduli (GPa) = 40.92862 62.68426 33.55186
#
# Poissons Ratio (x) = 0.15099 0.78683
# Poissons Ratio (y) = 0.09859 -0.07600
# Poissons Ratio (z) = 0.95983 -0.14198
#
# Static dielectric constant tensor:
#      x y z
#    x 1.685860 0.000000 0.000000 
#    y 0.000000 1.759520 0.000000 
#    z 0.000000 0.000000 1.668520 
# 
# From -- ./inp_files/46621.got.cif
#   From: 2010.05.17/outbox.cif.g08.bks.cpg/sg74_24_cif.got.tgz:46621.got - 2010.06.03 17:57:02.
