data_PCOD9540208
_publ_section_title
;
Structure prediction by ZEFSAII (Michael W. Deem and Ramdas Pophale) SiO2 
 PCOD9540208
Probable space group: I M M A
;
_chemical_formula_sum "Si O2"
_cell_formula_units_Z 72
_cell_length_a 20.456530
_cell_length_b 20.383894
_cell_length_c 8.408963
_cell_angle_alpha 90.000000
_cell_angle_beta 90.000000
_cell_angle_gamma 90.000000
_cell_volume 3506.400834
_symmetry_space_group_name_H-M "I M M A"
_symmetry_group_IT_number 74
_symmetry_cell_setting 'orthorhombic'
loop_
_space_group_symop_operation_xyz
x,y,z
-x,1/2-y,z
x,-y,-z
-x,1/2+y,-z
-x,-y,-z
x,1/2+y,-z
-x,y,z
x,1/2-y,z
1/2+x,1/2+y,1/2+z
1/2-x,-y,1/2+z
1/2+x,1/2-y,1/2-z
1/2-x,y,1/2-z
1/2-x,1/2-y,1/2-z
1/2+x,y,1/2-z
1/2-x,1/2+y,1/2+z
1/2+x,-y,1/2+z
loop_
_atom_site_type_symbol
_atom_site_label
_atom_site_fract_x
_atom_site_fract_y
_atom_site_fract_z
Si Si1 0.750000 0.950597 0.250000
Si Si2 0.852409 0.000000 0.000000
Si Si3 0.599067 0.750000 0.540700
Si Si4 0.928316 0.750000 0.322214
Si Si5 0.923056 0.109856 0.206394
Si Si6 0.251531 0.250000 0.435649
Si Si7 0.843392 0.135419 0.526614
O O1 0.698644 0.987582 0.359115
O O2 0.801964 0.913004 0.363428
O O3 0.896089 0.060036 0.069878
O O4 0.567532 0.750000 0.367858
O O5 0.583675 0.815584 0.640198
O O6 0.675906 0.750000 0.501116
O O7 0.892805 0.816723 0.377960
O O8 0.000000 0.750000 0.396170
O O9 0.880659 0.106871 0.370809
O O10 0.000000 0.096573 0.236714
O O11 0.250000 0.250000 0.250000
O O12 0.212977 0.314290 0.479292
#
# Coordination Sequence:
#
# PCOD9540208 Si02
#       7
#     8   8   8   8  16   8  16
#     4  12  26  45  70  93 128 174 230 284 336 396
#     4  12  27  46  68  98 133 174 224 284 336 394
#     4  12  23  40  70 100 132 176 218 274 333 397
#     4  11  22  38  60  99 142 176 217 269 331 401
#     4  12  25  44  68  99 136 178 221 269 334 406
#     4  11  19  35  62 100 134 162 209 276 329 382
#     4  11  23  40  66  96 134 175 221 274 332 394
#
# _framework density 20.533874999999998
#
# number of rings (size 3 to 8) (size 9 to 14) (size 15 to 20)
#    0.000    0.444    2.222    8.000    0.000    1.778 
#    0.000    4.444    0.000    0.000    0.000    0.000 
#    0.000    0.000    0.000    0.000    0.000    0.000 
#
# Total GULP energy -200897.843195 kJ/mol
# GULP energy per Si atom -5580.495644 kJ/mol
# Density = 2.048714 g / cm^3
# Si number density = 20.533875 Si / 1000 Ang^3
#
#
#
# Elastic Constant Matrix: (Units=GPa)
#
#
# Indices 1 2 3 4 5 6 
#
# 1 166.2986 36.5627 27.4579 0.0000 0.0000 0.0000
# 2 36.5627 84.9864 35.7823 0.0000 0.0000 0.0000
# 3 27.4579 35.7823 92.2504 0.0000 0.0000 0.0000
# 4 0.0000 0.0000 0.0000 30.9056 0.0000 0.0000
# 5 0.0000 0.0000 0.0000 0.0000 20.6642 0.0000
# 6 0.0000 0.0000 0.0000 0.0000 0.0000 -33.8936
#
#
#
# Elastic Compliance Matrix: (Units=1/GPa)
#
#
# Indices 1 2 3 4 5 6 
#
# 1 0.006726 -0.002451 -0.001051 0.000000 0.000000 0.000000
# 2 -0.002451 0.014956 -0.005072 0.000000 0.000000 0.000000
# 3 -0.001051 -0.005072 0.013120 0.000000 0.000000 0.000000
# 4 0.000000 0.000000 0.000000 0.032357 0.000000 0.000000
# 5 0.000000 0.000000 0.000000 0.000000 0.048393 0.000000
# 6 0.000000 0.000000 0.000000 0.000000 0.000000 -0.029504
#
#
# Mechanical properties :
#
#
# Convention : Reuss Voigt Hill
#
# Bulk Modulus (GPa) = 56.64296 60.34902 58.49599
# Shear Modulus (GPa) = 45.83774 19.78409 32.81092
#
# Velocity S-wave (km/s) = 4.72985 3.10737 4.00170
# Velocity P-wave (km/s) = 7.58114 6.50601 7.06406
#
# Compressibility (1/GPa) = 0.01765444
#
# Stress axis : x y z
#
# Youngs Moduli (GPa) = 148.68310 66.86076 76.21825
#
# Poissons Ratio (x) = 0.16387 0.08012
# Poissons Ratio (y) = 0.36441 0.38657
# Poissons Ratio (z) = 0.15630 0.33911
#
# Static dielectric constant tensor:
#      x y z
#    x 1.640600 0.000000 0.000000 
#    y 0.000000 1.700680 0.000000 
#    z 0.000000 0.000000 1.803310 
# 
# From -- ./inp_files/12225.got.cif
#   From: 2010.05.17/outbox.cif.g08.bks.cpg/sg74_7_cif.got.tgz:12225.got - 2010.06.03 17:57:02.
