data_PCOD9540641
_publ_section_title
;
Structure prediction by ZEFSAII (Michael W. Deem and Ramdas Pophale) SiO2 
 PCOD9540641
Probable space group: I M M A
;
_chemical_formula_sum "Si O2"
_cell_formula_units_Z 96
_cell_length_a 8.971240
_cell_length_b 22.672697
_cell_length_c 27.714127
_cell_angle_alpha 90.000000
_cell_angle_beta 90.000000
_cell_angle_gamma 90.000000
_cell_volume 5637.114576
_symmetry_space_group_name_H-M "I M M A"
_symmetry_group_IT_number 74
_symmetry_cell_setting 'orthorhombic'
loop_
_space_group_symop_operation_xyz
x,y,z
-x,1/2-y,z
x,-y,-z
-x,1/2+y,-z
-x,-y,-z
x,1/2+y,-z
-x,y,z
x,1/2-y,z
1/2+x,1/2+y,1/2+z
1/2-x,-y,1/2+z
1/2+x,1/2-y,1/2-z
1/2-x,y,1/2-z
1/2-x,1/2-y,1/2-z
1/2+x,y,1/2-z
1/2-x,1/2+y,1/2+z
1/2+x,-y,1/2+z
loop_
_atom_site_type_symbol
_atom_site_label
_atom_site_fract_x
_atom_site_fract_y
_atom_site_fract_z
Si Si1 0.177811 0.250000 0.481720
Si Si2 0.323330 0.250000 0.374917
Si Si3 0.319775 0.510197 0.801139
Si Si4 0.824491 0.558113 0.396588
Si Si5 0.173544 0.367822 0.349297
Si Si6 0.825630 0.863471 0.029170
Si Si7 0.669041 0.934706 0.950946
O O1 0.247770 0.250000 0.428027
O O2 0.234447 0.307155 0.510517
O O3 0.000000 0.250000 0.477192
O O4 0.500000 0.250000 0.380809
O O5 0.269075 0.308842 0.347777
O O6 0.500000 0.509853 0.799340
O O7 0.250000 0.495204 0.750000
O O8 0.276412 0.465440 0.844056
O O9 0.276074 0.576885 0.816812
O O10 0.732313 0.610570 0.420316
O O11 0.811879 0.500529 0.431079
O O12 0.000000 0.573277 0.394617
O O13 0.178126 0.392802 0.404067
O O14 0.000000 0.354793 0.338490
O O15 0.000000 0.850361 0.030252
O O16 0.787762 0.913547 0.989488
O O17 0.500000 0.929248 0.971079
#
# Coordination Sequence:
#
# PCOD9540641 Si02
#       7
#     8   8  16  16  16  16  16
#     4  12  24  38  54  69 100 151 186 210 251 311
#     4  12  22  32  49  77 104 133 178 228 264 299
#     4   9  19  36  58  81 103 132 173 219 268 318
#     4   9  19  35  53  75 103 140 178 207 253 322
#     4   9  18  33  52  72  99 142 182 212 257 317
#     4  12  23  33  48  77 109 135 173 221 261 296
#     4   9  17  31  51  71  99 142 180 207 247 309
#
# _framework density 17.029989
#
# number of rings (size 3 to 8) (size 9 to 14) (size 15 to 20)
#    0.000    2.000    1.667    5.500    0.000    4.000 
#    0.000    3.750    0.000    0.000    0.000    0.583 
#    0.000    0.000    0.000    0.000    0.000    0.000 
#
# Total GULP energy -267968.539773 kJ/mol
# GULP energy per Si atom -5582.677912 kJ/mol
# Density = 1.699123 g / cm^3
# Si number density = 17.029989 Si / 1000 Ang^3
#
#
#
# Elastic Constant Matrix: (Units=GPa)
#
#
# Indices 1 2 3 4 5 6 
#
# 1 74.1303 14.7942 25.7675 0.0000 0.0000 0.0000
# 2 14.7942 18.3842 21.9191 0.0000 0.0000 0.0000
# 3 25.7675 21.9191 80.8602 0.0000 0.0000 0.0000
# 4 0.0000 0.0000 0.0000 8.1039 0.0000 0.0000
# 5 0.0000 0.0000 0.0000 0.0000 25.7805 0.0000
# 6 0.0000 0.0000 0.0000 0.0000 0.0000 5.5384
#
#
#
# Elastic Compliance Matrix: (Units=1/GPa)
#
#
# Indices 1 2 3 4 5 6 
#
# 1 0.016389 -0.010286 -0.002434 0.000000 0.000000 0.000000
# 2 -0.010286 0.086826 -0.020258 0.000000 0.000000 0.000000
# 3 -0.002434 -0.020258 0.018634 0.000000 0.000000 0.000000
# 4 0.000000 0.000000 0.000000 0.123398 0.000000 0.000000
# 5 0.000000 0.000000 0.000000 0.000000 0.038789 0.000000
# 6 0.000000 0.000000 0.000000 0.000000 0.000000 0.180556
#
#
# Mechanical properties :
#
#
# Convention : Reuss Voigt Hill
#
# Bulk Modulus (GPa) = 17.89187 33.14846 25.52016
# Shear Modulus (GPa) = 9.10450 15.27750 12.19100
#
# Velocity S-wave (km/s) = 2.31468 2.99840 2.67845
# Velocity P-wave (km/s) = 4.20388 5.61197 4.95817
#
# Compressibility (1/GPa) = 0.05589130
#
# Stress axis : x y z
#
# Youngs Moduli (GPa) = 61.01777 11.51733 53.66455
#
# Poissons Ratio (x) = 0.11847 0.13063
# Poissons Ratio (y) = 0.62763 1.08716
# Poissons Ratio (z) = 0.14853 0.23332
#
# Static dielectric constant tensor:
#      x y z
#    x 1.568330 0.000000 0.000000 
#    y 0.000000 1.592090 0.000000 
#    z 0.000000 0.000000 1.579970 
# 
# From -- ./inp_files/64716.got.cif
#   From: 2010.05.17/outbox.cif.g08.bks.cpg/sg74_33_cif.got.tgz:64716.got - 2010.06.03 17:57:02.
