data_PCOD9540989
_publ_section_title
;
Structure prediction by ZEFSAII (Michael W. Deem and Ramdas Pophale) SiO2 
 PCOD9540989
Probable space group: P 4
;
_chemical_formula_sum "Si O2"
_cell_formula_units_Z 28
_cell_length_a 11.278580
_cell_length_b 11.278580
_cell_length_c 12.364764
_cell_angle_alpha 90.000000
_cell_angle_beta 90.000000
_cell_angle_gamma 90.000000
_cell_volume 1572.876705
_symmetry_space_group_name_H-M "P 4"
_symmetry_group_IT_number 75
_symmetry_cell_setting 'tetragonal'
loop_
_space_group_symop_operation_xyz
x,y,z
-y,x,z
-x,-y,z
y,-x,z
loop_
_atom_site_type_symbol
_atom_site_label
_atom_site_fract_x
_atom_site_fract_y
_atom_site_fract_z
Si Si1 0.022405 0.802727 0.700150
Si Si2 0.169010 0.641054 0.847487
Si Si3 0.431822 0.684049 0.151727
Si Si4 0.644953 0.991902 0.033264
Si Si5 0.013409 0.196923 0.448211
Si Si6 0.382064 0.779951 0.912393
Si Si7 0.374270 0.935992 0.258973
O O1 0.069465 0.690923 0.767207
O O2 0.900848 0.874243 0.722786
O O3 0.002960 0.769841 0.574300
O O4 0.296028 0.702695 0.838554
O O5 0.182559 0.499999 0.848529
O O6 0.125859 0.674395 0.969116
O O7 0.351957 0.568255 0.174133
O O8 0.394474 0.799775 0.220471
O O9 0.420416 0.713127 0.023377
O O10 0.688826 0.003539 0.154633
O O11 0.500000 0.000000 0.038704
O O12 0.681112 0.102500 0.959016
O O13 0.039232 0.302251 0.366751
O O14 0.894483 0.121266 0.429333
O O15 0.500000 0.000000 0.270918
#
# Coordination Sequence:
#
# PCOD9540989 Si02
#       7
#     4   4   4   4   4   4   4
#     4   9  19  38  60  78 102 141 189 241 298 350
#     4  11  19  32  52  80 113 148 186 235 280 343
#     4  10  20  35  54  82 124 170 200 229 286 370
#     4   8  18  32  45  73 111 144 175 222 274 325
#     4   9  20  39  60  80 109 148 191 249 305 354
#     4  10  19  30  51  79 114 156 189 228 278 344
#     4  10  21  33  56  87 115 147 196 244 290 345
#
# _framework density 17.801776
#
# number of rings (size 3 to 8) (size 9 to 14) (size 15 to 20)
#    0.000    2.429    1.429    2.571    2.000    1.429 
#    0.000    5.000    0.000    1.714    0.000    0.000 
#    0.000    0.000    0.000    0.000    0.000    0.000 
#
# Total GULP energy -155960.415005 kJ/mol
# GULP energy per Si atom -5570.014822 kJ/mol
# Density = 1.776126 g / cm^3
# Si number density = 17.801776 Si / 1000 Ang^3
#
#
#
# Elastic Constant Matrix: (Units=GPa)
#
#
# Indices 1 2 3 4 5 6 
#
# 1 65.6713 29.3734 45.1329 0.0000 0.0000 0.9036
# 2 29.3734 65.6713 45.1329 0.0000 0.0000 -0.9036
# 3 45.1329 45.1329 69.2120 0.0000 0.0000 0.0000
# 4 0.0000 0.0000 0.0000 26.3987 0.0000 0.0000
# 5 0.0000 0.0000 0.0000 0.0000 26.3987 0.0000
# 6 0.9036 -0.9036 0.0000 0.0000 0.0000 12.6853
#
#
#
# Elastic Compliance Matrix: (Units=1/GPa)
#
#
# Indices 1 2 3 4 5 6 
#
# 1 0.027643 -0.000005 -0.018022 0.000000 0.000000 -0.001969
# 2 -0.000005 0.027643 -0.018022 0.000000 0.000000 0.001969
# 3 -0.018022 -0.018022 0.037953 0.000000 0.000000 0.000000
# 4 0.000000 0.000000 0.000000 0.037881 0.000000 0.000000
# 5 0.000000 0.000000 0.000000 0.000000 0.037881 0.000000
# 6 -0.001969 0.001969 0.000000 0.000000 0.000000 0.079112
#
#
# Mechanical properties :
#
#
# Convention : Reuss Voigt Hill
#
# Bulk Modulus (GPa) = 47.30664 48.87032 48.08848
# Shear Modulus (GPa) = 15.27849 18.49089 16.88469
#
# Velocity S-wave (km/s) = 2.93278 3.22640 3.08309
# Velocity P-wave (km/s) = 6.17252 6.43363 6.30443
#
# Compressibility (1/GPa) = 0.02113868
#
# Stress axis : x y z
#
# Youngs Moduli (GPa) = 36.17595 36.17595 26.34842
#
# Poissons Ratio (x) = 0.00019 0.47486
# Poissons Ratio (y) = 0.00019 0.47486
# Poissons Ratio (z) = 0.65197 0.65197
#
# Static dielectric constant tensor:
#      x y z
#    x 1.638950 0.000000 0.000000 
#    y 0.000000 1.638950 0.000000 
#    z 0.000000 0.000000 1.621630 
# 
# From -- ./inp_files/561.got.cif
#   From: 2010.05.17/outbox.cif.g08.bks.cpg/sg75_cif.got.tgz:561.got - 2010.06.03 18:42:43.
