data_PCOD9540528
_publ_section_title
;
Structure prediction by ZEFSAII (Michael W. Deem and Ramdas Pophale) SiO2 
 PCOD9540528
Probable space group: I M M A
;
_chemical_formula_sum "Si O2"
_cell_formula_units_Z 88
_cell_length_a 19.975908
_cell_length_b 24.562355
_cell_length_c 9.323949
_cell_angle_alpha 90.000000
_cell_angle_beta 90.000000
_cell_angle_gamma 90.000000
_cell_volume 4574.845402
_symmetry_space_group_name_H-M "I M M A"
_symmetry_group_IT_number 74
_symmetry_cell_setting 'orthorhombic'
loop_
_space_group_symop_operation_xyz
x,y,z
-x,1/2-y,z
x,-y,-z
-x,1/2+y,-z
-x,-y,-z
x,1/2+y,-z
-x,y,z
x,1/2-y,z
1/2+x,1/2+y,1/2+z
1/2-x,-y,1/2+z
1/2+x,1/2-y,1/2-z
1/2-x,y,1/2-z
1/2-x,1/2-y,1/2-z
1/2+x,y,1/2-z
1/2-x,1/2+y,1/2+z
1/2+x,-y,1/2+z
loop_
_atom_site_type_symbol
_atom_site_label
_atom_site_fract_x
_atom_site_fract_y
_atom_site_fract_z
Si Si1 0.425878 0.132947 0.550905
Si Si2 0.076119 0.079832 0.263301
Si Si3 0.375354 0.956905 0.257848
Si Si4 0.310549 0.404453 0.026612
Si Si5 0.717413 0.312650 0.590861
Si Si6 0.222215 0.000000 0.000000
O O1 0.500000 0.159414 0.549101
O O2 0.416709 0.102350 0.398095
O O3 0.424916 0.086222 0.671307
O O4 0.360520 0.169473 0.583027
O O5 0.129900 0.107900 0.365383
O O6 0.000000 0.089620 0.309517
O O7 0.091014 0.015122 0.272058
O O8 0.341592 0.928385 0.121167
O O9 0.321058 0.968696 0.382173
O O10 0.261634 0.354212 0.001431
O O11 0.266948 0.455478 0.080106
O O12 0.723341 0.250000 0.545345
O O13 0.750000 0.317032 0.750000
#
# Coordination Sequence:
#
# PCOD9540528 Si02
#       6
#    16  16  16  16  16   8
#     4  11  23  40  63  91 126 164 208 254 304 369
#     4  11  24  39  58  92 133 171 202 246 313 380
#     4  12  20  36  59  90 128 167 206 245 300 369
#     4  12  23  37  61  94 126 164 206 258 311 365
#     4  11  23  44  69  92 119 156 214 267 309 363
#     4  12  20  32  62  88 122 162 204 256 306 366
#
# _framework density 19.235623
#
# number of rings (size 3 to 8) (size 9 to 14) (size 15 to 20)
#    0.000    0.545    7.273    1.091    0.000    6.182 
#    0.000    1.818    0.000    1.636    0.000    0.000 
#    0.000    0.000    0.000    0.000    0.000    0.000 
#
# Total GULP energy -245881.803506 kJ/mol
# GULP energy per Si atom -5588.222807 kJ/mol
# Density = 1.919184 g / cm^3
# Si number density = 19.235623 Si / 1000 Ang^3
#
#
#
# Elastic Constant Matrix: (Units=GPa)
#
#
# Indices 1 2 3 4 5 6 
#
# 1 162.1143 57.6926 44.2284 0.0000 0.0000 0.0000
# 2 57.6926 104.9581 11.4695 0.0000 0.0000 0.0000
# 3 44.2284 11.4695 60.9782 0.0000 0.0000 0.0000
# 4 0.0000 0.0000 0.0000 18.2242 0.0000 0.0000
# 5 0.0000 0.0000 0.0000 0.0000 30.8025 0.0000
# 6 0.0000 0.0000 0.0000 0.0000 0.0000 11.8049
#
#
#
# Elastic Compliance Matrix: (Units=1/GPa)
#
#
# Indices 1 2 3 4 5 6 
#
# 1 0.009405 -0.004517 -0.005972 0.000000 0.000000 0.000000
# 2 -0.004517 0.011897 0.001039 0.000000 0.000000 0.000000
# 3 -0.005972 0.001039 0.020536 0.000000 0.000000 0.000000
# 4 0.000000 0.000000 0.000000 0.054872 0.000000 0.000000
# 5 0.000000 0.000000 0.000000 0.000000 0.032465 0.000000
# 6 0.000000 0.000000 0.000000 0.000000 0.000000 0.084710
#
#
# Mechanical properties :
#
#
# Convention : Reuss Voigt Hill
#
# Bulk Modulus (GPa) = 43.59840 61.64795 52.62317
# Shear Modulus (GPa) = 20.79582 26.47700 23.63641
#
# Velocity S-wave (km/s) = 3.29159 3.71409 3.50920
# Velocity P-wave (km/s) = 6.09596 7.10711 6.62087
#
# Compressibility (1/GPa) = 0.02293662
#
# Stress axis : x y z
#
# Youngs Moduli (GPa) = 106.32135 84.05386 48.69568
#
# Poissons Ratio (x) = 0.37970 0.29082
# Poissons Ratio (y) = 0.48028 -0.05058
# Poissons Ratio (z) = 0.63498 -0.08731
#
# Static dielectric constant tensor:
#      x y z
#    x 1.724340 0.000000 0.000000 
#    y 0.000000 1.639660 0.000000 
#    z 0.000000 0.000000 1.673070 
# 
# From -- ./inp_files/12439.got.cif
#   From: 2010.05.17/outbox.cif.g08.bks.cpg/sg74_7_cif.got.tgz:12439.got - 2010.06.03 17:57:02.
