data_PCOD9540895
_publ_section_title
;
Structure prediction by ZEFSAII (Michael W. Deem and Ramdas Pophale) SiO2 
 PCOD9540895
Probable space group: I M M A
;
_chemical_formula_sum "Si O2"
_cell_formula_units_Z 36
_cell_length_a 9.000000
_cell_length_b 21.000000
_cell_length_c 21.000000
_cell_angle_alpha 90.000000
_cell_angle_beta 90.000000
_cell_angle_gamma 90.000000
_cell_volume 3969.000000
_symmetry_space_group_name_H-M "I M M A"
_symmetry_group_IT_number 74
_symmetry_cell_setting 'orthorhombic'
loop_
_space_group_symop_operation_xyz
x,y,z
-x,1/2-y,z
x,-y,-z
-x,1/2+y,-z
-x,-y,-z
x,1/2+y,-z
-x,y,z
x,1/2-y,z
1/2+x,1/2+y,1/2+z
1/2-x,-y,1/2+z
1/2+x,1/2-y,1/2-z
1/2-x,y,1/2-z
1/2-x,1/2-y,1/2-z
1/2+x,y,1/2-z
1/2-x,1/2+y,1/2+z
1/2+x,-y,1/2+z
loop_
_atom_site_type_symbol
_atom_site_label
_atom_site_fract_x
_atom_site_fract_y
_atom_site_fract_z
Si Si1 0.683316 0.250000 0.675847
Si Si2 0.822838 0.630264 0.566302
Si Si3 0.334863 0.824580 0.688582
Si Si4 0.319045 0.861168 0.084121
Si Si5 0.330159 0.496855 0.576662
O O1 0.500000 0.250000 0.678430
O O2 0.750000 0.250000 0.750000
O O3 0.744229 0.310454 0.633148
O O4 0.751041 0.671825 0.621832
O O5 0.783259 0.648345 0.492396
O O6 0.765379 0.560232 0.587356
O O7 0.000000 0.632455 0.568959
O O8 0.500000 0.852717 0.681726
O O9 0.351794 0.750000 0.702448
O O10 0.250000 0.852923 0.750000
O O11 0.500000 0.858884 0.090217
O O12 0.254076 0.932159 0.096529
O O13 0.341822 0.500000 0.500000
O O14 0.500000 0.498549 0.601607
#
# Coordination Sequence:
#
# PCOD9540895 Si02
#       5
#     8  16  16  16  16
#     4  12  26  44  64  86 117 154 195 242 296 352
#     4  10  20  34  57  86 117 151 190 236 283 337
#     4  10  21  36  53  76 110 151 190 231 279 332
#     4  10  21  38  60  87 117 150 190 234 286 342
#     4   9  17  32  55  84 116 149 187 234 285 336
#
# _framework density 9.0702949999999998
#
# number of rings (size 3 to 8) (size 9 to 14) (size 15 to 20)
#    0.000    2.000    0.000    3.667    1.556    6.667 
#    0.000    1.111    0.000    0.000    0.000    0.000 
#    0.000    0.000    0.000    0.000    0.000    0.000 
#
# Total GULP energy -200412.890404 kJ/mol
# GULP energy per Si atom -5567.024733 kJ/mol
# Density = 0.904965 g / cm^3
# Si number density = 9.070295 Si / 1000 Ang^3
#
#
#
# Elastic Constant Matrix: (Units=GPa)
#
#
# Indices 1 2 3 4 5 6 
#
# 1 139.6528 39.2486 63.0953 0.0000 0.0000 0.0000
# 2 39.2486 90.3673 41.4143 0.0000 0.0000 0.0000
# 3 63.0953 41.4143 118.4116 0.0000 0.0000 0.0000
# 4 0.0000 0.0000 0.0000 14.2998 0.0000 0.0000
# 5 0.0000 0.0000 0.0000 0.0000 26.4058 0.0000
# 6 0.0000 0.0000 0.0000 0.0000 0.0000 30.9798
#
#
#
# Elastic Compliance Matrix: (Units=1/GPa)
#
#
# Indices 1 2 3 4 5 6 
#
# 1 0.009790 -0.002217 -0.004441 0.000000 0.000000 0.000000
# 2 -0.002217 0.013680 -0.003603 0.000000 0.000000 0.000000
# 3 -0.004441 -0.003603 0.012072 0.000000 0.000000 0.000000
# 4 0.000000 0.000000 0.000000 0.069931 0.000000 0.000000
# 5 0.000000 0.000000 0.000000 0.000000 0.037870 0.000000
# 6 0.000000 0.000000 0.000000 0.000000 0.000000 0.032279
#
#
# Mechanical properties :
#
#
# Convention : Reuss Voigt Hill
#
# Bulk Modulus (GPa) = 66.58106 70.66088 68.62097
# Shear Modulus (GPa) = 24.85673 27.98197 26.41935
#
# Velocity S-wave (km/s) = 3.70567 3.93174 3.82038
# Velocity P-wave (km/s) = 7.42239 7.72320 7.57429
#
# Compressibility (1/GPa) = 0.01501929
#
# Stress axis : x y z
#
# Youngs Moduli (GPa) = 102.14248 73.09873 82.83610
#
# Poissons Ratio (x) = 0.16204 0.36791
# Poissons Ratio (y) = 0.22642 0.29850
# Poissons Ratio (z) = 0.45366 0.26341
#
# Static dielectric constant tensor:
#      x y z
#    x 1.654030 0.000000 0.000000 
#    y 0.000000 1.676930 0.000000 
#    z 0.000000 0.000000 1.615600 
# 
# From -- ./inp_files/48369.got.cif
#   From: 2010.05.17/outbox.ucp.g08.bks.cvg/sg74_25_cif.got.tgz:48369.got - 2010.06.11 16:37:44.
