data_PCOD9540578
_publ_section_title
;
Structure prediction by ZEFSAII (Michael W. Deem and Ramdas Pophale) SiO2 
 PCOD9540578
Probable space group: I M M A
;
_chemical_formula_sum "Si O2"
_cell_formula_units_Z 96
_cell_length_a 20.378023
_cell_length_b 15.990446
_cell_length_c 15.274011
_cell_angle_alpha 90.000000
_cell_angle_beta 90.000000
_cell_angle_gamma 90.000000
_cell_volume 4977.092637
_symmetry_space_group_name_H-M "I M M A"
_symmetry_group_IT_number 74
_symmetry_cell_setting 'orthorhombic'
loop_
_space_group_symop_operation_xyz
x,y,z
-x,1/2-y,z
x,-y,-z
-x,1/2+y,-z
-x,-y,-z
x,1/2+y,-z
-x,y,z
x,1/2-y,z
1/2+x,1/2+y,1/2+z
1/2-x,-y,1/2+z
1/2+x,1/2-y,1/2-z
1/2-x,y,1/2-z
1/2-x,1/2-y,1/2-z
1/2+x,y,1/2-z
1/2-x,1/2+y,1/2+z
1/2+x,-y,1/2+z
loop_
_atom_site_type_symbol
_atom_site_label
_atom_site_fract_x
_atom_site_fract_y
_atom_site_fract_z
Si Si1 0.697758 0.872387 0.172071
Si Si2 0.925693 0.653426 0.789676
Si Si3 0.921729 0.750000 0.293987
Si Si4 0.810984 0.428396 0.313035
Si Si5 0.754102 0.346429 0.474554
Si Si6 0.386152 0.593459 0.523655
Si Si7 0.074520 0.250000 0.914511
O O1 0.750000 0.848557 0.250000
O O2 0.626520 0.827892 0.181471
O O3 0.691647 0.972234 0.175470
O O4 0.725441 0.850432 0.075918
O O5 0.904592 0.750000 0.784332
O O6 0.876778 0.596889 0.735752
O O7 0.922146 0.625720 0.890388
O O8 0.000000 0.646733 0.758163
O O9 0.924897 0.750000 0.189229
O O10 0.000000 0.750000 0.323668
O O11 0.750000 0.403291 0.250000
O O12 0.806539 0.380705 0.405438
O O13 0.737533 0.250000 0.453599
O O14 0.691333 0.404855 0.457763
O O15 0.407374 0.500000 0.500000
O O16 0.394502 0.664267 0.449751
O O17 0.000000 0.250000 0.947398
#
# Coordination Sequence:
#
# PCOD9540578 Si02
#       7
#    16  16   8  16  16  16   8
#     4  11  24  43  67  99 131 166 217 275 328 388
#     4  11  24  43  63  91 135 176 216 270 330 391
#     4  11  25  43  65  92 130 176 219 269 331 391
#     4  11  24  41  66  99 129 166 219 270 320 389
#     4  12  23  41  70  96 128 169 213 272 333 384
#     4  12  24  39  63  97 133 171 219 270 329 397
#     4  11  24  41  61  91 131 176 219 262 327 401
#
# _framework density 19.288368999999999
#
# number of rings (size 3 to 8) (size 9 to 14) (size 15 to 20)
#    0.000    0.667    4.167    3.750    4.667    2.667 
#    0.000    0.833    0.000    2.000    0.000    0.000 
#    0.000    0.000    0.000    0.000    0.000    0.000 
#
# Total GULP energy -268134.184237 kJ/mol
# GULP energy per Si atom -5586.128838 kJ/mol
# Density = 1.924447 g / cm^3
# Si number density = 19.288369 Si / 1000 Ang^3
#
#
#
# Elastic Constant Matrix: (Units=GPa)
#
#
# Indices 1 2 3 4 5 6 
#
# 1 74.4757 9.9916 17.4910 0.0000 0.0000 0.0000
# 2 9.9916 103.9999 14.9377 0.0000 0.0000 0.0000
# 3 17.4910 14.9377 82.9560 0.0000 0.0000 0.0000
# 4 0.0000 0.0000 0.0000 17.9425 0.0000 0.0000
# 5 0.0000 0.0000 0.0000 0.0000 29.7093 0.0000
# 6 0.0000 0.0000 0.0000 0.0000 0.0000 -10.7593
#
#
#
# Elastic Compliance Matrix: (Units=1/GPa)
#
#
# Indices 1 2 3 4 5 6 
#
# 1 0.014220 -0.000960 -0.002825 0.000000 0.000000 0.000000
# 2 -0.000960 0.009936 -0.001587 0.000000 0.000000 0.000000
# 3 -0.002825 -0.001587 0.012936 0.000000 0.000000 0.000000
# 4 0.000000 0.000000 0.000000 0.055734 0.000000 0.000000
# 5 0.000000 0.000000 0.000000 0.000000 0.033659 0.000000
# 6 0.000000 0.000000 0.000000 0.000000 0.000000 -0.092943
#
#
# Mechanical properties :
#
#
# Convention : Reuss Voigt Hill
#
# Bulk Modulus (GPa) = 37.95530 38.47469 38.21500
# Shear Modulus (GPa) = 94.21842 21.97925 58.09883
#
# Velocity S-wave (km/s) = 6.99666 3.37932 5.49423
# Velocity P-wave (km/s) = 9.21909 5.93438 7.75269
#
# Compressibility (1/GPa) = 0.02634678
#
# Stress axis : x y z
#
# Youngs Moduli (GPa) = 70.32573 100.64878 77.30383
#
# Poissons Ratio (x) = 0.09666 0.21840
# Poissons Ratio (y) = 0.06754 0.12265
# Poissons Ratio (z) = 0.19869 0.15969
#
# Static dielectric constant tensor:
#      x y z
#    x 1.698470 0.000000 0.000000 
#    y 0.000000 1.729620 0.000000 
#    z 0.000000 0.000000 1.654400 
# 
# From -- ./inp_files/32464.got.cif
#   From: 2010.05.17/outbox.cif.g08.bks.cpg/sg74_17_cif.got.tgz:32464.got - 2010.06.03 17:57:02.
