data_PCOD9540242
_publ_section_title
;
Structure prediction by ZEFSAII (Michael W. Deem and Ramdas Pophale) SiO2 
 PCOD9540242
Probable space group: I M M A
;
_chemical_formula_sum "Si O2"
_cell_formula_units_Z 88
_cell_length_a 23.643179
_cell_length_b 18.395549
_cell_length_c 10.985174
_cell_angle_alpha 90.000000
_cell_angle_beta 90.000000
_cell_angle_gamma 90.000000
_cell_volume 4777.773575
_symmetry_space_group_name_H-M "I M M A"
_symmetry_group_IT_number 74
_symmetry_cell_setting 'orthorhombic'
loop_
_space_group_symop_operation_xyz
x,y,z
-x,1/2-y,z
x,-y,-z
-x,1/2+y,-z
-x,-y,-z
x,1/2+y,-z
-x,y,z
x,1/2-y,z
1/2+x,1/2+y,1/2+z
1/2-x,-y,1/2+z
1/2+x,1/2-y,1/2-z
1/2-x,y,1/2-z
1/2-x,1/2-y,1/2-z
1/2+x,y,1/2-z
1/2-x,1/2+y,1/2+z
1/2+x,-y,1/2+z
loop_
_atom_site_type_symbol
_atom_site_label
_atom_site_fract_x
_atom_site_fract_y
_atom_site_fract_z
Si Si1 0.750000 0.031039 0.750000
Si Si2 0.436052 0.664924 0.026968
Si Si3 0.250748 0.167639 0.396748
Si Si4 0.168683 0.080714 0.549143
Si Si5 0.844915 0.059281 0.102337
Si Si6 0.566611 0.165072 0.266253
O O1 0.782893 0.076928 0.649937
O O2 0.799957 0.982986 0.810603
O O3 0.500000 0.645690 0.061239
O O4 0.426929 0.750000 0.052573
O O5 0.431024 0.656016 0.880329
O O6 0.389504 0.615830 0.090655
O O7 0.252021 0.250000 0.439114
O O8 0.250000 0.167600 0.250000
O O9 0.194153 0.129121 0.441458
O O10 0.304025 0.122982 0.447130
O O11 0.159474 0.000000 0.500000
O O12 0.895012 0.103286 0.170027
O O13 0.862325 0.000000 0.000000
O O14 0.500000 0.158854 0.300318
O O15 0.584454 0.250000 0.291849
#
# Coordination Sequence:
#
# PCOD9540242 Si02
#       6
#     8  16  16  16  16  16
#     4  12  22  38  52  80 124 154 184 224 278 330
#     4   9  19  37  60  86 112 141 184 238 288 329
#     4  11  20  33  55  82 107 141 186 233 283 328
#     4  12  21  35  56  82 120 150 182 230 277 339
#     4  12  21  36  56  79 113 150 188 232 277 336
#     4   9  19  36  59  86 112 138 180 241 293 331
#
# _framework density 18.418620000000001
#
# number of rings (size 3 to 8) (size 9 to 14) (size 15 to 20)
#    0.000    1.273    4.545    4.364    0.000    3.636 
#    0.000    2.727    0.000    0.000    0.000    2.545 
#    0.000    0.000    0.000    0.000    0.000    0.000 
#
# Total GULP energy -245477.885163 kJ/mol
# GULP energy per Si atom -5579.042845 kJ/mol
# Density = 1.837670 g / cm^3
# Si number density = 18.418620 Si / 1000 Ang^3
#
#
#
# Elastic Constant Matrix: (Units=GPa)
#
#
# Indices 1 2 3 4 5 6 
#
# 1 124.2663 56.5456 33.2318 0.0000 0.0000 0.0000
# 2 56.5456 96.3398 29.8014 0.0000 0.0000 0.0000
# 3 33.2318 29.8014 35.9388 0.0000 0.0000 0.0000
# 4 0.0000 0.0000 0.0000 10.0965 0.0000 0.0000
# 5 0.0000 0.0000 0.0000 0.0000 62.8814 0.0000
# 6 0.0000 0.0000 0.0000 0.0000 0.0000 49.1779
#
#
#
# Elastic Compliance Matrix: (Units=1/GPa)
#
#
# Indices 1 2 3 4 5 6 
#
# 1 0.012224 -0.004947 -0.007201 0.000000 0.000000 0.000000
# 2 -0.004947 0.015963 -0.008663 0.000000 0.000000 0.000000
# 3 -0.007201 -0.008663 0.041667 0.000000 0.000000 0.000000
# 4 0.000000 0.000000 0.000000 0.099045 0.000000 0.000000
# 5 0.000000 0.000000 0.000000 0.000000 0.015903 0.000000
# 6 0.000000 0.000000 0.000000 0.000000 0.000000 0.020334
#
#
# Mechanical properties :
#
#
# Convention : Reuss Voigt Hill
#
# Bulk Modulus (GPa) = 35.41990 55.07805 45.24898
# Shear Modulus (GPa) = 19.51839 33.56223 26.54031
#
# Velocity S-wave (km/s) = 3.25885 4.27334 3.80010
# Velocity P-wave (km/s) = 5.78207 7.37001 6.62380
#
# Compressibility (1/GPa) = 0.02823271
#
# Stress axis : x y z
#
# Youngs Moduli (GPa) = 81.80530 62.64360 23.99989
#
# Poissons Ratio (x) = 0.30992 0.17282
# Poissons Ratio (y) = 0.40472 0.20790
# Poissons Ratio (z) = 0.58908 0.54265
#
# Static dielectric constant tensor:
#      x y z
#    x 1.667730 0.000000 0.000000 
#    y 0.000000 1.661330 0.000000 
#    z 0.000000 0.000000 1.499400 
# 
# From -- ./inp_files/20665.got.cif
#   From: 2010.05.17/outbox.cif.g08.bks.cpg/sg74_11_cif.got.tgz:20665.got - 2010.06.03 17:57:02.
