data_PCOD9540541
_publ_section_title
;
Structure prediction by ZEFSAII (Michael W. Deem and Ramdas Pophale) SiO2 
 PCOD9540541
Probable space group: I M M A
;
_chemical_formula_sum "Si O2"
_cell_formula_units_Z 64
_cell_length_a 15.598097
_cell_length_b 14.863933
_cell_length_c 11.855980
_cell_angle_alpha 90.000000
_cell_angle_beta 90.000000
_cell_angle_gamma 90.000000
_cell_volume 2748.797922
_symmetry_space_group_name_H-M "I M M A"
_symmetry_group_IT_number 74
_symmetry_cell_setting 'orthorhombic'
loop_
_space_group_symop_operation_xyz
x,y,z
-x,1/2-y,z
x,-y,-z
-x,1/2+y,-z
-x,-y,-z
x,1/2+y,-z
-x,y,z
x,1/2-y,z
1/2+x,1/2+y,1/2+z
1/2-x,-y,1/2+z
1/2+x,1/2-y,1/2-z
1/2-x,y,1/2-z
1/2-x,1/2-y,1/2-z
1/2+x,y,1/2-z
1/2-x,1/2+y,1/2+z
1/2+x,-y,1/2+z
loop_
_atom_site_type_symbol
_atom_site_label
_atom_site_fract_x
_atom_site_fract_y
_atom_site_fract_z
Si Si1 0.410378 0.147410 0.512506
Si Si2 0.240188 0.580735 0.864337
Si Si3 0.342031 0.897117 0.258860
Si Si4 0.600300 0.859189 0.006662
O O1 0.500000 0.103658 0.475728
O O2 0.412596 0.250000 0.475545
O O3 0.324692 0.109630 0.460299
O O4 0.402235 0.143712 0.646867
O O5 0.250000 0.638016 0.750000
O O6 0.187552 0.493706 0.812778
O O7 0.332707 0.588435 0.925482
O O8 0.250000 0.848975 0.250000
O O9 0.382050 0.892202 0.134976
O O10 0.500000 0.874668 0.978283
O O11 0.615864 0.750000 0.001418
#
# Coordination Sequence:
#
# PCOD9540541 Si02
#       4
#    16  16  16  16
#     4  11  24  42  68 101 137 182 235 294 357 421
#     4  11  26  44  69 102 146 192 237 287 361 435
#     4  11  23  41  71 103 139 182 235 294 358 425
#     4  11  25  47  77 110 144 189 245 305 365 427
#
# _framework density 23.282905
#
# number of rings (size 3 to 8) (size 9 to 14) (size 15 to 20)
#    0.000    1.000    2.500    3.000    3.500    9.000 
#    0.000   15.000    0.000    0.000    0.000    0.000 
#    0.000    0.000    0.000    0.000    0.000    0.000 
#
# Total GULP energy -178267.221791 kJ/mol
# GULP energy per Si atom -5570.850681 kJ/mol
# Density = 2.322991 g / cm^3
# Si number density = 23.282905 Si / 1000 Ang^3
#
#
#
# Elastic Constant Matrix: (Units=GPa)
#
#
# Indices 1 2 3 4 5 6 
#
# 1 183.3233 17.0433 50.8796 0.0000 0.0000 0.0000
# 2 17.0433 98.9239 4.9920 0.0000 0.0000 0.0000
# 3 50.8796 4.9920 151.3084 0.0000 0.0000 0.0000
# 4 0.0000 0.0000 0.0000 -9.3440 0.0000 0.0000
# 5 0.0000 0.0000 0.0000 0.0000 173.1330 0.0000
# 6 0.0000 0.0000 0.0000 0.0000 0.0000 8.5836
#
#
#
# Elastic Compliance Matrix: (Units=1/GPa)
#
#
# Indices 1 2 3 4 5 6 
#
# 1 0.006104 -0.000950 -0.002021 0.000000 0.000000 0.000000
# 2 -0.000950 0.010273 -0.000020 0.000000 0.000000 0.000000
# 3 -0.002021 -0.000020 0.007289 0.000000 0.000000 0.000000
# 4 0.000000 0.000000 0.000000 -0.107020 0.000000 0.000000
# 5 0.000000 0.000000 0.000000 0.000000 0.005776 0.000000
# 6 0.000000 0.000000 0.000000 0.000000 0.000000 0.116501
#
#
# Mechanical properties :
#
#
# Convention : Reuss Voigt Hill
#
# Bulk Modulus (GPa) = 56.54257 64.37614 60.45935
# Shear Modulus (GPa) = 98.42611 58.51724 78.47167
#
# Velocity S-wave (km/s) = 6.50890 5.01873 5.81177
# Velocity P-wave (km/s) = 8.99030 7.82899 8.42967
#
# Compressibility (1/GPa) = 0.01768579
#
# Stress axis : x y z
#
# Youngs Moduli (GPa) = 163.82394 97.33889 137.18654
#
# Poissons Ratio (x) = 0.09244 0.27729
# Poissons Ratio (y) = 0.15558 0.00269
# Poissons Ratio (z) = 0.33113 0.00191
#
# Static dielectric constant tensor:
#      x y z
#    x 1.957170 0.000000 0.000000 
#    y 0.000000 2.065150 0.000000 
#    z 0.000000 0.000000 1.936610 
# 
# From -- ./inp_files/19931.got.cif
#   From: 2010.05.17/outbox.cif.g08.bks.cpg/sg74_10_cif.got.tgz:19931.got - 2010.06.03 17:57:02.
