data_PCOD9540395
_publ_section_title
;
Structure prediction by ZEFSAII (Michael W. Deem and Ramdas Pophale) SiO2 
 PCOD9540395
Probable space group: I M M A
;
_chemical_formula_sum "Si O2"
_cell_formula_units_Z 96
_cell_length_a 8.201156
_cell_length_b 25.096363
_cell_length_c 23.848697
_cell_angle_alpha 90.000000
_cell_angle_beta 90.000000
_cell_angle_gamma 90.000000
_cell_volume 4908.519451
_symmetry_space_group_name_H-M "I M M A"
_symmetry_group_IT_number 74
_symmetry_cell_setting 'orthorhombic'
loop_
_space_group_symop_operation_xyz
x,y,z
-x,1/2-y,z
x,-y,-z
-x,1/2+y,-z
-x,-y,-z
x,1/2+y,-z
-x,y,z
x,1/2-y,z
1/2+x,1/2+y,1/2+z
1/2-x,-y,1/2+z
1/2+x,1/2-y,1/2-z
1/2-x,y,1/2-z
1/2-x,1/2-y,1/2-z
1/2+x,y,1/2-z
1/2-x,1/2+y,1/2+z
1/2+x,-y,1/2+z
loop_
_atom_site_type_symbol
_atom_site_label
_atom_site_fract_x
_atom_site_fract_y
_atom_site_fract_z
Si Si1 0.306399 0.588867 0.114488
Si Si2 0.803970 0.869355 0.812676
Si Si3 0.696717 0.474511 0.377108
Si Si4 0.698941 0.808664 0.579179
Si Si5 0.697348 0.310241 0.814328
Si Si6 0.696838 0.913431 0.513495
O O1 0.500000 0.592119 0.116419
O O2 0.253719 0.532600 0.140838
O O3 0.242025 0.641807 0.145861
O O4 0.253627 0.583812 0.049910
O O5 0.750000 0.859207 0.750000
O O6 0.748510 0.926941 0.836151
O O7 0.750560 0.825684 0.858218
O O8 0.000000 0.870140 0.814046
O O9 0.500000 0.474666 0.377998
O O10 0.750507 0.457310 0.440347
O O11 0.500000 0.808213 0.578254
O O12 0.756954 0.750000 0.563888
O O13 0.749049 0.856338 0.538552
O O14 0.500000 0.310266 0.816016
O O15 0.751783 0.250000 0.830373
O O16 0.750000 0.319325 0.750000
O O17 0.500000 0.915971 0.512974
#
# Coordination Sequence:
#
# PCOD9540395 Si02
#       6
#    16  16  16  16  16  16
#     4  11  22  33  51  79 103 125 157 199 247 295
#     4   9  18  32  50  72  99 132 167 205 249 290
#     4   9  19  35  51  69  99 136 169 202 240 285
#     4   8  15  30  51  73  98 130 169 209 243 280
#     4   9  20  39  57  73  98 129 159 196 243 292
#     4   9  18  33  52  73  99 133 169 202 239 286
#
# _framework density 19.557832999999999
#
# number of rings (size 3 to 8) (size 9 to 14) (size 15 to 20)
#    0.000    2.833    0.000    3.000    0.000    6.333 
#    0.000    5.833    0.000    1.000    0.000    0.000 
#    0.000    0.000    0.000    0.000    0.000    0.000 
#
# Total GULP energy -267618.046955 kJ/mol
# GULP energy per Si atom -5575.375978 kJ/mol
# Density = 1.951332 g / cm^3
# Si number density = 19.557833 Si / 1000 Ang^3
#
#
#
# Elastic Constant Matrix: (Units=GPa)
#
#
# Indices 1 2 3 4 5 6 
#
# 1 7.2783 8.1739 -2.4386 0.0000 0.0000 0.0000
# 2 8.1739 128.1449 9.2184 0.0000 0.0000 0.0000
# 3 -2.4386 9.2184 17.2257 0.0000 0.0000 0.0000
# 4 0.0000 0.0000 0.0000 14.7944 0.0000 0.0000
# 5 0.0000 0.0000 0.0000 0.0000 24.8278 0.0000
# 6 0.0000 0.0000 0.0000 0.0000 0.0000 20.8746
#
#
#
# Elastic Compliance Matrix: (Units=1/GPa)
#
#
# Indices 1 2 3 4 5 6 
#
# 1 0.161192 -0.012401 0.029456 0.000000 0.000000 0.000000
# 2 -0.012401 0.009070 -0.006610 0.000000 0.000000 0.000000
# 3 0.029456 -0.006610 0.065760 0.000000 0.000000 0.000000
# 4 0.000000 0.000000 0.000000 0.067593 0.000000 0.000000
# 5 0.000000 0.000000 0.000000 0.000000 0.040278 0.000000
# 6 0.000000 0.000000 0.000000 0.000000 0.000000 0.047905
#
#
# Mechanical properties :
#
#
# Convention : Reuss Voigt Hill
#
# Bulk Modulus (GPa) = 3.89236 20.28403 12.08819
# Shear Modulus (GPa) = 10.95184 21.27903 16.11543
#
# Velocity S-wave (km/s) = 2.36894 3.30207 2.87363
# Velocity P-wave (km/s) = 3.07847 4.99320 4.14783
#
# Compressibility (1/GPa) = 0.25691366
#
# Stress axis : x y z
#
# Youngs Moduli (GPa) = 6.20378 110.25187 15.20682
#
# Poissons Ratio (x) = 1.36722 -0.44793
# Poissons Ratio (y) = 0.07693 0.10051
# Poissons Ratio (z) = -0.18274 0.72871
#
# Static dielectric constant tensor:
#      x y z
#    x 1.695200 0.000000 0.000000 
#    y 0.000000 1.710580 0.000000 
#    z 0.000000 0.000000 1.666610 
# 
# From -- ./inp_files/50790.got.cif
#   From: 2010.05.17/outbox.cif.g08.bks.cpg/sg74_26_cif.got.tgz:50790.got - 2010.06.03 17:57:02.
