data_PCOD9540425
_publ_section_title
;
Structure prediction by ZEFSAII (Michael W. Deem and Ramdas Pophale) SiO2 
 PCOD9540425
Probable space group: I M M A
;
_chemical_formula_sum "Si O2"
_cell_formula_units_Z 80
_cell_length_a 16.789190
_cell_length_b 8.585360
_cell_length_c 29.086619
_cell_angle_alpha 90.000000
_cell_angle_beta 90.000000
_cell_angle_gamma 90.000000
_cell_volume 4192.581338
_symmetry_space_group_name_H-M "I M M A"
_symmetry_group_IT_number 74
_symmetry_cell_setting 'orthorhombic'
loop_
_space_group_symop_operation_xyz
x,y,z
-x,1/2-y,z
x,-y,-z
-x,1/2+y,-z
-x,-y,-z
x,1/2+y,-z
-x,y,z
x,1/2-y,z
1/2+x,1/2+y,1/2+z
1/2-x,-y,1/2+z
1/2+x,1/2-y,1/2-z
1/2-x,y,1/2-z
1/2-x,1/2-y,1/2-z
1/2+x,y,1/2-z
1/2-x,1/2+y,1/2+z
1/2+x,-y,1/2+z
loop_
_atom_site_type_symbol
_atom_site_label
_atom_site_fract_x
_atom_site_fract_y
_atom_site_fract_z
Si Si1 0.729217 0.066646 0.136046
Si Si2 0.000000 0.576745 0.156664
Si Si3 0.674903 0.064605 0.548293
Si Si4 0.863010 0.568162 0.788215
Si Si5 0.094061 0.064594 0.691443
Si Si6 0.000000 0.928595 0.936537
O O1 0.716827 0.250000 0.128700
O O2 0.783343 0.049077 0.182001
O O3 0.778249 0.000136 0.092679
O O4 0.646007 0.983243 0.147226
O O5 0.924411 0.548767 0.188059
O O6 0.000000 0.444289 0.118413
O O7 0.000000 0.750000 0.135936
O O8 0.677574 0.250000 0.548825
O O9 0.707991 0.000000 0.500000
O O10 0.582591 0.009758 0.550134
O O11 0.886781 0.750000 0.792993
O O12 0.867280 0.524505 0.734887
O O13 0.100302 0.250000 0.698744
O O14 0.000000 0.025106 0.688274
O O15 0.000000 0.750000 0.952086
#
# Coordination Sequence:
#
# PCOD9540425 Si02
#       6
#    16   8  16  16  16   8
#     4  11  24  41  62  89 121 158 203 250 302 360
#     4  12  22  33  55  86 122 166 206 243 294 349
#     4  12  25  42  64  90 122 159 201 249 301 357
#     4  11  22  37  59  86 122 163 204 247 296 352
#     4  11  24  40  60  88 122 159 204 251 300 357
#     4  12  23  39  60  88 125 164 206 247 293 351
#
# _framework density 19.081323999999999
#
# number of rings (size 3 to 8) (size 9 to 14) (size 15 to 20)
#    0.000    0.600    3.000    6.300    0.000    6.000 
#    0.000    0.000    0.000    0.600    0.000    0.000 
#    0.000    0.000    0.000    0.000    0.000    0.000 
#
# Total GULP energy -223543.555642 kJ/mol
# GULP energy per Si atom -5588.588891 kJ/mol
# Density = 1.903789 g / cm^3
# Si number density = 19.081324 Si / 1000 Ang^3
#
#
#
# Elastic Constant Matrix: (Units=GPa)
#
#
# Indices 1 2 3 4 5 6 
#
# 1 82.7836 52.7174 69.7174 0.0000 0.0000 0.0000
# 2 52.7174 116.6816 32.7132 0.0000 0.0000 0.0000
# 3 69.7174 32.7132 107.7680 0.0000 0.0000 0.0000
# 4 0.0000 0.0000 0.0000 34.1809 0.0000 0.0000
# 5 0.0000 0.0000 0.0000 0.0000 11.8878 0.0000
# 6 0.0000 0.0000 0.0000 0.0000 0.0000 45.1315
#
#
#
# Elastic Compliance Matrix: (Units=1/GPa)
#
#
# Indices 1 2 3 4 5 6 
#
# 1 0.035267 -0.010425 -0.019651 0.000000 0.000000 0.000000
# 2 -0.010425 0.012449 0.002965 0.000000 0.000000 0.000000
# 3 -0.019651 0.002965 0.021092 0.000000 0.000000 0.000000
# 4 0.000000 0.000000 0.000000 0.029256 0.000000 0.000000
# 5 0.000000 0.000000 0.000000 0.000000 0.084120 0.000000
# 6 0.000000 0.000000 0.000000 0.000000 0.000000 0.022157
#
#
# Mechanical properties :
#
#
# Convention : Reuss Voigt Hill
#
# Bulk Modulus (GPa) = 68.55341 68.61437 68.58389
# Shear Modulus (GPa) = 18.98074 28.37905 23.67990
#
# Velocity S-wave (km/s) = 3.15735 3.86070 3.52660
# Velocity P-wave (km/s) = 7.02117 7.47732 7.25283
#
# Compressibility (1/GPa) = 0.01458717
#
# Stress axis : x y z
#
# Youngs Moduli (GPa) = 28.35472 80.32794 47.41199
#
# Poissons Ratio (x) = 0.83739 0.93169
# Poissons Ratio (y) = 0.29559 -0.14058
# Poissons Ratio (z) = 0.55719 -0.23818
#
# Static dielectric constant tensor:
#      x y z
#    x 1.662850 0.000000 0.000000 
#    y 0.000000 1.637390 0.000000 
#    z 0.000000 0.000000 1.670310 
# 
# From -- ./inp_files/67583.got.cif
#   From: 2010.05.17/outbox.cif.g08.bks.cpg/sg74_34_cif.got.tgz:67583.got - 2010.06.03 17:57:02.
