data_PCOD9540249
_publ_section_title
;
Structure prediction by ZEFSAII (Michael W. Deem and Ramdas Pophale) SiO2 
 PCOD9540249
Probable space group: I M M A
;
_chemical_formula_sum "Si O2"
_cell_formula_units_Z 112
_cell_length_a 15.955192
_cell_length_b 28.531949
_cell_length_c 14.835961
_cell_angle_alpha 90.000000
_cell_angle_beta 90.000000
_cell_angle_gamma 90.000000
_cell_volume 6753.814946
_symmetry_space_group_name_H-M "I M M A"
_symmetry_group_IT_number 74
_symmetry_cell_setting 'orthorhombic'
loop_
_space_group_symop_operation_xyz
x,y,z
-x,1/2-y,z
x,-y,-z
-x,1/2+y,-z
-x,-y,-z
x,1/2+y,-z
-x,y,z
x,1/2-y,z
1/2+x,1/2+y,1/2+z
1/2-x,-y,1/2+z
1/2+x,1/2-y,1/2-z
1/2-x,y,1/2-z
1/2-x,1/2-y,1/2-z
1/2+x,y,1/2-z
1/2-x,1/2+y,1/2+z
1/2+x,-y,1/2+z
loop_
_atom_site_type_symbol
_atom_site_label
_atom_site_fract_x
_atom_site_fract_y
_atom_site_fract_z
Si Si1 0.406071 0.524084 0.598828
Si Si2 0.688519 0.107158 0.484422
Si Si3 0.738060 0.955840 0.346317
Si Si4 0.599739 0.301821 0.466540
Si Si5 0.405936 0.489279 0.107839
Si Si6 0.317358 0.604354 0.828016
Si Si7 0.899703 0.697583 0.751580
O O1 0.408597 0.500000 0.500000
O O2 0.500000 0.522749 0.637034
O O3 0.376228 0.576505 0.576214
O O4 0.335393 0.495566 0.653184
O O5 0.715297 0.077419 0.570870
O O6 0.646713 0.155534 0.511962
O O7 0.766441 0.114538 0.419002
O O8 0.750000 0.931768 0.250000
O O9 0.826813 0.980279 0.362506
O O10 0.500000 0.305855 0.478852
O O11 0.626000 0.250000 0.496144
O O12 0.615889 0.305500 0.359009
O O13 0.500000 0.500810 0.140355
O O14 0.381413 0.437185 0.144107
O O15 0.407441 0.500000 0.000000
O O16 0.250000 0.589941 0.750000
O O17 0.359006 0.652562 0.794514
O O18 0.870749 0.750000 0.722136
O O19 0.000000 0.695954 0.738869
#
# Coordination Sequence:
#
# PCOD9540249 Si02
#       7
#    16  16  16  16  16  16  16
#     4   9  18  33  54  76 103 135 168 217 275 323
#     4  11  20  34  52  76 110 134 181 219 263 316
#     4  11  22  38  53  74 106 140 184 231 270 311
#     4   9  18  33  53  79 109 139 169 207 264 331
#     4  11  22  38  54  72 104 147 190 228 264 310
#     4  12  21  33  52  78 107 142 179 220 263 319
#     4   9  19  34  50  75 110 142 174 211 258 324
#
# _framework density 16.583220000000001
#
# number of rings (size 3 to 8) (size 9 to 14) (size 15 to 20)
#    0.000    1.714    4.286    2.571    0.000    2.000 
#    0.000    0.000    0.000    0.429    0.000    0.000 
#    0.000    2.286    0.000    0.000    0.000    0.000 
#
# Total GULP energy -312211.302509 kJ/mol
# GULP energy per Si atom -5575.201831 kJ/mol
# Density = 1.654548 g / cm^3
# Si number density = 16.583220 Si / 1000 Ang^3
#
#
#
# Elastic Constant Matrix: (Units=GPa)
#
#
# Indices 1 2 3 4 5 6 
#
# 1 105.5811 54.5202 30.6609 0.0000 0.0000 0.0000
# 2 54.5202 119.2947 24.4672 0.0000 0.0000 0.0000
# 3 30.6609 24.4672 60.4106 0.0000 0.0000 0.0000
# 4 0.0000 0.0000 0.0000 22.7258 0.0000 0.0000
# 5 0.0000 0.0000 0.0000 0.0000 -0.4276 0.0000
# 6 0.0000 0.0000 0.0000 0.0000 0.0000 28.0493
#
#
#
# Elastic Compliance Matrix: (Units=1/GPa)
#
#
# Indices 1 2 3 4 5 6 
#
# 1 0.013547 -0.005214 -0.004764 0.000000 0.000000 0.000000
# 2 -0.005214 0.011149 -0.001869 0.000000 0.000000 0.000000
# 3 -0.004764 -0.001869 0.019728 0.000000 0.000000 0.000000
# 4 0.000000 0.000000 0.000000 0.044003 0.000000 0.000000
# 5 0.000000 0.000000 0.000000 0.000000 -2.338866 0.000000
# 6 0.000000 0.000000 0.000000 0.000000 0.000000 0.035652
#
#
# Mechanical properties :
#
#
# Convention : Reuss Voigt Hill
#
# Bulk Modulus (GPa) = 48.23926 56.06476 52.15201
# Shear Modulus (GPa) = -2.28919 21.77870 9.74475
#
# Velocity S-wave (km/s) = -1.17619 3.62788 2.42673
# Velocity P-wave (km/s) = 5.22569 7.17148 6.27447
#
# Compressibility (1/GPa) = 0.02073000
#
# Stress axis : x y z
#
# Youngs Moduli (GPa) = 73.81446 89.69398 50.68863
#
# Poissons Ratio (x) = 0.46770 0.24148
# Poissons Ratio (y) = 0.38490 0.09474
# Poissons Ratio (z) = 0.35165 0.16764
#
# Static dielectric constant tensor:
#      x y z
#    x 1.580080 0.000000 0.000000 
#    y 0.000000 1.574800 0.000000 
#    z 0.000000 0.000000 1.562240 
# 
# From -- ./inp_files/32896.got.cif
#   From: 2010.05.17/outbox.cif.g08.bks.cpg/sg74_17_cif.got.tgz:32896.got - 2010.06.03 17:57:02.
