data_PCOD9540174
_publ_section_title
;
Structure prediction by ZEFSAII (Michael W. Deem and Ramdas Pophale) SiO2 
 PCOD9540174
Probable space group: I M M A
;
_chemical_formula_sum "Si O2"
_cell_formula_units_Z 68
_cell_length_a 14.440378
_cell_length_b 24.139051
_cell_length_c 6.889902
_cell_angle_alpha 90.000000
_cell_angle_beta 90.000000
_cell_angle_gamma 90.000000
_cell_volume 2401.661514
_symmetry_space_group_name_H-M "I M M A"
_symmetry_group_IT_number 74
_symmetry_cell_setting 'orthorhombic'
loop_
_space_group_symop_operation_xyz
x,y,z
-x,1/2-y,z
x,-y,-z
-x,1/2+y,-z
-x,-y,-z
x,1/2+y,-z
-x,y,z
x,1/2-y,z
1/2+x,1/2+y,1/2+z
1/2-x,-y,1/2+z
1/2+x,1/2-y,1/2-z
1/2-x,y,1/2-z
1/2-x,1/2-y,1/2-z
1/2+x,y,1/2-z
1/2-x,1/2+y,1/2+z
1/2+x,-y,1/2+z
loop_
_atom_site_type_symbol
_atom_site_label
_atom_site_fract_x
_atom_site_fract_y
_atom_site_fract_z
Si Si1 0.610430 0.953154 0.263925
Si Si2 0.106980 0.310577 0.350606
Si Si3 0.388520 0.429091 0.194344
Si Si4 0.145716 0.668242 0.206353
Si Si5 0.000000 0.750000 0.018165
O O1 0.500000 0.952963 0.300702
O O2 0.648735 0.896667 0.352718
O O3 0.644642 0.015660 0.303088
O O4 0.623822 0.942462 0.033553
O O5 0.150507 0.250000 0.323266
O O6 0.147999 0.367475 0.270137
O O7 0.100673 0.322260 0.581400
O O8 0.000000 0.303371 0.283661
O O9 0.500000 0.425938 0.224672
O O10 0.250000 0.686578 0.250000
O O11 0.083117 0.702549 0.060700
#
# Coordination Sequence:
#
# PCOD9540174 Si02
#       5
#    16  16  16  16   4
#     4   8  12  22  31  43  61  80 108 137 157 183
#     4   9  13  21  31  47  71  91 105 125 153 190
#     4   7  11  17  32  45  58  84 105 124 160 193
#     4  11  18  23  33  44  61  95 117 132 153 182
#     4  12  18  28  28  40  68  94 116 140 150 168
#
# _framework density 28.313731000000001
#
# number of rings (size 3 to 8) (size 9 to 14) (size 15 to 20)
#    0.000    3.059    3.529    3.176    0.000    0.000 
#    0.000    0.000    0.000    0.000    0.000    0.000 
#    0.000   16.000    0.000    0.000    0.000    0.000 
#
# Total GULP energy -189755.706460 kJ/mol
# GULP energy per Si atom -5581.050190 kJ/mol
# Density = 2.824929 g / cm^3
# Si number density = 28.313731 Si / 1000 Ang^3
#
#
#
# Elastic Constant Matrix: (Units=GPa)
#
#
# Indices 1 2 3 4 5 6 
#
# 1 139.4773 23.7898 -15.4759 -0.0011 -0.0003 0.0061
# 2 23.7898 373.2502 30.8087 0.0031 -0.0008 -0.0019
# 3 -15.4759 30.8087 112.0488 0.0382 -0.0006 -0.0713
# 4 -0.0011 0.0031 0.0382 89.2576 0.0033 0.0111
# 5 -0.0003 -0.0008 -0.0006 0.0033 -11.2155 -0.0058
# 6 0.0061 -0.0019 -0.0713 0.0111 -0.0058 244.2354
#
#
#
# Elastic Compliance Matrix: (Units=1/GPa)
#
#
# Indices 1 2 3 4 5 6 
#
# 1 0.007397 -0.000569 0.001178 0.000000 0.000000 0.000000
# 2 -0.000569 0.002785 -0.000844 0.000000 0.000000 0.000000
# 3 0.001178 -0.000844 0.009320 -0.000004 0.000000 0.000003
# 4 0.000000 0.000000 -0.000004 0.011204 0.000003 -0.000001
# 5 0.000000 0.000000 0.000000 0.000003 -0.089162 -0.000002
# 6 0.000000 0.000000 0.000003 -0.000001 -0.000002 0.004094
#
#
# Mechanical properties :
#
#
# Convention : Reuss Voigt Hill
#
# Bulk Modulus (GPa) = 52.54296 78.11349 65.32823
# Shear Modulus (GPa) = -105.15582 103.49908 -0.82837
#
# Velocity S-wave (km/s) = -6.10083 6.05258 -0.54148
# Velocity P-wave (km/s) = 5.57038 8.74605 4.76782
#
# Compressibility (1/GPa) = 0.01903205
#
# Stress axis : x y z
#
# Youngs Moduli (GPa) = 135.18360 359.05231 107.30124
#
# Poissons Ratio (x) = 0.20420 -0.12641
# Poissons Ratio (y) = 0.07688 0.09060
# Poissons Ratio (z) = -0.15926 0.30316
#
# Static dielectric constant tensor:
#      x y z
#    x 8.478750 0.002650 -0.000450 
#    y 0.002650 2.616780 -0.000020 
#    z -0.000450 -0.000020 2.396370 
# 
# From -- ./inp_files/20754.got.cif
#   From: 2010.05.17/outbox.cif.g08.bks.cpg/sg74_11_cif.got.tgz:20754.got - 2010.06.03 17:57:02.
