data_PCOD9540698
_publ_section_title
;
Structure prediction by ZEFSAII (Michael W. Deem and Ramdas Pophale) SiO2 
 PCOD9540698
Probable space group: I M M A
;
_chemical_formula_sum "Si O2"
_cell_formula_units_Z 80
_cell_length_a 7.378951
_cell_length_b 24.550941
_cell_length_c 25.491639
_cell_angle_alpha 90.000000
_cell_angle_beta 90.000000
_cell_angle_gamma 90.000000
_cell_volume 4618.070181
_symmetry_space_group_name_H-M "I M M A"
_symmetry_group_IT_number 74
_symmetry_cell_setting 'orthorhombic'
loop_
_space_group_symop_operation_xyz
x,y,z
-x,1/2-y,z
x,-y,-z
-x,1/2+y,-z
-x,-y,-z
x,1/2+y,-z
-x,y,z
x,1/2-y,z
1/2+x,1/2+y,1/2+z
1/2-x,-y,1/2+z
1/2+x,1/2-y,1/2-z
1/2-x,y,1/2-z
1/2-x,1/2-y,1/2-z
1/2+x,y,1/2-z
1/2-x,1/2+y,1/2+z
1/2+x,-y,1/2+z
loop_
_atom_site_type_symbol
_atom_site_label
_atom_site_fract_x
_atom_site_fract_y
_atom_site_fract_z
Si Si1 0.779599 0.585983 0.481718
Si Si2 0.283867 0.865528 0.191606
Si Si3 0.279537 0.976865 0.918877
Si Si4 0.721672 0.688615 0.084357
Si Si5 0.716333 0.990296 0.191760
O O1 0.729776 0.535441 0.443927
O O2 0.719271 0.569171 0.540078
O O3 0.719353 0.642767 0.457069
O O4 0.000000 0.587013 0.481977
O O5 0.500000 0.868983 0.185679
O O6 0.250000 0.843475 0.250000
O O7 0.219125 0.830580 0.142419
O O8 0.213291 0.927851 0.189682
O O9 0.500000 0.974826 0.919181
O O10 0.217540 0.976572 0.858766
O O11 0.500000 0.688597 0.084157
O O12 0.780094 0.750000 0.073121
O O13 0.500000 0.986713 0.186279
O O14 0.750000 0.012277 0.250000
#
# Coordination Sequence:
#
# PCOD9540698 Si02
#       5
#    16  16  16  16  16
#     4   8  12  19  31  48  66  86 112 142 175 205
#     4   9  16  25  35  48  68  94 122 148 172 199
#     4   8  12  19  33  49  66  85 111 144 171 203
#     4   9  15  22  32  47  69  92 114 143 177 208
#     4   9  15  23  35  52  72  93 116 143 172 203
#
# _framework density 17.323253000000001
#
# number of rings (size 3 to 8) (size 9 to 14) (size 15 to 20)
#    0.000    3.400    2.000    1.200    0.000    0.400 
#    0.000    0.000    0.000    0.000    0.000    4.200 
#    0.000    0.800    0.000    0.600    0.000    1.200 
#
# Total GULP energy -222870.668554 kJ/mol
# GULP energy per Si atom -5571.766714 kJ/mol
# Density = 1.728382 g / cm^3
# Si number density = 17.323253 Si / 1000 Ang^3
#
#
#
# Elastic Constant Matrix: (Units=GPa)
#
#
# Indices 1 2 3 4 5 6 
#
# 1 59.1784 3.2311 2.7675 0.0000 0.0000 0.0000
# 2 3.2311 102.5462 93.5043 0.0000 0.0000 0.0000
# 3 2.7675 93.5043 179.7737 0.0000 0.0000 0.0000
# 4 0.0000 0.0000 0.0000 21.7402 0.0000 0.0000
# 5 0.0000 0.0000 0.0000 0.0000 10.6064 0.0000
# 6 0.0000 0.0000 0.0000 0.0000 0.0000 -5.4972
#
#
#
# Elastic Compliance Matrix: (Units=1/GPa)
#
#
# Indices 1 2 3 4 5 6 
#
# 1 0.016927 -0.000563 0.000032 0.000000 0.000000 0.000000
# 2 -0.000563 0.018567 -0.009649 0.000000 0.000000 0.000000
# 3 0.000032 -0.009649 0.010580 0.000000 0.000000 0.000000
# 4 0.000000 0.000000 0.000000 0.045998 0.000000 0.000000
# 5 0.000000 0.000000 0.000000 0.000000 0.094282 0.000000
# 6 0.000000 0.000000 0.000000 0.000000 0.000000 -0.181912
#
#
# Mechanical properties :
#
#
# Convention : Reuss Voigt Hill
#
# Bulk Modulus (GPa) = 38.88507 60.05600 49.47054
# Shear Modulus (GPa) = 149.81916 21.50293 85.66104
#
# Velocity S-wave (km/s) = 9.30979 3.52700 7.03960
# Velocity P-wave (km/s) = 11.74982 7.16445 9.73108
#
# Compressibility (1/GPa) = 0.02571681
#
# Stress axis : x y z
#
# Youngs Moduli (GPa) = 59.07625 53.85831 94.51361
#
# Poissons Ratio (x) = 0.03030 -0.00302
# Poissons Ratio (y) = 0.03323 0.91192
# Poissons Ratio (z) = -0.00189 0.51966
#
# Static dielectric constant tensor:
#      x y z
#    x 1.695840 0.000000 0.000000 
#    y 0.000000 1.557070 0.000000 
#    z 0.000000 0.000000 1.621420 
# 
# From -- ./inp_files/70394.got.cif
#   From: 2010.05.17/outbox.cif.g08.bks.cpg/sg74_36_cif.got.tgz:70394.got - 2010.06.03 17:57:02.
