data_PCOD9540405
_publ_section_title
;
Structure prediction by ZEFSAII (Michael W. Deem and Ramdas Pophale) SiO2 
 PCOD9540405
Probable space group: I M M A
;
_chemical_formula_sum "Si O2"
_cell_formula_units_Z 88
_cell_length_a 28.019008
_cell_length_b 32.679717
_cell_length_c 5.142902
_cell_angle_alpha 90.000000
_cell_angle_beta 90.000000
_cell_angle_gamma 90.000000
_cell_volume 4709.114941
_symmetry_space_group_name_H-M "I M M A"
_symmetry_group_IT_number 74
_symmetry_cell_setting 'orthorhombic'
loop_
_space_group_symop_operation_xyz
x,y,z
-x,1/2-y,z
x,-y,-z
-x,1/2+y,-z
-x,-y,-z
x,1/2+y,-z
-x,y,z
x,1/2-y,z
1/2+x,1/2+y,1/2+z
1/2-x,-y,1/2+z
1/2+x,1/2-y,1/2-z
1/2-x,y,1/2-z
1/2-x,1/2-y,1/2-z
1/2+x,y,1/2-z
1/2-x,1/2+y,1/2+z
1/2+x,-y,1/2+z
loop_
_atom_site_type_symbol
_atom_site_label
_atom_site_fract_x
_atom_site_fract_y
_atom_site_fract_z
Si Si1 0.783210 0.000000 0.500000
Si Si2 0.895288 0.543909 0.960973
Si Si3 0.000000 0.604258 0.433889
Si Si4 0.906495 0.343892 0.437937
Si Si5 0.854482 0.922190 0.459183
Si Si6 0.000000 0.059566 0.060779
Si Si7 0.942178 0.701562 0.071234
O O1 0.812022 0.956181 0.484343
O O2 0.750000 0.002363 0.250000
O O3 0.890418 0.557457 0.666576
O O4 0.950564 0.540716 0.029145
O O5 0.871460 0.500000 0.000000
O O6 0.871448 0.574836 0.161888
O O7 0.047745 0.627273 0.512850
O O8 0.000000 0.565428 0.629805
O O9 0.000000 0.599647 0.122824
O O10 0.860056 0.373885 0.464625
O O11 0.916733 0.323279 0.160881
O O12 0.914313 0.310793 0.665794
O O13 0.938393 0.750000 0.023704
O O14 0.000000 0.693087 0.089096
#
# Coordination Sequence:
#
# PCOD9540405 Si02
#       7
#     8  16   8  16  16   8  16
#     4  12  26  48  68  85 114 145 190 250 320 378
#     4  12  21  35  50  77 116 147 198 234 271 333
#     4  12  20  32  48  78 112 154 206 238 288 303
#     4  12  21  35  56  79 119 153 205 247 282 332
#     4  12  24  39  62  85 109 152 196 251 299 347
#     4  12  21  32  46  74 111 162 190 242 265 326
#     4  11  22  35  54  82 119 167 210 240 275 324
#
# _framework density 18.687162000000001
#
# number of rings (size 3 to 8) (size 9 to 14) (size 15 to 20)
#    0.000    0.182    7.273    4.091    0.000    1.455 
#    0.000    2.727    0.000    0.000    0.000    0.000 
#    0.000   14.545    0.000    0.000    0.000    0.000 
#
# Total GULP energy -244970.954161 kJ/mol
# GULP energy per Si atom -5567.521685 kJ/mol
# Density = 1.864463 g / cm^3
# Si number density = 18.687162 Si / 1000 Ang^3
#
#
#
# Elastic Constant Matrix: (Units=GPa)
#
#
# Indices 1 2 3 4 5 6 
#
# 1 62.6324 29.4586 22.5564 0.0000 0.0000 0.0000
# 2 29.4586 78.9728 -6.9321 0.0000 0.0000 0.0000
# 3 22.5564 -6.9321 59.6826 0.0000 0.0000 0.0000
# 4 0.0000 0.0000 0.0000 21.1146 0.0000 0.0000
# 5 0.0000 0.0000 0.0000 0.0000 16.1374 0.0000
# 6 0.0000 0.0000 0.0000 0.0000 0.0000 33.9355
#
#
#
# Elastic Compliance Matrix: (Units=1/GPa)
#
#
# Indices 1 2 3 4 5 6 
#
# 1 0.024424 -0.010023 -0.010395 0.000000 0.000000 0.000000
# 2 -0.010023 0.016906 0.005752 0.000000 0.000000 0.000000
# 3 -0.010395 0.005752 0.021352 0.000000 0.000000 0.000000
# 4 0.000000 0.000000 0.000000 0.047360 0.000000 0.000000
# 5 0.000000 0.000000 0.000000 0.000000 0.061968 0.000000
# 6 0.000000 0.000000 0.000000 0.000000 0.000000 0.029468
#
#
# Mechanical properties :
#
#
# Convention : Reuss Voigt Hill
#
# Bulk Modulus (GPa) = 29.98523 32.38373 31.18448
# Shear Modulus (GPa) = 20.66733 24.65119 22.65926
#
# Velocity S-wave (km/s) = 3.32921 3.63595 3.48596
# Velocity P-wave (km/s) = 5.55508 5.91556 5.73815
#
# Compressibility (1/GPa) = 0.03334975
#
# Stress axis : x y z
#
# Youngs Moduli (GPa) = 40.94309 59.14937 46.83388
#
# Poissons Ratio (x) = 0.59287 0.48684
# Poissons Ratio (y) = 0.41038 -0.26938
# Poissons Ratio (z) = 0.42560 -0.34022
#
# Static dielectric constant tensor:
#      x y z
#    x 1.657640 0.000000 0.000000 
#    y 0.000000 1.740220 0.000000 
#    z 0.000000 0.000000 1.679530 
# 
# From -- ./inp_files/5292.got.cif
#   From: 2010.05.17/outbox.cif.g08.bks.cpg/sg74_3_cif.got.tgz:5292.got - 2010.06.03 17:57:02.
