data_PCOD9540335
_publ_section_title
;
Structure prediction by ZEFSAII (Michael W. Deem and Ramdas Pophale) SiO2 
 PCOD9540335
Probable space group: I M M A
;
_chemical_formula_sum "Si O2"
_cell_formula_units_Z 84
_cell_length_a 24.453979
_cell_length_b 15.607450
_cell_length_c 11.774996
_cell_angle_alpha 90.000000
_cell_angle_beta 90.000000
_cell_angle_gamma 90.000000
_cell_volume 4494.095071
_symmetry_space_group_name_H-M "I M M A"
_symmetry_group_IT_number 74
_symmetry_cell_setting 'orthorhombic'
loop_
_space_group_symop_operation_xyz
x,y,z
-x,1/2-y,z
x,-y,-z
-x,1/2+y,-z
-x,-y,-z
x,1/2+y,-z
-x,y,z
x,1/2-y,z
1/2+x,1/2+y,1/2+z
1/2-x,-y,1/2+z
1/2+x,1/2-y,1/2-z
1/2-x,y,1/2-z
1/2-x,1/2-y,1/2-z
1/2+x,y,1/2-z
1/2-x,1/2+y,1/2+z
1/2+x,-y,1/2+z
loop_
_atom_site_type_symbol
_atom_site_label
_atom_site_fract_x
_atom_site_fract_y
_atom_site_fract_z
Si Si1 0.706245 0.347371 0.164254
Si Si2 0.915714 0.603962 0.621945
Si Si3 0.751496 0.091576 0.939035
Si Si4 0.438047 0.095979 0.858304
Si Si5 0.000000 0.750000 0.691421
Si Si6 0.669852 0.351267 0.746976
O O1 0.695862 0.250000 0.202579
O O2 0.750000 0.388441 0.250000
O O3 0.647834 0.392093 0.155398
O O4 0.733913 0.346917 0.041059
O O5 0.921619 0.622592 0.486781
O O6 0.935834 0.507362 0.642240
O O7 0.952265 0.674471 0.683787
O O8 0.704038 0.099211 0.844417
O O9 0.806498 0.116927 0.873015
O O10 0.754250 0.000000 0.000000
O O11 0.500000 0.124695 0.837170
O O12 0.393456 0.131579 0.771526
O O13 0.681417 0.250000 0.757931
#
# Coordination Sequence:
#
# PCOD9540335 Si02
#       6
#    16  16  16  16   4  16
#     4  11  23  36  57  88 123 161 202 249 301 373
#     4  11  21  36  54  89 125 160 204 250 322 376
#     4  11  23  39  60  86 124 161 205 252 312 369
#     4  11  22  37  57  88 122 156 204 266 314 375
#     4  12  20  34  62  80 128 172 194 252 318 376
#     4  11  24  40  64  92 124 169 209 258 315 377
#
# _framework density 18.691192000000001
#
# number of rings (size 3 to 8) (size 9 to 14) (size 15 to 20)
#    0.000    0.952    4.762    4.000    6.667    0.381 
#    0.000    0.000    0.000    0.571    2.476    0.000 
#    0.000    0.000    0.000    0.000    0.000    0.000 
#
# Total GULP energy -234108.654198 kJ/mol
# GULP energy per Si atom -5574.015576 kJ/mol
# Density = 1.864865 g / cm^3
# Si number density = 18.691192 Si / 1000 Ang^3
#
#
#
# Elastic Constant Matrix: (Units=GPa)
#
#
# Indices 1 2 3 4 5 6 
#
# 1 181.5374 25.5736 53.4093 0.0000 0.0000 0.0000
# 2 25.5736 78.9026 13.6158 0.0000 0.0000 0.0000
# 3 53.4093 13.6158 60.3584 0.0000 0.0000 0.0000
# 4 0.0000 0.0000 0.0000 19.1426 0.0000 0.0000
# 5 0.0000 0.0000 0.0000 0.0000 14.2558 0.0000
# 6 0.0000 0.0000 0.0000 0.0000 0.0000 -1.1206
#
#
#
# Elastic Compliance Matrix: (Units=1/GPa)
#
#
# Indices 1 2 3 4 5 6 
#
# 1 0.007584 -0.001353 -0.006405 0.000000 0.000000 0.000000
# 2 -0.001353 0.013428 -0.001832 0.000000 0.000000 0.000000
# 3 -0.006405 -0.001832 0.022649 0.000000 0.000000 0.000000
# 4 0.000000 0.000000 0.000000 0.052239 0.000000 0.000000
# 5 0.000000 0.000000 0.000000 0.000000 0.070147 0.000000
# 6 0.000000 0.000000 0.000000 0.000000 0.000000 -0.892344
#
#
# Mechanical properties :
#
#
# Convention : Reuss Voigt Hill
#
# Bulk Modulus (GPa) = 40.84907 56.22176 48.53542
# Shear Modulus (GPa) = -7.15353 21.66886 7.25767
#
# Velocity S-wave (km/s) = -1.95845 3.40856 1.97265
# Velocity P-wave (km/s) = 4.09733 6.75541 5.58676
#
# Compressibility (1/GPa) = 0.02448036
#
# Stress axis : x y z
#
# Youngs Moduli (GPa) = 131.86477 74.46877 44.15226
#
# Poissons Ratio (x) = 0.10073 0.28281
# Poissons Ratio (y) = 0.17836 0.08090
# Poissons Ratio (z) = 0.84463 0.13645
#
# Static dielectric constant tensor:
#      x y z
#    x 1.657530 0.000000 0.000000 
#    y 0.000000 1.698930 0.000000 
#    z 0.000000 0.000000 1.631770 
# 
# From -- ./inp_files/24987.got.cif
#   From: 2010.05.17/outbox.cif.g08.bks.cpg/sg74_13_cif.got.tgz:24987.got - 2010.06.03 17:57:02.
