data_PCOD9540919
_publ_section_title
;
Structure prediction by ZEFSAII (Michael W. Deem and Ramdas Pophale) SiO2 
 PCOD9540919
Probable space group: I M M A
;
_chemical_formula_sum "Si O2"
_cell_formula_units_Z 48
_cell_length_a 24.000000
_cell_length_b 9.000000
_cell_length_c 24.000000
_cell_angle_alpha 90.000000
_cell_angle_beta 90.000000
_cell_angle_gamma 90.000000
_cell_volume 5184.000000
_symmetry_space_group_name_H-M "I M M A"
_symmetry_group_IT_number 74
_symmetry_cell_setting 'orthorhombic'
loop_
_space_group_symop_operation_xyz
x,y,z
-x,1/2-y,z
x,-y,-z
-x,1/2+y,-z
-x,-y,-z
x,1/2+y,-z
-x,y,z
x,1/2-y,z
1/2+x,1/2+y,1/2+z
1/2-x,-y,1/2+z
1/2+x,1/2-y,1/2-z
1/2-x,y,1/2-z
1/2-x,1/2-y,1/2-z
1/2+x,y,1/2-z
1/2-x,1/2+y,1/2+z
1/2+x,-y,1/2+z
loop_
_atom_site_type_symbol
_atom_site_label
_atom_site_fract_x
_atom_site_fract_y
_atom_site_fract_z
Si Si1 0.705401 0.428158 0.060819
Si Si2 0.883017 0.424468 0.641321
Si Si3 0.315811 0.422320 0.742420
Si Si4 0.396726 0.424889 0.337011
Si Si5 0.000000 0.073114 0.336835
Si Si6 0.671147 0.073097 0.440647
Si Si7 0.000000 0.424040 0.782389
O O1 0.700483 0.250000 0.058098
O O2 0.658036 0.497076 0.098536
O O3 0.767525 0.467984 0.082428
O O4 0.701604 0.500000 0.000000
O O5 0.889481 0.250000 0.629235
O O6 0.852089 0.436260 0.701131
O O7 0.943049 0.502455 0.640241
O O8 0.322125 0.250000 0.723188
O O9 0.250000 0.448306 0.750000
O O10 0.343072 0.538114 0.700404
O O11 0.411155 0.250000 0.332764
O O12 0.378089 0.463659 0.399039
O O13 0.445783 0.529387 0.316342
O O14 0.000000 0.250000 0.343203
O O15 0.000000 0.024664 0.272425
O O16 0.672035 0.250000 0.447234
O O17 0.664338 0.000000 0.500000
O O18 0.000000 0.250000 0.767516
#
# Coordination Sequence:
#
# PCOD9540919 Si02
#       7
#    16  16  16  16   8  16   8
#     4  10  20  37  60  87 119 155 194 237 289 344
#     4  11  22  37  58  85 118 153 194 238 284 343
#     4  10  21  35  54  83 118 153 188 232 287 346
#     4  11  22  37  58  85 115 150 194 242 291 344
#     4  12  24  40  61  84 113 154 196 239 290 343
#     4   9  20  37  59  87 118 153 193 239 289 344
#     4  12  24  40  59  82 113 154 197 239 290 351
#
# _framework density 9.2592590000000001
#
# number of rings (size 3 to 8) (size 9 to 14) (size 15 to 20)
#    0.000    1.500    1.667    4.000    0.000    3.000 
#    0.000    0.833    0.000    0.000    0.000    0.000 
#    0.000    0.000    0.000    0.000    0.000    0.000 
#
# Total GULP energy -267980.653971 kJ/mol
# GULP energy per Si atom -5582.930291 kJ/mol
# Density = 0.923818 g / cm^3
# Si number density = 9.259259 Si / 1000 Ang^3
#
#
#
# Elastic Constant Matrix: (Units=GPa)
#
#
# Indices 1 2 3 4 5 6 
#
# 1 7.6504 -5.8506 -3.8640 0.0000 0.0000 0.0000
# 2 -5.8506 44.4131 5.7495 0.0000 0.0000 0.0000
# 3 -3.8640 5.7495 32.5020 0.0000 0.0000 0.0000
# 4 0.0000 0.0000 0.0000 24.0356 0.0000 0.0000
# 5 0.0000 0.0000 0.0000 0.0000 27.0248 0.0000
# 6 0.0000 0.0000 0.0000 0.0000 0.0000 35.0785
#
#
#
# Elastic Compliance Matrix: (Units=1/GPa)
#
#
# Indices 1 2 3 4 5 6 
#
# 1 0.152072 0.018107 0.014876 0.000000 0.000000 0.000000
# 2 0.018107 0.025199 -0.002305 0.000000 0.000000 0.000000
# 3 0.014876 -0.002305 0.032944 0.000000 0.000000 0.000000
# 4 0.000000 0.000000 0.000000 0.041605 0.000000 0.000000
# 5 0.000000 0.000000 0.000000 0.000000 0.037003 0.000000
# 6 0.000000 0.000000 0.000000 0.000000 0.000000 0.028507
#
#
# Mechanical properties :
#
#
# Convention : Reuss Voigt Hill
#
# Bulk Modulus (GPa) = 3.68227 8.51503 6.09865
# Shear Modulus (GPa) = 14.43008 23.12983 18.77995
#
# Velocity S-wave (km/s) = 2.79449 3.53797 3.18798
# Velocity P-wave (km/s) = 3.52207 4.61495 4.10504
#
# Compressibility (1/GPa) = 0.27157124
#
# Stress axis : x y z
#
# Youngs Moduli (GPa) = 6.57583 39.68337 30.35489
#
# Poissons Ratio (x) = -0.71854 -0.45157
# Poissons Ratio (y) = -0.11907 0.06997
# Poissons Ratio (z) = -0.09782 0.09147
#
# Static dielectric constant tensor:
#      x y z
#    x 1.642770 0.000000 0.000000 
#    y 0.000000 1.609240 0.000000 
#    z 0.000000 0.000000 1.660180 
# 
# From -- ./inp_files/57343.got.cif
#   From: 2010.05.17/outbox.ucp.g08.bks.cvg/sg74_29_cif.got.tgz:57343.got - 2010.06.11 16:37:44.
