data_PCOD9540783
_publ_section_title
;
Structure prediction by ZEFSAII (Michael W. Deem and Ramdas Pophale) SiO2 
 PCOD9540783
Probable space group: I M M A
;
_chemical_formula_sum "Si O2"
_cell_formula_units_Z 112
_cell_length_a 15.183128
_cell_length_b 24.961210
_cell_length_c 14.470022
_cell_angle_alpha 90.000000
_cell_angle_beta 90.000000
_cell_angle_gamma 90.000000
_cell_volume 5483.982734
_symmetry_space_group_name_H-M "I M M A"
_symmetry_group_IT_number 74
_symmetry_cell_setting 'orthorhombic'
loop_
_space_group_symop_operation_xyz
x,y,z
-x,1/2-y,z
x,-y,-z
-x,1/2+y,-z
-x,-y,-z
x,1/2+y,-z
-x,y,z
x,1/2-y,z
1/2+x,1/2+y,1/2+z
1/2-x,-y,1/2+z
1/2+x,1/2-y,1/2-z
1/2-x,y,1/2-z
1/2-x,1/2-y,1/2-z
1/2+x,y,1/2-z
1/2-x,1/2+y,1/2+z
1/2+x,-y,1/2+z
loop_
_atom_site_type_symbol
_atom_site_label
_atom_site_fract_x
_atom_site_fract_y
_atom_site_fract_z
Si Si1 0.099683 0.078639 0.504826
Si Si2 0.107028 0.812297 0.833178
Si Si3 0.895417 0.974198 0.310482
Si Si4 0.146391 0.862184 0.225478
Si Si5 0.663710 0.310678 0.540176
Si Si6 0.392292 0.909577 0.798143
Si Si7 0.371269 0.808569 0.091772
O O1 0.140319 0.041736 0.586369
O O2 0.140558 0.086889 0.404132
O O3 0.093334 0.138353 0.544798
O O4 0.000000 0.059295 0.488777
O O5 0.131712 0.750000 0.810903
O O6 0.136493 0.857725 0.759910
O O7 0.000000 0.813479 0.837891
O O8 0.144493 0.826034 0.934801
O O9 0.880724 0.922252 0.248921
O O10 0.000000 0.978695 0.323326
O O11 0.866871 0.030373 0.265554
O O12 0.250000 0.860541 0.250000
O O13 0.124997 0.847092 0.121105
O O14 0.111258 0.819264 0.299826
O O15 0.629858 0.250000 0.550428
O O16 0.767654 0.309487 0.564546
O O17 0.500000 0.905525 0.798785
O O18 0.403418 0.750000 0.063905
#
# Coordination Sequence:
#
# PCOD9540783 Si02
#       7
#    16  16  16  16  16  16  16
#     4   9  17  29  47  69  92 120 153 189 228 272
#     4   9  18  32  49  69  92 121 160 197 225 265
#     4   9  17  30  48  70  93 117 150 190 230 275
#     4   9  17  30  48  69  93 121 152 187 229 276
#     4   9  17  31  49  66  90 125 157 186 226 276
#     4   9  17  31  50  68  90 123 156 186 227 277
#     4   9  17  29  46  70  96 120 149 186 231 280
#
# _framework density 20.423113000000001
#
# number of rings (size 3 to 8) (size 9 to 14) (size 15 to 20)
#    0.000    3.000    0.000    0.857    0.000    4.857 
#    0.000    4.286    0.000   11.143    0.000    0.000 
#    0.000    0.000    0.000    0.000    0.000    0.000 
#
# Total GULP energy -311738.973712 kJ/mol
# GULP energy per Si atom -5566.767388 kJ/mol
# Density = 2.037663 g / cm^3
# Si number density = 20.423113 Si / 1000 Ang^3
#
#
#
# Elastic Constant Matrix: (Units=GPa)
#
#
# Indices 1 2 3 4 5 6 
#
# 1 21.8960 10.0047 6.2361 0.0000 0.0000 0.0000
# 2 10.0047 155.8334 90.5125 0.0001 0.0000 -0.0001
# 3 6.2361 90.5125 127.7432 0.0001 0.0000 -0.0001
# 4 0.0000 0.0001 0.0001 31.2686 0.0000 -0.0001
# 5 0.0000 0.0000 0.0000 0.0000 14.5441 0.0000
# 6 0.0000 -0.0001 -0.0001 -0.0001 0.0000 9.6596
#
#
#
# Elastic Compliance Matrix: (Units=1/GPa)
#
#
# Indices 1 2 3 4 5 6 
#
# 1 0.047056 -0.002866 -0.000266 0.000000 0.000000 0.000000
# 2 -0.002866 0.011080 -0.007711 0.000000 0.000000 0.000000
# 3 -0.000266 -0.007711 0.013305 0.000000 0.000000 0.000000
# 4 0.000000 0.000000 0.000000 0.031981 0.000000 0.000000
# 5 0.000000 0.000000 0.000000 0.000000 0.068756 0.000000
# 6 0.000000 0.000000 0.000000 0.000000 0.000000 0.103524
#
#
# Mechanical properties :
#
#
# Convention : Reuss Voigt Hill
#
# Bulk Modulus (GPa) = 20.09894 57.66433 38.88163
# Shear Modulus (GPa) = 15.92500 24.34243 20.13371
#
# Velocity S-wave (km/s) = 2.79544 3.45614 3.14320
# Velocity P-wave (km/s) = 4.50355 6.65002 5.67911
#
# Compressibility (1/GPa) = 0.04975388
#
# Stress axis : x y z
#
# Youngs Moduli (GPa) = 21.25128 90.25554 75.16249
#
# Poissons Ratio (x) = 0.25872 0.02000
# Poissons Ratio (y) = 0.06092 0.57954
# Poissons Ratio (z) = 0.00565 0.69592
#
# Static dielectric constant tensor:
#      x y z
#    x 1.794910 0.000000 0.000000 
#    y 0.000000 1.746160 0.000000 
#    z 0.000000 0.000000 1.751520 
# 
# From -- ./inp_files/24201.got.cif
#   From: 2010.05.17/outbox.cif.g08.bks.cpg/sg74_13_cif.got.tgz:24201.got - 2010.06.03 17:57:02.
