data_PCOD9540683
_publ_section_title
;
Structure prediction by ZEFSAII (Michael W. Deem and Ramdas Pophale) SiO2 
 PCOD9540683
Probable space group: I M M A
;
_chemical_formula_sum "Si O2"
_cell_formula_units_Z 80
_cell_length_a 20.061379
_cell_length_b 7.279389
_cell_length_c 34.718797
_cell_angle_alpha 90.000000
_cell_angle_beta 90.000000
_cell_angle_gamma 90.000000
_cell_volume 5070.144994
_symmetry_space_group_name_H-M "I M M A"
_symmetry_group_IT_number 74
_symmetry_cell_setting 'orthorhombic'
loop_
_space_group_symop_operation_xyz
x,y,z
-x,1/2-y,z
x,-y,-z
-x,1/2+y,-z
-x,-y,-z
x,1/2+y,-z
-x,y,z
x,1/2-y,z
1/2+x,1/2+y,1/2+z
1/2-x,-y,1/2+z
1/2+x,1/2-y,1/2-z
1/2-x,y,1/2-z
1/2-x,1/2-y,1/2-z
1/2+x,y,1/2-z
1/2-x,1/2+y,1/2+z
1/2+x,-y,1/2+z
loop_
_atom_site_type_symbol
_atom_site_label
_atom_site_fract_x
_atom_site_fract_y
_atom_site_fract_z
Si Si1 0.276147 0.026533 0.310334
Si Si2 0.923679 0.031256 0.043760
Si Si3 0.366073 0.973734 0.621972
Si Si4 0.000000 0.472833 0.166519
Si Si5 0.353530 0.973384 0.766992
Si Si6 0.000000 0.026149 0.255601
O O1 0.275833 0.250000 0.310473
O O2 0.304880 0.965409 0.351294
O O3 0.326080 0.974079 0.275421
O O4 0.202416 0.967556 0.297532
O O5 0.928316 0.250000 0.048711
O O6 0.876091 0.964670 0.078003
O O7 0.000000 0.960310 0.047607
O O8 0.901381 0.000000 0.000000
O O9 0.363464 0.750000 0.621841
O O10 0.433633 0.027960 0.644203
O O11 0.000000 0.529625 0.210778
O O12 0.000000 0.250000 0.166686
O O13 0.353718 0.750000 0.767182
O O14 0.429384 0.033569 0.773061
O O15 0.000000 0.250000 0.256401
#
# Coordination Sequence:
#
# PCOD9540683 Si02
#       6
#    16  16  16   8  16   8
#     4   8  12  16  21  31  47  67  93 122 146 167
#     4   9  16  24  33  45  60  78 101 128 156 183
#     4   9  13  18  27  37  51  71  97 125 147 170
#     4   9  12  14  21  35  48  66  98 125 139 161
#     4   8  12  15  19  29  46  68  93 120 146 169
#     4   9  12  14  20  29  45  70  99 123 141 167
#
# _framework density 15.778641
#
# number of rings (size 3 to 8) (size 9 to 14) (size 15 to 20)
#    0.000    3.400    3.000    1.200    0.000    0.000 
#    0.000    0.000    0.000    0.000    0.000    0.000 
#    0.000    0.000    0.000    4.500    0.000   10.200 
#
# Total GULP energy -222887.410924 kJ/mol
# GULP energy per Si atom -5572.185273 kJ/mol
# Density = 1.574273 g / cm^3
# Si number density = 15.778641 Si / 1000 Ang^3
#
#
#
# Elastic Constant Matrix: (Units=GPa)
#
#
# Indices 1 2 3 4 5 6 
#
# 1 131.4983 3.1348 73.5562 0.0000 0.0000 0.0000
# 2 3.1348 66.6122 3.1338 0.0000 0.0000 0.0000
# 3 73.5562 3.1338 131.0286 0.0000 0.0000 0.0000
# 4 0.0000 0.0000 0.0000 -4.0090 0.0000 0.0000
# 5 0.0000 0.0000 0.0000 0.0000 19.2898 0.0000
# 6 0.0000 0.0000 0.0000 0.0000 0.0000 -16.7328
#
#
#
# Elastic Compliance Matrix: (Units=1/GPa)
#
#
# Indices 1 2 3 4 5 6 
#
# 1 0.011089 -0.000229 -0.006220 0.000000 0.000000 0.000000
# 2 -0.000229 0.015034 -0.000231 0.000000 0.000000 0.000000
# 3 -0.006220 -0.000231 0.011129 0.000000 0.000000 0.000000
# 4 0.000000 0.000000 0.000000 -0.249436 0.000000 0.000000
# 5 0.000000 0.000000 0.000000 0.000000 0.051841 0.000000
# 6 0.000000 0.000000 0.000000 0.000000 0.000000 -0.059763
#
#
# Mechanical properties :
#
#
# Convention : Reuss Voigt Hill
#
# Bulk Modulus (GPa) = 41.85414 54.30983 48.08199
# Shear Modulus (GPa) = -25.15316 16.33055 -4.41131
#
# Velocity S-wave (km/s) = -3.99698 3.22060 -1.67386
# Velocity P-wave (km/s) = 2.29831 6.95156 5.17718
#
# Compressibility (1/GPa) = 0.02389250
#
# Stress axis : x y z
#
# Youngs Moduli (GPa) = 90.17732 66.51626 89.85486
#
# Poissons Ratio (x) = 0.01525 0.55887
# Poissons Ratio (y) = 0.02067 0.02074
# Poissons Ratio (z) = 0.56088 0.01536
#
# Static dielectric constant tensor:
#      x y z
#    x 1.527450 0.000000 0.000000 
#    y 0.000000 1.762370 0.000000 
#    z 0.000000 0.000000 1.527820 
# 
# From -- ./inp_files/68323.got.cif
#   From: 2010.05.17/outbox.cif.g08.bks.cpg/sg74_35_cif.got.tgz:68323.got - 2010.06.03 17:57:02.
