data_PCOD9540207
_publ_section_title
;
Structure prediction by ZEFSAII (Michael W. Deem and Ramdas Pophale) SiO2 
 PCOD9540207
Probable space group: I M M A
;
_chemical_formula_sum "Si O2"
_cell_formula_units_Z 72
_cell_length_a 14.765298
_cell_length_b 18.138126
_cell_length_c 13.959317
_cell_angle_alpha 90.000000
_cell_angle_beta 90.000000
_cell_angle_gamma 90.000000
_cell_volume 3738.512187
_symmetry_space_group_name_H-M "I M M A"
_symmetry_group_IT_number 74
_symmetry_cell_setting 'orthorhombic'
loop_
_space_group_symop_operation_xyz
x,y,z
-x,1/2-y,z
x,-y,-z
-x,1/2+y,-z
-x,-y,-z
x,1/2+y,-z
-x,y,z
x,1/2-y,z
1/2+x,1/2+y,1/2+z
1/2-x,-y,1/2+z
1/2+x,1/2-y,1/2-z
1/2-x,y,1/2-z
1/2-x,1/2-y,1/2-z
1/2+x,y,1/2-z
1/2-x,1/2+y,1/2+z
1/2+x,-y,1/2+z
loop_
_atom_site_type_symbol
_atom_site_label
_atom_site_fract_x
_atom_site_fract_y
_atom_site_fract_z
Si Si1 0.399681 0.531712 0.264441
Si Si2 0.813127 0.666989 0.154467
Si Si3 0.398343 0.337391 0.120561
Si Si4 0.167432 0.074658 0.552724
Si Si5 0.250000 0.419238 0.250000
O O1 0.500000 0.501464 0.274169
O O2 0.390064 0.608718 0.319795
O O3 0.378677 0.550212 0.152720
O O4 0.321528 0.475779 0.298962
O O5 0.841323 0.750000 0.131551
O O6 0.750000 0.669817 0.250000
O O7 0.750004 0.629171 0.075623
O O8 0.500000 0.348078 0.162165
O O9 0.385320 0.250000 0.107628
O O10 0.315894 0.370919 0.183048
O O11 0.395455 0.380224 0.019783
O O12 0.195782 0.000000 0.500000
#
# Coordination Sequence:
#
# PCOD9540207 Si02
#       5
#    16  16  16  16   8
#     4  11  21  35  59  88 118 154 193 234 282 343
#     4   9  18  34  53  80 118 156 187 226 283 343
#     4  11  24  39  60  89 117 149 190 237 291 345
#     4  11  19  35  58  89 120 147 180 238 292 343
#     4  12  21  40  55  82 120 156 192 236 283 338
#
# _framework density 19.258997999999998
#
# number of rings (size 3 to 8) (size 9 to 14) (size 15 to 20)
#    0.000    1.333    5.556    2.333    0.000    2.222 
#    0.000    0.000    0.000    7.333    0.000    0.000 
#    0.000    0.000    0.000    0.000    0.000    0.000 
#
# Total GULP energy -200769.976933 kJ/mol
# GULP energy per Si atom -5576.943804 kJ/mol
# Density = 1.921516 g / cm^3
# Si number density = 19.258998 Si / 1000 Ang^3
#
#
#
# Elastic Constant Matrix: (Units=GPa)
#
#
# Indices 1 2 3 4 5 6 
#
# 1 126.1032 50.6957 41.1663 0.0000 0.0000 0.0000
# 2 50.6957 160.7362 37.1724 0.0000 0.0000 0.0000
# 3 41.1663 37.1724 47.1057 0.0000 0.0000 0.0000
# 4 0.0000 0.0000 0.0000 19.3416 0.0000 0.0000
# 5 0.0000 0.0000 0.0000 0.0000 15.7086 0.0000
# 6 0.0000 0.0000 0.0000 0.0000 0.0000 21.7310
#
#
#
# Elastic Compliance Matrix: (Units=1/GPa)
#
#
# Indices 1 2 3 4 5 6 
#
# 1 0.011415 -0.001582 -0.008727 0.000000 0.000000 0.000000
# 2 -0.001582 0.007829 -0.004796 0.000000 0.000000 0.000000
# 3 -0.008727 -0.004796 0.032640 0.000000 0.000000 0.000000
# 4 0.000000 0.000000 0.000000 0.051702 0.000000 0.000000
# 5 0.000000 0.000000 0.000000 0.000000 0.063660 0.000000
# 6 0.000000 0.000000 0.000000 0.000000 0.000000 0.046017
#
#
# Mechanical properties :
#
#
# Convention : Reuss Voigt Hill
#
# Bulk Modulus (GPa) = 46.13744 65.77934 55.95839
# Shear Modulus (GPa) = 19.94422 25.01693 22.48058
#
# Velocity S-wave (km/s) = 3.22153 3.60804 3.42025
# Velocity P-wave (km/s) = 6.15191 7.18238 6.68702
#
# Compressibility (1/GPa) = 0.02167437
#
# Stress axis : x y z
#
# Youngs Moduli (GPa) = 87.60375 127.72301 30.63679
#
# Poissons Ratio (x) = 0.20205 0.26738
# Poissons Ratio (y) = 0.13858 0.14693
# Poissons Ratio (z) = 0.76455 0.61255
#
# Static dielectric constant tensor:
#      x y z
#    x 1.667390 0.000000 0.000000 
#    y 0.000000 1.689920 0.000000 
#    z 0.000000 0.000000 1.684430 
# 
# From -- ./inp_files/31929.got.cif
#   From: 2010.05.17/outbox.cif.g08.bks.cpg/sg74_16_cif.got.tgz:31929.got - 2010.06.03 17:57:02.
