data_PCOD9540215
_publ_section_title
;
Structure prediction by ZEFSAII (Michael W. Deem and Ramdas Pophale) SiO2 
 PCOD9540215
Probable space group: I M M A
;
_chemical_formula_sum "Si O2"
_cell_formula_units_Z 72
_cell_length_a 27.252369
_cell_length_b 14.743300
_cell_length_c 9.622743
_cell_angle_alpha 90.000000
_cell_angle_beta 90.000000
_cell_angle_gamma 90.000000
_cell_volume 3866.320485
_symmetry_space_group_name_H-M "I M M A"
_symmetry_group_IT_number 74
_symmetry_cell_setting 'orthorhombic'
loop_
_space_group_symop_operation_xyz
x,y,z
-x,1/2-y,z
x,-y,-z
-x,1/2+y,-z
-x,-y,-z
x,1/2+y,-z
-x,y,z
x,1/2-y,z
1/2+x,1/2+y,1/2+z
1/2-x,-y,1/2+z
1/2+x,1/2-y,1/2-z
1/2-x,y,1/2-z
1/2-x,1/2-y,1/2-z
1/2+x,y,1/2-z
1/2-x,1/2+y,1/2+z
1/2+x,-y,1/2+z
loop_
_atom_site_type_symbol
_atom_site_label
_atom_site_fract_x
_atom_site_fract_y
_atom_site_fract_z
Si Si1 0.908060 0.353388 0.997742
Si Si2 0.308373 0.354768 0.891447
Si Si3 0.558203 0.498774 0.278849
Si Si4 0.300922 0.097938 0.571799
Si Si5 0.379330 0.500000 0.000000
O O1 0.925562 0.250000 0.998471
O O2 0.925981 0.412502 0.128189
O O3 0.926684 0.411488 0.865693
O O4 0.848833 0.354473 0.990435
O O5 0.323068 0.250000 0.874144
O O6 0.308445 0.401755 0.738968
O O7 0.252540 0.358247 0.946650
O O8 0.344248 0.412406 0.987509
O O9 0.500000 0.498015 0.259605
O O10 0.587064 0.496781 0.135452
O O11 0.299448 0.000000 0.500000
#
# Coordination Sequence:
#
# PCOD9540215 Si02
#       5
#    16  16  16  16   8
#     4  11  21  40  66  92 122 159 204 254 309 368
#     4  11  23  38  61  93 129 165 201 245 304 373
#     4  11  25  42  62  90 120 159 211 264 312 359
#     4  11  19  37  63  94 124 158 198 246 302 370
#     4  12  23  42  64  88 126 168 207 252 310 376
#
# _framework density 18.622357999999998
#
# number of rings (size 3 to 8) (size 9 to 14) (size 15 to 20)
#    0.000    0.889    5.556    4.333    0.000    2.667 
#    0.000    0.000    0.000    8.000    0.000    0.000 
#    0.000    0.000    0.000    0.000    0.000    0.000 
#
# Total GULP energy -201094.567893 kJ/mol
# GULP energy per Si atom -5585.960219 kJ/mol
# Density = 1.857997 g / cm^3
# Si number density = 18.622358 Si / 1000 Ang^3
#
#
#
# Elastic Constant Matrix: (Units=GPa)
#
#
# Indices 1 2 3 4 5 6 
#
# 1 151.4751 38.8557 50.8290 0.0000 0.0000 0.0000
# 2 38.8557 161.2841 56.2586 0.0000 0.0000 0.0000
# 3 50.8290 56.2586 87.5207 0.0000 0.0000 0.0000
# 4 0.0000 0.0000 0.0000 -16.5428 0.0000 0.0000
# 5 0.0000 0.0000 0.0000 0.0000 -63.1244 0.0000
# 6 0.0000 0.0000 0.0000 0.0000 0.0000 -7.0606
#
#
#
# Elastic Compliance Matrix: (Units=1/GPa)
#
#
# Indices 1 2 3 4 5 6 
#
# 1 0.008220 -0.000406 -0.004513 0.000000 0.000000 0.000000
# 2 -0.000406 0.008012 -0.004914 0.000000 0.000000 0.000000
# 3 -0.004513 -0.004914 0.017206 0.000000 0.000000 0.000000
# 4 0.000000 0.000000 0.000000 -0.060449 0.000000 0.000000
# 5 0.000000 0.000000 0.000000 0.000000 -0.015842 0.000000
# 6 0.000000 0.000000 0.000000 0.000000 0.000000 -0.141632
#
#
# Mechanical properties :
#
#
# Convention : Reuss Voigt Hill
#
# Bulk Modulus (GPa) = 72.61485 76.90738 74.76112
# Shear Modulus (GPa) = -31.20575 -0.38976 -15.79775
#
# Velocity S-wave (km/s) = -4.09799 -0.45798 -2.91576
# Velocity P-wave (km/s) = 4.08493 6.41158 5.37564
#
# Compressibility (1/GPa) = 0.01377129
#
# Stress axis : x y z
#
# Youngs Moduli (GPa) = 121.64994 124.80751 58.11978
#
# Poissons Ratio (x) = 0.05070 0.26229
# Poissons Ratio (y) = 0.04941 0.28563
# Poissons Ratio (z) = 0.54900 0.61336
#
# Static dielectric constant tensor:
#      x y z
#    x 1.653510 0.000000 0.000000 
#    y 0.000000 1.640620 0.000000 
#    z 0.000000 0.000000 1.625520 
# 
# From -- ./inp_files/14705.got.cif
#   From: 2010.05.17/outbox.cif.g08.bks.cpg/sg74_8_cif.got.tgz:14705.got - 2010.06.03 17:57:02.
