data_PCOD9540238
_publ_section_title
;
Structure prediction by ZEFSAII (Michael W. Deem and Ramdas Pophale) SiO2 
 PCOD9540238
Probable space group: I M M A
;
_chemical_formula_sum "Si O2"
_cell_formula_units_Z 120
_cell_length_a 15.007263
_cell_length_b 22.206883
_cell_length_c 21.401455
_cell_angle_alpha 90.000000
_cell_angle_beta 90.000000
_cell_angle_gamma 90.000000
_cell_volume 7132.345919
_symmetry_space_group_name_H-M "I M M A"
_symmetry_group_IT_number 74
_symmetry_cell_setting 'orthorhombic'
loop_
_space_group_symop_operation_xyz
x,y,z
-x,1/2-y,z
x,-y,-z
-x,1/2+y,-z
-x,-y,-z
x,1/2+y,-z
-x,y,z
x,1/2-y,z
1/2+x,1/2+y,1/2+z
1/2-x,-y,1/2+z
1/2+x,1/2-y,1/2-z
1/2-x,y,1/2-z
1/2-x,1/2-y,1/2-z
1/2+x,y,1/2-z
1/2-x,1/2+y,1/2+z
1/2+x,-y,1/2+z
loop_
_atom_site_type_symbol
_atom_site_label
_atom_site_fract_x
_atom_site_fract_y
_atom_site_fract_z
Si Si1 0.148217 0.966452 0.269755
Si Si2 0.400894 0.863920 0.630804
Si Si3 0.707887 0.180398 0.118273
Si Si4 0.898729 0.404443 0.468258
Si Si5 0.864710 0.503088 0.925600
Si Si6 0.500000 0.557315 0.333249
Si Si7 0.156798 0.473349 0.590838
Si Si8 0.102798 0.891954 0.723053
O O1 0.250000 0.955000 0.250000
O O2 0.134064 0.947850 0.341509
O O3 0.078233 0.940084 0.221121
O O4 0.132305 0.038775 0.271467
O O5 0.500000 0.841896 0.613147
O O6 0.314169 0.826640 0.612547
O O7 0.397679 0.868367 0.706021
O O8 0.389221 0.931109 0.602234
O O9 0.683082 0.250000 0.122555
O O10 0.663351 0.146558 0.060132
O O11 0.668984 0.144895 0.178611
O O12 0.892443 0.463590 0.423859
O O13 0.866798 0.428223 0.535236
O O14 0.000000 0.383946 0.471146
O O15 0.760922 0.490465 0.912843
O O16 0.923196 0.456251 0.886935
O O17 0.880075 0.500000 0.000000
O O18 0.000000 0.888459 0.699871
#
# Coordination Sequence:
#
# PCOD9540238 Si02
#       8
#    16  16  16  16  16   8  16  16
#     4  12  20  33  52  76 112 145 179 222 273 329
#     4  11  21  37  53  74 101 144 189 231 273 315
#     4  12  25  39  54  73 102 142 186 239 281 318
#     4  11  23  37  54  79 105 136 183 222 276 331
#     4  12  19  34  53  80 115 149 187 221 278 341
#     4  12  23  30  48  85 107 154 185 220 280 333
#     4  11  20  34  56  79 107 145 173 226 272 328
#     4  11  20  33  52  72 102 137 186 227 273 318
#
# _framework density 16.824759
#
# number of rings (size 3 to 8) (size 9 to 14) (size 15 to 20)
#    0.000    0.533    8.000    2.600    1.867    2.400 
#    0.000    1.333    0.000    0.000    0.000    0.000 
#    0.000    0.533    0.000    5.200    0.000    0.000 
#
# Total GULP energy -334099.108901 kJ/mol
# GULP energy per Si atom -5568.318482 kJ/mol
# Density = 1.678647 g / cm^3
# Si number density = 16.824759 Si / 1000 Ang^3
#
#
#
# Elastic Constant Matrix: (Units=GPa)
#
#
# Indices 1 2 3 4 5 6 
#
# 1 139.4098 7.1582 30.4847 0.0000 0.0000 0.0000
# 2 7.1582 23.4290 -8.1426 0.0000 0.0000 0.0000
# 3 30.4847 -8.1426 102.8016 0.0000 0.0000 0.0000
# 4 0.0000 0.0000 0.0000 0.3132 0.0000 0.0000
# 5 0.0000 0.0000 0.0000 0.0000 30.2339 0.0000
# 6 0.0000 0.0000 0.0000 0.0000 0.0000 3.0909
#
#
#
# Elastic Compliance Matrix: (Units=1/GPa)
#
#
# Indices 1 2 3 4 5 6 
#
# 1 0.007915 -0.003325 -0.002610 0.000000 0.000000 0.000000
# 2 -0.003325 0.045288 0.004573 0.000000 0.000000 0.000000
# 3 -0.002610 0.004573 0.010864 0.000000 0.000000 0.000000
# 4 0.000000 0.000000 0.000000 3.192680 0.000000 0.000000
# 5 0.000000 0.000000 0.000000 0.000000 0.033075 0.000000
# 6 0.000000 0.000000 0.000000 0.000000 0.000000 0.323531
#
#
# Mechanical properties :
#
#
# Convention : Reuss Voigt Hill
#
# Bulk Modulus (GPa) = 16.30234 36.07122 26.18678
# Shear Modulus (GPa) = 1.37494 22.47028 11.92261
#
# Velocity S-wave (km/s) = 0.90498 3.65848 2.66491
# Velocity P-wave (km/s) = 3.28672 6.27151 5.00671
#
# Compressibility (1/GPa) = 0.06134088
#
# Stress axis : x y z
#
# Youngs Moduli (GPa) = 126.34781 22.08112 92.04882
#
# Poissons Ratio (x) = 0.07343 0.24028
# Poissons Ratio (y) = 0.42016 -0.42096
# Poissons Ratio (z) = 0.32982 -0.10098
#
# Static dielectric constant tensor:
#      x y z
#    x 1.601580 0.000000 0.000000 
#    y 0.000000 1.543030 0.000000 
#    z 0.000000 0.000000 1.589260 
# 
# From -- ./inp_files/52369.got.cif
#   From: 2010.05.17/outbox.cif.g08.bks.cpg/sg74_27_cif.got.tgz:52369.got - 2010.06.03 17:57:02.
