data_PCOD9540133
_publ_section_title
;
Structure prediction by ZEFSAII (Michael W. Deem and Ramdas Pophale) SiO2 
 PCOD9540133
Probable space group: I M M A
;
_chemical_formula_sum "Si O2"
_cell_formula_units_Z 92
_cell_length_a 18.889738
_cell_length_b 9.567999
_cell_length_c 24.159764
_cell_angle_alpha 90.000000
_cell_angle_beta 90.000000
_cell_angle_gamma 90.000000
_cell_volume 4366.563128
_symmetry_space_group_name_H-M "I M M A"
_symmetry_group_IT_number 74
_symmetry_cell_setting 'orthorhombic'
loop_
_space_group_symop_operation_xyz
x,y,z
-x,1/2-y,z
x,-y,-z
-x,1/2+y,-z
-x,-y,-z
x,1/2+y,-z
-x,y,z
x,1/2-y,z
1/2+x,1/2+y,1/2+z
1/2-x,-y,1/2+z
1/2+x,1/2-y,1/2-z
1/2-x,y,1/2-z
1/2-x,1/2-y,1/2-z
1/2+x,y,1/2-z
1/2-x,1/2+y,1/2+z
1/2+x,-y,1/2+z
loop_
_atom_site_type_symbol
_atom_site_label
_atom_site_fract_x
_atom_site_fract_y
_atom_site_fract_z
Si Si1 0.585136 0.901953 0.167876
Si Si2 0.223254 0.911526 0.946357
Si Si3 0.164940 0.416535 0.246151
Si Si4 0.000000 0.414437 0.942536
Si Si5 0.000000 0.750000 0.596148
Si Si6 0.886605 0.028104 0.438326
Si Si7 0.635531 0.417589 0.636877
O O1 0.500000 0.917908 0.171611
O O2 0.602620 0.750000 0.193055
O O3 0.626795 0.023104 0.199637
O O4 0.610767 0.901028 0.104207
O O5 0.198387 0.750000 0.946950
O O6 0.308103 0.913061 0.945700
O O7 0.197993 0.999871 0.894056
O O8 0.199334 0.000000 0.000000
O O9 0.153002 0.250000 0.239455
O O10 0.250000 0.438409 0.250000
O O11 0.131663 0.505987 0.195860
O O12 0.067829 0.440744 0.903126
O O13 0.000000 0.250000 0.956922
O O14 0.000000 0.500000 0.000000
O O15 0.938719 0.867895 0.591607
O O16 0.913639 0.000000 0.500000
O O17 0.646332 0.250000 0.641902
#
# Coordination Sequence:
#
# PCOD9540133 Si02
#       7
#    16  16  16   8   4  16  16
#     4  11  26  43  64  93 129 169 215 269 325 389
#     4  11  23  40  62  96 133 173 221 273 328 394
#     4  11  26  46  69  97 130 171 223 280 336 400
#     4  10  24  44  69 105 140 178 221 277 343 414
#     4  12  22  40  60  90 126 176 212 274 322 380
#     4  11  25  39  65  92 130 176 223 272 330 395
#     4  11  24  44  71  99 136 176 221 279 341 411
#
# _framework density 21.069202000000001
#
# number of rings (size 3 to 8) (size 9 to 14) (size 15 to 20)
#    0.000    1.043    1.739    3.391    3.652    8.696 
#    0.000    0.000    0.000    0.000    0.000    0.000 
#    0.000    0.000    0.000    0.000    0.000    0.000 
#
# Total GULP energy -256391.566435 kJ/mol
# GULP energy per Si atom -5573.729705 kJ/mol
# Density = 2.102125 g / cm^3
# Si number density = 21.069202 Si / 1000 Ang^3
#
#
#
# Elastic Constant Matrix: (Units=GPa)
#
#
# Indices 1 2 3 4 5 6 
#
# 1 56.5222 41.0579 30.8914 0.0000 0.0000 0.0000
# 2 41.0579 168.9961 64.1197 0.0000 0.0000 0.0000
# 3 30.8914 64.1197 136.6625 0.0000 0.0000 0.0000
# 4 0.0000 0.0000 0.0000 3.6506 0.0000 0.0000
# 5 0.0000 0.0000 0.0000 0.0000 35.1767 0.0000
# 6 0.0000 0.0000 0.0000 0.0000 0.0000 367.7512
#
#
#
# Elastic Compliance Matrix: (Units=1/GPa)
#
#
# Indices 1 2 3 4 5 6 
#
# 1 0.022492 -0.004301 -0.003066 0.000000 0.000000 0.000000
# 2 -0.004301 0.008021 -0.002791 0.000000 0.000000 0.000000
# 3 -0.003066 -0.002791 0.009320 0.000000 0.000000 0.000000
# 4 0.000000 0.000000 0.000000 0.273926 0.000000 0.000000
# 5 0.000000 0.000000 0.000000 0.000000 0.028428 0.000000
# 6 0.000000 0.000000 0.000000 0.000000 0.000000 0.002719
#
#
# Mechanical properties :
#
#
# Convention : Reuss Voigt Hill
#
# Bulk Modulus (GPa) = 51.23879 70.47987 60.85933
# Shear Modulus (GPa) = 13.45065 96.38985 54.92025
#
# Velocity S-wave (km/s) = 2.52941 6.77115 5.11109
# Velocity P-wave (km/s) = 5.73608 9.72911 7.98618
#
# Compressibility (1/GPa) = 0.01951647
#
# Stress axis : x y z
#
# Youngs Moduli (GPa) = 44.45965 124.66797 107.29661
#
# Poissons Ratio (x) = 0.53622 0.32899
# Poissons Ratio (y) = 0.19123 0.29949
# Poissons Ratio (z) = 0.13632 0.34797
#
# Static dielectric constant tensor:
#      x y z
#    x 1.755450 0.000000 0.000000 
#    y 0.000000 1.763040 0.000000 
#    z 0.000000 0.000000 1.936840 
# 
# From -- ./inp_files/61491.got.cif
#   From: 2010.05.17/outbox.cif.g08.bks.cpg/sg74_31_cif.got.tgz:61491.got - 2010.06.03 17:57:02.
