data_PCOD9540850
_publ_section_title
;
Structure prediction by ZEFSAII (Michael W. Deem and Ramdas Pophale) SiO2 
 PCOD9540850
Probable space group: I M M A
;
_chemical_formula_sum "Si O2"
_cell_formula_units_Z 52
_cell_length_a 27.000000
_cell_length_b 9.000000
_cell_length_c 21.000000
_cell_angle_alpha 90.000000
_cell_angle_beta 90.000000
_cell_angle_gamma 90.000000
_cell_volume 5103.000000
_symmetry_space_group_name_H-M "I M M A"
_symmetry_group_IT_number 74
_symmetry_cell_setting 'orthorhombic'
loop_
_space_group_symop_operation_xyz
x,y,z
-x,1/2-y,z
x,-y,-z
-x,1/2+y,-z
-x,-y,-z
x,1/2+y,-z
-x,y,z
x,1/2-y,z
1/2+x,1/2+y,1/2+z
1/2-x,-y,1/2+z
1/2+x,1/2-y,1/2-z
1/2-x,y,1/2-z
1/2-x,1/2-y,1/2-z
1/2+x,y,1/2-z
1/2-x,1/2+y,1/2+z
1/2+x,-y,1/2+z
loop_
_atom_site_type_symbol
_atom_site_label
_atom_site_fract_x
_atom_site_fract_y
_atom_site_fract_z
Si Si1 0.947317 0.924782 0.932494
Si Si2 0.277341 0.925829 0.683744
Si Si3 0.000000 0.925671 0.433154
Si Si4 0.705447 0.426463 0.065511
Si Si5 0.444410 0.423918 0.764652
Si Si6 0.891676 0.927834 0.380625
Si Si7 0.875594 0.081877 0.852541
O O1 0.947461 0.750000 0.937301
O O2 0.000000 0.966777 0.898884
O O3 0.894726 0.973547 0.905938
O O4 0.950348 0.000000 0.000000
O O5 0.289550 0.750000 0.680908
O O6 0.250000 0.953850 0.750000
O O7 0.241315 0.960610 0.624600
O O8 0.326087 0.023583 0.678806
O O9 0.947541 0.964063 0.402523
O O10 0.000000 0.750000 0.438353
O O11 0.000000 0.000000 0.500000
O O12 0.702808 0.250000 0.057858
O O13 0.651080 0.488686 0.082521
O O14 0.722677 0.500000 0.000000
O O15 0.500000 0.488650 0.770274
O O16 0.449342 0.250000 0.784000
O O17 0.398733 0.479699 0.807828
O O18 0.422287 0.424164 0.695086
O O19 0.882453 0.750000 0.386471
O O20 0.869434 0.250000 0.874704
#
# Coordination Sequence:
#
# PCOD9540850 Si02
#       7
#    16  16   8  16  16  16  16
#     4  10  21  38  60  86 120 160 199 241 293 357
#     4  10  23  44  65  85 116 158 204 259 315 364
#     4  10  20  32  50  76 108 146 185 224 271 324
#     4  11  24  41  62  87 116 153 196 246 303 359
#     4   9  17  32  55  85 121 157 193 234 285 342
#     4  10  19  35  58  83 114 153 193 235 283 336
#     4  11  22  35  59  91 120 153 195 245 298 362
#
# _framework density 10.190084000000001
#
# number of rings (size 3 to 8) (size 9 to 14) (size 15 to 20)
#    0.000    1.846    0.769    3.231    0.000    5.538 
#    0.000    2.308    0.000    1.846    0.000    0.000 
#    0.000    0.000    0.000    0.000    0.000    0.000 
#
# Total GULP energy -289487.120626 kJ/mol
# GULP energy per Si atom -5567.060012 kJ/mol
# Density = 1.016689 g / cm^3
# Si number density = 10.190084 Si / 1000 Ang^3
#
#
#
# Elastic Constant Matrix: (Units=GPa)
#
#
# Indices 1 2 3 4 5 6 
#
# 1 72.8004 65.6976 28.5835 0.0000 0.0000 0.0000
# 2 65.6976 49.0936 51.2590 0.0000 0.0000 0.0000
# 3 28.5835 51.2590 59.5687 0.0000 0.0000 0.0000
# 4 0.0000 0.0000 0.0000 12.6988 0.0000 0.0000
# 5 0.0000 0.0000 0.0000 0.0000 43.4958 0.0000
# 6 0.0000 0.0000 0.0000 0.0000 0.0000 24.3367
#
#
#
# Elastic Compliance Matrix: (Units=1/GPa)
#
#
# Indices 1 2 3 4 5 6 
#
# 1 -0.003574 0.029468 -0.023642 0.000000 0.000000 0.000000
# 2 0.029468 -0.042361 0.022312 0.000000 0.000000 0.000000
# 3 -0.023642 0.022312 0.008932 0.000000 0.000000 0.000000
# 4 0.000000 0.000000 0.000000 0.078748 0.000000 0.000000
# 5 0.000000 0.000000 0.000000 0.000000 0.022991 0.000000
# 6 0.000000 0.000000 0.000000 0.000000 0.000000 0.041090
#
#
# Mechanical properties :
#
#
# Convention : Reuss Voigt Hill
#
# Bulk Modulus (GPa) = 51.88758 52.50476 52.19617
# Shear Modulus (GPa) = 89.32686 18.50107 53.91397
#
# Velocity S-wave (km/s) = 6.62763 3.01624 5.14894
# Velocity P-wave (km/s) = 9.16964 6.16026 7.81125
#
# Compressibility (1/GPa) = 0.01927243
#
# Stress axis : x y z
#
# Youngs Moduli (GPa) = -279.78917 -23.60646 111.95232
#
# Poissons Ratio (x) = 0.69563 2.64680
# Poissons Ratio (y) = 8.24482 -2.49788
# Poissons Ratio (z) = -6.61484 0.52671
#
# Static dielectric constant tensor:
#      x y z
#    x 1.952650 0.000000 0.000000 
#    y 0.000000 1.695120 0.000000 
#    z 0.000000 0.000000 1.867700 
# 
# From -- ./inp_files/55249.got.cif
#   From: 2010.05.17/outbox.ucp.g08.bks.cvg/sg74_28_cif.got.tgz:55249.got - 2010.06.11 16:37:44.
