data_PCOD9540903
_publ_section_title
;
Structure prediction by ZEFSAII (Michael W. Deem and Ramdas Pophale) SiO2 
 PCOD9540903
Probable space group: I M M A
;
_chemical_formula_sum "Si O2"
_cell_formula_units_Z 52
_cell_length_a 21.000000
_cell_length_b 9.000000
_cell_length_c 27.000000
_cell_angle_alpha 90.000000
_cell_angle_beta 90.000000
_cell_angle_gamma 90.000000
_cell_volume 5103.000000
_symmetry_space_group_name_H-M "I M M A"
_symmetry_group_IT_number 74
_symmetry_cell_setting 'orthorhombic'
loop_
_space_group_symop_operation_xyz
x,y,z
-x,1/2-y,z
x,-y,-z
-x,1/2+y,-z
-x,-y,-z
x,1/2+y,-z
-x,y,z
x,1/2-y,z
1/2+x,1/2+y,1/2+z
1/2-x,-y,1/2+z
1/2+x,1/2-y,1/2-z
1/2-x,y,1/2-z
1/2-x,1/2-y,1/2-z
1/2+x,y,1/2-z
1/2-x,1/2+y,1/2+z
1/2+x,-y,1/2+z
loop_
_atom_site_type_symbol
_atom_site_label
_atom_site_fract_x
_atom_site_fract_y
_atom_site_fract_z
Si Si1 0.260501 0.926352 0.865879
Si Si2 0.328654 0.424894 0.552774
Si Si3 0.109966 0.419369 0.622715
Si Si4 0.066956 0.417823 0.731546
Si Si5 0.573265 0.580226 0.615512
Si Si6 0.000000 0.428361 0.552225
Si Si7 0.666431 0.081038 0.289406
O O1 0.249484 0.750000 0.868755
O O2 0.230952 0.977192 0.813436
O O3 0.222045 0.005769 0.909364
O O4 0.332529 0.970359 0.870448
O O5 0.321126 0.500000 0.500000
O O6 0.321134 0.250000 0.549485
O O7 0.396549 0.469302 0.576176
O O8 0.132878 0.250000 0.612818
O O9 0.069549 0.412469 0.672706
O O10 0.063461 0.473080 0.580438
O O11 0.067145 0.250000 0.751085
O O12 0.131468 0.492270 0.747748
O O13 0.000000 0.490978 0.747234
O O14 0.500000 0.548860 0.626334
O O15 0.578456 0.750000 0.596395
O O16 0.615906 0.575425 0.664926
O O17 0.000000 0.500000 0.500000
O O18 0.000000 0.250000 0.551431
O O19 0.675149 0.250000 0.273297
#
# Coordination Sequence:
#
# PCOD9540903 Si02
#       7
#    16  16  16  16  16   8  16
#     4  10  22  40  59  82 115 151 191 238 289 350
#     4  11  22  37  57  80 108 144 188 237 289 343
#     4  10  21  40  62  85 116 152 187 231 290 346
#     4  10  20  35  57  84 116 154 195 237 283 341
#     4   9  18  34  54  77 111 152 192 236 286 339
#     4  10  22  42  66  90 120 152 188 238 295 354
#     4   9  19  35  54  80 115 154 192 235 286 335
#
# _framework density 10.190084000000001
#
# number of rings (size 3 to 8) (size 9 to 14) (size 15 to 20)
#    0.000    2.154    0.769    3.231    0.000    7.077 
#    0.000    4.615    0.000    0.000    0.000    0.000 
#    0.000    0.000    0.000    0.000    0.000    0.000 
#
# Total GULP energy -289966.672605 kJ/mol
# GULP energy per Si atom -5576.282165 kJ/mol
# Density = 1.016689 g / cm^3
# Si number density = 10.190084 Si / 1000 Ang^3
#
#
#
# Elastic Constant Matrix: (Units=GPa)
#
#
# Indices 1 2 3 4 5 6 
#
# 1 132.8949 43.1444 42.1389 0.0000 0.0000 0.0000
# 2 43.1444 46.9567 34.9352 0.0000 0.0000 0.0000
# 3 42.1389 34.9352 77.9357 0.0000 0.0000 0.0000
# 4 0.0000 0.0000 0.0000 16.4764 0.0000 0.0000
# 5 0.0000 0.0000 0.0000 0.0000 18.8664 0.0000
# 6 0.0000 0.0000 0.0000 0.0000 0.0000 20.4121
#
#
#
# Elastic Compliance Matrix: (Units=1/GPa)
#
#
# Indices 1 2 3 4 5 6 
#
# 1 0.010951 -0.008487 -0.002117 0.000000 0.000000 0.000000
# 2 -0.008487 0.038530 -0.012682 0.000000 0.000000 0.000000
# 3 -0.002117 -0.012682 0.019660 0.000000 0.000000 0.000000
# 4 0.000000 0.000000 0.000000 0.060693 0.000000 0.000000
# 5 0.000000 0.000000 0.000000 0.000000 0.053004 0.000000
# 6 0.000000 0.000000 0.000000 0.000000 0.000000 0.048991
#
#
# Mechanical properties :
#
#
# Convention : Reuss Voigt Hill
#
# Bulk Modulus (GPa) = 44.30854 55.35825 49.83340
# Shear Modulus (GPa) = 17.48708 20.32225 18.90466
#
# Velocity S-wave (km/s) = 2.93242 3.16121 3.04896
# Velocity P-wave (km/s) = 5.76660 6.36758 6.07452
#
# Compressibility (1/GPa) = 0.02256901
#
# Stress axis : x y z
#
# Youngs Moduli (GPa) = 91.31273 25.95373 50.86343
#
# Poissons Ratio (x) = 0.22028 0.10766
# Poissons Ratio (y) = 0.77501 0.64507
# Poissons Ratio (z) = 0.19328 0.32915
#
# Static dielectric constant tensor:
#      x y z
#    x 1.774130 0.000000 0.000000 
#    y 0.000000 1.701290 0.000000 
#    z 0.000000 0.000000 1.729350 
# 
# From -- ./inp_files/64442.got.cif
#   From: 2010.05.17/outbox.ucp.g08.bks.cvg/sg74_33_cif.got.tgz:64442.got - 2010.06.11 16:37:44.
