data_PCOD9540832
_publ_section_title
;
Structure prediction by ZEFSAII (Michael W. Deem and Ramdas Pophale) SiO2 
 PCOD9540832
Probable space group: I M M A
;
_chemical_formula_sum "Si O2"
_cell_formula_units_Z 48
_cell_length_a 18.000000
_cell_length_b 24.000000
_cell_length_c 12.000000
_cell_angle_alpha 90.000000
_cell_angle_beta 90.000000
_cell_angle_gamma 90.000000
_cell_volume 5184.000000
_symmetry_space_group_name_H-M "I M M A"
_symmetry_group_IT_number 74
_symmetry_cell_setting 'orthorhombic'
loop_
_space_group_symop_operation_xyz
x,y,z
-x,1/2-y,z
x,-y,-z
-x,1/2+y,-z
-x,-y,-z
x,1/2+y,-z
-x,y,z
x,1/2-y,z
1/2+x,1/2+y,1/2+z
1/2-x,-y,1/2+z
1/2+x,1/2-y,1/2-z
1/2-x,y,1/2-z
1/2-x,1/2-y,1/2-z
1/2+x,y,1/2-z
1/2-x,1/2+y,1/2+z
1/2+x,-y,1/2+z
loop_
_atom_site_type_symbol
_atom_site_label
_atom_site_fract_x
_atom_site_fract_y
_atom_site_fract_z
Si Si1 0.916027 0.928615 0.791221
Si Si2 0.763598 0.812437 0.370416
Si Si3 0.415768 0.942216 0.357831
Si Si4 0.202628 0.402906 0.033817
Si Si5 0.629263 0.561317 0.957411
Si Si6 0.917131 0.856771 0.348140
O O1 0.849514 0.898571 0.857842
O O2 0.904917 0.922555 0.660221
O O3 0.000000 0.911457 0.823807
O O4 0.909370 0.995165 0.812337
O O5 0.733373 0.750000 0.369081
O O6 0.750000 0.840609 0.250000
O O7 0.727888 0.846576 0.470833
O O8 0.852568 0.812720 0.369515
O O9 0.500000 0.936794 0.404258
O O10 0.351763 0.933916 0.447600
O O11 0.407944 0.895285 0.262278
O O12 0.280986 0.433490 0.053175
O O13 0.610938 0.500000 0.000000
O O14 0.596225 0.601377 0.050327
O O15 0.000000 0.833778 0.346219
#
# Coordination Sequence:
#
# PCOD9540832 Si02
#       6
#    16  16  16  16  16  16
#     4  11  22  35  53  78 117 160 193 226 275 342
#     4  10  21  39  60  82 109 143 189 244 300 346
#     4  10  19  33  52  79 115 152 184 222 283 350
#     4  11  22  35  54  81 111 148 190 238 288 344
#     4  11  21  33  53  80 115 152 192 230 274 337
#     4  10  20  34  56  82 113 147 183 232 285 342
#
# _framework density 9.2592590000000001
#
# number of rings (size 3 to 8) (size 9 to 14) (size 15 to 20)
#    0.000    1.500    3.333    3.000    0.000    2.333 
#    0.000    0.000    0.000   10.000    0.000    0.000 
#    0.000    0.000    0.000    0.000    0.000    0.000 
#
# Total GULP energy -267603.448049 kJ/mol
# GULP energy per Si atom -5575.071834 kJ/mol
# Density = 0.923818 g / cm^3
# Si number density = 9.259259 Si / 1000 Ang^3
#
#
#
# Elastic Constant Matrix: (Units=GPa)
#
#
# Indices 1 2 3 4 5 6 
#
# 1 71.5781 1.4932 3.3128 0.0000 0.0000 0.0000
# 2 1.4932 38.6242 4.0822 0.0000 0.0000 0.0000
# 3 3.3128 4.0822 75.9929 0.0000 0.0000 0.0000
# 4 0.0000 0.0000 0.0000 0.8408 0.0000 0.0000
# 5 0.0000 0.0000 0.0000 0.0000 35.3329 0.0000
# 6 0.0000 0.0000 0.0000 0.0000 0.0000 -66.8866
#
#
#
# Elastic Compliance Matrix: (Units=1/GPa)
#
#
# Indices 1 2 3 4 5 6 
#
# 1 0.014008 -0.000480 -0.000585 0.000000 0.000000 0.000000
# 2 -0.000480 0.026055 -0.001379 0.000000 0.000000 0.000000
# 3 -0.000585 -0.001379 0.013259 0.000000 0.000000 0.000000
# 4 0.000000 0.000000 0.000000 1.189331 0.000000 0.000000
# 5 0.000000 0.000000 0.000000 0.000000 0.028302 0.000000
# 6 0.000000 0.000000 0.000000 0.000000 0.000000 -0.014951
#
#
# Mechanical properties :
#
#
# Convention : Reuss Voigt Hill
#
# Bulk Modulus (GPa) = 20.64638 22.66352 21.65495
# Shear Modulus (GPa) = 3.91532 5.67790 4.79661
#
# Velocity S-wave (km/s) = 1.45563 1.75292 1.61115
# Velocity P-wave (km/s) = 3.74144 4.04498 3.89617
#
# Compressibility (1/GPa) = 0.04843464
#
# Stress axis : x y z
#
# Youngs Moduli (GPa) = 71.38860 38.38074 75.42232
#
# Poissons Ratio (x) = 0.01841 0.04411
# Poissons Ratio (y) = 0.03425 0.10398
# Poissons Ratio (z) = 0.04175 0.05292
#
# Static dielectric constant tensor:
#      x y z
#    x 1.685400 0.000000 0.000000 
#    y 0.000000 1.589210 0.000000 
#    z 0.000000 0.000000 1.653830 
# 
# From -- ./inp_files/22415.got.cif
#   From: 2010.05.17/outbox.ucp.g08.bks.cvg/sg74_12_cif.got.tgz:22415.got - 2010.06.11 16:37:44.
