data_PCOD9540484
_publ_section_title
;
Structure prediction by ZEFSAII (Michael W. Deem and Ramdas Pophale) SiO2 
 PCOD9540484
Probable space group: I M M A
;
_chemical_formula_sum "Si O2"
_cell_formula_units_Z 116
_cell_length_a 19.163257
_cell_length_b 19.101331
_cell_length_c 16.808357
_cell_angle_alpha 90.000000
_cell_angle_beta 90.000000
_cell_angle_gamma 90.000000
_cell_volume 6152.593439
_symmetry_space_group_name_H-M "I M M A"
_symmetry_group_IT_number 74
_symmetry_cell_setting 'orthorhombic'
loop_
_space_group_symop_operation_xyz
x,y,z
-x,1/2-y,z
x,-y,-z
-x,1/2+y,-z
-x,-y,-z
x,1/2+y,-z
-x,y,z
x,1/2-y,z
1/2+x,1/2+y,1/2+z
1/2-x,-y,1/2+z
1/2+x,1/2-y,1/2-z
1/2-x,y,1/2-z
1/2-x,1/2-y,1/2-z
1/2+x,y,1/2-z
1/2-x,1/2+y,1/2+z
1/2+x,-y,1/2+z
loop_
_atom_site_type_symbol
_atom_site_label
_atom_site_fract_x
_atom_site_fract_y
_atom_site_fract_z
Si Si1 0.677972 0.439182 0.067900
Si Si2 0.500000 0.750000 0.230519
Si Si3 0.802347 0.666638 0.439760
Si Si4 0.418805 0.169249 0.473701
Si Si5 0.884738 0.872083 0.281074
Si Si6 0.844529 0.391060 0.891077
Si Si7 0.580279 0.532870 0.785855
Si Si8 0.835634 0.445988 0.126836
O O1 0.616114 0.449324 0.130409
O O2 0.752115 0.439659 0.114924
O O3 0.680130 0.500000 0.000000
O O4 0.667667 0.367632 0.019401
O O5 0.439785 0.689058 0.227580
O O6 0.802811 0.750000 0.440828
O O7 0.842512 0.639301 0.362047
O O8 0.724439 0.636628 0.433556
O O9 0.500000 0.162755 0.452732
O O10 0.397203 0.250000 0.461081
O O11 0.407633 0.149081 0.566246
O O12 0.373675 0.113195 0.425067
O O13 0.838021 0.873034 0.201572
O O14 0.918987 0.948610 0.281417
O O15 0.852589 0.474408 0.900559
O O16 0.500000 0.557361 0.777393
O O17 0.631495 0.559004 0.715175
#
# Coordination Sequence:
#
# PCOD9540484 Si02
#       8
#    16   4  16  16  16  16  16  16
#     4  12  22  41  67  96 126 167 220 272 324 375
#     4  12  24  40  54  90 146 176 208 254 332 396
#     4  12  24  41  61  94 130 169 217 268 328 385
#     4  11  24  38  60  93 130 171 212 266 329 383
#     4  11  24  38  61  90 131 177 212 258 319 399
#     4  11  23  37  63  92 128 169 218 260 314 390
#     4  11  24  43  66  96 126 171 225 271 321 386
#     4  11  22  43  66  93 127 167 218 268 322 378
#
# _framework density 18.853836999999999
#
# number of rings (size 3 to 8) (size 9 to 14) (size 15 to 20)
#    0.000    0.690    5.517    2.069    2.897    4.690 
#    1.241    0.690    0.000    2.483    0.000    0.000 
#    0.000    0.000    0.000    0.000    0.000    0.000 
#
# Total GULP energy -323444.185846 kJ/mol
# GULP energy per Si atom -5576.623894 kJ/mol
# Density = 1.881092 g / cm^3
# Si number density = 18.853837 Si / 1000 Ang^3
#
#
#
# Elastic Constant Matrix: (Units=GPa)
#
#
# Indices 1 2 3 4 5 6 
#
# 1 49.1586 20.5524 35.7931 0.0000 0.0000 0.0000
# 2 20.5524 82.8190 37.1217 0.0000 0.0000 0.0000
# 3 35.7931 37.1217 115.0123 0.0000 0.0000 0.0000
# 4 0.0000 0.0000 0.0000 10.2873 0.0000 0.0000
# 5 0.0000 0.0000 0.0000 0.0000 2.9192 0.0000
# 6 0.0000 0.0000 0.0000 0.0000 0.0000 587.4444
#
#
#
# Elastic Compliance Matrix: (Units=1/GPa)
#
#
# Indices 1 2 3 4 5 6 
#
# 1 0.027118 -0.003445 -0.007327 0.000000 0.000000 0.000000
# 2 -0.003445 0.014555 -0.003625 0.000000 0.000000 0.000000
# 3 -0.007327 -0.003625 0.012145 0.000000 0.000000 0.000000
# 4 0.000000 0.000000 0.000000 0.097207 0.000000 0.000000
# 5 0.000000 0.000000 0.000000 0.000000 0.342560 0.000000
# 6 0.000000 0.000000 0.000000 0.000000 0.000000 0.001702
#
#
# Mechanical properties :
#
#
# Convention : Reuss Voigt Hill
#
# Bulk Modulus (GPa) = 39.96569 48.21381 44.08975
# Shear Modulus (GPa) = 9.39101 130.36503 69.87802
#
# Velocity S-wave (km/s) = 2.23423 8.32437 6.09455
# Velocity P-wave (km/s) = 5.28198 10.86377 8.54169
#
# Compressibility (1/GPa) = 0.02502146
#
# Stress axis : x y z
#
# Youngs Moduli (GPa) = 36.87605 68.70712 82.33677
#
# Poissons Ratio (x) = 0.23671 0.60331
# Poissons Ratio (y) = 0.12705 0.29851
# Poissons Ratio (z) = 0.27020 0.24909
#
# Static dielectric constant tensor:
#      x y z
#    x 1.682450 0.000000 0.000000 
#    y 0.000000 1.636290 0.000000 
#    z 0.000000 0.000000 1.678080 
# 
# From -- ./inp_files/44267.got.cif
#   From: 2010.05.17/outbox.cif.g08.bks.cpg/sg74_23_cif.got.tgz:44267.got - 2010.06.03 17:57:02.
