data_PCOD9540103
_publ_section_title
;
Structure prediction by ZEFSAII (Michael W. Deem and Ramdas Pophale) SiO2 
 PCOD9540103
Probable space group: I M M A
;
_chemical_formula_sum "Si O2"
_cell_formula_units_Z 52
_cell_length_a 15.796317
_cell_length_b 11.334186
_cell_length_c 15.047213
_cell_angle_alpha 90.000000
_cell_angle_beta 90.000000
_cell_angle_gamma 90.000000
_cell_volume 2694.028865
_symmetry_space_group_name_H-M "I M M A"
_symmetry_group_IT_number 74
_symmetry_cell_setting 'orthorhombic'
loop_
_space_group_symop_operation_xyz
x,y,z
-x,1/2-y,z
x,-y,-z
-x,1/2+y,-z
-x,-y,-z
x,1/2+y,-z
-x,y,z
x,1/2-y,z
1/2+x,1/2+y,1/2+z
1/2-x,-y,1/2+z
1/2+x,1/2-y,1/2-z
1/2-x,y,1/2-z
1/2-x,1/2-y,1/2-z
1/2+x,y,1/2-z
1/2-x,1/2+y,1/2+z
1/2+x,-y,1/2+z
loop_
_atom_site_type_symbol
_atom_site_label
_atom_site_fract_x
_atom_site_fract_y
_atom_site_fract_z
Si Si1 0.833107 0.250000 0.450090
Si Si2 0.760142 0.000000 0.000000
Si Si3 0.103258 0.250000 0.246315
Si Si4 0.000000 0.250000 0.566968
Si Si5 0.667639 0.002276 0.310584
Si Si6 0.500000 0.119588 0.759544
O O1 0.788390 0.123224 0.473301
O O2 0.860643 0.250000 0.346788
O O3 0.917617 0.250000 0.508220
O O4 0.812935 0.030530 0.911739
O O5 0.141998 0.361648 0.196681
O O6 0.000000 0.250000 0.247333
O O7 0.000000 0.138871 0.634249
O O8 0.750000 0.978667 0.250000
O O9 0.585798 0.939926 0.270325
O O10 0.500000 0.250000 0.720026
#
# Coordination Sequence:
#
# PCOD9540103 Si02
#       6
#     8   8   8   4  16   8
#     4  12  25  43  71 107 139 178 242 296 361 424
#     4  12  28  42  72 104 136 196 238 283 352 427
#     4  12  24  46  73 105 139 184 232 308 355 415
#     4  10  24  40  68 104 142 172 230 306 368 414
#     4  12  24  47  70  99 147 183 239 287 351 425
#     4  10  26  43  64 104 140 187 226 289 361 408
#
# _framework density 19.301946000000001
#
# number of rings (size 3 to 8) (size 9 to 14) (size 15 to 20)
#    0.462    0.000    5.385    3.231    2.154    1.846 
#    0.000    0.000    0.000    0.000    0.000    0.000 
#    0.000    0.000    0.000    0.000    0.000    0.000 
#
# Total GULP energy -145122.918582 kJ/mol
# GULP energy per Si atom -5581.650715 kJ/mol
# Density = 1.925801 g / cm^3
# Si number density = 19.301946 Si / 1000 Ang^3
#
#
#
# Elastic Constant Matrix: (Units=GPa)
#
#
# Indices 1 2 3 4 5 6 
#
# 1 109.8398 20.4506 11.6578 0.0000 0.0000 0.0000
# 2 20.4506 78.6234 -19.5065 0.0000 0.0000 0.0000
# 3 11.6578 -19.5065 87.1879 0.0000 0.0000 0.0000
# 4 0.0000 0.0000 0.0000 32.7676 0.0000 0.0000
# 5 0.0000 0.0000 0.0000 0.0000 42.0308 0.0000
# 6 0.0000 0.0000 0.0000 0.0000 0.0000 75.2877
#
#
#
# Elastic Compliance Matrix: (Units=1/GPa)
#
#
# Indices 1 2 3 4 5 6 
#
# 1 0.009889 -0.003071 -0.002009 0.000000 0.000000 0.000000
# 2 -0.003071 0.014420 0.003637 0.000000 0.000000 0.000000
# 3 -0.002009 0.003637 0.012552 0.000000 0.000000 0.000000
# 4 0.000000 0.000000 0.000000 0.030518 0.000000 0.000000
# 5 0.000000 0.000000 0.000000 0.000000 0.023792 0.000000
# 6 0.000000 0.000000 0.000000 0.000000 0.000000 0.013282
#
#
# Mechanical properties :
#
#
# Convention : Reuss Voigt Hill
#
# Bulk Modulus (GPa) = 29.43411 33.42832 31.43121
# Shear Modulus (GPa) = 42.13557 47.55383 44.84470
#
# Velocity S-wave (km/s) = 4.67730 4.96893 4.82532
# Velocity P-wave (km/s) = 6.66722 7.09060 6.88217
#
# Compressibility (1/GPa) = 0.03397419
#
# Stress axis : x y z
#
# Youngs Moduli (GPa) = 101.12089 69.34883 79.66992
#
# Poissons Ratio (x) = 0.21295 0.16008
# Poissons Ratio (y) = 0.31052 -0.28974
# Poissons Ratio (z) = 0.20318 -0.25220
#
# Static dielectric constant tensor:
#      x y z
#    x 1.684830 0.000000 0.000000 
#    y 0.000000 1.704270 0.000000 
#    z 0.000000 0.000000 1.631890 
# 
# From -- ./inp_files/29978.got.cif
#   From: 2010.05.17/outbox.cif.g08.bks.cpg/sg74_15_cif.got.tgz:29978.got - 2010.06.03 17:57:02.
