data_PCOD9540638
_publ_section_title
;
Structure prediction by ZEFSAII (Michael W. Deem and Ramdas Pophale) SiO2 
 PCOD9540638
Probable space group: I M M A
;
_chemical_formula_sum "Si O2"
_cell_formula_units_Z 112
_cell_length_a 13.825563
_cell_length_b 14.309877
_cell_length_c 32.581733
_cell_angle_alpha 90.000000
_cell_angle_beta 90.000000
_cell_angle_gamma 90.000000
_cell_volume 6446.038673
_symmetry_space_group_name_H-M "I M M A"
_symmetry_group_IT_number 74
_symmetry_cell_setting 'orthorhombic'
loop_
_space_group_symop_operation_xyz
x,y,z
-x,1/2-y,z
x,-y,-z
-x,1/2+y,-z
-x,-y,-z
x,1/2+y,-z
-x,y,z
x,1/2-y,z
1/2+x,1/2+y,1/2+z
1/2-x,-y,1/2+z
1/2+x,1/2-y,1/2-z
1/2-x,y,1/2-z
1/2-x,1/2-y,1/2-z
1/2+x,y,1/2-z
1/2-x,1/2+y,1/2+z
1/2+x,-y,1/2+z
loop_
_atom_site_type_symbol
_atom_site_label
_atom_site_fract_x
_atom_site_fract_y
_atom_site_fract_z
Si Si1 0.616706 0.853434 0.485818
Si Si2 0.383737 0.139798 0.934035
Si Si3 0.811516 0.862496 0.687190
Si Si4 0.614695 0.035023 0.432925
Si Si5 0.384137 0.140136 0.027056
Si Si6 0.696329 0.966509 0.893923
Si Si7 0.394064 0.862862 0.724313
O O1 0.500000 0.848512 0.484706
O O2 0.655467 0.750000 0.477459
O O3 0.638931 0.935015 0.453751
O O4 0.638354 0.889169 0.531648
O O5 0.500000 0.126050 0.932530
O O6 0.365821 0.250000 0.928256
O O7 0.334475 0.073437 0.900768
O O8 0.351730 0.114146 0.980810
O O9 0.814809 0.750000 0.680393
O O10 0.842613 0.917464 0.646738
O O11 0.701217 0.890319 0.699134
O O12 0.874079 0.883672 0.727724
O O13 0.500000 0.039690 0.424206
O O14 0.687774 0.046461 0.395759
O O15 0.500000 0.128410 0.027253
O O16 0.363432 0.250000 0.032455
O O17 0.342715 0.083519 0.064958
O O18 0.500000 0.898012 0.711441
O O19 0.395633 0.750000 0.721538
#
# Coordination Sequence:
#
# PCOD9540638 Si02
#       7
#    16  16  16  16  16  16  16
#     4   8  15  30  46  55  74 115 164 209 242 268
#     4   9  20  37  51  65  91 130 176 216 246 284
#     4   9  19  32  46  75 108 125 153 194 230 287
#     4   9  20  32  40  62  93 120 159 204 240 280
#     4   9  19  34  49  67  94 128 167 209 251 295
#     4  12  21  29  48  74  99 130 160 204 252 289
#     4   8  15  32  55  72  95 132 159 181 227 291
#
# _framework density 17.375012000000002
#
# number of rings (size 3 to 8) (size 9 to 14) (size 15 to 20)
#    0.000    2.857    0.000    3.857    4.000    4.571 
#    0.000    1.429    0.000    0.000    0.000    2.000 
#    0.000    1.143    0.000    0.000    0.000    0.000 
#
# Total GULP energy -312287.238513 kJ/mol
# GULP energy per Si atom -5576.557831 kJ/mol
# Density = 1.733547 g / cm^3
# Si number density = 17.375012 Si / 1000 Ang^3
#
#
#
# Elastic Constant Matrix: (Units=GPa)
#
#
# Indices 1 2 3 4 5 6 
#
# 1 35.4028 -5.4282 -8.3257 0.0000 0.0000 0.0000
# 2 -5.4282 47.5687 23.5103 0.0000 0.0000 0.0000
# 3 -8.3257 23.5103 53.7260 0.0000 0.0000 0.0000
# 4 0.0000 0.0000 0.0000 21.4541 0.0000 0.0000
# 5 0.0000 0.0000 0.0000 0.0000 8.1182 0.0000
# 6 0.0000 0.0000 0.0000 0.0000 0.0000 16.9235
#
#
#
# Elastic Compliance Matrix: (Units=1/GPa)
#
#
# Indices 1 2 3 4 5 6 
#
# 1 0.029388 0.001407 0.003938 0.000000 0.000000 0.000000
# 2 0.001407 0.026891 -0.011549 0.000000 0.000000 0.000000
# 3 0.003938 -0.011549 0.024277 0.000000 0.000000 0.000000
# 4 0.000000 0.000000 0.000000 0.046611 0.000000 0.000000
# 5 0.000000 0.000000 0.000000 0.000000 0.123180 0.000000
# 6 0.000000 0.000000 0.000000 0.000000 0.000000 0.059089
#
#
# Mechanical properties :
#
#
# Convention : Reuss Voigt Hill
#
# Bulk Modulus (GPa) = 14.67376 17.35670 16.01523
# Shear Modulus (GPa) = 14.51120 17.76190 16.13655
#
# Velocity S-wave (km/s) = 2.89308 3.20076 3.05080
# Velocity P-wave (km/s) = 4.42984 4.86528 4.65266
#
# Compressibility (1/GPa) = 0.06814885
#
# Stress axis : x y z
#
# Youngs Moduli (GPa) = 34.02713 37.18731 41.19086
#
# Poissons Ratio (x) = -0.05232 -0.16223
# Poissons Ratio (y) = -0.04788 0.47573
# Poissons Ratio (z) = -0.13401 0.42949
#
# Static dielectric constant tensor:
#      x y z
#    x 1.669840 0.000000 0.000000 
#    y 0.000000 1.590650 0.000000 
#    z 0.000000 0.000000 1.558970 
# 
# From -- ./inp_files/67233.got.cif
#   From: 2010.05.17/outbox.cif.g08.bks.cpg/sg74_34_cif.got.tgz:67233.got - 2010.06.03 17:57:02.
