data_PCOD9540670
_publ_section_title
;
Structure prediction by ZEFSAII (Michael W. Deem and Ramdas Pophale) SiO2 
 PCOD9540670
Probable space group: I M M A
;
_chemical_formula_sum "Si O2"
_cell_formula_units_Z 64
_cell_length_a 25.464271
_cell_length_b 8.709375
_cell_length_c 13.300931
_cell_angle_alpha 90.000000
_cell_angle_beta 90.000000
_cell_angle_gamma 90.000000
_cell_volume 2949.852349
_symmetry_space_group_name_H-M "I M M A"
_symmetry_group_IT_number 74
_symmetry_cell_setting 'orthorhombic'
loop_
_space_group_symop_operation_xyz
x,y,z
-x,1/2-y,z
x,-y,-z
-x,1/2+y,-z
-x,-y,-z
x,1/2+y,-z
-x,y,z
x,1/2-y,z
1/2+x,1/2+y,1/2+z
1/2-x,-y,1/2+z
1/2+x,1/2-y,1/2-z
1/2-x,y,1/2-z
1/2-x,1/2-y,1/2-z
1/2+x,y,1/2-z
1/2-x,1/2+y,1/2+z
1/2+x,-y,1/2+z
loop_
_atom_site_type_symbol
_atom_site_label
_atom_site_fract_x
_atom_site_fract_y
_atom_site_fract_z
Si Si1 0.860556 0.750000 0.602886
Si Si2 0.058089 0.750000 0.421397
Si Si3 0.594642 0.486061 0.759235
Si Si4 0.242613 0.250000 0.130144
Si Si5 0.177872 0.428846 0.904338
Si Si6 0.000000 0.428366 0.110643
O O1 0.897397 0.750000 0.505589
O O2 0.875492 0.610983 0.674996
O O3 0.799335 0.750000 0.577399
O O4 0.065885 0.610972 0.344753
O O5 0.000000 0.750000 0.467563
O O6 0.640612 0.415425 0.691436
O O7 0.550529 0.533880 0.679265
O O8 0.250000 0.250000 0.250000
O O9 0.216357 0.420774 0.109769
O O10 0.197052 0.250000 0.923360
O O11 0.146405 0.500000 0.000000
O O12 0.000000 0.250000 0.092525
O O13 0.000000 0.500000 0.000000
#
# Coordination Sequence:
#
# PCOD9540670 Si02
#       6
#     8   8  16   8  16   8
#     4  12  28  50  74 108 152 204 260 314 388 460
#     4  12  28  47  77 113 156 207 263 318 377 473
#     4  12  25  48  75 110 153 197 253 318 386 469
#     4  12  26  53  77 111 157 200 264 332 387 467
#     4  12  26  48  81 114 154 205 256 325 403 467
#     4  12  28  44  77 113 148 192 249 315 393 472
#
# _framework density 21.696000000000002
#
# number of rings (size 3 to 8) (size 9 to 14) (size 15 to 20)
#    0.000    0.000    7.500    1.500    3.500    5.500 
#    2.250    0.000    0.000    0.000    0.000    0.000 
#    0.000    0.000    0.000    0.000    0.000    0.000 
#
# Total GULP energy -178311.880701 kJ/mol
# GULP energy per Si atom -5572.246272 kJ/mol
# Density = 2.164662 g / cm^3
# Si number density = 21.696000 Si / 1000 Ang^3
#
#
#
# Elastic Constant Matrix: (Units=GPa)
#
#
# Indices 1 2 3 4 5 6 
#
# 1 145.5454 65.6871 46.5754 0.0000 0.0000 0.0000
# 2 65.6871 174.6360 53.3134 0.0000 0.0000 0.0000
# 3 46.5754 53.3134 142.3768 0.0000 0.0000 0.0000
# 4 0.0000 0.0000 0.0000 43.8829 0.0000 0.0000
# 5 0.0000 0.0000 0.0000 0.0000 52.4133 0.0000
# 6 0.0000 0.0000 0.0000 0.0000 0.0000 11.3501
#
#
#
# Elastic Compliance Matrix: (Units=1/GPa)
#
#
# Indices 1 2 3 4 5 6 
#
# 1 0.008676 -0.002706 -0.001825 0.000000 0.000000 0.000000
# 2 -0.002706 0.007309 -0.001852 0.000000 0.000000 0.000000
# 3 -0.001825 -0.001852 0.008314 0.000000 0.000000 0.000000
# 4 0.000000 0.000000 0.000000 0.022788 0.000000 0.000000
# 5 0.000000 0.000000 0.000000 0.000000 0.019079 0.000000
# 6 0.000000 0.000000 0.000000 0.000000 0.000000 0.088105
#
#
# Mechanical properties :
#
#
# Convention : Reuss Voigt Hill
#
# Bulk Modulus (GPa) = 86.70191 88.19000 87.44595
# Shear Modulus (GPa) = 29.26005 41.32808 35.29407
#
# Velocity S-wave (km/s) = 3.67636 4.36922 4.03768
# Velocity P-wave (km/s) = 7.62035 8.13571 7.88224
#
# Compressibility (1/GPa) = 0.01153377
#
# Stress axis : x y z
#
# Youngs Moduli (GPa) = 115.25972 136.80936 120.27981
#
# Poissons Ratio (x) = 0.37025 0.21949
# Poissons Ratio (y) = 0.31193 0.22273
# Poissons Ratio (z) = 0.21033 0.25333
#
# Static dielectric constant tensor:
#      x y z
#    x 1.771590 0.000000 0.000000 
#    y 0.000000 1.809410 0.000000 
#    z 0.000000 0.000000 1.762130 
# 
# From -- ./inp_files/37009.got.cif
#   From: 2010.05.17/outbox.cif.g08.bks.cpg/sg74_19_cif.got.tgz:37009.got - 2010.06.03 17:57:02.
