data_PCOD9540739
_publ_section_title
;
Structure prediction by ZEFSAII (Michael W. Deem and Ramdas Pophale) SiO2 
 PCOD9540739
Probable space group: I M M A
;
_chemical_formula_sum "Si O2"
_cell_formula_units_Z 88
_cell_length_a 16.908375
_cell_length_b 11.309136
_cell_length_c 18.660940
_cell_angle_alpha 90.000000
_cell_angle_beta 90.000000
_cell_angle_gamma 90.000000
_cell_volume 3568.328384
_symmetry_space_group_name_H-M "I M M A"
_symmetry_group_IT_number 74
_symmetry_cell_setting 'orthorhombic'
loop_
_space_group_symop_operation_xyz
x,y,z
-x,1/2-y,z
x,-y,-z
-x,1/2+y,-z
-x,-y,-z
x,1/2+y,-z
-x,y,z
x,1/2-y,z
1/2+x,1/2+y,1/2+z
1/2-x,-y,1/2+z
1/2+x,1/2-y,1/2-z
1/2-x,y,1/2-z
1/2-x,1/2-y,1/2-z
1/2+x,y,1/2-z
1/2-x,1/2+y,1/2+z
1/2+x,-y,1/2+z
loop_
_atom_site_type_symbol
_atom_site_label
_atom_site_fract_x
_atom_site_fract_y
_atom_site_fract_z
Si Si1 0.840535 0.620756 0.883474
Si Si2 0.824731 0.882326 0.549657
Si Si3 0.156761 0.622350 0.265737
Si Si4 0.593446 0.876626 0.396035
Si Si5 0.000000 0.122240 0.459431
Si Si6 0.404312 0.618708 0.780257
O O1 0.867068 0.750000 0.911114
O O2 0.746419 0.613811 0.893938
O O3 0.872836 0.502293 0.920252
O O4 0.868901 0.616880 0.801464
O O5 0.815945 0.750000 0.514006
O O6 0.915226 0.879997 0.578637
O O7 0.817945 0.000000 0.500000
O O8 0.144341 0.750000 0.301960
O O9 0.250000 0.610147 0.250000
O O10 0.112606 0.626709 0.189139
O O11 0.125456 0.509190 0.306987
O O12 0.500000 0.878436 0.406948
O O13 0.625510 0.750000 0.424075
O O14 0.000000 0.250000 0.498920
O O15 0.000000 0.000000 0.500000
O O16 0.500000 0.616652 0.777189
O O17 0.378910 0.750000 0.804584
#
# Coordination Sequence:
#
# PCOD9540739 Si02
#       6
#    16  16  16  16   8  16
#     4   9  16  26  42  64  86 110 142 178 213 250
#     4   9  17  28  43  64  88 112 141 176 214 255
#     4   9  16  25  39  62  87 108 134 169 209 252
#     4   9  17  29  45  65  87 111 143 179 211 246
#     4   8  14  26  42  60  82 106 134 168 206 248
#     4   9  17  29  45  64  84 109 145 183 214 248
#
# _framework density 24.661408000000002
#
# number of rings (size 3 to 8) (size 9 to 14) (size 15 to 20)
#    0.000    3.091    0.000    2.182    0.000    3.273 
#    0.000    0.000    0.000    2.182   18.909    2.545 
#    0.000    0.000    0.000    0.000    0.000    0.000 
#
# Total GULP energy -245313.741916 kJ/mol
# GULP energy per Si atom -5575.312316 kJ/mol
# Density = 2.460528 g / cm^3
# Si number density = 24.661408 Si / 1000 Ang^3
#
#
#
# Elastic Constant Matrix: (Units=GPa)
#
#
# Indices 1 2 3 4 5 6 
#
# 1 121.6748 79.0262 0.1337 0.0000 0.0000 0.0000
# 2 79.0262 358.3352 46.3307 0.0000 0.0000 0.0000
# 3 0.1337 46.3307 39.9982 0.0000 0.0000 0.0000
# 4 0.0000 0.0000 0.0000 5.9766 0.0000 0.0000
# 5 0.0000 0.0000 0.0000 0.0000 101.2297 0.0000
# 6 0.0000 0.0000 0.0000 0.0000 0.0000 52.7439
#
#
#
# Elastic Compliance Matrix: (Units=1/GPa)
#
#
# Indices 1 2 3 4 5 6 
#
# 1 0.009876 -0.002557 0.002928 0.000000 0.000000 0.000000
# 2 -0.002557 0.003944 -0.004560 0.000000 0.000000 0.000000
# 3 0.002928 -0.004560 0.030273 0.000000 0.000000 0.000000
# 4 0.000000 0.000000 0.000000 0.167319 0.000000 0.000000
# 5 0.000000 0.000000 0.000000 0.000000 0.009879 0.000000
# 6 0.000000 0.000000 0.000000 0.000000 0.000000 0.018960
#
#
# Mechanical properties :
#
#
# Convention : Reuss Voigt Hill
#
# Bulk Modulus (GPa) = 27.99802 85.66548 56.83175
# Shear Modulus (GPa) = 19.19146 58.29123 38.74134
#
# Velocity S-wave (km/s) = 2.79265 4.86702 3.96780
# Velocity P-wave (km/s) = 4.66649 8.14837 6.63973
#
# Compressibility (1/GPa) = 0.03571681
#
# Stress axis : x y z
#
# Youngs Moduli (GPa) = 101.25658 253.54376 33.03246
#
# Poissons Ratio (x) = 0.64822 -0.09673
# Poissons Ratio (y) = 0.25888 0.15063
# Poissons Ratio (z) = -0.29652 1.15615
#
# Static dielectric constant tensor:
#      x y z
#    x 1.916570 0.000000 0.000000 
#    y 0.000000 2.006340 0.000000 
#    z 0.000000 0.000000 1.947690 
# 
# From -- ./inp_files/66970.got.cif
#   From: 2010.05.17/outbox.cif.g08.bks.cpg/sg74_34_cif.got.tgz:66970.got - 2010.06.03 17:57:02.
