data_PCOD9540640
_publ_section_title
;
Structure prediction by ZEFSAII (Michael W. Deem and Ramdas Pophale) SiO2 
 PCOD9540640
Probable space group: I M M A
;
_chemical_formula_sum "Si O2"
_cell_formula_units_Z 80
_cell_length_a 8.692833
_cell_length_b 24.334969
_cell_length_c 26.928367
_cell_angle_alpha 90.000000
_cell_angle_beta 90.000000
_cell_angle_gamma 90.000000
_cell_volume 5696.421951
_symmetry_space_group_name_H-M "I M M A"
_symmetry_group_IT_number 74
_symmetry_cell_setting 'orthorhombic'
loop_
_space_group_symop_operation_xyz
x,y,z
-x,1/2-y,z
x,-y,-z
-x,1/2+y,-z
-x,-y,-z
x,1/2+y,-z
-x,y,z
x,1/2-y,z
1/2+x,1/2+y,1/2+z
1/2-x,-y,1/2+z
1/2+x,1/2-y,1/2-z
1/2-x,y,1/2-z
1/2-x,1/2-y,1/2-z
1/2+x,y,1/2-z
1/2-x,1/2+y,1/2+z
1/2+x,-y,1/2+z
loop_
_atom_site_type_symbol
_atom_site_label
_atom_site_fract_x
_atom_site_fract_y
_atom_site_fract_z
Si Si1 0.186550 0.965132 0.049068
Si Si2 0.684787 0.565752 0.609006
Si Si3 0.181730 0.750000 0.540125
Si Si4 0.682956 0.362319 0.195877
Si Si5 0.184682 0.862996 0.991362
Si Si6 0.316357 0.250000 0.348990
O O1 0.000000 0.963829 0.050878
O O2 0.235589 0.003743 0.094575
O O3 0.235735 0.903279 0.036271
O O4 0.227301 0.000000 0.000000
O O5 0.500000 0.565955 0.616873
O O6 0.766999 0.592199 0.655823
O O7 0.712481 0.604232 0.560501
O O8 0.232627 0.804960 0.511770
O O9 0.265671 0.750000 0.593548
O O10 0.000000 0.750000 0.548680
O O11 0.500000 0.358079 0.198162
O O12 0.750000 0.374660 0.250000
O O13 0.751292 0.304379 0.177026
O O14 0.000000 0.855048 0.994595
O O15 0.500000 0.250000 0.346091
#
# Coordination Sequence:
#
# PCOD9540640 Si02
#       6
#    16  16   8  16  16   8
#     4   7  12  24  44  67  84 105 139 175 209 255
#     4   9  16  29  48  66  85 109 141 179 219 258
#     4  12  22  29  41  64  92 118 146 183 220 255
#     4  12  24  36  48  64  85 111 146 186 226 264
#     4   9  16  28  46  64  85 114 146 175 211 258
#     4  12  23  37  50  60  79 112 150 189 229 263
#
# _framework density 14.043903999999999
#
# number of rings (size 3 to 8) (size 9 to 14) (size 15 to 20)
#    0.000    2.200    2.000    6.300    0.000    0.000 
#    0.000    1.000    0.000    3.600    0.000    0.000 
#    0.000    0.000    0.000    0.900    0.000   10.000 
#
# Total GULP energy -222930.617693 kJ/mol
# GULP energy per Si atom -5573.265442 kJ/mol
# Density = 1.401194 g / cm^3
# Si number density = 14.043904 Si / 1000 Ang^3
#
#
#
# Elastic Constant Matrix: (Units=GPa)
#
#
# Indices 1 2 3 4 5 6 
#
# 1 68.8804 55.3918 41.5112 0.0000 0.0000 0.0000
# 2 55.3918 91.1392 57.8637 0.0000 0.0000 0.0000
# 3 41.5112 57.8637 70.6498 0.0000 0.0000 0.0000
# 4 0.0000 0.0000 0.0000 3.3640 0.0000 0.0000
# 5 0.0000 0.0000 0.0000 0.0000 17.1290 0.0000
# 6 0.0000 0.0000 0.0000 0.0000 0.0000 11.1731
#
#
#
# Elastic Compliance Matrix: (Units=1/GPa)
#
#
# Indices 1 2 3 4 5 6 
#
# 1 0.029387 -0.014371 -0.005497 0.000000 0.000000 0.000000
# 2 -0.014371 0.029886 -0.016034 0.000000 0.000000 0.000000
# 3 -0.005497 -0.016034 0.030516 0.000000 0.000000 0.000000
# 4 0.000000 0.000000 0.000000 0.297269 0.000000 0.000000
# 5 0.000000 0.000000 0.000000 0.000000 0.058381 0.000000
# 6 0.000000 0.000000 0.000000 0.000000 0.000000 0.089501
#
#
# Mechanical properties :
#
#
# Convention : Reuss Voigt Hill
#
# Bulk Modulus (GPa) = 55.59647 60.02251 57.80949
# Shear Modulus (GPa) = 8.16010 11.39338 9.77674
#
# Velocity S-wave (km/s) = 2.41310 2.85137 2.64134
# Velocity P-wave (km/s) = 6.88750 7.32614 7.11020
#
# Compressibility (1/GPa) = 0.01798675
#
# Stress axis : x y z
#
# Youngs Moduli (GPa) = 34.02835 33.46051 32.76980
#
# Poissons Ratio (x) = 0.48085 0.18013
# Poissons Ratio (y) = 0.48901 0.52542
# Poissons Ratio (z) = 0.18705 0.53649
#
# Static dielectric constant tensor:
#      x y z
#    x 1.469530 0.000000 0.000000 
#    y 0.000000 1.482100 0.000000 
#    z 0.000000 0.000000 1.446410 
# 
# From -- ./inp_files/48986.got.cif
#   From: 2010.05.17/outbox.cif.g08.bks.cpg/sg74_25_cif.got.tgz:48986.got - 2010.06.03 17:57:02.
