data_PCOD9540764
_publ_section_title
;
Structure prediction by ZEFSAII (Michael W. Deem and Ramdas Pophale) SiO2 
 PCOD9540764
Probable space group: I M M A
;
_chemical_formula_sum "Si O2"
_cell_formula_units_Z 96
_cell_length_a 9.357760
_cell_length_b 27.776416
_cell_length_c 32.449657
_cell_angle_alpha 90.000000
_cell_angle_beta 90.000000
_cell_angle_gamma 90.000000
_cell_volume 8434.478218
_symmetry_space_group_name_H-M "I M M A"
_symmetry_group_IT_number 74
_symmetry_cell_setting 'orthorhombic'
loop_
_space_group_symop_operation_xyz
x,y,z
-x,1/2-y,z
x,-y,-z
-x,1/2+y,-z
-x,-y,-z
x,1/2+y,-z
-x,y,z
x,1/2-y,z
1/2+x,1/2+y,1/2+z
1/2-x,-y,1/2+z
1/2+x,1/2-y,1/2-z
1/2-x,y,1/2-z
1/2-x,1/2-y,1/2-z
1/2+x,y,1/2-z
1/2-x,1/2+y,1/2+z
1/2+x,-y,1/2+z
loop_
_atom_site_type_symbol
_atom_site_label
_atom_site_fract_x
_atom_site_fract_y
_atom_site_fract_z
Si Si1 0.670025 0.306308 0.042466
Si Si2 0.335359 0.611786 0.498824
Si Si3 0.828855 0.306253 0.292150
Si Si4 0.665136 0.530149 0.043122
Si Si5 0.835254 0.051661 0.084890
Si Si6 0.329421 0.135430 0.126272
O O1 0.500000 0.311815 0.034857
O O2 0.705675 0.250000 0.041093
O O3 0.757889 0.338598 0.010438
O O4 0.697019 0.328070 0.088084
O O5 0.500000 0.618257 0.486548
O O6 0.247480 0.579479 0.466658
O O7 0.335014 0.581061 0.541520
O O8 0.795434 0.250000 0.300932
O O9 0.750000 0.319763 0.250000
O O10 0.789351 0.338950 0.331102
O O11 0.000000 0.309582 0.286655
O O12 0.500000 0.537802 0.054346
O O13 0.748364 0.496910 0.075639
O O14 0.665445 0.500000 0.000000
O O15 0.756403 0.086869 0.116722
O O16 0.000000 0.042458 0.095767
O O17 0.500000 0.125780 0.126511
#
# Coordination Sequence:
#
# PCOD9540764 Si02
#       6
#    16  16  16  16  16  16
#     4   9  16  25  36  48  62  82 108 135 162 194
#     4   9  16  24  33  46  64  83 102 126 156 188
#     4   9  17  28  40  52  65  82 105 133 165 201
#     4   9  15  23  35  48  62  81 103 124 148 183
#     4   9  16  24  34  49  66  81  98 123 156 191
#     4   9  16  26  38  50  64  82 104 130 162 200
#
# _framework density 11.381854000000001
#
# number of rings (size 3 to 8) (size 9 to 14) (size 15 to 20)
#    0.000    3.000    0.000    2.000    0.000    9.000 
#    0.000    0.000    0.000    3.000    0.000    0.000 
#    0.000    0.000    0.000    0.000    0.000    0.000 
#
# Total GULP energy -267244.892128 kJ/mol
# GULP energy per Si atom -5567.601919 kJ/mol
# Density = 1.135595 g / cm^3
# Si number density = 11.381854 Si / 1000 Ang^3
#
#
#
# Elastic Constant Matrix: (Units=GPa)
#
#
# Indices 1 2 3 4 5 6 
#
# 1 79.0799 60.0508 41.1843 0.0000 0.0000 0.0000
# 2 60.0508 80.5056 48.5441 0.0000 0.0000 0.0000
# 3 41.1843 48.5441 47.2470 0.0000 0.0000 0.0000
# 4 0.0000 0.0000 0.0000 20.8120 0.0000 0.0000
# 5 0.0000 0.0000 0.0000 0.0000 13.9877 0.0000
# 6 0.0000 0.0000 0.0000 0.0000 0.0000 15.8356
#
#
#
# Elastic Compliance Matrix: (Units=1/GPa)
#
#
# Indices 1 2 3 4 5 6 
#
# 1 0.030386 -0.017595 -0.008409 0.000000 0.000000 0.000000
# 2 -0.017595 0.042837 -0.028676 0.000000 0.000000 0.000000
# 3 -0.008409 -0.028676 0.057958 0.000000 0.000000 0.000000
# 4 0.000000 0.000000 0.000000 0.048049 0.000000 0.000000
# 5 0.000000 0.000000 0.000000 0.000000 0.071492 0.000000
# 6 0.000000 0.000000 0.000000 0.000000 0.000000 0.063149
#
#
# Mechanical properties :
#
#
# Convention : Reuss Voigt Hill
#
# Bulk Modulus (GPa) = 45.82549 56.26565 51.04557
# Shear Modulus (GPa) = 11.61428 13.93062 12.77245
#
# Velocity S-wave (km/s) = 3.19787 3.50227 3.35352
# Velocity P-wave (km/s) = 7.34741 8.11766 7.74212
#
# Compressibility (1/GPa) = 0.02182191
#
# Stress axis : x y z
#
# Youngs Moduli (GPa) = 32.91029 23.34408 17.25376
#
# Poissons Ratio (x) = 0.41074 0.14508
# Poissons Ratio (y) = 0.57906 0.49477
# Poissons Ratio (z) = 0.27673 0.66942
#
# Static dielectric constant tensor:
#      x y z
#    x 1.381940 0.000000 0.000000 
#    y 0.000000 1.356690 0.000000 
#    z 0.000000 0.000000 1.336320 
# 
# From -- ./inp_files/57508.got.cif
#   From: 2010.05.17/outbox.cif.g08.bks.cpg/sg74_29_cif.got.tgz:57508.got - 2010.06.03 17:57:02.
