data_PCOD9540650
_publ_section_title
;
Structure prediction by ZEFSAII (Michael W. Deem and Ramdas Pophale) SiO2 
 PCOD9540650
Probable space group: I M M A
;
_chemical_formula_sum "Si O2"
_cell_formula_units_Z 56
_cell_length_a 16.404842
_cell_length_b 21.468386
_cell_length_c 7.710573
_cell_angle_alpha 90.000000
_cell_angle_beta 90.000000
_cell_angle_gamma 90.000000
_cell_volume 2715.551856
_symmetry_space_group_name_H-M "I M M A"
_symmetry_group_IT_number 74
_symmetry_cell_setting 'orthorhombic'
loop_
_space_group_symop_operation_xyz
x,y,z
-x,1/2-y,z
x,-y,-z
-x,1/2+y,-z
-x,-y,-z
x,1/2+y,-z
-x,y,z
x,1/2-y,z
1/2+x,1/2+y,1/2+z
1/2-x,-y,1/2+z
1/2+x,1/2-y,1/2-z
1/2-x,y,1/2-z
1/2-x,1/2-y,1/2-z
1/2+x,y,1/2-z
1/2-x,1/2+y,1/2+z
1/2+x,-y,1/2+z
loop_
_atom_site_type_symbol
_atom_site_label
_atom_site_fract_x
_atom_site_fract_y
_atom_site_fract_z
Si Si1 0.250000 0.884670 0.750000
Si Si2 0.589120 0.677000 0.641041
Si Si3 0.806695 0.059593 0.586098
Si Si4 0.903812 0.820961 0.275832
O O1 0.334486 0.847754 0.746191
O O2 0.251632 0.921757 0.571864
O O3 0.500000 0.648697 0.681930
O O4 0.584259 0.750000 0.676987
O O5 0.602848 0.671554 0.433336
O O6 0.750000 0.044011 0.750000
O O7 0.858525 0.120568 0.638552
O O8 0.852724 0.000000 0.500000
O O9 0.873937 0.750000 0.318517
O O10 0.000000 0.822687 0.318414
#
# Coordination Sequence:
#
# PCOD9540650 Si02
#       4
#     8  16  16  16
#     4  12  23  38  66  92 125 180 222 272 330 388
#     4   9  19  37  62  97 137 171 214 273 332 397
#     4  12  25  43  65  92 134 174 224 274 327 393
#     4   9  20  41  68  98 134 172 215 275 337 396
#
# _framework density 20.621959
#
# number of rings (size 3 to 8) (size 9 to 14) (size 15 to 20)
#    0.000    1.714    4.286    2.143    0.000    4.571 
#    0.000    2.857    0.000    5.143    0.000    0.000 
#    0.000    0.000    0.000    0.000    0.000    0.000 
#
# Total GULP energy -156047.143161 kJ/mol
# GULP energy per Si atom -5573.112256 kJ/mol
# Density = 2.057502 g / cm^3
# Si number density = 20.621959 Si / 1000 Ang^3
#
#
#
# Elastic Constant Matrix: (Units=GPa)
#
#
# Indices 1 2 3 4 5 6 
#
# 1 88.4608 60.7782 47.0456 0.0000 0.0000 0.0000
# 2 60.7782 130.5683 48.0608 0.0000 0.0000 0.0000
# 3 47.0456 48.0608 107.3520 0.0000 0.0000 0.0000
# 4 0.0000 0.0000 0.0000 24.2646 0.0000 0.0000
# 5 0.0000 0.0000 0.0000 0.0000 19.0470 0.0000
# 6 0.0000 0.0000 0.0000 0.0000 0.0000 48.2377
#
#
#
# Elastic Compliance Matrix: (Units=1/GPa)
#
#
# Indices 1 2 3 4 5 6 
#
# 1 0.018734 -0.006823 -0.005155 0.000000 0.000000 0.000000
# 2 -0.006823 0.011655 -0.002228 0.000000 0.000000 0.000000
# 3 -0.005155 -0.002228 0.012572 0.000000 0.000000 0.000000
# 4 0.000000 0.000000 0.000000 0.041212 0.000000 0.000000
# 5 0.000000 0.000000 0.000000 0.000000 0.052502 0.000000
# 6 0.000000 0.000000 0.000000 0.000000 0.000000 0.020731
#
#
# Mechanical properties :
#
#
# Convention : Reuss Voigt Hill
#
# Bulk Modulus (GPa) = 68.73518 70.90560 69.82039
# Shear Modulus (GPa) = 26.22377 29.67628 27.95002
#
# Velocity S-wave (km/s) = 3.56988 3.79761 3.68551
# Velocity P-wave (km/s) = 7.09898 7.32716 7.21397
#
# Compressibility (1/GPa) = 0.01454859
#
# Stress axis : x y z
#
# Youngs Moduli (GPa) = 53.37921 85.80161 79.54321
#
# Poissons Ratio (x) = 0.58541 0.41007
# Poissons Ratio (y) = 0.36420 0.17720
# Poissons Ratio (z) = 0.27519 0.19115
#
# Static dielectric constant tensor:
#      x y z
#    x 1.817640 0.000000 0.000000 
#    y 0.000000 1.809000 0.000000 
#    z 0.000000 0.000000 1.752740 
# 
# From -- ./inp_files/10147.got.cif
#   From: 2010.05.17/outbox.cif.g08.bks.cpg/sg74_6_cif.got.tgz:10147.got - 2010.06.03 17:57:02.
