data_PCOD9540971
_publ_section_title
;
Structure prediction by ZEFSAII (Michael W. Deem and Ramdas Pophale) SiO2 
 PCOD9540971
Probable space group: I M M A
;
_chemical_formula_sum "Si O2"
_cell_formula_units_Z 56
_cell_length_a 15.000000
_cell_length_b 15.000000
_cell_length_c 24.000000
_cell_angle_alpha 90.000000
_cell_angle_beta 90.000000
_cell_angle_gamma 90.000000
_cell_volume 5400.000000
_symmetry_space_group_name_H-M "I M M A"
_symmetry_group_IT_number 74
_symmetry_cell_setting 'orthorhombic'
loop_
_space_group_symop_operation_xyz
x,y,z
-x,1/2-y,z
x,-y,-z
-x,1/2+y,-z
-x,-y,-z
x,1/2+y,-z
-x,y,z
x,1/2-y,z
1/2+x,1/2+y,1/2+z
1/2-x,-y,1/2+z
1/2+x,1/2-y,1/2-z
1/2-x,y,1/2-z
1/2-x,1/2-y,1/2-z
1/2+x,y,1/2-z
1/2-x,1/2+y,1/2+z
1/2+x,-y,1/2+z
loop_
_atom_site_type_symbol
_atom_site_label
_atom_site_fract_x
_atom_site_fract_y
_atom_site_fract_z
Si Si1 0.286095 0.644717 0.427235
Si Si2 0.405077 0.352349 0.063033
Si Si3 0.601592 0.652025 0.803331
Si Si4 0.603862 0.504471 0.634206
Si Si5 0.846525 0.971294 0.261569
Si Si6 0.207692 0.142343 0.056210
Si Si7 0.900236 0.856553 0.368221
O O1 0.296203 0.750000 0.415659
O O2 0.347783 0.582479 0.390124
O O3 0.317730 0.631242 0.491308
O O4 0.182482 0.623091 0.410031
O O5 0.500000 0.392198 0.045223
O O6 0.402153 0.250000 0.040659
O O7 0.406204 0.345903 0.130046
O O8 0.309508 0.393406 0.052637
O O9 0.500000 0.636594 0.782219
O O10 0.631342 0.750000 0.784331
O O11 0.662502 0.569838 0.787779
O O12 0.500000 0.509666 0.619417
O O13 0.610724 0.492052 0.701284
O O14 0.653916 0.587610 0.603170
O O15 0.750000 0.930486 0.250000
O O16 0.890870 0.911391 0.310044
O O17 0.207930 0.250000 0.068635
O O18 0.896075 0.750000 0.357142
O O19 0.000000 0.876113 0.390894
#
# Coordination Sequence:
#
# PCOD9540971 Si02
#       7
#    16  16  16  16  16  16  16
#     4  10  23  44  67  91 122 165 216 270 327 381
#     4   8  15  30  55  87 122 159 198 244 301 367
#     4   9  18  33  53  82 122 163 205 251 300 366
#     4  12  26  43  63  92 128 169 218 267 320 381
#     4  12  23  39  64  91 127 172 210 264 325 388
#     4  10  22  41  64  92 129 169 214 267 319 376
#     4  10  22  42  68  98 131 165 207 267 335 398
#
# _framework density 10.370369999999999
#
# number of rings (size 3 to 8) (size 9 to 14) (size 15 to 20)
#    0.000    1.857    1.429    3.429    0.000    4.000 
#    0.000    4.286    0.000    1.714    0.000    0.000 
#    0.000    0.000    0.000    0.000    0.000    0.000 
#
# Total GULP energy -312198.576244 kJ/mol
# GULP energy per Si atom -5574.974576 kJ/mol
# Density = 1.034677 g / cm^3
# Si number density = 10.370370 Si / 1000 Ang^3
#
#
#
# Elastic Constant Matrix: (Units=GPa)
#
#
# Indices 1 2 3 4 5 6 
#
# 1 90.6424 9.0368 1.6944 0.0000 0.0000 0.0000
# 2 9.0368 60.2759 24.9470 0.0000 0.0000 0.0000
# 3 1.6944 24.9470 66.0922 0.0000 0.0000 0.0000
# 4 0.0000 0.0000 0.0000 25.7552 0.0000 0.0000
# 5 0.0000 0.0000 0.0000 0.0000 9.6466 0.0000
# 6 0.0000 0.0000 0.0000 0.0000 0.0000 25.9803
#
#
#
# Elastic Compliance Matrix: (Units=1/GPa)
#
#
# Indices 1 2 3 4 5 6 
#
# 1 0.011209 -0.001851 0.000411 0.000000 0.000000 0.000000
# 2 -0.001851 0.019968 -0.007489 0.000000 0.000000 0.000000
# 3 0.000411 -0.007489 0.017947 0.000000 0.000000 0.000000
# 4 0.000000 0.000000 0.000000 0.038827 0.000000 0.000000
# 5 0.000000 0.000000 0.000000 0.000000 0.103664 0.000000
# 6 0.000000 0.000000 0.000000 0.000000 0.000000 0.038491
#
#
# Mechanical properties :
#
#
# Convention : Reuss Voigt Hill
#
# Bulk Modulus (GPa) = 31.98403 32.04076 32.01239
# Shear Modulus (GPa) = 19.35096 24.36523 21.85810
#
# Velocity S-wave (km/s) = 3.05781 3.43118 3.24986
# Velocity P-wave (km/s) = 5.28406 5.58383 5.43601
#
# Compressibility (1/GPa) = 0.03126561
#
# Stress axis : x y z
#
# Youngs Moduli (GPa) = 89.21256 50.08112 55.72029
#
# Poissons Ratio (x) = 0.09269 -0.02291
# Poissons Ratio (y) = 0.16511 0.41732
# Poissons Ratio (z) = -0.03668 0.37508
#
# Static dielectric constant tensor:
#      x y z
#    x 1.802240 0.000000 0.000000 
#    y 0.000000 1.742120 0.000000 
#    z 0.000000 0.000000 1.748700 
# 
# From -- ./inp_files/60094.got.cif
#   From: 2010.05.17/outbox.ucp.g08.bks.cvg/sg74_31_cif.got.tgz:60094.got - 2010.06.11 16:37:44.
