data_PCOD9540197
_publ_section_title
;
Structure prediction by ZEFSAII (Michael W. Deem and Ramdas Pophale) SiO2 
 PCOD9540197
Probable space group: I M M A
;
_chemical_formula_sum "Si O2"
_cell_formula_units_Z 96
_cell_length_a 24.990890
_cell_length_b 19.353073
_cell_length_c 11.802555
_cell_angle_alpha 90.000000
_cell_angle_beta 90.000000
_cell_angle_gamma 90.000000
_cell_volume 5708.311845
_symmetry_space_group_name_H-M "I M M A"
_symmetry_group_IT_number 74
_symmetry_cell_setting 'orthorhombic'
loop_
_space_group_symop_operation_xyz
x,y,z
-x,1/2-y,z
x,-y,-z
-x,1/2+y,-z
-x,-y,-z
x,1/2+y,-z
-x,y,z
x,1/2-y,z
1/2+x,1/2+y,1/2+z
1/2-x,-y,1/2+z
1/2+x,1/2-y,1/2-z
1/2-x,y,1/2-z
1/2-x,1/2-y,1/2-z
1/2+x,y,1/2-z
1/2-x,1/2+y,1/2+z
1/2+x,-y,1/2+z
loop_
_atom_site_type_symbol
_atom_site_label
_atom_site_fract_x
_atom_site_fract_y
_atom_site_fract_z
Si Si1 0.937018 0.671354 0.849582
Si Si2 0.735909 0.326751 0.383543
Si Si3 0.853953 0.058651 0.094327
Si Si4 0.670557 0.391649 0.000109
Si Si5 0.807984 0.507291 0.309557
Si Si6 0.061036 0.331344 0.422211
O O1 0.920213 0.750000 0.879355
O O2 0.904151 0.610133 0.906418
O O3 0.930000 0.664141 0.713475
O O4 0.000000 0.665819 0.873077
O O5 0.712079 0.250000 0.395833
O O6 0.750000 0.334753 0.250000
O O7 0.696209 0.388729 0.415223
O O8 0.788897 0.332021 0.460363
O O9 0.848526 0.017824 0.212869
O O10 0.853569 0.000000 0.000000
O O11 0.686681 0.450233 0.092017
O O12 0.609002 0.371226 0.017573
O O13 0.680749 0.421515 0.875204
O O14 0.750000 0.508729 0.250000
O O15 0.063894 0.250000 0.451063
O O16 0.000000 0.355043 0.445804
#
# Coordination Sequence:
#
# PCOD9540197 Si02
#       6
#    16  16  16  16  16  16
#     4   9  18  34  55  79 108 137 176 234 286 323
#     4  11  20  31  53  81 105 133 181 233 272 325
#     4  12  21  34  53  76 110 144 180 226 269 332
#     4  11  19  33  55  76 111 145 173 223 274 333
#     4  11  21  34  49  76 109 148 177 207 273 327
#     4   9  17  32  56  84 111 137 174 233 291 326
#
# _framework density 16.817582000000002
#
# number of rings (size 3 to 8) (size 9 to 14) (size 15 to 20)
#    0.000    1.500    5.000    3.000    0.000    3.000 
#    0.000    2.500    0.000   11.000    0.000    2.333 
#    0.000    0.000    0.000    0.000    0.000    0.000 
#
# Total GULP energy -267588.249993 kJ/mol
# GULP energy per Si atom -5574.755208 kJ/mol
# Density = 1.677930 g / cm^3
# Si number density = 16.817582 Si / 1000 Ang^3
#
#
#
# Elastic Constant Matrix: (Units=GPa)
#
#
# Indices 1 2 3 4 5 6 
#
# 1 105.6045 65.6742 34.1337 0.0000 0.0000 0.0000
# 2 65.6742 116.8070 57.1247 0.0000 0.0000 0.0000
# 3 34.1337 57.1247 66.0932 0.0000 0.0000 0.0000
# 4 0.0000 0.0000 0.0000 -1.1589 0.0000 0.0000
# 5 0.0000 0.0000 0.0000 0.0000 11.0506 0.0000
# 6 0.0000 0.0000 0.0000 0.0000 0.0000 -0.9356
#
#
#
# Elastic Compliance Matrix: (Units=1/GPa)
#
#
# Indices 1 2 3 4 5 6 
#
# 1 0.014583 -0.007822 -0.000770 0.000000 0.000000 0.000000
# 2 -0.007822 0.019025 -0.012404 0.000000 0.000000 0.000000
# 3 -0.000770 -0.012404 0.026249 0.000000 0.000000 0.000000
# 4 0.000000 0.000000 0.000000 -0.862899 0.000000 0.000000
# 5 0.000000 0.000000 0.000000 0.000000 0.090493 0.000000
# 6 0.000000 0.000000 0.000000 0.000000 0.000000 -1.068844
#
#
# Mechanical properties :
#
#
# Convention : Reuss Voigt Hill
#
# Bulk Modulus (GPa) = 55.97930 66.92999 61.45464
# Shear Modulus (GPa) = -2.88443 10.56270 3.83914
#
# Velocity S-wave (km/s) = -1.31105 2.50886 1.51254
# Velocity P-wave (km/s) = 5.57375 6.94813 6.29854
#
# Compressibility (1/GPa) = 0.01786375
#
# Stress axis : x y z
#
# Youngs Moduli (GPa) = 68.57306 52.56133 38.09709
#
# Poissons Ratio (x) = 0.41116 0.02935
# Poissons Ratio (y) = 0.53641 0.47255
# Poissons Ratio (z) = 0.05283 0.65196
#
# Static dielectric constant tensor:
#      x y z
#    x 1.599230 0.000000 0.000000 
#    y 0.000000 1.598730 0.000000 
#    z 0.000000 0.000000 1.545030 
# 
# From -- ./inp_files/25294.got.cif
#   From: 2010.05.17/outbox.cif.g08.bks.cpg/sg74_13_cif.got.tgz:25294.got - 2010.06.03 17:57:02.
