data_PCOD9540874
_publ_section_title
;
Structure prediction by ZEFSAII (Michael W. Deem and Ramdas Pophale) SiO2 
 PCOD9540874
Probable space group: I M M A
;
_chemical_formula_sum "Si O2"
_cell_formula_units_Z 48
_cell_length_a 24.000000
_cell_length_b 9.000000
_cell_length_c 24.000000
_cell_angle_alpha 90.000000
_cell_angle_beta 90.000000
_cell_angle_gamma 90.000000
_cell_volume 5184.000000
_symmetry_space_group_name_H-M "I M M A"
_symmetry_group_IT_number 74
_symmetry_cell_setting 'orthorhombic'
loop_
_space_group_symop_operation_xyz
x,y,z
-x,1/2-y,z
x,-y,-z
-x,1/2+y,-z
-x,-y,-z
x,1/2+y,-z
-x,y,z
x,1/2-y,z
1/2+x,1/2+y,1/2+z
1/2-x,-y,1/2+z
1/2+x,1/2-y,1/2-z
1/2-x,y,1/2-z
1/2-x,1/2-y,1/2-z
1/2+x,y,1/2-z
1/2-x,1/2+y,1/2+z
1/2+x,-y,1/2+z
loop_
_atom_site_type_symbol
_atom_site_label
_atom_site_fract_x
_atom_site_fract_y
_atom_site_fract_z
Si Si1 0.377278 0.570949 0.741639
Si Si2 0.123426 0.927495 0.363787
Si Si3 0.062641 0.071009 0.939082
Si Si4 0.500000 0.073536 0.260800
Si Si5 0.726597 0.571134 0.060621
Si Si6 0.000000 0.925356 0.358130
Si Si7 0.667353 0.571196 0.363209
O O1 0.375825 0.750000 0.743322
O O2 0.369963 0.506947 0.803889
O O3 0.439263 0.519287 0.720389
O O4 0.334594 0.506863 0.696669
O O5 0.129963 0.750000 0.354585
O O6 0.170134 0.975001 0.407564
O O7 0.060080 0.951761 0.385694
O O8 0.064576 0.250000 0.944371
O O9 0.112457 0.026352 0.898358
O O10 0.000000 0.030064 0.919339
O O11 0.070340 0.000000 0.000000
O O12 0.500000 0.250000 0.268575
O O13 0.500000 0.029990 0.195753
O O14 0.726071 0.750000 0.054644
O O15 0.778810 0.532711 0.100083
O O16 0.731591 0.500000 0.000000
O O17 0.000000 0.750000 0.341022
O O18 0.666294 0.750000 0.355651
#
# Coordination Sequence:
#
# PCOD9540874 Si02
#       7
#    16  16  16   8  16   8  16
#     4  10  20  33  52  80 110 141 175 216 263 312
#     4   9  18  35  57  80 107 139 174 212 260 316
#     4   9  18  32  49  70  96 130 174 221 263 303
#     4   8  16  30  46  71 108 139 167 206 256 306
#     4  10  22  39  58  78 103 138 178 220 265 315
#     4   8  14  28  53  79 101 131 169 206 247 304
#     4  10  21  35  51  74 105 141 178 216 261 313
#
# _framework density 9.2592590000000001
#
# number of rings (size 3 to 8) (size 9 to 14) (size 15 to 20)
#    0.000    2.667    0.000    1.000    1.167    3.333 
#    0.000    3.750    0.000    0.000    0.000    0.000 
#    0.000    0.000    0.000    0.000    0.000    0.000 
#
# Total GULP energy -267532.178372 kJ/mol
# GULP energy per Si atom -5573.587049 kJ/mol
# Density = 0.923818 g / cm^3
# Si number density = 9.259259 Si / 1000 Ang^3
#
#
#
# Elastic Constant Matrix: (Units=GPa)
#
#
# Indices 1 2 3 4 5 6 
#
# 1 105.7810 24.2239 44.2772 0.0000 0.0000 0.0000
# 2 24.2239 12.7407 22.5964 0.0000 0.0000 0.0000
# 3 44.2772 22.5964 57.0420 0.0000 0.0000 0.0000
# 4 0.0000 0.0000 0.0000 27.9602 0.0000 0.0000
# 5 0.0000 0.0000 0.0000 0.0000 33.9683 0.0000
# 6 0.0000 0.0000 0.0000 0.0000 0.0000 11.5146
#
#
#
# Elastic Compliance Matrix: (Units=1/GPa)
#
#
# Indices 1 2 3 4 5 6 
#
# 1 0.016772 -0.029584 -0.001300 0.000000 0.000000 0.000000
# 2 -0.029584 0.316073 -0.102244 0.000000 0.000000 0.000000
# 3 -0.001300 -0.102244 0.059042 0.000000 0.000000 0.000000
# 4 0.000000 0.000000 0.000000 0.035765 0.000000 0.000000
# 5 0.000000 0.000000 0.000000 0.000000 0.029439 0.000000
# 6 0.000000 0.000000 0.000000 0.000000 0.000000 0.086846
#
#
# Mechanical properties :
#
#
# Convention : Reuss Voigt Hill
#
# Bulk Modulus (GPa) = 7.95976 39.75095 23.85536
# Shear Modulus (GPa) = 5.86806 20.31970 13.09388
#
# Velocity S-wave (km/s) = 1.78203 3.31609 2.66196
# Velocity P-wave (km/s) = 2.92263 6.01449 4.72842
#
# Compressibility (1/GPa) = 0.12563188
#
# Stress axis : x y z
#
# Youngs Moduli (GPa) = 59.62217 3.16383 16.93709
#
# Poissons Ratio (x) = 0.09360 0.02201
# Poissons Ratio (y) = 1.76388 1.73171
# Poissons Ratio (z) = 0.07748 0.32348
#
# Static dielectric constant tensor:
#      x y z
#    x 1.694560 0.000000 0.000000 
#    y 0.000000 1.620130 0.000000 
#    z 0.000000 0.000000 1.600750 
# 
# From -- ./inp_files/61943.got.cif
#   From: 2010.05.17/outbox.ucp.g08.bks.cvg/sg74_31_cif.got.tgz:61943.got - 2010.06.11 16:37:44.
