data_PCOD9540436
_publ_section_title
;
Structure prediction by ZEFSAII (Michael W. Deem and Ramdas Pophale) SiO2 
 PCOD9540436
Probable space group: I M M A
;
_chemical_formula_sum "Si O2"
_cell_formula_units_Z 68
_cell_length_a 21.069170
_cell_length_b 7.627623
_cell_length_c 18.934562
_cell_angle_alpha 90.000000
_cell_angle_beta 90.000000
_cell_angle_gamma 90.000000
_cell_volume 3042.929638
_symmetry_space_group_name_H-M "I M M A"
_symmetry_group_IT_number 74
_symmetry_cell_setting 'orthorhombic'
loop_
_space_group_symop_operation_xyz
x,y,z
-x,1/2-y,z
x,-y,-z
-x,1/2+y,-z
-x,-y,-z
x,1/2+y,-z
-x,y,z
x,1/2-y,z
1/2+x,1/2+y,1/2+z
1/2-x,-y,1/2+z
1/2+x,1/2-y,1/2-z
1/2-x,y,1/2-z
1/2-x,1/2-y,1/2-z
1/2+x,y,1/2-z
1/2-x,1/2+y,1/2+z
1/2+x,-y,1/2+z
loop_
_atom_site_type_symbol
_atom_site_label
_atom_site_fract_x
_atom_site_fract_y
_atom_site_fract_z
Si Si1 0.813020 0.542515 0.417171
Si Si2 0.000000 0.750000 0.740421
Si Si3 0.812172 0.542452 0.829378
Si Si4 0.068923 0.039405 0.082528
Si Si5 0.605779 0.546023 0.207591
O O1 0.813594 0.500000 0.500000
O O2 0.812820 0.750000 0.411385
O O3 0.749942 0.481625 0.376577
O O4 0.873843 0.484999 0.371184
O O5 0.944279 0.593756 0.737732
O O6 0.817017 0.750000 0.817711
O O7 0.870973 0.472488 0.876091
O O8 0.828703 0.460662 0.753569
O O9 0.067617 0.250000 0.091499
O O10 0.000000 0.971987 0.105925
O O11 0.075195 0.000000 0.000000
O O12 0.584183 0.750000 0.207294
#
# Coordination Sequence:
#
# PCOD9540436 Si02
#       5
#    16   4  16  16  16
#     4  11  25  44  70 101 140 183 237 299 358 424
#     4  12  26  48  76 102 140 192 228 300 360 430
#     4  11  22  37  67 100 136 185 231 283 354 418
#     4   9  19  33  50  79 123 170 223 273 329 403
#     4  11  26  46  72 105 142 181 240 294 357 426
#
# _framework density 22.346885
#
# number of rings (size 3 to 8) (size 9 to 14) (size 15 to 20)
#    0.000    1.412    1.176    3.176    4.941    6.588 
#    0.000    0.588    0.000    0.000    0.000    0.000 
#    0.000    0.000    0.000    0.000    0.000    0.000 
#
# Total GULP energy -189407.818036 kJ/mol
# GULP energy per Si atom -5570.818178 kJ/mol
# Density = 2.229602 g / cm^3
# Si number density = 22.346885 Si / 1000 Ang^3
#
#
#
# Elastic Constant Matrix: (Units=GPa)
#
#
# Indices 1 2 3 4 5 6 
#
# 1 48.5345 19.6593 30.4637 0.0000 0.0000 0.0000
# 2 19.6593 97.3978 9.3946 0.0000 0.0000 0.0000
# 3 30.4637 9.3946 119.4495 0.0000 0.0000 0.0000
# 4 0.0000 0.0000 0.0000 21.7705 0.0000 0.0000
# 5 0.0000 0.0000 0.0000 0.0000 8.7937 0.0000
# 6 0.0000 0.0000 0.0000 0.0000 0.0000 65.6205
#
#
#
# Elastic Compliance Matrix: (Units=1/GPa)
#
#
# Indices 1 2 3 4 5 6 
#
# 1 0.026538 -0.004740 -0.006395 0.000000 0.000000 0.000000
# 2 -0.004740 0.011192 0.000329 0.000000 0.000000 0.000000
# 3 -0.006395 0.000329 0.009977 0.000000 0.000000 0.000000
# 4 0.000000 0.000000 0.000000 0.045934 0.000000 0.000000
# 5 0.000000 0.000000 0.000000 0.000000 0.113718 0.000000
# 6 0.000000 0.000000 0.000000 0.000000 0.000000 0.015239
#
#
# Mechanical properties :
#
#
# Convention : Reuss Voigt Hill
#
# Bulk Modulus (GPa) = 38.32287 42.71298 40.51793
# Shear Modulus (GPa) = 19.77002 32.96123 26.36563
#
# Velocity S-wave (km/s) = 2.97760 3.84471 3.43860
# Velocity P-wave (km/s) = 5.38589 6.23412 5.82546
#
# Compressibility (1/GPa) = 0.02609408
#
# Stress axis : x y z
#
# Youngs Moduli (GPa) = 37.68200 89.34820 100.23138
#
# Poissons Ratio (x) = 0.42348 0.64101
# Poissons Ratio (y) = 0.17860 -0.03293
# Poissons Ratio (z) = 0.24099 -0.02935
#
# Static dielectric constant tensor:
#      x y z
#    x 1.867930 0.000000 0.000000 
#    y 0.000000 1.809810 0.000000 
#    z 0.000000 0.000000 5.358130 
# 
# From -- ./inp_files/44843.got.cif
#   From: 2010.05.17/outbox.cif.g08.bks.cpg/sg74_23_cif.got.tgz:44843.got - 2010.06.03 17:57:02.
