data_PCOD9540746
_publ_section_title
;
Structure prediction by ZEFSAII (Michael W. Deem and Ramdas Pophale) SiO2 
 PCOD9540746
Probable space group: I M M A
;
_chemical_formula_sum "Si O2"
_cell_formula_units_Z 96
_cell_length_a 22.821008
_cell_length_b 21.129090
_cell_length_c 7.151997
_cell_angle_alpha 90.000000
_cell_angle_beta 90.000000
_cell_angle_gamma 90.000000
_cell_volume 3448.600921
_symmetry_space_group_name_H-M "I M M A"
_symmetry_group_IT_number 74
_symmetry_cell_setting 'orthorhombic'
loop_
_space_group_symop_operation_xyz
x,y,z
-x,1/2-y,z
x,-y,-z
-x,1/2+y,-z
-x,-y,-z
x,1/2+y,-z
-x,y,z
x,1/2-y,z
1/2+x,1/2+y,1/2+z
1/2-x,-y,1/2+z
1/2+x,1/2-y,1/2-z
1/2-x,y,1/2-z
1/2-x,1/2-y,1/2-z
1/2+x,y,1/2-z
1/2-x,1/2+y,1/2+z
1/2+x,-y,1/2+z
loop_
_atom_site_type_symbol
_atom_site_label
_atom_site_fract_x
_atom_site_fract_y
_atom_site_fract_z
Si Si1 0.435039 0.346957 0.418902
Si Si2 0.812900 0.475886 0.277767
Si Si3 0.184481 0.137190 0.557549
Si Si4 0.561519 0.014899 0.283374
Si Si5 0.190573 0.144797 0.008011
Si Si6 0.436378 0.323972 0.840904
O O1 0.500000 0.316883 0.389207
O O2 0.435918 0.408937 0.289062
O O3 0.367863 0.321062 0.412401
O O4 0.436136 0.361776 0.644225
O O5 0.750000 0.508434 0.250000
O O6 0.811539 0.430899 0.459066
O O7 0.875719 0.509406 0.279800
O O8 0.813880 0.424510 0.105471
O O9 0.187506 0.139746 0.782864
O O10 0.242671 0.169870 0.470071
O O11 0.119268 0.163725 0.529540
O O12 0.500000 0.993095 0.197265
O O13 0.558700 0.000000 0.500000
O O14 0.500000 0.334256 0.930054
O O15 0.433252 0.250000 0.783828
#
# Coordination Sequence:
#
# PCOD9540746 Si02
#       6
#    16  16  16  16  16  16
#     4   8  14  27  47  68  92 127 164 199 249 302
#     4   9  17  30  52  72 101 134 167 208 254 309
#     4   9  16  28  48  71  96 131 167 202 250 302
#     4   9  17  30  52  77 103 137 175 218 266 315
#     4   8  15  28  46  71  97 127 164 204 250 297
#     4   9  17  29  47  71  99 131 168 213 261 308
#
# _framework density 27.837375999999999
#
# number of rings (size 3 to 8) (size 9 to 14) (size 15 to 20)
#    0.000    3.333    0.000    0.000    0.000    0.667 
#    0.000    6.667   33.000   13.500    0.000   47.833 
#    0.000    0.000    0.000    0.000    0.000    0.000 
#
# Total GULP energy -267734.872691 kJ/mol
# GULP energy per Si atom -5577.809848 kJ/mol
# Density = 2.777402 g / cm^3
# Si number density = 27.837376 Si / 1000 Ang^3
#
#
#
# Elastic Constant Matrix: (Units=GPa)
#
#
# Indices 1 2 3 4 5 6 
#
# 1 365.0738 25.7625 12.9281 0.0000 0.0000 0.0000
# 2 25.7625 67.1333 -2.0452 0.0000 0.0000 0.0000
# 3 12.9281 -2.0452 118.7651 0.0000 0.0000 0.0000
# 4 0.0000 0.0000 0.0000 -19.6357 0.0000 0.0000
# 5 0.0000 0.0000 0.0000 0.0000 16.0740 0.0000
# 6 0.0000 0.0000 0.0000 0.0000 0.0000 10.9332
#
#
#
# Elastic Compliance Matrix: (Units=1/GPa)
#
#
# Indices 1 2 3 4 5 6 
#
# 1 0.002828 -0.001095 -0.000327 0.000000 0.000000 0.000000
# 2 -0.001095 0.015328 0.000383 0.000000 0.000000 0.000000
# 3 -0.000327 0.000383 0.008462 0.000000 0.000000 0.000000
# 4 0.000000 0.000000 0.000000 -0.050928 0.000000 0.000000
# 5 0.000000 0.000000 0.000000 0.000000 0.062212 0.000000
# 6 0.000000 0.000000 0.000000 0.000000 0.000000 0.091465
#
#
# Mechanical properties :
#
#
# Convention : Reuss Voigt Hill
#
# Bulk Modulus (GPa) = 40.74915 69.36256 55.05586
# Shear Modulus (GPa) = 35.81025 35.76275 35.78650
#
# Velocity S-wave (km/s) = 3.59055 3.58816 3.58935
# Velocity P-wave (km/s) = 5.64442 6.49136 6.08264
#
# Compressibility (1/GPa) = 0.02454039
#
# Stress axis : x y z
#
# Youngs Moduli (GPa) = 353.60327 65.24132 118.17339
#
# Poissons Ratio (x) = 0.07145 0.03861
# Poissons Ratio (y) = 0.38727 -0.04528
# Poissons Ratio (z) = 0.11552 -0.02500
#
# Static dielectric constant tensor:
#      x y z
#    x 2.270090 0.000000 0.000000 
#    y 0.000000 2.171910 0.000000 
#    z 0.000000 0.000000 2.154730 
# 
# From -- ./inp_files/13905.got.cif
#   From: 2010.05.17/outbox.cif.g08.bks.cpg/sg74_7_cif.got.tgz:13905.got - 2010.06.03 17:57:02.
