data_PCOD9540636
_publ_section_title
;
Structure prediction by ZEFSAII (Michael W. Deem and Ramdas Pophale) SiO2 
 PCOD9540636
Probable space group: I M M A
;
_chemical_formula_sum "Si O2"
_cell_formula_units_Z 112
_cell_length_a 31.212784
_cell_length_b 14.057299
_cell_length_c 13.665207
_cell_angle_alpha 90.000000
_cell_angle_beta 90.000000
_cell_angle_gamma 90.000000
_cell_volume 5995.847856
_symmetry_space_group_name_H-M "I M M A"
_symmetry_group_IT_number 74
_symmetry_cell_setting 'orthorhombic'
loop_
_space_group_symop_operation_xyz
x,y,z
-x,1/2-y,z
x,-y,-z
-x,1/2+y,-z
-x,-y,-z
x,1/2+y,-z
-x,y,z
x,1/2-y,z
1/2+x,1/2+y,1/2+z
1/2-x,-y,1/2+z
1/2+x,1/2-y,1/2-z
1/2-x,y,1/2-z
1/2-x,1/2-y,1/2-z
1/2+x,y,1/2-z
1/2-x,1/2+y,1/2+z
1/2+x,-y,1/2+z
loop_
_atom_site_type_symbol
_atom_site_label
_atom_site_fract_x
_atom_site_fract_y
_atom_site_fract_z
Si Si1 0.763272 0.635071 0.094002
Si Si2 0.317534 0.136032 0.180046
Si Si3 0.610299 0.505243 0.160986
Si Si4 0.049687 0.859518 0.463055
Si Si5 0.780690 0.364131 0.118263
Si Si6 0.315823 0.863821 0.212165
Si Si7 0.549658 0.643828 0.799770
O O1 0.761747 0.750000 0.089611
O O2 0.714612 0.606254 0.120687
O O3 0.790795 0.610551 0.188874
O O4 0.784268 0.602950 0.993112
O O5 0.325560 0.250000 0.170633
O O6 0.354376 0.074416 0.128363
O O7 0.269302 0.117387 0.142975
O O8 0.312703 0.106533 0.294899
O O9 0.581192 0.564486 0.085193
O O10 0.639347 0.584938 0.210007
O O11 0.579262 0.443354 0.230431
O O12 0.059018 0.750000 0.432944
O O13 0.051950 0.860136 0.581190
O O14 0.000000 0.881332 0.437316
O O15 0.784650 0.250000 0.119924
O O16 0.320049 0.750000 0.208705
O O17 0.500000 0.633185 0.772696
O O18 0.564112 0.750000 0.770116
#
# Coordination Sequence:
#
# PCOD9540636 Si02
#       7
#    16  16  16  16  16  16  16
#     4   8  15  31  50  63  88 133 171 200 239 281
#     4   9  19  32  45  68  97 124 164 208 238 277
#     4  12  20  28  45  70  98 125 150 191 243 278
#     4   9  19  35  51  67  91 125 161 191 225 281
#     4   8  15  31  50  63  88 133 171 200 239 281
#     4   9  19  32  45  68  97 124 164 208 238 277
#     4   9  19  35  51  67  91 125 161 191 225 281
#
# _framework density 18.679594000000002
#
# number of rings (size 3 to 8) (size 9 to 14) (size 15 to 20)
#    0.000    2.857    0.000    4.286    0.000    5.714 
#    0.000    5.000    0.000    0.000    0.000    0.000 
#    0.000    9.143    0.000   42.286    0.000    0.000 
#
# Total GULP energy -312087.614651 kJ/mol
# GULP energy per Si atom -5572.993119 kJ/mol
# Density = 1.863708 g / cm^3
# Si number density = 18.679594 Si / 1000 Ang^3
#
#
#
# Elastic Constant Matrix: (Units=GPa)
#
#
# Indices 1 2 3 4 5 6 
#
# 1 87.0313 44.2470 14.0869 0.0000 0.0000 0.0000
# 2 44.2470 116.7175 9.4236 0.0000 0.0000 0.0000
# 3 14.0869 9.4236 47.4634 0.0000 0.0000 0.0000
# 4 0.0000 0.0000 0.0000 -0.7460 0.0000 0.0000
# 5 0.0000 0.0000 0.0000 0.0000 9.5365 0.0000
# 6 0.0000 0.0000 0.0000 0.0000 0.0000 15.5948
#
#
#
# Elastic Compliance Matrix: (Units=1/GPa)
#
#
# Indices 1 2 3 4 5 6 
#
# 1 0.014730 -0.005316 -0.003316 0.000000 0.000000 0.000000
# 2 -0.005316 0.010626 -0.000532 0.000000 0.000000 0.000000
# 3 -0.003316 -0.000532 0.022159 0.000000 0.000000 0.000000
# 4 0.000000 0.000000 0.000000 -1.340552 0.000000 0.000000
# 5 0.000000 0.000000 0.000000 0.000000 0.104860 0.000000
# 6 0.000000 0.000000 0.000000 0.000000 0.000000 0.064124
#
#
# Mechanical properties :
#
#
# Convention : Reuss Voigt Hill
#
# Bulk Modulus (GPa) = 34.26328 42.96968 38.61648
# Shear Modulus (GPa) = -4.56206 17.10738 6.27266
#
# Velocity S-wave (km/s) = -1.56447 3.02956 1.83448
# Velocity P-wave (km/s) = 3.88832 5.94063 5.02046
#
# Compressibility (1/GPa) = 0.02918576
#
# Stress axis : x y z
#
# Youngs Moduli (GPa) = 67.89037 94.10900 45.12901
#
# Poissons Ratio (x) = 0.50030 0.14966
# Poissons Ratio (y) = 0.36092 0.02401
# Poissons Ratio (z) = 0.22514 0.05006
#
# Static dielectric constant tensor:
#      x y z
#    x 2.003930 0.000000 0.000000 
#    y 0.000000 1.729640 0.000000 
#    z 0.000000 0.000000 1.669830 
# 
# From -- ./inp_files/37943.got.cif
#   From: 2010.05.17/outbox.cif.g08.bks.cpg/sg74_19_cif.got.tgz:37943.got - 2010.06.03 17:57:02.
