data_PCOD9540431
_publ_section_title
;
Structure prediction by ZEFSAII (Michael W. Deem and Ramdas Pophale) SiO2 
 PCOD9540431
Probable space group: I M M A
;
_chemical_formula_sum "Si O2"
_cell_formula_units_Z 88
_cell_length_a 22.523304
_cell_length_b 8.428766
_cell_length_c 23.419404
_cell_angle_alpha 90.000000
_cell_angle_beta 90.000000
_cell_angle_gamma 90.000000
_cell_volume 4446.025346
_symmetry_space_group_name_H-M "I M M A"
_symmetry_group_IT_number 74
_symmetry_cell_setting 'orthorhombic'
loop_
_space_group_symop_operation_xyz
x,y,z
-x,1/2-y,z
x,-y,-z
-x,1/2+y,-z
-x,-y,-z
x,1/2+y,-z
-x,y,z
x,1/2-y,z
1/2+x,1/2+y,1/2+z
1/2-x,-y,1/2+z
1/2+x,1/2-y,1/2-z
1/2-x,y,1/2-z
1/2-x,1/2-y,1/2-z
1/2+x,y,1/2-z
1/2-x,1/2+y,1/2+z
1/2+x,-y,1/2+z
loop_
_atom_site_type_symbol
_atom_site_label
_atom_site_fract_x
_atom_site_fract_y
_atom_site_fract_z
Si Si1 0.433188 0.559968 0.559244
Si Si2 0.000000 0.940138 0.433994
Si Si3 0.257268 0.561941 0.062404
Si Si4 0.838268 0.439852 0.151582
Si Si5 0.684430 0.936781 0.230450
Si Si6 0.125301 0.939089 0.614601
O O1 0.407275 0.500000 0.500000
O O2 0.500000 0.497093 0.564300
O O3 0.435346 0.750000 0.557287
O O4 0.392365 0.515060 0.611010
O O5 0.000000 0.750000 0.434592
O O6 0.000000 0.000000 0.500000
O O7 0.940272 0.999343 0.401688
O O8 0.249910 0.750000 0.064687
O O9 0.219826 0.487187 0.114751
O O10 0.325698 0.515289 0.072722
O O11 0.238662 0.500000 0.000000
O O12 0.836905 0.250000 0.161463
O O13 0.848136 0.531479 0.210253
O O14 0.690726 0.750000 0.216963
O O15 0.750000 0.998848 0.250000
O O16 0.650123 0.016027 0.177803
O O17 0.126192 0.750000 0.608474
#
# Coordination Sequence:
#
# PCOD9540431 Si02
#       6
#    16   8  16  16  16  16
#     4   9  19  36  57  83 117 156 198 247 302 363
#     4  12  26  48  74 102 138 176 221 272 331 396
#     4  12  24  39  60  91 127 163 205 259 320 383
#     4  11  22  37  60  89 121 161 208 260 316 380
#     4  11  23  41  65  92 126 166 208 259 318 379
#     4  12  25  44  69  97 129 169 217 266 325 387
#
# _framework density 19.792960999999998
#
# number of rings (size 3 to 8) (size 9 to 14) (size 15 to 20)
#    0.000    0.909    1.818    6.273    0.000    3.636 
#    1.636    0.000    0.000    0.000    0.000    0.000 
#    0.000    0.000    0.000    0.000    0.000    0.000 
#
# Total GULP energy -245850.135480 kJ/mol
# GULP energy per Si atom -5587.503079 kJ/mol
# Density = 1.974791 g / cm^3
# Si number density = 19.792961 Si / 1000 Ang^3
#
#
#
# Elastic Constant Matrix: (Units=GPa)
#
#
# Indices 1 2 3 4 5 6 
#
# 1 96.7408 6.0452 38.1700 0.0000 0.0000 0.0000
# 2 6.0452 46.7152 6.3206 0.0000 0.0000 0.0000
# 3 38.1700 6.3206 118.4193 0.0000 0.0000 0.0000
# 4 0.0000 0.0000 0.0000 35.3837 0.0000 0.0000
# 5 0.0000 0.0000 0.0000 0.0000 -17.2130 0.0000
# 6 0.0000 0.0000 0.0000 0.0000 0.0000 42.4714
#
#
#
# Elastic Compliance Matrix: (Units=1/GPa)
#
#
# Indices 1 2 3 4 5 6 
#
# 1 0.011892 -0.001028 -0.003778 0.000000 0.000000 0.000000
# 2 -0.001028 0.021651 -0.000824 0.000000 0.000000 0.000000
# 3 -0.003778 -0.000824 0.009706 0.000000 0.000000 0.000000
# 4 0.000000 0.000000 0.000000 0.028262 0.000000 0.000000
# 5 0.000000 0.000000 0.000000 0.000000 -0.058096 0.000000
# 6 0.000000 0.000000 0.000000 0.000000 0.000000 0.023545
#
#
# Mechanical properties :
#
#
# Convention : Reuss Voigt Hill
#
# Bulk Modulus (GPa) = 31.26118 40.32744 35.79431
# Shear Modulus (GPa) = 84.91291 26.21771 55.56531
#
# Velocity S-wave (km/s) = 6.55696 3.64345 5.30417
# Velocity P-wave (km/s) = 8.55297 6.17402 7.45895
#
# Compressibility (1/GPa) = 0.03198855
#
# Stress axis : x y z
#
# Youngs Moduli (GPa) = 84.09115 46.18760 103.02472
#
# Poissons Ratio (x) = 0.04747 0.38925
# Poissons Ratio (y) = 0.08642 0.08493
# Poissons Ratio (z) = 0.31772 0.03808
#
# Static dielectric constant tensor:
#      x y z
#    x 1.741940 0.000000 0.000000 
#    y 0.000000 1.673420 0.000000 
#    z 0.000000 0.000000 1.702000 
# 
# From -- ./inp_files/54499.got.cif
#   From: 2010.05.17/outbox.cif.g08.bks.cpg/sg74_28_cif.got.tgz:54499.got - 2010.06.03 17:57:02.
