data_PCOD9540369
_publ_section_title
;
Structure prediction by ZEFSAII (Michael W. Deem and Ramdas Pophale) SiO2 
 PCOD9540369
Probable space group: I M M A
;
_chemical_formula_sum "Si O2"
_cell_formula_units_Z 72
_cell_length_a 8.575589
_cell_length_b 23.264013
_cell_length_c 19.443937
_cell_angle_alpha 90.000000
_cell_angle_beta 90.000000
_cell_angle_gamma 90.000000
_cell_volume 3879.116258
_symmetry_space_group_name_H-M "I M M A"
_symmetry_group_IT_number 74
_symmetry_cell_setting 'orthorhombic'
loop_
_space_group_symop_operation_xyz
x,y,z
-x,1/2-y,z
x,-y,-z
-x,1/2+y,-z
-x,-y,-z
x,1/2+y,-z
-x,y,z
x,1/2-y,z
1/2+x,1/2+y,1/2+z
1/2-x,-y,1/2+z
1/2+x,1/2-y,1/2-z
1/2-x,y,1/2-z
1/2-x,1/2-y,1/2-z
1/2+x,y,1/2-z
1/2-x,1/2+y,1/2+z
1/2+x,-y,1/2+z
loop_
_atom_site_type_symbol
_atom_site_label
_atom_site_fract_x
_atom_site_fract_y
_atom_site_fract_z
Si Si1 0.687005 0.683385 0.928280
Si Si2 0.310208 0.017902 0.576740
Si Si3 0.687499 0.586980 0.672860
Si Si4 0.687461 0.648671 0.421813
Si Si5 0.814310 0.750000 0.327073
O O1 0.500000 0.678561 0.931785
O O2 0.726927 0.750000 0.915022
O O3 0.751624 0.641408 0.869979
O O4 0.757509 0.665136 0.001661
O O5 0.500000 0.017482 0.575742
O O6 0.262151 0.083044 0.592532
O O7 0.258645 0.000000 0.500000
O O8 0.260492 0.970305 0.631699
O O9 0.500000 0.588049 0.673382
O O10 0.750000 0.587128 0.750000
O O11 0.500000 0.651329 0.419521
O O12 0.755448 0.694225 0.368451
O O13 0.750000 0.750000 0.250000
O O14 0.000000 0.750000 0.326031
#
# Coordination Sequence:
#
# PCOD9540369 Si02
#       5
#    16  16  16  16   8
#     4  11  23  39  61  91 125 160 206 256 301 362
#     4   9  18  36  62  92 121 157 203 251 298 364
#     4  11  23  41  63  89 125 161 202 254 313 369
#     4  11  21  38  66  94 123 162 206 250 307 366
#     4  12  26  44  62  90 129 164 207 258 310 364
#
# _framework density 18.560929000000002
#
# number of rings (size 3 to 8) (size 9 to 14) (size 15 to 20)
#    0.000    1.333    3.333    3.000    0.000    2.667 
#    0.000    7.778    0.000    0.000    0.000    0.000 
#    0.000    0.000    0.000    0.000    0.000    0.000 
#
# Total GULP energy -201232.566578 kJ/mol
# GULP energy per Si atom -5589.793516 kJ/mol
# Density = 1.851868 g / cm^3
# Si number density = 18.560929 Si / 1000 Ang^3
#
#
#
# Elastic Constant Matrix: (Units=GPa)
#
#
# Indices 1 2 3 4 5 6 
#
# 1 72.6202 63.6466 50.7563 0.0000 0.0000 0.0000
# 2 63.6466 213.6057 113.6811 0.0000 0.0000 0.0000
# 3 50.7563 113.6811 187.2980 0.0000 0.0000 0.0000
# 4 0.0000 0.0000 0.0000 35.8257 0.0000 0.0000
# 5 0.0000 0.0000 0.0000 0.0000 35.4526 0.0000
# 6 0.0000 0.0000 0.0000 0.0000 0.0000 -24.5108
#
#
#
# Elastic Compliance Matrix: (Units=1/GPa)
#
#
# Indices 1 2 3 4 5 6 
#
# 1 0.019452 -0.004418 -0.002590 0.000000 0.000000 0.000000
# 2 -0.004418 0.007919 -0.003609 0.000000 0.000000 0.000000
# 3 -0.002590 -0.003609 0.008232 0.000000 0.000000 0.000000
# 4 0.000000 0.000000 0.000000 0.027913 0.000000 0.000000
# 5 0.000000 0.000000 0.000000 0.000000 0.028207 0.000000
# 6 0.000000 0.000000 0.000000 0.000000 0.000000 -0.040798
#
#
# Mechanical properties :
#
#
# Convention : Reuss Voigt Hill
#
# Bulk Modulus (GPa) = 69.59529 103.29910 86.44719
# Shear Modulus (GPa) = 64.97992 25.71616 45.34804
#
# Velocity S-wave (km/s) = 5.92326 3.72627 4.94823
# Velocity P-wave (km/s) = 9.18460 8.61907 8.90633
#
# Compressibility (1/GPa) = 0.01436879
#
# Stress axis : x y z
#
# Youngs Moduli (GPa) = 51.40771 126.28593 121.48423
#
# Poissons Ratio (x) = 0.55788 0.31466
# Poissons Ratio (y) = 0.22710 0.43844
# Poissons Ratio (z) = 0.13315 0.45577
#
# Static dielectric constant tensor:
#      x y z
#    x 1.629650 0.000000 0.000000 
#    y 0.000000 1.638820 0.000000 
#    z 0.000000 0.000000 1.589730 
# 
# From -- ./inp_files/39458.got.cif
#   From: 2010.05.17/outbox.cif.g08.bks.cpg/sg74_20_cif.got.tgz:39458.got - 2010.06.03 17:57:02.
