data_PCOD9540041
_publ_section_title
;
Structure prediction by ZEFSAII (Michael W. Deem and Ramdas Pophale) SiO2 
 PCOD9540041
Probable space group: I M M A
;
_chemical_formula_sum "Si O2"
_cell_formula_units_Z 36
_cell_length_a 21.153311
_cell_length_b 5.379827
_cell_length_c 13.874419
_cell_angle_alpha 90.000000
_cell_angle_beta 90.000000
_cell_angle_gamma 90.000000
_cell_volume 1578.924889
_symmetry_space_group_name_H-M "I M M A"
_symmetry_group_IT_number 74
_symmetry_cell_setting 'orthorhombic'
loop_
_space_group_symop_operation_xyz
x,y,z
-x,1/2-y,z
x,-y,-z
-x,1/2+y,-z
-x,-y,-z
x,1/2+y,-z
-x,y,z
x,1/2-y,z
1/2+x,1/2+y,1/2+z
1/2-x,-y,1/2+z
1/2+x,1/2-y,1/2-z
1/2-x,y,1/2-z
1/2-x,1/2-y,1/2-z
1/2+x,y,1/2-z
1/2-x,1/2+y,1/2+z
1/2+x,-y,1/2+z
loop_
_atom_site_type_symbol
_atom_site_label
_atom_site_fract_x
_atom_site_fract_y
_atom_site_fract_z
Si Si1 0.242653 0.750000 0.622341
Si Si2 0.605671 0.750000 0.779610
Si Si3 0.296008 0.750000 0.408627
Si Si4 0.425896 0.250000 0.657072
Si Si5 0.500000 0.750000 0.938948
O O1 0.174430 0.750000 0.669781
O O2 0.253307 0.750000 0.505460
O O3 0.278299 0.497214 0.648123
O O4 0.588781 0.500312 0.718858
O O5 0.559842 0.750000 0.870458
O O6 0.371439 0.750000 0.425672
O O7 0.500000 0.250000 0.628651
O O8 0.500000 0.500000 0.000000
#
# Coordination Sequence:
#
# PCOD9540041 Si02
#       5
#     8   8   8   8   4
#     4  10  23  42  64  96 128 174 220 269 323 387
#     4  12  25  43  68  97 136 171 220 271 324 397
#     4  10  23  42  66  95 135 169 221 270 326 391
#     4  12  24  45  67  99 134 174 216 272 334 387
#     4  12  26  40  66  98 132 180 218 264 322 392
#
# _framework density 22.800325000000001
#
# number of rings (size 3 to 8) (size 9 to 14) (size 15 to 20)
#    0.000    0.889    2.222    4.000    6.222    5.333 
#    0.000    4.444    0.000    0.000    0.000    0.000 
#    0.000    0.000    0.000    0.000    0.000    0.000 
#
# Total GULP energy -100491.209907 kJ/mol
# GULP energy per Si atom -5582.844995 kJ/mol
# Density = 2.274843 g / cm^3
# Si number density = 22.800325 Si / 1000 Ang^3
#
#
#
# Elastic Constant Matrix: (Units=GPa)
#
#
# Indices 1 2 3 4 5 6 
#
# 1 185.4440 31.3830 4.3919 0.0000 0.0000 0.0000
# 2 31.3830 216.9003 7.8297 0.0000 0.0000 0.0000
# 3 4.3919 7.8297 68.2631 0.0000 0.0000 0.0000
# 4 0.0000 0.0000 0.0000 -11.8205 0.0000 0.0000
# 5 0.0000 0.0000 0.0000 0.0000 -65.8755 0.0000
# 6 0.0000 0.0000 0.0000 0.0000 0.0000 35.9306
#
#
#
# Elastic Compliance Matrix: (Units=1/GPa)
#
#
# Indices 1 2 3 4 5 6 
#
# 1 0.005533 -0.000791 -0.000265 0.000000 0.000000 0.000000
# 2 -0.000791 0.004743 -0.000493 0.000000 0.000000 0.000000
# 3 -0.000265 -0.000493 0.014723 0.000000 0.000000 0.000000
# 4 0.000000 0.000000 0.000000 -0.084599 0.000000 0.000000
# 5 0.000000 0.000000 0.000000 0.000000 -0.015180 0.000000
# 6 0.000000 0.000000 0.000000 0.000000 0.000000 0.027831
#
#
# Mechanical properties :
#
#
# Convention : Reuss Voigt Hill
#
# Bulk Modulus (GPa) = 45.66305 61.97964 53.82135
# Shear Modulus (GPa) = -136.79589 20.11375 -58.34107
#
# Velocity S-wave (km/s) = -7.75420 2.97336 -5.06393
# Velocity P-wave (km/s) = 7.75237 6.24744 3.24567
#
# Compressibility (1/GPa) = 0.02189955
#
# Stress axis : x y z
#
# Youngs Moduli (GPa) = 180.74695 210.85250 67.92178
#
# Poissons Ratio (x) = 0.16677 0.01802
# Poissons Ratio (y) = 0.14296 0.03349
# Poissons Ratio (z) = 0.04794 0.10397
#
# Static dielectric constant tensor:
#      x y z
#    x 1.884860 0.000000 0.000000 
#    y 0.000000 1.810270 0.000000 
#    z 0.000000 0.000000 1.936390 
# 
# From -- ./inp_files/43364.got.cif
#   From: 2010.05.17/outbox.cif.g08.bks.cpg/sg74_22_cif.got.tgz:43364.got - 2010.06.03 17:57:02.
