data_PCOD9540693
_publ_section_title
;
Structure prediction by ZEFSAII (Michael W. Deem and Ramdas Pophale) SiO2 
 PCOD9540693
Probable space group: I M M A
;
_chemical_formula_sum "Si O2"
_cell_formula_units_Z 64
_cell_length_a 14.374617
_cell_length_b 22.898880
_cell_length_c 6.991009
_cell_angle_alpha 90.000000
_cell_angle_beta 90.000000
_cell_angle_gamma 90.000000
_cell_volume 2301.178907
_symmetry_space_group_name_H-M "I M M A"
_symmetry_group_IT_number 74
_symmetry_cell_setting 'orthorhombic'
loop_
_space_group_symop_operation_xyz
x,y,z
-x,1/2-y,z
x,-y,-z
-x,1/2+y,-z
-x,-y,-z
x,1/2+y,-z
-x,y,z
x,1/2-y,z
1/2+x,1/2+y,1/2+z
1/2-x,-y,1/2+z
1/2+x,1/2-y,1/2-z
1/2-x,y,1/2-z
1/2-x,1/2-y,1/2-z
1/2+x,y,1/2-z
1/2-x,1/2+y,1/2+z
1/2+x,-y,1/2+z
loop_
_atom_site_type_symbol
_atom_site_label
_atom_site_fract_x
_atom_site_fract_y
_atom_site_fract_z
Si Si1 0.640973 0.250000 0.699116
Si Si2 0.611820 0.750000 0.758073
Si Si3 0.890675 0.003237 0.212584
Si Si4 0.641705 0.874780 0.300271
Si Si5 0.609419 0.374937 0.240468
O O1 0.750000 0.250000 0.750000
O O2 0.628198 0.250000 0.470228
O O3 0.602189 0.187668 0.766770
O O4 0.500000 0.750000 0.786298
O O5 0.650630 0.687260 0.827415
O O6 0.889937 0.936826 0.282871
O O7 0.000000 0.016998 0.191470
O O8 0.852283 0.061074 0.316087
O O9 0.847276 0.000000 0.000000
O O10 0.750000 0.873354 0.250000
O O11 0.620079 0.876059 0.527655
O O12 0.500000 0.371801 0.192714
#
# Coordination Sequence:
#
# PCOD9540693 Si02
#       5
#     8   8  16  16  16
#     4   8  14  20  24  34  56  81  98 115 138 165
#     4   8  12  18  30  46  59  75  98 117 138 171
#     4   8  13  21  31  42  58  78  97 119 146 172
#     4   9  14  19  27  40  58  79 101 120 140 169
#     4   8  13  21  32  45  62  80  97 119 145 173
#
# _framework density 27.811831999999999
#
# number of rings (size 3 to 8) (size 9 to 14) (size 15 to 20)
#    0.000    3.750    0.000    2.250    0.000    1.000 
#    0.000    0.000    0.000    0.000    0.000    0.875 
#    0.000   36.000    0.000    2.500    0.000   19.500 
#
# Total GULP energy -178456.802504 kJ/mol
# GULP energy per Si atom -5576.775078 kJ/mol
# Density = 2.774853 g / cm^3
# Si number density = 27.811832 Si / 1000 Ang^3
#
#
#
# Elastic Constant Matrix: (Units=GPa)
#
#
# Indices 1 2 3 4 5 6 
#
# 1 111.9199 -0.0251 -24.8347 0.0001 -0.0006 -0.0001
# 2 -0.0251 424.7116 3.5530 0.0002 -0.0005 0.0000
# 3 -24.8347 3.5530 142.7424 0.0002 -0.0005 -0.0005
# 4 0.0001 0.0002 0.0002 -53.0113 -0.0001 0.0000
# 5 -0.0006 -0.0005 -0.0005 -0.0001 -10.8252 -0.0001
# 6 -0.0001 0.0000 -0.0005 0.0000 -0.0001 12.1123
#
#
#
# Elastic Compliance Matrix: (Units=1/GPa)
#
#
# Indices 1 2 3 4 5 6 
#
# 1 0.009294 -0.000013 0.001617 0.000000 -0.000001 0.000000
# 2 -0.000013 0.002355 -0.000061 0.000000 0.000000 0.000000
# 3 0.001617 -0.000061 0.007289 0.000000 0.000000 0.000000
# 4 0.000000 0.000000 0.000000 -0.018864 0.000000 0.000000
# 5 -0.000001 0.000000 0.000000 0.000000 -0.092377 -0.000001
# 6 0.000000 0.000000 0.000000 0.000000 -0.000001 0.082561
#
#
# Mechanical properties :
#
#
# Convention : Reuss Voigt Hill
#
# Bulk Modulus (GPa) = 45.40445 70.75113 58.07779
# Shear Modulus (GPa) = -910.97630 36.36721 -437.30454
#
# Velocity S-wave (km/s) = -18.11797 3.62002 -12.55302
# Velocity P-wave (km/s) = 20.52609 6.55494 13.75415
#
# Compressibility (1/GPa) = 0.02202427
#
# Stress axis : x y z
#
# Youngs Moduli (GPa) = 107.59822 424.61987 137.20196
#
# Poissons Ratio (x) = 0.00551 -0.22190
# Poissons Ratio (y) = 0.00140 0.00835
# Poissons Ratio (z) = -0.17402 0.02585
#
# Static dielectric constant tensor:
#      x y z
#    x 3.629230 0.000000 0.000000 
#    y 0.000000 2.290690 0.000000 
#    z 0.000000 0.000000 2.066340 
# 
# From -- ./inp_files/8892.got.cif
#   From: 2010.05.17/outbox.cif.g08.bks.cpg/sg74_5_cif.got.tgz:8892.got - 2010.06.03 17:57:02.
