data_PCOD9540659
_publ_section_title
;
Structure prediction by ZEFSAII (Michael W. Deem and Ramdas Pophale) SiO2 
 PCOD9540659
Probable space group: I M M A
;
_chemical_formula_sum "Si O2"
_cell_formula_units_Z 80
_cell_length_a 8.606024
_cell_length_b 25.391403
_cell_length_c 24.164562
_cell_angle_alpha 90.000000
_cell_angle_beta 90.000000
_cell_angle_gamma 90.000000
_cell_volume 5280.416494
_symmetry_space_group_name_H-M "I M M A"
_symmetry_group_IT_number 74
_symmetry_cell_setting 'orthorhombic'
loop_
_space_group_symop_operation_xyz
x,y,z
-x,1/2-y,z
x,-y,-z
-x,1/2+y,-z
-x,-y,-z
x,1/2+y,-z
-x,y,z
x,1/2-y,z
1/2+x,1/2+y,1/2+z
1/2-x,-y,1/2+z
1/2+x,1/2-y,1/2-z
1/2-x,y,1/2-z
1/2-x,1/2-y,1/2-z
1/2+x,y,1/2-z
1/2-x,1/2+y,1/2+z
1/2+x,-y,1/2+z
loop_
_atom_site_type_symbol
_atom_site_label
_atom_site_fract_x
_atom_site_fract_y
_atom_site_fract_z
Si Si1 0.189134 0.308131 0.508417
Si Si2 0.187683 0.980224 0.411820
Si Si3 0.184038 0.415100 0.810071
Si Si4 0.312728 0.190672 0.861344
Si Si5 0.188840 0.580651 0.525062
O O1 0.242981 0.250000 0.490736
O O2 0.227756 0.315014 0.573476
O O3 0.244031 0.359151 0.474854
O O4 0.000000 0.307756 0.506072
O O5 0.256738 0.954987 0.357120
O O6 0.228584 0.944633 0.465408
O O7 0.000000 0.979336 0.407486
O O8 0.238918 0.039435 0.427962
O O9 0.250000 0.428509 0.750000
O O10 0.240171 0.356623 0.827231
O O11 0.000000 0.415849 0.808374
O O12 0.500000 0.186907 0.857653
O O13 0.267390 0.250000 0.844002
O O14 0.000000 0.581246 0.527138
#
# Coordination Sequence:
#
# PCOD9540659 Si02
#       5
#    16  16  16  16  16
#     4   8  12  20  40  69  94 115 144 179 213 253
#     4   9  16  29  47  66  88 115 150 184 219 266
#     4  12  24  35  47  62  85 117 152 194 232 268
#     4   9  17  31  50  67  86 115 152 191 224 258
#     4   8  13  23  45  69  90 117 145 179 220 264
#
# _framework density 15.150320000000001
#
# number of rings (size 3 to 8) (size 9 to 14) (size 15 to 20)
#    0.000    2.800    2.000    4.200    0.000    0.800 
#    0.000    2.000    0.000    0.000    0.000    0.000 
#    0.000    0.800    0.000    1.400    0.000    2.000 
#
# Total GULP energy -222816.056007 kJ/mol
# GULP energy per Si atom -5570.401400 kJ/mol
# Density = 1.511584 g / cm^3
# Si number density = 15.150320 Si / 1000 Ang^3
#
#
#
# Elastic Constant Matrix: (Units=GPa)
#
#
# Indices 1 2 3 4 5 6 
#
# 1 28.7609 28.7623 29.0047 0.0000 0.0000 0.0000
# 2 28.7623 136.5288 72.3060 0.0000 0.0000 0.0000
# 3 29.0047 72.3060 87.1946 0.0000 0.0000 0.0000
# 4 0.0000 0.0000 0.0000 17.7518 0.0000 0.0000
# 5 0.0000 0.0000 0.0000 0.0000 17.0306 0.0000
# 6 0.0000 0.0000 0.0000 0.0000 0.0000 12.6119
#
#
#
# Elastic Compliance Matrix: (Units=1/GPa)
#
#
# Indices 1 2 3 4 5 6 
#
# 1 0.053127 -0.003268 -0.014962 0.000000 0.000000 0.000000
# 2 -0.003268 0.013261 -0.009910 0.000000 0.000000 0.000000
# 3 -0.014962 -0.009910 0.024663 0.000000 0.000000 0.000000
# 4 0.000000 0.000000 0.000000 0.056332 0.000000 0.000000
# 5 0.000000 0.000000 0.000000 0.000000 0.058718 0.000000
# 6 0.000000 0.000000 0.000000 0.000000 0.000000 0.079290
#
#
# Mechanical properties :
#
#
# Convention : Reuss Voigt Hill
#
# Bulk Modulus (GPa) = 28.75948 56.95893 42.85921
# Shear Modulus (GPa) = 14.15382 17.63962 15.89672
#
# Velocity S-wave (km/s) = 3.05983 3.41590 3.24275
# Velocity P-wave (km/s) = 5.61314 7.29625 6.50933
#
# Compressibility (1/GPa) = 0.03477114
#
# Stress axis : x y z
#
# Youngs Moduli (GPa) = 18.82297 75.40842 40.54618
#
# Poissons Ratio (x) = 0.24644 0.60666
# Poissons Ratio (y) = 0.06151 0.40180
# Poissons Ratio (z) = 0.28163 0.74727
#
# Static dielectric constant tensor:
#      x y z
#    x 1.508820 0.000000 0.000000 
#    y 0.000000 1.544040 0.000000 
#    z 0.000000 0.000000 1.473310 
# 
# From -- ./inp_files/39757.got.cif
#   From: 2010.05.17/outbox.cif.g08.bks.cpg/sg74_20_cif.got.tgz:39757.got - 2010.06.03 17:57:02.
