data_PCOD9540020
_publ_section_title
;
Structure prediction by ZEFSAII (Michael W. Deem and Ramdas Pophale) SiO2 
 PCOD9540020
Probable space group: I M M A
;
_chemical_formula_sum "Si O2"
_cell_formula_units_Z 68
_cell_length_a 22.447949
_cell_length_b 16.489914
_cell_length_c 9.653369
_cell_angle_alpha 90.000000
_cell_angle_beta 90.000000
_cell_angle_gamma 90.000000
_cell_volume 3573.336908
_symmetry_space_group_name_H-M "I M M A"
_symmetry_group_IT_number 74
_symmetry_cell_setting 'orthorhombic'
loop_
_space_group_symop_operation_xyz
x,y,z
-x,1/2-y,z
x,-y,-z
-x,1/2+y,-z
-x,-y,-z
x,1/2+y,-z
-x,y,z
x,1/2-y,z
1/2+x,1/2+y,1/2+z
1/2-x,-y,1/2+z
1/2+x,1/2-y,1/2-z
1/2-x,y,1/2-z
1/2-x,1/2-y,1/2-z
1/2+x,y,1/2-z
1/2-x,1/2+y,1/2+z
1/2+x,-y,1/2+z
loop_
_atom_site_type_symbol
_atom_site_label
_atom_site_fract_x
_atom_site_fract_y
_atom_site_fract_z
Si Si1 0.133833 0.079662 0.580205
Si Si2 0.000000 0.250000 0.247008
Si Si3 0.000000 0.159105 0.976155
Si Si4 0.432236 0.250000 0.983224
Si Si5 0.753357 0.159772 0.917867
Si Si6 0.124738 0.921341 0.093240
O O1 0.099842 0.165856 0.557748
O O2 0.202090 0.098291 0.535359
O O3 0.132104 0.061721 0.743765
O O4 0.110888 0.000000 0.500000
O O5 0.944037 0.250000 0.350690
O O6 0.000000 0.174035 0.142574
O O7 0.940044 0.115971 0.930978
O O8 0.000000 0.250000 0.917072
O O9 0.500000 0.250000 0.925254
O O10 0.739110 0.250000 0.968548
O O11 0.750000 0.161153 0.750000
O O12 0.820834 0.136627 0.951091
O O13 0.129990 0.000000 0.000000
#
# Coordination Sequence:
#
# PCOD9540020 Si02
#       6
#    16   4   8   8  16  16
#     4  11  24  40  69  95 130 170 217 265 320 382
#     4   8  24  42  64  86 136 162 210 274 310 384
#     4  10  23  40  64  86 126 169 209 258 324 378
#     4  10  24  43  64  92 131 166 212 261 323 381
#     4   9  18  38  63  92 126 167 211 263 319 379
#     4  11  24  38  63  94 132 164 217 263 321 381
#
# _framework density 19.029833
#
# number of rings (size 3 to 8) (size 9 to 14) (size 15 to 20)
#    0.706    1.176    1.176    1.765    8.235    0.471 
#    0.000    0.000    0.000    2.824    0.000    0.000 
#    0.000    0.000    0.000    0.000    0.000    0.000 
#
# Total GULP energy -189492.431111 kJ/mol
# GULP energy per Si atom -5573.306797 kJ/mol
# Density = 1.898652 g / cm^3
# Si number density = 19.029833 Si / 1000 Ang^3
#
#
#
# Elastic Constant Matrix: (Units=GPa)
#
#
# Indices 1 2 3 4 5 6 
#
# 1 123.1906 44.4582 18.2976 0.0000 0.0000 0.0000
# 2 44.4582 133.4496 40.0511 0.0000 0.0000 0.0000
# 3 18.2976 40.0511 78.9627 0.0000 0.0000 0.0000
# 4 0.0000 0.0000 0.0000 31.7616 0.0000 0.0000
# 5 0.0000 0.0000 0.0000 0.0000 -373.5056 0.0000
# 6 0.0000 0.0000 0.0000 0.0000 0.0000 -4.1122
#
#
#
# Elastic Compliance Matrix: (Units=1/GPa)
#
#
# Indices 1 2 3 4 5 6 
#
# 1 0.009258 -0.002879 -0.000685 0.000000 0.000000 0.000000
# 2 -0.002879 0.009734 -0.004270 0.000000 0.000000 0.000000
# 3 -0.000685 -0.004270 0.014989 0.000000 0.000000 0.000000
# 4 0.000000 0.000000 0.000000 0.031485 0.000000 0.000000
# 5 0.000000 0.000000 0.000000 0.000000 -0.002677 0.000000
# 6 0.000000 0.000000 0.000000 0.000000 0.000000 -0.243179
#
#
# Mechanical properties :
#
#
# Convention : Reuss Voigt Hill
#
# Bulk Modulus (GPa) = 54.60631 60.13520 57.37075
# Shear Modulus (GPa) = -31.52222 -53.65150 -42.58686
#
# Velocity S-wave (km/s) = -4.07438 -5.31550 -4.73578
# Velocity P-wave (km/s) = 2.57357 2.45024 0.55660
#
# Compressibility (1/GPa) = 0.01831290
#
# Stress axis : x y z
#
# Youngs Moduli (GPa) = 108.01282 102.73205 66.71603
#
# Poissons Ratio (x) = 0.29573 0.04572
# Poissons Ratio (y) = 0.31093 0.28489
# Poissons Ratio (z) = 0.07401 0.43869
#
# Static dielectric constant tensor:
#      x y z
#    x 1.602140 0.000000 0.000000 
#    y 0.000000 1.726450 0.000000 
#    z 0.000000 0.000000 1.640580 
# 
# From -- ./inp_files/23444.got.cif
#   From: 2010.05.17/outbox.cif.g08.bks.cpg/sg74_12_cif.got.tgz:23444.got - 2010.06.03 17:57:02.
