data_PCOD9540393
_publ_section_title
;
Structure prediction by ZEFSAII (Michael W. Deem and Ramdas Pophale) SiO2 
 PCOD9540393
Probable space group: I M M A
;
_chemical_formula_sum "Si O2"
_cell_formula_units_Z 80
_cell_length_a 7.830505
_cell_length_b 25.591580
_cell_length_c 24.333854
_cell_angle_alpha 90.000000
_cell_angle_beta 90.000000
_cell_angle_gamma 90.000000
_cell_volume 4876.382554
_symmetry_space_group_name_H-M "I M M A"
_symmetry_group_IT_number 74
_symmetry_cell_setting 'orthorhombic'
loop_
_space_group_symop_operation_xyz
x,y,z
-x,1/2-y,z
x,-y,-z
-x,1/2+y,-z
-x,-y,-z
x,1/2+y,-z
-x,y,z
x,1/2-y,z
1/2+x,1/2+y,1/2+z
1/2-x,-y,1/2+z
1/2+x,1/2-y,1/2-z
1/2-x,y,1/2-z
1/2-x,1/2-y,1/2-z
1/2+x,y,1/2-z
1/2-x,1/2+y,1/2+z
1/2+x,-y,1/2+z
loop_
_atom_site_type_symbol
_atom_site_label
_atom_site_fract_x
_atom_site_fract_y
_atom_site_fract_z
Si Si1 0.295197 0.981712 0.085111
Si Si2 0.205473 0.692607 0.493772
Si Si3 0.709003 0.918596 0.976839
Si Si4 0.793568 0.692170 0.134862
Si Si5 0.701921 0.586103 0.312067
O O1 0.500000 0.982659 0.081915
O O2 0.249312 0.957462 0.143301
O O3 0.235342 0.040090 0.069499
O O4 0.237829 0.943670 0.035427
O O5 0.271547 0.750000 0.510279
O O6 0.268841 0.641119 0.525161
O O7 0.245117 0.685738 0.429093
O O8 0.000000 0.693674 0.499181
O O9 0.500000 0.917708 0.976481
O O10 0.733086 0.750000 0.152739
O O11 0.725916 0.642616 0.168712
O O12 0.000000 0.692543 0.137876
O O13 0.500000 0.591233 0.314016
O O14 0.750000 0.573420 0.250000
#
# Coordination Sequence:
#
# PCOD9540393 Si02
#       5
#    16  16  16  16  16
#     4   9  16  29  46  62  84 113 143 173 210 256
#     4   9  15  24  42  66  88 111 142 175 205 244
#     4   8  14  25  44  66  87 112 139 170 211 255
#     4   9  18  31  43  57  81 111 143 180 218 250
#     4  11  22  33  45  61  82 110 146 186 220 253
#
# _framework density 16.405604
#
# number of rings (size 3 to 8) (size 9 to 14) (size 15 to 20)
#    0.000    2.800    2.000    1.800    0.000    1.200 
#    0.000    3.000    0.000    0.000    0.000    0.000 
#    0.000    0.800    0.000    1.400    0.000    2.000 
#
# Total GULP energy -222827.097404 kJ/mol
# GULP energy per Si atom -5570.677435 kJ/mol
# Density = 1.636826 g / cm^3
# Si number density = 16.405604 Si / 1000 Ang^3
#
#
#
# Elastic Constant Matrix: (Units=GPa)
#
#
# Indices 1 2 3 4 5 6 
#
# 1 17.2348 11.7668 2.8238 0.0000 0.0000 0.0000
# 2 11.7668 171.6970 87.6385 0.0000 0.0000 0.0000
# 3 2.8238 87.6385 84.1273 0.0000 0.0000 0.0000
# 4 0.0000 0.0000 0.0000 27.9945 0.0000 0.0000
# 5 0.0000 0.0000 0.0000 0.0000 14.7910 0.0000
# 6 0.0000 0.0000 0.0000 0.0000 0.0000 9.9845
#
#
#
# Elastic Compliance Matrix: (Units=1/GPa)
#
#
# Indices 1 2 3 4 5 6 
#
# 1 0.061838 -0.006788 0.004995 0.000000 0.000000 0.000000
# 2 -0.006788 0.013183 -0.013505 0.000000 0.000000 0.000000
# 3 0.004995 -0.013505 0.025788 0.000000 0.000000 0.000000
# 4 0.000000 0.000000 0.000000 0.035721 0.000000 0.000000
# 5 0.000000 0.000000 0.000000 0.000000 0.067608 0.000000
# 6 0.000000 0.000000 0.000000 0.000000 0.000000 0.100155
#
#
# Mechanical properties :
#
#
# Convention : Reuss Voigt Hill
#
# Bulk Modulus (GPa) = 14.24231 53.05748 33.64989
# Shear Modulus (GPa) = 13.95507 21.94268 17.94887
#
# Velocity S-wave (km/s) = 2.91972 3.66117 3.31126
# Velocity P-wave (km/s) = 4.47957 7.09108 5.93085
#
# Compressibility (1/GPa) = 0.07021335
#
# Stress axis : x y z
#
# Youngs Moduli (GPa) = 16.17135 75.85695 38.77802
#
# Poissons Ratio (x) = 0.51488 -0.19370
# Poissons Ratio (y) = 0.10976 0.52370
# Poissons Ratio (z) = -0.08078 1.02445
#
# Static dielectric constant tensor:
#      x y z
#    x 1.591370 0.000000 0.000000 
#    y 0.000000 1.618180 0.000000 
#    z 0.000000 0.000000 1.456430 
# 
# From -- ./inp_files/39745.got.cif
#   From: 2010.05.17/outbox.cif.g08.bks.cpg/sg74_20_cif.got.tgz:39745.got - 2010.06.03 17:57:02.
