data_PCOD9540164
_publ_section_title
;
Structure prediction by ZEFSAII (Michael W. Deem and Ramdas Pophale) SiO2 
 PCOD9540164
Probable space group: I M M A
;
_chemical_formula_sum "Si O2"
_cell_formula_units_Z 64
_cell_length_a 23.049538
_cell_length_b 14.231745
_cell_length_c 8.447636
_cell_angle_alpha 90.000000
_cell_angle_beta 90.000000
_cell_angle_gamma 90.000000
_cell_volume 2771.121519
_symmetry_space_group_name_H-M "I M M A"
_symmetry_group_IT_number 74
_symmetry_cell_setting 'orthorhombic'
loop_
_space_group_symop_operation_xyz
x,y,z
-x,1/2-y,z
x,-y,-z
-x,1/2+y,-z
-x,-y,-z
x,1/2+y,-z
-x,y,z
x,1/2-y,z
1/2+x,1/2+y,1/2+z
1/2-x,-y,1/2+z
1/2+x,1/2-y,1/2-z
1/2-x,y,1/2-z
1/2-x,1/2-y,1/2-z
1/2+x,y,1/2-z
1/2-x,1/2+y,1/2+z
1/2+x,-y,1/2+z
loop_
_atom_site_type_symbol
_atom_site_label
_atom_site_fract_x
_atom_site_fract_y
_atom_site_fract_z
Si Si1 0.112032 0.061406 0.355232
Si Si2 0.500000 0.461847 0.320588
Si Si3 0.500000 0.750000 0.571509
Si Si4 0.750000 0.250000 0.250000
Si Si5 0.306114 0.101255 0.444432
Si Si6 0.069442 0.250000 0.524299
Si Si7 0.618868 0.750000 0.372838
O O1 0.056786 0.008560 0.276206
O O2 0.153413 0.085560 0.209502
O O3 0.089124 0.158568 0.427996
O O4 0.135917 0.000000 0.500000
O O5 0.500000 0.500000 0.500000
O O6 0.500000 0.348046 0.334064
O O7 0.558479 0.750000 0.468976
O O8 0.744247 0.331151 0.386777
O O9 0.344661 0.158706 0.571388
O O10 0.286909 0.000000 0.500000
O O11 0.102596 0.250000 0.690760
O O12 0.000000 0.250000 0.548074
#
# Coordination Sequence:
#
# PCOD9540164 Si02
#       7
#    16   8   4   4  16   8   8
#     4  12  25  40  62  97 144 183 228 285 342 414
#     4  12  25  38  61  93 135 194 238 271 329 410
#     4  12  22  36  64  88 142 190 242 278 318 396
#     4  10  26  48  80 106 128 168 240 318 374 436
#     4  11  24  48  74 102 138 182 242 302 377 449
#     4  12  24  37  59  95 147 194 239 283 330 382
#     4  11  23  39  66 101 140 199 246 282 342 433
#
# _framework density 23.095341000000001
#
# number of rings (size 3 to 8) (size 9 to 14) (size 15 to 20)
#    0.000    0.500    4.375    4.875    3.500    1.000 
#    0.000    2.500    0.000    9.000    0.000    0.000 
#    0.000    0.000    0.000    0.000    0.000    0.000 
#
# Total GULP energy -178748.997191 kJ/mol
# GULP energy per Si atom -5585.906162 kJ/mol
# Density = 2.304278 g / cm^3
# Si number density = 23.095341 Si / 1000 Ang^3
#
#
#
# Elastic Constant Matrix: (Units=GPa)
#
#
# Indices 1 2 3 4 5 6 
#
# 1 31.6882 23.1235 11.1739 0.0000 0.0000 0.0000
# 2 23.1235 175.6683 58.6467 0.0000 0.0000 0.0000
# 3 11.1739 58.6467 143.4686 0.0000 0.0000 0.0000
# 4 0.0000 0.0000 0.0000 54.9178 0.0000 0.0000
# 5 0.0000 0.0000 0.0000 0.0000 21.5446 0.0000
# 6 0.0000 0.0000 0.0000 0.0000 0.0000 15.2458
#
#
#
# Elastic Compliance Matrix: (Units=1/GPa)
#
#
# Indices 1 2 3 4 5 6 
#
# 1 0.035029 -0.004285 -0.000977 0.000000 0.000000 0.000000
# 2 -0.004285 0.007116 -0.002575 0.000000 0.000000 0.000000
# 3 -0.000977 -0.002575 0.008099 0.000000 0.000000 0.000000
# 4 0.000000 0.000000 0.000000 0.018209 0.000000 0.000000
# 5 0.000000 0.000000 0.000000 0.000000 0.046415 0.000000
# 6 0.000000 0.000000 0.000000 0.000000 0.000000 0.065592
#
#
# Mechanical properties :
#
#
# Convention : Reuss Voigt Hill
#
# Bulk Modulus (GPa) = 28.92646 59.63481 44.28063
# Shear Modulus (GPa) = 24.07820 35.53373 29.80596
#
# Velocity S-wave (km/s) = 3.23237 3.92671 3.59634
# Velocity P-wave (km/s) = 5.14616 6.81439 6.03817
#
# Compressibility (1/GPa) = 0.03457042
#
# Stress axis : x y z
#
# Youngs Moduli (GPa) = 28.54811 140.52221 123.47298
#
# Poissons Ratio (x) = 0.60211 0.12059
# Poissons Ratio (y) = 0.12232 0.31798
# Poissons Ratio (z) = 0.02788 0.36188
#
# Static dielectric constant tensor:
#      x y z
#    x 1.889520 0.000000 0.000000 
#    y 0.000000 1.846170 0.000000 
#    z 0.000000 0.000000 1.826510 
# 
# From -- ./inp_files/15876.got.cif
#   From: 2010.05.17/outbox.cif.g08.bks.cpg/sg74_8_cif.got.tgz:15876.got - 2010.06.03 17:57:02.
