data_PCOD9540245
_publ_section_title
;
Structure prediction by ZEFSAII (Michael W. Deem and Ramdas Pophale) SiO2 
 PCOD9540245
Probable space group: I M M A
;
_chemical_formula_sum "Si O2"
_cell_formula_units_Z 80
_cell_length_a 14.817427
_cell_length_b 22.975249
_cell_length_c 11.811170
_cell_angle_alpha 90.000000
_cell_angle_beta 90.000000
_cell_angle_gamma 90.000000
_cell_volume 4020.924732
_symmetry_space_group_name_H-M "I M M A"
_symmetry_group_IT_number 74
_symmetry_cell_setting 'orthorhombic'
loop_
_space_group_symop_operation_xyz
x,y,z
-x,1/2-y,z
x,-y,-z
-x,1/2+y,-z
-x,-y,-z
x,1/2+y,-z
-x,y,z
x,1/2-y,z
1/2+x,1/2+y,1/2+z
1/2-x,-y,1/2+z
1/2+x,1/2-y,1/2-z
1/2-x,y,1/2-z
1/2-x,1/2-y,1/2-z
1/2+x,y,1/2-z
1/2-x,1/2+y,1/2+z
1/2+x,-y,1/2+z
loop_
_atom_site_type_symbol
_atom_site_label
_atom_site_fract_x
_atom_site_fract_y
_atom_site_fract_z
Si Si1 0.858141 0.909104 0.746782
Si Si2 0.396910 0.430920 0.992444
Si Si3 0.767102 0.630994 0.130489
Si Si4 0.897073 0.975208 0.123152
Si Si5 0.602606 0.317221 0.441897
O O1 0.750000 0.910070 0.750000
O O2 0.891167 0.904467 0.618716
O O3 0.888570 0.859459 0.833932
O O4 0.892031 0.970969 0.792533
O O5 0.500000 0.427527 0.949787
O O6 0.373039 0.500000 0.000000
O O7 0.325101 0.395260 0.919616
O O8 0.750000 0.662381 0.250000
O O9 0.830698 0.575640 0.157104
O O10 0.822843 0.665584 0.035020
O O11 0.000000 0.954460 0.113815
O O12 0.869782 0.000000 0.000000
O O13 0.500000 0.324034 0.486859
O O14 0.614570 0.250000 0.408863
#
# Coordination Sequence:
#
# PCOD9540245 Si02
#       5
#    16  16  16  16  16
#     4  12  21  39  66  94 129 165 203 259 325 389
#     4  11  23  39  59  93 135 168 200 249 318 389
#     4  12  24  40  63  91 128 169 215 261 320 389
#     4  11  20  33  60  96 131 162 203 256 316 389
#     4  11  25  45  68  93 123 166 222 277 324 376
#
# _framework density 19.895921000000001
#
# number of rings (size 3 to 8) (size 9 to 14) (size 15 to 20)
#    0.000    0.600    4.000    6.000    0.000    4.000 
#    0.000    0.000    0.000    0.600    0.000    0.000 
#    0.000    0.000    0.000    0.000    0.000    0.000 
#
# Total GULP energy -223764.231035 kJ/mol
# GULP energy per Si atom -5594.105776 kJ/mol
# Density = 1.985064 g / cm^3
# Si number density = 19.895921 Si / 1000 Ang^3
#
#
#
# Elastic Constant Matrix: (Units=GPa)
#
#
# Indices 1 2 3 4 5 6 
#
# 1 96.8849 9.5908 5.4233 -0.0004 0.0000 0.0002
# 2 9.5908 72.5262 11.6950 -0.0005 0.0000 0.0003
# 3 5.4233 11.6950 99.2467 -0.0016 -0.0002 0.0008
# 4 -0.0004 -0.0005 -0.0016 4.6292 -0.0002 0.0006
# 5 0.0000 0.0000 -0.0002 -0.0002 73.8131 0.0003
# 6 0.0002 0.0003 0.0008 0.0006 0.0003 49.0734
#
#
#
# Elastic Compliance Matrix: (Units=1/GPa)
#
#
# Indices 1 2 3 4 5 6 
#
# 1 0.010475 -0.001318 -0.000417 0.000001 0.000000 0.000000
# 2 -0.001318 0.014221 -0.001604 0.000001 0.000000 0.000000
# 3 -0.000417 -0.001604 0.010288 0.000003 0.000000 0.000000
# 4 0.000001 0.000001 0.000003 0.216021 0.000001 -0.000003
# 5 0.000000 0.000000 0.000000 0.000001 0.013548 0.000000
# 6 0.000000 0.000000 0.000000 -0.000003 0.000000 0.020378
#
#
# Mechanical properties :
#
#
# Convention : Reuss Voigt Hill
#
# Bulk Modulus (GPa) = 35.32777 35.78621 35.55699
# Shear Modulus (GPa) = 16.60889 41.63306 29.12097
#
# Velocity S-wave (km/s) = 2.89241 4.57939 3.82994
# Velocity P-wave (km/s) = 5.38048 6.78136 6.12113
#
# Compressibility (1/GPa) = 0.02830634
#
# Stress axis : x y z
#
# Youngs Moduli (GPa) = 95.46222 70.31849 97.20372
#
# Poissons Ratio (x) = 0.09268 0.04055
# Poissons Ratio (y) = 0.12582 0.15589
# Poissons Ratio (z) = 0.03982 0.11277
#
# Static dielectric constant tensor:
#      x y z
#    x 1.716160 0.000000 0.000000 
#    y 0.000000 1.670390 0.000000 
#    z 0.000000 0.000000 1.754060 
# 
# From -- ./inp_files/20465.got.cif
#   From: 2010.05.17/outbox.cif.g08.bks.cpg/sg74_11_cif.got.tgz:20465.got - 2010.06.03 17:57:02.
