data_PCOD9540915
_publ_section_title
;
Structure prediction by ZEFSAII (Michael W. Deem and Ramdas Pophale) SiO2 
 PCOD9540915
Probable space group: I M M A
;
_chemical_formula_sum "Si O2"
_cell_formula_units_Z 44
_cell_length_a 9.000000
_cell_length_b 30.000000
_cell_length_c 18.000000
_cell_angle_alpha 90.000000
_cell_angle_beta 90.000000
_cell_angle_gamma 90.000000
_cell_volume 4860.000000
_symmetry_space_group_name_H-M "I M M A"
_symmetry_group_IT_number 74
_symmetry_cell_setting 'orthorhombic'
loop_
_space_group_symop_operation_xyz
x,y,z
-x,1/2-y,z
x,-y,-z
-x,1/2+y,-z
-x,-y,-z
x,1/2+y,-z
-x,y,z
x,1/2-y,z
1/2+x,1/2+y,1/2+z
1/2-x,-y,1/2+z
1/2+x,1/2-y,1/2-z
1/2-x,y,1/2-z
1/2-x,1/2-y,1/2-z
1/2+x,y,1/2-z
1/2-x,1/2+y,1/2+z
1/2+x,-y,1/2+z
loop_
_atom_site_type_symbol
_atom_site_label
_atom_site_fract_x
_atom_site_fract_y
_atom_site_fract_z
Si Si1 0.821491 0.976463 0.831876
Si Si2 0.820262 0.621480 0.831546
Si Si3 0.179146 0.750000 0.330284
Si Si4 0.821043 0.575156 0.167912
Si Si5 0.820200 0.666598 0.084901
Si Si6 0.820718 0.803146 0.569139
O O1 0.750000 0.976766 0.750000
O O2 0.784693 0.927863 0.866956
O O3 0.000000 0.976264 0.824802
O O4 0.780819 0.025597 0.863540
O O5 0.750000 0.618831 0.750000
O O6 0.745127 0.664542 0.868116
O O7 0.000000 0.626187 0.830478
O O8 0.250000 0.750000 0.250000
O O9 0.243072 0.794474 0.367929
O O10 0.000000 0.750000 0.331445
O O11 0.750000 0.579912 0.250000
O O12 0.781222 0.617627 0.117073
O O13 0.000000 0.576137 0.176121
O O14 0.000000 0.670910 0.086138
O O15 0.756545 0.676604 0.003802
O O16 0.786155 0.750000 0.576702
O O17 0.000000 0.806691 0.565151
#
# Coordination Sequence:
#
# PCOD9540915 Si02
#       6
#    16  16   8  16  16  16
#     4   8  15  30  52  80 112 143 177 219 272 326
#     4  10  20  36  61  88 113 143 180 226 275 333
#     4  12  24  38  56  80 111 148 191 238 280 324
#     4   9  18  32  53  82 113 146 184 227 273 324
#     4  11  22  37  57  81 110 147 189 232 280 333
#     4  11  24  41  59  79 108 147 186 231 285 337
#
# _framework density 9.0534979999999994
#
# number of rings (size 3 to 8) (size 9 to 14) (size 15 to 20)
#    0.000    2.000    0.909    3.000    0.000    5.091 
#    0.000    0.909    0.000    5.455    0.000    0.000 
#    0.000    0.000    0.000    0.000    0.000    0.000 
#
# Total GULP energy -245087.373947 kJ/mol
# GULP energy per Si atom -5570.167590 kJ/mol
# Density = 0.903289 g / cm^3
# Si number density = 9.053498 Si / 1000 Ang^3
#
#
#
# Elastic Constant Matrix: (Units=GPa)
#
#
# Indices 1 2 3 4 5 6 
#
# 1 76.2595 59.0989 23.5090 0.0000 0.0000 0.0000
# 2 59.0989 210.2157 63.5200 0.0000 0.0000 0.0000
# 3 23.5090 63.5200 58.8366 0.0002 0.0000 0.0000
# 4 0.0000 0.0000 0.0002 63.7064 0.0000 0.0000
# 5 0.0000 0.0000 0.0000 0.0000 26.8146 0.0000
# 6 0.0000 0.0000 0.0000 0.0000 0.0000 18.3522
#
#
#
# Elastic Compliance Matrix: (Units=1/GPa)
#
#
# Indices 1 2 3 4 5 6 
#
# 1 0.016995 -0.004046 -0.002423 0.000000 0.000000 0.000000
# 2 -0.004046 0.008023 -0.007045 0.000000 0.000000 0.000000
# 3 -0.002423 -0.007045 0.025570 0.000000 0.000000 0.000000
# 4 0.000000 0.000000 0.000000 0.015697 0.000000 0.000000
# 5 0.000000 0.000000 0.000000 0.000000 0.037293 0.000000
# 6 0.000000 0.000000 0.000000 0.000000 0.000000 0.054489
#
#
# Mechanical properties :
#
#
# Convention : Reuss Voigt Hill
#
# Bulk Modulus (GPa) = 42.44290 70.84087 56.64189
# Shear Modulus (GPa) = 25.91332 35.05355 30.48344
#
# Velocity S-wave (km/s) = 3.78712 4.40467 4.10752
# Velocity P-wave (km/s) = 6.52794 8.06701 7.33794
#
# Compressibility (1/GPa) = 0.02356106
#
# Stress axis : x y z
#
# Youngs Moduli (GPa) = 58.83911 124.63622 39.10758
#
# Poissons Ratio (x) = 0.50427 0.09475
# Poissons Ratio (y) = 0.23806 0.27553
# Poissons Ratio (z) = 0.14256 0.87811
#
# Static dielectric constant tensor:
#      x y z
#    x 1.590190 0.000000 0.000000 
#    y 0.000000 1.543480 0.000000 
#    z 0.000000 0.000000 1.664940 
# 
# From -- ./inp_files/40131.got.cif
#   From: 2010.05.17/outbox.ucp.g08.bks.cvg/sg74_21_cif.got.tgz:40131.got - 2010.06.11 16:37:44.
