data_PCOD9540729
_publ_section_title
;
Structure prediction by ZEFSAII (Michael W. Deem and Ramdas Pophale) SiO2 
 PCOD9540729
Probable space group: I M M A
;
_chemical_formula_sum "Si O2"
_cell_formula_units_Z 64
_cell_length_a 22.138313
_cell_length_b 14.325676
_cell_length_c 9.499414
_cell_angle_alpha 90.000000
_cell_angle_beta 90.000000
_cell_angle_gamma 90.000000
_cell_volume 3012.703995
_symmetry_space_group_name_H-M "I M M A"
_symmetry_group_IT_number 74
_symmetry_cell_setting 'orthorhombic'
loop_
_space_group_symop_operation_xyz
x,y,z
-x,1/2-y,z
x,-y,-z
-x,1/2+y,-z
-x,-y,-z
x,1/2+y,-z
-x,y,z
x,1/2-y,z
1/2+x,1/2+y,1/2+z
1/2-x,-y,1/2+z
1/2+x,1/2-y,1/2-z
1/2-x,y,1/2-z
1/2-x,1/2-y,1/2-z
1/2+x,y,1/2-z
1/2-x,1/2+y,1/2+z
1/2+x,-y,1/2+z
loop_
_atom_site_type_symbol
_atom_site_label
_atom_site_fract_x
_atom_site_fract_y
_atom_site_fract_z
Si Si1 0.835896 0.352481 0.693752
Si Si2 0.250823 0.359176 0.449863
Si Si3 0.568142 0.891471 0.954721
Si Si4 0.654880 0.558818 0.731160
O O1 0.835699 0.250000 0.764068
O O2 0.773109 0.366836 0.608094
O O3 0.885979 0.348147 0.567796
O O4 0.850821 0.447166 0.776113
O O5 0.246551 0.250000 0.412656
O O6 0.316226 0.397031 0.407700
O O7 0.204083 0.417512 0.353966
O O8 0.500000 0.855874 0.960748
O O9 0.595941 0.892469 0.797510
O O10 0.567032 0.000000 0.000000
#
# Coordination Sequence:
#
# PCOD9540729 Si02
#       4
#    16  16  16  16
#     4   9  17  27  39  57  83 111 133 158 195 237
#     4   9  16  27  42  57  74 101 136 167 200 235
#     4   8  14  24  37  54  77 106 136 161 186 222
#     4   9  15  25  41  58  79 104 131 163 196 230
#
# _framework density 21.243375
#
# number of rings (size 3 to 8) (size 9 to 14) (size 15 to 20)
#    0.000    3.250    0.000    3.750    0.000    1.500 
#    0.000    2.500    0.000    3.000    0.000    0.000 
#    0.000   36.000    0.000    9.000    0.000    5.000 
#
# Total GULP energy -178510.482354 kJ/mol
# GULP energy per Si atom -5578.452574 kJ/mol
# Density = 2.119502 g / cm^3
# Si number density = 21.243375 Si / 1000 Ang^3
#
#
#
# Elastic Constant Matrix: (Units=GPa)
#
#
# Indices 1 2 3 4 5 6 
#
# 1 96.5980 10.4856 28.9374 0.0000 0.0000 0.0000
# 2 10.4856 151.8744 8.3248 0.0000 0.0000 0.0000
# 3 28.9374 8.3248 61.1372 0.0000 0.0000 0.0000
# 4 0.0000 0.0000 0.0000 14.8672 0.0000 0.0000
# 5 0.0000 0.0000 0.0000 0.0000 20.0708 0.0000
# 6 0.0000 0.0000 0.0000 0.0000 0.0000 -2.5352
#
#
#
# Elastic Compliance Matrix: (Units=1/GPa)
#
#
# Indices 1 2 3 4 5 6 
#
# 1 0.012104 -0.000526 -0.005657 0.000000 0.000000 0.000000
# 2 -0.000526 0.006657 -0.000658 0.000000 0.000000 0.000000
# 3 -0.005657 -0.000658 0.019124 0.000000 0.000000 0.000000
# 4 0.000000 0.000000 0.000000 0.067262 0.000000 0.000000
# 5 0.000000 0.000000 0.000000 0.000000 0.049824 0.000000
# 6 0.000000 0.000000 0.000000 0.000000 0.000000 -0.394440
#
#
# Mechanical properties :
#
#
# Convention : Reuss Voigt Hill
#
# Bulk Modulus (GPa) = 41.31669 45.01170 43.16420
# Shear Modulus (GPa) = -22.96524 23.93800 0.48638
#
# Velocity S-wave (km/s) = -3.29151 3.36049 0.47901
# Velocity P-wave (km/s) = 2.24635 6.02427 4.54631
#
# Compressibility (1/GPa) = 0.02420329
#
# Stress axis : x y z
#
# Youngs Moduli (GPa) = 82.61715 150.22404 52.29033
#
# Poissons Ratio (x) = 0.07895 0.29583
# Poissons Ratio (y) = 0.04342 0.03439
# Poissons Ratio (z) = 0.46741 0.09880
#
# Static dielectric constant tensor:
#      x y z
#    x 1.801140 0.000000 0.000000 
#    y 0.000000 1.777050 0.000000 
#    z 0.000000 0.000000 1.834050 
# 
# From -- ./inp_files/13271.got.cif
#   From: 2010.05.17/outbox.cif.g08.bks.cpg/sg74_7_cif.got.tgz:13271.got - 2010.06.03 17:57:02.
