data_PCOD9540993
_publ_section_title
;
Structure prediction by ZEFSAII (Michael W. Deem and Ramdas Pophale) SiO2 
 PCOD9540993
Probable space group: P 4
;
_chemical_formula_sum "Si O2"
_cell_formula_units_Z 24
_cell_length_a 10.925186
_cell_length_b 10.925186
_cell_length_c 9.468086
_cell_angle_alpha 90.000000
_cell_angle_beta 90.000000
_cell_angle_gamma 90.000000
_cell_volume 1130.107802
_symmetry_space_group_name_H-M "P 4"
_symmetry_group_IT_number 75
_symmetry_cell_setting 'tetragonal'
loop_
_space_group_symop_operation_xyz
x,y,z
-y,x,z
-x,-y,z
y,-x,z
loop_
_atom_site_type_symbol
_atom_site_label
_atom_site_fract_x
_atom_site_fract_y
_atom_site_fract_z
Si Si1 0.410182 0.324672 0.667460
Si Si2 0.306791 0.813666 0.235726
Si Si3 0.812076 0.181779 0.680533
Si Si4 0.088125 0.177596 0.990284
Si Si5 0.425310 0.205288 0.368221
Si Si6 0.274538 0.986165 0.477362
O O1 0.550050 0.342141 0.710845
O O2 0.322078 0.216722 0.720618
O O3 0.420348 0.300845 0.498439
O O4 0.289396 0.854863 0.075469
O O5 0.445193 0.805558 0.291982
O O6 0.244775 0.683229 0.263716
O O7 0.238996 0.916203 0.333525
O O8 0.926849 0.185081 0.571485
O O9 0.702797 0.126494 0.584186
O O10 0.817534 0.103300 0.821526
O O11 0.947011 0.158928 0.029643
O O12 0.383126 0.076546 0.435362
#
# Coordination Sequence:
#
# PCOD9540993 Si02
#       6
#     4   4   4   4   4   4
#     4  10  19  37  66  97 127 166 224 284 336 397
#     4  12  24  43  66  98 135 177 231 280 347 408
#     4  11  22  41  67 101 133 180 220 279 352 417
#     4  11  25  45  67  93 136 183 225 277 346 422
#     4  11  22  39  67  97 132 168 222 284 338 404
#     4  11  21  39  68  99 130 168 225 284 332 410
#
# _framework density 21.236913000000001
#
# number of rings (size 3 to 8) (size 9 to 14) (size 15 to 20)
#    0.000    1.000    6.667    1.500    0.000    2.000 
#    3.000    0.000    0.000    0.000    0.000    0.000 
#    0.000    0.000    0.000    0.000    0.000    0.000 
#
# Total GULP energy -133808.337813 kJ/mol
# GULP energy per Si atom -5575.347409 kJ/mol
# Density = 2.118858 g / cm^3
# Si number density = 21.236913 Si / 1000 Ang^3
#
#
#
# Elastic Constant Matrix: (Units=GPa)
#
#
# Indices 1 2 3 4 5 6 
#
# 1 79.2524 30.6916 26.7292 0.0000 0.0000 -2.5970
# 2 30.6916 79.2524 26.7292 0.0000 0.0000 2.5970
# 3 26.7292 26.7292 74.2218 0.0000 0.0000 0.0000
# 4 0.0000 0.0000 0.0000 25.2844 0.0000 0.0000
# 5 0.0000 0.0000 0.0000 0.0000 25.2844 0.0000
# 6 -2.5970 2.5970 0.0000 0.0000 0.0000 26.3742
#
#
#
# Elastic Compliance Matrix: (Units=1/GPa)
#
#
# Indices 1 2 3 4 5 6 
#
# 1 0.015919 -0.004893 -0.003971 0.000000 0.000000 0.002049
# 2 -0.004893 0.015919 -0.003971 0.000000 0.000000 -0.002049
# 3 -0.003971 -0.003971 0.016333 0.000000 0.000000 0.000000
# 4 0.000000 0.000000 0.000000 0.039550 0.000000 0.000000
# 5 0.000000 0.000000 0.000000 0.000000 0.039550 0.000000
# 6 0.002049 -0.002049 0.000000 0.000000 0.000000 0.038319
#
#
# Mechanical properties :
#
#
# Convention : Reuss Voigt Hill
#
# Bulk Modulus (GPa) = 44.43987 44.55851 44.49919
# Shear Modulus (GPa) = 25.15586 25.29370 25.22478
#
# Velocity S-wave (km/s) = 3.44544 3.45487 3.45016
# Velocity P-wave (km/s) = 6.06624 6.07799 6.07212
#
# Compressibility (1/GPa) = 0.02250232
#
# Stress axis : x y z
#
# Youngs Moduli (GPa) = 62.81748 62.81748 61.22520
#
# Poissons Ratio (x) = 0.30736 0.24312
# Poissons Ratio (y) = 0.30736 0.24312
# Poissons Ratio (z) = 0.24944 0.24944
#
# Static dielectric constant tensor:
#      x y z
#    x 1.803790 0.000000 0.000000 
#    y 0.000000 1.803790 0.000000 
#    z 0.000000 0.000000 1.745840 
# 
# From -- ./inp_files/334.got.cif
#   From: 2010.05.17/outbox.cif.g08.bks.cpg/sg75_cif.got.tgz:334.got - 2010.06.03 18:42:43.
