data_PCOD9540487
_publ_section_title
;
Structure prediction by ZEFSAII (Michael W. Deem and Ramdas Pophale) SiO2 
 PCOD9540487
Probable space group: I M M A
;
_chemical_formula_sum "Si O2"
_cell_formula_units_Z 64
_cell_length_a 17.568531
_cell_length_b 21.931471
_cell_length_c 7.629936
_cell_angle_alpha 90.000000
_cell_angle_beta 90.000000
_cell_angle_gamma 90.000000
_cell_volume 2939.842786
_symmetry_space_group_name_H-M "I M M A"
_symmetry_group_IT_number 74
_symmetry_cell_setting 'orthorhombic'
loop_
_space_group_symop_operation_xyz
x,y,z
-x,1/2-y,z
x,-y,-z
-x,1/2+y,-z
-x,-y,-z
x,1/2+y,-z
-x,y,z
x,1/2-y,z
1/2+x,1/2+y,1/2+z
1/2-x,-y,1/2+z
1/2+x,1/2-y,1/2-z
1/2-x,y,1/2-z
1/2-x,1/2-y,1/2-z
1/2+x,y,1/2-z
1/2-x,1/2+y,1/2+z
1/2+x,-y,1/2+z
loop_
_atom_site_type_symbol
_atom_site_label
_atom_site_fract_x
_atom_site_fract_y
_atom_site_fract_z
Si Si1 0.414405 0.628977 0.776840
Si Si2 0.304573 0.680657 0.484878
Si Si3 0.352201 0.130291 0.866668
Si Si4 0.839153 0.002329 0.209285
O O1 0.500000 0.636382 0.711187
O O2 0.354627 0.662399 0.650578
O O3 0.389018 0.558337 0.776741
O O4 0.407484 0.649164 0.978068
O O5 0.277614 0.750000 0.499766
O O6 0.352090 0.671833 0.305970
O O7 0.231994 0.637168 0.453934
O O8 0.361982 0.061433 0.798342
O O9 0.750000 0.012779 0.250000
O O10 0.848588 0.000000 0.000000
#
# Coordination Sequence:
#
# PCOD9540487 Si02
#       4
#    16  16  16  16
#     4  12  27  42  63  99 142 184 219 268 342 416
#     4  11  24  46  72 100 130 172 235 291 332 392
#     4  11  22  43  71 102 127 171 227 287 341 399
#     4  12  21  40  69 100 136 171 222 285 343 401
#
# _framework density 21.769873
#
# number of rings (size 3 to 8) (size 9 to 14) (size 15 to 20)
#    0.000    0.500    5.000    6.000    0.000    7.000 
#    0.000    0.000    0.000    0.000    0.000    0.000 
#    0.000    0.000    0.000    0.000    0.000    0.000 
#
# Total GULP energy -179109.859064 kJ/mol
# GULP energy per Si atom -5597.183096 kJ/mol
# Density = 2.172032 g / cm^3
# Si number density = 21.769873 Si / 1000 Ang^3
#
#
#
# Elastic Constant Matrix: (Units=GPa)
#
#
# Indices 1 2 3 4 5 6 
#
# 1 24.9287 -8.1307 20.2236 0.0000 0.0000 0.0000
# 2 -8.1307 63.4297 14.8284 0.0000 0.0000 0.0000
# 3 20.2236 14.8284 131.7738 0.0000 0.0000 0.0000
# 4 0.0000 0.0000 0.0000 -10.2092 0.0000 0.0000
# 5 0.0000 0.0000 0.0000 0.0000 15.6555 0.0000
# 6 0.0000 0.0000 0.0000 0.0000 0.0000 -85.8550
#
#
#
# Elastic Compliance Matrix: (Units=1/GPa)
#
#
# Indices 1 2 3 4 5 6 
#
# 1 0.049822 0.008395 -0.008591 0.000000 0.000000 0.000000
# 2 0.008395 0.017606 -0.003270 0.000000 0.000000 0.000000
# 3 -0.008591 -0.003270 0.009275 0.000000 0.000000 0.000000
# 4 0.000000 0.000000 0.000000 -0.097951 0.000000 0.000000
# 5 0.000000 0.000000 0.000000 0.000000 0.063875 0.000000
# 6 0.000000 0.000000 0.000000 0.000000 0.000000 -0.011648
#
#
# Mechanical properties :
#
#
# Convention : Reuss Voigt Hill
#
# Bulk Modulus (GPa) = 14.33250 30.44164 22.38707
# Shear Modulus (GPa) = 81.74217 -3.20100 39.27059
#
# Velocity S-wave (km/s) = 6.13431 -1.21391 4.25184
# Velocity P-wave (km/s) = 7.53465 3.47116 5.86600
#
# Compressibility (1/GPa) = 0.06977149
#
# Stress axis : x y z
#
# Youngs Moduli (GPa) = 20.07150 56.79911 107.81498
#
# Poissons Ratio (x) = -0.47681 0.92623
# Poissons Ratio (y) = -0.16850 0.35250
# Poissons Ratio (z) = 0.17243 0.18571
#
# Static dielectric constant tensor:
#      x y z
#    x 1.781210 0.000000 0.000000 
#    y 0.000000 1.779600 0.000000 
#    z 0.000000 0.000000 1.833250 
# 
# From -- ./inp_files/8789.got.cif
#   From: 2010.05.17/outbox.cif.g08.bks.cpg/sg74_5_cif.got.tgz:8789.got - 2010.06.03 17:57:02.
