data_PCOD9540296
_publ_section_title
;
Structure prediction by ZEFSAII (Michael W. Deem and Ramdas Pophale) SiO2 
 PCOD9540296
Probable space group: I M M A
;
_chemical_formula_sum "Si O2"
_cell_formula_units_Z 96
_cell_length_a 15.282841
_cell_length_b 13.879840
_cell_length_c 22.475808
_cell_angle_alpha 90.000000
_cell_angle_beta 90.000000
_cell_angle_gamma 90.000000
_cell_volume 4767.644537
_symmetry_space_group_name_H-M "I M M A"
_symmetry_group_IT_number 74
_symmetry_cell_setting 'orthorhombic'
loop_
_space_group_symop_operation_xyz
x,y,z
-x,1/2-y,z
x,-y,-z
-x,1/2+y,-z
-x,-y,-z
x,1/2+y,-z
-x,y,z
x,1/2-y,z
1/2+x,1/2+y,1/2+z
1/2-x,-y,1/2+z
1/2+x,1/2-y,1/2-z
1/2-x,y,1/2-z
1/2-x,1/2-y,1/2-z
1/2+x,y,1/2-z
1/2-x,1/2+y,1/2+z
1/2+x,-y,1/2+z
loop_
_atom_site_type_symbol
_atom_site_label
_atom_site_fract_x
_atom_site_fract_y
_atom_site_fract_z
Si Si1 0.596685 0.134089 0.271144
Si Si2 0.603884 0.016308 0.431876
Si Si3 0.271347 0.862024 0.631728
Si Si4 0.842202 0.862005 0.168877
Si Si5 0.093689 0.948559 0.638468
Si Si6 0.134453 0.639709 0.303368
O O1 0.500000 0.102642 0.294422
O O2 0.598030 0.250000 0.274653
O O3 0.683006 0.101834 0.306826
O O4 0.600089 0.102963 0.202990
O O5 0.500000 0.022112 0.429218
O O6 0.633600 0.933185 0.384926
O O7 0.629972 0.000000 0.500000
O O8 0.649821 0.115186 0.412480
O O9 0.250464 0.750000 0.637396
O O10 0.185119 0.917431 0.610196
O O11 0.865369 0.750000 0.155537
O O12 0.882714 0.886675 0.233933
O O13 0.738307 0.864183 0.182588
O O14 0.000000 0.921091 0.610947
O O15 0.094205 0.061136 0.653479
O O16 0.106596 0.750000 0.311648
#
# Coordination Sequence:
#
# PCOD9540296 Si02
#       6
#    16  16  16  16  16  16
#     4   9  18  31  49  77 111 148 188 228 277 339
#     4  11  24  40  60  87 118 154 198 243 290 348
#     4  11  22  37  56  77 110 154 194 236 286 338
#     4   9  18  35  58  84 116 153 194 241 294 356
#     4  11  21  32  52  82 115 148 186 235 286 342
#     4   9  18  33  56  85 115 151 193 238 295 360
#
# _framework density 20.135729000000001
#
# number of rings (size 3 to 8) (size 9 to 14) (size 15 to 20)
#    0.000    2.000    1.667    3.500    2.333    6.667 
#    0.000    3.333    0.000    0.500    0.000    0.000 
#    0.000    0.000    0.000    0.000    0.000    0.000 
#
# Total GULP energy -267726.850745 kJ/mol
# GULP energy per Si atom -5577.642724 kJ/mol
# Density = 2.008990 g / cm^3
# Si number density = 20.135729 Si / 1000 Ang^3
#
#
#
# Elastic Constant Matrix: (Units=GPa)
#
#
# Indices 1 2 3 4 5 6 
#
# 1 93.4509 21.4072 7.1529 0.0000 0.0000 0.0000
# 2 21.4072 75.1463 11.5380 0.0000 0.0000 0.0000
# 3 7.1529 11.5380 47.2478 0.0000 0.0000 0.0000
# 4 0.0000 0.0000 0.0000 12.4868 0.0000 0.0000
# 5 0.0000 0.0000 0.0000 0.0000 78.0573 0.0000
# 6 0.0000 0.0000 0.0000 0.0000 0.0000 15.9878
#
#
#
# Elastic Compliance Matrix: (Units=1/GPa)
#
#
# Indices 1 2 3 4 5 6 
#
# 1 0.011491 -0.003124 -0.000977 0.000000 0.000000 0.000000
# 2 -0.003124 0.014675 -0.003111 0.000000 0.000000 0.000000
# 3 -0.000977 -0.003111 0.022073 0.000000 0.000000 0.000000
# 4 0.000000 0.000000 0.000000 0.080084 0.000000 0.000000
# 5 0.000000 0.000000 0.000000 0.000000 0.012811 0.000000
# 6 0.000000 0.000000 0.000000 0.000000 0.000000 0.062548
#
#
# Mechanical properties :
#
#
# Convention : Reuss Voigt Hill
#
# Bulk Modulus (GPa) = 29.57163 32.89345 31.23254
# Shear Modulus (GPa) = 21.79828 33.02286 27.41057
#
# Velocity S-wave (km/s) = 3.29381 4.05410 3.69357
# Velocity P-wave (km/s) = 5.40218 6.18754 5.80815
#
# Compressibility (1/GPa) = 0.03381619
#
# Stress axis : x y z
#
# Youngs Moduli (GPa) = 87.02392 68.14398 45.30512
#
# Poissons Ratio (x) = 0.21285 0.04426
# Poissons Ratio (y) = 0.27182 0.14093
# Poissons Ratio (z) = 0.08501 0.21198
#
# Static dielectric constant tensor:
#      x y z
#    x 1.784950 0.000000 0.000000 
#    y 0.000000 1.753300 0.000000 
#    z 0.000000 0.000000 1.715290 
# 
# From -- ./inp_files/51931.got.cif
#   From: 2010.05.17/outbox.cif.g08.bks.cpg/sg74_26_cif.got.tgz:51931.got - 2010.06.03 17:57:02.
