data_PCOD9540665
_publ_section_title
;
Structure prediction by ZEFSAII (Michael W. Deem and Ramdas Pophale) SiO2 
 PCOD9540665
Probable space group: I M M A
;
_chemical_formula_sum "Si O2"
_cell_formula_units_Z 56
_cell_length_a 10.273007
_cell_length_b 20.189227
_cell_length_c 13.533167
_cell_angle_alpha 90.000000
_cell_angle_beta 90.000000
_cell_angle_gamma 90.000000
_cell_volume 2806.833920
_symmetry_space_group_name_H-M "I M M A"
_symmetry_group_IT_number 74
_symmetry_cell_setting 'orthorhombic'
loop_
_space_group_symop_operation_xyz
x,y,z
-x,1/2-y,z
x,-y,-z
-x,1/2+y,-z
-x,-y,-z
x,1/2+y,-z
-x,y,z
x,1/2-y,z
1/2+x,1/2+y,1/2+z
1/2-x,-y,1/2+z
1/2+x,1/2-y,1/2-z
1/2-x,y,1/2-z
1/2-x,1/2-y,1/2-z
1/2+x,y,1/2-z
1/2-x,1/2+y,1/2+z
1/2+x,-y,1/2+z
loop_
_atom_site_type_symbol
_atom_site_label
_atom_site_fract_x
_atom_site_fract_y
_atom_site_fract_z
Si Si1 0.227130 0.622612 0.932648
Si Si2 0.500000 0.433134 0.787689
Si Si3 0.136425 0.250000 0.173515
Si Si4 0.000000 0.429353 0.943132
Si Si5 0.750000 0.522324 0.750000
Si Si6 0.000000 0.168262 0.527328
O O1 0.153060 0.686379 0.892404
O O2 0.219207 0.569602 0.843398
O O3 0.371544 0.643804 0.967235
O O4 0.138467 0.598592 0.021657
O O5 0.500000 0.415220 0.672657
O O6 0.630286 0.478397 0.791049
O O7 0.500000 0.373966 0.868763
O O8 0.250000 0.250000 0.250000
O O9 0.000000 0.250000 0.228354
O O10 0.000000 0.500000 0.000000
O O11 0.000000 0.250000 0.537565
#
# Coordination Sequence:
#
# PCOD9540665 Si02
#       6
#    16   8   8   8   8   8
#     4  12  25  45  72 104 145 186 241 299 373 432
#     4  12  27  46  70 103 140 184 248 293 368 430
#     4  12  26  42  70 105 143 190 236 301 373 435
#     4  12  24  47  72  97 138 187 239 303 366 442
#     4  12  24  43  73 110 136 178 236 314 368 436
#     4  12  29  48  69 106 152 202 242 298 359 449
#
# _framework density 19.951305000000001
#
# number of rings (size 3 to 8) (size 9 to 14) (size 15 to 20)
#    0.000    0.000    7.143    2.571    2.000    1.143 
#    2.571    2.143    0.000    0.000    0.000    0.000 
#    0.000    0.000    0.000    0.000    0.000    0.000 
#
# Total GULP energy -156176.200762 kJ/mol
# GULP energy per Si atom -5577.721456 kJ/mol
# Density = 1.990589 g / cm^3
# Si number density = 19.951305 Si / 1000 Ang^3
#
#
#
# Elastic Constant Matrix: (Units=GPa)
#
#
# Indices 1 2 3 4 5 6 
#
# 1 149.4593 40.7741 10.2225 0.0000 0.0000 0.0000
# 2 40.7741 96.4638 20.3455 0.0000 0.0000 0.0000
# 3 10.2225 20.3455 87.8147 0.0000 0.0000 0.0000
# 4 0.0000 0.0000 0.0000 21.4746 0.0000 0.0000
# 5 0.0000 0.0000 0.0000 0.0000 41.1323 0.0000
# 6 0.0000 0.0000 0.0000 0.0000 0.0000 49.2526
#
#
#
# Elastic Compliance Matrix: (Units=1/GPa)
#
#
# Indices 1 2 3 4 5 6 
#
# 1 0.007565 -0.003167 -0.000147 0.000000 0.000000 0.000000
# 2 -0.003167 0.012225 -0.002464 0.000000 0.000000 0.000000
# 3 -0.000147 -0.002464 0.011976 0.000000 0.000000 0.000000
# 4 0.000000 0.000000 0.000000 0.046567 0.000000 0.000000
# 5 0.000000 0.000000 0.000000 0.000000 0.024312 0.000000
# 6 0.000000 0.000000 0.000000 0.000000 0.000000 0.020303
#
#
# Mechanical properties :
#
#
# Convention : Reuss Voigt Hill
#
# Bulk Modulus (GPa) = 49.47908 52.93578 51.20743
# Shear Modulus (GPa) = 35.40123 39.86494 37.63308
#
# Velocity S-wave (km/s) = 4.21691 4.47487 4.34781
# Velocity P-wave (km/s) = 6.96875 7.29996 7.13628
#
# Compressibility (1/GPa) = 0.02021056
#
# Stress axis : x y z
#
# Youngs Moduli (GPa) = 132.19305 81.80189 83.50366
#
# Poissons Ratio (x) = 0.25903 0.01227
# Poissons Ratio (y) = 0.41859 0.20573
# Poissons Ratio (z) = 0.01943 0.20153
#
# Static dielectric constant tensor:
#      x y z
#    x 1.640030 0.000000 0.000000 
#    y 0.000000 1.720060 0.000000 
#    z 0.000000 0.000000 1.720960 
# 
# From -- ./inp_files/28613.got.cif
#   From: 2010.05.17/outbox.cif.g08.bks.cpg/sg74_15_cif.got.tgz:28613.got - 2010.06.03 17:57:02.
