data_PCOD9540408
_publ_section_title
;
Structure prediction by ZEFSAII (Michael W. Deem and Ramdas Pophale) SiO2 
 PCOD9540408
Probable space group: I M M A
;
_chemical_formula_sum "Si O2"
_cell_formula_units_Z 96
_cell_length_a 23.505992
_cell_length_b 7.638585
_cell_length_c 24.787925
_cell_angle_alpha 90.000000
_cell_angle_beta 90.000000
_cell_angle_gamma 90.000000
_cell_volume 4450.734347
_symmetry_space_group_name_H-M "I M M A"
_symmetry_group_IT_number 74
_symmetry_cell_setting 'orthorhombic'
loop_
_space_group_symop_operation_xyz
x,y,z
-x,1/2-y,z
x,-y,-z
-x,1/2+y,-z
-x,-y,-z
x,1/2+y,-z
-x,y,z
x,1/2-y,z
1/2+x,1/2+y,1/2+z
1/2-x,-y,1/2+z
1/2+x,1/2-y,1/2-z
1/2-x,y,1/2-z
1/2-x,1/2-y,1/2-z
1/2+x,y,1/2-z
1/2-x,1/2+y,1/2+z
1/2+x,-y,1/2+z
loop_
_atom_site_type_symbol
_atom_site_label
_atom_site_fract_x
_atom_site_fract_y
_atom_site_fract_z
Si Si1 0.122042 0.963641 0.781462
Si Si2 0.063469 0.037894 0.108718
Si Si3 0.865447 0.464756 0.336491
Si Si4 0.262562 0.949206 0.667965
Si Si5 0.434897 0.960210 0.940073
Si Si6 0.318865 0.049815 0.560536
O O1 0.123380 0.750000 0.783090
O O2 0.081227 0.017184 0.830461
O O3 0.106537 0.013995 0.720762
O O4 0.186004 0.026000 0.796579
O O5 0.064248 0.250000 0.107351
O O6 0.000000 0.978609 0.095174
O O7 0.113715 0.974744 0.070072
O O8 0.864713 0.250000 0.338891
O O9 0.800140 0.527073 0.333580
O O10 0.897616 0.525646 0.390036
O O11 0.255220 0.750000 0.687241
O O12 0.287219 0.945302 0.607354
O O13 0.500000 0.026778 0.937184
O O14 0.437204 0.750000 0.935558
O O15 0.412272 0.000000 0.000000
O O16 0.304020 0.250000 0.570232
O O17 0.303759 0.000000 0.500000
#
# Coordination Sequence:
#
# PCOD9540408 Si02
#       6
#    16  16  16  16  16  16
#     4   8  14  26  47  75 103 128 156 196 243 287
#     4   9  18  33  53  77 104 133 166 205 248 294
#     4   9  16  27  49  78 101 127 165 203 240 289
#     4   9  17  31  50  73 102 132 162 199 245 295
#     4   9  18  32  48  67  94 126 160 200 243 285
#     4  11  22  36  53  72  98 132 169 210 254 299
#
# _framework density 21.569475000000001
#
# number of rings (size 3 to 8) (size 9 to 14) (size 15 to 20)
#    0.000    2.833    0.000    3.000    0.000    4.000 
#    0.000    5.833    0.000   12.000    0.000    4.667 
#    0.000    0.000    0.000    0.000    0.000    0.000 
#
# Total GULP energy -267830.290165 kJ/mol
# GULP energy per Si atom -5579.797712 kJ/mol
# Density = 2.152038 g / cm^3
# Si number density = 21.569475 Si / 1000 Ang^3
#
#
#
# Elastic Constant Matrix: (Units=GPa)
#
#
# Indices 1 2 3 4 5 6 
#
# 1 15.8111 1.8835 1.5343 0.0000 0.0000 0.0000
# 2 1.8835 53.4880 1.9878 0.0000 0.0000 0.0000
# 3 1.5343 1.9878 137.6216 0.0000 0.0000 0.0000
# 4 0.0000 0.0000 0.0000 10.9709 0.0000 0.0000
# 5 0.0000 0.0000 0.0000 0.0000 7.5673 0.0000
# 6 0.0000 0.0000 0.0000 0.0000 0.0000 -4.6519
#
#
#
# Elastic Compliance Matrix: (Units=1/GPa)
#
#
# Indices 1 2 3 4 5 6 
#
# 1 0.063576 -0.002214 -0.000677 0.000000 0.000000 0.000000
# 2 -0.002214 0.018783 -0.000247 0.000000 0.000000 0.000000
# 3 -0.000677 -0.000247 0.007277 0.000000 0.000000 0.000000
# 4 0.000000 0.000000 0.000000 0.091150 0.000000 0.000000
# 5 0.000000 0.000000 0.000000 0.000000 0.132148 0.000000
# 6 0.000000 0.000000 0.000000 0.000000 0.000000 -0.214966
#
#
# Mechanical properties :
#
#
# Convention : Reuss Voigt Hill
#
# Bulk Modulus (GPa) = 11.99582 24.19242 18.09412
# Shear Modulus (GPa) = 37.87045 16.21161 27.04103
#
# Velocity S-wave (km/s) = 4.19470 2.74451 3.54456
# Velocity P-wave (km/s) = 5.38835 4.61340 5.01586
#
# Compressibility (1/GPa) = 0.08336238
#
# Stress axis : x y z
#
# Youngs Moduli (GPa) = 15.72919 53.23998 137.41150
#
# Poissons Ratio (x) = 0.11785 0.09301
# Poissons Ratio (y) = 0.03482 0.03389
# Poissons Ratio (z) = 0.01065 0.01313
#
# Static dielectric constant tensor:
#      x y z
#    x 1.772970 0.000000 0.000000 
#    y 0.000000 1.830460 0.000000 
#    z 0.000000 0.000000 1.770270 
# 
# From -- ./inp_files/49126.got.cif
#   From: 2010.05.17/outbox.cif.g08.bks.cpg/sg74_25_cif.got.tgz:49126.got - 2010.06.03 17:57:02.
