data_PCOD9540888
_publ_section_title
;
Structure prediction by ZEFSAII (Michael W. Deem and Ramdas Pophale) SiO2 
 PCOD9540888
Probable space group: I M M A
;
_chemical_formula_sum "Si O2"
_cell_formula_units_Z 52
_cell_length_a 9.000000
_cell_length_b 21.000000
_cell_length_c 27.000000
_cell_angle_alpha 90.000000
_cell_angle_beta 90.000000
_cell_angle_gamma 90.000000
_cell_volume 5103.000000
_symmetry_space_group_name_H-M "I M M A"
_symmetry_group_IT_number 74
_symmetry_cell_setting 'orthorhombic'
loop_
_space_group_symop_operation_xyz
x,y,z
-x,1/2-y,z
x,-y,-z
-x,1/2+y,-z
-x,-y,-z
x,1/2+y,-z
-x,y,z
x,1/2-y,z
1/2+x,1/2+y,1/2+z
1/2-x,-y,1/2+z
1/2+x,1/2-y,1/2-z
1/2-x,y,1/2-z
1/2-x,1/2-y,1/2-z
1/2+x,y,1/2-z
1/2-x,1/2+y,1/2+z
1/2+x,-y,1/2+z
loop_
_atom_site_type_symbol
_atom_site_label
_atom_site_fract_x
_atom_site_fract_y
_atom_site_fract_z
Si Si1 0.823668 0.824232 0.641400
Si Si2 0.818416 0.250000 0.697216
Si Si3 0.676320 0.600191 0.552149
Si Si4 0.668218 0.484618 0.606360
Si Si5 0.330680 0.926564 0.703275
Si Si6 0.667144 0.357553 0.871283
Si Si7 0.831609 0.180348 0.518468
O O1 0.791276 0.750000 0.645591
O O2 0.749301 0.852753 0.592098
O O3 0.756948 0.863786 0.686816
O O4 0.000000 0.833542 0.638736
O O5 0.750000 0.250000 0.750000
O O6 0.762998 0.312324 0.669009
O O7 0.000000 0.250000 0.695842
O O8 0.500000 0.600228 0.559348
O O9 0.732452 0.529597 0.563700
O O10 0.722626 0.626338 0.499646
O O11 0.500000 0.468154 0.593316
O O12 0.669206 0.528286 0.655463
O O13 0.754390 0.422413 0.618342
O O14 0.500000 0.911377 0.715650
O O15 0.250000 0.957087 0.750000
O O16 0.500000 0.371959 0.855580
O O17 0.662864 0.319980 0.922751
O O18 0.784705 0.250000 0.500428
O O19 0.000000 0.168434 0.500400
#
# Coordination Sequence:
#
# PCOD9540888 Si02
#       7
#    16   8  16  16  16  16  16
#     4  10  20  34  53  78 109 146 189 235 280 331
#     4  10  22  42  64  90 120 150 188 238 293 350
#     4  10  21  36  54  81 116 153 190 233 282 334
#     4   9  21  39  56  79 114 149 185 232 284 339
#     4  10  21  37  56  78 107 144 185 233 285 337
#     4  10  21  39  62  85 113 148 186 231 284 340
#     4  10  20  36  58  83 114 151 191 236 281 335
#
# _framework density 10.190084000000001
#
# number of rings (size 3 to 8) (size 9 to 14) (size 15 to 20)
#    0.000    2.154    0.769    2.769    0.000    9.846 
#    0.000    6.154    0.000    0.000    0.000    0.000 
#    0.000    0.000    0.000    0.000    0.000    0.000 
#
# Total GULP energy -289894.937275 kJ/mol
# GULP energy per Si atom -5574.902640 kJ/mol
# Density = 1.016689 g / cm^3
# Si number density = 10.190084 Si / 1000 Ang^3
#
#
#
# Elastic Constant Matrix: (Units=GPa)
#
#
# Indices 1 2 3 4 5 6 
#
# 1 28.0120 71.5132 13.8327 0.0000 0.0000 0.0000
# 2 71.5132 137.4524 28.1016 0.0000 0.0000 0.0000
# 3 13.8327 28.1016 50.6194 0.0000 0.0000 0.0000
# 4 0.0000 0.0000 0.0000 -0.9640 0.0000 0.0000
# 5 0.0000 0.0000 0.0000 0.0000 29.3408 0.0000
# 6 0.0000 0.0000 0.0000 0.0000 0.0000 27.5730
#
#
#
# Elastic Compliance Matrix: (Units=1/GPa)
#
#
# Indices 1 2 3 4 5 6 
#
# 1 -0.108596 0.056890 -0.001907 0.000000 0.000000 0.000000
# 2 0.056890 -0.021596 -0.003557 0.000000 0.000000 0.000000
# 3 -0.001907 -0.003557 0.022251 0.000000 0.000000 0.000000
# 4 0.000000 0.000000 0.000000 -1.037373 0.000000 0.000000
# 5 0.000000 0.000000 0.000000 0.000000 0.034082 0.000000
# 6 0.000000 0.000000 0.000000 0.000000 0.000000 0.036267
#
#
# Mechanical properties :
#
#
# Convention : Reuss Voigt Hill
#
# Bulk Modulus (GPa) = -196.49920 49.21990 -73.63965
# Shear Modulus (GPa) = -4.23904 18.03237 6.89667
#
# Velocity S-wave (km/s) = -1.44378 2.97779 1.84156
# Velocity P-wave (km/s) = 9.97023 6.00219 5.62935
#
# Compressibility (1/GPa) = -0.00508908
#
# Stress axis : x y z
#
# Youngs Moduli (GPa) = -9.20842 -46.30496 44.94163
#
# Poissons Ratio (x) = 2.63428 0.08569
# Poissons Ratio (y) = 0.52387 0.15986
# Poissons Ratio (z) = -0.01756 -0.16471
#
# Static dielectric constant tensor:
#      x y z
#    x 1.690970 0.000000 0.000000 
#    y 0.000000 1.717550 0.000000 
#    z 0.000000 0.000000 1.783320 
# 
# From -- ./inp_files/64530.got.cif
#   From: 2010.05.17/outbox.ucp.g08.bks.cvg/sg74_33_cif.got.tgz:64530.got - 2010.06.11 16:37:44.
