data_PCOD9540200
_publ_section_title
;
Structure prediction by ZEFSAII (Michael W. Deem and Ramdas Pophale) SiO2 
 PCOD9540200
Probable space group: I M M A
;
_chemical_formula_sum "Si O2"
_cell_formula_units_Z 72
_cell_length_a 10.062856
_cell_length_b 24.504524
_cell_length_c 16.388395
_cell_angle_alpha 90.000000
_cell_angle_beta 90.000000
_cell_angle_gamma 90.000000
_cell_volume 4041.140516
_symmetry_space_group_name_H-M "I M M A"
_symmetry_group_IT_number 74
_symmetry_cell_setting 'orthorhombic'
loop_
_space_group_symop_operation_xyz
x,y,z
-x,1/2-y,z
x,-y,-z
-x,1/2+y,-z
-x,-y,-z
x,1/2+y,-z
-x,y,z
x,1/2-y,z
1/2+x,1/2+y,1/2+z
1/2-x,-y,1/2+z
1/2+x,1/2-y,1/2-z
1/2-x,y,1/2-z
1/2-x,1/2-y,1/2-z
1/2+x,y,1/2-z
1/2-x,1/2+y,1/2+z
1/2+x,-y,1/2+z
loop_
_atom_site_type_symbol
_atom_site_label
_atom_site_fract_x
_atom_site_fract_y
_atom_site_fract_z
Si Si1 0.000000 0.586433 0.196014
Si Si2 0.713267 0.636322 0.419036
Si Si3 0.500000 0.042064 0.304338
Si Si4 0.842280 0.250000 0.832661
Si Si5 0.707331 0.554706 0.554719
Si Si6 0.500000 0.097605 0.878193
Si Si7 0.500000 0.965021 0.881887
O O1 0.868619 0.602476 0.147908
O O2 0.000000 0.522607 0.205650
O O3 0.000000 0.614029 0.283374
O O4 0.686116 0.697678 0.390262
O O5 0.669477 0.608970 0.504123
O O6 0.867545 0.622221 0.414800
O O7 0.373009 0.054985 0.360672
O O8 0.500000 0.059942 0.210021
O O9 0.750000 0.250000 0.750000
O O10 0.000000 0.250000 0.810575
O O11 0.675290 0.500000 0.500000
O O12 0.864091 0.552108 0.574044
O O13 0.500000 0.031600 0.882588
#
# Coordination Sequence:
#
# PCOD9540200 Si02
#       7
#     8  16   8   8  16   8   8
#     4  11  19  34  52  84 115 159 200 239 297 352
#     4  12  24  37  59  82 117 162 204 253 294 347
#     4  11  22  34  58  85 124 156 199 242 304 377
#     4  12  28  46  62  88 123 165 212 252 297 361
#     4  12  21  37  57  89 120 158 202 250 306 361
#     4  11  21  34  56  84 121 161 200 237 299 356
#     4  11  22  38  56  89 126 164 193 244 304 377
#
# _framework density 17.816752999999999
#
# number of rings (size 3 to 8) (size 9 to 14) (size 15 to 20)
#    0.000    0.444    5.556    4.667    1.556    3.556 
#    0.000    0.000    0.000    0.000    0.000    4.667 
#    0.000    0.000    0.000    0.000    0.000    0.000 
#
# Total GULP energy -200957.691355 kJ/mol
# GULP energy per Si atom -5582.158093 kJ/mol
# Density = 1.777620 g / cm^3
# Si number density = 17.816753 Si / 1000 Ang^3
#
#
#
# Elastic Constant Matrix: (Units=GPa)
#
#
# Indices 1 2 3 4 5 6 
#
# 1 109.1771 21.8166 17.6524 0.0000 0.0000 0.0000
# 2 21.8166 85.6952 41.3790 0.0000 0.0000 0.0000
# 3 17.6524 41.3790 98.6749 0.0000 0.0000 0.0000
# 4 0.0000 0.0000 0.0000 21.7902 0.0000 0.0000
# 5 0.0000 0.0000 0.0000 0.0000 26.8375 0.0000
# 6 0.0000 0.0000 0.0000 0.0000 0.0000 17.7822
#
#
#
# Elastic Compliance Matrix: (Units=1/GPa)
#
#
# Indices 1 2 3 4 5 6 
#
# 1 0.009711 -0.002048 -0.000878 0.000000 0.000000 0.000000
# 2 -0.002048 0.015064 -0.005951 0.000000 0.000000 0.000000
# 3 -0.000878 -0.005951 0.012787 0.000000 0.000000 0.000000
# 4 0.000000 0.000000 0.000000 0.045892 0.000000 0.000000
# 5 0.000000 0.000000 0.000000 0.000000 0.037261 0.000000
# 6 0.000000 0.000000 0.000000 0.000000 0.000000 0.056236
#
#
# Mechanical properties :
#
#
# Convention : Reuss Voigt Hill
#
# Bulk Modulus (GPa) = 50.48618 50.58257 50.53437
# Shear Modulus (GPa) = 24.83762 27.46193 26.14978
#
# Velocity S-wave (km/s) = 3.73776 3.93027 3.83522
# Velocity P-wave (km/s) = 6.85753 7.00343 6.93086
#
# Compressibility (1/GPa) = 0.01980740
#
# Stress axis : x y z
#
# Youngs Moduli (GPa) = 102.97913 66.38339 78.20563
#
# Poissons Ratio (x) = 0.13596 0.06869
# Poissons Ratio (y) = 0.21091 0.46537
# Poissons Ratio (z) = 0.09045 0.39502
#
# Static dielectric constant tensor:
#      x y z
#    x 1.638070 0.000000 0.000000 
#    y 0.000000 1.609100 0.000000 
#    z 0.000000 0.000000 1.647670 
# 
# From -- ./inp_files/39538.got.cif
#   From: 2010.05.17/outbox.cif.g08.bks.cpg/sg74_20_cif.got.tgz:39538.got - 2010.06.03 17:57:02.
