data_PCOD9540996
_publ_section_title
;
Structure prediction by ZEFSAII (Michael W. Deem and Ramdas Pophale) SiO2 
 PCOD9540996
Probable space group: P 4
;
_chemical_formula_sum "Si O2"
_cell_formula_units_Z 32
_cell_length_a 18.017833
_cell_length_b 18.017833
_cell_length_c 5.380696
_cell_angle_alpha 90.000000
_cell_angle_beta 90.000000
_cell_angle_gamma 90.000000
_cell_volume 1746.801557
_symmetry_space_group_name_H-M "P 4"
_symmetry_group_IT_number 75
_symmetry_cell_setting 'tetragonal'
loop_
_space_group_symop_operation_xyz
x,y,z
-y,x,z
-x,-y,z
y,-x,z
loop_
_atom_site_type_symbol
_atom_site_label
_atom_site_fract_x
_atom_site_fract_y
_atom_site_fract_z
Si Si1 0.933259 0.252254 0.224400
Si Si2 0.746001 0.069122 0.576470
Si Si3 0.191666 0.691916 0.528994
Si Si4 0.011976 0.373009 0.904593
Si Si5 0.177313 0.821985 0.896009
Si Si6 0.790276 0.701443 0.260375
Si Si7 0.547776 0.136453 0.210331
Si Si8 0.134189 0.545270 0.721855
O O1 0.870356 0.310546 0.313903
O O2 0.993300 0.234445 0.436196
O O3 0.886284 0.185442 0.103505
O O4 0.977608 0.298685 0.020684
O O5 0.663398 0.063170 0.693793
O O6 0.805398 0.098564 0.777378
O O7 0.738141 0.136765 0.385293
O O8 0.159542 0.760206 0.690489
O O9 0.268856 0.719841 0.413986
O O10 0.187711 0.615260 0.672030
O O11 0.947537 0.422209 0.785710
O O12 0.058972 0.415300 0.114277
O O13 0.256208 0.791319 0.998771
O O14 0.805417 0.614963 0.243138
O O15 0.502880 0.130279 0.468277
O O16 0.498452 0.157654 0.969949
#
# Coordination Sequence:
#
# PCOD9540996 Si02
#       8
#     4   4   4   4   4   4   4   4
#     4  11  19  34  58  81 118 158 212 262 308 372
#     4  11  19  34  58  81 118 158 212 262 308 372
#     4  10  22  37  58  78 117 165 205 255 305 359
#     4  12  23  36  54  84 130 165 202 240 299 386
#     4  10  20  36  56  82 110 163 209 266 304 358
#     4  10  22  37  58  78 117 165 205 255 305 359
#     4  12  26  39  56  88 126 173 208 245 304 382
#     4  12  26  39  56  88 126 173 208 245 304 382
#
# _framework density 18.319196999999999
#
# number of rings (size 3 to 8) (size 9 to 14) (size 15 to 20)
#    0.000    1.000    5.000    1.875    3.500    3.000 
#    0.000    0.000    0.000    0.000    0.000    0.000 
#    0.000  584.500    1.500    0.000    0.000    0.000 
#
# Total GULP energy -178571.964380 kJ/mol
# GULP energy per Si atom -5580.373887 kJ/mol
# Density = 1.827750 g / cm^3
# Si number density = 18.319197 Si / 1000 Ang^3
#
#
#
# Elastic Constant Matrix: (Units=GPa)
#
#
# Indices 1 2 3 4 5 6 
#
# 1 89.7126 54.4617 41.7620 0.0000 0.0000 6.4455
# 2 54.4617 89.7126 41.7620 0.0000 0.0000 -6.4455
# 3 41.7620 41.7620 88.5058 0.0000 0.0000 0.0000
# 4 0.0000 0.0000 0.0000 33.7484 0.0000 0.0000
# 5 0.0000 0.0000 0.0000 0.0000 33.7484 0.0000
# 6 6.4455 -6.4455 0.0000 0.0000 0.0000 21.0165
#
#
#
# Elastic Compliance Matrix: (Units=1/GPa)
#
#
# Indices 1 2 3 4 5 6 
#
# 1 0.020748 -0.011203 -0.004504 0.000000 0.000000 -0.009799
# 2 -0.011203 0.020748 -0.004504 0.000000 0.000000 0.009799
# 3 -0.004504 -0.004504 0.015549 0.000000 0.000000 0.000000
# 4 0.000000 0.000000 0.000000 0.029631 0.000000 0.000000
# 5 0.000000 0.000000 0.000000 0.000000 0.029631 0.000000
# 6 -0.009799 0.009799 0.000000 0.000000 0.000000 0.053592
#
#
# Mechanical properties :
#
#
# Convention : Reuss Voigt Hill
#
# Bulk Modulus (GPa) = 60.15482 60.43363 60.29422
# Shear Modulus (GPa) = 23.16273 26.36566 24.76419
#
# Velocity S-wave (km/s) = 3.55969 3.79784 3.68069
# Velocity P-wave (km/s) = 7.05716 7.23134 7.14478
#
# Compressibility (1/GPa) = 0.01662377
#
# Stress axis : x y z
#
# Youngs Moduli (GPa) = 48.19639 48.19639 64.31189
#
# Poissons Ratio (x) = 0.53995 0.28966
# Poissons Ratio (y) = 0.53995 0.28966
# Poissons Ratio (z) = 0.21708 0.21708
#
# Static dielectric constant tensor:
#      x y z
#    x 1.633070 0.000000 0.000000 
#    y 0.000000 1.633070 0.000000 
#    z 0.000000 0.000000 1.711800 
# 
# From -- ./inp_files/232.got.cif
#   From: 2010.05.17/outbox.cif.g08.bks.cpg/sg75_cif.got.tgz:232.got - 2010.06.03 18:42:43.
