data_PCOD9540218
_publ_section_title
;
Structure prediction by ZEFSAII (Michael W. Deem and Ramdas Pophale) SiO2 
 PCOD9540218
Probable space group: I M M A
;
_chemical_formula_sum "Si O2"
_cell_formula_units_Z 64
_cell_length_a 35.670209
_cell_length_b 8.739056
_cell_length_c 14.011175
_cell_angle_alpha 90.000000
_cell_angle_beta 90.000000
_cell_angle_gamma 90.000000
_cell_volume 4367.618871
_symmetry_space_group_name_H-M "I M M A"
_symmetry_group_IT_number 74
_symmetry_cell_setting 'orthorhombic'
loop_
_space_group_symop_operation_xyz
x,y,z
-x,1/2-y,z
x,-y,-z
-x,1/2+y,-z
-x,-y,-z
x,1/2+y,-z
-x,y,z
x,1/2-y,z
1/2+x,1/2+y,1/2+z
1/2-x,-y,1/2+z
1/2+x,1/2-y,1/2-z
1/2-x,y,1/2-z
1/2-x,1/2-y,1/2-z
1/2+x,y,1/2-z
1/2-x,1/2+y,1/2+z
1/2+x,-y,1/2+z
loop_
_atom_site_type_symbol
_atom_site_label
_atom_site_fract_x
_atom_site_fract_y
_atom_site_fract_z
Si Si1 0.881877 0.567666 0.107277
Si Si2 0.691132 0.064948 0.295741
Si Si3 0.958965 0.433459 0.107524
Si Si4 0.768344 0.933826 0.603014
O O1 0.883129 0.750000 0.100855
O O2 0.846600 0.511839 0.168136
O O3 0.921224 0.505326 0.149471
O O4 0.877939 0.500000 0.000000
O O5 0.687420 0.250000 0.299598
O O6 0.726377 0.021694 0.363154
O O7 0.703602 0.021581 0.188511
O O8 0.955244 0.250000 0.103305
O O9 0.000000 0.469438 0.150870
O O10 0.960039 0.500000 0.000000
O O11 0.768774 0.750000 0.598598
O O12 0.777249 0.000000 0.500000
#
# Coordination Sequence:
#
# PCOD9540218 Si02
#       4
#    16  16  16  16
#     4  11  20  28  41  61  85 114 144 176 211 247
#     4   9  18  32  45  61  85 112 142 175 211 250
#     4   9  16  26  40  57  79 109 141 171 205 246
#     4   9  18  31  47  63  83 111 141 176 215 251
#
# _framework density 14.653294000000001
#
# number of rings (size 3 to 8) (size 9 to 14) (size 15 to 20)
#    0.000    2.500    0.000    6.750    0.000    5.500 
#    0.000    2.500    0.000    0.000    0.000    0.000 
#    0.000    1.000    0.000    3.250    0.000    4.500 
#
# Total GULP energy -178289.828722 kJ/mol
# GULP energy per Si atom -5571.557148 kJ/mol
# Density = 1.461994 g / cm^3
# Si number density = 14.653294 Si / 1000 Ang^3
#
#
#
# Elastic Constant Matrix: (Units=GPa)
#
#
# Indices 1 2 3 4 5 6 
#
# 1 156.6247 56.4890 51.4441 0.0000 0.0000 0.0000
# 2 56.4890 67.5157 27.2173 0.0000 0.0000 0.0000
# 3 51.4441 27.2173 71.8461 0.0000 0.0000 0.0000
# 4 0.0000 0.0000 0.0000 21.0376 0.0000 0.0000
# 5 0.0000 0.0000 0.0000 0.0000 20.6307 0.0000
# 6 0.0000 0.0000 0.0000 0.0000 0.0000 24.6782
#
#
#
# Elastic Compliance Matrix: (Units=1/GPa)
#
#
# Indices 1 2 3 4 5 6 
#
# 1 0.010432 -0.006748 -0.004914 0.000000 0.000000 0.000000
# 2 -0.006748 0.021845 -0.003444 0.000000 0.000000 0.000000
# 3 -0.004914 -0.003444 0.018742 0.000000 0.000000 0.000000
# 4 0.000000 0.000000 0.000000 0.047534 0.000000 0.000000
# 5 0.000000 0.000000 0.000000 0.000000 0.048471 0.000000
# 6 0.000000 0.000000 0.000000 0.000000 0.000000 0.040522
#
#
# Mechanical properties :
#
#
# Convention : Reuss Voigt Hill
#
# Bulk Modulus (GPa) = 48.05718 62.92081 55.48900
# Shear Modulus (GPa) = 22.25257 23.99170 23.12213
#
# Velocity S-wave (km/s) = 3.90116 4.05073 3.97665
# Velocity P-wave (km/s) = 7.29105 8.05673 7.68343
#
# Compressibility (1/GPa) = 0.02080854
#
# Stress axis : x y z
#
# Youngs Moduli (GPa) = 95.85698 45.77630 53.35703
#
# Poissons Ratio (x) = 0.30888 0.26218
# Poissons Ratio (y) = 0.64680 0.18377
# Poissons Ratio (z) = 0.47100 0.15766
#
# Static dielectric constant tensor:
#      x y z
#    x 1.518210 0.000000 0.000000 
#    y 0.000000 1.490440 0.000000 
#    z 0.000000 0.000000 1.460360 
# 
# From -- ./inp_files/29321.got.cif
#   From: 2010.05.17/outbox.cif.g08.bks.cpg/sg74_15_cif.got.tgz:29321.got - 2010.06.03 17:57:02.
