data_PCOD9540293
_publ_section_title
;
Structure prediction by ZEFSAII (Michael W. Deem and Ramdas Pophale) SiO2 
 PCOD9540293
Probable space group: I M M A
;
_chemical_formula_sum "Si O2"
_cell_formula_units_Z 64
_cell_length_a 28.945224
_cell_length_b 8.933456
_cell_length_c 14.596563
_cell_angle_alpha 90.000000
_cell_angle_beta 90.000000
_cell_angle_gamma 90.000000
_cell_volume 3774.392179
_symmetry_space_group_name_H-M "I M M A"
_symmetry_group_IT_number 74
_symmetry_cell_setting 'orthorhombic'
loop_
_space_group_symop_operation_xyz
x,y,z
-x,1/2-y,z
x,-y,-z
-x,1/2+y,-z
-x,-y,-z
x,1/2+y,-z
-x,y,z
x,1/2-y,z
1/2+x,1/2+y,1/2+z
1/2-x,-y,1/2+z
1/2+x,1/2-y,1/2-z
1/2-x,y,1/2-z
1/2-x,1/2-y,1/2-z
1/2+x,y,1/2-z
1/2-x,1/2+y,1/2+z
1/2+x,-y,1/2+z
loop_
_atom_site_type_symbol
_atom_site_label
_atom_site_fract_x
_atom_site_fract_y
_atom_site_fract_z
Si Si1 0.672925 0.073173 0.406502
Si Si2 0.235402 0.419415 0.643071
Si Si3 0.860194 0.069091 0.717428
Si Si4 0.052596 0.569753 0.400653
O O1 0.667592 0.250000 0.408303
O O2 0.654655 0.000000 0.500000
O O3 0.727188 0.028561 0.399989
O O4 0.649587 0.005165 0.315398
O O5 0.239478 0.250000 0.605181
O O6 0.250000 0.410452 0.750000
O O7 0.182185 0.468371 0.648246
O O8 0.858411 0.250000 0.728758
O O9 0.908578 0.025048 0.672293
O O10 0.062142 0.500000 0.500000
O O11 0.054536 0.750000 0.408495
O O12 0.000000 0.528155 0.374559
#
# Coordination Sequence:
#
# PCOD9540293 Si02
#       4
#    16  16  16  16
#     4  11  21  32  48  70  98 132 168 204 241 286
#     4   8  15  29  46  65  93 126 158 195 236 277
#     4   9  18  33  51  72 100 131 163 201 244 287
#     4   9  18  33  53  76 101 128 158 196 243 292
#
# _framework density 16.956372999999999
#
# number of rings (size 3 to 8) (size 9 to 14) (size 15 to 20)
#    0.000    2.750    0.000    3.750    0.000    6.500 
#    0.000    2.500    0.000    0.750    0.000    0.000 
#    0.000    0.000    0.000    0.000    0.000    0.000 
#
# Total GULP energy -178344.994845 kJ/mol
# GULP energy per Si atom -5573.281089 kJ/mol
# Density = 1.691778 g / cm^3
# Si number density = 16.956373 Si / 1000 Ang^3
#
#
#
# Elastic Constant Matrix: (Units=GPa)
#
#
# Indices 1 2 3 4 5 6 
#
# 1 125.0020 41.3296 71.8679 0.0000 0.0000 0.0000
# 2 41.3296 55.2956 43.4917 0.0000 0.0000 0.0000
# 3 71.8679 43.4917 94.6878 0.0000 0.0000 0.0000
# 4 0.0000 0.0000 0.0000 25.3134 0.0000 0.0000
# 5 0.0000 0.0000 0.0000 0.0000 21.9633 0.0000
# 6 0.0000 0.0000 0.0000 0.0000 0.0000 10.6859
#
#
#
# Elastic Compliance Matrix: (Units=1/GPa)
#
#
# Indices 1 2 3 4 5 6 
#
# 1 0.014600 -0.003439 -0.009502 0.000000 0.000000 0.000000
# 2 -0.003439 0.029123 -0.010767 0.000000 0.000000 0.000000
# 3 -0.009502 -0.010767 0.022718 0.000000 0.000000 0.000000
# 4 0.000000 0.000000 0.000000 0.039505 0.000000 0.000000
# 5 0.000000 0.000000 0.000000 0.000000 0.045531 0.000000
# 6 0.000000 0.000000 0.000000 0.000000 0.000000 0.093581
#
#
# Mechanical properties :
#
#
# Convention : Reuss Voigt Hill
#
# Bulk Modulus (GPa) = 52.55792 65.37376 58.96584
# Shear Modulus (GPa) = 16.73284 19.47894 18.10589
#
# Velocity S-wave (km/s) = 3.14477 3.39303 3.27125
# Velocity P-wave (km/s) = 6.65202 7.34765 7.00847
#
# Compressibility (1/GPa) = 0.01902663
#
# Stress axis : x y z
#
# Youngs Moduli (GPa) = 68.49470 34.33674 44.01802
#
# Poissons Ratio (x) = 0.11808 0.41824
# Poissons Ratio (y) = 0.23555 0.47393
# Poissons Ratio (z) = 0.65081 0.36969
#
# Static dielectric constant tensor:
#      x y z
#    x 1.598130 0.000000 0.000000 
#    y 0.000000 1.568900 0.000000 
#    z 0.000000 0.000000 1.571260 
# 
# From -- ./inp_files/29318.got.cif
#   From: 2010.05.17/outbox.cif.g08.bks.cpg/sg74_15_cif.got.tgz:29318.got - 2010.06.03 17:57:02.
