data_PCOD9540227
_publ_section_title
;
Structure prediction by ZEFSAII (Michael W. Deem and Ramdas Pophale) SiO2 
 PCOD9540227
Probable space group: I M M A
;
_chemical_formula_sum "Si O2"
_cell_formula_units_Z 56
_cell_length_a 18.347433
_cell_length_b 8.815866
_cell_length_c 22.332197
_cell_angle_alpha 90.000000
_cell_angle_beta 90.000000
_cell_angle_gamma 90.000000
_cell_volume 3612.199607
_symmetry_space_group_name_H-M "I M M A"
_symmetry_group_IT_number 74
_symmetry_cell_setting 'orthorhombic'
loop_
_space_group_symop_operation_xyz
x,y,z
-x,1/2-y,z
x,-y,-z
-x,1/2+y,-z
-x,-y,-z
x,1/2+y,-z
-x,y,z
x,1/2-y,z
1/2+x,1/2+y,1/2+z
1/2-x,-y,1/2+z
1/2+x,1/2-y,1/2-z
1/2-x,y,1/2-z
1/2-x,1/2-y,1/2-z
1/2+x,y,1/2-z
1/2-x,1/2+y,1/2+z
1/2+x,-y,1/2+z
loop_
_atom_site_type_symbol
_atom_site_label
_atom_site_fract_x
_atom_site_fract_y
_atom_site_fract_z
Si Si1 0.380537 0.070270 0.652168
Si Si2 0.000000 0.068963 0.066055
Si Si3 0.266743 0.074665 0.178453
Si Si4 0.081544 0.567215 0.718467
O O1 0.389658 0.250000 0.648570
O O2 0.429855 0.989475 0.602746
O O3 0.295599 0.024058 0.647879
O O4 0.407203 0.011422 0.717274
O O5 0.000000 0.250000 0.063937
O O6 0.000000 0.000000 0.000000
O O7 0.259900 0.250000 0.159186
O O8 0.250000 0.071131 0.250000
O O9 0.350966 0.024255 0.175704
O O10 0.087605 0.750000 0.727665
O O11 0.000000 0.534379 0.696469
#
# Coordination Sequence:
#
# PCOD9540227 Si02
#       4
#    16   8  16  16
#     4  11  20  30  44  64  88 117 150 186 228 268
#     4  12  24  38  52  66  86 114 152 194 231 270
#     4   8  15  27  42  61  85 118 154 183 219 265
#     4   9  16  27  44  64  89 123 156 185 220 265
#
# _framework density 15.503019999999999
#
# number of rings (size 3 to 8) (size 9 to 14) (size 15 to 20)
#    0.000    2.286    1.429    5.571    0.000    5.143 
#    0.000    0.000    0.000    0.000    0.000    0.000 
#    0.000    1.143    0.000    3.143    0.000    4.571 
#
# Total GULP energy -156036.841427 kJ/mol
# GULP energy per Si atom -5572.744337 kJ/mol
# Density = 1.546773 g / cm^3
# Si number density = 15.503020 Si / 1000 Ang^3
#
#
#
# Elastic Constant Matrix: (Units=GPa)
#
#
# Indices 1 2 3 4 5 6 
#
# 1 162.4370 53.9206 36.1047 0.0000 0.0000 0.0000
# 2 53.9206 91.2560 34.7209 0.0000 0.0000 0.0000
# 3 36.1047 34.7209 43.7335 0.0000 0.0000 0.0000
# 4 0.0000 0.0000 0.0000 16.7630 0.0000 0.0000
# 5 0.0000 0.0000 0.0000 0.0000 9.4233 0.0000
# 6 0.0000 0.0000 0.0000 0.0000 0.0000 12.7992
#
#
#
# Elastic Compliance Matrix: (Units=1/GPa)
#
#
# Indices 1 2 3 4 5 6 
#
# 1 0.008156 -0.003234 -0.004165 0.000000 0.000000 0.000000
# 2 -0.003234 0.016983 -0.010814 0.000000 0.000000 0.000000
# 3 -0.004165 -0.010814 0.034890 0.000000 0.000000 0.000000
# 4 0.000000 0.000000 0.000000 0.059655 0.000000 0.000000
# 5 0.000000 0.000000 0.000000 0.000000 0.106120 0.000000
# 6 0.000000 0.000000 0.000000 0.000000 0.000000 0.078130
#
#
# Mechanical properties :
#
#
# Convention : Reuss Voigt Hill
#
# Bulk Modulus (GPa) = 42.36806 60.76876 51.56841
# Shear Modulus (GPa) = 14.35844 19.30913 16.83378
#
# Velocity S-wave (km/s) = 3.04661 3.53300 3.29878
# Velocity P-wave (km/s) = 6.30587 7.47836 6.91700
#
# Compressibility (1/GPa) = 0.02360269
#
# Stress axis : x y z
#
# Youngs Moduli (GPa) = 122.61502 58.88098 28.66185
#
# Poissons Ratio (x) = 0.19043 0.11939
# Poissons Ratio (y) = 0.39655 0.30994
# Poissons Ratio (z) = 0.51073 0.63671
#
# Static dielectric constant tensor:
#      x y z
#    x 1.586280 0.000000 0.000000 
#    y 0.000000 1.514800 0.000000 
#    z 0.000000 0.000000 1.467830 
# 
# From -- ./inp_files/38848.got.cif
#   From: 2010.05.17/outbox.cif.g08.bks.cpg/sg74_20_cif.got.tgz:38848.got - 2010.06.03 17:57:02.
