data_PCOD9540994
_publ_section_title
;
Structure prediction by ZEFSAII (Michael W. Deem and Ramdas Pophale) SiO2 
 PCOD9540994
Probable space group: P 4
;
_chemical_formula_sum "Si O2"
_cell_formula_units_Z 29
_cell_length_a 10.844201
_cell_length_b 10.844201
_cell_length_c 13.082174
_cell_angle_alpha 90.000000
_cell_angle_beta 90.000000
_cell_angle_gamma 90.000000
_cell_volume 1538.420430
_symmetry_space_group_name_H-M "P 4"
_symmetry_group_IT_number 75
_symmetry_cell_setting 'tetragonal'
loop_
_space_group_symop_operation_xyz
x,y,z
-y,x,z
-x,-y,z
y,-x,z
loop_
_atom_site_type_symbol
_atom_site_label
_atom_site_fract_x
_atom_site_fract_y
_atom_site_fract_z
Si Si1 0.813494 0.091077 0.825960
Si Si2 0.097580 0.183204 0.591232
Si Si3 0.547051 0.861984 0.336766
Si Si4 0.573694 0.770790 0.117382
Si Si5 0.196724 0.940515 0.206325
Si Si6 0.181970 0.317269 0.021973
Si Si7 0.500000 0.500000 0.181065
Si Si8 0.209271 0.291102 0.394218
O O1 0.775931 0.114186 0.708519
O O2 0.945834 0.158093 0.839764
O O3 0.718733 0.136771 0.910413
O O4 0.154511 0.271160 0.506526
O O5 0.951540 0.159922 0.577153
O O6 0.564912 0.861869 0.213801
O O7 0.673553 0.800037 0.378869
O O8 0.435015 0.770397 0.369372
O O9 0.500000 0.000000 0.369051
O O10 0.698265 0.763141 0.052680
O O11 0.460001 0.788988 0.040767
O O12 0.564899 0.636713 0.170840
O O13 0.279927 0.915669 0.108573
O O14 0.257426 0.897021 0.311545
O O15 0.077157 0.853365 0.202698
#
# Coordination Sequence:
#
# PCOD9540994 Si02
#       8
#     4   4   4   4   4   4   1   4
#     4   9  19  36  57  80 108 145 189 239 294 348
#     4   9  18  36  61  84 109 144 189 244 303 358
#     4  12  24  38  57  86 121 156 196 245 296 352
#     4  10  20  34  53  75 112 151 192 234 288 348
#     4  11  21  32  51  78 109 143 181 232 290 348
#     4  11  20  34  53  78 109 148 188 237 284 356
#     4   8  16  36  52  72  96 150 200 228 264 340
#     4  12  23  38  58  83 117 154 192 239 288 353
#
# _framework density 18.850504000000001
#
# number of rings (size 3 to 8) (size 9 to 14) (size 15 to 20)
#    0.000    1.517    2.759    4.966    0.000    3.586 
#    0.000    1.379    0.000    3.310    0.000    1.931 
#    0.000    0.000    0.000    0.000    0.000    0.000 
#
# Total GULP energy -161636.861215 kJ/mol
# GULP energy per Si atom -5573.684869 kJ/mol
# Density = 1.880760 g / cm^3
# Si number density = 18.850504 Si / 1000 Ang^3
#
#
#
# Elastic Constant Matrix: (Units=GPa)
#
#
# Indices 1 2 3 4 5 6 
#
# 1 60.6557 -7.6776 23.8323 0.0000 0.0000 1.1834
# 2 -7.6776 60.6557 23.8323 0.0000 0.0000 -1.1834
# 3 23.8323 23.8323 115.9620 0.0000 0.0000 0.0000
# 4 0.0000 0.0000 0.0000 14.7005 0.0000 0.0000
# 5 0.0000 0.0000 0.0000 0.0000 14.7005 0.0000
# 6 1.1834 -1.1834 0.0000 0.0000 0.0000 25.9329
#
#
#
# Elastic Compliance Matrix: (Units=1/GPa)
#
#
# Indices 1 2 3 4 5 6 
#
# 1 0.018907 0.004250 -0.004759 0.000000 0.000000 -0.000669
# 2 0.004250 0.018907 -0.004759 0.000000 0.000000 0.000669
# 3 -0.004759 -0.004759 0.010580 0.000000 0.000000 0.000000
# 4 0.000000 0.000000 0.000000 0.068025 0.000000 0.000000
# 5 0.000000 0.000000 0.000000 0.000000 0.068025 0.000000
# 6 -0.000669 0.000669 0.000000 0.000000 0.000000 0.038622
#
#
# Mechanical properties :
#
#
# Convention : Reuss Voigt Hill
#
# Bulk Modulus (GPa) = 26.41462 35.24971 30.83216
# Shear Modulus (GPa) = 20.30680 24.21921 22.26300
#
# Velocity S-wave (km/s) = 3.28572 3.58831 3.44034
# Velocity P-wave (km/s) = 5.33270 5.99234 5.67212
#
# Compressibility (1/GPa) = 0.03785783
#
# Stress axis : x y z
#
# Youngs Moduli (GPa) = 52.88910 52.88910 94.52009
#
# Poissons Ratio (x) = -0.22479 0.44985
# Poissons Ratio (y) = -0.22479 0.44985
# Poissons Ratio (z) = 0.25172 0.25172
#
# Static dielectric constant tensor:
#      x y z
#    x 1.689300 0.000000 0.000000 
#    y 0.000000 1.689300 0.000000 
#    z 0.000000 0.000000 1.619920 
# 
# From -- ./inp_files/580.got.cif
#   From: 2010.05.17/outbox.cif.g08.bks.cpg/sg75_cif.got.tgz:580.got - 2010.06.03 18:42:43.
