data_PCOD9540032
_publ_section_title
;
Structure prediction by ZEFSAII (Michael W. Deem and Ramdas Pophale) SiO2 
 PCOD9540032
Probable space group: I M M A
;
_chemical_formula_sum "Si O2"
_cell_formula_units_Z 56
_cell_length_a 27.447872
_cell_length_b 8.088835
_cell_length_c 11.406723
_cell_angle_alpha 90.000000
_cell_angle_beta 90.000000
_cell_angle_gamma 90.000000
_cell_volume 2532.535557
_symmetry_space_group_name_H-M "I M M A"
_symmetry_group_IT_number 74
_symmetry_cell_setting 'orthorhombic'
loop_
_space_group_symop_operation_xyz
x,y,z
-x,1/2-y,z
x,-y,-z
-x,1/2+y,-z
-x,-y,-z
x,1/2+y,-z
-x,y,z
x,1/2-y,z
1/2+x,1/2+y,1/2+z
1/2-x,-y,1/2+z
1/2+x,1/2-y,1/2-z
1/2-x,y,1/2-z
1/2-x,1/2-y,1/2-z
1/2+x,y,1/2-z
1/2-x,1/2+y,1/2+z
1/2+x,-y,1/2+z
loop_
_atom_site_type_symbol
_atom_site_label
_atom_site_fract_x
_atom_site_fract_y
_atom_site_fract_z
Si Si1 0.365875 0.500000 0.500000
Si Si2 0.555377 0.750000 0.256591
Si Si3 0.803131 0.943956 0.791688
Si Si4 0.605710 0.941280 0.866245
Si Si5 0.443247 0.750000 0.540554
O O1 0.328731 0.547626 0.395928
O O2 0.406197 0.604798 0.571521
O O3 0.500000 0.750000 0.218242
O O4 0.578522 0.583350 0.206479
O O5 0.556185 0.750000 0.398336
O O6 0.800049 0.750000 0.833129
O O7 0.750000 0.997890 0.750000
O O8 0.839225 0.944732 0.681613
O O9 0.587904 0.750000 0.853729
O O10 0.603233 0.000000 0.000000
O O11 0.500000 0.750000 0.579326
#
# Coordination Sequence:
#
# PCOD9540032 Si02
#       5
#     8   8  16  16   8
#     4  12  21  42  68  96 132 170 217 274 332 402
#     4  11  24  44  65  96 133 173 224 274 330 398
#     4  10  23  41  64  95 130 172 216 269 333 394
#     4  11  23  43  66  93 133 174 219 273 327 394
#     4  11  24  42  66  96 134 173 221 277 332 400
#
# _framework density 22.112226
#
# number of rings (size 3 to 8) (size 9 to 14) (size 15 to 20)
#    0.000    1.143    5.714    0.429    2.000    1.143 
#    0.000    2.857    0.000    0.000    0.000    0.000 
#    0.000    0.000    0.000    0.000    0.000    0.000 
#
# Total GULP energy -155999.453978 kJ/mol
# GULP energy per Si atom -5571.409071 kJ/mol
# Density = 2.206190 g / cm^3
# Si number density = 22.112226 Si / 1000 Ang^3
#
#
#
# Elastic Constant Matrix: (Units=GPa)
#
#
# Indices 1 2 3 4 5 6 
#
# 1 193.4253 59.9963 41.2611 0.0000 0.0000 0.0000
# 2 59.9963 128.1583 31.7533 0.0000 0.0000 0.0000
# 3 41.2611 31.7533 101.6501 0.0000 0.0000 0.0000
# 4 0.0000 0.0000 0.0000 113.1374 0.0000 0.0000
# 5 0.0000 0.0000 0.0000 0.0000 31.5198 0.0000
# 6 0.0000 0.0000 0.0000 0.0000 0.0000 18.2596
#
#
#
# Elastic Compliance Matrix: (Units=1/GPa)
#
#
# Indices 1 2 3 4 5 6 
#
# 1 0.006333 -0.002523 -0.001782 0.000000 0.000000 0.000000
# 2 -0.002523 0.009463 -0.001932 0.000000 0.000000 0.000000
# 3 -0.001782 -0.001932 0.011165 0.000000 0.000000 0.000000
# 4 0.000000 0.000000 0.000000 0.008839 0.000000 0.000000
# 5 0.000000 0.000000 0.000000 0.000000 0.031726 0.000000
# 6 0.000000 0.000000 0.000000 0.000000 0.000000 0.054766
#
#
# Mechanical properties :
#
#
# Convention : Reuss Voigt Hill
#
# Bulk Modulus (GPa) = 69.03428 76.58390 72.80909
# Shear Modulus (GPa) = 35.81828 51.93157 43.87492
#
# Velocity S-wave (km/s) = 4.02909 4.85144 4.45926
# Velocity P-wave (km/s) = 7.27547 8.12966 7.71440
#
# Compressibility (1/GPa) = 0.01448556
#
# Stress axis : x y z
#
# Youngs Moduli (GPa) = 157.90907 105.67911 89.56858
#
# Poissons Ratio (x) = 0.26663 0.15965
# Poissons Ratio (y) = 0.39841 0.17303
# Poissons Ratio (z) = 0.28146 0.20415
#
# Static dielectric constant tensor:
#      x y z
#    x 1.764670 0.000000 0.000000 
#    y 0.000000 1.050390 0.000000 
#    z 0.000000 0.000000 1.797610 
# 
# From -- ./inp_files/17324.got.cif
#   From: 2010.05.17/outbox.cif.g08.bks.cpg/sg74_9_cif.got.tgz:17324.got - 2010.06.03 17:57:02.
