data_PCOD9540468
_publ_section_title
;
Structure prediction by ZEFSAII (Michael W. Deem and Ramdas Pophale) SiO2 
 PCOD9540468
Probable space group: I M M A
;
_chemical_formula_sum "Si O2"
_cell_formula_units_Z 96
_cell_length_a 21.188311
_cell_length_b 14.825317
_cell_length_c 14.730616
_cell_angle_alpha 90.000000
_cell_angle_beta 90.000000
_cell_angle_gamma 90.000000
_cell_volume 4627.231584
_symmetry_space_group_name_H-M "I M M A"
_symmetry_group_IT_number 74
_symmetry_cell_setting 'orthorhombic'
loop_
_space_group_symop_operation_xyz
x,y,z
-x,1/2-y,z
x,-y,-z
-x,1/2+y,-z
-x,-y,-z
x,1/2+y,-z
-x,y,z
x,1/2-y,z
1/2+x,1/2+y,1/2+z
1/2-x,-y,1/2+z
1/2+x,1/2-y,1/2-z
1/2-x,y,1/2-z
1/2-x,1/2-y,1/2-z
1/2+x,y,1/2-z
1/2-x,1/2+y,1/2+z
1/2+x,-y,1/2+z
loop_
_atom_site_type_symbol
_atom_site_label
_atom_site_fract_x
_atom_site_fract_y
_atom_site_fract_z
Si Si1 0.389555 0.004543 0.221629
Si Si2 0.193328 0.106969 0.014197
Si Si3 0.186070 0.346942 0.808085
Si Si4 0.568259 0.404014 0.949742
Si Si5 0.069591 0.146137 0.132839
Si Si6 0.828603 0.349800 0.410574
O O1 0.426592 0.074061 0.285550
O O2 0.348909 0.070088 0.156493
O O3 0.350147 0.938063 0.284745
O O4 0.423829 0.934290 0.154164
O O5 0.128319 0.129631 0.065721
O O6 0.255075 0.138604 0.068118
O O7 0.197207 0.150629 0.915177
O O8 0.197562 0.000000 0.000000
O O9 0.154566 0.250000 0.785271
O O10 0.250000 0.349765 0.750000
O O11 0.500000 0.358549 0.964112
O O12 0.565250 0.500000 0.000000
O O13 0.628311 0.357882 0.997810
O O14 0.074097 0.250000 0.165506
O O15 0.000000 0.136285 0.088949
O O16 0.840094 0.250000 0.371819
#
# Coordination Sequence:
#
# PCOD9540468 Si02
#       6
#    16  16  16  16  16  16
#     4  11  22  40  63  96 133 171 217 268 331 394
#     4  12  23  44  68  93 127 171 221 272 328 394
#     4  11  23  40  63  93 130 171 218 272 330 388
#     4   9  19  37  60  88 126 170 216 261 315 387
#     4  11  25  44  67  96 132 174 220 274 336 401
#     4  11  23  39  65  98 134 174 218 271 332 396
#
# _framework density 20.746746999999999
#
# number of rings (size 3 to 8) (size 9 to 14) (size 15 to 20)
#    0.000    1.167    1.667    6.000    0.000    3.333 
#    0.000    1.667    0.000    2.500    0.000    0.000 
#    0.000    0.000    0.000    0.000    0.000    0.000 
#
# Total GULP energy -267851.522752 kJ/mol
# GULP energy per Si atom -5580.240057 kJ/mol
# Density = 2.069953 g / cm^3
# Si number density = 20.746747 Si / 1000 Ang^3
#
#
#
# Elastic Constant Matrix: (Units=GPa)
#
#
# Indices 1 2 3 4 5 6 
#
# 1 136.4029 23.7077 34.4005 0.0000 0.0000 0.0000
# 2 23.7077 138.3632 4.9379 0.0000 0.0000 0.0000
# 3 34.4005 4.9379 74.7281 0.0000 0.0000 0.0000
# 4 0.0000 0.0000 0.0000 -46.8831 0.0000 0.0000
# 5 0.0000 0.0000 0.0000 0.0000 18.6400 0.0000
# 6 0.0000 0.0000 0.0000 0.0000 0.0000 39.5877
#
#
#
# Elastic Compliance Matrix: (Units=1/GPa)
#
#
# Indices 1 2 3 4 5 6 
#
# 1 0.008530 -0.001324 -0.003839 0.000000 0.000000 0.000000
# 2 -0.001324 0.007450 0.000117 0.000000 0.000000 0.000000
# 3 -0.003839 0.000117 0.015141 0.000000 0.000000 0.000000
# 4 0.000000 0.000000 0.000000 -0.021330 0.000000 0.000000
# 5 0.000000 0.000000 0.000000 0.000000 0.053648 0.000000
# 6 0.000000 0.000000 0.000000 0.000000 0.000000 0.025260
#
#
# Mechanical properties :
#
#
# Convention : Reuss Voigt Hill
#
# Bulk Modulus (GPa) = 47.55357 52.84291 50.19824
# Shear Modulus (GPa) = 47.25830 21.36548 34.31189
#
# Velocity S-wave (km/s) = 4.77788 3.21257 4.07116
# Velocity P-wave (km/s) = 7.30809 6.26790 6.80789
#
# Compressibility (1/GPa) = 0.02102892
#
# Stress axis : x y z
#
# Youngs Moduli (GPa) = 117.23856 134.22623 66.04433
#
# Poissons Ratio (x) = 0.17778 0.25355
# Poissons Ratio (y) = 0.15528 -0.00776
# Poissons Ratio (z) = 0.45008 -0.01576
#
# Static dielectric constant tensor:
#      x y z
#    x 1.749870 0.000000 0.000000 
#    y 0.000000 1.750110 0.000000 
#    z 0.000000 0.000000 1.784740 
# 
# From -- ./inp_files/35263.got.cif
#   From: 2010.05.17/outbox.cif.g08.bks.cpg/sg74_18_cif.got.tgz:35263.got - 2010.06.03 17:57:02.
