data_PCOD9540608
_publ_section_title
;
Structure prediction by ZEFSAII (Michael W. Deem and Ramdas Pophale) SiO2 
 PCOD9540608
Probable space group: I M M A
;
_chemical_formula_sum "Si O2"
_cell_formula_units_Z 52
_cell_length_a 7.488266
_cell_length_b 19.536073
_cell_length_c 14.354501
_cell_angle_alpha 90.000000
_cell_angle_beta 90.000000
_cell_angle_gamma 90.000000
_cell_volume 2099.938773
_symmetry_space_group_name_H-M "I M M A"
_symmetry_group_IT_number 74
_symmetry_cell_setting 'orthorhombic'
loop_
_space_group_symop_operation_xyz
x,y,z
-x,1/2-y,z
x,-y,-z
-x,1/2+y,-z
-x,-y,-z
x,1/2+y,-z
-x,y,z
x,1/2-y,z
1/2+x,1/2+y,1/2+z
1/2-x,-y,1/2+z
1/2+x,1/2-y,1/2-z
1/2-x,y,1/2-z
1/2-x,1/2-y,1/2-z
1/2+x,y,1/2-z
1/2-x,1/2+y,1/2+z
1/2+x,-y,1/2+z
loop_
_atom_site_type_symbol
_atom_site_label
_atom_site_fract_x
_atom_site_fract_y
_atom_site_fract_z
Si Si1 0.204954 0.326859 0.058174
Si Si2 0.500000 0.500000 0.000000
Si Si3 0.213131 0.032297 0.142211
Si Si4 0.211667 0.171222 0.649423
O O1 0.284692 0.250000 0.066037
O O2 0.279212 0.390082 0.116341
O O3 0.000000 0.321208 0.087411
O O4 0.209588 0.348982 0.949985
O O5 0.657605 0.512571 0.078862
O O6 0.250000 0.021034 0.250000
O O7 0.000000 0.025388 0.122827
O O8 0.278096 0.250000 0.657974
O O9 0.250000 0.138036 0.750000
O O10 0.000000 0.171679 0.637100
#
# Coordination Sequence:
#
# PCOD9540608 Si02
#       4
#    16   4  16  16
#     4   9  19  36  61  97 140 180 223 279 352 440
#     4  12  26  48  78 100 140 192 246 310 368 422
#     4  11  24  46  76 106 141 190 241 303 375 435
#     4   9  16  26  45  73 115 169 216 262 322 393
#
# _framework density 24.762626000000001
#
# number of rings (size 3 to 8) (size 9 to 14) (size 15 to 20)
#    0.000    2.154    1.538    1.385    2.154    4.308 
#    0.000    1.538    6.769    0.000    0.000    0.000 
#    0.000    0.000    0.000    0.000    0.000    0.000 
#
# Total GULP energy -144735.045940 kJ/mol
# GULP energy per Si atom -5566.732536 kJ/mol
# Density = 2.470627 g / cm^3
# Si number density = 24.762626 Si / 1000 Ang^3
#
#
#
# Elastic Constant Matrix: (Units=GPa)
#
#
# Indices 1 2 3 4 5 6 
#
# 1 149.2695 7.1799 15.2707 0.0000 0.0000 0.0000
# 2 7.1799 128.8660 4.1649 0.0000 0.0000 0.0000
# 3 15.2707 4.1649 141.1600 0.0000 0.0000 0.0000
# 4 0.0000 0.0000 0.0000 20.9033 0.0000 0.0000
# 5 0.0000 0.0000 0.0000 0.0000 31.7805 0.0000
# 6 0.0000 0.0000 0.0000 0.0000 0.0000 -17.4065
#
#
#
# Elastic Compliance Matrix: (Units=1/GPa)
#
#
# Indices 1 2 3 4 5 6 
#
# 1 0.006790 -0.000355 -0.000724 0.000000 0.000000 0.000000
# 2 -0.000355 0.007786 -0.000191 0.000000 0.000000 0.000000
# 3 -0.000724 -0.000191 0.007168 0.000000 0.000000 0.000000
# 4 0.000000 0.000000 0.000000 0.047839 0.000000 0.000000
# 5 0.000000 0.000000 0.000000 0.000000 0.031466 0.000000
# 6 0.000000 0.000000 0.000000 0.000000 0.000000 -0.057450
#
#
# Mechanical properties :
#
#
# Convention : Reuss Voigt Hill
#
# Bulk Modulus (GPa) = 52.07308 52.50296 52.28802
# Shear Modulus (GPa) = 95.16179 33.23412 64.19795
#
# Velocity S-wave (km/s) = 6.20589 3.66745 5.09722
# Velocity P-wave (km/s) = 8.51030 6.25956 7.47019
#
# Compressibility (1/GPa) = 0.01920378
#
# Stress axis : x y z
#
# Youngs Moduli (GPa) = 147.26572 128.43635 139.50624
#
# Poissons Ratio (x) = 0.04559 0.10102
# Poissons Ratio (y) = 0.05227 0.02669
# Poissons Ratio (z) = 0.10664 0.02457
#
# Static dielectric constant tensor:
#      x y z
#    x 1.863840 0.000000 0.000000 
#    y 0.000000 2.347170 0.000000 
#    z 0.000000 0.000000 1.931880 
# 
# From -- ./inp_files/17204.got.cif
#   From: 2010.05.17/outbox.cif.g08.bks.cpg/sg74_9_cif.got.tgz:17204.got - 2010.06.03 17:57:02.
