data_PCOD9540202
_publ_section_title
;
Structure prediction by ZEFSAII (Michael W. Deem and Ramdas Pophale) SiO2 
 PCOD9540202
Probable space group: I M M A
;
_chemical_formula_sum "Si O2"
_cell_formula_units_Z 112
_cell_length_a 28.683859
_cell_length_b 18.018152
_cell_length_c 12.472906
_cell_angle_alpha 90.000000
_cell_angle_beta 90.000000
_cell_angle_gamma 90.000000
_cell_volume 6446.373647
_symmetry_space_group_name_H-M "I M M A"
_symmetry_group_IT_number 74
_symmetry_cell_setting 'orthorhombic'
loop_
_space_group_symop_operation_xyz
x,y,z
-x,1/2-y,z
x,-y,-z
-x,1/2+y,-z
-x,-y,-z
x,1/2+y,-z
-x,y,z
x,1/2-y,z
1/2+x,1/2+y,1/2+z
1/2-x,-y,1/2+z
1/2+x,1/2-y,1/2-z
1/2-x,y,1/2-z
1/2-x,1/2-y,1/2-z
1/2+x,y,1/2-z
1/2-x,1/2+y,1/2+z
1/2+x,-y,1/2+z
loop_
_atom_site_type_symbol
_atom_site_label
_atom_site_fract_x
_atom_site_fract_y
_atom_site_fract_z
Si Si1 0.312645 0.581240 0.463747
Si Si2 0.204742 0.922047 0.451541
Si Si3 0.209613 0.163809 0.328529
Si Si4 0.358978 0.424354 0.746998
Si Si5 0.553618 0.838403 0.562237
Si Si6 0.945588 0.337569 0.806526
Si Si7 0.858011 0.402351 0.175249
O O1 0.330954 0.500000 0.500000
O O2 0.259720 0.570487 0.425380
O O3 0.339401 0.612618 0.362292
O O4 0.323244 0.620506 0.575922
O O5 0.206193 0.867369 0.552113
O O6 0.173461 0.905706 0.348350
O O7 0.188085 0.000000 0.500000
O O8 0.219424 0.250000 0.336423
O O9 0.250000 0.129220 0.250000
O O10 0.160654 0.147436 0.271540
O O11 0.410742 0.391637 0.756345
O O12 0.355914 0.512699 0.719739
O O13 0.500000 0.855819 0.590568
O O14 0.560817 0.750000 0.578221
O O15 0.558904 0.852418 0.434652
O O16 0.591142 0.883933 0.629756
O O17 0.934664 0.250000 0.789468
O O18 0.000000 0.348592 0.779219
#
# Coordination Sequence:
#
# PCOD9540202 Si02
#       7
#    16  16  16  16  16  16  16
#     4   9  19  31  52  81 113 150 183 221 280 338
#     4  11  21  37  56  77 115 155 194 232 274 336
#     4  11  23  38  57  82 111 152 199 238 281 339
#     4  11  21  33  57  86 112 147 193 230 286 346
#     4   9  18  33  54  80 113 151 185 228 292 351
#     4   9  19  36  56  80 113 151 188 233 292 351
#     4  11  19  34  56  84 115 147 185 236 290 337
#
# _framework density 17.374109000000001
#
# number of rings (size 3 to 8) (size 9 to 14) (size 15 to 20)
#    0.000    1.857    4.286    1.714    0.000    1.143 
#    0.000    2.143    0.000    3.000    0.000    2.000 
#    0.000    0.000    0.000    0.000    0.000    0.000 
#
# Total GULP energy -311755.425689 kJ/mol
# GULP energy per Si atom -5567.061173 kJ/mol
# Density = 1.733456 g / cm^3
# Si number density = 17.374109 Si / 1000 Ang^3
#
#
#
# Elastic Constant Matrix: (Units=GPa)
#
#
# Indices 1 2 3 4 5 6 
#
# 1 82.4018 16.2073 46.2255 0.0000 0.0000 0.0000
# 2 16.2073 36.1253 32.6751 0.0000 0.0000 0.0000
# 3 46.2255 32.6751 85.8921 0.0000 0.0000 0.0000
# 4 0.0000 0.0000 0.0000 20.3182 0.0000 0.0000
# 5 0.0000 0.0000 0.0000 0.0000 20.8559 0.0000
# 6 0.0000 0.0000 0.0000 0.0000 0.0000 26.1760
#
#
#
# Elastic Compliance Matrix: (Units=1/GPa)
#
#
# Indices 1 2 3 4 5 6 
#
# 1 0.017408 0.001012 -0.009754 0.000000 0.000000 0.000000
# 2 0.001012 0.042262 -0.016622 0.000000 0.000000 0.000000
# 3 -0.009754 -0.016622 0.023215 0.000000 0.000000 0.000000
# 4 0.000000 0.000000 0.000000 0.049217 0.000000 0.000000
# 5 0.000000 0.000000 0.000000 0.000000 0.047948 0.000000
# 6 0.000000 0.000000 0.000000 0.000000 0.000000 0.038203
#
#
# Mechanical properties :
#
#
# Convention : Reuss Voigt Hill
#
# Bulk Modulus (GPa) = 31.09645 43.84832 37.47238
# Shear Modulus (GPa) = 17.87631 20.75745 19.31688
#
# Velocity S-wave (km/s) = 3.21114 3.46024 3.33801
# Velocity P-wave (km/s) = 5.62899 6.42315 6.03914
#
# Compressibility (1/GPa) = 0.03215802
#
# Stress axis : x y z
#
# Youngs Moduli (GPa) = 57.44404 23.66202 43.07526
#
# Poissons Ratio (x) = -0.02395 0.42015
# Poissons Ratio (y) = -0.05815 0.71600
# Poissons Ratio (z) = 0.56030 0.39331
#
# Static dielectric constant tensor:
#      x y z
#    x 1.622230 0.000000 0.000000 
#    y 0.000000 1.628180 0.000000 
#    z 0.000000 0.000000 1.623070 
# 
# From -- ./inp_files/26486.got.cif
#   From: 2010.05.17/outbox.cif.g08.bks.cpg/sg74_14_cif.got.tgz:26486.got - 2010.06.03 17:57:02.
