data_PCOD9540721
_publ_section_title
;
Structure prediction by ZEFSAII (Michael W. Deem and Ramdas Pophale) SiO2 
 PCOD9540721
Probable space group: I M M A
;
_chemical_formula_sum "Si O2"
_cell_formula_units_Z 80
_cell_length_a 7.386448
_cell_length_b 28.036939
_cell_length_c 19.287055
_cell_angle_alpha 90.000000
_cell_angle_beta 90.000000
_cell_angle_gamma 90.000000
_cell_volume 3994.221642
_symmetry_space_group_name_H-M "I M M A"
_symmetry_group_IT_number 74
_symmetry_cell_setting 'orthorhombic'
loop_
_space_group_symop_operation_xyz
x,y,z
-x,1/2-y,z
x,-y,-z
-x,1/2+y,-z
-x,-y,-z
x,1/2+y,-z
-x,y,z
x,1/2-y,z
1/2+x,1/2+y,1/2+z
1/2-x,-y,1/2+z
1/2+x,1/2-y,1/2-z
1/2-x,y,1/2-z
1/2-x,1/2-y,1/2-z
1/2+x,y,1/2-z
1/2-x,1/2+y,1/2+z
1/2+x,-y,1/2+z
loop_
_atom_site_type_symbol
_atom_site_label
_atom_site_fract_x
_atom_site_fract_y
_atom_site_fract_z
Si Si1 0.279503 0.303039 0.390395
Si Si2 0.720259 0.851200 0.466917
Si Si3 0.721016 0.450403 0.467464
Si Si4 0.716242 0.304368 0.673426
Si Si5 0.784391 0.598048 0.828621
O O1 0.500000 0.302278 0.387847
O O2 0.217221 0.250000 0.371141
O O3 0.228771 0.316485 0.469522
O O4 0.217405 0.348010 0.344368
O O5 0.500000 0.851247 0.466208
O O6 0.775383 0.904596 0.487052
O O7 0.784738 0.833428 0.392479
O O8 0.783468 0.500000 0.500000
O O9 0.500000 0.451904 0.467250
O O10 0.780253 0.437526 0.389074
O O11 0.500000 0.301653 0.665748
O O12 0.786882 0.250000 0.672182
O O13 0.750000 0.324654 0.750000
O O14 0.750000 0.583674 0.750000
O O15 0.000000 0.600390 0.837414
#
# Coordination Sequence:
#
# PCOD9540721 Si02
#       5
#    16  16  16  16  16
#     4   8  13  22  38  60  82 104 134 168 195 224
#     4   8  13  22  38  58  77 100 134 171 200 229
#     4   8  14  26  44  63  80 101 134 172 202 229
#     4   9  16  25  38  57  81 107 132 161 199 239
#     4   9  17  28  43  63  85 108 132 161 199 238
#
# _framework density 20.028934
#
# number of rings (size 3 to 8) (size 9 to 14) (size 15 to 20)
#    0.000    3.600    0.000    3.000    0.000    2.800 
#    0.000    1.000    0.000    5.400    0.000    0.000 
#    0.000    0.000    0.000    0.000    0.000    0.000 
#
# Total GULP energy -222956.909420 kJ/mol
# GULP energy per Si atom -5573.922735 kJ/mol
# Density = 1.998335 g / cm^3
# Si number density = 20.028934 Si / 1000 Ang^3
#
#
#
# Elastic Constant Matrix: (Units=GPa)
#
#
# Indices 1 2 3 4 5 6 
#
# 1 67.5209 5.2427 -0.5858 0.0000 0.0000 0.0000
# 2 5.2427 122.9401 70.7131 0.0000 0.0000 0.0000
# 3 -0.5858 70.7131 164.9536 -0.0001 0.0000 0.0000
# 4 0.0000 0.0000 -0.0001 12.7234 0.0000 0.0000
# 5 0.0000 0.0000 0.0000 0.0000 15.3390 0.0000
# 6 0.0000 0.0000 0.0000 0.0000 0.0000 -13.7151
#
#
#
# Elastic Compliance Matrix: (Units=1/GPa)
#
#
# Indices 1 2 3 4 5 6 
#
# 1 0.014883 -0.000883 0.000431 0.000000 0.000000 0.000000
# 2 -0.000883 0.010848 -0.004654 0.000000 0.000000 0.000000
# 3 0.000431 -0.004654 0.008059 0.000000 0.000000 0.000000
# 4 0.000000 0.000000 0.000000 0.078595 0.000000 0.000000
# 5 0.000000 0.000000 0.000000 0.000000 0.065194 0.000000
# 6 0.000000 0.000000 0.000000 0.000000 0.000000 -0.072912
#
#
# Mechanical properties :
#
#
# Convention : Reuss Voigt Hill
#
# Bulk Modulus (GPa) = 42.40979 56.23940 49.32460
# Shear Modulus (GPa) = 40.73771 21.53909 31.13840
#
# Velocity S-wave (km/s) = 4.51482 3.28288 3.94721
# Velocity P-wave (km/s) = 6.95689 6.51996 6.74196
#
# Compressibility (1/GPa) = 0.02357946
#
# Stress axis : x y z
#
# Youngs Moduli (GPa) = 67.19296 92.17943 124.08789
#
# Poissons Ratio (x) = 0.08137 -0.05351
# Poissons Ratio (y) = 0.05931 0.57747
# Poissons Ratio (z) = -0.02898 0.42897
#
# Static dielectric constant tensor:
#      x y z
#    x 1.783910 0.000000 0.000000 
#    y 0.000000 1.684620 0.000000 
#    z 0.000000 0.000000 1.707180 
# 
# From -- ./inp_files/27045.got.cif
#   From: 2010.05.17/outbox.cif.g08.bks.cpg/sg74_14_cif.got.tgz:27045.got - 2010.06.03 17:57:02.
