data_PCOD9540117
_publ_section_title
;
Structure prediction by ZEFSAII (Michael W. Deem and Ramdas Pophale) SiO2 
 PCOD9540117
Probable space group: I M M A
;
_chemical_formula_sum "Si O2"
_cell_formula_units_Z 68
_cell_length_a 20.438067
_cell_length_b 7.682784
_cell_length_c 19.885922
_cell_angle_alpha 90.000000
_cell_angle_beta 90.000000
_cell_angle_gamma 90.000000
_cell_volume 3122.512412
_symmetry_space_group_name_H-M "I M M A"
_symmetry_group_IT_number 74
_symmetry_cell_setting 'orthorhombic'
loop_
_space_group_symop_operation_xyz
x,y,z
-x,1/2-y,z
x,-y,-z
-x,1/2+y,-z
-x,-y,-z
x,1/2+y,-z
-x,y,z
x,1/2-y,z
1/2+x,1/2+y,1/2+z
1/2-x,-y,1/2+z
1/2+x,1/2-y,1/2-z
1/2-x,y,1/2-z
1/2-x,1/2-y,1/2-z
1/2+x,y,1/2-z
1/2-x,1/2+y,1/2+z
1/2+x,-y,1/2+z
loop_
_atom_site_type_symbol
_atom_site_label
_atom_site_fract_x
_atom_site_fract_y
_atom_site_fract_z
Si Si1 0.365048 0.541496 0.425257
Si Si2 0.000000 0.057640 0.134328
Si Si3 0.500000 0.460504 0.133501
Si Si4 0.141843 0.545048 0.576722
Si Si5 0.500000 0.750000 0.253241
Si Si6 0.755544 0.953222 0.175348
O O1 0.341590 0.500000 0.500000
O O2 0.370306 0.750000 0.419289
O O3 0.435524 0.461618 0.410909
O O4 0.313631 0.473187 0.370268
O O5 0.000000 0.250000 0.166056
O O6 0.000000 0.902884 0.187989
O O7 0.500000 0.250000 0.149781
O O8 0.433765 0.496829 0.091823
O O9 0.500000 0.594027 0.195438
O O10 0.158892 0.500000 0.500000
O O11 0.150400 0.750000 0.585136
O O12 0.189299 0.461699 0.632191
O O13 0.772579 0.750000 0.184875
O O14 0.750000 0.030448 0.250000
#
# Coordination Sequence:
#
# PCOD9540117 Si02
#       6
#    16   8   8  16   4  16
#     4  11  23  43  67  98 136 181 230 286 341 403
#     4  12  26  44  72 105 137 177 229 278 335 412
#     4  10  26  44  69 106 137 181 231 277 338 408
#     4  11  24  43  68  98 136 178 229 283 337 404
#     4  12  26  44  72 100 150 176 216 280 356 392
#     4  10  24  42  67  97 135 179 227 278 344 409
#
# _framework density 21.777334
#
# number of rings (size 3 to 8) (size 9 to 14) (size 15 to 20)
#    0.000    1.176    1.176    3.176    6.588    4.235 
#    0.000    0.000    0.000    0.000    0.000    0.000 
#    0.000    0.000    0.000    0.000    0.000    0.000 
#
# Total GULP energy -189561.178568 kJ/mol
# GULP energy per Si atom -5575.328781 kJ/mol
# Density = 2.172777 g / cm^3
# Si number density = 21.777334 Si / 1000 Ang^3
#
#
#
# Elastic Constant Matrix: (Units=GPa)
#
#
# Indices 1 2 3 4 5 6 
#
# 1 131.5912 2.0413 65.6487 0.0000 0.0000 0.0000
# 2 2.0413 96.3700 23.5008 0.0000 0.0000 0.0000
# 3 65.6487 23.5008 191.9378 0.0000 0.0000 0.0000
# 4 0.0000 0.0000 0.0000 38.4299 0.0000 0.0000
# 5 0.0000 0.0000 0.0000 0.0000 42.5682 0.0000
# 6 0.0000 0.0000 0.0000 0.0000 0.0000 2.0783
#
#
#
# Elastic Compliance Matrix: (Units=1/GPa)
#
#
# Indices 1 2 3 4 5 6 
#
# 1 0.009195 0.000590 -0.003217 0.000000 0.000000 0.000000
# 2 0.000590 0.010734 -0.001516 0.000000 0.000000 0.000000
# 3 -0.003217 -0.001516 0.006496 0.000000 0.000000 0.000000
# 4 0.000000 0.000000 0.000000 0.026021 0.000000 0.000000
# 5 0.000000 0.000000 0.000000 0.000000 0.023492 0.000000
# 6 0.000000 0.000000 0.000000 0.000000 0.000000 0.481161
#
#
# Mechanical properties :
#
#
# Convention : Reuss Voigt Hill
#
# Bulk Modulus (GPa) = 55.13227 66.92007 61.02617
# Shear Modulus (GPa) = 8.74995 38.52917 23.63956
#
# Velocity S-wave (km/s) = 2.00665 4.21079 3.29829
# Velocity P-wave (km/s) = 5.54438 7.37814 6.52599
#
# Compressibility (1/GPa) = 0.01813820
#
# Stress axis : x y z
#
# Youngs Moduli (GPa) = 108.75262 93.16314 153.94004
#
# Poissons Ratio (x) = -0.05495 0.49526
# Poissons Ratio (y) = -0.06414 0.23337
# Poissons Ratio (z) = 0.34988 0.14123
#
# Static dielectric constant tensor:
#      x y z
#    x 1.794710 0.000000 0.000000 
#    y 0.000000 1.804700 0.000000 
#    z 0.000000 0.000000 1.815480 
# 
# From -- ./inp_files/44897.got.cif
#   From: 2010.05.17/outbox.cif.g08.bks.cpg/sg74_23_cif.got.tgz:44897.got - 2010.06.03 17:57:02.
