data_PCOD9540430
_publ_section_title
;
Structure prediction by ZEFSAII (Michael W. Deem and Ramdas Pophale) SiO2 
 PCOD9540430
Probable space group: I M M A
;
_chemical_formula_sum "Si O2"
_cell_formula_units_Z 104
_cell_length_a 29.365790
_cell_length_b 17.961077
_cell_length_c 9.411801
_cell_angle_alpha 90.000000
_cell_angle_beta 90.000000
_cell_angle_gamma 90.000000
_cell_volume 4964.171758
_symmetry_space_group_name_H-M "I M M A"
_symmetry_group_IT_number 74
_symmetry_cell_setting 'orthorhombic'
loop_
_space_group_symop_operation_xyz
x,y,z
-x,1/2-y,z
x,-y,-z
-x,1/2+y,-z
-x,-y,-z
x,1/2+y,-z
-x,y,z
x,1/2-y,z
1/2+x,1/2+y,1/2+z
1/2-x,-y,1/2+z
1/2+x,1/2-y,1/2-z
1/2-x,y,1/2-z
1/2-x,1/2-y,1/2-z
1/2+x,y,1/2-z
1/2-x,1/2+y,1/2+z
1/2+x,-y,1/2+z
loop_
_atom_site_type_symbol
_atom_site_label
_atom_site_fract_x
_atom_site_fract_y
_atom_site_fract_z
Si Si1 0.135285 0.663822 0.710403
Si Si2 0.781297 0.395721 0.146074
Si Si3 0.708174 0.500000 0.000000
Si Si4 0.861204 0.122129 0.612325
Si Si5 0.791694 0.334191 0.838916
Si Si6 0.553986 0.339783 0.727317
Si Si7 0.449201 0.660010 0.599402
O O1 0.145661 0.750000 0.755268
O O2 0.171630 0.604477 0.768871
O O3 0.135537 0.661328 0.540452
O O4 0.087563 0.641765 0.781697
O O5 0.750000 0.344378 0.250000
O O6 0.743387 0.457976 0.105665
O O7 0.796886 0.371472 0.989976
O O8 0.673208 0.553897 0.082635
O O9 0.835330 0.164930 0.738801
O O10 0.912353 0.114423 0.671092
O O11 0.777948 0.250000 0.872312
O O12 0.750000 0.368390 0.750000
O O13 0.500000 0.351935 0.751523
O O14 0.561812 0.250000 0.746114
O O15 0.563830 0.359934 0.562381
O O16 0.500000 0.631190 0.629065
O O17 0.451782 0.750000 0.597666
#
# Coordination Sequence:
#
# PCOD9540430 Si02
#       7
#    16  16   8  16  16  16  16
#     4  11  22  37  60  94 125 154 198 256 323 376
#     4  12  25  43  62  82 118 162 211 256 310 365
#     4  12  28  46  59  80 119 172 226 256 294 360
#     4  12  24  40  61  88 125 168 209 256 303 371
#     4  11  22  37  60  89 117 150 194 255 321 374
#     4   9  18  36  63  94 124 155 196 252 320 380
#     4   8  16  34  60  91 127 158 186 232 304 386
#
# _framework density 20.950120999999999
#
# number of rings (size 3 to 8) (size 9 to 14) (size 15 to 20)
#    0.000    1.385    3.077    3.692    2.154    4.308 
#    0.000    1.923    0.000    0.000    0.000    2.692 
#    0.000    0.000    0.000    0.000    0.000    0.000 
#
# Total GULP energy -289654.968692 kJ/mol
# GULP energy per Si atom -5570.287859 kJ/mol
# Density = 2.090244 g / cm^3
# Si number density = 20.950121 Si / 1000 Ang^3
#
#
#
# Elastic Constant Matrix: (Units=GPa)
#
#
# Indices 1 2 3 4 5 6 
#
# 1 140.5060 35.2102 82.0511 0.0000 0.0000 0.0000
# 2 35.2102 49.2094 21.5849 0.0000 0.0000 0.0000
# 3 82.0511 21.5849 143.7768 0.0000 0.0000 0.0000
# 4 0.0000 0.0000 0.0000 33.0504 0.0000 0.0000
# 5 0.0000 0.0000 0.0000 0.0000 50.7508 0.0000
# 6 0.0000 0.0000 0.0000 0.0000 0.0000 -38.3505
#
#
#
# Elastic Compliance Matrix: (Units=1/GPa)
#
#
# Indices 1 2 3 4 5 6 
#
# 1 0.012154 -0.006052 -0.006027 0.000000 0.000000 0.000000
# 2 -0.006052 0.024768 -0.000264 0.000000 0.000000 0.000000
# 3 -0.006027 -0.000264 0.010435 0.000000 0.000000 0.000000
# 4 0.000000 0.000000 0.000000 0.030257 0.000000 0.000000
# 5 0.000000 0.000000 0.000000 0.000000 0.019704 0.000000
# 6 0.000000 0.000000 0.000000 0.000000 0.000000 -0.026075
#
#
# Mechanical properties :
#
#
# Convention : Reuss Voigt Hill
#
# Bulk Modulus (GPa) = 44.11485 67.90939 56.01212
# Shear Modulus (GPa) = 48.31602 22.06654 35.19128
#
# Velocity S-wave (km/s) = 4.80754 3.24896 4.10294
# Velocity P-wave (km/s) = 7.20551 6.82345 7.01708
#
# Compressibility (1/GPa) = 0.02266811
#
# Stress axis : x y z
#
# Youngs Moduli (GPa) = 82.28080 40.37492 95.83566
#
# Poissons Ratio (x) = 0.24436 0.57762
# Poissons Ratio (y) = 0.49799 0.02534
# Poissons Ratio (z) = 0.49592 0.01067
#
# Static dielectric constant tensor:
#      x y z
#    x 1.806700 0.000000 0.000000 
#    y 0.000000 1.848450 0.000000 
#    z 0.000000 0.000000 1.819910 
# 
# From -- ./inp_files/15376.got.cif
#   From: 2010.05.17/outbox.cif.g08.bks.cpg/sg74_8_cif.got.tgz:15376.got - 2010.06.03 17:57:02.
