data_PCOD9540556
_publ_section_title
;
Structure prediction by ZEFSAII (Michael W. Deem and Ramdas Pophale) SiO2 
 PCOD9540556
Probable space group: I M M A
;
_chemical_formula_sum "Si O2"
_cell_formula_units_Z 96
_cell_length_a 16.163373
_cell_length_b 24.078257
_cell_length_c 9.528441
_cell_angle_alpha 90.000000
_cell_angle_beta 90.000000
_cell_angle_gamma 90.000000
_cell_volume 3708.334401
_symmetry_space_group_name_H-M "I M M A"
_symmetry_group_IT_number 74
_symmetry_cell_setting 'orthorhombic'
loop_
_space_group_symop_operation_xyz
x,y,z
-x,1/2-y,z
x,-y,-z
-x,1/2+y,-z
-x,-y,-z
x,1/2+y,-z
-x,y,z
x,1/2-y,z
1/2+x,1/2+y,1/2+z
1/2-x,-y,1/2+z
1/2+x,1/2-y,1/2-z
1/2-x,y,1/2-z
1/2-x,1/2-y,1/2-z
1/2+x,y,1/2-z
1/2-x,1/2+y,1/2+z
1/2+x,-y,1/2+z
loop_
_atom_site_type_symbol
_atom_site_label
_atom_site_fract_x
_atom_site_fract_y
_atom_site_fract_z
Si Si1 0.339832 0.009137 0.716809
Si Si2 0.323224 0.813388 0.363409
Si Si3 0.901801 0.086582 0.005617
Si Si4 0.593804 0.076966 0.098379
Si Si5 0.840304 0.690326 0.684215
Si Si6 0.907140 0.166233 0.594421
O O1 0.250000 0.033363 0.750000
O O2 0.354247 0.956737 0.608072
O O3 0.356369 0.975827 0.858713
O O4 0.396288 0.055455 0.645584
O O5 0.315266 0.750000 0.412126
O O6 0.250000 0.827086 0.250000
O O7 0.347854 0.857456 0.482472
O O8 0.398845 0.816618 0.252482
O O9 0.000000 0.093616 0.039203
O O10 0.500000 0.061034 0.119663
O O11 0.612498 0.131625 0.195919
O O12 0.604894 0.101389 0.942852
O O13 0.876421 0.750000 0.731619
O O14 0.750000 0.685857 0.750000
O O15 0.841419 0.692655 0.513096
O O16 0.000000 0.179954 0.543102
#
# Coordination Sequence:
#
# PCOD9540556 Si02
#       6
#    16  16  16  16  16  16
#     4  11  23  43  70  99 132 180 226 286 344 410
#     4  11  25  43  68 103 142 183 231 286 349 419
#     4  11  25  46  74 103 139 186 232 282 350 423
#     4   9  19  34  58  90 123 166 219 270 327 398
#     4   9  17  29  49  81 120 165 214 268 329 390
#     4   9  20  37  61  90 125 171 219 272 332 399
#
# _framework density 25.887632
#
# number of rings (size 3 to 8) (size 9 to 14) (size 15 to 20)
#    1.000    1.000    0.000    4.000    2.333    3.333 
#    0.000    2.500    0.000    5.500    0.000    0.000 
#    0.000    0.000    0.000    0.000    0.000    0.000 
#
# Total GULP energy -267688.592436 kJ/mol
# GULP energy per Si atom -5576.845676 kJ/mol
# Density = 2.582871 g / cm^3
# Si number density = 25.887632 Si / 1000 Ang^3
#
#
#
# Elastic Constant Matrix: (Units=GPa)
#
#
# Indices 1 2 3 4 5 6 
#
# 1 84.9708 16.7646 18.0943 0.0000 0.0000 0.0000
# 2 16.7646 134.2984 19.4444 0.0000 0.0000 -0.0001
# 3 18.0943 19.4444 101.0568 0.0000 -0.0001 -0.0001
# 4 0.0000 0.0000 0.0000 26.8251 0.0000 0.0001
# 5 0.0000 0.0000 -0.0001 0.0000 33.3589 0.0000
# 6 0.0000 -0.0001 -0.0001 0.0001 0.0000 184.6371
#
#
#
# Elastic Compliance Matrix: (Units=1/GPa)
#
#
# Indices 1 2 3 4 5 6 
#
# 1 0.012441 -0.001266 -0.001984 0.000000 0.000000 0.000000
# 2 -0.001266 0.007788 -0.001272 0.000000 0.000000 0.000000
# 3 -0.001984 -0.001272 0.010495 0.000000 0.000000 0.000000
# 4 0.000000 0.000000 0.000000 0.037279 0.000000 0.000000
# 5 0.000000 0.000000 0.000000 0.000000 0.029977 0.000000
# 6 0.000000 0.000000 0.000000 0.000000 0.000000 0.005416
#
#
# Mechanical properties :
#
#
# Convention : Reuss Voigt Hill
#
# Bulk Modulus (GPa) = 46.12279 47.65916 46.89097
# Shear Modulus (GPa) = 41.78271 66.69905 54.24088
#
# Velocity S-wave (km/s) = 4.02182 5.08141 4.58235
# Velocity P-wave (km/s) = 6.27869 7.27170 6.79337
#
# Compressibility (1/GPa) = 0.02168126
#
# Stress axis : x y z
#
# Youngs Moduli (GPa) = 80.37956 128.39830 95.27987
#
# Poissons Ratio (x) = 0.16252 0.18904
# Poissons Ratio (y) = 0.10174 0.12119
# Poissons Ratio (z) = 0.15947 0.16331
#
# Static dielectric constant tensor:
#      x y z
#    x 2.036920 0.000000 0.000000 
#    y 0.000000 2.052700 0.000000 
#    z 0.000000 0.000000 2.194010 
# 
# From -- ./inp_files/22474.got.cif
#   From: 2010.05.17/outbox.cif.g08.bks.cpg/sg74_12_cif.got.tgz:22474.got - 2010.06.03 17:57:02.
