data_PCOD9540557
_publ_section_title
;
Structure prediction by ZEFSAII (Michael W. Deem and Ramdas Pophale) SiO2 
 PCOD9540557
Probable space group: I M M A
;
_chemical_formula_sum "Si O2"
_cell_formula_units_Z 44
_cell_length_a 7.388177
_cell_length_b 10.076118
_cell_length_c 26.070020
_cell_angle_alpha 90.000000
_cell_angle_beta 90.000000
_cell_angle_gamma 90.000000
_cell_volume 1940.760304
_symmetry_space_group_name_H-M "I M M A"
_symmetry_group_IT_number 74
_symmetry_cell_setting 'orthorhombic'
loop_
_space_group_symop_operation_xyz
x,y,z
-x,1/2-y,z
x,-y,-z
-x,1/2+y,-z
-x,-y,-z
x,1/2+y,-z
-x,y,z
x,1/2-y,z
1/2+x,1/2+y,1/2+z
1/2-x,-y,1/2+z
1/2+x,1/2-y,1/2-z
1/2-x,y,1/2-z
1/2-x,1/2-y,1/2-z
1/2+x,y,1/2-z
1/2-x,1/2+y,1/2+z
1/2+x,-y,1/2+z
loop_
_atom_site_type_symbol
_atom_site_label
_atom_site_fract_x
_atom_site_fract_y
_atom_site_fract_z
Si Si1 0.787235 0.250000 0.189711
Si Si2 0.500000 0.250000 0.700336
Si Si3 0.719932 0.601860 0.042636
Si Si4 0.208634 0.047037 0.660023
O O1 0.750000 0.250000 0.250000
O O2 0.714031 0.389280 0.168792
O O3 0.000000 0.250000 0.179760
O O4 0.658209 0.367059 0.694911
O O5 0.500000 0.597920 0.042046
O O6 0.777530 0.750000 0.029439
O O7 0.769610 0.572624 0.101261
O O8 0.784936 0.500000 0.000000
O O9 0.000000 0.091101 0.666407
#
# Coordination Sequence:
#
# PCOD9540557 Si02
#       4
#     8   4  16  16
#     4  12  26  48  75 103 139 178 233 288 346 421
#     4  12  22  42  70  98 138 176 224 282 338 414
#     4   9  18  33  58  92 131 178 229 275 333 406
#     4  11  23  43  71  99 137 184 228 286 346 404
#
# _framework density 22.671527000000001
#
# number of rings (size 3 to 8) (size 9 to 14) (size 15 to 20)
#    0.000    1.455    3.636    2.182    2.545    0.000 
#    0.000    1.818    4.000    0.000    0.000    0.000 
#    0.000    0.000    0.000    0.000    0.000    0.000 
#
# Total GULP energy -122600.447892 kJ/mol
# GULP energy per Si atom -5572.747631 kJ/mol
# Density = 2.261993 g / cm^3
# Si number density = 22.671527 Si / 1000 Ang^3
#
#
#
# Elastic Constant Matrix: (Units=GPa)
#
#
# Indices 1 2 3 4 5 6 
#
# 1 151.3534 22.6217 8.0189 0.0000 0.0000 0.0000
# 2 22.6217 215.1427 46.9950 0.0000 0.0000 0.0000
# 3 8.0189 46.9950 72.0152 0.0000 0.0000 0.0000
# 4 0.0000 0.0000 0.0000 61.0737 0.0000 0.0000
# 5 0.0000 0.0000 0.0000 0.0000 1.1932 0.0000
# 6 0.0000 0.0000 0.0000 0.0000 0.0000 0.5099
#
#
#
# Elastic Compliance Matrix: (Units=1/GPa)
#
#
# Indices 1 2 3 4 5 6 
#
# 1 0.006719 -0.000633 -0.000335 0.000000 0.000000 0.000000
# 2 -0.000633 0.005480 -0.003506 0.000000 0.000000 0.000000
# 3 -0.000335 -0.003506 0.016211 0.000000 0.000000 0.000000
# 4 0.000000 0.000000 0.000000 0.016374 0.000000 0.000000
# 5 0.000000 0.000000 0.000000 0.000000 0.838114 0.000000
# 6 0.000000 0.000000 0.000000 0.000000 0.000000 1.960998
#
#
# Mechanical properties :
#
#
# Convention : Reuss Voigt Hill
#
# Bulk Modulus (GPa) = 51.38025 65.97584 58.67805
# Shear Modulus (GPa) = 1.74866 36.61375 19.18120
#
# Velocity S-wave (km/s) = 0.87919 4.02302 2.91185
# Velocity P-wave (km/s) = 4.87265 7.12345 6.10272
#
# Compressibility (1/GPa) = 0.01946273
#
# Stress axis : x y z
#
# Youngs Moduli (GPa) = 148.82142 182.46557 61.68623
#
# Poissons Ratio (x) = 0.11557 0.02066
# Poissons Ratio (y) = 0.09426 0.21626
# Poissons Ratio (z) = 0.04984 0.63970
#
# Static dielectric constant tensor:
#      x y z
#    x 1.830980 0.000000 0.000000 
#    y 0.000000 1.772170 0.000000 
#    z 0.000000 0.000000 1.839170 
# 
# From -- ./inp_files/69466.got.cif
#   From: 2010.05.17/outbox.cif.g08.bks.cpg/sg74_35_cif.got.tgz:69466.got - 2010.06.03 17:57:02.
