data_PCOD9540485
_publ_section_title
;
Structure prediction by ZEFSAII (Michael W. Deem and Ramdas Pophale) SiO2 
 PCOD9540485
Probable space group: I M M A
;
_chemical_formula_sum "Si O2"
_cell_formula_units_Z 68
_cell_length_a 15.572044
_cell_length_b 18.786829
_cell_length_c 9.614932
_cell_angle_alpha 90.000000
_cell_angle_beta 90.000000
_cell_angle_gamma 90.000000
_cell_volume 2812.841894
_symmetry_space_group_name_H-M "I M M A"
_symmetry_group_IT_number 74
_symmetry_cell_setting 'orthorhombic'
loop_
_space_group_symop_operation_xyz
x,y,z
-x,1/2-y,z
x,-y,-z
-x,1/2+y,-z
-x,-y,-z
x,1/2+y,-z
-x,y,z
x,1/2-y,z
1/2+x,1/2+y,1/2+z
1/2-x,-y,1/2+z
1/2+x,1/2-y,1/2-z
1/2-x,y,1/2-z
1/2-x,1/2-y,1/2-z
1/2+x,y,1/2-z
1/2-x,1/2+y,1/2+z
1/2+x,-y,1/2+z
loop_
_atom_site_type_symbol
_atom_site_label
_atom_site_fract_x
_atom_site_fract_y
_atom_site_fract_z
Si Si1 0.000000 0.250000 0.878349
Si Si2 0.096450 0.521827 0.306724
Si Si3 0.404227 0.828040 0.733295
Si Si4 0.180446 0.896864 0.530503
Si Si5 0.627156 0.618051 0.444546
O O1 0.075185 0.185938 0.885346
O O2 0.166210 0.465728 0.366729
O O3 0.111883 0.588964 0.409436
O O4 0.106390 0.550875 0.152023
O O5 0.000000 0.494027 0.327440
O O6 0.500000 0.832214 0.791935
O O7 0.395308 0.750000 0.667444
O O8 0.339710 0.836125 0.859006
O O9 0.397633 0.883595 0.608082
O O10 0.269831 0.881708 0.456365
#
# Coordination Sequence:
#
# PCOD9540485 Si02
#       5
#     4  16  16  16  16
#     4  12  24  52  76 114 158 210 274 312 380 466
#     4  11  24  51  74 106 152 202 255 322 396 469
#     4  11  22  43  67 103 145 194 250 314 388 460
#     4  11  26  41  72 111 149 193 254 323 393 457
#     4  12  24  46  79 105 148 204 260 317 376 467
#
# _framework density 24.174841000000001
#
# number of rings (size 3 to 8) (size 9 to 14) (size 15 to 20)
#    0.000    0.706    3.529    4.235    1.647    9.412 
#    2.118    3.529    0.000    0.000    0.000    0.000 
#    0.000    0.000    0.000    0.000    0.000    0.000 
#
# Total GULP energy -189335.190009 kJ/mol
# GULP energy per Si atom -5568.682059 kJ/mol
# Density = 2.411982 g / cm^3
# Si number density = 24.174841 Si / 1000 Ang^3
#
#
#
# Elastic Constant Matrix: (Units=GPa)
#
#
# Indices 1 2 3 4 5 6 
#
# 1 120.2545 48.7742 29.6028 0.0000 0.0000 0.0000
# 2 48.7742 124.7555 43.5426 0.0000 0.0000 0.0000
# 3 29.6028 43.5426 99.5469 0.0000 0.0000 0.0000
# 4 0.0000 0.0000 0.0000 36.9951 0.0000 0.0000
# 5 0.0000 0.0000 0.0000 0.0000 37.9220 0.0000
# 6 0.0000 0.0000 0.0000 0.0000 0.0000 27.5735
#
#
#
# Elastic Compliance Matrix: (Units=1/GPa)
#
#
# Indices 1 2 3 4 5 6 
#
# 1 0.010070 -0.003413 -0.001502 0.000000 0.000000 0.000000
# 2 -0.003413 0.010616 -0.003629 0.000000 0.000000 0.000000
# 3 -0.001502 -0.003629 0.012079 0.000000 0.000000 0.000000
# 4 0.000000 0.000000 0.000000 0.027031 0.000000 0.000000
# 5 0.000000 0.000000 0.000000 0.000000 0.026370 0.000000
# 6 0.000000 0.000000 0.000000 0.000000 0.000000 0.036267
#
#
# Mechanical properties :
#
#
# Convention : Reuss Voigt Hill
#
# Bulk Modulus (GPa) = 63.78002 65.37734 64.57868
# Shear Modulus (GPa) = 34.54342 35.34060 34.94201
#
# Velocity S-wave (km/s) = 3.78418 3.82760 3.80595
# Velocity P-wave (km/s) = 6.74785 6.82907 6.78858
#
# Compressibility (1/GPa) = 0.01567889
#
# Stress axis : x y z
#
# Youngs Moduli (GPa) = 99.30978 94.19354 82.78559
#
# Poissons Ratio (x) = 0.32145 0.12432
# Poissons Ratio (y) = 0.33891 0.30042
# Poissons Ratio (z) = 0.14913 0.34182
#
# Static dielectric constant tensor:
#      x y z
#    x 1.957370 0.000000 0.000000 
#    y 0.000000 2.052920 0.000000 
#    z 0.000000 0.000000 1.919760 
# 
# From -- ./inp_files/10428.got.cif
#   From: 2010.05.17/outbox.cif.g08.bks.cpg/sg74_6_cif.got.tgz:10428.got - 2010.06.03 17:57:02.
