data_PCOD9540997
_publ_section_title
;
Structure prediction by ZEFSAII (Michael W. Deem and Ramdas Pophale) SiO2 
 PCOD9540997
Probable space group: P 4
;
_chemical_formula_sum "Si O2"
_cell_formula_units_Z 25
_cell_length_a 12.477792
_cell_length_b 12.477792
_cell_length_c 9.323050
_cell_angle_alpha 90.000000
_cell_angle_beta 90.000000
_cell_angle_gamma 90.000000
_cell_volume 1451.555003
_symmetry_space_group_name_H-M "P 4"
_symmetry_group_IT_number 75
_symmetry_cell_setting 'tetragonal'
loop_
_space_group_symop_operation_xyz
x,y,z
-y,x,z
-x,-y,z
y,-x,z
loop_
_atom_site_type_symbol
_atom_site_label
_atom_site_fract_x
_atom_site_fract_y
_atom_site_fract_z
Si Si1 1.000000 0.624201 0.362350
Si Si2 1.000000 0.739118 0.064624
Si Si3 0.626253 0.802226 0.905518
Si Si4 0.626253 0.197774 0.905518
Si Si5 0.797817 0.621870 0.568224
Si Si6 0.621870 0.797817 0.568224
Si Si7 0.000000 0.000000 0.042978
O O1 1.000000 0.705517 0.231163
O O2 0.897309 0.638513 0.463634
O O3 0.000000 0.500000 0.309677
O O4 0.102691 0.638513 0.463634
O O5 1.000000 0.866498 0.044180
O O6 0.895670 0.684541 0.993060
O O7 0.104330 0.684541 0.993060
O O8 0.691621 0.691621 0.927254
O O9 0.500000 0.794169 0.941580
O O10 0.634118 0.829152 0.735584
O O11 0.634118 0.170848 0.735584
O O12 0.705418 0.705418 0.535733
O O13 0.759371 0.500000 0.550981
#
# Coordination Sequence:
#
# PCOD9540997 Si02
#       7
#     4   4   4   4   4   4   1
#     4  10  21  36  57  81 107 145 187 226 269 334
#     4  12  23  41  58  80 112 150 194 231 291 328
#     4  10  20  36  60  86 115 150 186 228 277 336
#     4  10  20  36  60  86 115 150 186 228 277 336
#     4   9  19  35  56  83 112 143 181 223 271 326
#     4   9  19  35  56  83 112 143 181 223 271 326
#     4  12  28  40  56  82 116 144 184 250 276 324
#
# _framework density 17.222908
#
# number of rings (size 3 to 8) (size 9 to 14) (size 15 to 20)
#    0.000    1.920    1.600    2.400    2.240    3.200 
#    0.000    3.200    0.000    1.920    0.000    4.480 
#    0.000    0.000    0.000    0.000    0.000    0.000 
#
# Total GULP energy -139244.290021 kJ/mol
# GULP energy per Si atom -5569.771601 kJ/mol
# Density = 1.718371 g / cm^3
# Si number density = 17.222908 Si / 1000 Ang^3
#
#
#
# Elastic Constant Matrix: (Units=GPa)
#
#
# Indices 1 2 3 4 5 6 
#
# 1 143.1689 78.7890 57.7110 0.0000 0.0000 0.0000
# 2 78.7890 143.1689 57.7110 0.0000 0.0000 0.0000
# 3 57.7110 57.7110 48.8536 0.0000 0.0000 0.0000
# 4 0.0000 0.0000 0.0000 7.0758 0.0000 0.0000
# 5 0.0000 0.0000 0.0000 0.0000 7.0758 0.0000
# 6 0.0000 0.0000 0.0000 0.0000 0.0000 33.7176
#
#
#
# Elastic Compliance Matrix: (Units=1/GPa)
#
#
# Indices 1 2 3 4 5 6 
#
# 1 0.013607 -0.001926 -0.013799 0.000000 0.000000 0.000000
# 2 -0.001926 0.013607 -0.013799 0.000000 0.000000 0.000000
# 3 -0.013799 -0.013799 0.053071 0.000000 0.000000 0.000000
# 4 0.000000 0.000000 0.000000 0.141327 0.000000 0.000000
# 5 0.000000 0.000000 0.000000 0.000000 0.141327 0.000000
# 6 0.000000 0.000000 0.000000 0.000000 0.000000 0.029658
#
#
# Mechanical properties :
#
#
# Convention : Reuss Voigt Hill
#
# Bulk Modulus (GPa) = 47.08700 80.40150 63.74425
# Shear Modulus (GPa) = 10.89985 18.97253 14.93619
#
# Velocity S-wave (km/s) = 2.51842 3.32262 2.94807
# Velocity P-wave (km/s) = 5.98796 7.84244 6.97709
#
# Compressibility (1/GPa) = 0.02123729
#
# Stress axis : x y z
#
# Youngs Moduli (GPa) = 73.49214 73.49214 18.84281
#
# Poissons Ratio (x) = 0.14154 0.26001
# Poissons Ratio (y) = 0.14154 0.26001
# Poissons Ratio (z) = 1.01411 1.01411
#
# Static dielectric constant tensor:
#      x y z
#    x 1.565090 0.000000 0.000000 
#    y 0.000000 1.565090 0.000000 
#    z 0.000000 0.000000 1.583180 
# 
# From -- ./inp_files/395.got.cif
#   From: 2010.05.17/outbox.cif.g08.bks.cpg/sg75_cif.got.tgz:395.got - 2010.06.03 18:42:43.
