data_PCOD9540243
_publ_section_title
;
Structure prediction by ZEFSAII (Michael W. Deem and Ramdas Pophale) SiO2 
 PCOD9540243
Probable space group: I M M A
;
_chemical_formula_sum "Si O2"
_cell_formula_units_Z 72
_cell_length_a 19.813783
_cell_length_b 13.496887
_cell_length_c 13.460809
_cell_angle_alpha 90.000000
_cell_angle_beta 90.000000
_cell_angle_gamma 90.000000
_cell_volume 3599.748638
_symmetry_space_group_name_H-M "I M M A"
_symmetry_group_IT_number 74
_symmetry_cell_setting 'orthorhombic'
loop_
_space_group_symop_operation_xyz
x,y,z
-x,1/2-y,z
x,-y,-z
-x,1/2+y,-z
-x,-y,-z
x,1/2+y,-z
-x,y,z
x,1/2-y,z
1/2+x,1/2+y,1/2+z
1/2-x,-y,1/2+z
1/2+x,1/2-y,1/2-z
1/2-x,y,1/2-z
1/2-x,1/2-y,1/2-z
1/2+x,y,1/2-z
1/2-x,1/2+y,1/2+z
1/2+x,-y,1/2+z
loop_
_atom_site_type_symbol
_atom_site_label
_atom_site_fract_x
_atom_site_fract_y
_atom_site_fract_z
Si Si1 0.078814 0.496086 0.266715
Si Si2 0.426089 0.643255 0.053226
Si Si3 0.761990 0.000000 0.000000
Si Si4 0.811542 0.367677 0.830688
Si Si5 0.674499 0.360865 0.129504
O O1 0.079251 0.552681 0.372961
O O2 0.121865 0.571509 0.200399
O O3 0.124924 0.399358 0.283806
O O4 0.000000 0.480337 0.239706
O O5 0.500000 0.639212 0.005228
O O6 0.421371 0.750000 0.107814
O O7 0.370926 0.643893 0.969688
O O8 0.794745 0.909133 0.059935
O O9 0.726351 0.055425 0.094060
O O10 0.822447 0.250000 0.832216
O O11 0.750000 0.383980 0.750000
O O12 0.700739 0.250000 0.148956
#
# Coordination Sequence:
#
# PCOD9540243 Si02
#       5
#    16  16   8  16  16
#     4  11  21  36  58  88 123 159 205 261 317 374
#     4   9  16  27  48  80 117 154 190 239 308 376
#     4  12  22  40  62  92 126 170 214 262 314 370
#     4  11  23  42  67  93 125 167 214 261 313 377
#     4  11  20  33  55  86 123 159 202 255 320 387
#
# _framework density 20.001397000000001
#
# number of rings (size 3 to 8) (size 9 to 14) (size 15 to 20)
#    0.000    1.333    4.444    2.000    0.000    8.000 
#    0.000    3.889    0.000    0.000    0.000    0.000 
#    0.000    0.000    0.000    0.000    0.000    0.000 
#
# Total GULP energy -200575.215267 kJ/mol
# GULP energy per Si atom -5571.533757 kJ/mol
# Density = 1.995587 g / cm^3
# Si number density = 20.001397 Si / 1000 Ang^3
#
#
#
# Elastic Constant Matrix: (Units=GPa)
#
#
# Indices 1 2 3 4 5 6 
#
# 1 54.7271 22.8148 20.0521 0.0000 0.0000 0.0000
# 2 22.8148 117.5407 12.8696 0.0000 0.0000 0.0000
# 3 20.0521 12.8696 37.7994 0.0000 0.0000 0.0000
# 4 0.0000 0.0000 0.0000 27.5268 0.0000 0.0000
# 5 0.0000 0.0000 0.0000 0.0000 20.2107 0.0000
# 6 0.0000 0.0000 0.0000 0.0000 0.0000 21.1936
#
#
#
# Elastic Compliance Matrix: (Units=1/GPa)
#
#
# Indices 1 2 3 4 5 6 
#
# 1 0.023906 -0.003378 -0.011532 0.000000 0.000000 0.000000
# 2 -0.003378 0.009314 -0.001380 0.000000 0.000000 0.000000
# 3 -0.011532 -0.001380 0.033043 0.000000 0.000000 0.000000
# 4 0.000000 0.000000 0.000000 0.036328 0.000000 0.000000
# 5 0.000000 0.000000 0.000000 0.000000 0.049479 0.000000
# 6 0.000000 0.000000 0.000000 0.000000 0.000000 0.047184
#
#
# Mechanical properties :
#
#
# Convention : Reuss Voigt Hill
#
# Bulk Modulus (GPa) = 29.68673 35.72669 32.70671
# Shear Modulus (GPa) = 20.57110 24.07496 22.32303
#
# Velocity S-wave (km/s) = 3.21048 3.47315 3.34439
# Velocity P-wave (km/s) = 5.34953 5.82963 5.59473
#
# Compressibility (1/GPa) = 0.03368508
#
# Stress axis : x y z
#
# Youngs Moduli (GPa) = 41.83096 107.36158 30.26396
#
# Poissons Ratio (x) = 0.36262 0.34900
# Poissons Ratio (y) = 0.14128 0.04175
# Poissons Ratio (z) = 0.48238 0.14811
#
# Static dielectric constant tensor:
#      x y z
#    x 1.778600 0.000000 0.000000 
#    y 0.000000 1.835390 0.000000 
#    z 0.000000 0.000000 1.713880 
# 
# From -- ./inp_files/33811.got.cif
#   From: 2010.05.17/outbox.cif.g08.bks.cpg/sg74_17_cif.got.tgz:33811.got - 2010.06.03 17:57:02.
