data_PCOD9540542
_publ_section_title
;
Structure prediction by ZEFSAII (Michael W. Deem and Ramdas Pophale) SiO2 
 PCOD9540542
Probable space group: I M M A
;
_chemical_formula_sum "Si O2"
_cell_formula_units_Z 60
_cell_length_a 18.423715
_cell_length_b 14.218166
_cell_length_c 9.943858
_cell_angle_alpha 90.000000
_cell_angle_beta 90.000000
_cell_angle_gamma 90.000000
_cell_volume 2604.807904
_symmetry_space_group_name_H-M "I M M A"
_symmetry_group_IT_number 74
_symmetry_cell_setting 'orthorhombic'
loop_
_space_group_symop_operation_xyz
x,y,z
-x,1/2-y,z
x,-y,-z
-x,1/2+y,-z
-x,-y,-z
x,1/2+y,-z
-x,y,z
x,1/2-y,z
1/2+x,1/2+y,1/2+z
1/2-x,-y,1/2+z
1/2+x,1/2-y,1/2-z
1/2-x,y,1/2-z
1/2-x,1/2-y,1/2-z
1/2+x,y,1/2-z
1/2-x,1/2+y,1/2+z
1/2+x,-y,1/2+z
loop_
_atom_site_type_symbol
_atom_site_label
_atom_site_fract_x
_atom_site_fract_y
_atom_site_fract_z
Si Si1 0.620099 0.554769 0.312099
Si Si2 0.000000 0.563828 0.691382
Si Si3 0.500000 0.362292 0.494994
Si Si4 0.336114 0.250000 0.122566
Si Si5 0.830742 0.250000 0.694141
Si Si6 0.000000 0.250000 0.361887
Si Si7 0.750000 0.077897 0.250000
O O1 0.570347 0.499244 0.205131
O O2 0.569771 0.586593 0.438435
O O3 0.637393 0.654604 0.249997
O O4 0.692308 0.490200 0.326758
O O5 0.000000 0.643756 0.578042
O O6 0.000000 0.620422 0.835330
O O7 0.500000 0.250000 0.521117
O O8 0.415792 0.250000 0.189734
O O9 0.294971 0.346441 0.161726
O O10 0.340843 0.250000 0.963871
O O11 0.750000 0.250000 0.750000
#
# Coordination Sequence:
#
# PCOD9540542 Si02
#       7
#    16   8   8   8   8   4   8
#     4  11  23  44  66 103 138 180 226 290 348 416
#     4  11  24  42  72 103 139 183 236 283 345 405
#     4  11  23  41  72 103 140 183 235 292 342 402
#     4  11  28  47  73 101 138 189 230 298 338 428
#     4  12  27  46  69 102 143 179 231 286 356 413
#     4  12  22  48  66 104 138 182 240 286 340 420
#     4  11  24  49  70 102 136 181 240 281 358 406
#
# _framework density 23.034330000000001
#
# number of rings (size 3 to 8) (size 9 to 14) (size 15 to 20)
#    0.000    0.800    6.000    1.600    0.000    7.467 
#    0.000    1.333    0.000    0.000    0.000    0.000 
#    0.000    0.000    0.000    0.000    0.000    0.000 
#
# Total GULP energy -167366.062273 kJ/mol
# GULP energy per Si atom -5578.868742 kJ/mol
# Density = 2.298190 g / cm^3
# Si number density = 23.034330 Si / 1000 Ang^3
#
#
#
# Elastic Constant Matrix: (Units=GPa)
#
#
# Indices 1 2 3 4 5 6 
#
# 1 165.1190 96.6679 44.3021 0.0000 0.0000 0.0000
# 2 96.6679 252.4747 52.4243 0.0000 0.0000 0.0000
# 3 44.3021 52.4243 89.3386 0.0000 0.0000 0.0000
# 4 0.0000 0.0000 0.0000 20.4163 0.0000 0.0000
# 5 0.0000 0.0000 0.0000 0.0000 12.7363 0.0000
# 6 0.0000 0.0000 0.0000 0.0000 0.0000 77.1741
#
#
#
# Elastic Compliance Matrix: (Units=1/GPa)
#
#
# Indices 1 2 3 4 5 6 
#
# 1 0.008290 -0.002643 -0.002560 0.000000 0.000000 0.000000
# 2 -0.002643 0.005353 -0.001831 0.000000 0.000000 0.000000
# 3 -0.002560 -0.001831 0.013537 0.000000 0.000000 0.000000
# 4 0.000000 0.000000 0.000000 0.048981 0.000000 0.000000
# 5 0.000000 0.000000 0.000000 0.000000 0.078516 0.000000
# 6 0.000000 0.000000 0.000000 0.000000 0.000000 0.012958
#
#
# Mechanical properties :
#
#
# Convention : Reuss Voigt Hill
#
# Bulk Modulus (GPa) = 76.25930 99.30231 87.78080
# Shear Modulus (GPa) = 26.87132 42.96787 34.91959
#
# Velocity S-wave (km/s) = 3.41922 4.32369 3.89778
# Velocity P-wave (km/s) = 6.98332 8.25409 7.64515
#
# Compressibility (1/GPa) = 0.01311316
#
# Stress axis : x y z
#
# Youngs Moduli (GPa) = 120.62347 186.82243 73.87036
#
# Poissons Ratio (x) = 0.49369 0.18914
# Poissons Ratio (y) = 0.31875 0.13522
# Poissons Ratio (z) = 0.30884 0.34199
#
# Static dielectric constant tensor:
#      x y z
#    x 1.867130 0.000000 0.000000 
#    y 0.000000 1.833620 0.000000 
#    z 0.000000 0.000000 1.930920 
# 
# From -- ./inp_files/21582.got.cif
#   From: 2010.05.17/outbox.cif.g08.bks.cpg/sg74_11_cif.got.tgz:21582.got - 2010.06.03 17:57:02.
