data_PCOD9540455
_publ_section_title
;
Structure prediction by ZEFSAII (Michael W. Deem and Ramdas Pophale) SiO2 
 PCOD9540455
Probable space group: I M M A
;
_chemical_formula_sum "Si O2"
_cell_formula_units_Z 96
_cell_length_a 21.652402
_cell_length_b 15.743606
_cell_length_c 16.034052
_cell_angle_alpha 90.000000
_cell_angle_beta 90.000000
_cell_angle_gamma 90.000000
_cell_volume 5465.798057
_symmetry_space_group_name_H-M "I M M A"
_symmetry_group_IT_number 74
_symmetry_cell_setting 'orthorhombic'
loop_
_space_group_symop_operation_xyz
x,y,z
-x,1/2-y,z
x,-y,-z
-x,1/2+y,-z
-x,-y,-z
x,1/2+y,-z
-x,y,z
x,1/2-y,z
1/2+x,1/2+y,1/2+z
1/2-x,-y,1/2+z
1/2+x,1/2-y,1/2-z
1/2-x,y,1/2-z
1/2-x,1/2-y,1/2-z
1/2+x,y,1/2-z
1/2-x,1/2+y,1/2+z
1/2+x,-y,1/2+z
loop_
_atom_site_type_symbol
_atom_site_label
_atom_site_fract_x
_atom_site_fract_y
_atom_site_fract_z
Si Si1 0.847765 0.250000 0.278117
Si Si2 0.189218 0.351890 0.801403
Si Si3 0.430382 0.408655 0.799030
Si Si4 0.378487 0.350267 0.971209
Si Si5 0.724160 0.250000 0.390592
Si Si6 0.070865 0.896912 0.647229
Si Si7 0.737288 0.401091 0.522223
O O1 0.788541 0.250000 0.339508
O O2 0.826510 0.250000 0.182393
O O3 0.887223 0.332581 0.301094
O O4 0.189994 0.250000 0.798594
O O5 0.250000 0.382129 0.750000
O O6 0.125463 0.382102 0.760696
O O7 0.197480 0.380901 0.896190
O O8 0.500000 0.387950 0.769922
O O9 0.418100 0.365646 0.888723
O O10 0.426283 0.509197 0.815607
O O11 0.376369 0.250000 0.989846
O O12 0.309001 0.382290 0.955878
O O13 0.405540 0.396613 0.052016
O O14 0.721663 0.334020 0.448607
O O15 0.000000 0.867805 0.647295
O O16 0.730806 0.500000 0.500000
#
# Coordination Sequence:
#
# PCOD9540455 Si02
#       7
#     8  16  16  16   8  16  16
#     4  11  23  38  64  86 126 158 201 249 304 359
#     4  11  23  40  64  90 122 162 208 251 300 363
#     4  11  25  39  59  91 126 163 209 252 300 370
#     4  12  21  37  58  90 128 164 202 241 308 378
#     4  11  24  42  59  96 123 157 206 258 300 363
#     4  11  22  39  60  88 124 162 201 247 305 375
#     4  12  23  40  63  90 128 162 200 257 310 358
#
# _framework density 17.563766000000001
#
# number of rings (size 3 to 8) (size 9 to 14) (size 15 to 20)
#    0.000    0.667    5.833    2.750    2.333    3.333 
#    0.000    0.000    0.000    2.500    0.000    0.000 
#    0.000    0.000    0.000    0.000    0.000    0.000 
#
# Total GULP energy -268332.207985 kJ/mol
# GULP energy per Si atom -5590.254333 kJ/mol
# Density = 1.752379 g / cm^3
# Si number density = 17.563766 Si / 1000 Ang^3
#
#
#
# Elastic Constant Matrix: (Units=GPa)
#
#
# Indices 1 2 3 4 5 6 
#
# 1 120.2347 30.0800 56.1510 0.0000 0.0000 0.0000
# 2 30.0800 79.9939 33.3911 0.0000 0.0000 0.0000
# 3 56.1510 33.3911 96.7202 0.0000 0.0000 0.0000
# 4 0.0000 0.0000 0.0000 -0.1687 0.0000 0.0000
# 5 0.0000 0.0000 0.0000 0.0000 24.3886 0.0000
# 6 0.0000 0.0000 0.0000 0.0000 0.0000 15.7471
#
#
#
# Elastic Compliance Matrix: (Units=1/GPa)
#
#
# Indices 1 2 3 4 5 6 
#
# 1 0.011633 -0.001817 -0.006126 0.000000 0.000000 0.000000
# 2 -0.001817 0.014890 -0.004086 0.000000 0.000000 0.000000
# 3 -0.006126 -0.004086 0.015306 0.000000 0.000000 0.000000
# 4 0.000000 0.000000 0.000000 -5.926361 0.000000 0.000000
# 5 0.000000 0.000000 0.000000 0.000000 0.041003 0.000000
# 6 0.000000 0.000000 0.000000 0.000000 0.000000 0.063504
#
#
# Mechanical properties :
#
#
# Convention : Reuss Voigt Hill
#
# Bulk Modulus (GPa) = 56.27124 59.57701 57.92413
# Shear Modulus (GPa) = -0.86956 19.81518 9.47281
#
# Velocity S-wave (km/s) = -0.70439 3.36249 2.32488
# Velocity P-wave (km/s) = 5.60770 7.00494 6.34490
#
# Compressibility (1/GPa) = 0.01777107
#
# Stress axis : x y z
#
# Youngs Moduli (GPa) = 85.96564 67.16100 65.33385
#
# Poissons Ratio (x) = 0.12204 0.40023
# Poissons Ratio (y) = 0.15620 0.26692
# Poissons Ratio (z) = 0.52662 0.27439
#
# Static dielectric constant tensor:
#      x y z
#    x 1.595150 0.000000 0.000000 
#    y 0.000000 1.598250 0.000000 
#    z 0.000000 0.000000 1.582310 
# 
# From -- ./inp_files/35338.got.cif
#   From: 2010.05.17/outbox.cif.g08.bks.cpg/sg74_18_cif.got.tgz:35338.got - 2010.06.03 17:57:02.
