data_PCOD9540247
_publ_section_title
;
Structure prediction by ZEFSAII (Michael W. Deem and Ramdas Pophale) SiO2 
 PCOD9540247
Probable space group: I M M A
;
_chemical_formula_sum "Si O2"
_cell_formula_units_Z 80
_cell_length_a 8.333089
_cell_length_b 24.845371
_cell_length_c 26.961556
_cell_angle_alpha 90.000000
_cell_angle_beta 90.000000
_cell_angle_gamma 90.000000
_cell_volume 5582.085175
_symmetry_space_group_name_H-M "I M M A"
_symmetry_group_IT_number 74
_symmetry_cell_setting 'orthorhombic'
loop_
_space_group_symop_operation_xyz
x,y,z
-x,1/2-y,z
x,-y,-z
-x,1/2+y,-z
-x,-y,-z
x,1/2+y,-z
-x,y,z
x,1/2-y,z
1/2+x,1/2+y,1/2+z
1/2-x,-y,1/2+z
1/2+x,1/2-y,1/2-z
1/2-x,y,1/2-z
1/2-x,1/2-y,1/2-z
1/2+x,y,1/2-z
1/2-x,1/2+y,1/2+z
1/2+x,-y,1/2+z
loop_
_atom_site_type_symbol
_atom_site_label
_atom_site_fract_x
_atom_site_fract_y
_atom_site_fract_z
Si Si1 0.194402 0.932316 0.105771
Si Si2 0.313056 0.466115 0.448398
Si Si3 0.696442 0.132447 0.506701
Si Si4 0.190208 0.639295 0.305766
Si Si5 0.696049 0.750000 0.469544
Si Si6 0.807858 0.250000 0.854450
O O1 0.241445 0.893051 0.060072
O O2 0.251300 0.906902 0.156752
O O3 0.000000 0.933742 0.105620
O O4 0.254979 0.992313 0.091907
O O5 0.312071 0.500000 0.500000
O O6 0.500000 0.457453 0.435193
O O7 0.244263 0.408187 0.463855
O O8 0.500000 0.131225 0.505246
O O9 0.748065 0.194280 0.505330
O O10 0.250000 0.631225 0.250000
O O11 0.251982 0.696338 0.326824
O O12 0.000000 0.640606 0.305782
O O13 0.500000 0.750000 0.469470
O O14 0.746972 0.750000 0.411829
O O15 0.000000 0.250000 0.855226
#
# Coordination Sequence:
#
# PCOD9540247 Si02
#       6
#    16  16  16  16   8   8
#     4   9  15  27  44  60  78 103 135 171 206 240
#     4   7  11  19  36  59  80 101 130 165 199 239
#     4   8  12  20  36  61  84 105 134 167 202 236
#     4  12  24  35  45  59  78 104 137 177 215 251
#     4   9  14  20  38  63  85 106 133 171 204 231
#     4  11  20  34  49  61  78 106 140 177 211 241
#
# _framework density 14.331562999999999
#
# number of rings (size 3 to 8) (size 9 to 14) (size 15 to 20)
#    0.000    2.800    2.000    4.800    0.000    0.000 
#    0.000    0.000    0.000    5.400    0.000    0.000 
#    0.000    0.000    0.000    0.900    0.000    6.400 
#
# Total GULP energy -222686.442265 kJ/mol
# GULP energy per Si atom -5567.161057 kJ/mol
# Density = 1.429894 g / cm^3
# Si number density = 14.331563 Si / 1000 Ang^3
#
#
#
# Elastic Constant Matrix: (Units=GPa)
#
#
# Indices 1 2 3 4 5 6 
#
# 1 21.9625 17.4355 13.3154 0.0000 0.0000 0.0000
# 2 17.4355 147.8121 74.0147 0.0000 0.0000 0.0000
# 3 13.3154 74.0147 71.2200 0.0000 0.0000 0.0000
# 4 0.0000 0.0000 0.0000 14.9138 0.0000 0.0000
# 5 0.0000 0.0000 0.0000 0.0000 13.0153 0.0000
# 6 0.0000 0.0000 0.0000 0.0000 0.0000 7.4875
#
#
#
# Elastic Compliance Matrix: (Units=1/GPa)
#
#
# Indices 1 2 3 4 5 6 
#
# 1 0.051839 -0.002631 -0.006958 0.000000 0.000000 0.000000
# 2 -0.002631 0.014239 -0.014306 0.000000 0.000000 0.000000
# 3 -0.006958 -0.014306 0.030209 0.000000 0.000000 0.000000
# 4 0.000000 0.000000 0.000000 0.067052 0.000000 0.000000
# 5 0.000000 0.000000 0.000000 0.000000 0.076833 0.000000
# 6 0.000000 0.000000 0.000000 0.000000 0.000000 0.133556
#
#
# Mechanical properties :
#
#
# Convention : Reuss Voigt Hill
#
# Bulk Modulus (GPa) = 20.61939 50.05841 35.33890
# Shear Modulus (GPa) = 11.42377 16.16525 13.79451
#
# Velocity S-wave (km/s) = 2.82637 3.36214 3.10583
# Velocity P-wave (km/s) = 5.00697 7.07648 6.12970
#
# Compressibility (1/GPa) = 0.04849804
#
# Stress axis : x y z
#
# Youngs Moduli (GPa) = 19.29049 70.22840 33.10225
#
# Poissons Ratio (x) = 0.18475 0.23033
# Poissons Ratio (y) = 0.05075 0.47357
# Poissons Ratio (z) = 0.13422 1.00470
#
# Static dielectric constant tensor:
#      x y z
#    x 1.495480 0.000000 0.000000 
#    y 0.000000 1.568090 0.000000 
#    z 0.000000 0.000000 1.463710 
# 
# From -- ./inp_files/54975.got.cif
#   From: 2010.05.17/outbox.cif.g08.bks.cpg/sg74_28_cif.got.tgz:54975.got - 2010.06.03 17:57:02.
