data_PCOD9540157
_publ_section_title
;
Structure prediction by ZEFSAII (Michael W. Deem and Ramdas Pophale) SiO2 
 PCOD9540157
Probable space group: I M M A
;
_chemical_formula_sum "Si O2"
_cell_formula_units_Z 116
_cell_length_a 17.955879
_cell_length_b 19.507705
_cell_length_c 17.203885
_cell_angle_alpha 90.000000
_cell_angle_beta 90.000000
_cell_angle_gamma 90.000000
_cell_volume 6026.142267
_symmetry_space_group_name_H-M "I M M A"
_symmetry_group_IT_number 74
_symmetry_cell_setting 'orthorhombic'
loop_
_space_group_symop_operation_xyz
x,y,z
-x,1/2-y,z
x,-y,-z
-x,1/2+y,-z
-x,-y,-z
x,1/2+y,-z
-x,y,z
x,1/2-y,z
1/2+x,1/2+y,1/2+z
1/2-x,-y,1/2+z
1/2+x,1/2-y,1/2-z
1/2-x,y,1/2-z
1/2-x,1/2-y,1/2-z
1/2+x,y,1/2-z
1/2-x,1/2+y,1/2+z
1/2+x,-y,1/2+z
loop_
_atom_site_type_symbol
_atom_site_label
_atom_site_fract_x
_atom_site_fract_y
_atom_site_fract_z
Si Si1 0.197373 0.926491 0.528458
Si Si2 0.911990 0.943559 0.663919
Si Si3 0.643784 0.407681 0.423058
Si Si4 0.848173 0.324947 0.606405
Si Si5 0.336853 0.425966 0.753224
Si Si6 0.838576 0.668650 0.768497
Si Si7 0.000000 0.250000 0.583616
Si Si8 0.589566 0.565445 0.407898
O O1 0.124840 0.940467 0.579170
O O2 0.266862 0.901734 0.578026
O O3 0.183909 0.875244 0.458252
O O4 0.224556 0.000000 0.500000
O O5 0.884189 0.874931 0.705890
O O6 0.000000 0.947730 0.660968
O O7 0.880220 0.009203 0.710458
O O8 0.627187 0.357960 0.351012
O O9 0.614292 0.485041 0.408033
O O10 0.615934 0.397747 0.512112
O O11 0.810157 0.250000 0.607130
O O12 0.843535 0.362408 0.688505
O O13 0.933768 0.308318 0.586625
O O14 0.250000 0.445553 0.750000
O O15 0.370124 0.407201 0.669258
O O16 0.848304 0.750000 0.762249
O O17 0.750000 0.654951 0.750000
O O18 0.500000 0.568863 0.402954
#
# Coordination Sequence:
#
# PCOD9540157 Si02
#       8
#    16  16  16  16  16  16   4  16
#     4  12  22  39  67  99 130 168 221 271 325 396
#     4  12  26  38  64 100 130 167 222 275 327 394
#     4  11  21  40  65  94 132 169 213 275 333 388
#     4  10  25  42  67  90 134 176 212 263 340 392
#     4  12  23  42  69  97 132 174 224 279 329 398
#     4  11  24  44  66  92 129 179 220 268 335 399
#     4   8  24  48  60  88 140 180 202 268 348 396
#     4  11  23  37  67 101 132 166 220 278 337 389
#
# _framework density 19.249462000000001
#
# number of rings (size 3 to 8) (size 9 to 14) (size 15 to 20)
#    0.414    0.414    5.517    3.310    2.897    2.483 
#    0.000    0.690    0.000    0.828    0.000    0.000 
#    0.000    0.000    0.000    0.000    0.000    0.000 
#
# Total GULP energy -323052.756220 kJ/mol
# GULP energy per Si atom -5569.875107 kJ/mol
# Density = 1.920565 g / cm^3
# Si number density = 19.249462 Si / 1000 Ang^3
#
#
#
# Elastic Constant Matrix: (Units=GPa)
#
#
# Indices 1 2 3 4 5 6 
#
# 1 89.9570 -14.4785 -15.6590 0.0000 0.0000 0.0000
# 2 -14.4785 34.6666 14.9655 0.0000 0.0000 0.0000
# 3 -15.6590 14.9655 70.9746 0.0000 0.0000 0.0000
# 4 0.0000 0.0000 0.0000 26.7613 0.0000 0.0000
# 5 0.0000 0.0000 0.0000 0.0000 22.6042 0.0000
# 6 0.0000 0.0000 0.0000 0.0000 0.0000 19.8614
#
#
#
# Elastic Compliance Matrix: (Units=1/GPa)
#
#
# Indices 1 2 3 4 5 6 
#
# 1 0.012116 0.004297 0.001767 0.000000 0.000000 0.000000
# 2 0.004297 0.033259 -0.006065 0.000000 0.000000 0.000000
# 3 0.001767 -0.006065 0.015758 0.000000 0.000000 0.000000
# 4 0.000000 0.000000 0.000000 0.037367 0.000000 0.000000
# 5 0.000000 0.000000 0.000000 0.000000 0.044240 0.000000
# 6 0.000000 0.000000 0.000000 0.000000 0.000000 0.050349
#
#
# Mechanical properties :
#
#
# Convention : Reuss Voigt Hill
#
# Bulk Modulus (GPa) = 16.35809 18.36157 17.35983
# Shear Modulus (GPa) = 23.42278 27.89671 25.65975
#
# Velocity S-wave (km/s) = 3.49205 3.81099 3.65500
# Velocity P-wave (km/s) = 4.97751 5.37814 5.18170
#
# Compressibility (1/GPa) = 0.06113183
#
# Stress axis : x y z
#
# Youngs Moduli (GPa) = 82.53790 30.06696 63.45903
#
# Poissons Ratio (x) = -0.12921 -0.11213
# Poissons Ratio (y) = -0.35469 0.38487
# Poissons Ratio (z) = -0.14584 0.18235
#
# Static dielectric constant tensor:
#      x y z
#    x 1.671400 0.000000 0.000000 
#    y 0.000000 1.664360 0.000000 
#    z 0.000000 0.000000 1.726760 
# 
# From -- ./inp_files/44278.got.cif
#   From: 2010.05.17/outbox.cif.g08.bks.cpg/sg74_23_cif.got.tgz:44278.got - 2010.06.03 17:57:02.
