data_PCOD9540548
_publ_section_title
;
Structure prediction by ZEFSAII (Michael W. Deem and Ramdas Pophale) SiO2 
 PCOD9540548
Probable space group: I M M A
;
_chemical_formula_sum "Si O2"
_cell_formula_units_Z 52
_cell_length_a 16.056800
_cell_length_b 7.738156
_cell_length_c 18.517997
_cell_angle_alpha 90.000000
_cell_angle_beta 90.000000
_cell_angle_gamma 90.000000
_cell_volume 2300.861558
_symmetry_space_group_name_H-M "I M M A"
_symmetry_group_IT_number 74
_symmetry_cell_setting 'orthorhombic'
loop_
_space_group_symop_operation_xyz
x,y,z
-x,1/2-y,z
x,-y,-z
-x,1/2+y,-z
-x,-y,-z
x,1/2+y,-z
-x,y,z
x,1/2-y,z
1/2+x,1/2+y,1/2+z
1/2-x,-y,1/2+z
1/2+x,1/2-y,1/2-z
1/2-x,y,1/2-z
1/2-x,1/2-y,1/2-z
1/2+x,y,1/2-z
1/2-x,1/2+y,1/2+z
1/2+x,-y,1/2+z
loop_
_atom_site_type_symbol
_atom_site_label
_atom_site_fract_x
_atom_site_fract_y
_atom_site_fract_z
Si Si1 0.750000 0.250000 0.750000
Si Si2 0.677302 0.954028 0.661821
Si Si3 0.000000 0.457897 0.844623
Si Si4 0.500000 0.952119 0.181079
Si Si5 0.843451 0.046663 0.417288
O O1 0.683565 0.405716 0.726215
O O2 0.687572 0.750000 0.681483
O O3 0.754618 0.018018 0.612269
O O4 0.587632 0.975734 0.624856
O O5 0.000000 0.250000 0.848112
O O6 0.000000 0.529004 0.761374
O O7 0.500000 0.750000 0.192058
O O8 0.580718 0.994846 0.133559
O O9 0.837122 0.250000 0.413835
O O10 0.858901 0.000000 0.500000
#
# Coordination Sequence:
#
# PCOD9540548 Si02
#       5
#     4  16   8   8  16
#     4  12  22  38  68  94 140 166 226 268 348 386
#     4  11  25  42  66 100 135 178 224 282 336 401
#     4  11  23  42  69  99 137 178 221 277 343 406
#     4  11  24  38  63  96 132 173 216 271 337 400
#     4  11  25  43  66  93 131 178 227 274 331 400
#
# _framework density 22.600228000000001
#
# number of rings (size 3 to 8) (size 9 to 14) (size 15 to 20)
#    0.000    0.923    1.538    4.615    8.615    4.923 
#    0.000    0.769    0.000    0.000    0.000    0.000 
#    0.000    0.000    0.000    0.000    0.000    0.000 
#
# Total GULP energy -144819.894264 kJ/mol
# GULP energy per Si atom -5569.995933 kJ/mol
# Density = 2.254879 g / cm^3
# Si number density = 22.600228 Si / 1000 Ang^3
#
#
#
# Elastic Constant Matrix: (Units=GPa)
#
#
# Indices 1 2 3 4 5 6 
#
# 1 125.8777 16.6991 -3.7860 0.0000 0.0000 0.0000
# 2 16.6991 106.8289 1.3930 0.0000 0.0000 0.0000
# 3 -3.7860 1.3930 40.8388 0.0000 0.0000 0.0000
# 4 0.0000 0.0000 0.0000 0.7500 0.0000 0.0000
# 5 0.0000 0.0000 0.0000 0.0000 12.1036 0.0000
# 6 0.0000 0.0000 0.0000 0.0000 0.0000 -104.4441
#
#
#
# Elastic Compliance Matrix: (Units=1/GPa)
#
#
# Indices 1 2 3 4 5 6 
#
# 1 0.008138 -0.001283 0.000798 0.000000 0.000000 0.000000
# 2 -0.001283 0.009567 -0.000445 0.000000 0.000000 0.000000
# 3 0.000798 -0.000445 0.024576 0.000000 0.000000 0.000000
# 4 0.000000 0.000000 0.000000 1.333400 0.000000 0.000000
# 5 0.000000 0.000000 0.000000 0.000000 0.082620 0.000000
# 6 0.000000 0.000000 0.000000 0.000000 0.000000 -0.009574
#
#
# Mechanical properties :
#
#
# Convention : Reuss Voigt Hill
#
# Bulk Modulus (GPa) = 24.73904 33.57308 29.15606
# Shear Modulus (GPa) = 3.41516 -1.03550 1.18983
#
# Velocity S-wave (km/s) = 1.23061 -0.67762 0.72637
# Velocity P-wave (km/s) = 3.60407 3.77826 3.69219
#
# Compressibility (1/GPa) = 0.04042194
#
# Stress axis : x y z
#
# Youngs Moduli (GPa) = 122.87471 104.52539 40.69063
#
# Poissons Ratio (x) = 0.13406 -0.03248
# Poissons Ratio (y) = 0.15760 0.01812
# Poissons Ratio (z) = -0.09808 0.04654
#
# Static dielectric constant tensor:
#      x y z
#    x 1.815580 0.000000 0.000000 
#    y 0.000000 1.824890 0.000000 
#    z 0.000000 0.000000 1.792800 
# 
# From -- ./inp_files/51338.got.cif
#   From: 2010.05.17/outbox.cif.g08.bks.cpg/sg74_26_cif.got.tgz:51338.got - 2010.06.03 17:57:02.
