data_PCOD9540929
_publ_section_title
;
Structure prediction by ZEFSAII (Michael W. Deem and Ramdas Pophale) SiO2 
 PCOD9540929
Probable space group: I M M A
;
_chemical_formula_sum "Si O2"
_cell_formula_units_Z 36
_cell_length_a 27.000000
_cell_length_b 9.000000
_cell_length_c 15.000000
_cell_angle_alpha 90.000000
_cell_angle_beta 90.000000
_cell_angle_gamma 90.000000
_cell_volume 3645.000000
_symmetry_space_group_name_H-M "I M M A"
_symmetry_group_IT_number 74
_symmetry_cell_setting 'orthorhombic'
loop_
_space_group_symop_operation_xyz
x,y,z
-x,1/2-y,z
x,-y,-z
-x,1/2+y,-z
-x,-y,-z
x,1/2+y,-z
-x,y,z
x,1/2-y,z
1/2+x,1/2+y,1/2+z
1/2-x,-y,1/2+z
1/2+x,1/2-y,1/2-z
1/2-x,y,1/2-z
1/2-x,1/2-y,1/2-z
1/2+x,y,1/2-z
1/2-x,1/2+y,1/2+z
1/2+x,-y,1/2+z
loop_
_atom_site_type_symbol
_atom_site_label
_atom_site_fract_x
_atom_site_fract_y
_atom_site_fract_z
Si Si1 0.896082 0.000000 0.500000
Si Si2 0.286284 0.750000 0.624380
Si Si3 0.319641 0.250000 0.583445
Si Si4 0.176123 0.750000 0.548874
Si Si5 0.557733 0.424445 0.814453
Si Si6 0.208058 0.250000 0.656213
Si Si7 0.655941 0.015490 0.715672
O O1 0.859574 0.890825 0.554572
O O2 0.929125 0.933575 0.420204
O O3 0.308136 0.750000 0.521928
O O4 0.226550 0.750000 0.606765
O O5 0.308274 0.614545 0.681472
O O6 0.266895 0.250000 0.638190
O O7 0.348571 0.389026 0.624459
O O8 0.189538 0.750000 0.444470
O O9 0.500000 0.470243 0.800881
O O10 0.562469 0.250000 0.789459
O O11 0.601012 0.508206 0.757689
O O12 0.185725 0.389961 0.709301
#
# Coordination Sequence:
#
# PCOD9540929 Si02
#       7
#     8   8   8   8  16   8  16
#     4  12  21  44  62  98 136 170 211 266 324 394
#     4  11  27  37  61 101 134 167 210 275 320 376
#     4  10  22  39  64  85 126 176 210 248 320 391
#     4  11  25  39  63  91 137 174 216 246 323 390
#     4  11  23  43  69  95 124 174 224 268 325 395
#     4  10  20  41  62  81 123 179 209 245 305 401
#     4  11  20  42  63  92 125 168 218 265 316 382
#
# _framework density 9.8765429999999999
#
# number of rings (size 3 to 8) (size 9 to 14) (size 15 to 20)
#    0.000    1.111    5.556    2.333    6.222    2.667 
#    0.000    5.000    0.000    4.000    0.000    0.000 
#    0.000    0.000    0.000    0.000    0.000    0.000 
#
# Total GULP energy -200799.448489 kJ/mol
# GULP energy per Si atom -5577.762458 kJ/mol
# Density = 0.985406 g / cm^3
# Si number density = 9.876543 Si / 1000 Ang^3
#
#
#
# Elastic Constant Matrix: (Units=GPa)
#
#
# Indices 1 2 3 4 5 6 
#
# 1 157.0446 35.4085 63.8368 0.0000 0.0000 0.0000
# 2 35.4085 88.0726 27.4345 0.0000 0.0000 0.0000
# 3 63.8368 27.4345 101.7573 0.0000 0.0000 0.0000
# 4 0.0000 0.0000 0.0000 32.5749 0.0000 0.0000
# 5 0.0000 0.0000 0.0000 0.0000 43.0164 0.0000
# 6 0.0000 0.0000 0.0000 0.0000 0.0000 21.6380
#
#
#
# Elastic Compliance Matrix: (Units=1/GPa)
#
#
# Indices 1 2 3 4 5 6 
#
# 1 0.008858 -0.001998 -0.005018 0.000000 0.000000 0.000000
# 2 -0.001998 0.012846 -0.002210 0.000000 0.000000 0.000000
# 3 -0.005018 -0.002210 0.013571 0.000000 0.000000 0.000000
# 4 0.000000 0.000000 0.000000 0.030698 0.000000 0.000000
# 5 0.000000 0.000000 0.000000 0.000000 0.023247 0.000000
# 6 0.000000 0.000000 0.000000 0.000000 0.000000 0.046215
#
#
# Mechanical properties :
#
#
# Convention : Reuss Voigt Hill
#
# Bulk Modulus (GPa) = 59.44339 66.69268 63.06804
# Shear Modulus (GPa) = 31.34881 34.12552 32.73716
#
# Velocity S-wave (km/s) = 3.98808 4.16096 4.07543
# Velocity P-wave (km/s) = 7.16693 7.54461 7.35820
#
# Compressibility (1/GPa) = 0.01682273
#
# Stress axis : x y z
#
# Youngs Moduli (GPa) = 112.89231 77.84561 73.68479
#
# Poissons Ratio (x) = 0.15554 0.36977
# Poissons Ratio (y) = 0.22556 0.16284
# Poissons Ratio (z) = 0.56653 0.17203
#
# Static dielectric constant tensor:
#      x y z
#    x 1.706300 0.000000 0.000000 
#    y 0.000000 1.874610 0.000000 
#    z 0.000000 0.000000 1.684470 
# 
# From -- ./inp_files/37095.got.cif
#   From: 2010.05.17/outbox.ucp.g08.bks.cvg/sg74_19_cif.got.tgz:37095.got - 2010.06.11 16:37:44.
