data_PCOD9540140
_publ_section_title
;
Structure prediction by ZEFSAII (Michael W. Deem and Ramdas Pophale) SiO2 
 PCOD9540140
Probable space group: I M M A
;
_chemical_formula_sum "Si O2"
_cell_formula_units_Z 60
_cell_length_a 22.155869
_cell_length_b 13.594728
_cell_length_c 9.299540
_cell_angle_alpha 90.000000
_cell_angle_beta 90.000000
_cell_angle_gamma 90.000000
_cell_volume 2801.049464
_symmetry_space_group_name_H-M "I M M A"
_symmetry_group_IT_number 74
_symmetry_cell_setting 'orthorhombic'
loop_
_space_group_symop_operation_xyz
x,y,z
-x,1/2-y,z
x,-y,-z
-x,1/2+y,-z
-x,-y,-z
x,1/2+y,-z
-x,y,z
x,1/2-y,z
1/2+x,1/2+y,1/2+z
1/2-x,-y,1/2+z
1/2+x,1/2-y,1/2-z
1/2-x,y,1/2-z
1/2-x,1/2-y,1/2-z
1/2+x,y,1/2-z
1/2-x,1/2+y,1/2+z
1/2+x,-y,1/2+z
loop_
_atom_site_type_symbol
_atom_site_label
_atom_site_fract_x
_atom_site_fract_y
_atom_site_fract_z
Si Si1 0.126672 0.750000 0.474398
Si Si2 0.322254 0.250000 0.287663
Si Si3 0.706759 0.068531 0.870467
Si Si4 0.626811 0.050965 0.345938
Si Si5 0.000000 0.750000 0.302034
Si Si6 0.000000 0.974927 0.170603
O O1 0.135475 0.750000 0.645698
O O2 0.163051 0.652768 0.427499
O O3 0.060559 0.750000 0.400974
O O4 0.250000 0.250000 0.250000
O O5 0.345030 0.343220 0.374404
O O6 0.750000 0.115148 0.750000
O O7 0.670225 0.993185 0.772834
O O8 0.732376 0.000000 0.000000
O O9 0.626731 0.000000 0.500000
O O10 0.560417 0.030823 0.279861
O O11 0.000000 0.856590 0.212321
O O12 0.000000 0.000000 0.000000
#
# Coordination Sequence:
#
# PCOD9540140 Si02
#       6
#     8   8  16  16   4   8
#     4  12  27  45  74 109 144 204 244 307 381 452
#     4  12  28  49  71 110 153 189 253 310 376 447
#     4  12  25  45  70 106 147 192 252 304 377 442
#     4  11  25  45  75 107 143 199 240 309 377 440
#     4  12  24  50  74 112 158 190 264 316 370 462
#     4  10  24  45  74 109 145 191 251 311 365 447
#
# _framework density 21.420542000000001
#
# number of rings (size 3 to 8) (size 9 to 14) (size 15 to 20)
#    0.000    0.533    5.333    2.000    3.733    6.933 
#    0.000    2.667    0.000    0.000    0.000    0.000 
#    0.000    0.000    0.000    0.000    0.000    0.000 
#
# Total GULP energy -167220.777599 kJ/mol
# GULP energy per Si atom -5574.025920 kJ/mol
# Density = 2.137179 g / cm^3
# Si number density = 21.420542 Si / 1000 Ang^3
#
#
#
# Elastic Constant Matrix: (Units=GPa)
#
#
# Indices 1 2 3 4 5 6 
#
# 1 115.1853 46.1942 31.2052 0.0000 0.0000 0.0000
# 2 46.1942 150.6417 18.9006 0.0000 0.0000 0.0000
# 3 31.2052 18.9006 97.8048 0.0000 0.0000 0.0000
# 4 0.0000 0.0000 0.0000 44.4715 0.0000 0.0000
# 5 0.0000 0.0000 0.0000 0.0000 40.7164 0.0000
# 6 0.0000 0.0000 0.0000 0.0000 0.0000 20.3030
#
#
#
# Elastic Compliance Matrix: (Units=1/GPa)
#
#
# Indices 1 2 3 4 5 6 
#
# 1 0.010610 -0.002899 -0.002825 0.000000 0.000000 0.000000
# 2 -0.002899 0.007595 -0.000543 0.000000 0.000000 0.000000
# 3 -0.002825 -0.000543 0.011231 0.000000 0.000000 0.000000
# 4 0.000000 0.000000 0.000000 0.022486 0.000000 0.000000
# 5 0.000000 0.000000 0.000000 0.000000 0.024560 0.000000
# 6 0.000000 0.000000 0.000000 0.000000 0.000000 0.049254
#
#
# Mechanical properties :
#
#
# Convention : Reuss Voigt Hill
#
# Bulk Modulus (GPa) = 59.16381 61.80353 60.48367
# Shear Modulus (GPa) = 34.74561 38.92031 36.83296
#
# Velocity S-wave (km/s) = 4.03186 4.26721 4.15120
# Velocity P-wave (km/s) = 7.02529 7.29341 7.16060
#
# Compressibility (1/GPa) = 0.01690222
#
# Stress axis : x y z
#
# Youngs Moduli (GPa) = 94.25461 131.65942 89.04223
#
# Poissons Ratio (x) = 0.38168 0.25153
# Poissons Ratio (y) = 0.27324 0.04834
# Poissons Ratio (z) = 0.26625 0.07147
#
# Static dielectric constant tensor:
#      x y z
#    x 1.885350 0.000000 0.000000 
#    y 0.000000 1.127590 0.000000 
#    z 0.000000 0.000000 1.755410 
# 
# From -- ./inp_files/14510.got.cif
#   From: 2010.05.17/outbox.cif.g08.bks.cpg/sg74_8_cif.got.tgz:14510.got - 2010.06.03 17:57:02.
