data_PCOD9540473
_publ_section_title
;
Structure prediction by ZEFSAII (Michael W. Deem and Ramdas Pophale) SiO2 
 PCOD9540473
Probable space group: I M M A
;
_chemical_formula_sum "Si O2"
_cell_formula_units_Z 68
_cell_length_a 32.060214
_cell_length_b 15.081367
_cell_length_c 7.807690
_cell_angle_alpha 90.000000
_cell_angle_beta 90.000000
_cell_angle_gamma 90.000000
_cell_volume 3775.110663
_symmetry_space_group_name_H-M "I M M A"
_symmetry_group_IT_number 74
_symmetry_cell_setting 'orthorhombic'
loop_
_space_group_symop_operation_xyz
x,y,z
-x,1/2-y,z
x,-y,-z
-x,1/2+y,-z
-x,-y,-z
x,1/2+y,-z
-x,y,z
x,1/2-y,z
1/2+x,1/2+y,1/2+z
1/2-x,-y,1/2+z
1/2+x,1/2-y,1/2-z
1/2-x,y,1/2-z
1/2-x,1/2-y,1/2-z
1/2+x,y,1/2-z
1/2-x,1/2+y,1/2+z
1/2+x,-y,1/2+z
loop_
_atom_site_type_symbol
_atom_site_label
_atom_site_fract_x
_atom_site_fract_y
_atom_site_fract_z
Si Si1 0.701573 0.000000 0.795929
Si Si2 0.863131 0.353984 0.804158
Si Si3 0.863131 0.853984 0.804157
Si Si4 0.500000 0.750000 1.000000
Si Si5 0.426749 0.601818 0.000000
O O1 0.750000 0.000000 0.750000
O O2 0.677388 0.085564 0.724002
O O3 0.677388 0.914436 0.724002
O O4 0.696617 0.000000 0.000000
O O5 0.853901 0.250000 0.778987
O O6 0.897568 0.382726 0.666339
O O7 0.877885 0.366216 0.000000
O O8 0.853901 0.750000 0.778987
O O9 0.897568 0.882726 0.666339
O O10 0.463527 0.672483 1.000000
O O11 0.441132 0.500000 0.000000
#
# Coordination Sequence:
#
# PCOD9540473 Si02
#       5
#    16  16  16   4  16
#     4  12  24  40  64  97 134 172 226 276 315 387
#     4  11  22  40  67  93 128 177 216 265 337 390
#     4  11  22  40  67  93 128 177 216 265 337 390
#     4  12  26  44  70 102 136 162 234 276 314 422
#     4  12  23  43  69  98 129 175 218 271 341 388
#
# _framework density 18.012716000000001
#
# number of rings (size 3 to 8) (size 9 to 14) (size 15 to 20)
#    0.000    0.471    7.059    2.471    0.000    0.941 
#    0.000    2.353    0.000    2.824    0.000    0.000 
#    0.000    0.000    0.000    0.000    0.000    0.000 
#
# Total GULP energy -189507.682287 kJ/mol
# GULP energy per Si atom -5573.755361 kJ/mol
# Density = 1.797172 g / cm^3
# Si number density = 18.012716 Si / 1000 Ang^3
#
#
#
# Elastic Constant Matrix: (Units=GPa)
#
#
# Indices 1 2 3 4 5 6 
#
# 1 156.2260 85.8623 44.5817 0.0000 0.0000 0.0000
# 2 85.8623 193.9093 57.8997 0.0000 0.0000 0.0000
# 3 44.5817 57.8997 125.9276 0.0000 0.0000 0.0000
# 4 0.0000 0.0000 0.0000 -16.4465 0.0000 0.0000
# 5 0.0000 0.0000 0.0000 0.0000 -1.3991 0.0000
# 6 0.0000 0.0000 0.0000 0.0000 0.0000 166.6790
#
#
#
# Elastic Compliance Matrix: (Units=1/GPa)
#
#
# Indices 1 2 3 4 5 6 
#
# 1 0.008703 -0.003401 -0.001518 0.000000 0.000000 0.000000
# 2 -0.003401 0.007306 -0.002156 0.000000 0.000000 0.000000
# 3 -0.001518 -0.002156 0.009469 0.000000 0.000000 0.000000
# 4 0.000000 0.000000 0.000000 -0.060803 0.000000 0.000000
# 5 0.000000 0.000000 0.000000 0.000000 -0.714731 0.000000
# 6 0.000000 0.000000 0.000000 0.000000 0.000000 0.006000
#
#
# Mechanical properties :
#
#
# Convention : Reuss Voigt Hill
#
# Bulk Modulus (GPa) = 88.24885 94.75003 91.49944
# Shear Modulus (GPa) = -6.88580 48.94794 21.03107
#
# Velocity S-wave (km/s) = -1.95731 5.21853 3.42068
# Velocity P-wave (km/s) = 6.63256 9.43540 8.15529
#
# Compressibility (1/GPa) = 0.01133159
#
# Stress axis : x y z
#
# Youngs Moduli (GPa) = 114.90320 136.86630 105.60322
#
# Poissons Ratio (x) = 0.46541 0.16026
# Poissons Ratio (y) = 0.39073 0.22763
# Poissons Ratio (z) = 0.17437 0.29502
#
# Static dielectric constant tensor:
#      x y z
#    x 1.567020 0.000000 0.000000 
#    y 0.000000 1.618620 0.000000 
#    z 0.000000 0.000000 1.630100 
# 
# From -- ./inp_files/14629.got.cif
#   From: 2010.05.17/outbox.cif.g08.bks.cpg/sg74_8_cif.got.tgz:14629.got - 2010.06.03 17:57:02.
