data_PCOD9540926
_publ_section_title
;
Structure prediction by ZEFSAII (Michael W. Deem and Ramdas Pophale) SiO2 
 PCOD9540926
Probable space group: I M M A
;
_chemical_formula_sum "Si O2"
_cell_formula_units_Z 48
_cell_length_a 15.000000
_cell_length_b 21.000000
_cell_length_c 15.000000
_cell_angle_alpha 90.000000
_cell_angle_beta 90.000000
_cell_angle_gamma 90.000000
_cell_volume 4725.000000
_symmetry_space_group_name_H-M "I M M A"
_symmetry_group_IT_number 74
_symmetry_cell_setting 'orthorhombic'
loop_
_space_group_symop_operation_xyz
x,y,z
-x,1/2-y,z
x,-y,-z
-x,1/2+y,-z
-x,-y,-z
x,1/2+y,-z
-x,y,z
x,1/2-y,z
1/2+x,1/2+y,1/2+z
1/2-x,-y,1/2+z
1/2+x,1/2-y,1/2-z
1/2-x,y,1/2-z
1/2-x,1/2-y,1/2-z
1/2+x,y,1/2-z
1/2-x,1/2+y,1/2+z
1/2+x,-y,1/2+z
loop_
_atom_site_type_symbol
_atom_site_label
_atom_site_fract_x
_atom_site_fract_y
_atom_site_fract_z
Si Si1 0.154777 0.918364 0.788327
Si Si2 0.401100 0.823940 0.854962
Si Si3 0.398730 0.553050 0.322255
Si Si4 0.606023 0.112531 0.492628
Si Si5 0.650294 0.677017 0.212673
Si Si6 0.287800 0.175132 0.979291
O O1 0.250000 0.897740 0.750000
O O2 0.095812 0.871424 0.728270
O O3 0.130273 0.908088 0.892171
O O4 0.150670 0.994626 0.775961
O O5 0.500000 0.821931 0.895726
O O6 0.378488 0.750000 0.829609
O O7 0.333364 0.848910 0.930289
O O8 0.500000 0.531601 0.319221
O O9 0.377455 0.562342 0.427024
O O10 0.391664 0.621238 0.272709
O O11 0.500000 0.129300 0.496965
O O12 0.681761 0.164124 0.517480
O O13 0.612199 0.750000 0.215336
O O14 0.750000 0.683064 0.250000
O O15 0.664171 0.652515 0.111228
O O16 0.304106 0.250000 0.978520
#
# Coordination Sequence:
#
# PCOD9540926 Si02
#       6
#    16  16  16  16  16  16
#     4  12  24  41  66  93 122 166 212 259 317 375
#     4  10  22  42  66  92 125 163 207 259 313 372
#     4  11  24  41  63  93 129 167 212 260 316 380
#     4  11  23  40  62  92 129 168 208 256 315 379
#     4  10  20  38  63  89 123 164 210 259 309 367
#     4  10  21  39  63  93 128 168 209 256 315 374
#
# _framework density 10.15873
#
# number of rings (size 3 to 8) (size 9 to 14) (size 15 to 20)
#    0.000    1.333    3.333    2.500    0.000    3.667 
#    0.000    4.167    0.000    2.000    0.000    0.000 
#    0.000    0.000    0.000    0.000    0.000    0.000 
#
# Total GULP energy -267241.262111 kJ/mol
# GULP energy per Si atom -5567.526294 kJ/mol
# Density = 1.013561 g / cm^3
# Si number density = 10.158730 Si / 1000 Ang^3
#
#
#
# Elastic Constant Matrix: (Units=GPa)
#
#
# Indices 1 2 3 4 5 6 
#
# 1 80.4901 9.1578 29.5669 0.0000 0.0000 0.0000
# 2 9.1578 43.6387 54.8822 0.0002 0.0000 0.0000
# 3 29.5669 54.8822 139.6732 0.0000 -0.0001 -0.0001
# 4 0.0000 0.0002 0.0000 27.3032 0.0000 0.0000
# 5 0.0000 0.0000 -0.0001 0.0000 22.3275 0.0000
# 6 0.0000 0.0000 -0.0001 0.0000 0.0000 19.2274
#
#
#
# Elastic Compliance Matrix: (Units=1/GPa)
#
#
# Indices 1 2 3 4 5 6 
#
# 1 0.013521 0.001507 -0.003454 0.000000 0.000000 0.000000
# 2 0.001507 0.045471 -0.018186 0.000000 0.000000 0.000000
# 3 -0.003454 -0.018186 0.015037 0.000000 0.000000 0.000000
# 4 0.000000 0.000000 0.000000 0.036626 0.000000 0.000000
# 5 0.000000 0.000000 0.000000 0.000000 0.044788 0.000000
# 6 0.000000 0.000000 0.000000 0.000000 0.000000 0.052009
#
#
# Mechanical properties :
#
#
# Convention : Reuss Voigt Hill
#
# Bulk Modulus (GPa) = 29.61918 50.11287 39.86603
# Shear Modulus (GPa) = 19.30707 25.11796 22.21251
#
# Velocity S-wave (km/s) = 3.08599 3.51988 3.31005
# Velocity P-wave (km/s) = 5.22567 6.42168 5.85429
#
# Compressibility (1/GPa) = 0.03376191
#
# Stress axis : x y z
#
# Youngs Moduli (GPa) = 73.95705 21.99213 66.50402
#
# Poissons Ratio (x) = -0.03314 0.22973
# Poissons Ratio (y) = -0.11144 1.20944
# Poissons Ratio (z) = 0.25548 0.39995
#
# Static dielectric constant tensor:
#      x y z
#    x 1.758430 0.000000 0.000000 
#    y 0.000000 1.758990 0.000000 
#    z 0.000000 0.000000 1.776760 
# 
# From -- ./inp_files/32386.got.cif
#   From: 2010.05.17/outbox.ucp.g08.bks.cvg/sg74_17_cif.got.tgz:32386.got - 2010.06.11 16:37:44.
