data_PCOD9540412
_publ_section_title
;
Structure prediction by ZEFSAII (Michael W. Deem and Ramdas Pophale) SiO2 
 PCOD9540412
Probable space group: I M M A
;
_chemical_formula_sum "Si O2"
_cell_formula_units_Z 72
_cell_length_a 8.671864
_cell_length_b 13.164692
_cell_length_c 32.462385
_cell_angle_alpha 90.000000
_cell_angle_beta 90.000000
_cell_angle_gamma 90.000000
_cell_volume 3705.984386
_symmetry_space_group_name_H-M "I M M A"
_symmetry_group_IT_number 74
_symmetry_cell_setting 'orthorhombic'
loop_
_space_group_symop_operation_xyz
x,y,z
-x,1/2-y,z
x,-y,-z
-x,1/2+y,-z
-x,-y,-z
x,1/2+y,-z
-x,y,z
x,1/2-y,z
1/2+x,1/2+y,1/2+z
1/2-x,-y,1/2+z
1/2+x,1/2-y,1/2-z
1/2-x,y,1/2-z
1/2-x,1/2-y,1/2-z
1/2+x,y,1/2-z
1/2-x,1/2+y,1/2+z
1/2+x,-y,1/2+z
loop_
_atom_site_type_symbol
_atom_site_label
_atom_site_fract_x
_atom_site_fract_y
_atom_site_fract_z
Si Si1 0.186200 0.866834 0.614053
Si Si2 0.181234 0.068811 0.650477
Si Si3 0.685035 0.370327 0.474641
Si Si4 0.677356 0.371830 0.565691
Si Si5 0.682621 0.750000 0.295720
O O1 0.237208 0.750000 0.621270
O O2 0.246411 0.902888 0.569182
O O3 0.000000 0.867004 0.612510
O O4 0.233141 0.950564 0.648070
O O5 0.214313 0.104976 0.603886
O O6 0.263627 0.148833 0.680056
O O7 0.000000 0.072193 0.659584
O O8 0.500000 0.381243 0.473314
O O9 0.722036 0.250000 0.474944
O O10 0.730526 0.407773 0.520392
O O11 0.500000 0.407210 0.573300
O O12 0.668020 0.250000 0.562906
O O13 0.500000 0.750000 0.294166
O O14 0.750000 0.750000 0.250000
#
# Coordination Sequence:
#
# PCOD9540412 Si02
#       5
#    16  16  16  16   8
#     4   9  19  35  53  77 114 158 200 239 280 327
#     4  11  22  36  58  87 115 147 190 235 284 343
#     4   8  15  28  46  70 104 150 202 248 287 329
#     4   9  17  30  48  73 109 152 196 243 292 339
#     4  12  26  46  70  94 120 144 174 224 290 358
#
# _framework density 19.428038000000001
#
# number of rings (size 3 to 8) (size 9 to 14) (size 15 to 20)
#    0.000    2.444    1.111    3.000    0.000    3.556 
#    0.000    6.667    0.000    0.667    0.000    0.000 
#    0.000    0.000    0.000    0.000    0.000    0.000 
#
# Total GULP energy -200768.210118 kJ/mol
# GULP energy per Si atom -5576.894726 kJ/mol
# Density = 1.938382 g / cm^3
# Si number density = 19.428038 Si / 1000 Ang^3
#
#
#
# Elastic Constant Matrix: (Units=GPa)
#
#
# Indices 1 2 3 4 5 6 
#
# 1 44.2105 32.2311 36.4502 0.0000 0.0000 0.0000
# 2 32.2311 123.3947 75.0394 0.0000 0.0000 0.0000
# 3 36.4502 75.0394 110.1627 0.0000 0.0000 0.0000
# 4 0.0000 0.0000 0.0000 20.4344 0.0000 0.0000
# 5 0.0000 0.0000 0.0000 0.0000 30.2562 0.0000
# 6 0.0000 0.0000 0.0000 0.0000 0.0000 8.8876
#
#
#
# Elastic Compliance Matrix: (Units=1/GPa)
#
#
# Indices 1 2 3 4 5 6 
#
# 1 0.031855 -0.003262 -0.008318 0.000000 0.000000 0.000000
# 2 -0.003262 0.014169 -0.008572 0.000000 0.000000 0.000000
# 3 -0.008318 -0.008572 0.017669 0.000000 0.000000 0.000000
# 4 0.000000 0.000000 0.000000 0.048937 0.000000 0.000000
# 5 0.000000 0.000000 0.000000 0.000000 0.033051 0.000000
# 6 0.000000 0.000000 0.000000 0.000000 0.000000 0.112516
#
#
# Mechanical properties :
#
#
# Convention : Reuss Voigt Hill
#
# Bulk Modulus (GPa) = 42.75633 62.80103 52.77868
# Shear Modulus (GPa) = 16.32395 20.85213 18.58804
#
# Velocity S-wave (km/s) = 2.90181 3.27968 3.09652
# Velocity P-wave (km/s) = 5.76911 6.83644 6.32533
#
# Compressibility (1/GPa) = 0.02338835
#
# Stress axis : x y z
#
# Youngs Moduli (GPa) = 31.39187 70.57586 56.59695
#
# Poissons Ratio (x) = 0.23024 0.47077
# Poissons Ratio (y) = 0.10241 0.48516
# Poissons Ratio (z) = 0.26112 0.60499
#
# Static dielectric constant tensor:
#      x y z
#    x 1.652560 0.000000 0.000000 
#    y 0.000000 1.819150 0.000000 
#    z 0.000000 0.000000 1.642510 
# 
# From -- ./inp_files/69946.got.cif
#   From: 2010.05.17/outbox.cif.g08.bks.cpg/sg74_35_cif.got.tgz:69946.got - 2010.06.03 17:57:02.
