data_PCOD9540882
_publ_section_title
;
Structure prediction by ZEFSAII (Michael W. Deem and Ramdas Pophale) SiO2 
 PCOD9540882
Probable space group: I M M A
;
_chemical_formula_sum "Si O2"
_cell_formula_units_Z 44
_cell_length_a 9.000000
_cell_length_b 18.000000
_cell_length_c 30.000000
_cell_angle_alpha 90.000000
_cell_angle_beta 90.000000
_cell_angle_gamma 90.000000
_cell_volume 4860.000000
_symmetry_space_group_name_H-M "I M M A"
_symmetry_group_IT_number 74
_symmetry_cell_setting 'orthorhombic'
loop_
_space_group_symop_operation_xyz
x,y,z
-x,1/2-y,z
x,-y,-z
-x,1/2+y,-z
-x,-y,-z
x,1/2+y,-z
-x,y,z
x,1/2-y,z
1/2+x,1/2+y,1/2+z
1/2-x,-y,1/2+z
1/2+x,1/2-y,1/2-z
1/2-x,y,1/2-z
1/2-x,1/2-y,1/2-z
1/2+x,y,1/2-z
1/2-x,1/2+y,1/2+z
1/2+x,-y,1/2+z
loop_
_atom_site_type_symbol
_atom_site_label
_atom_site_fract_x
_atom_site_fract_y
_atom_site_fract_z
Si Si1 0.175876 0.929688 0.563735
Si Si2 0.819923 0.047607 0.700435
Si Si3 0.822394 0.836227 0.015587
Si Si4 0.323403 0.750000 0.702788
Si Si5 0.174151 0.598642 0.400253
Si Si6 0.178094 0.597149 0.843268
O O1 0.244403 0.894201 0.518777
O O2 0.264039 0.899002 0.606285
O O3 0.000000 0.912536 0.564515
O O4 0.187737 0.017999 0.575003
O O5 0.750000 0.067125 0.750000
O O6 0.785805 0.092609 0.653121
O O7 0.000000 0.047314 0.704681
O O8 0.757829 0.967033 0.685596
O O9 0.789391 0.750000 0.003163
O O10 0.767803 0.849709 0.066494
O O11 0.000000 0.847116 0.013241
O O12 0.500000 0.750000 0.707605
O O13 0.250000 0.750000 0.750000
O O14 0.282650 0.675631 0.677557
O O15 0.000000 0.619230 0.401636
O O16 0.000000 0.584615 0.842438
#
# Coordination Sequence:
#
# PCOD9540882 Si02
#       6
#    16  16  16   8  16  16
#     4  10  21  37  57  82 109 143 185 228 273 327
#     4  10  20  35  56  83 110 138 178 226 273 327
#     4  11  24  38  55  82 114 146 183 227 274 330
#     4  10  22  34  46  66  98 140 182 226 271 316
#     4   9  20  38  58  82 112 143 182 228 272 325
#     4  10  20  34  51  74 106 142 181 229 275 320
#
# _framework density 9.0534979999999994
#
# number of rings (size 3 to 8) (size 9 to 14) (size 15 to 20)
#    0.000    2.000    0.000    4.364    1.273   10.909 
#    0.000    0.000    0.000    0.545    0.000    0.000 
#    0.000    0.000    0.000    0.000    0.000    0.000 
#
# Total GULP energy -245145.473967 kJ/mol
# GULP energy per Si atom -5571.488045 kJ/mol
# Density = 0.903289 g / cm^3
# Si number density = 9.053498 Si / 1000 Ang^3
#
#
#
# Elastic Constant Matrix: (Units=GPa)
#
#
# Indices 1 2 3 4 5 6 
#
# 1 57.0708 16.0975 38.1218 0.0000 0.0000 0.0000
# 2 16.0975 18.4761 15.7427 0.0000 0.0000 0.0000
# 3 38.1218 15.7427 141.5012 0.0000 0.0000 0.0000
# 4 0.0000 0.0000 0.0000 12.4318 0.0000 0.0000
# 5 0.0000 0.0000 0.0000 0.0000 44.6494 0.0000
# 6 0.0000 0.0000 0.0000 0.0000 0.0000 20.2756
#
#
#
# Elastic Compliance Matrix: (Units=1/GPa)
#
#
# Indices 1 2 3 4 5 6 
#
# 1 0.026045 -0.018463 -0.004963 0.000000 0.000000 0.000000
# 2 -0.018463 0.072881 -0.003134 0.000000 0.000000 0.000000
# 3 -0.004963 -0.003134 0.008753 0.000000 0.000000 0.000000
# 4 0.000000 0.000000 0.000000 0.080439 0.000000 0.000000
# 5 0.000000 0.000000 0.000000 0.000000 0.022397 0.000000
# 6 0.000000 0.000000 0.000000 0.000000 0.000000 0.049320
#
#
# Mechanical properties :
#
#
# Convention : Reuss Voigt Hill
#
# Bulk Modulus (GPa) = 18.32902 39.66356 28.99629
# Shear Modulus (GPa) = 15.09931 25.27710 20.18820
#
# Velocity S-wave (km/s) = 2.89085 3.74034 3.34269
# Velocity P-wave (km/s) = 4.61382 6.37230 5.56298
#
# Compressibility (1/GPa) = 0.05455829
#
# Stress axis : x y z
#
# Youngs Moduli (GPa) = 38.39543 13.72100 114.25002
#
# Poissons Ratio (x) = 0.25334 0.56697
# Poissons Ratio (y) = 0.70891 0.35808
# Poissons Ratio (z) = 0.19054 0.04300
#
# Static dielectric constant tensor:
#      x y z
#    x 1.609410 0.000000 0.000000 
#    y 0.000000 1.688270 0.000000 
#    z 0.000000 0.000000 1.623780 
# 
# From -- ./inp_files/70237.got.cif
#   From: 2010.05.17/outbox.ucp.g08.bks.cvg/sg74_36_cif.got.tgz:70237.got - 2010.06.11 16:37:44.
