data_PCOD9540588
_publ_section_title
;
Structure prediction by ZEFSAII (Michael W. Deem and Ramdas Pophale) SiO2 
 PCOD9540588
Probable space group: I M M A
;
_chemical_formula_sum "Si O2"
_cell_formula_units_Z 68
_cell_length_a 20.735094
_cell_length_b 16.609277
_cell_length_c 9.608962
_cell_angle_alpha 90.000000
_cell_angle_beta 90.000000
_cell_angle_gamma 90.000000
_cell_volume 3309.277698
_symmetry_space_group_name_H-M "I M M A"
_symmetry_group_IT_number 74
_symmetry_cell_setting 'orthorhombic'
loop_
_space_group_symop_operation_xyz
x,y,z
-x,1/2-y,z
x,-y,-z
-x,1/2+y,-z
-x,-y,-z
x,1/2+y,-z
-x,y,z
x,1/2-y,z
1/2+x,1/2+y,1/2+z
1/2-x,-y,1/2+z
1/2+x,1/2-y,1/2-z
1/2-x,y,1/2-z
1/2-x,1/2-y,1/2-z
1/2+x,y,1/2-z
1/2-x,1/2+y,1/2+z
1/2+x,-y,1/2+z
loop_
_atom_site_type_symbol
_atom_site_label
_atom_site_fract_x
_atom_site_fract_y
_atom_site_fract_z
Si Si1 0.423270 0.658715 0.954415
Si Si2 0.379307 0.071155 0.318737
Si Si3 0.206531 0.343428 0.948638
Si Si4 0.165023 0.587649 0.325942
Si Si5 0.500000 0.000000 0.500000
O O1 0.500000 0.656297 0.957932
O O2 0.401210 0.750000 0.982655
O O3 0.399876 0.631055 0.803670
O O4 0.394641 0.601965 0.073274
O O5 0.334680 0.116035 0.430460
O O6 0.442397 0.964470 0.604515
O O7 0.340096 0.999018 0.244998
O O8 0.221051 0.250000 0.977389
O O9 0.167111 0.350850 0.803845
O O10 0.271418 0.393426 0.916034
#
# Coordination Sequence:
#
# PCOD9540588 Si02
#       5
#    16  16  16  16   4
#     4  11  25  43  66  99 136 177 227 283 344 405
#     4  12  25  45  71  98 136 184 232 278 340 414
#     4  11  24  46  70  98 137 176 226 285 343 411
#     4  11  24  42  67 102 135 177 224 285 347 406
#     4  12  24  48  64 100 140 176 236 278 334 406
#
# _framework density 20.548290000000001
#
# number of rings (size 3 to 8) (size 9 to 14) (size 15 to 20)
#    0.000    0.706    3.529    4.235    1.647    9.412 
#    0.000    2.353    0.000    0.000    0.000    0.000 
#    0.000    0.000    0.000    0.000    0.000    0.000 
#
# Total GULP energy -189682.346116 kJ/mol
# GULP energy per Si atom -5578.892533 kJ/mol
# Density = 2.050152 g / cm^3
# Si number density = 20.548290 Si / 1000 Ang^3
#
#
#
# Elastic Constant Matrix: (Units=GPa)
#
#
# Indices 1 2 3 4 5 6 
#
# 1 110.9817 60.0778 61.9779 0.0000 0.0000 0.0000
# 2 60.0778 65.2756 37.6879 0.0000 0.0000 0.0000
# 3 61.9779 37.6879 104.5083 0.0000 0.0000 0.0000
# 4 0.0000 0.0000 0.0000 31.7822 0.0000 0.0000
# 5 0.0000 0.0000 0.0000 0.0000 39.0532 0.0000
# 6 0.0000 0.0000 0.0000 0.0000 0.0000 13.8287
#
#
#
# Elastic Compliance Matrix: (Units=1/GPa)
#
#
# Indices 1 2 3 4 5 6 
#
# 1 0.021419 -0.015635 -0.007064 0.000000 0.000000 0.000000
# 2 -0.015635 0.030761 -0.001821 0.000000 0.000000 0.000000
# 3 -0.007064 -0.001821 0.014415 0.000000 0.000000 0.000000
# 4 0.000000 0.000000 0.000000 0.031464 0.000000 0.000000
# 5 0.000000 0.000000 0.000000 0.000000 0.025606 0.000000
# 6 0.000000 0.000000 0.000000 0.000000 0.000000 0.072314
#
#
# Mechanical properties :
#
#
# Convention : Reuss Voigt Hill
#
# Bulk Modulus (GPa) = 56.96469 66.69475 61.82972
# Shear Modulus (GPa) = 19.93062 25.00095 22.46578
#
# Velocity S-wave (km/s) = 3.11777 3.49190 3.31012
# Velocity P-wave (km/s) = 6.38304 6.98468 6.69063
#
# Compressibility (1/GPa) = 0.01755474
#
# Stress axis : x y z
#
# Youngs Moduli (GPa) = 46.68706 32.50876 69.37400
#
# Poissons Ratio (x) = 0.50827 0.49007
# Poissons Ratio (y) = 0.72995 0.12632
# Poissons Ratio (z) = 0.32981 0.05919
#
# Static dielectric constant tensor:
#      x y z
#    x 1.724930 0.000000 0.000000 
#    y 0.000000 1.760990 0.000000 
#    z 0.000000 0.000000 1.715310 
# 
# From -- ./inp_files/4386.got.cif
#   From: 2010.05.17/outbox.cif.g08.bks.cpg/sg74_3_cif.got.tgz:4386.got - 2010.06.03 17:57:02.
