data_PCOD9540474
_publ_section_title
;
Structure prediction by ZEFSAII (Michael W. Deem and Ramdas Pophale) SiO2 
 PCOD9540474
Probable space group: I M M A
;
_chemical_formula_sum "Si O2"
_cell_formula_units_Z 52
_cell_length_a 7.734441
_cell_length_b 17.025686
_cell_length_c 17.543390
_cell_angle_alpha 90.000000
_cell_angle_beta 90.000000
_cell_angle_gamma 90.000000
_cell_volume 2310.186643
_symmetry_space_group_name_H-M "I M M A"
_symmetry_group_IT_number 74
_symmetry_cell_setting 'orthorhombic'
loop_
_space_group_symop_operation_xyz
x,y,z
-x,1/2-y,z
x,-y,-z
-x,1/2+y,-z
-x,-y,-z
x,1/2+y,-z
-x,y,z
x,1/2-y,z
1/2+x,1/2+y,1/2+z
1/2-x,-y,1/2+z
1/2+x,1/2-y,1/2-z
1/2-x,y,1/2-z
1/2-x,1/2-y,1/2-z
1/2+x,y,1/2-z
1/2-x,1/2+y,1/2+z
1/2+x,-y,1/2+z
loop_
_atom_site_type_symbol
_atom_site_label
_atom_site_fract_x
_atom_site_fract_y
_atom_site_fract_z
Si Si1 0.200737 0.339183 0.975839
Si Si2 0.301165 0.123944 0.141959
Si Si3 0.000000 0.250000 0.178515
Si Si4 0.204155 0.057257 0.665995
O O1 0.256374 0.250000 0.958031
O O2 0.214941 0.393917 0.902632
O O3 0.000000 0.335942 0.999496
O O4 0.299779 0.369154 0.049919
O O5 0.500000 0.141667 0.167165
O O6 0.155219 0.182388 0.172000
O O7 0.251302 0.034806 0.161800
O O8 0.250000 0.087427 0.750000
O O9 0.000000 0.062545 0.655276
#
# Coordination Sequence:
#
# PCOD9540474 Si02
#       4
#    16  16   4  16
#     4  11  22  40  68 100 131 169 215 272 330 384
#     4  11  23  42  68  99 133 167 221 270 326 389
#     4  12  22  40  72 102 126 176 206 284 322 386
#     4  11  26  43  65  93 130 178 219 268 328 393
#
# _framework density 22.509003
#
# number of rings (size 3 to 8) (size 9 to 14) (size 15 to 20)
#    0.000    0.923    3.077    3.231    4.308    6.154 
#    0.000    0.769    0.000    0.000    0.000    0.000 
#    0.000    0.000    0.000    0.000    0.000    0.000 
#
# Total GULP energy -145079.640374 kJ/mol
# GULP energy per Si atom -5579.986168 kJ/mol
# Density = 2.245777 g / cm^3
# Si number density = 22.509003 Si / 1000 Ang^3
#
#
#
# Elastic Constant Matrix: (Units=GPa)
#
#
# Indices 1 2 3 4 5 6 
#
# 1 53.0068 27.9193 53.4315 0.0000 0.0000 0.0000
# 2 27.9193 75.0207 57.2438 0.0000 0.0000 0.0000
# 3 53.4315 57.2438 141.0576 0.0000 0.0000 0.0000
# 4 0.0000 0.0000 0.0000 -68.4677 0.0000 0.0000
# 5 0.0000 0.0000 0.0000 0.0000 37.2337 0.0000
# 6 0.0000 0.0000 0.0000 0.0000 0.0000 54.1131
#
#
#
# Elastic Compliance Matrix: (Units=1/GPa)
#
#
# Indices 1 2 3 4 5 6 
#
# 1 0.031234 -0.003761 -0.010305 0.000000 0.000000 0.000000
# 2 -0.003761 0.019762 -0.006595 0.000000 0.000000 0.000000
# 3 -0.010305 -0.006595 0.013669 0.000000 0.000000 0.000000
# 4 0.000000 0.000000 0.000000 -0.014605 0.000000 0.000000
# 5 0.000000 0.000000 0.000000 0.000000 0.026857 0.000000
# 6 0.000000 0.000000 0.000000 0.000000 0.000000 0.018480
#
#
# Mechanical properties :
#
#
# Convention : Reuss Voigt Hill
#
# Bulk Modulus (GPa) = 42.83938 60.69715 51.76826
# Shear Modulus (GPa) = 34.60234 13.27518 23.93876
#
# Velocity S-wave (km/s) = 3.92505 2.43116 3.26470
# Velocity P-wave (km/s) = 6.29403 5.90804 6.10409
#
# Compressibility (1/GPa) = 0.02334301
#
# Stress axis : x y z
#
# Youngs Moduli (GPa) = 32.01650 50.60336 73.15746
#
# Poissons Ratio (x) = 0.19031 0.75389
# Poissons Ratio (y) = 0.12041 0.48248
# Poissons Ratio (z) = 0.32993 0.33373
#
# Static dielectric constant tensor:
#      x y z
#    x 1.818570 0.000000 0.000000 
#    y 0.000000 1.799480 0.000000 
#    z 0.000000 0.000000 3.768490 
# 
# From -- ./inp_files/38776.got.cif
#   From: 2010.05.17/outbox.cif.g08.bks.cpg/sg74_20_cif.got.tgz:38776.got - 2010.06.03 17:57:02.
