data_PCOD9540760
_publ_section_title
;
Structure prediction by ZEFSAII (Michael W. Deem and Ramdas Pophale) SiO2 
 PCOD9540760
Probable space group: I M M A
;
_chemical_formula_sum "Si O2"
_cell_formula_units_Z 96
_cell_length_a 14.431416
_cell_length_b 13.940745
_cell_length_c 20.162393
_cell_angle_alpha 90.000000
_cell_angle_beta 90.000000
_cell_angle_gamma 90.000000
_cell_volume 4056.364794
_symmetry_space_group_name_H-M "I M M A"
_symmetry_group_IT_number 74
_symmetry_cell_setting 'orthorhombic'
loop_
_space_group_symop_operation_xyz
x,y,z
-x,1/2-y,z
x,-y,-z
-x,1/2+y,-z
-x,-y,-z
x,1/2+y,-z
-x,y,z
x,1/2-y,z
1/2+x,1/2+y,1/2+z
1/2-x,-y,1/2+z
1/2+x,1/2-y,1/2-z
1/2-x,y,1/2-z
1/2-x,1/2-y,1/2-z
1/2+x,y,1/2-z
1/2-x,1/2+y,1/2+z
1/2+x,-y,1/2+z
loop_
_atom_site_type_symbol
_atom_site_label
_atom_site_fract_x
_atom_site_fract_y
_atom_site_fract_z
Si Si1 0.800825 0.881476 0.437873
Si Si2 0.889207 0.071351 0.284268
Si Si3 0.703559 0.611476 0.918195
Si Si4 0.111008 0.147082 0.701060
Si Si5 0.104909 0.390721 0.138169
Si Si6 0.899232 0.576500 0.061557
O O1 0.834264 0.853542 0.511264
O O2 0.859861 0.847859 0.376118
O O3 0.691180 0.859075 0.435238
O O4 0.798870 0.996712 0.429200
O O5 0.855539 0.959776 0.278345
O O6 0.870755 0.123491 0.214872
O O7 0.000000 0.067618 0.291974
O O8 0.848788 0.123403 0.348918
O O9 0.809704 0.643231 0.906282
O O10 0.141962 0.250000 0.732059
O O11 0.000000 0.144908 0.707804
O O12 0.101407 0.505531 0.124793
O O13 0.000000 0.357000 0.123746
O O14 0.000000 0.623623 0.056781
O O15 0.893417 0.500000 0.000000
#
# Coordination Sequence:
#
# PCOD9540760 Si02
#       6
#    16  16  16  16  16  16
#     4   9  15  25  41  60  79 103 137 175 216 255
#     4   9  17  26  38  57  82 111 139 169 210 252
#     4   9  15  24  38  58  82 105 128 168 214 263
#     4   9  18  31  44  57  78 114 158 190 209 237
#     4   9  15  23  37  57  82 108 132 159 198 254
#     4   9  14  23  40  60  81 105 132 164 207 258
#
# _framework density 23.666509999999999
#
# number of rings (size 3 to 8) (size 9 to 14) (size 15 to 20)
#    0.000    3.000    3.333    0.500    0.000    0.667 
#    0.000    3.333    0.000   18.500    0.000    7.000 
#    0.000    2.667    0.000    3.667    0.000    0.167 
#
# Total GULP energy -267432.704628 kJ/mol
# GULP energy per Si atom -5571.514680 kJ/mol
# Density = 2.361264 g / cm^3
# Si number density = 23.666510 Si / 1000 Ang^3
#
#
#
# Elastic Constant Matrix: (Units=GPa)
#
#
# Indices 1 2 3 4 5 6 
#
# 1 37.0554 -4.2181 13.0219 0.0000 0.0000 0.0000
# 2 -4.2181 93.8639 -13.3403 0.0000 0.0000 0.0000
# 3 13.0219 -13.3403 98.4561 0.0000 0.0000 0.0000
# 4 0.0000 0.0000 0.0000 -32.6642 0.0000 0.0000
# 5 0.0000 0.0000 0.0000 0.0000 29.0046 0.0000
# 6 0.0000 0.0000 0.0000 0.0000 0.0000 -50.6418
#
#
#
# Elastic Compliance Matrix: (Units=1/GPa)
#
#
# Indices 1 2 3 4 5 6 
#
# 1 0.028355 0.000756 -0.003648 0.000000 0.000000 0.000000
# 2 0.000756 0.010883 0.001375 0.000000 0.000000 0.000000
# 3 -0.003648 0.001375 0.010826 0.000000 0.000000 0.000000
# 4 0.000000 0.000000 0.000000 -0.030615 0.000000 0.000000
# 5 0.000000 0.000000 0.000000 0.000000 0.034477 0.000000
# 6 0.000000 0.000000 0.000000 0.000000 0.000000 -0.019747
#
#
# Mechanical properties :
#
#
# Convention : Reuss Voigt Hill
#
# Bulk Modulus (GPa) = 21.26376 24.47804 22.87090
# Shear Modulus (GPa) = 94.53560 4.73385 49.63473
#
# Velocity S-wave (km/s) = 6.32705 1.41583 4.58455
# Velocity P-wave (km/s) = 7.89808 3.61083 6.14076
#
# Compressibility (1/GPa) = 0.04702837
#
# Stress axis : x y z
#
# Youngs Moduli (GPa) = 35.26774 91.88594 92.37425
#
# Poissons Ratio (x) = -0.06944 0.33696
# Poissons Ratio (y) = -0.02665 -0.12698
# Poissons Ratio (z) = 0.12865 -0.12631
#
# Static dielectric constant tensor:
#      x y z
#    x 1.899220 0.000000 0.000000 
#    y 0.000000 2.194260 0.000000 
#    z 0.000000 0.000000 1.922630 
# 
# From -- ./inp_files/52253.got.cif
#   From: 2010.05.17/outbox.cif.g08.bks.cpg/sg74_27_cif.got.tgz:52253.got - 2010.06.03 17:57:02.
