data_PCOD9540719
_publ_section_title
;
Structure prediction by ZEFSAII (Michael W. Deem and Ramdas Pophale) SiO2 
 PCOD9540719
Probable space group: I M M A
;
_chemical_formula_sum "Si O2"
_cell_formula_units_Z 96
_cell_length_a 7.443091
_cell_length_b 31.138963
_cell_length_c 20.679029
_cell_angle_alpha 90.000000
_cell_angle_beta 90.000000
_cell_angle_gamma 90.000000
_cell_volume 4792.781348
_symmetry_space_group_name_H-M "I M M A"
_symmetry_group_IT_number 74
_symmetry_cell_setting 'orthorhombic'
loop_
_space_group_symop_operation_xyz
x,y,z
-x,1/2-y,z
x,-y,-z
-x,1/2+y,-z
-x,-y,-z
x,1/2+y,-z
-x,y,z
x,1/2-y,z
1/2+x,1/2+y,1/2+z
1/2-x,-y,1/2+z
1/2+x,1/2-y,1/2-z
1/2-x,y,1/2-z
1/2-x,1/2-y,1/2-z
1/2+x,y,1/2-z
1/2-x,1/2+y,1/2+z
1/2+x,-y,1/2+z
loop_
_atom_site_type_symbol
_atom_site_label
_atom_site_fract_x
_atom_site_fract_y
_atom_site_fract_z
Si Si1 0.714511 0.416667 0.821728
Si Si2 0.285736 0.200751 0.180689
Si Si3 0.780870 0.542656 0.539565
Si Si4 0.780743 0.299621 0.460655
Si Si5 0.780166 0.623435 0.453536
Si Si6 0.714842 0.015122 0.178034
O O1 0.500000 0.419751 0.829106
O O2 0.750000 0.399618 0.750000
O O3 0.780655 0.388511 0.881476
O O4 0.784089 0.465827 0.824632
O O5 0.500000 0.203141 0.176528
O O6 0.215479 0.250000 0.184202
O O7 0.250000 0.179329 0.250000
O O8 0.224974 0.183782 0.110998
O O9 0.727128 0.500000 0.500000
O O10 0.724789 0.584867 0.501128
O O11 0.720731 0.539588 0.614080
O O12 0.000000 0.542974 0.539387
O O13 0.725010 0.250000 0.467539
O O14 0.720069 0.331652 0.516327
O O15 0.000000 0.299534 0.461706
O O16 0.000000 0.624060 0.453039
O O17 0.500000 0.013075 0.172249
O O18 0.750000 0.032574 0.250000
#
# Coordination Sequence:
#
# PCOD9540719 Si02
#       6
#    16  16  16  16  16  16
#     4   9  16  26  42  63  83 105 135 169 203 244
#     4   8  13  22  37  56  77 101 130 164 199 235
#     4   9  14  23  39  59  80 102 133 172 202 231
#     4   8  14  24  38  58  82 105 134 174 211 239
#     4   9  15  24  41  62  80 103 138 173 204 239
#     4   9  16  26  41  60  84 111 137 168 204 242
#
# _framework density 20.030121999999999
#
# number of rings (size 3 to 8) (size 9 to 14) (size 15 to 20)
#    0.000    3.333    1.667    1.000    0.000    0.000 
#    0.000    0.833    0.000    3.000    0.000    0.000 
#    0.000    0.000    0.000    0.000    0.000    0.000 
#
# Total GULP energy -267437.815449 kJ/mol
# GULP energy per Si atom -5571.621155 kJ/mol
# Density = 1.998453 g / cm^3
# Si number density = 20.030122 Si / 1000 Ang^3
#
#
#
# Elastic Constant Matrix: (Units=GPa)
#
#
# Indices 1 2 3 4 5 6 
#
# 1 58.4471 1.0724 2.2723 0.0000 0.0000 0.0000
# 2 1.0724 73.0116 74.8389 0.0000 0.0000 0.0000
# 3 2.2723 74.8389 221.9395 0.0000 0.0000 0.0000
# 4 0.0000 0.0000 0.0000 25.7220 0.0000 0.0000
# 5 0.0000 0.0000 0.0000 0.0000 16.9501 0.0000
# 6 0.0000 0.0000 0.0000 0.0000 0.0000 -4.8233
#
#
#
# Elastic Compliance Matrix: (Units=1/GPa)
#
#
# Indices 1 2 3 4 5 6 
#
# 1 0.017117 -0.000110 -0.000138 0.000000 0.000000 0.000000
# 2 -0.000110 0.020932 -0.007057 0.000000 0.000000 0.000000
# 3 -0.000138 -0.007057 0.006887 0.000000 0.000000 0.000000
# 4 0.000000 0.000000 0.000000 0.038877 0.000000 0.000000
# 5 0.000000 0.000000 0.000000 0.000000 0.058997 0.000000
# 6 0.000000 0.000000 0.000000 0.000000 0.000000 -0.207327
#
#
# Mechanical properties :
#
#
# Convention : Reuss Voigt Hill
#
# Bulk Modulus (GPa) = 32.97574 56.64061 44.80818
# Shear Modulus (GPa) = -125.63374 25.91739 -49.85817
#
# Velocity S-wave (km/s) = -7.92834 3.60101 -4.99456
# Velocity P-wave (km/s) = 8.20443 6.75491 3.29270
#
# Compressibility (1/GPa) = 0.03032532
#
# Stress axis : x y z
#
# Youngs Moduli (GPa) = 58.42191 47.77395 145.20387
#
# Poissons Ratio (x) = 0.00524 0.02008
# Poissons Ratio (y) = 0.00641 1.02473
# Poissons Ratio (z) = 0.00808 0.33715
#
# Static dielectric constant tensor:
#      x y z
#    x 1.779020 0.000000 0.000000 
#    y 0.000000 1.680070 0.000000 
#    z 0.000000 0.000000 1.741570 
# 
# From -- ./inp_files/41623.got.cif
#   From: 2010.05.17/outbox.cif.g08.bks.cpg/sg74_21_cif.got.tgz:41623.got - 2010.06.03 17:57:02.
