data_PCOD9540410
_publ_section_title
;
Structure prediction by ZEFSAII (Michael W. Deem and Ramdas Pophale) SiO2 
 PCOD9540410
Probable space group: I M M A
;
_chemical_formula_sum "Si O2"
_cell_formula_units_Z 64
_cell_length_a 8.808330
_cell_length_b 29.047424
_cell_length_c 14.495946
_cell_angle_alpha 90.000000
_cell_angle_beta 90.000000
_cell_angle_gamma 90.000000
_cell_volume 3708.922542
_symmetry_space_group_name_H-M "I M M A"
_symmetry_group_IT_number 74
_symmetry_cell_setting 'orthorhombic'
loop_
_space_group_symop_operation_xyz
x,y,z
-x,1/2-y,z
x,-y,-z
-x,1/2+y,-z
-x,-y,-z
x,1/2+y,-z
-x,y,z
x,1/2-y,z
1/2+x,1/2+y,1/2+z
1/2-x,-y,1/2+z
1/2+x,1/2-y,1/2-z
1/2-x,y,1/2-z
1/2-x,1/2-y,1/2-z
1/2+x,y,1/2-z
1/2-x,1/2+y,1/2+z
1/2+x,-y,1/2+z
loop_
_atom_site_type_symbol
_atom_site_label
_atom_site_fract_x
_atom_site_fract_y
_atom_site_fract_z
Si Si1 0.181785 0.126020 0.351223
Si Si2 0.316707 0.803576 0.008643
Si Si3 0.818872 0.624070 0.148162
Si Si4 0.183218 0.946517 0.494685
O O1 0.250000 0.126351 0.250000
O O2 0.225661 0.169887 0.414255
O O3 0.224646 0.081387 0.412356
O O4 0.000000 0.126210 0.343127
O O5 0.500000 0.807402 0.018172
O O6 0.276127 0.750000 0.007115
O O7 0.240562 0.831552 0.091669
O O8 0.750000 0.623557 0.250000
O O9 0.759977 0.580322 0.089609
O O10 0.000000 0.624173 0.152056
O O11 0.000000 0.943009 0.484121
O O12 0.224218 0.000000 0.500000
#
# Coordination Sequence:
#
# PCOD9540410 Si02
#       4
#    16  16  16  16
#     4   9  18  32  51  76 105 136 170 210 258 309
#     4   9  19  37  57  76 102 137 177 220 265 313
#     4  11  22  36  55  79 108 140 176 217 262 315
#     4   9  19  37  57  77 105 140 177 219 265 309
#
# _framework density 17.255683999999999
#
# number of rings (size 3 to 8) (size 9 to 14) (size 15 to 20)
#    0.000    2.500    0.000    3.750    0.000    7.000 
#    0.000    2.500    0.000    0.000    0.000    0.000 
#    0.000    0.000    0.000    0.000    0.000    0.000 
#
# Total GULP energy -178541.629857 kJ/mol
# GULP energy per Si atom -5579.425933 kJ/mol
# Density = 1.721641 g / cm^3
# Si number density = 17.255684 Si / 1000 Ang^3
#
#
#
# Elastic Constant Matrix: (Units=GPa)
#
#
# Indices 1 2 3 4 5 6 
#
# 1 48.9579 63.0262 65.2297 0.0000 0.0000 0.0000
# 2 63.0262 195.1246 109.5830 0.0000 0.0000 0.0000
# 3 65.2297 109.5830 204.2675 0.0000 0.0000 0.0002
# 4 0.0000 0.0000 0.0000 5.3332 0.0000 0.0000
# 5 0.0000 0.0000 0.0000 0.0000 37.8071 0.0000
# 6 0.0000 0.0000 0.0002 0.0000 0.0000 27.8715
#
#
#
# Elastic Compliance Matrix: (Units=1/GPa)
#
#
# Indices 1 2 3 4 5 6 
#
# 1 0.044715 -0.009194 -0.009347 0.000000 0.000000 0.000000
# 2 -0.009194 0.009225 -0.002013 0.000000 0.000000 0.000000
# 3 -0.009347 -0.002013 0.008960 0.000000 0.000000 0.000000
# 4 0.000000 0.000000 0.000000 0.187504 0.000000 0.000000
# 5 0.000000 0.000000 0.000000 0.000000 0.026450 0.000000
# 6 0.000000 0.000000 0.000000 0.000000 0.000000 0.035879
#
#
# Mechanical properties :
#
#
# Convention : Reuss Voigt Hill
#
# Bulk Modulus (GPa) = 45.88679 102.66975 74.27827
# Shear Modulus (GPa) = 13.84638 28.23643 21.04140
#
# Velocity S-wave (km/s) = 2.83578 4.04958 3.49576
# Velocity P-wave (km/s) = 6.11328 9.02739 7.70928
#
# Compressibility (1/GPa) = 0.02179277
#
# Stress axis : x y z
#
# Youngs Moduli (GPa) = 22.36389 108.39913 111.60420
#
# Poissons Ratio (x) = 0.99662 1.04314
# Poissons Ratio (y) = 0.20561 0.22467
# Poissons Ratio (z) = 0.20903 0.21821
#
# Static dielectric constant tensor:
#      x y z
#    x 1.565820 0.000000 0.000000 
#    y 0.000000 1.578830 0.000000 
#    z 0.000000 0.000000 1.553170 
# 
# From -- ./inp_files/17561.got.cif
#   From: 2010.05.17/outbox.cif.g08.bks.cpg/sg74_9_cif.got.tgz:17561.got - 2010.06.03 17:57:02.
