data_PCOD9540745
_publ_section_title
;
Structure prediction by ZEFSAII (Michael W. Deem and Ramdas Pophale) SiO2 
 PCOD9540745
Probable space group: I M M A
;
_chemical_formula_sum "Si O2"
_cell_formula_units_Z 72
_cell_length_a 21.637216
_cell_length_b 17.102917
_cell_length_c 8.158877
_cell_angle_alpha 90.000000
_cell_angle_beta 90.000000
_cell_angle_gamma 90.000000
_cell_volume 3019.270020
_symmetry_space_group_name_H-M "I M M A"
_symmetry_group_IT_number 74
_symmetry_cell_setting 'orthorhombic'
loop_
_space_group_symop_operation_xyz
x,y,z
-x,1/2-y,z
x,-y,-z
-x,1/2+y,-z
-x,-y,-z
x,1/2+y,-z
-x,y,z
x,1/2-y,z
1/2+x,1/2+y,1/2+z
1/2-x,-y,1/2+z
1/2+x,1/2-y,1/2-z
1/2-x,y,1/2-z
1/2-x,1/2-y,1/2-z
1/2+x,y,1/2-z
1/2-x,1/2+y,1/2+z
1/2+x,-y,1/2+z
loop_
_atom_site_type_symbol
_atom_site_label
_atom_site_fract_x
_atom_site_fract_y
_atom_site_fract_z
Si Si1 0.741751 0.250000 0.551503
Si Si2 0.925941 0.250000 0.445155
Si Si3 0.756851 0.082929 0.943453
Si Si4 0.899694 0.082739 0.047688
Si Si5 0.597761 0.250000 0.447422
Si Si6 0.074899 0.083094 0.425234
O O1 0.750000 0.250000 0.750000
O O2 0.767120 0.166494 0.488284
O O3 0.669591 0.250000 0.501059
O O4 0.909691 0.250000 0.250559
O O5 0.906379 0.335137 0.513110
O O6 0.000000 0.250000 0.456445
O O7 0.750000 0.084910 0.750000
O O8 0.829695 0.081614 0.983177
O O9 0.730153 0.000000 0.000000
O O10 0.927957 0.166186 0.993719
O O11 0.898475 0.084398 0.243279
O O12 0.929326 0.000000 0.000000
O O13 0.000000 0.084120 0.412159
O O14 0.091804 0.000000 0.500000
#
# Coordination Sequence:
#
# PCOD9540745 Si02
#       6
#     8   8  16  16   8  16
#     4   8  14  26  47  70  94 122 154 198 248 296
#     4   8  14  26  45  68  96 131 167 200 238 288
#     4   9  17  31  50  73  98 126 161 202 250 299
#     4   9  17  30  48  72  98 130 165 203 246 292
#     4   8  14  26  45  66  94 127 163 198 238 292
#     4   9  17  30  49  73 101 133 168 205 245 291
#
# _framework density 23.846822
#
# number of rings (size 3 to 8) (size 9 to 14) (size 15 to 20)
#    0.000    3.333    0.000    0.000    0.000    0.444 
#    0.000    6.111    0.000    0.000    0.000   46.667 
#    0.000    0.000    0.000    0.000    0.000    0.000 
#
# Total GULP energy -200572.798697 kJ/mol
# GULP energy per Si atom -5571.466630 kJ/mol
# Density = 2.379255 g / cm^3
# Si number density = 23.846822 Si / 1000 Ang^3
#
#
#
# Elastic Constant Matrix: (Units=GPa)
#
#
# Indices 1 2 3 4 5 6 
#
# 1 118.1589 5.4835 7.0514 0.0000 0.0000 0.0000
# 2 5.4835 359.2168 35.7211 0.0000 0.0000 0.0000
# 3 7.0514 35.7211 18.0445 0.0000 0.0000 0.0000
# 4 0.0000 0.0000 0.0000 48.0785 0.0000 0.0000
# 5 0.0000 0.0000 0.0000 0.0000 33.7106 0.0000
# 6 0.0000 0.0000 0.0000 0.0000 0.0000 -150.7561
#
#
#
# Elastic Compliance Matrix: (Units=1/GPa)
#
#
# Indices 1 2 3 4 5 6 
#
# 1 0.008684 0.000255 -0.003899 0.000000 0.000000 0.000000
# 2 0.000255 0.003474 -0.006976 0.000000 0.000000 0.000000
# 3 -0.003899 -0.006976 0.070752 0.000000 0.000000 0.000000
# 4 0.000000 0.000000 0.000000 0.020799 0.000000 0.000000
# 5 0.000000 0.000000 0.000000 0.000000 0.029664 0.000000
# 6 0.000000 0.000000 0.000000 0.000000 0.000000 -0.006633
#
#
# Mechanical properties :
#
#
# Convention : Reuss Voigt Hill
#
# Bulk Modulus (GPa) = 16.21517 65.77024 40.99270
# Shear Modulus (GPa) = 29.66716 16.01754 22.84235
#
# Velocity S-wave (km/s) = 3.53097 2.59450 3.09832
# Velocity P-wave (km/s) = 4.84129 6.05107 5.47967
#
# Compressibility (1/GPa) = 0.06167066
#
# Stress axis : x y z
#
# Youngs Moduli (GPa) = 115.15437 287.88024 14.13381
#
# Poissons Ratio (x) = -0.07344 0.05510
# Poissons Ratio (y) = -0.02938 0.09860
# Poissons Ratio (z) = 0.44894 2.00832
#
# Static dielectric constant tensor:
#      x y z
#    x 1.851320 0.000000 0.000000 
#    y 0.000000 2.085690 0.000000 
#    z 0.000000 0.000000 1.835670 
# 
# From -- ./inp_files/14864.got.cif
#   From: 2010.05.17/outbox.cif.g08.bks.cpg/sg74_8_cif.got.tgz:14864.got - 2010.06.03 17:57:02.
