data_PCOD9540913
_publ_section_title
;
Structure prediction by ZEFSAII (Michael W. Deem and Ramdas Pophale) SiO2 
 PCOD9540913
Probable space group: I M M A
;
_chemical_formula_sum "Si O2"
_cell_formula_units_Z 36
_cell_length_a 21.000000
_cell_length_b 9.000000
_cell_length_c 21.000000
_cell_angle_alpha 90.000000
_cell_angle_beta 90.000000
_cell_angle_gamma 90.000000
_cell_volume 3969.000000
_symmetry_space_group_name_H-M "I M M A"
_symmetry_group_IT_number 74
_symmetry_cell_setting 'orthorhombic'
loop_
_space_group_symop_operation_xyz
x,y,z
-x,1/2-y,z
x,-y,-z
-x,1/2+y,-z
-x,-y,-z
x,1/2+y,-z
-x,y,z
x,1/2-y,z
1/2+x,1/2+y,1/2+z
1/2-x,-y,1/2+z
1/2+x,1/2-y,1/2-z
1/2-x,y,1/2-z
1/2-x,1/2-y,1/2-z
1/2+x,y,1/2-z
1/2-x,1/2+y,1/2+z
1/2+x,-y,1/2+z
loop_
_atom_site_type_symbol
_atom_site_label
_atom_site_fract_x
_atom_site_fract_y
_atom_site_fract_z
Si Si1 0.810729 0.929762 0.796482
Si Si2 0.355738 0.069165 0.572900
Si Si3 0.922615 0.578576 0.434413
Si Si4 0.500000 0.072376 0.569020
Si Si5 0.925649 0.429006 0.299163
O O1 0.809898 0.750000 0.805480
O O2 0.750000 0.966324 0.750000
O O3 0.874541 0.969299 0.755456
O O4 0.814211 0.005235 0.867236
O O5 0.349162 0.250000 0.568478
O O6 0.429422 0.032159 0.594073
O O7 0.345881 0.000000 0.500000
O O8 0.900565 0.500000 0.500000
O O9 0.901737 0.750000 0.433278
O O10 0.906515 0.497793 0.367866
O O11 0.000000 0.577150 0.436733
O O12 0.500000 0.250000 0.564810
O O13 0.500000 0.000000 0.500000
O O14 0.924579 0.250000 0.305126
O O15 0.000000 0.472215 0.285565
#
# Coordination Sequence:
#
# PCOD9540913 Si02
#       5
#    16  16  16   8  16
#     4  10  22  39  57  80 114 151 186 229 282 338
#     4  10  20  36  59  86 116 150 190 235 285 341
#     4   9  16  27  46  73 104 136 171 217 268 316
#     4   8  16  30  50  82 116 144 177 226 281 332
#     4   9  18  33  53  77 104 138 180 224 273 330
#
# _framework density 9.0702949999999998
#
# number of rings (size 3 to 8) (size 9 to 14) (size 15 to 20)
#    0.000    2.667    0.000    1.333    1.556    4.889 
#    0.000    1.111    0.000    0.000    0.000    0.000 
#    0.000    0.000    0.000    0.000    0.000    0.000 
#
# Total GULP energy -200423.643668 kJ/mol
# GULP energy per Si atom -5567.323435 kJ/mol
# Density = 0.904965 g / cm^3
# Si number density = 9.070295 Si / 1000 Ang^3
#
#
#
# Elastic Constant Matrix: (Units=GPa)
#
#
# Indices 1 2 3 4 5 6 
#
# 1 70.7624 22.5837 51.3750 0.0000 0.0000 0.0000
# 2 22.5837 59.6110 52.0299 0.0000 0.0000 0.0000
# 3 51.3750 52.0299 162.4886 0.0000 0.0000 0.0000
# 4 0.0000 0.0000 0.0000 40.0075 0.0000 0.0000
# 5 0.0000 0.0000 0.0000 0.0000 36.2433 0.0000
# 6 0.0000 0.0000 0.0000 0.0000 0.0000 17.0555
#
#
#
# Elastic Compliance Matrix: (Units=1/GPa)
#
#
# Indices 1 2 3 4 5 6 
#
# 1 0.018642 -0.002662 -0.005042 0.000000 0.000000 0.000000
# 2 -0.002662 0.023663 -0.006735 0.000000 0.000000 0.000000
# 3 -0.005042 -0.006735 0.009905 0.000000 0.000000 0.000000
# 4 0.000000 0.000000 0.000000 0.024995 0.000000 0.000000
# 5 0.000000 0.000000 0.000000 0.000000 0.027591 0.000000
# 6 0.000000 0.000000 0.000000 0.000000 0.000000 0.058632
#
#
# Mechanical properties :
#
#
# Convention : Reuss Voigt Hill
#
# Bulk Modulus (GPa) = 42.86043 60.53769 51.69906
# Shear Modulus (GPa) = 24.98962 29.78616 27.38789
#
# Velocity S-wave (km/s) = 3.71557 4.05651 3.88978
# Velocity P-wave (km/s) = 6.48732 7.44206 6.98103
#
# Compressibility (1/GPa) = 0.02333154
#
# Stress axis : x y z
#
# Youngs Moduli (GPa) = 53.64308 42.26070 100.95882
#
# Poissons Ratio (x) = 0.11250 0.50900
# Poissons Ratio (y) = 0.14279 0.67999
# Poissons Ratio (z) = 0.27045 0.28464
#
# Static dielectric constant tensor:
#      x y z
#    x 1.667790 0.000000 0.000000 
#    y 0.000000 1.618580 0.000000 
#    z 0.000000 0.000000 1.612340 
# 
# From -- ./inp_files/39484.got.cif
#   From: 2010.05.17/outbox.ucp.g08.bks.cvg/sg74_20_cif.got.tgz:39484.got - 2010.06.11 16:37:44.
