data_PCOD9540047
_publ_section_title
;
Structure prediction by ZEFSAII (Michael W. Deem and Ramdas Pophale) SiO2 
 PCOD9540047
Probable space group: I M M A
;
_chemical_formula_sum "Si O2"
_cell_formula_units_Z 80
_cell_length_a 22.997498
_cell_length_b 27.552091
_cell_length_c 4.984822
_cell_angle_alpha 90.000000
_cell_angle_beta 90.000000
_cell_angle_gamma 90.000000
_cell_volume 3158.528565
_symmetry_space_group_name_H-M "I M M A"
_symmetry_group_IT_number 74
_symmetry_cell_setting 'orthorhombic'
loop_
_space_group_symop_operation_xyz
x,y,z
-x,1/2-y,z
x,-y,-z
-x,1/2+y,-z
-x,-y,-z
x,1/2+y,-z
-x,y,z
x,1/2-y,z
1/2+x,1/2+y,1/2+z
1/2-x,-y,1/2+z
1/2+x,1/2-y,1/2-z
1/2-x,y,1/2-z
1/2-x,1/2-y,1/2-z
1/2+x,y,1/2-z
1/2-x,1/2+y,1/2+z
1/2+x,-y,1/2+z
loop_
_atom_site_type_symbol
_atom_site_label
_atom_site_fract_x
_atom_site_fract_y
_atom_site_fract_z
Si Si1 0.788177 0.343051 0.010679
Si Si2 0.065285 0.056108 0.575521
Si Si3 0.314152 0.445767 0.610419
Si Si4 0.937032 0.146476 0.236717
Si Si5 0.603198 0.195343 0.765750
O O1 0.750000 0.323254 0.250000
O O2 0.750000 0.351982 0.750000
O O3 0.810111 0.397990 0.081106
O O4 0.836770 0.307771 0.895525
O O5 0.127214 0.065476 0.720109
O O6 0.065981 0.090426 0.313730
O O7 0.000000 0.064428 0.701625
O O8 0.066494 0.000000 0.500000
O O9 0.323928 0.500000 0.500000
O O10 0.250000 0.449949 0.750000
O O11 0.892917 0.174471 0.434583
O O12 0.000000 0.164890 0.331860
O O13 0.932874 0.159562 0.926455
O O14 0.580948 0.250000 0.769402
#
# Coordination Sequence:
#
# PCOD9540047 Si02
#       5
#    16  16  16  16  16
#     4  11  25  44  69  99 141 182 233 296 359 426
#     4  10  23  42  68 104 146 191 236 287 353 432
#     4  11  23  39  66 103 140 186 235 288 352 423
#     4  11  25  46  71 104 143 184 234 294 358 428
#     4  12  26  45  72 103 136 184 243 298 363 422
#
# _framework density 25.328251999999999
#
# number of rings (size 3 to 8) (size 9 to 14) (size 15 to 20)
#    0.000    1.000    2.000    3.600    5.600    3.600 
#    0.000    0.000    0.000    0.000    0.000    0.000 
#    0.000    0.000    0.000    0.000    0.000    0.000 
#
# Total GULP energy -223461.885298 kJ/mol
# GULP energy per Si atom -5586.547132 kJ/mol
# Density = 2.527060 g / cm^3
# Si number density = 25.328252 Si / 1000 Ang^3
#
#
#
# Elastic Constant Matrix: (Units=GPa)
#
#
# Indices 1 2 3 4 5 6 
#
# 1 146.2705 -4.8617 18.6916 0.0000 0.0000 0.0000
# 2 -4.8617 135.7000 6.6829 0.0000 0.0000 0.0000
# 3 18.6916 6.6829 78.7457 0.0000 0.0000 0.0000
# 4 0.0000 0.0000 0.0000 20.5570 0.0000 0.0000
# 5 0.0000 0.0000 0.0000 0.0000 46.1993 0.0000
# 6 0.0000 0.0000 0.0000 0.0000 0.0000 101.0035
#
#
#
# Elastic Compliance Matrix: (Units=1/GPa)
#
#
# Indices 1 2 3 4 5 6 
#
# 1 0.007066 0.000337 -0.001706 0.000000 0.000000 0.000000
# 2 0.000337 0.007416 -0.000709 0.000000 0.000000 0.000000
# 3 -0.001706 -0.000709 0.013164 0.000000 0.000000 0.000000
# 4 0.000000 0.000000 0.000000 0.048645 0.000000 0.000000
# 5 0.000000 0.000000 0.000000 0.000000 0.021645 0.000000
# 6 0.000000 0.000000 0.000000 0.000000 0.000000 0.009901
#
#
# Mechanical properties :
#
#
# Convention : Reuss Voigt Hill
#
# Bulk Modulus (GPa) = 42.57111 44.63799 43.60455
# Shear Modulus (GPa) = 41.72801 56.23221 48.98011
#
# Velocity S-wave (km/s) = 4.06333 4.71695 4.40229
# Velocity P-wave (km/s) = 6.23365 6.87955 6.56455
#
# Compressibility (1/GPa) = 0.02349011
#
# Stress axis : x y z
#
# Youngs Moduli (GPa) = 141.52609 134.83969 75.96356
#
# Poissons Ratio (x) = -0.04546 0.12958
# Poissons Ratio (y) = -0.04772 0.05389
# Poissons Ratio (z) = 0.24142 0.09566
#
# Static dielectric constant tensor:
#      x y z
#    x 2.129560 0.000000 0.000000 
#    y 0.000000 1.970870 0.000000 
#    z 0.000000 0.000000 1.948160 
# 
# From -- ./inp_files/4520.got.cif
#   From: 2010.05.17/outbox.cif.g08.bks.cpg/sg74_3_cif.got.tgz:4520.got - 2010.06.03 17:57:02.
