data_PCOD9540445
_publ_section_title
;
Structure prediction by ZEFSAII (Michael W. Deem and Ramdas Pophale) SiO2 
 PCOD9540445
Probable space group: I M M A
;
_chemical_formula_sum "Si O2"
_cell_formula_units_Z 72
_cell_length_a 8.579186
_cell_length_b 27.208021
_cell_length_c 14.810617
_cell_angle_alpha 90.000000
_cell_angle_beta 90.000000
_cell_angle_gamma 90.000000
_cell_volume 3457.133807
_symmetry_space_group_name_H-M "I M M A"
_symmetry_group_IT_number 74
_symmetry_cell_setting 'orthorhombic'
loop_
_space_group_symop_operation_xyz
x,y,z
-x,1/2-y,z
x,-y,-z
-x,1/2+y,-z
-x,-y,-z
x,1/2+y,-z
-x,y,z
x,1/2-y,z
1/2+x,1/2+y,1/2+z
1/2-x,-y,1/2+z
1/2+x,1/2-y,1/2-z
1/2-x,y,1/2-z
1/2-x,1/2-y,1/2-z
1/2+x,y,1/2-z
1/2-x,1/2+y,1/2+z
1/2+x,-y,1/2+z
loop_
_atom_site_type_symbol
_atom_site_label
_atom_site_fract_x
_atom_site_fract_y
_atom_site_fract_z
Si Si1 0.813915 0.378856 0.151711
Si Si2 0.317856 0.585771 0.344232
Si Si3 0.315835 0.337891 0.974597
Si Si4 0.680509 0.486520 0.105967
Si Si5 0.685954 0.750000 0.352241
O O1 0.750000 0.364730 0.250000
O O2 0.741281 0.432193 0.127112
O O3 0.000000 0.382733 0.153049
O O4 0.760826 0.341722 0.072996
O O5 0.500000 0.596881 0.352991
O O6 0.250000 0.605011 0.250000
O O7 0.222870 0.610995 0.424470
O O8 0.287230 0.527726 0.348285
O O9 0.500000 0.331136 0.982973
O O10 0.244867 0.296739 0.909267
O O11 0.500000 0.491073 0.135686
O O12 0.685925 0.500000 0.000000
O O13 0.500000 0.750000 0.348000
O O14 0.750000 0.750000 0.250000
#
# Coordination Sequence:
#
# PCOD9540445 Si02
#       5
#    16  16  16  16   8
#     4  12  25  43  67  96 132 177 224 272 327 388
#     4  12  24  39  61  91 128 171 217 267 323 387
#     4  12  25  45  69  98 132 169 215 270 327 389
#     4  11  22  38  61  90 129 174 220 271 325 383
#     4  12  26  48  75 106 137 172 212 262 328 394
#
# _framework density 20.826502000000001
#
# number of rings (size 3 to 8) (size 9 to 14) (size 15 to 20)
#    0.000    0.222    2.222    9.000    0.000    0.889 
#    0.000    0.556    0.000    0.000    0.000    0.000 
#    0.000    0.000    0.000    0.000    0.000    0.000 
#
# Total GULP energy -201610.671112 kJ/mol
# GULP energy per Si atom -5600.296420 kJ/mol
# Density = 2.077910 g / cm^3
# Si number density = 20.826502 Si / 1000 Ang^3
#
#
#
# Elastic Constant Matrix: (Units=GPa)
#
#
# Indices 1 2 3 4 5 6 
#
# 1 153.0410 11.4395 44.9498 -0.0001 0.0000 0.0001
# 2 11.4395 75.3949 37.4944 0.0004 0.0000 0.0001
# 3 44.9498 37.4944 168.8244 -0.0011 0.0000 0.0005
# 4 -0.0001 0.0004 -0.0011 242.6933 -0.0003 0.0049
# 5 0.0000 0.0000 0.0000 -0.0003 35.0774 0.0002
# 6 0.0001 0.0001 0.0005 0.0049 0.0002 -15.7972
#
#
#
# Elastic Compliance Matrix: (Units=1/GPa)
#
#
# Indices 1 2 3 4 5 6 
#
# 1 0.007090 -0.000154 -0.001854 0.000000 0.000000 0.000000
# 2 -0.000154 0.014914 -0.003271 0.000000 0.000000 0.000000
# 3 -0.001854 -0.003271 0.007143 0.000000 0.000000 0.000000
# 4 0.000000 0.000000 0.000000 0.004120 0.000000 0.000001
# 5 0.000000 0.000000 0.000000 0.000000 0.028508 0.000000
# 6 0.000000 0.000000 0.000000 0.000001 0.000000 -0.063302
#
#
# Mechanical properties :
#
#
# Convention : Reuss Voigt Hill
#
# Bulk Modulus (GPa) = 53.79343 65.00307 59.39825
# Shear Modulus (GPa) = 328.35475 72.61981 200.48728
#
# Velocity S-wave (km/s) = 12.56997 5.91140 9.82214
# Velocity P-wave (km/s) = 15.38043 8.82453 12.53854
#
# Compressibility (1/GPa) = 0.01858963
#
# Stress axis : x y z
#
# Youngs Moduli (GPa) = 141.04142 67.05271 139.99081
#
# Poissons Ratio (x) = 0.01032 0.25948
# Poissons Ratio (y) = 0.02172 0.45794
# Poissons Ratio (z) = 0.26143 0.21934
#
# Static dielectric constant tensor:
#      x y z
#    x 1.686780 0.000000 0.000000 
#    y 0.000000 1.773920 0.000000 
#    z 0.000000 0.000000 1.848410 
# 
# From -- ./inp_files/29178.got.cif
#   From: 2010.05.17/outbox.cif.g08.bks.cpg/sg74_15_cif.got.tgz:29178.got - 2010.06.03 17:57:02.
