data_PCOD9540884
_publ_section_title
;
Structure prediction by ZEFSAII (Michael W. Deem and Ramdas Pophale) SiO2 
 PCOD9540884
Probable space group: I M M A
;
_chemical_formula_sum "Si O2"
_cell_formula_units_Z 52
_cell_length_a 27.000000
_cell_length_b 9.000000
_cell_length_c 24.000000
_cell_angle_alpha 90.000000
_cell_angle_beta 90.000000
_cell_angle_gamma 90.000000
_cell_volume 5832.000000
_symmetry_space_group_name_H-M "I M M A"
_symmetry_group_IT_number 74
_symmetry_cell_setting 'orthorhombic'
loop_
_space_group_symop_operation_xyz
x,y,z
-x,1/2-y,z
x,-y,-z
-x,1/2+y,-z
-x,-y,-z
x,1/2+y,-z
-x,y,z
x,1/2-y,z
1/2+x,1/2+y,1/2+z
1/2-x,-y,1/2+z
1/2+x,1/2-y,1/2-z
1/2-x,y,1/2-z
1/2-x,1/2-y,1/2-z
1/2+x,y,1/2-z
1/2-x,1/2+y,1/2+z
1/2+x,-y,1/2+z
loop_
_atom_site_type_symbol
_atom_site_label
_atom_site_fract_x
_atom_site_fract_y
_atom_site_fract_z
Si Si1 0.298981 0.075296 0.879290
Si Si2 0.189464 0.568664 0.148372
Si Si3 0.000000 0.428032 0.938943
Si Si4 0.113281 0.072327 0.441233
Si Si5 0.106950 0.929094 0.060950
Si Si6 0.641875 0.924033 0.236265
Si Si7 0.556361 0.071255 0.171577
O O1 0.298867 0.250000 0.895420
O O2 0.243392 0.018972 0.871193
O O3 0.323671 0.065387 0.818219
O O4 0.332692 0.985260 0.922200
O O5 0.192020 0.750000 0.150550
O O6 0.149526 0.523756 0.102639
O O7 0.170888 0.520463 0.209291
O O8 0.052923 0.469344 0.913861
O O9 0.000000 0.250000 0.944598
O O10 0.000000 0.500000 0.000000
O O11 0.112824 0.250000 0.446107
O O12 0.077818 0.028291 0.389402
O O13 0.099264 0.000000 0.500000
O O14 0.109167 0.750000 0.055324
O O15 0.111714 0.000000 0.000000
O O16 0.630343 0.750000 0.245320
O O17 0.592092 0.007987 0.219096
O O18 0.500000 0.020829 0.177634
O O19 0.557768 0.250000 0.173680
#
# Coordination Sequence:
#
# PCOD9540884 Si02
#       7
#    16  16   8  16  16  16  16
#     4   9  17  31  51  71  98 133 164 199 244 294
#     4   9  17  30  49  74  99 126 162 203 246 291
#     4   8  14  26  44  60  78 110 144 178 219 266
#     4  10  20  34  52  75 102 133 170 209 250 300
#     4   9  17  30  46  65  90 119 153 191 235 281
#     4   9  17  31  51  75  98 126 166 205 243 291
#     4   9  19  36  54  72 101 137 167 203 255 305
#
# _framework density 8.9163239999999995
#
# number of rings (size 3 to 8) (size 9 to 14) (size 15 to 20)
#    0.000    2.923    0.000    0.923    0.000    3.692 
#    1.385    3.846    0.000    3.692    0.000    0.000 
#    0.000    0.000    0.000    0.000    0.000    0.000 
#
# Total GULP energy -289639.712644 kJ/mol
# GULP energy per Si atom -5569.994474 kJ/mol
# Density = 0.889603 g / cm^3
# Si number density = 8.916324 Si / 1000 Ang^3
#
#
#
# Elastic Constant Matrix: (Units=GPa)
#
#
# Indices 1 2 3 4 5 6 
#
# 1 103.0123 9.7288 -24.2346 0.0000 0.0000 0.0000
# 2 9.7288 8.3776 -3.8589 0.0000 0.0000 0.0000
# 3 -24.2346 -3.8589 -17.6500 0.0000 0.0000 0.0000
# 4 0.0000 0.0000 0.0000 21.7239 0.0000 0.0000
# 5 0.0000 0.0000 0.0000 0.0000 10.7606 0.0000
# 6 0.0000 0.0000 0.0000 0.0000 0.0000 18.1047
#
#
#
# Elastic Compliance Matrix: (Units=1/GPa)
#
#
# Indices 1 2 3 4 5 6 
#
# 1 0.008945 -0.014577 -0.009095 0.000000 0.000000 0.000000
# 2 -0.014577 0.132199 -0.008889 0.000000 0.000000 0.000000
# 3 -0.009095 -0.008889 -0.042226 0.000000 0.000000 0.000000
# 4 0.000000 0.000000 0.000000 0.046032 0.000000 0.000000
# 5 0.000000 0.000000 0.000000 0.000000 0.092932 0.000000
# 6 0.000000 0.000000 0.000000 0.000000 0.000000 0.055234
#
#
# Mechanical properties :
#
#
# Convention : Reuss Voigt Hill
#
# Bulk Modulus (GPa) = 29.58826 6.33450 17.96138
# Shear Modulus (GPa) = 13.53171 17.59146 15.56159
#
# Velocity S-wave (km/s) = 2.75765 3.14423 2.95726
# Velocity P-wave (km/s) = 5.17375 4.09163 4.66418
#
# Compressibility (1/GPa) = 0.03379719
#
# Stress axis : x y z
#
# Youngs Moduli (GPa) = 111.79865 7.56433 -23.68190
#
# Poissons Ratio (x) = 0.11026 -0.21538
# Poissons Ratio (y) = 1.62964 -0.21051
# Poissons Ratio (z) = 1.01677 0.06724
#
# Static dielectric constant tensor:
#      x y z
#    x 1.637110 0.000000 0.000000 
#    y 0.000000 1.602670 0.000000 
#    z 0.000000 0.000000 1.575100 
# 
# From -- ./inp_files/62362.got.cif
#   From: 2010.05.17/outbox.ucp.g08.bks.cvg/sg74_32_cif.got.tgz:62362.got - 2010.06.11 16:37:44.
