data_PCOD9540297
_publ_section_title
;
Structure prediction by ZEFSAII (Michael W. Deem and Ramdas Pophale) SiO2 
 PCOD9540297
Probable space group: I M M A
;
_chemical_formula_sum "Si O2"
_cell_formula_units_Z 96
_cell_length_a 25.766534
_cell_length_b 18.654323
_cell_length_c 12.014977
_cell_angle_alpha 90.000000
_cell_angle_beta 90.000000
_cell_angle_gamma 90.000000
_cell_volume 5775.085778
_symmetry_space_group_name_H-M "I M M A"
_symmetry_group_IT_number 74
_symmetry_cell_setting 'orthorhombic'
loop_
_space_group_symop_operation_xyz
x,y,z
-x,1/2-y,z
x,-y,-z
-x,1/2+y,-z
-x,-y,-z
x,1/2+y,-z
-x,y,z
x,1/2-y,z
1/2+x,1/2+y,1/2+z
1/2-x,-y,1/2+z
1/2+x,1/2-y,1/2-z
1/2-x,y,1/2-z
1/2-x,1/2-y,1/2-z
1/2+x,y,1/2-z
1/2-x,1/2+y,1/2+z
1/2+x,-y,1/2+z
loop_
_atom_site_type_symbol
_atom_site_label
_atom_site_fract_x
_atom_site_fract_y
_atom_site_fract_z
Si Si1 0.272783 0.665919 0.373248
Si Si2 0.440527 0.166591 0.297759
Si Si3 0.662895 0.922749 0.740234
Si Si4 0.134280 0.947104 0.107632
Si Si5 0.744163 0.077257 0.063208
Si Si6 0.440033 0.827671 0.433809
O O1 0.284652 0.750000 0.384857
O O2 0.250000 0.653964 0.250000
O O3 0.320744 0.612615 0.395256
O O4 0.235351 0.638219 0.470926
O O5 0.500000 0.140882 0.270869
O O6 0.437891 0.250000 0.263745
O O7 0.389012 0.125393 0.257078
O O8 0.436156 0.165204 0.432358
O O9 0.696640 0.923129 0.851336
O O10 0.704388 0.906637 0.639362
O O11 0.644078 0.002350 0.711469
O O12 0.083985 0.898603 0.116024
O O13 0.131552 0.000000 0.000000
O O14 0.749332 0.000000 0.000000
O O15 0.500000 0.824748 0.405235
O O16 0.416222 0.750000 0.402922
#
# Coordination Sequence:
#
# PCOD9540297 Si02
#       6
#    16  16  16  16  16  16
#     4  11  22  36  54  74 101 139 178 218 265 318
#     4   9  18  33  50  74 110 144 181 229 277 326
#     4  11  21  32  56  80 106 149 180 215 279 332
#     4  12  19  30  50  74 105 140 174 216 258 321
#     4  11  21  37  53  77 113 141 177 228 273 326
#     4   9  18  31  47  71 107 145 178 220 271 320
#
# _framework density 16.623131000000001
#
# number of rings (size 3 to 8) (size 9 to 14) (size 15 to 20)
#    0.000    1.500    5.000    2.500    0.000    3.667 
#    0.000    1.667    0.000    0.500    0.000    1.167 
#    0.000   12.000    0.000    0.167    0.000    0.000 
#
# Total GULP energy -267230.524109 kJ/mol
# GULP energy per Si atom -5567.302586 kJ/mol
# Density = 1.658530 g / cm^3
# Si number density = 16.623131 Si / 1000 Ang^3
#
#
#
# Elastic Constant Matrix: (Units=GPa)
#
#
# Indices 1 2 3 4 5 6 
#
# 1 110.6089 59.5857 41.0347 0.0000 0.0000 0.0000
# 2 59.5857 111.6898 44.0714 0.0000 0.0000 0.0000
# 3 41.0347 44.0714 78.7183 0.0000 0.0000 0.0000
# 4 0.0000 0.0000 0.0000 16.4953 0.0000 0.0000
# 5 0.0000 0.0000 0.0000 0.0000 14.2243 0.0000
# 6 0.0000 0.0000 0.0000 0.0000 0.0000 27.6681
#
#
#
# Elastic Compliance Matrix: (Units=1/GPa)
#
#
# Indices 1 2 3 4 5 6 
#
# 1 0.013548 -0.005700 -0.003871 0.000000 0.000000 0.000000
# 2 -0.005700 0.013890 -0.004805 0.000000 0.000000 0.000000
# 3 -0.003871 -0.004805 0.017412 0.000000 0.000000 0.000000
# 4 0.000000 0.000000 0.000000 0.060623 0.000000 0.000000
# 5 0.000000 0.000000 0.000000 0.000000 0.070302 0.000000
# 6 0.000000 0.000000 0.000000 0.000000 0.000000 0.036143
#
#
# Mechanical properties :
#
#
# Convention : Reuss Voigt Hill
#
# Bulk Modulus (GPa) = 62.12325 65.60008 63.86167
# Shear Modulus (GPa) = 20.32219 22.09922 21.21070
#
# Velocity S-wave (km/s) = 3.50026 3.65008 3.57595
# Velocity P-wave (km/s) = 7.33406 7.57053 7.45323
#
# Compressibility (1/GPa) = 0.01609703
#
# Stress axis : x y z
#
# Youngs Moduli (GPa) = 73.81364 71.99166 57.43268
#
# Poissons Ratio (x) = 0.41036 0.22231
# Poissons Ratio (y) = 0.42075 0.27598
# Poissons Ratio (z) = 0.28572 0.34595
#
# Static dielectric constant tensor:
#      x y z
#    x 1.612870 0.000000 0.000000 
#    y 0.000000 1.580110 0.000000 
#    z 0.000000 0.000000 1.561460 
# 
# From -- ./inp_files/22675.got.cif
#   From: 2010.05.17/outbox.cif.g08.bks.cpg/sg74_12_cif.got.tgz:22675.got - 2010.06.03 17:57:02.
