data_PCOD9540451
_publ_section_title
;
Structure prediction by ZEFSAII (Michael W. Deem and Ramdas Pophale) SiO2 
 PCOD9540451
Probable space group: I M M A
;
_chemical_formula_sum "Si O2"
_cell_formula_units_Z 96
_cell_length_a 22.395967
_cell_length_b 22.224587
_cell_length_c 9.740118
_cell_angle_alpha 90.000000
_cell_angle_beta 90.000000
_cell_angle_gamma 90.000000
_cell_volume 4848.057213
_symmetry_space_group_name_H-M "I M M A"
_symmetry_group_IT_number 74
_symmetry_cell_setting 'orthorhombic'
loop_
_space_group_symop_operation_xyz
x,y,z
-x,1/2-y,z
x,-y,-z
-x,1/2+y,-z
-x,-y,-z
x,1/2+y,-z
-x,y,z
x,1/2-y,z
1/2+x,1/2+y,1/2+z
1/2-x,-y,1/2+z
1/2+x,1/2-y,1/2-z
1/2-x,y,1/2-z
1/2-x,1/2-y,1/2-z
1/2+x,y,1/2-z
1/2-x,1/2+y,1/2+z
1/2+x,-y,1/2+z
loop_
_atom_site_type_symbol
_atom_site_label
_atom_site_fract_x
_atom_site_fract_y
_atom_site_fract_z
Si Si1 0.317424 0.817796 0.937930
Si Si2 0.070865 0.011258 0.664378
Si Si3 0.879377 0.641014 0.289792
Si Si4 0.500000 0.821706 0.674254
Si Si5 0.679625 0.319960 0.522831
Si Si6 0.000000 0.820647 0.140601
Si Si7 0.382583 0.612198 0.717778
O O1 0.326793 0.750000 0.883215
O O2 0.332431 0.866663 0.823964
O O3 0.360581 0.829926 0.066577
O O4 0.248871 0.822356 0.983636
O O5 0.097144 0.955564 0.751401
O O6 0.000000 0.019840 0.697706
O O7 0.073853 0.000000 0.500000
O O8 0.110074 0.070097 0.693489
O O9 0.830373 0.660793 0.179005
O O10 0.941641 0.663159 0.226161
O O11 0.500000 0.750000 0.677339
O O12 0.500000 0.845397 0.515495
O O13 0.558674 0.847764 0.744759
O O14 0.659075 0.250000 0.503332
O O15 0.641832 0.366139 0.429527
O O16 0.000000 0.750000 0.120605
#
# Coordination Sequence:
#
# PCOD9540451 Si02
#       7
#    16  16  16   8  16   8  16
#     4  11  24  42  67  98 132 174 222 269 326 393
#     4  11  24  45  64  92 137 178 215 274 327 382
#     4  12  23  42  67  96 130 176 220 263 330 391
#     4  11  22  38  63 100 138 163 206 279 340 391
#     4  11  24  44  67  98 138 172 210 275 336 385
#     4  11  22  38  63 100 138 163 206 279 340 391
#     4  12  23  42  67  96 130 176 220 263 330 391
#
# _framework density 19.801746999999999
#
# number of rings (size 3 to 8) (size 9 to 14) (size 15 to 20)
#    0.000    0.667    5.000    4.000    0.000    4.000 
#    0.000    8.333    0.000    0.000    0.000    0.000 
#    0.000    0.000    0.000    0.000    0.000    0.000 
#
# Total GULP energy -268269.060467 kJ/mol
# GULP energy per Si atom -5588.938760 kJ/mol
# Density = 1.975668 g / cm^3
# Si number density = 19.801747 Si / 1000 Ang^3
#
#
#
# Elastic Constant Matrix: (Units=GPa)
#
#
# Indices 1 2 3 4 5 6 
#
# 1 59.9992 16.4365 -14.9680 0.0000 0.0000 0.0000
# 2 16.4365 86.6940 -8.3236 0.0000 0.0000 0.0000
# 3 -14.9680 -8.3236 41.6825 0.0000 0.0000 0.0000
# 4 0.0000 0.0000 0.0000 29.9391 0.0000 0.0000
# 5 0.0000 0.0000 0.0000 0.0000 39.3649 0.0000
# 6 0.0000 0.0000 0.0000 0.0000 0.0000 -96.9429
#
#
#
# Elastic Compliance Matrix: (Units=1/GPa)
#
#
# Indices 1 2 3 4 5 6 
#
# 1 0.019048 -0.003012 0.006239 0.000000 0.000000 0.000000
# 2 -0.003012 0.012237 0.001362 0.000000 0.000000 0.000000
# 3 0.006239 0.001362 0.026503 0.000000 0.000000 0.000000
# 4 0.000000 0.000000 0.000000 0.033401 0.000000 0.000000
# 5 0.000000 0.000000 0.000000 0.000000 0.025403 0.000000
# 6 0.000000 0.000000 0.000000 0.000000 0.000000 -0.010315
#
#
# Mechanical properties :
#
#
# Convention : Reuss Voigt Hill
#
# Bulk Modulus (GPa) = 14.93332 19.40728 17.17030
# Shear Modulus (GPa) = 41.86803 7.48761 24.67782
#
# Velocity S-wave (km/s) = 4.60321 1.94666 3.53405
# Velocity P-wave (km/s) = 5.98418 3.85678 5.03414
#
# Compressibility (1/GPa) = 0.06696435
#
# Stress axis : x y z
#
# Youngs Moduli (GPa) = 52.49760 81.72129 37.73138
#
# Poissons Ratio (x) = 0.24618 -0.23539
# Poissons Ratio (y) = 0.15815 -0.05138
# Poissons Ratio (z) = -0.32752 -0.11129
#
# Static dielectric constant tensor:
#      x y z
#    x 1.693450 0.000000 0.000000 
#    y 0.000000 1.671870 0.000000 
#    z 0.000000 0.000000 1.716250 
# 
# From -- ./inp_files/15340.got.cif
#   From: 2010.05.17/outbox.cif.g08.bks.cpg/sg74_8_cif.got.tgz:15340.got - 2010.06.03 17:57:02.
