data_PCOD9540906
_publ_section_title
;
Structure prediction by ZEFSAII (Michael W. Deem and Ramdas Pophale) SiO2 
 PCOD9540906
Probable space group: I M M A
;
_chemical_formula_sum "Si O2"
_cell_formula_units_Z 36
_cell_length_a 9.000000
_cell_length_b 27.000000
_cell_length_c 15.000000
_cell_angle_alpha 90.000000
_cell_angle_beta 90.000000
_cell_angle_gamma 90.000000
_cell_volume 3645.000000
_symmetry_space_group_name_H-M "I M M A"
_symmetry_group_IT_number 74
_symmetry_cell_setting 'orthorhombic'
loop_
_space_group_symop_operation_xyz
x,y,z
-x,1/2-y,z
x,-y,-z
-x,1/2+y,-z
-x,-y,-z
x,1/2+y,-z
-x,y,z
x,1/2-y,z
1/2+x,1/2+y,1/2+z
1/2-x,-y,1/2+z
1/2+x,1/2-y,1/2-z
1/2-x,y,1/2-z
1/2-x,1/2-y,1/2-z
1/2+x,y,1/2-z
1/2-x,1/2+y,1/2+z
1/2+x,-y,1/2+z
loop_
_atom_site_type_symbol
_atom_site_label
_atom_site_fract_x
_atom_site_fract_y
_atom_site_fract_z
Si Si1 0.177241 0.623253 0.156972
Si Si2 0.678226 0.343748 0.468063
Si Si3 0.679609 0.750000 0.652069
Si Si4 0.670997 0.914946 0.838604
Si Si5 0.673519 0.022357 0.905015
O O1 0.250000 0.638093 0.250000
O O2 0.233696 0.568169 0.131132
O O3 0.000000 0.622477 0.166370
O O4 0.217865 0.657568 0.072303
O O5 0.500000 0.347902 0.463322
O O6 0.723228 0.297648 0.406854
O O7 0.750379 0.391895 0.424068
O O8 0.500000 0.750000 0.660754
O O9 0.750000 0.750000 0.750000
O O10 0.500000 0.900098 0.838626
O O11 0.750000 0.896092 0.750000
O O12 0.678413 0.974324 0.842197
O O13 0.500000 0.037753 0.914905
O O14 0.723295 0.000000 0.000000
#
# Coordination Sequence:
#
# PCOD9540906 Si02
#       5
#    16  16   8  16  16
#     4  11  23  38  59  85 116 156 198 241 288 340
#     4  10  22  40  61  85 114 149 190 237 290 346
#     4  10  22  42  65  90 118 146 183 232 291 352
#     4  11  22  35  55  82 116 152 190 235 283 339
#     4  10  20  36  56  82 116 155 195 238 285 334
#
# _framework density 9.8765429999999999
#
# number of rings (size 3 to 8) (size 9 to 14) (size 15 to 20)
#    0.000    1.556    2.222    2.667    0.000    7.556 
#    0.000    0.556    0.000    0.000    0.000    0.000 
#    0.000    0.000    0.000    0.000    0.000    0.000 
#
# Total GULP energy -201039.142216 kJ/mol
# GULP energy per Si atom -5584.420617 kJ/mol
# Density = 0.985406 g / cm^3
# Si number density = 9.876543 Si / 1000 Ang^3
#
#
#
# Elastic Constant Matrix: (Units=GPa)
#
#
# Indices 1 2 3 4 5 6 
#
# 1 28.6869 29.4598 62.1205 0.0000 0.0000 0.0000
# 2 29.4598 70.2218 39.0554 0.0000 0.0000 0.0000
# 3 62.1205 39.0554 182.0821 0.0002 0.0000 0.0000
# 4 0.0000 0.0000 0.0002 41.2504 0.0000 0.0000
# 5 0.0000 0.0000 0.0000 0.0000 31.4923 0.0000
# 6 0.0000 0.0000 0.0000 0.0000 0.0000 12.2015
#
#
#
# Elastic Compliance Matrix: (Units=1/GPa)
#
#
# Indices 1 2 3 4 5 6 
#
# 1 0.304537 -0.079454 -0.086856 0.000000 0.000000 0.000000
# 2 -0.079454 0.036899 0.019193 0.000000 0.000000 0.000000
# 3 -0.086856 0.019193 0.031008 0.000000 0.000000 0.000000
# 4 0.000000 0.000000 0.000000 0.024242 0.000000 0.000000
# 5 0.000000 0.000000 0.000000 0.000000 0.031754 0.000000
# 6 0.000000 0.000000 0.000000 0.000000 0.000000 0.081957
#
#
# Mechanical properties :
#
#
# Convention : Reuss Voigt Hill
#
# Bulk Modulus (GPa) = 12.78622 60.25135 36.51879
# Shear Modulus (GPa) = 6.01902 27.01251 16.51576
#
# Velocity S-wave (km/s) = 1.74750 3.70200 2.89469
# Velocity P-wave (km/s) = 3.24942 6.98867 5.44978
#
# Compressibility (1/GPa) = 0.07820918
#
# Stress axis : x y z
#
# Youngs Moduli (GPa) = 3.28368 27.10084 32.25009
#
# Poissons Ratio (x) = 2.15327 2.80110
# Poissons Ratio (y) = 0.26090 -0.61896
# Poissons Ratio (z) = 0.28521 -0.52013
#
# Static dielectric constant tensor:
#      x y z
#    x 1.665650 0.000000 0.000000 
#    y 0.000000 1.698740 0.000000 
#    z 0.000000 0.000000 1.713250 
# 
# From -- ./inp_files/29125.got.cif
#   From: 2010.05.17/outbox.ucp.g08.bks.cvg/sg74_15_cif.got.tgz:29125.got - 2010.06.11 16:37:44.
