data_PCOD9540678
_publ_section_title
;
Structure prediction by ZEFSAII (Michael W. Deem and Ramdas Pophale) SiO2 
 PCOD9540678
Probable space group: I M M A
;
_chemical_formula_sum "Si O2"
_cell_formula_units_Z 80
_cell_length_a 28.514457
_cell_length_b 16.289372
_cell_length_c 7.203332
_cell_angle_alpha 90.000000
_cell_angle_beta 90.000000
_cell_angle_gamma 90.000000
_cell_volume 3345.822358
_symmetry_space_group_name_H-M "I M M A"
_symmetry_group_IT_number 74
_symmetry_cell_setting 'orthorhombic'
loop_
_space_group_symop_operation_xyz
x,y,z
-x,1/2-y,z
x,-y,-z
-x,1/2+y,-z
-x,-y,-z
x,1/2+y,-z
-x,y,z
x,1/2-y,z
1/2+x,1/2+y,1/2+z
1/2-x,-y,1/2+z
1/2+x,1/2-y,1/2-z
1/2-x,y,1/2-z
1/2-x,1/2-y,1/2-z
1/2+x,y,1/2-z
1/2-x,1/2+y,1/2+z
1/2+x,-y,1/2+z
loop_
_atom_site_type_symbol
_atom_site_label
_atom_site_fract_x
_atom_site_fract_y
_atom_site_fract_z
Si Si1 0.050881 0.652602 0.023109
Si Si2 0.850712 0.405205 0.452333
Si Si3 0.650980 0.651610 0.527078
Si Si4 0.549579 0.153621 0.073934
Si Si5 0.250728 0.598211 0.970730
O O1 0.049754 0.750000 0.068266
O O2 0.103177 0.621835 0.074063
O O3 0.050991 0.645473 0.798006
O O4 0.000000 0.617864 0.084966
O O5 0.848452 0.500000 0.500000
O O6 0.849295 0.389369 0.230926
O O7 0.901921 0.375716 0.510263
O O8 0.801893 0.368512 0.529970
O O9 0.646951 0.750000 0.550553
O O10 0.702290 0.631999 0.447518
O O11 0.500000 0.116080 0.011323
O O12 0.547897 0.250000 0.035859
O O13 0.250000 0.614989 0.750000
O O14 0.249464 0.500000 0.000000
#
# Coordination Sequence:
#
# PCOD9540678 Si02
#       5
#    16  16  16  16  16
#     4   7  10  18  33  54  79 103 129 169 218 256
#     4   9  16  24  35  56  85 112 140 176 222 264
#     4   9  16  26  43  64  82 108 150 189 217 257
#     4   8  13  21  33  50  76 110 143 176 215 256
#     4   9  18  30  44  63  89 120 147 180 227 269
#
# _framework density 23.910412999999998
#
# number of rings (size 3 to 8) (size 9 to 14) (size 15 to 20)
#    0.000    3.600    0.000    3.000    0.000    4.800 
#    0.000    0.000    0.000    1.200    0.000    8.400 
#    0.000    0.000    0.000   48.600    0.000   29.400 
#
# Total GULP energy -222786.682548 kJ/mol
# GULP energy per Si atom -5569.667064 kJ/mol
# Density = 2.385599 g / cm^3
# Si number density = 23.910413 Si / 1000 Ang^3
#
#
#
# Elastic Constant Matrix: (Units=GPa)
#
#
# Indices 1 2 3 4 5 6 
#
# 1 335.2112 16.7542 -0.2287 0.0000 0.0000 0.0000
# 2 16.7542 19.6806 -14.3630 0.0000 0.0000 0.0000
# 3 -0.2287 -14.3630 96.6252 0.0000 0.0000 0.0000
# 4 0.0000 0.0000 0.0000 -26.1849 0.0000 0.0000
# 5 0.0000 0.0000 0.0000 0.0000 -29.1292 0.0000
# 6 0.0000 0.0000 0.0000 0.0000 0.0000 33.3256
#
#
#
# Elastic Compliance Matrix: (Units=1/GPa)
#
#
# Indices 1 2 3 4 5 6 
#
# 1 0.003132 -0.002985 -0.000436 0.000000 0.000000 0.000000
# 2 -0.002985 0.059839 0.008888 0.000000 0.000000 0.000000
# 3 -0.000436 0.008888 0.011669 0.000000 0.000000 0.000000
# 4 0.000000 0.000000 0.000000 -0.038190 0.000000 0.000000
# 5 0.000000 0.000000 0.000000 0.000000 -0.034330 0.000000
# 6 0.000000 0.000000 0.000000 0.000000 0.000000 0.030007
#
#
# Mechanical properties :
#
#
# Convention : Reuss Voigt Hill
#
# Bulk Modulus (GPa) = 11.68586 50.64911 31.16748
# Shear Modulus (GPa) = 100.56656 25.55925 63.06291
#
# Velocity S-wave (km/s) = 6.49238 3.27304 5.14120
# Velocity P-wave (km/s) = 7.81661 5.95924 6.95025
#
# Compressibility (1/GPa) = 0.08557351
#
# Stress axis : x y z
#
# Youngs Moduli (GPa) = 319.27698 16.71163 85.69445
#
# Poissons Ratio (x) = 0.04988 0.03738
# Poissons Ratio (y) = 0.95296 -0.76163
# Poissons Ratio (z) = 0.13929 -0.14853
#
# Static dielectric constant tensor:
#      x y z
#    x 2.079670 0.000000 0.000000 
#    y 0.000000 1.823300 0.000000 
#    z 0.000000 0.000000 1.873220 
# 
# From -- ./inp_files/20967.got.cif
#   From: 2010.05.17/outbox.cif.g08.bks.cpg/sg74_11_cif.got.tgz:20967.got - 2010.06.03 17:57:02.
