data_PCOD9540858
_publ_section_title
;
Structure prediction by ZEFSAII (Michael W. Deem and Ramdas Pophale) SiO2 
 PCOD9540858
Probable space group: I M M A
;
_chemical_formula_sum "Si O2"
_cell_formula_units_Z 56
_cell_length_a 15.000000
_cell_length_b 15.000000
_cell_length_c 27.000000
_cell_angle_alpha 90.000000
_cell_angle_beta 90.000000
_cell_angle_gamma 90.000000
_cell_volume 6075.000000
_symmetry_space_group_name_H-M "I M M A"
_symmetry_group_IT_number 74
_symmetry_cell_setting 'orthorhombic'
loop_
_space_group_symop_operation_xyz
x,y,z
-x,1/2-y,z
x,-y,-z
-x,1/2+y,-z
-x,-y,-z
x,1/2+y,-z
-x,y,z
x,1/2-y,z
1/2+x,1/2+y,1/2+z
1/2-x,-y,1/2+z
1/2+x,1/2-y,1/2-z
1/2-x,y,1/2-z
1/2-x,1/2-y,1/2-z
1/2+x,y,1/2-z
1/2-x,1/2+y,1/2+z
1/2+x,-y,1/2+z
loop_
_atom_site_type_symbol
_atom_site_label
_atom_site_fract_x
_atom_site_fract_y
_atom_site_fract_z
Si Si1 0.608734 0.852742 0.687012
Si Si2 0.101233 0.143128 0.075767
Si Si3 0.106711 0.356504 0.379380
Si Si4 0.108604 0.647183 0.326254
Si Si5 0.780558 0.903438 0.523836
Si Si6 0.108835 0.466418 0.280598
Si Si7 0.599070 0.146764 0.934803
O O1 0.500000 0.849751 0.688829
O O2 0.639455 0.750000 0.693801
O O3 0.629642 0.885389 0.631392
O O4 0.639981 0.917611 0.730618
O O5 0.095586 0.250000 0.078838
O O6 0.179466 0.122012 0.037420
O O7 0.000000 0.110421 0.064837
O O8 0.122865 0.250000 0.374993
O O9 0.161533 0.392361 0.426320
O O10 0.131742 0.406796 0.328691
O O11 0.000000 0.368999 0.387338
O O12 0.139030 0.750000 0.317459
O O13 0.137440 0.568994 0.288859
O O14 0.132201 0.611325 0.381726
O O15 0.000000 0.649592 0.325655
O O16 0.833990 0.853795 0.480395
O O17 0.778989 0.000000 0.500000
O O18 0.000000 0.467164 0.278731
O O19 0.500000 0.108974 0.947178
O O20 0.586688 0.250000 0.922506
#
# Coordination Sequence:
#
# PCOD9540858 Si02
#       7
#    16  16  16  16  16  16  16
#     4   8  14  27  49  73  94 121 157 198 252 309
#     4   9  19  37  57  73  92 121 162 214 264 307
#     4  10  20  32  47  72 108 143 172 205 243 289
#     4   8  14  24  39  64 100 138 171 199 229 278
#     4  12  23  32  47  71  99 131 168 207 251 301
#     4   9  15  25  44  70 101 135 166 198 241 293
#     4   9  17  30  47  67  97 137 173 200 230 278
#
# _framework density 9.2181069999999998
#
# number of rings (size 3 to 8) (size 9 to 14) (size 15 to 20)
#    0.000    2.714    0.000    4.714    0.000    5.429 
#    0.000    0.714    0.000    2.571    0.000    3.000 
#    0.000    9.143    0.000    0.143    0.000    0.714 
#
# Total GULP energy -311983.005624 kJ/mol
# GULP energy per Si atom -5571.125100 kJ/mol
# Density = 0.919713 g / cm^3
# Si number density = 9.218107 Si / 1000 Ang^3
#
#
#
# Elastic Constant Matrix: (Units=GPa)
#
#
# Indices 1 2 3 4 5 6 
#
# 1 45.3330 24.2721 21.9515 0.0000 0.0000 0.0000
# 2 24.2721 80.1358 41.3761 0.0000 0.0000 0.0000
# 3 21.9515 41.3761 54.1597 0.0000 0.0000 0.0000
# 4 0.0000 0.0000 0.0000 45.8791 0.0000 0.0000
# 5 0.0000 0.0000 0.0000 0.0000 -17.2287 0.0000
# 6 0.0000 0.0000 0.0000 0.0000 0.0000 1.2761
#
#
#
# Elastic Compliance Matrix: (Units=1/GPa)
#
#
# Indices 1 2 3 4 5 6 
#
# 1 0.028348 -0.004382 -0.008142 0.000000 0.000000 0.000000
# 2 -0.004382 0.021285 -0.014485 0.000000 0.000000 0.000000
# 3 -0.008142 -0.014485 0.032830 0.000000 0.000000 0.000000
# 4 0.000000 0.000000 0.000000 0.021796 0.000000 0.000000
# 5 0.000000 0.000000 0.000000 0.000000 -0.058043 0.000000
# 6 0.000000 0.000000 0.000000 0.000000 0.000000 0.783659
#
#
# Mechanical properties :
#
#
# Convention : Reuss Voigt Hill
#
# Bulk Modulus (GPa) = 35.15582 39.42535 37.29059
# Shear Modulus (GPa) = 5.59676 12.12055 8.85865
#
# Velocity S-wave (km/s) = 1.74423 2.56682 2.19442
# Velocity P-wave (km/s) = 4.81318 5.49690 5.16637
#
# Compressibility (1/GPa) = 0.02844479
#
# Stress axis : x y z
#
# Youngs Moduli (GPa) = 35.27606 46.98131 30.46026
#
# Poissons Ratio (x) = 0.20589 0.24800
# Poissons Ratio (y) = 0.15460 0.44121
# Poissons Ratio (z) = 0.28720 0.68051
#
# Static dielectric constant tensor:
#      x y z
#    x 1.705080 0.000000 0.000000 
#    y 0.000000 1.645460 0.000000 
#    z 0.000000 0.000000 1.662610 
# 
# From -- ./inp_files/67240.got.cif
#   From: 2010.05.17/outbox.ucp.g08.bks.cvg/sg74_34_cif.got.tgz:67240.got - 2010.06.11 16:37:44.
