data_PCOD9540546
_publ_section_title
;
Structure prediction by ZEFSAII (Michael W. Deem and Ramdas Pophale) SiO2 
 PCOD9540546
Probable space group: I M M A
;
_chemical_formula_sum "Si O2"
_cell_formula_units_Z 64
_cell_length_a 10.441677
_cell_length_b 14.140101
_cell_length_c 21.948451
_cell_angle_alpha 90.000000
_cell_angle_beta 90.000000
_cell_angle_gamma 90.000000
_cell_volume 3240.609060
_symmetry_space_group_name_H-M "I M M A"
_symmetry_group_IT_number 74
_symmetry_cell_setting 'orthorhombic'
loop_
_space_group_symop_operation_xyz
x,y,z
-x,1/2-y,z
x,-y,-z
-x,1/2+y,-z
-x,-y,-z
x,1/2+y,-z
-x,y,z
x,1/2-y,z
1/2+x,1/2+y,1/2+z
1/2-x,-y,1/2+z
1/2+x,1/2-y,1/2-z
1/2-x,y,1/2-z
1/2-x,1/2-y,1/2-z
1/2+x,y,1/2-z
1/2-x,1/2+y,1/2+z
1/2+x,-y,1/2+z
loop_
_atom_site_type_symbol
_atom_site_label
_atom_site_fract_x
_atom_site_fract_y
_atom_site_fract_z
Si Si1 0.500000 0.136040 0.496463
Si Si2 0.500000 0.887631 0.995906
Si Si3 0.000000 0.364403 0.861858
Si Si4 0.251295 0.474881 0.820842
Si Si5 0.000000 0.142668 0.639391
Si Si6 0.254964 0.858840 0.581693
O O1 0.500000 0.250000 0.496757
O O2 0.500000 0.108842 0.566645
O O3 0.372331 0.107999 0.460875
O O4 0.373722 0.859261 0.958686
O O5 0.500000 0.853904 0.065618
O O6 0.500000 0.000000 0.000000
O O7 0.873707 0.411322 0.833808
O O8 0.000000 0.250000 0.855753
O O9 0.250000 0.500756 0.750000
O O10 0.375170 0.413003 0.838251
O O11 0.253850 0.567924 0.863048
O O12 0.000000 0.250000 0.662717
O O13 0.278614 0.750000 0.601287
#
# Coordination Sequence:
#
# PCOD9540546 Si02
#       6
#     8   8   8  16   8  16
#     4   9  21  39  64  97 123 153 201 253 319 379
#     4  12  22  41  66  98 127 162 203 263 325 378
#     4  11  24  42  65  93 126 163 204 261 319 373
#     4  12  26  42  62  91 125 171 219 252 303 373
#     4  12  25  42  65  93 127 163 208 264 318 374
#     4  11  23  42  66  95 129 163 205 262 318 372
#
# _framework density 19.749374
#
# number of rings (size 3 to 8) (size 9 to 14) (size 15 to 20)
#    0.000    0.750    2.500    4.875    0.000    6.500 
#    0.000    0.000    0.000    6.000    0.000    0.000 
#    0.000    0.000    0.000    0.000    0.000    0.000 
#
# Total GULP energy -179067.661886 kJ/mol
# GULP energy per Si atom -5595.864434 kJ/mol
# Density = 1.970442 g / cm^3
# Si number density = 19.749374 Si / 1000 Ang^3
#
#
#
# Elastic Constant Matrix: (Units=GPa)
#
#
# Indices 1 2 3 4 5 6 
#
# 1 169.3079 17.6770 50.1250 0.0000 0.0000 0.0000
# 2 17.6770 101.2019 9.8911 0.0000 0.0000 0.0000
# 3 50.1250 9.8911 134.6158 0.0000 0.0000 0.0000
# 4 0.0000 0.0000 0.0000 -12.7680 0.0000 0.0000
# 5 0.0000 0.0000 0.0000 0.0000 101.5225 0.0000
# 6 0.0000 0.0000 0.0000 0.0000 0.0000 33.7721
#
#
#
# Elastic Compliance Matrix: (Units=1/GPa)
#
#
# Indices 1 2 3 4 5 6 
#
# 1 0.006725 -0.000937 -0.002435 0.000000 0.000000 0.000000
# 2 -0.000937 0.010083 -0.000392 0.000000 0.000000 0.000000
# 3 -0.002435 -0.000392 0.008364 0.000000 0.000000 0.000000
# 4 0.000000 0.000000 0.000000 -0.078321 0.000000 0.000000
# 5 0.000000 0.000000 0.000000 0.000000 0.009850 0.000000
# 6 0.000000 0.000000 0.000000 0.000000 0.000000 0.029610
#
#
# Mechanical properties :
#
#
# Convention : Reuss Voigt Hill
#
# Bulk Modulus (GPa) = 56.67550 62.27907 59.47728
# Shear Modulus (GPa) = -17952.98531 46.33415 -8953.32558
#
# Velocity S-wave (km/s) = -95.44706 4.84892 -67.40412
# Velocity P-wave (km/s) = 110.08222 7.93426 77.63744
#
# Compressibility (1/GPa) = 0.01764431
#
# Stress axis : x y z
#
# Youngs Moduli (GPa) = 148.69447 99.17520 119.55751
#
# Poissons Ratio (x) = 0.09289 0.29116
# Poissons Ratio (y) = 0.13928 0.04688
# Poissons Ratio (z) = 0.36212 0.03889
#
# Static dielectric constant tensor:
#      x y z
#    x 1.667810 0.000000 0.000000 
#    y 0.000000 1.700050 0.000000 
#    z 0.000000 0.000000 1.662230 
# 
# From -- ./inp_files/56515.got.cif
#   From: 2010.05.17/outbox.cif.g08.bks.cpg/sg74_29_cif.got.tgz:56515.got - 2010.06.03 17:57:02.
