data_PCOD9540826
_publ_section_title
;
Structure prediction by ZEFSAII (Michael W. Deem and Ramdas Pophale) SiO2 
 PCOD9540826
Probable space group: I M M A
;
_chemical_formula_sum "Si O2"
_cell_formula_units_Z 60
_cell_length_a 27.000000
_cell_length_b 9.000000
_cell_length_c 27.000000
_cell_angle_alpha 90.000000
_cell_angle_beta 90.000000
_cell_angle_gamma 90.000000
_cell_volume 6561.000000
_symmetry_space_group_name_H-M "I M M A"
_symmetry_group_IT_number 74
_symmetry_cell_setting 'orthorhombic'
loop_
_space_group_symop_operation_xyz
x,y,z
-x,1/2-y,z
x,-y,-z
-x,1/2+y,-z
-x,-y,-z
x,1/2+y,-z
-x,y,z
x,1/2-y,z
1/2+x,1/2+y,1/2+z
1/2-x,-y,1/2+z
1/2+x,1/2-y,1/2-z
1/2-x,y,1/2-z
1/2-x,1/2-y,1/2-z
1/2+x,y,1/2-z
1/2-x,1/2+y,1/2+z
1/2+x,-y,1/2+z
loop_
_atom_site_type_symbol
_atom_site_label
_atom_site_fract_x
_atom_site_fract_y
_atom_site_fract_z
Si Si1 0.246502 0.423335 0.125608
Si Si2 0.678686 0.072216 0.554221
Si Si3 0.912458 0.922304 0.893364
Si Si4 0.000000 0.076611 0.948397
Si Si5 0.054560 0.075284 0.687590
Si Si6 0.158982 0.423366 0.314849
Si Si7 0.190722 0.418457 0.784889
Si Si8 0.925762 0.912204 0.197651
O O1 0.233969 0.250000 0.116812
O O2 0.230079 0.523495 0.079565
O O3 0.304235 0.434619 0.138874
O O4 0.217984 0.480305 0.174921
O O5 0.672798 0.250000 0.552445
O O6 0.672708 0.000000 0.500000
O O7 0.639266 0.996938 0.591593
O O8 0.911481 0.750000 0.905945
O O9 0.932139 0.949136 0.837879
O O10 0.951443 0.017180 0.923013
O O11 0.000000 0.250000 0.951974
O O12 0.000000 0.000000 0.000000
O O13 0.060229 0.250000 0.674821
O O14 0.054143 0.068862 0.747529
O O15 0.000000 0.024556 0.669854
O O16 0.104572 0.988204 0.674216
O O17 0.154896 0.250000 0.300346
O O18 0.186093 0.510595 0.269712
O O19 0.210773 0.250000 0.785876
O O20 0.133350 0.405135 0.798942
O O21 0.942736 0.750000 0.177996
#
# Coordination Sequence:
#
# PCOD9540826 Si02
#       8
#    16  16  16   8  16  16  16  16
#     4  11  22  36  54  79 110 143 180 224 271 324
#     4  12  25  42  62  83 107 140 179 223 278 334
#     4  12  24  39  58  80 104 133 175 224 277 332
#     4  12  26  44  60  74  96 124 166 224 280 332
#     4   9  19  35  54  76 106 144 186 226 267 317
#     4  10  21  34  51  78 112 146 181 223 271 320
#     4  10  19  32  52  76 105 140 179 217 262 316
#     4   9  18  32  50  75 102 136 177 219 267 314
#
# _framework density 9.1449470000000002
#
# number of rings (size 3 to 8) (size 9 to 14) (size 15 to 20)
#    0.000    1.467    1.333    5.800    0.933    6.133 
#    0.000    0.000    0.000    0.000    0.000    0.000 
#    0.000    0.533    0.000    1.733    0.000    2.533 
#
# Total GULP energy -334526.552255 kJ/mol
# GULP energy per Si atom -5575.442538 kJ/mol
# Density = 0.912413 g / cm^3
# Si number density = 9.144947 Si / 1000 Ang^3
#
#
#
# Elastic Constant Matrix: (Units=GPa)
#
#
# Indices 1 2 3 4 5 6 
#
# 1 78.6924 28.9782 18.4972 0.0000 0.0000 0.0000
# 2 28.9782 138.7955 20.9200 0.0000 0.0000 0.0000
# 3 18.4972 20.9200 18.7074 0.0000 0.0000 0.0000
# 4 0.0000 0.0000 0.0000 21.2452 0.0000 0.0000
# 5 0.0000 0.0000 0.0000 0.0000 -19.0653 0.0000
# 6 0.0000 0.0000 0.0000 0.0000 0.0000 21.6006
#
#
#
# Elastic Compliance Matrix: (Units=1/GPa)
#
#
# Indices 1 2 3 4 5 6 
#
# 1 0.016720 -0.001202 -0.015189 0.000000 0.000000 0.000000
# 2 -0.001202 0.008752 -0.008599 0.000000 0.000000 0.000000
# 3 -0.015189 -0.008599 0.078089 0.000000 0.000000 0.000000
# 4 0.000000 0.000000 0.000000 0.047069 0.000000 0.000000
# 5 0.000000 0.000000 0.000000 0.000000 -0.052451 0.000000
# 6 0.000000 0.000000 0.000000 0.000000 0.000000 0.046295
#
#
# Mechanical properties :
#
#
# Convention : Reuss Voigt Hill
#
# Bulk Modulus (GPa) = 18.66280 41.44292 30.05286
# Shear Modulus (GPa) = 23.55011 15.94277 19.74644
#
# Velocity S-wave (km/s) = 3.59221 2.95561 3.28935
# Velocity P-wave (km/s) = 5.23749 5.86137 5.55819
#
# Compressibility (1/GPa) = 0.05358253
#
# Stress axis : x y z
#
# Youngs Moduli (GPa) = 59.80713 114.26242 12.80594
#
# Poissons Ratio (x) = 0.13730 0.19451
# Poissons Ratio (y) = 0.07186 0.11012
# Poissons Ratio (z) = 0.90840 0.98252
#
# Static dielectric constant tensor:
#      x y z
#    x 1.655230 0.000000 0.000000 
#    y 0.000000 1.637940 0.000000 
#    z 0.000000 0.000000 1.649220 
# 
# From -- ./inp_files/69033.got.cif
#   From: 2010.05.17/outbox.ucp.g08.bks.cvg/sg74_35_cif.got.tgz:69033.got - 2010.06.11 16:37:44.
