data_PCOD9540433
_publ_section_title
;
Structure prediction by ZEFSAII (Michael W. Deem and Ramdas Pophale) SiO2 
 PCOD9540433
Probable space group: I M M A
;
_chemical_formula_sum "Si O2"
_cell_formula_units_Z 72
_cell_length_a 10.886293
_cell_length_b 14.705849
_cell_length_c 25.591803
_cell_angle_alpha 90.000000
_cell_angle_beta 90.000000
_cell_angle_gamma 90.000000
_cell_volume 4097.047559
_symmetry_space_group_name_H-M "I M M A"
_symmetry_group_IT_number 74
_symmetry_cell_setting 'orthorhombic'
loop_
_space_group_symop_operation_xyz
x,y,z
-x,1/2-y,z
x,-y,-z
-x,1/2+y,-z
-x,-y,-z
x,1/2+y,-z
-x,y,z
x,1/2-y,z
1/2+x,1/2+y,1/2+z
1/2-x,-y,1/2+z
1/2+x,1/2-y,1/2-z
1/2-x,y,1/2-z
1/2-x,1/2-y,1/2-z
1/2+x,y,1/2-z
1/2-x,1/2+y,1/2+z
1/2+x,-y,1/2+z
loop_
_atom_site_type_symbol
_atom_site_label
_atom_site_fract_x
_atom_site_fract_y
_atom_site_fract_z
Si Si1 0.250000 0.457823 0.250000
Si Si2 0.753197 0.438194 0.052007
Si Si3 0.147093 0.446562 0.851170
Si Si4 0.500000 0.641847 0.907179
Si Si5 0.000000 0.855686 0.718610
Si Si6 0.645336 0.250000 0.489037
Si Si7 0.149046 0.250000 0.892308
O O1 0.219100 0.516755 0.198907
O O2 0.126093 0.400265 0.260733
O O3 0.820501 0.492407 0.098364
O O4 0.618138 0.409725 0.070700
O O5 0.816436 0.342076 0.039466
O O6 0.752681 0.500000 0.000000
O O7 0.184211 0.343041 0.864058
O O8 0.000000 0.450062 0.842145
O O9 0.500000 0.750000 0.921451
O O10 0.500000 0.637235 0.844327
O O11 0.000000 0.750000 0.733344
O O12 0.500000 0.250000 0.493276
O O13 0.696661 0.250000 0.548209
O O14 0.000000 0.250000 0.894356
#
# Coordination Sequence:
#
# PCOD9540433 Si02
#       7
#     8  16  16   8   8   8   8
#     4  12  23  43  66  90 128 162 216 262 308 368
#     4  12  23  39  63  90 126 162 204 254 304 369
#     4  11  23  40  65  93 123 163 207 258 310 366
#     4  11  23  41  61  87 122 165 203 244 310 372
#     4  11  24  43  65  91 124 167 210 260 310 367
#     4  11  22  37  60  93 127 157 198 252 307 366
#     4   9  20  39  62  90 123 161 205 252 310 363
#
# _framework density 17.573630000000001
#
# number of rings (size 3 to 8) (size 9 to 14) (size 15 to 20)
#    0.000    0.889    6.667    1.333    0.000    1.333 
#    2.000    0.000    0.000    1.333    0.000    0.000 
#    0.000    0.000    0.000    0.000    0.000    0.000 
#
# Total GULP energy -201051.990834 kJ/mol
# GULP energy per Si atom -5584.777523 kJ/mol
# Density = 1.753363 g / cm^3
# Si number density = 17.573630 Si / 1000 Ang^3
#
#
#
# Elastic Constant Matrix: (Units=GPa)
#
#
# Indices 1 2 3 4 5 6 
#
# 1 102.4722 58.8553 39.4753 0.0000 0.0000 0.0000
# 2 58.8553 180.3093 85.5344 0.0000 0.0000 0.0000
# 3 39.4753 85.5344 129.2402 0.0000 0.0000 0.0000
# 4 0.0000 0.0000 0.0000 58.1823 0.0000 0.0000
# 5 0.0000 0.0000 0.0000 0.0000 20.4743 0.0000
# 6 0.0000 0.0000 0.0000 0.0000 0.0000 13.4799
#
#
#
# Elastic Compliance Matrix: (Units=1/GPa)
#
#
# Indices 1 2 3 4 5 6 
#
# 1 0.012232 -0.003236 -0.001594 0.000000 0.000000 0.000000
# 2 -0.003236 0.008940 -0.004928 0.000000 0.000000 0.000000
# 3 -0.001594 -0.004928 0.011486 0.000000 0.000000 0.000000
# 4 0.000000 0.000000 0.000000 0.017187 0.000000 0.000000
# 5 0.000000 0.000000 0.000000 0.000000 0.048842 0.000000
# 6 0.000000 0.000000 0.000000 0.000000 0.000000 0.074185
#
#
# Mechanical properties :
#
#
# Convention : Reuss Voigt Hill
#
# Bulk Modulus (GPa) = 76.10147 86.63908 81.37028
# Shear Modulus (GPa) = 25.41040 33.63775 29.52408
#
# Velocity S-wave (km/s) = 3.80668 4.37979 4.10325
# Velocity P-wave (km/s) = 7.91956 8.65936 8.29771
#
# Compressibility (1/GPa) = 0.01314035
#
# Stress axis : x y z
#
# Youngs Moduli (GPa) = 81.75506 111.85263 87.06084
#
# Poissons Ratio (x) = 0.36199 0.13879
# Poissons Ratio (y) = 0.26459 0.42907
# Poissons Ratio (z) = 0.13033 0.55126
#
# Static dielectric constant tensor:
#      x y z
#    x 1.581760 0.000000 0.000000 
#    y 0.000000 1.583220 0.000000 
#    z 0.000000 0.000000 1.585290 
# 
# From -- ./inp_files/63753.got.cif
#   From: 2010.05.17/outbox.cif.g08.bks.cpg/sg74_32_cif.got.tgz:63753.got - 2010.06.03 17:57:02.
