data_PCOD9540401
_publ_section_title
;
Structure prediction by ZEFSAII (Michael W. Deem and Ramdas Pophale) SiO2 
 PCOD9540401
Probable space group: I M M A
;
_chemical_formula_sum "Si O2"
_cell_formula_units_Z 68
_cell_length_a 7.500181
_cell_length_b 27.871293
_cell_length_c 12.792246
_cell_angle_alpha 90.000000
_cell_angle_beta 90.000000
_cell_angle_gamma 90.000000
_cell_volume 2674.087806
_symmetry_space_group_name_H-M "I M M A"
_symmetry_group_IT_number 74
_symmetry_cell_setting 'orthorhombic'
loop_
_space_group_symop_operation_xyz
x,y,z
-x,1/2-y,z
x,-y,-z
-x,1/2+y,-z
-x,-y,-z
x,1/2+y,-z
-x,y,z
x,1/2-y,z
1/2+x,1/2+y,1/2+z
1/2-x,-y,1/2+z
1/2+x,1/2-y,1/2-z
1/2-x,y,1/2-z
1/2-x,1/2-y,1/2-z
1/2+x,y,1/2-z
1/2-x,1/2+y,1/2+z
1/2+x,-y,1/2+z
loop_
_atom_site_type_symbol
_atom_site_label
_atom_site_fract_x
_atom_site_fract_y
_atom_site_fract_z
Si Si1 0.205523 0.826459 0.902513
Si Si2 0.711976 0.195339 0.636152
Si Si3 0.000000 0.750000 0.662657
Si Si4 0.716200 0.569379 0.914601
Si Si5 0.288099 0.536355 0.137623
O O1 0.344073 0.791825 0.847613
O O2 0.211394 0.881627 0.868471
O O3 0.000000 0.808853 0.895159
O O4 0.266666 0.826767 0.025634
O O5 0.500000 0.198001 0.630479
O O6 0.785569 0.250000 0.637179
O O7 0.750000 0.173429 0.750000
O O8 0.500000 0.571688 0.909662
O O9 0.777110 0.518825 0.865862
O O10 0.776469 0.564295 0.035977
O O11 0.500000 0.533610 0.124936
O O12 0.250000 0.557943 0.250000
#
# Coordination Sequence:
#
# PCOD9540401 Si02
#       5
#    16  16   4  16  16
#     4  11  22  35  53  81 109 149 206 241 288 359
#     4   9  18  28  41  62  93 130 179 232 277 329
#     4  12  22  36  58  72 116 156 192 248 314 328
#     4   9  19  37  57  83 121 163 196 244 300 364
#     4   9  19  36  60  87 122 156 196 242 305 363
#
# _framework density 25.429231000000001
#
# number of rings (size 3 to 8) (size 9 to 14) (size 15 to 20)
#    0.000    2.353    2.353    1.765    1.647    2.824 
#    0.000    7.059    0.000    0.000    0.000    0.824 
#    0.000    0.000    0.000    0.000    0.000    0.235 
#
# Total GULP energy -189667.639328 kJ/mol
# GULP energy per Si atom -5578.459980 kJ/mol
# Density = 2.537135 g / cm^3
# Si number density = 25.429231 Si / 1000 Ang^3
#
#
#
# Elastic Constant Matrix: (Units=GPa)
#
#
# Indices 1 2 3 4 5 6 
#
# 1 133.7614 35.9660 12.5718 0.0000 0.0000 0.0000
# 2 35.9660 165.9002 10.0354 -0.0002 0.0000 -0.0001
# 3 12.5718 10.0354 148.1227 -0.0005 0.0000 -0.0003
# 4 0.0000 -0.0002 -0.0005 12.7036 0.0000 -0.0004
# 5 0.0000 0.0000 0.0000 0.0000 12.4484 0.0000
# 6 0.0000 -0.0001 -0.0003 -0.0004 0.0000 -34.0554
#
#
#
# Elastic Compliance Matrix: (Units=1/GPa)
#
#
# Indices 1 2 3 4 5 6 
#
# 1 0.007985 -0.001697 -0.000563 0.000000 0.000000 0.000000
# 2 -0.001697 0.006413 -0.000290 0.000000 0.000000 0.000000
# 3 -0.000563 -0.000290 0.006819 0.000000 0.000000 0.000000
# 4 0.000000 0.000000 0.000000 0.078718 0.000000 -0.000001
# 5 0.000000 0.000000 0.000000 0.000000 0.080332 0.000000
# 6 0.000000 0.000000 0.000000 -0.000001 0.000000 -0.029364
#
#
# Mechanical properties :
#
#
# Convention : Reuss Voigt Hill
#
# Bulk Modulus (GPa) = 62.04863 62.77008 62.40936
# Shear Modulus (GPa) = 30.98366 24.16672 27.57519
#
# Velocity S-wave (km/s) = 3.49438 3.08612 3.29658
# Velocity P-wave (km/s) = 6.38235 6.11855 6.25184
#
# Compressibility (1/GPa) = 0.01611639
#
# Stress axis : x y z
#
# Youngs Moduli (GPa) = 125.23154 155.92812 146.65765
#
# Poissons Ratio (x) = 0.26463 0.08253
# Poissons Ratio (y) = 0.21253 0.04260
# Poissons Ratio (z) = 0.07048 0.04529
#
# Static dielectric constant tensor:
#      x y z
#    x 1.946030 0.000000 0.000000 
#    y 0.000000 1.955320 0.000000 
#    z 0.000000 0.000000 2.109120 
# 
# From -- ./inp_files/29054.got.cif
#   From: 2010.05.17/outbox.cif.g08.bks.cpg/sg74_15_cif.got.tgz:29054.got - 2010.06.03 17:57:02.
