data_PCOD9540428
_publ_section_title
;
Structure prediction by ZEFSAII (Michael W. Deem and Ramdas Pophale) SiO2 
 PCOD9540428
Probable space group: I M M A
;
_chemical_formula_sum "Si O2"
_cell_formula_units_Z 52
_cell_length_a 14.581373
_cell_length_b 18.606668
_cell_length_c 6.878409
_cell_angle_alpha 90.000000
_cell_angle_beta 90.000000
_cell_angle_gamma 90.000000
_cell_volume 1866.186417
_symmetry_space_group_name_H-M "I M M A"
_symmetry_group_IT_number 74
_symmetry_cell_setting 'orthorhombic'
loop_
_space_group_symop_operation_xyz
x,y,z
-x,1/2-y,z
x,-y,-z
-x,1/2+y,-z
-x,-y,-z
x,1/2+y,-z
-x,y,z
x,1/2-y,z
1/2+x,1/2+y,1/2+z
1/2-x,-y,1/2+z
1/2+x,1/2-y,1/2-z
1/2-x,y,1/2-z
1/2-x,1/2-y,1/2-z
1/2+x,y,1/2-z
1/2-x,1/2+y,1/2+z
1/2+x,-y,1/2+z
loop_
_atom_site_type_symbol
_atom_site_label
_atom_site_fract_x
_atom_site_fract_y
_atom_site_fract_z
Si Si1 0.640265 0.484550 0.225500
Si Si2 0.358210 0.329259 0.198165
Si Si3 0.102402 0.643126 0.234663
Si Si4 0.250000 0.750000 0.250000
O O1 0.750000 0.482996 0.250000
O O2 0.605207 0.405282 0.277447
O O3 0.608879 0.559171 0.316274
O O4 0.618239 0.500000 0.000000
O O5 0.394555 0.250000 0.247653
O O6 0.250000 0.328412 0.250000
O O7 0.377617 0.338480 0.964955
O O8 0.185026 0.687928 0.147059
O O9 0.000000 0.667635 0.192170
#
# Coordination Sequence:
#
# PCOD9540428 Si02
#       4
#    16  16  16   4
#     4   9  18  33  54  83 115 157 196 241 298 350
#     4   9  18  33  55  85 115 150 190 241 288 341
#     4  11  22  37  60  88 116 152 200 243 289 352
#     4  12  22  36  58  86 116 152 188 250 292 334
#
# _framework density 27.864311000000001
#
# number of rings (size 3 to 8) (size 9 to 14) (size 15 to 20)
#    0.000    2.154    3.077    0.462    0.000    5.538 
#    0.000    0.000    0.000    4.615    0.000    0.000 
#    0.000    0.000    0.000    0.000    0.000    0.000 
#
# Total GULP energy -144870.311220 kJ/mol
# GULP energy per Si atom -5571.935047 kJ/mol
# Density = 2.780089 g / cm^3
# Si number density = 27.864311 Si / 1000 Ang^3
#
#
#
# Elastic Constant Matrix: (Units=GPa)
#
#
# Indices 1 2 3 4 5 6 
#
# 1 192.3594 74.6893 -7.7723 0.0000 0.0000 0.0000
# 2 74.6893 374.4159 30.4284 0.0000 0.0000 0.0000
# 3 -7.7723 30.4284 133.0687 0.0000 0.0000 0.0000
# 4 0.0000 0.0000 0.0000 -57.8903 0.0000 0.0000
# 5 0.0000 0.0000 0.0000 0.0000 11.1789 0.0000
# 6 0.0000 0.0000 0.0000 0.0000 0.0000 -366.2113
#
#
#
# Elastic Compliance Matrix: (Units=1/GPa)
#
#
# Indices 1 2 3 4 5 6 
#
# 1 0.005682 -0.001182 0.000602 0.000000 0.000000 0.000000
# 2 -0.001182 0.002967 -0.000748 0.000000 0.000000 0.000000
# 3 0.000602 -0.000748 0.007721 0.000000 0.000000 0.000000
# 4 0.000000 0.000000 0.000000 -0.017274 0.000000 0.000000
# 5 0.000000 0.000000 0.000000 0.000000 0.089454 0.000000
# 6 0.000000 0.000000 0.000000 0.000000 0.000000 -0.002731
#
#
# Mechanical properties :
#
#
# Convention : Reuss Voigt Hill
#
# Bulk Modulus (GPa) = 72.91291 99.39276 86.15284
# Shear Modulus (GPa) = 53.73606 -42.41797 5.65905
#
# Velocity S-wave (km/s) = 4.39622 -3.90590 1.42665
# Velocity P-wave (km/s) = 7.21061 3.92508 5.80514
#
# Compressibility (1/GPa) = 0.01371499
#
# Stress axis : x y z
#
# Youngs Moduli (GPa) = 175.99310 336.98918 129.51608
#
# Poissons Ratio (x) = 0.39846 -0.07800
# Poissons Ratio (y) = 0.20810 0.09683
# Poissons Ratio (z) = -0.10599 0.25194
#
# Static dielectric constant tensor:
#      x y z
#    x 2.111030 0.000000 0.000000 
#    y 0.000000 2.177910 0.000000 
#    z 0.000000 0.000000 2.442540 
# 
# From -- ./inp_files/8331.got.cif
#   From: 2010.05.17/outbox.cif.g08.bks.cpg/sg74_5_cif.got.tgz:8331.got - 2010.06.03 17:57:02.
