data_PCOD9540601
_publ_section_title
;
Structure prediction by ZEFSAII (Michael W. Deem and Ramdas Pophale) SiO2 
 PCOD9540601
Probable space group: I M M A
;
_chemical_formula_sum "Si O2"
_cell_formula_units_Z 72
_cell_length_a 14.809128
_cell_length_b 25.318017
_cell_length_c 9.503915
_cell_angle_alpha 90.000000
_cell_angle_beta 90.000000
_cell_angle_gamma 90.000000
_cell_volume 3563.376549
_symmetry_space_group_name_H-M "I M M A"
_symmetry_group_IT_number 74
_symmetry_cell_setting 'orthorhombic'
loop_
_space_group_symop_operation_xyz
x,y,z
-x,1/2-y,z
x,-y,-z
-x,1/2+y,-z
-x,-y,-z
x,1/2+y,-z
-x,y,z
x,1/2-y,z
1/2+x,1/2+y,1/2+z
1/2-x,-y,1/2+z
1/2+x,1/2-y,1/2-z
1/2-x,y,1/2-z
1/2-x,1/2-y,1/2-z
1/2+x,y,1/2-z
1/2-x,1/2+y,1/2+z
1/2+x,-y,1/2+z
loop_
_atom_site_type_symbol
_atom_site_label
_atom_site_fract_x
_atom_site_fract_y
_atom_site_fract_z
Si Si1 0.000000 0.851777 0.305816
Si Si2 0.814881 0.855118 0.875087
Si Si3 0.500000 0.023725 0.842758
Si Si4 0.000000 0.688371 0.990355
Si Si5 0.837172 0.979248 0.840194
Si Si6 0.194365 0.690438 0.394396
O O1 0.908606 0.825535 0.364969
O O2 0.000000 0.913037 0.346810
O O3 0.000000 0.844375 0.136335
O O4 0.750000 0.835352 0.750000
O O5 0.841147 0.915670 0.846153
O O6 0.908171 0.824659 0.905850
O O7 0.749093 0.849839 0.008647
O O8 0.583145 0.003418 0.750816
O O9 0.500000 0.000000 0.000000
O O10 0.000000 0.750000 0.029425
O O11 0.750000 0.994139 0.750000
O O12 0.835933 0.000000 0.000000
O O13 0.197906 0.750000 0.455072
O O14 0.250000 0.691701 0.250000
#
# Coordination Sequence:
#
# PCOD9540601 Si02
#       6
#     8  16   8   8  16  16
#     4  12  26  41  76 103 141 180 234 298 353 410
#     4  11  26  43  70 101 145 185 230 294 355 419
#     4  12  28  45  73 103 142 182 233 292 360 426
#     4  12  23  44  72 100 139 188 240 284 354 422
#     4  11  25  44  71 100 140 183 236 284 345 422
#     4  11  24  44  71 103 138 180 240 291 344 419
#
# _framework density 20.205556000000001
#
# number of rings (size 3 to 8) (size 9 to 14) (size 15 to 20)
#    0.000    0.667    2.222    4.667    9.333    2.667 
#    0.000    0.000    0.000    0.000    0.000    0.000 
#    0.000    0.000    0.000    0.000    0.000    0.000 
#
# Total GULP energy -201280.070470 kJ/mol
# GULP energy per Si atom -5591.113069 kJ/mol
# Density = 2.015957 g / cm^3
# Si number density = 20.205556 Si / 1000 Ang^3
#
#
#
# Elastic Constant Matrix: (Units=GPa)
#
#
# Indices 1 2 3 4 5 6 
#
# 1 158.0651 25.3404 27.5775 0.0002 0.0003 -0.0024
# 2 25.3404 73.9511 14.3683 0.0019 -0.0009 -0.0006
# 3 27.5775 14.3683 107.7522 0.0094 -0.0012 -0.0050
# 4 0.0002 0.0019 0.0094 -8.1811 0.0013 -0.0153
# 5 0.0003 -0.0009 -0.0012 0.0013 16.3557 0.0024
# 6 -0.0024 -0.0006 -0.0050 -0.0153 0.0024 148.0035
#
#
#
# Elastic Compliance Matrix: (Units=1/GPa)
#
#
# Indices 1 2 3 4 5 6 
#
# 1 0.006921 -0.002081 -0.001494 -0.000002 0.000000 0.000000
# 2 -0.002081 0.014508 -0.001402 0.000002 0.000001 0.000000
# 3 -0.001494 -0.001402 0.009850 0.000011 0.000001 0.000000
# 4 -0.000002 0.000002 0.000011 -0.122233 0.000010 -0.000013
# 5 0.000000 0.000001 0.000001 0.000010 0.061141 -0.000001
# 6 0.000000 0.000000 0.000000 -0.000013 -0.000001 0.006757
#
#
# Mechanical properties :
#
#
# Convention : Reuss Voigt Hill
#
# Bulk Modulus (GPa) = 46.89394 52.70456 49.79925
# Shear Modulus (GPa) = -834.09785 49.40111 -392.34837
#
# Velocity S-wave (km/s) = -20.33967 4.94998 -13.94991
# Velocity P-wave (km/s) = 22.98574 7.66881 15.32210
#
# Compressibility (1/GPa) = 0.02132472
#
# Stress axis : x y z
#
# Youngs Moduli (GPa) = 144.49241 68.92744 101.52504
#
# Poissons Ratio (x) = 0.14346 0.15165
# Poissons Ratio (y) = 0.30073 0.14233
# Poissons Ratio (z) = 0.21583 0.09663
#
# Static dielectric constant tensor:
#      x y z
#    x 1.647510 0.000000 0.000010 
#    y 0.000000 1.696810 0.000010 
#    z 0.000010 0.000010 1.343740 
# 
# From -- ./inp_files/9171.got.cif
#   From: 2010.05.17/outbox.cif.g08.bks.cpg/sg74_5_cif.got.tgz:9171.got - 2010.06.03 17:57:02.
