data_PCOD9540306
_publ_section_title
;
Structure prediction by ZEFSAII (Michael W. Deem and Ramdas Pophale) SiO2 
 PCOD9540306
Probable space group: I M M A
;
_chemical_formula_sum "Si O2"
_cell_formula_units_Z 104
_cell_length_a 23.396941
_cell_length_b 8.586434
_cell_length_c 28.748453
_cell_angle_alpha 90.000000
_cell_angle_beta 90.000000
_cell_angle_gamma 90.000000
_cell_volume 5775.457542
_symmetry_space_group_name_H-M "I M M A"
_symmetry_group_IT_number 74
_symmetry_cell_setting 'orthorhombic'
loop_
_space_group_symop_operation_xyz
x,y,z
-x,1/2-y,z
x,-y,-z
-x,1/2+y,-z
-x,-y,-z
x,1/2+y,-z
-x,y,z
x,1/2-y,z
1/2+x,1/2+y,1/2+z
1/2-x,-y,1/2+z
1/2+x,1/2-y,1/2-z
1/2-x,y,1/2-z
1/2-x,1/2-y,1/2-z
1/2+x,y,1/2-z
1/2-x,1/2+y,1/2+z
1/2+x,-y,1/2+z
loop_
_atom_site_type_symbol
_atom_site_label
_atom_site_fract_x
_atom_site_fract_y
_atom_site_fract_z
Si Si1 0.938726 0.062297 0.551998
Si Si2 0.275966 0.065157 0.449605
Si Si3 0.000000 0.936655 0.946243
Si Si4 0.323354 0.563024 0.694163
Si Si5 0.328482 0.565349 0.106534
Si Si6 0.687593 0.437348 0.201682
Si Si7 0.384847 0.435469 0.602071
O O1 0.936992 0.250000 0.551258
O O2 0.882897 0.007652 0.578085
O O3 0.000000 0.014916 0.572855
O O4 0.936963 0.000000 0.500000
O O5 0.282984 0.250000 0.451480
O O6 0.258983 0.000000 0.500000
O O7 0.227405 0.020893 0.412534
O O8 0.334789 0.987391 0.433188
O O9 0.000000 0.750000 0.948893
O O10 0.056169 0.992251 0.917476
O O11 0.000000 0.000000 0.000000
O O12 0.327763 0.750000 0.688749
O O13 0.337362 0.521332 0.747723
O O14 0.255312 0.525321 0.694505
O O15 0.361057 0.489112 0.653041
O O16 0.319985 0.750000 0.099975
O O17 0.340966 0.526852 0.159763
O O18 0.683265 0.250000 0.197230
O O19 0.390593 0.250000 0.602352
#
# Coordination Sequence:
#
# PCOD9540306 Si02
#       7
#    16  16   8  16  16  16  16
#     4   9  19  35  53  74 104 143 185 226 272 328
#     4  12  24  38  55  80 116 152 187 231 287 344
#     4  12  26  46  68  90 120 160 202 248 299 358
#     4   9  18  35  58  85 114 152 189 230 284 341
#     4  11  21  33  53  83 113 145 186 233 288 342
#     4   9  18  33  56  84 117 150 188 230 281 340
#     4  12  24  40  62  90 119 151 195 243 292 351
#
# _framework density 18.007231000000001
#
# number of rings (size 3 to 8) (size 9 to 14) (size 15 to 20)
#    0.000    1.538    1.538    5.769    0.000    3.077 
#    0.000    1.538    1.692    0.000    0.000    0.000 
#    0.000    0.000    0.000    0.000    0.000    0.000 
#
# Total GULP energy -290105.467938 kJ/mol
# GULP energy per Si atom -5578.951306 kJ/mol
# Density = 1.796625 g / cm^3
# Si number density = 18.007231 Si / 1000 Ang^3
#
#
#
# Elastic Constant Matrix: (Units=GPa)
#
#
# Indices 1 2 3 4 5 6 
#
# 1 76.1675 30.3828 26.4097 0.0000 0.0000 0.0000
# 2 30.3828 79.5367 36.1839 0.0000 0.0000 0.0000
# 3 26.4097 36.1839 107.1751 0.0000 0.0000 0.0000
# 4 0.0000 0.0000 0.0000 32.4071 0.0000 0.0000
# 5 0.0000 0.0000 0.0000 0.0000 29.7222 0.0000
# 6 0.0000 0.0000 0.0000 0.0000 0.0000 21.6462
#
#
#
# Elastic Compliance Matrix: (Units=1/GPa)
#
#
# Indices 1 2 3 4 5 6 
#
# 1 0.015920 -0.005076 -0.002209 0.000000 0.000000 0.000000
# 2 -0.005076 0.016473 -0.004311 0.000000 0.000000 0.000000
# 3 -0.002209 -0.004311 0.011330 0.000000 0.000000 0.000000
# 4 0.000000 0.000000 0.000000 0.030857 0.000000 0.000000
# 5 0.000000 0.000000 0.000000 0.000000 0.033645 0.000000
# 6 0.000000 0.000000 0.000000 0.000000 0.000000 0.046198
#
#
# Mechanical properties :
#
#
# Convention : Reuss Voigt Hill
#
# Bulk Modulus (GPa) = 48.70692 49.87023 49.28858
# Shear Modulus (GPa) = 27.10633 28.08195 27.59414
#
# Velocity S-wave (km/s) = 3.88403 3.95331 3.91882
# Velocity P-wave (km/s) = 6.87179 6.97086 6.92150
#
# Compressibility (1/GPa) = 0.02053096
#
# Stress axis : x y z
#
# Youngs Moduli (GPa) = 62.81475 60.70527 88.25958
#
# Poissons Ratio (x) = 0.30816 0.19497
# Poissons Ratio (y) = 0.31887 0.38046
# Poissons Ratio (z) = 0.13876 0.26168
#
# Static dielectric constant tensor:
#      x y z
#    x 1.636170 0.000000 0.000000 
#    y 0.000000 1.610740 0.000000 
#    z 0.000000 0.000000 1.644230 
# 
# From -- ./inp_files/68225.got.cif
#   From: 2010.05.17/outbox.cif.g08.bks.cpg/sg74_35_cif.got.tgz:68225.got - 2010.06.03 17:57:02.
