data_PCOD9540156
_publ_section_title
;
Structure prediction by ZEFSAII (Michael W. Deem and Ramdas Pophale) SiO2 
 PCOD9540156
Probable space group: I M M A
;
_chemical_formula_sum "Si O2"
_cell_formula_units_Z 68
_cell_length_a 17.635571
_cell_length_b 9.441516
_cell_length_c 19.655010
_cell_angle_alpha 90.000000
_cell_angle_beta 90.000000
_cell_angle_gamma 90.000000
_cell_volume 3272.687429
_symmetry_space_group_name_H-M "I M M A"
_symmetry_group_IT_number 74
_symmetry_cell_setting 'orthorhombic'
loop_
_space_group_symop_operation_xyz
x,y,z
-x,1/2-y,z
x,-y,-z
-x,1/2+y,-z
-x,-y,-z
x,1/2+y,-z
-x,y,z
x,1/2-y,z
1/2+x,1/2+y,1/2+z
1/2-x,-y,1/2+z
1/2+x,1/2-y,1/2-z
1/2-x,y,1/2-z
1/2-x,1/2-y,1/2-z
1/2+x,y,1/2-z
1/2-x,1/2+y,1/2+z
1/2+x,-y,1/2+z
loop_
_atom_site_type_symbol
_atom_site_label
_atom_site_fract_x
_atom_site_fract_y
_atom_site_fract_z
Si Si1 0.160675 0.250000 0.735609
Si Si2 0.080525 0.750000 0.454855
Si Si3 0.000000 0.524730 0.919075
Si Si4 0.626166 0.750000 0.616200
Si Si5 0.419496 0.750000 0.760141
Si Si6 0.377157 0.995983 0.859447
Si Si7 0.208620 0.250000 0.435527
Si Si8 0.000000 0.250000 0.823376
O O1 0.250000 0.250000 0.750000
O O2 0.155874 0.391673 0.691999
O O3 0.081118 0.250000 0.780959
O O4 0.081382 0.603705 0.411539
O O5 0.159019 0.750000 0.495879
O O6 0.000000 0.750000 0.495216
O O7 0.925051 0.614518 0.901214
O O8 0.000000 0.386117 0.872348
O O9 0.000000 0.500000 0.000000
O O10 0.640857 0.750000 0.698400
O O11 0.701342 0.750000 0.570430
O O12 0.500000 0.750000 0.722659
O O13 0.417884 0.884168 0.809929
O O14 0.319485 0.893701 0.898752
#
# Coordination Sequence:
#
# PCOD9540156 Si02
#       8
#     8   8   8   8   8  16   8   4
#     4  11  27  44  69 103 148 179 231 293 355 420
#     4  11  24  47  68 100 144 184 234 289 348 424
#     4  11  25  47  71 103 137 184 235 290 347 418
#     4  11  25  45  71  99 139 184 236 288 344 414
#     4  11  21  40  73 102 137 176 228 286 348 417
#     4  10  25  41  67 104 139 182 227 285 354 421
#     4  11  26  44  69  97 140 191 238 278 341 418
#     4  12  26  46  80 104 140 192 230 290 370 420
#
# _framework density 20.778030999999999
#
# number of rings (size 3 to 8) (size 9 to 14) (size 15 to 20)
#    0.000    1.176    1.176    3.529   11.529    6.588 
#    4.235    0.000    0.000    0.000    0.000    0.000 
#    0.000    0.000    0.000    0.000    0.000    0.000 
#
# Total GULP energy -189287.292953 kJ/mol
# GULP energy per Si atom -5567.273322 kJ/mol
# Density = 2.073074 g / cm^3
# Si number density = 20.778031 Si / 1000 Ang^3
#
#
#
# Elastic Constant Matrix: (Units=GPa)
#
#
# Indices 1 2 3 4 5 6 
#
# 1 169.2811 61.6553 63.5495 0.0000 0.0000 0.0000
# 2 61.6553 183.8871 53.4568 0.0000 0.0000 0.0000
# 3 63.5495 53.4568 110.5028 0.0000 0.0000 0.0000
# 4 0.0000 0.0000 0.0000 10.5397 0.0000 0.0000
# 5 0.0000 0.0000 0.0000 0.0000 -1.2040 0.0000
# 6 0.0000 0.0000 0.0000 0.0000 0.0000 -75.1503
#
#
#
# Elastic Compliance Matrix: (Units=1/GPa)
#
#
# Indices 1 2 3 4 5 6 
#
# 1 0.007893 -0.001544 -0.003793 0.000000 0.000000 0.000000
# 2 -0.001544 0.006630 -0.002319 0.000000 0.000000 0.000000
# 3 -0.003793 -0.002319 0.012353 0.000000 0.000000 0.000000
# 4 0.000000 0.000000 0.000000 0.094879 0.000000 0.000000
# 5 0.000000 0.000000 0.000000 0.000000 -0.830546 0.000000
# 6 0.000000 0.000000 0.000000 0.000000 0.000000 -0.013307
#
#
# Mechanical properties :
#
#
# Convention : Reuss Voigt Hill
#
# Bulk Modulus (GPa) = 86.47368 91.22157 88.84763
# Shear Modulus (GPa) = -7.11308 5.83771 -0.63768
#
# Velocity S-wave (km/s) = -1.85224 1.67799 -0.55459
# Velocity P-wave (km/s) = 6.09375 6.91031 6.51484
#
# Compressibility (1/GPa) = 0.01156421
#
# Stress axis : x y z
#
# Youngs Moduli (GPa) = 126.68720 150.82757 80.95455
#
# Poissons Ratio (x) = 0.23289 0.30702
# Poissons Ratio (y) = 0.19562 0.18776
# Poissons Ratio (z) = 0.48046 0.34983
#
# Static dielectric constant tensor:
#      x y z
#    x 16.668970 0.000000 0.000000 
#    y 0.000000 1.458590 0.000000 
#    z 0.000000 0.000000 1.786450 
# 
# From -- ./inp_files/52680.got.cif
#   From: 2010.05.17/outbox.cif.g08.bks.cpg/sg74_27_cif.got.tgz:52680.got - 2010.06.03 17:57:02.
