data_PCOD9540581
_publ_section_title
;
Structure prediction by ZEFSAII (Michael W. Deem and Ramdas Pophale) SiO2 
 PCOD9540581
Probable space group: I M M A
;
_chemical_formula_sum "Si O2"
_cell_formula_units_Z 64
_cell_length_a 11.554704
_cell_length_b 16.331231
_cell_length_c 17.141976
_cell_angle_alpha 90.000000
_cell_angle_beta 90.000000
_cell_angle_gamma 90.000000
_cell_volume 3234.734415
_symmetry_space_group_name_H-M "I M M A"
_symmetry_group_IT_number 74
_symmetry_cell_setting 'orthorhombic'
loop_
_space_group_symop_operation_xyz
x,y,z
-x,1/2-y,z
x,-y,-z
-x,1/2+y,-z
-x,-y,-z
x,1/2+y,-z
-x,y,z
x,1/2-y,z
1/2+x,1/2+y,1/2+z
1/2-x,-y,1/2+z
1/2+x,1/2-y,1/2-z
1/2-x,y,1/2-z
1/2-x,1/2-y,1/2-z
1/2+x,y,1/2-z
1/2-x,1/2+y,1/2+z
1/2+x,-y,1/2+z
loop_
_atom_site_type_symbol
_atom_site_label
_atom_site_fract_x
_atom_site_fract_y
_atom_site_fract_z
Si Si1 0.240635 0.913601 0.844223
Si Si2 0.000000 0.578995 0.939147
Si Si3 0.861123 0.250000 0.405575
Si Si4 0.755476 0.907033 0.156994
Si Si5 0.000000 0.344839 0.902548
Si Si6 0.136351 0.250000 0.586126
O O1 0.250000 0.913084 0.750000
O O2 0.308375 0.833207 0.870961
O O3 0.112558 0.914167 0.883550
O O4 0.287267 0.003328 0.869651
O O5 0.000000 0.500000 0.000000
O O6 0.000000 0.650549 0.003690
O O7 0.828805 0.250000 0.496248
O O8 0.000000 0.250000 0.396602
O O9 0.750000 0.905298 0.250000
O O10 0.683815 0.831687 0.124811
O O11 0.886559 0.890313 0.129378
O O12 0.000000 0.250000 0.877034
O O13 0.000000 0.250000 0.591485
#
# Coordination Sequence:
#
# PCOD9540581 Si02
#       6
#    16   8   8  16   8   8
#     4  11  26  46  72 100 140 181 231 293 351 411
#     4  12  24  44  74 110 137 174 238 293 342 420
#     4  11  27  47  69  95 137 185 243 285 345 423
#     4  11  24  41  67 100 138 177 224 281 354 420
#     4  12  24  40  68 105 137 178 226 286 350 412
#     4  11  25  41  63  99 131 179 225 275 343 419
#
# _framework density 19.785240000000002
#
# number of rings (size 3 to 8) (size 9 to 14) (size 15 to 20)
#    0.000    0.750    3.750    2.250    5.250    1.000 
#    0.000    2.500    0.000    0.000    0.000    0.000 
#    0.000    0.000    0.000    0.000    0.000    0.000 
#
# Total GULP energy -178686.621515 kJ/mol
# GULP energy per Si atom -5583.956922 kJ/mol
# Density = 1.974021 g / cm^3
# Si number density = 19.785240 Si / 1000 Ang^3
#
#
#
# Elastic Constant Matrix: (Units=GPa)
#
#
# Indices 1 2 3 4 5 6 
#
# 1 -173.6406 -31.8233 50.4639 0.0000 0.0000 0.0000
# 2 -31.8233 197.3075 61.4090 0.0000 0.0000 0.0000
# 3 50.4639 61.4090 120.0176 0.0000 0.0000 0.0000
# 4 0.0000 0.0000 0.0000 36.6314 0.0000 0.0000
# 5 0.0000 0.0000 0.0000 0.0000 41.0495 0.0000
# 6 0.0000 0.0000 0.0000 0.0000 0.0000 -39.1129
#
#
#
# Elastic Compliance Matrix: (Units=1/GPa)
#
#
# Indices 1 2 3 4 5 6 
#
# 1 -0.004654 -0.001617 0.002784 0.000000 0.000000 0.000000
# 2 -0.001617 0.005466 -0.002117 0.000000 0.000000 0.000000
# 3 0.002784 -0.002117 0.008245 0.000000 0.000000 0.000000
# 4 0.000000 0.000000 0.000000 0.027299 0.000000 0.000000
# 5 0.000000 0.000000 0.000000 0.000000 0.024361 0.000000
# 6 0.000000 0.000000 0.000000 0.000000 0.000000 -0.025567
#
#
# Mechanical properties :
#
#
# Convention : Reuss Voigt Hill
#
# Bulk Modulus (GPa) = 139.71396 33.75373 86.73385
# Shear Modulus (GPa) = 126.78782 11.95595 69.37188
#
# Velocity S-wave (km/s) = 8.01381 2.46089 5.92778
# Velocity P-wave (km/s) = 12.50587 5.01714 9.52808
#
# Compressibility (1/GPa) = 0.00715748
#
# Stress axis : x y z
#
# Youngs Moduli (GPa) = -214.88997 182.93908 121.29025
#
# Poissons Ratio (x) = 0.29582 -0.33768
# Poissons Ratio (y) = -0.34749 0.25677
# Poissons Ratio (z) = 0.59827 0.38728
#
# Static dielectric constant tensor:
#      x y z
#    x 1.652370 0.000000 0.000000 
#    y 0.000000 1.734070 0.000000 
#    z 0.000000 0.000000 1.672490 
# 
# From -- ./inp_files/30292.got.cif
#   From: 2010.05.17/outbox.cif.g08.bks.cpg/sg74_16_cif.got.tgz:30292.got - 2010.06.03 17:57:02.
