data_PCOD9540204
_publ_section_title
;
Structure prediction by ZEFSAII (Michael W. Deem and Ramdas Pophale) SiO2 
 PCOD9540204
Probable space group: I M M A
;
_chemical_formula_sum "Si O2"
_cell_formula_units_Z 80
_cell_length_a 27.488305
_cell_length_b 10.371169
_cell_length_c 16.889176
_cell_angle_alpha 90.000000
_cell_angle_beta 90.000000
_cell_angle_gamma 90.000000
_cell_volume 4814.865209
_symmetry_space_group_name_H-M "I M M A"
_symmetry_group_IT_number 74
_symmetry_cell_setting 'orthorhombic'
loop_
_space_group_symop_operation_xyz
x,y,z
-x,1/2-y,z
x,-y,-z
-x,1/2+y,-z
-x,-y,-z
x,1/2+y,-z
-x,y,z
x,1/2-y,z
1/2+x,1/2+y,1/2+z
1/2-x,-y,1/2+z
1/2+x,1/2-y,1/2-z
1/2-x,y,1/2-z
1/2-x,1/2-y,1/2-z
1/2+x,y,1/2-z
1/2-x,1/2+y,1/2+z
1/2+x,-y,1/2+z
loop_
_atom_site_type_symbol
_atom_site_label
_atom_site_fract_x
_atom_site_fract_y
_atom_site_fract_z
Si Si1 0.805830 0.597031 0.240985
Si Si2 0.348588 0.899678 0.434333
Si Si3 0.058183 0.750000 0.602066
Si Si4 0.098194 0.506398 0.317833
Si Si5 0.555053 0.903243 0.344938
Si Si6 0.442122 0.750000 0.087498
O O1 0.809846 0.750000 0.260826
O O2 0.750000 0.557157 0.250000
O O3 0.821113 0.584779 0.149220
O O4 0.845171 0.522364 0.294182
O O5 0.343975 0.750000 0.459205
O O6 0.404877 0.926844 0.411798
O O7 0.331838 0.000000 0.500000
O O8 0.082960 0.624577 0.639888
O O9 0.064010 0.750000 0.507077
O O10 0.000000 0.750000 0.618221
O O11 0.069604 0.522456 0.234678
O O12 0.081707 0.624521 0.373249
O O13 0.500000 0.931421 0.368660
O O14 0.558821 0.750000 0.325573
O O15 0.500000 0.750000 0.104905
#
# Coordination Sequence:
#
# PCOD9540204 Si02
#       6
#    16  16   8  16  16   8
#     4   9  18  37  64  82  99 138 189 230 268 319
#     4   9  18  33  52  77 105 133 168 211 261 312
#     4  11  24  34  47  80 123 151 172 225 286 328
#     4  11  19  35  55  78 105 144 186 227 271 326
#     4   9  16  29  52  75  97 136 183 215 247 311
#     4  11  20  34  55  76 105 151 194 223 268 332
#
# _framework density 16.615210999999999
#
# number of rings (size 3 to 8) (size 9 to 14) (size 15 to 20)
#    0.000    2.200    2.000    3.600    0.000    2.000 
#    7.200    2.500    0.000    0.000    0.000    0.000 
#    0.000    0.000    0.000    0.000    0.000    0.000 
#
# Total GULP energy -223099.571489 kJ/mol
# GULP energy per Si atom -5577.489287 kJ/mol
# Density = 1.657739 g / cm^3
# Si number density = 16.615211 Si / 1000 Ang^3
#
#
#
# Elastic Constant Matrix: (Units=GPa)
#
#
# Indices 1 2 3 4 5 6 
#
# 1 132.6027 46.5574 40.0215 0.0000 0.0000 0.0000
# 2 46.5574 114.5022 59.3571 0.0000 0.0000 0.0000
# 3 40.0215 59.3571 69.7882 0.0000 0.0000 0.0000
# 4 0.0000 0.0000 0.0000 10.0171 0.0000 0.0000
# 5 0.0000 0.0000 0.0000 0.0000 9.9680 0.0000
# 6 0.0000 0.0000 0.0000 0.0000 0.0000 19.0966
#
#
#
# Elastic Compliance Matrix: (Units=1/GPa)
#
#
# Indices 1 2 3 4 5 6 
#
# 1 0.009328 -0.001824 -0.003798 0.000000 0.000000 0.000000
# 2 -0.001824 0.015978 -0.012543 0.000000 0.000000 0.000000
# 3 -0.003798 -0.012543 0.027176 0.000000 0.000000 0.000000
# 4 0.000000 0.000000 0.000000 0.099830 0.000000 0.000000
# 5 0.000000 0.000000 0.000000 0.000000 0.100321 0.000000
# 6 0.000000 0.000000 0.000000 0.000000 0.000000 0.052365
#
#
# Mechanical properties :
#
#
# Convention : Reuss Voigt Hill
#
# Bulk Modulus (GPa) = 61.91770 67.64057 64.77914
# Shear Modulus (GPa) = 14.42122 19.21347 16.81734
#
# Velocity S-wave (km/s) = 2.94930 3.40425 3.18491
# Velocity P-wave (km/s) = 6.99603 7.50002 7.25240
#
# Compressibility (1/GPa) = 0.01615047
#
# Stress axis : x y z
#
# Youngs Moduli (GPa) = 107.20382 62.58791 36.79756
#
# Poissons Ratio (x) = 0.11416 0.13976
# Poissons Ratio (y) = 0.19554 0.46157
# Poissons Ratio (z) = 0.40716 0.78507
#
# Static dielectric constant tensor:
#      x y z
#    x 1.570060 0.000000 0.000000 
#    y 0.000000 1.543760 0.000000 
#    z 0.000000 0.000000 1.540480 
# 
# From -- ./inp_files/46512.got.cif
#   From: 2010.05.17/outbox.cif.g08.bks.cpg/sg74_24_cif.got.tgz:46512.got - 2010.06.03 17:57:02.
