data_PCOD9540909
_publ_section_title
;
Structure prediction by ZEFSAII (Michael W. Deem and Ramdas Pophale) SiO2 
 PCOD9540909
Probable space group: I M M A
;
_chemical_formula_sum "Si O2"
_cell_formula_units_Z 56
_cell_length_a 30.000000
_cell_length_b 30.000000
_cell_length_c 6.000000
_cell_angle_alpha 90.000000
_cell_angle_beta 90.000000
_cell_angle_gamma 90.000000
_cell_volume 5400.000000
_symmetry_space_group_name_H-M "I M M A"
_symmetry_group_IT_number 74
_symmetry_cell_setting 'orthorhombic'
loop_
_space_group_symop_operation_xyz
x,y,z
-x,1/2-y,z
x,-y,-z
-x,1/2+y,-z
-x,-y,-z
x,1/2+y,-z
-x,y,z
x,1/2-y,z
1/2+x,1/2+y,1/2+z
1/2-x,-y,1/2+z
1/2+x,1/2-y,1/2-z
1/2-x,y,1/2-z
1/2-x,1/2-y,1/2-z
1/2+x,y,1/2-z
1/2-x,1/2+y,1/2+z
1/2+x,-y,1/2+z
loop_
_atom_site_type_symbol
_atom_site_label
_atom_site_fract_x
_atom_site_fract_y
_atom_site_fract_z
Si Si1 0.283030 0.050861 0.947563
Si Si2 0.139672 0.041581 0.859295
Si Si3 0.703934 0.148399 0.142578
Si Si4 0.548522 0.543835 0.154301
Si Si5 0.124037 0.861515 0.970295
Si Si6 0.446877 0.636211 0.880154
Si Si7 0.629443 0.803664 0.109900
O O1 0.250000 0.065416 0.750000
O O2 0.333266 0.042660 0.867992
O O3 0.287553 0.095379 0.096640
O O4 0.266862 0.000000 0.000000
O O5 0.087880 0.035588 0.822341
O O6 0.143612 0.091190 0.949936
O O7 0.157727 0.000000 0.000000
O O8 0.750000 0.165755 0.250000
O O9 0.663344 0.154024 0.311230
O O10 0.678931 0.174506 0.940315
O O11 0.500000 0.548618 0.260033
O O12 0.547902 0.500000 0.000000
O O13 0.557751 0.589875 0.019395
O O14 0.076276 0.871773 0.858468
O O15 0.118433 0.822631 0.147078
O O16 0.500000 0.646978 0.874835
O O17 0.412590 0.673825 0.975317
O O18 0.630411 0.750000 0.086978
#
# Coordination Sequence:
#
# PCOD9540909 Si02
#       7
#    16  16  16  16  16  16  16
#     4  12  23  39  61  96 137 174 212 261 314 383
#     4  12  21  34  59  89 130 174 217 255 313 382
#     4  11  24  43  69  94 132 169 215 269 324 387
#     4  10  20  36  57  89 132 171 210 260 310 372
#     4  11  22  41  63  97 128 169 214 269 324 383
#     4  10  22  42  67  95 133 172 214 269 327 387
#     4  11  25  46  68  94 129 166 217 279 332 386
#
# _framework density 10.370369999999999
#
# number of rings (size 3 to 8) (size 9 to 14) (size 15 to 20)
#    0.000    1.000    2.857    4.714    0.000    4.286 
#    0.000    0.714    0.000    0.000    0.000    0.000 
#    0.000    0.000    0.000    0.000    0.000    0.000 
#
# Total GULP energy -311771.959789 kJ/mol
# GULP energy per Si atom -5567.356425 kJ/mol
# Density = 1.034677 g / cm^3
# Si number density = 10.370370 Si / 1000 Ang^3
#
#
#
# Elastic Constant Matrix: (Units=GPa)
#
#
# Indices 1 2 3 4 5 6 
#
# 1 138.0864 27.5263 33.1494 0.0000 0.0000 0.0000
# 2 27.5263 127.1243 17.9636 0.0000 0.0000 0.0000
# 3 33.1494 17.9636 38.9404 0.0000 0.0000 0.0000
# 4 0.0000 0.0000 0.0000 22.8724 0.0000 0.0000
# 5 0.0000 0.0000 0.0000 0.0000 34.4892 0.0000
# 6 0.0000 0.0000 0.0000 0.0000 0.0000 23.5915
#
#
#
# Elastic Compliance Matrix: (Units=1/GPa)
#
#
# Indices 1 2 3 4 5 6 
#
# 1 0.009207 -0.000948 -0.007401 0.000000 0.000000 0.000000
# 2 -0.000948 0.008512 -0.003120 0.000000 0.000000 0.000000
# 3 -0.007401 -0.003120 0.033420 0.000000 0.000000 0.000000
# 4 0.000000 0.000000 0.000000 0.043721 0.000000 0.000000
# 5 0.000000 0.000000 0.000000 0.000000 0.028995 0.000000
# 6 0.000000 0.000000 0.000000 0.000000 0.000000 0.042388
#
#
# Mechanical properties :
#
#
# Convention : Reuss Voigt Hill
#
# Bulk Modulus (GPa) = 35.45819 51.26996 43.36407
# Shear Modulus (GPa) = 25.17858 31.22474 28.20166
#
# Velocity S-wave (km/s) = 3.48798 3.88426 3.69144
# Velocity P-wave (km/s) = 5.77533 6.69998 6.25476
#
# Compressibility (1/GPa) = 0.02820223
#
# Stress axis : x y z
#
# Youngs Moduli (GPa) = 108.60736 117.47513 29.92236
#
# Poissons Ratio (x) = 0.11135 0.22145
# Poissons Ratio (y) = 0.10295 0.09336
# Poissons Ratio (z) = 0.80379 0.36652
#
# Static dielectric constant tensor:
#      x y z
#    x 1.728590 0.000000 0.000000 
#    y 0.000000 1.803470 0.000000 
#    z 0.000000 0.000000 1.874150 
# 
# From -- ./inp_files/5336.got.cif
#   From: 2010.05.17/outbox.ucp.g08.bks.cvg/sg74_3_cif.got.tgz:5336.got - 2010.06.11 16:37:44.
