data_PCOD9540613
_publ_section_title
;
Structure prediction by ZEFSAII (Michael W. Deem and Ramdas Pophale) SiO2 
 PCOD9540613
Probable space group: I M M A
;
_chemical_formula_sum "Si O2"
_cell_formula_units_Z 52
_cell_length_a 15.181107
_cell_length_b 10.015901
_cell_length_c 14.968149
_cell_angle_alpha 90.000000
_cell_angle_beta 90.000000
_cell_angle_gamma 90.000000
_cell_volume 2275.943949
_symmetry_space_group_name_H-M "I M M A"
_symmetry_group_IT_number 74
_symmetry_cell_setting 'orthorhombic'
loop_
_space_group_symop_operation_xyz
x,y,z
-x,1/2-y,z
x,-y,-z
-x,1/2+y,-z
-x,-y,-z
x,1/2+y,-z
-x,y,z
x,1/2-y,z
1/2+x,1/2+y,1/2+z
1/2-x,-y,1/2+z
1/2+x,1/2-y,1/2-z
1/2-x,y,1/2-z
1/2-x,1/2-y,1/2-z
1/2+x,y,1/2-z
1/2-x,1/2+y,1/2+z
1/2+x,-y,1/2+z
loop_
_atom_site_type_symbol
_atom_site_label
_atom_site_fract_x
_atom_site_fract_y
_atom_site_fract_z
Si Si1 0.351850 0.403690 0.917862
Si Si2 0.500000 0.750000 0.353379
Si Si3 0.104015 0.395210 0.262186
Si Si4 0.648641 0.539005 0.401584
O O1 0.383877 0.250000 0.922690
O O2 0.379737 0.482948 0.829301
O O3 0.245515 0.401198 0.915196
O O4 0.378965 0.500000 0.000000
O O5 0.577581 0.636317 0.359212
O O6 0.128540 0.250000 0.301574
O O7 0.154519 0.419033 0.169295
O O8 0.000000 0.390901 0.243094
O O9 0.616512 0.500000 0.500000
#
# Coordination Sequence:
#
# PCOD9540613 Si02
#       4
#    16   4  16  16
#     4  11  25  45  69  97 130 173 222 272 330 390
#     4  12  22  40  64 104 134 176 218 268 312 406
#     4  11  26  44  67  97 133 174 222 274 329 388
#     4  11  25  40  68  97 137 178 217 266 323 394
#
# _framework density 22.847662
#
# number of rings (size 3 to 8) (size 9 to 14) (size 15 to 20)
#    0.000    0.923    3.077    2.308    4.308    6.154 
#    0.000    0.000    0.000    0.000    0.000    0.000 
#    0.000    0.000    0.000    0.000    0.000    0.000 
#
# Total GULP energy -144832.012854 kJ/mol
# GULP energy per Si atom -5570.462033 kJ/mol
# Density = 2.279566 g / cm^3
# Si number density = 22.847662 Si / 1000 Ang^3
#
#
#
# Elastic Constant Matrix: (Units=GPa)
#
#
# Indices 1 2 3 4 5 6 
#
# 1 30.7059 10.7639 -2.8712 0.0000 0.0000 0.0000
# 2 10.7639 203.7189 67.3657 0.0000 0.0000 0.0000
# 3 -2.8712 67.3657 141.6687 0.0000 0.0000 0.0000
# 4 0.0000 0.0000 0.0000 -29.4985 0.0000 0.0000
# 5 0.0000 0.0000 0.0000 0.0000 23.9309 0.0000
# 6 0.0000 0.0000 0.0000 0.0000 0.0000 27.5579
#
#
#
# Elastic Compliance Matrix: (Units=1/GPa)
#
#
# Indices 1 2 3 4 5 6 
#
# 1 0.033567 -0.002371 0.001808 0.000000 0.000000 0.000000
# 2 -0.002371 0.005992 -0.002897 0.000000 0.000000 0.000000
# 3 0.001808 -0.002897 0.008473 0.000000 0.000000 0.000000
# 4 0.000000 0.000000 0.000000 -0.033900 0.000000 0.000000
# 5 0.000000 0.000000 0.000000 0.000000 0.041787 0.000000
# 6 0.000000 0.000000 0.000000 0.000000 0.000000 0.036287
#
#
# Mechanical properties :
#
#
# Convention : Reuss Voigt Hill
#
# Bulk Modulus (GPa) = 24.32447 58.51225 41.41836
# Shear Modulus (GPa) = 44.31354 24.45372 34.38363
#
# Velocity S-wave (km/s) = 4.40878 3.27508 3.88352
# Velocity P-wave (km/s) = 6.04863 6.32194 6.18679
#
# Compressibility (1/GPa) = 0.04111087
#
# Stress axis : x y z
#
# Youngs Moduli (GPa) = 29.79080 166.88519 118.02010
#
# Poissons Ratio (x) = 0.39576 -0.21338
# Poissons Ratio (y) = 0.07065 0.34195
# Poissons Ratio (z) = -0.05386 0.48354
#
# Static dielectric constant tensor:
#      x y z
#    x 1.827360 0.000000 0.000000 
#    y 0.000000 1.738420 0.000000 
#    z 0.000000 0.000000 1.864720 
# 
# From -- ./inp_files/28426.got.cif
#   From: 2010.05.17/outbox.cif.g08.bks.cpg/sg74_15_cif.got.tgz:28426.got - 2010.06.03 17:57:02.
