data_PCOD9540070
_publ_section_title
;
Structure prediction by ZEFSAII (Michael W. Deem and Ramdas Pophale) SiO2 
 PCOD9540070
Probable space group: I M M A
;
_chemical_formula_sum "Si O2"
_cell_formula_units_Z 52
_cell_length_a 16.589831
_cell_length_b 25.150087
_cell_length_c 5.282135
_cell_angle_alpha 90.000000
_cell_angle_beta 90.000000
_cell_angle_gamma 90.000000
_cell_volume 2203.895257
_symmetry_space_group_name_H-M "I M M A"
_symmetry_group_IT_number 74
_symmetry_cell_setting 'orthorhombic'
loop_
_space_group_symop_operation_xyz
x,y,z
-x,1/2-y,z
x,-y,-z
-x,1/2+y,-z
-x,-y,-z
x,1/2+y,-z
-x,y,z
x,1/2-y,z
1/2+x,1/2+y,1/2+z
1/2-x,-y,1/2+z
1/2+x,1/2-y,1/2-z
1/2-x,y,1/2-z
1/2-x,1/2-y,1/2-z
1/2+x,y,1/2-z
1/2-x,1/2+y,1/2+z
1/2+x,-y,1/2+z
loop_
_atom_site_type_symbol
_atom_site_label
_atom_site_fract_x
_atom_site_fract_y
_atom_site_fract_z
Si Si1 0.750000 0.750000 0.250000
Si Si2 0.337564 0.057273 0.623167
Si Si3 0.000000 0.162597 0.162185
Si Si4 0.000000 0.595113 0.348909
Si Si5 0.329555 0.672607 0.590749
O O1 0.685180 0.796905 0.330144
O O2 0.250000 0.058239 0.750000
O O3 0.415929 0.065124 0.799091
O O4 0.335153 0.109135 0.441777
O O5 0.346791 0.000000 0.500000
O O6 0.000000 0.115651 0.367074
O O7 0.914510 0.190329 0.203767
O O8 0.000000 0.140863 0.871659
O O9 0.250000 0.687731 0.750000
#
# Coordination Sequence:
#
# PCOD9540070 Si02
#       5
#     4  16   8   8  16
#     4  12  26  46  72 102 142 198 246 318 368 454
#     4  11  22  41  70 108 149 197 255 316 386 462
#     4  10  24  43  77 103 150 193 252 309 371 457
#     4  10  23  44  68 108 148 198 240 311 377 448
#     4  11  24  46  70 106 145 199 252 314 386 455
#
# _framework density 23.594588000000002
#
# number of rings (size 3 to 8) (size 9 to 14) (size 15 to 20)
#    0.000    1.231    1.538    3.692    4.308    3.077 
#    0.000    8.462    0.000    0.000    0.000    0.000 
#    0.000    0.000    0.000    0.000    0.000    0.000 
#
# Total GULP energy -144742.332222 kJ/mol
# GULP energy per Si atom -5567.012778 kJ/mol
# Density = 2.354089 g / cm^3
# Si number density = 23.594588 Si / 1000 Ang^3
#
#
#
# Elastic Constant Matrix: (Units=GPa)
#
#
# Indices 1 2 3 4 5 6 
#
# 1 268.5033 41.0764 30.0137 0.0000 0.0000 0.0001
# 2 41.0764 158.7618 17.7710 0.0000 0.0000 0.0000
# 3 30.0137 17.7710 33.2358 0.0000 0.0001 -0.0001
# 4 0.0000 0.0000 0.0000 -2.5504 0.0000 -0.0001
# 5 0.0000 0.0000 0.0001 0.0000 49.0631 -0.0001
# 6 0.0001 0.0000 -0.0001 -0.0001 -0.0001 185.1093
#
#
#
# Elastic Compliance Matrix: (Units=1/GPa)
#
#
# Indices 1 2 3 4 5 6 
#
# 1 0.004216 -0.000707 -0.003429 0.000000 0.000000 0.000000
# 2 -0.000707 0.006818 -0.003007 0.000000 0.000000 0.000000
# 3 -0.003429 -0.003007 0.034793 0.000001 0.000000 0.000000
# 4 0.000000 0.000000 0.000001 -0.392090 0.000000 0.000000
# 5 0.000000 0.000000 0.000000 0.000000 0.020382 0.000000
# 6 0.000000 0.000000 0.000000 0.000000 0.000000 0.005402
#
#
# Mechanical properties :
#
#
# Convention : Reuss Voigt Hill
#
# Bulk Modulus (GPa) = 31.70565 70.91369 51.30967
# Shear Modulus (GPa) = -16.91021 71.10038 27.09508
#
# Velocity S-wave (km/s) = -2.68003 5.49542 3.39242
# Velocity P-wave (km/s) = 1.97234 8.38966 6.09412
#
# Compressibility (1/GPa) = 0.03154012
#
# Stress axis : x y z
#
# Youngs Moduli (GPa) = 237.20246 146.66481 28.74164
#
# Poissons Ratio (x) = 0.10368 0.09856
# Poissons Ratio (y) = 0.16768 0.08643
# Poissons Ratio (z) = 0.81340 0.44107
#
# Static dielectric constant tensor:
#      x y z
#    x 1.035110 0.000000 0.000000 
#    y 0.000000 1.882820 0.000000 
#    z 0.000000 0.000000 2.005410 
# 
# From -- ./inp_files/2125.got.cif
#   From: 2010.05.17/outbox.cif.g08.bks.cpg/sg74_2_cif.got.tgz:2125.got - 2010.06.03 17:57:02.
