data_PCOD9540960
_publ_section_title
;
Structure prediction by ZEFSAII (Michael W. Deem and Ramdas Pophale) SiO2 
 PCOD9540960
Probable space group: I M M A
;
_chemical_formula_sum "Si O2"
_cell_formula_units_Z 44
_cell_length_a 9.000000
_cell_length_b 24.000000
_cell_length_c 21.000000
_cell_angle_alpha 90.000000
_cell_angle_beta 90.000000
_cell_angle_gamma 90.000000
_cell_volume 4536.000000
_symmetry_space_group_name_H-M "I M M A"
_symmetry_group_IT_number 74
_symmetry_cell_setting 'orthorhombic'
loop_
_space_group_symop_operation_xyz
x,y,z
-x,1/2-y,z
x,-y,-z
-x,1/2+y,-z
-x,-y,-z
x,1/2+y,-z
-x,y,z
x,1/2-y,z
1/2+x,1/2+y,1/2+z
1/2-x,-y,1/2+z
1/2+x,1/2-y,1/2-z
1/2-x,y,1/2-z
1/2-x,1/2-y,1/2-z
1/2+x,y,1/2-z
1/2-x,1/2+y,1/2+z
1/2+x,-y,1/2+z
loop_
_atom_site_type_symbol
_atom_site_label
_atom_site_fract_x
_atom_site_fract_y
_atom_site_fract_z
Si Si1 0.676954 0.024274 0.687037
Si Si2 0.170718 0.914189 0.885573
Si Si3 0.673545 0.366597 0.863144
Si Si4 0.323311 0.688940 0.819217
Si Si5 0.164874 0.067656 0.502686
Si Si6 0.181377 0.250000 0.821858
O O1 0.500000 0.029544 0.691655
O O2 0.750000 0.999678 0.750000
O O3 0.747451 0.084942 0.677438
O O4 0.712684 0.977311 0.634608
O O5 0.264729 0.865169 0.854787
O O6 0.200952 0.911273 0.960024
O O7 0.000000 0.906456 0.867632
O O8 0.500000 0.358837 0.844887
O O9 0.756879 0.307144 0.855268
O O10 0.673581 0.398025 0.931717
O O11 0.500000 0.685992 0.813363
O O12 0.286112 0.750000 0.848723
O O13 0.250000 0.688282 0.750000
O O14 0.000000 0.080697 0.475241
O O15 0.172392 0.000000 0.500000
O O16 0.250000 0.250000 0.750000
O O17 0.000000 0.250000 0.820416
#
# Coordination Sequence:
#
# PCOD9540960 Si02
#       6
#    16  16  16  16  16   8
#     4  11  23  37  57  89 124 159 199 249 307 366
#     4  11  23  37  59  89 122 160 202 251 303 364
#     4  11  23  42  67  93 124 163 209 257 312 374
#     4  10  21  38  60  85 117 157 200 249 303 361
#     4  10  21  40  65  91 121 161 201 246 305 365
#     4  12  26  46  70  96 130 168 213 264 323 382
#
# _framework density 9.7001760000000008
#
# number of rings (size 3 to 8) (size 9 to 14) (size 15 to 20)
#    0.000    1.273    1.818    4.091    0.000    6.545 
#    1.636    0.000    0.000    0.000    0.000    0.000 
#    0.000    0.000    0.000    0.000    0.000    0.000 
#
# Total GULP energy -245234.912410 kJ/mol
# GULP energy per Si atom -5573.520737 kJ/mol
# Density = 0.967810 g / cm^3
# Si number density = 9.700176 Si / 1000 Ang^3
#
#
#
# Elastic Constant Matrix: (Units=GPa)
#
#
# Indices 1 2 3 4 5 6 
#
# 1 107.4776 75.2717 37.9563 0.0000 0.0000 0.0000
# 2 75.2717 144.4948 31.7954 0.0000 0.0000 0.0000
# 3 37.9563 31.7954 59.8304 0.0000 0.0000 0.0000
# 4 0.0000 0.0000 0.0000 2.1711 0.0000 0.0000
# 5 0.0000 0.0000 0.0000 0.0000 28.8398 0.0000
# 6 0.0000 0.0000 0.0000 0.0000 0.0000 40.0113
#
#
#
# Elastic Compliance Matrix: (Units=1/GPa)
#
#
# Indices 1 2 3 4 5 6 
#
# 1 0.016777 -0.007245 -0.006793 0.000000 0.000000 0.000000
# 2 -0.007245 0.010966 -0.001231 0.000000 0.000000 0.000000
# 3 -0.006793 -0.001231 0.021678 0.000000 0.000000 0.000000
# 4 0.000000 0.000000 0.000000 0.460602 0.000000 0.000000
# 5 0.000000 0.000000 0.000000 0.000000 0.034674 0.000000
# 6 0.000000 0.000000 0.000000 0.000000 0.000000 0.024993
#
#
# Mechanical properties :
#
#
# Convention : Reuss Voigt Hill
#
# Bulk Modulus (GPa) = 52.96101 66.87217 59.91659
# Shear Modulus (GPa) = 8.24370 25.32304 16.78337
#
# Velocity S-wave (km/s) = 2.06361 3.61680 2.94446
# Velocity P-wave (km/s) = 5.74771 7.21013 6.52006
#
# Compressibility (1/GPa) = 0.01888182
#
# Stress axis : x y z
#
# Youngs Moduli (GPa) = 59.60388 91.19301 46.12982
#
# Poissons Ratio (x) = 0.66070 0.31338
# Poissons Ratio (y) = 0.43183 0.05680
# Poissons Ratio (z) = 0.40491 0.11228
#
# Static dielectric constant tensor:
#      x y z
#    x 1.683330 0.000000 0.000000 
#    y 0.000000 1.661360 0.000000 
#    z 0.000000 0.000000 1.739430 
# 
# From -- ./inp_files/48720.got.cif
#   From: 2010.05.17/outbox.ucp.g08.bks.cvg/sg74_25_cif.got.tgz:48720.got - 2010.06.11 16:37:44.
