data_PCOD9540062
_publ_section_title
;
Structure prediction by ZEFSAII (Michael W. Deem and Ramdas Pophale) SiO2 
 PCOD9540062
Probable space group: I M M A
;
_chemical_formula_sum "Si O2"
_cell_formula_units_Z 84
_cell_length_a 14.994189
_cell_length_b 11.558721
_cell_length_c 22.471880
_cell_angle_alpha 90.000000
_cell_angle_beta 90.000000
_cell_angle_gamma 90.000000
_cell_volume 3894.683484
_symmetry_space_group_name_H-M "I M M A"
_symmetry_group_IT_number 74
_symmetry_cell_setting 'orthorhombic'
loop_
_space_group_symop_operation_xyz
x,y,z
-x,1/2-y,z
x,-y,-z
-x,1/2+y,-z
-x,-y,-z
x,1/2+y,-z
-x,y,z
x,1/2-y,z
1/2+x,1/2+y,1/2+z
1/2-x,-y,1/2+z
1/2+x,1/2-y,1/2-z
1/2-x,y,1/2-z
1/2-x,1/2-y,1/2-z
1/2+x,y,1/2-z
1/2-x,1/2+y,1/2+z
1/2+x,-y,1/2+z
loop_
_atom_site_type_symbol
_atom_site_label
_atom_site_fract_x
_atom_site_fract_y
_atom_site_fract_z
Si Si1 0.000000 0.250000 0.057488
Si Si2 0.902890 0.615863 0.652559
Si Si3 0.894350 0.250000 0.614827
Si Si4 0.595837 0.970729 0.599877
Si Si5 0.711712 0.471373 0.932031
Si Si6 0.394901 0.250000 0.742193
Si Si7 0.348592 0.006421 0.270422
O O1 0.076364 0.353598 0.063633
O O2 0.892272 0.750000 0.668725
O O3 0.824703 0.573750 0.610008
O O4 0.903868 0.540288 0.712388
O O5 0.000000 0.601328 0.622678
O O6 0.843733 0.360963 0.589243
O O7 0.886020 0.250000 0.686336
O O8 0.000000 0.250000 0.600732
O O9 0.500000 0.035800 0.597777
O O10 0.682107 0.038236 0.577551
O O11 0.615325 0.938896 0.668973
O O12 0.693479 0.500000 0.000000
O O13 0.500000 0.250000 0.727693
O O14 0.351948 0.131643 0.719185
O O15 0.250000 0.041630 0.250000
#
# Coordination Sequence:
#
# PCOD9540062 Si02
#       7
#     4  16   8  16  16   8  16
#     4   8  24  42  72  92 150 178 224 286 354 414
#     4  11  25  41  65 100 135 171 220 277 343 419
#     4  11  24  46  71 101 143 183 224 285 358 411
#     4  10  23  43  69 101 135 184 227 279 352 406
#     4  12  27  46  70  98 136 180 241 290 338 410
#     4  11  21  37  62  92 134 173 212 268 333 408
#     4  12  22  38  66  98 135 174 219 275 343 417
#
# _framework density 21.567862999999999
#
# number of rings (size 3 to 8) (size 9 to 14) (size 15 to 20)
#    0.571    0.381    3.810    2.571    4.000    3.048 
#    0.000    1.429    0.000    0.000    0.000    0.000 
#    0.000    0.000    0.000    0.000    0.000    0.000 
#
# Total GULP energy -234111.154385 kJ/mol
# GULP energy per Si atom -5574.075104 kJ/mol
# Density = 2.151877 g / cm^3
# Si number density = 21.567863 Si / 1000 Ang^3
#
#
#
# Elastic Constant Matrix: (Units=GPa)
#
#
# Indices 1 2 3 4 5 6 
#
# 1 136.7358 18.5458 -10.6139 0.0000 0.0000 0.0000
# 2 18.5458 62.0150 -6.9724 0.0000 0.0000 0.0000
# 3 -10.6139 -6.9724 40.3259 0.0000 0.0000 0.0000
# 4 0.0000 0.0000 0.0000 -7.0950 0.0000 0.0000
# 5 0.0000 0.0000 0.0000 0.0000 4.3260 0.0000
# 6 0.0000 0.0000 0.0000 0.0000 0.0000 -0.0890
#
#
#
# Elastic Compliance Matrix: (Units=1/GPa)
#
#
# Indices 1 2 3 4 5 6 
#
# 1 0.007731 -0.002124 0.001667 0.000000 0.000000 0.000000
# 2 -0.002124 0.017029 0.002385 0.000000 0.000000 0.000000
# 3 0.001667 0.002385 0.025649 0.000000 0.000000 0.000000
# 4 0.000000 0.000000 0.000000 -0.140944 0.000000 0.000000
# 5 0.000000 0.000000 0.000000 0.000000 0.231160 0.000000
# 6 0.000000 0.000000 0.000000 0.000000 0.000000-11.233803
#
#
# Mechanical properties :
#
#
# Convention : Reuss Voigt Hill
#
# Bulk Modulus (GPa) = 18.42808 26.77729 22.60268
# Shear Modulus (GPa) = -0.45131 15.30288 7.42579
#
# Velocity S-wave (km/s) = -0.45793 2.66658 1.85754
# Velocity P-wave (km/s) = 2.87805 4.68222 3.88628
#
# Compressibility (1/GPa) = 0.05426502
#
# Stress axis : x y z
#
# Youngs Moduli (GPa) = 129.35003 58.72459 38.98755
#
# Poissons Ratio (x) = 0.12476 -0.06501
# Poissons Ratio (y) = 0.27480 -0.09299
# Poissons Ratio (z) = -0.21569 -0.14006
#
# Static dielectric constant tensor:
#      x y z
#    x 1.840530 0.000000 0.000000 
#    y 0.000000 1.834860 0.000000 
#    z 0.000000 0.000000 1.769480 
# 
# From -- ./inp_files/59839.got.cif
#   From: 2010.05.17/outbox.cif.g08.bks.cpg/sg74_30_cif.got.tgz:59839.got - 2010.06.03 17:57:02.
