data_PCOD9540257
_publ_section_title
;
Structure prediction by ZEFSAII (Michael W. Deem and Ramdas Pophale) SiO2 
 PCOD9540257
Probable space group: I M M A
;
_chemical_formula_sum "Si O2"
_cell_formula_units_Z 64
_cell_length_a 13.961394
_cell_length_b 12.258325
_cell_length_c 19.822809
_cell_angle_alpha 90.000000
_cell_angle_beta 90.000000
_cell_angle_gamma 90.000000
_cell_volume 3392.541049
_symmetry_space_group_name_H-M "I M M A"
_symmetry_group_IT_number 74
_symmetry_cell_setting 'orthorhombic'
loop_
_space_group_symop_operation_xyz
x,y,z
-x,1/2-y,z
x,-y,-z
-x,1/2+y,-z
-x,-y,-z
x,1/2+y,-z
-x,y,z
x,1/2-y,z
1/2+x,1/2+y,1/2+z
1/2-x,-y,1/2+z
1/2+x,1/2-y,1/2-z
1/2-x,y,1/2-z
1/2-x,1/2-y,1/2-z
1/2+x,y,1/2-z
1/2-x,1/2+y,1/2+z
1/2+x,-y,1/2+z
loop_
_atom_site_type_symbol
_atom_site_label
_atom_site_fract_x
_atom_site_fract_y
_atom_site_fract_z
Si Si1 0.212268 0.478931 0.922874
Si Si2 0.666253 0.250000 0.603166
Si Si3 0.000000 0.250000 0.009397
Si Si4 0.000000 0.001867 0.737799
Si Si5 0.317876 0.123651 0.184432
Si Si6 0.000000 0.041572 0.105165
Si Si7 0.000000 0.250000 0.784880
O O1 0.232694 0.356651 0.898794
O O2 0.258321 0.571129 0.876494
O O3 0.097144 0.481869 0.914710
O O4 0.237773 0.500000 0.000000
O O5 0.594878 0.250000 0.537630
O O6 0.594189 0.250000 0.666924
O O7 0.000000 0.149137 0.060393
O O8 0.000000 0.133604 0.746014
O O9 0.907560 0.953391 0.700674
O O10 0.000000 0.951214 0.813893
O O11 0.345150 0.250000 0.171620
O O12 0.250000 0.122633 0.250000
#
# Coordination Sequence:
#
# PCOD9540257 Si02
#       7
#    16   8   4   8  16   8   4
#     4  12  24  39  61  98 132 170 212 256 319 383
#     4  11  20  35  57  93 135 165 197 257 316 385
#     4  11  22  28  58  96 136 169 200 248 330 393
#     4  12  24  43  64  92 128 167 211 268 316 373
#     4  11  25  43  65  93 127 169 216 262 315 379
#     4  12  21  36  62  98 133 167 199 260 328 382
#     4  11  20  36  64  90 122 165 208 246 324 395
#
# _framework density 18.864916000000001
#
# number of rings (size 3 to 8) (size 9 to 14) (size 15 to 20)
#    0.000    0.500    7.500    1.500    5.250    1.000 
#    0.000    3.125    0.000    0.000    0.000    0.000 
#    0.000    0.000    0.000    0.000    0.000    0.000 
#
# Total GULP energy -178794.774302 kJ/mol
# GULP energy per Si atom -5587.336697 kJ/mol
# Density = 1.882198 g / cm^3
# Si number density = 18.864916 Si / 1000 Ang^3
#
#
#
# Elastic Constant Matrix: (Units=GPa)
#
#
# Indices 1 2 3 4 5 6 
#
# 1 58.2470 46.3795 26.2812 0.0000 0.0000 0.0000
# 2 46.3795 174.2541 51.0461 0.0000 0.0000 0.0000
# 3 26.2812 51.0461 103.6111 0.0000 0.0000 0.0000
# 4 0.0000 0.0000 0.0000 26.4578 0.0000 0.0000
# 5 0.0000 0.0000 0.0000 0.0000 -0.4725 0.0000
# 6 0.0000 0.0000 0.0000 0.0000 0.0000 24.6027
#
#
#
# Elastic Compliance Matrix: (Units=1/GPa)
#
#
# Indices 1 2 3 4 5 6 
#
# 1 0.022684 -0.005086 -0.003248 0.000000 0.000000 0.000000
# 2 -0.005086 0.007847 -0.002576 0.000000 0.000000 0.000000
# 3 -0.003248 -0.002576 0.011744 0.000000 0.000000 0.000000
# 4 0.000000 0.000000 0.000000 0.037796 0.000000 0.000000
# 5 0.000000 0.000000 0.000000 0.000000 -2.116454 0.000000
# 6 0.000000 0.000000 0.000000 0.000000 0.000000 0.040646
#
#
# Mechanical properties :
#
#
# Convention : Reuss Voigt Hill
#
# Bulk Modulus (GPa) = 48.88750 64.83622 56.86186
# Shear Modulus (GPa) = -2.54181 24.27796 10.86807
#
# Velocity S-wave (km/s) = -1.16202 3.59128 2.40281
# Velocity P-wave (km/s) = 4.91634 7.18608 6.15671
#
# Compressibility (1/GPa) = 0.02045513
#
# Stress axis : x y z
#
# Youngs Moduli (GPa) = 44.08483 127.43682 85.14679
#
# Poissons Ratio (x) = 0.64814 0.27656
# Poissons Ratio (y) = 0.22421 0.21933
# Poissons Ratio (z) = 0.14319 0.32827
#
# Static dielectric constant tensor:
#      x y z
#    x 1.645010 0.000000 0.000000 
#    y 0.000000 1.737610 0.000000 
#    z 0.000000 0.000000 1.635140 
# 
# From -- ./inp_files/42318.got.cif
#   From: 2010.05.17/outbox.cif.g08.bks.cpg/sg74_22_cif.got.tgz:42318.got - 2010.06.03 17:57:02.
