data_PCOD9540843
_publ_section_title
;
Structure prediction by ZEFSAII (Michael W. Deem and Ramdas Pophale) SiO2 
 PCOD9540843
Probable space group: I M M A
;
_chemical_formula_sum "Si O2"
_cell_formula_units_Z 36
_cell_length_a 15.000000
_cell_length_b 9.000000
_cell_length_c 27.000000
_cell_angle_alpha 90.000000
_cell_angle_beta 90.000000
_cell_angle_gamma 90.000000
_cell_volume 3645.000000
_symmetry_space_group_name_H-M "I M M A"
_symmetry_group_IT_number 74
_symmetry_cell_setting 'orthorhombic'
loop_
_space_group_symop_operation_xyz
x,y,z
-x,1/2-y,z
x,-y,-z
-x,1/2+y,-z
-x,-y,-z
x,1/2+y,-z
-x,y,z
x,1/2-y,z
1/2+x,1/2+y,1/2+z
1/2-x,-y,1/2+z
1/2+x,1/2-y,1/2-z
1/2-x,y,1/2-z
1/2-x,1/2-y,1/2-z
1/2+x,y,1/2-z
1/2-x,1/2+y,1/2+z
1/2+x,-y,1/2+z
loop_
_atom_site_type_symbol
_atom_site_label
_atom_site_fract_x
_atom_site_fract_y
_atom_site_fract_z
Si Si1 0.848175 0.072833 0.617498
Si Si2 0.318455 0.926402 0.450047
Si Si3 0.344029 0.569526 0.230684
Si Si4 0.000000 0.070569 0.806067
Si Si5 0.500000 0.427696 0.413896
Si Si6 0.500000 0.074096 0.053344
O O1 0.868247 0.250000 0.614476
O O2 0.748712 0.053311 0.596042
O O3 0.859820 0.023490 0.674244
O O4 0.914652 0.983208 0.583198
O O5 0.330592 0.750000 0.457251
O O6 0.279966 0.000000 0.500000
O O7 0.411887 0.004926 0.438949
O O8 0.341342 0.750000 0.228750
O O9 0.250000 0.513927 0.250000
O O10 0.416689 0.532121 0.271456
O O11 0.000000 0.250000 0.815634
O O12 0.000000 0.984607 0.857332
O O13 0.500000 0.250000 0.417089
O O14 0.500000 0.250000 0.048784
O O15 0.500000 0.000000 0.000000
#
# Coordination Sequence:
#
# PCOD9540843 Si02
#       6
#    16  16  16   8   8   8
#     4  10  21  39  64  91 119 153 195 242 290 344
#     4  11  23  40  63  89 118 152 194 243 294 349
#     4   9  17  32  57  87 115 147 190 237 284 338
#     4  10  19  34  58  84 113 150 194 240 284 336
#     4  12  25  40  59  84 119 158 197 242 293 350
#     4  12  25  40  60  86 120 158 197 242 291 348
#
# _framework density 9.8765429999999999
#
# number of rings (size 3 to 8) (size 9 to 14) (size 15 to 20)
#    0.000    1.556    0.000    5.667    0.000    8.889 
#    0.000    2.222    0.000    2.667    0.000    0.000 
#    0.000    0.000    0.000    0.000    0.000    0.000 
#
# Total GULP energy -201202.554349 kJ/mol
# GULP energy per Si atom -5588.959843 kJ/mol
# Density = 0.985406 g / cm^3
# Si number density = 9.876543 Si / 1000 Ang^3
#
#
#
# Elastic Constant Matrix: (Units=GPa)
#
#
# Indices 1 2 3 4 5 6 
#
# 1 75.5722 32.0145 8.4972 0.0000 0.0000 0.0000
# 2 32.0145 79.3526 27.9722 0.0000 0.0000 0.0000
# 3 8.4972 27.9722 115.6173 0.0000 0.0000 0.0000
# 4 0.0000 0.0000 0.0000 29.7166 0.0000 0.0000
# 5 0.0000 0.0000 0.0000 0.0000 22.0860 0.0000
# 6 0.0000 0.0000 0.0000 0.0000 0.0000 16.7968
#
#
#
# Elastic Compliance Matrix: (Units=1/GPa)
#
#
# Indices 1 2 3 4 5 6 
#
# 1 0.015979 -0.006595 0.000421 0.000000 0.000000 0.000000
# 2 -0.006595 0.016499 -0.003507 0.000000 0.000000 0.000000
# 3 0.000421 -0.003507 0.009467 0.000000 0.000000 0.000000
# 4 0.000000 0.000000 0.000000 0.033651 0.000000 0.000000
# 5 0.000000 0.000000 0.000000 0.000000 0.045278 0.000000
# 6 0.000000 0.000000 0.000000 0.000000 0.000000 0.059535
#
#
# Mechanical properties :
#
#
# Convention : Reuss Voigt Hill
#
# Bulk Modulus (GPa) = 44.28140 45.27889 44.78014
# Shear Modulus (GPa) = 24.11985 27.19042 25.65513
#
# Velocity S-wave (km/s) = 3.49817 3.71417 3.60778
# Velocity P-wave (km/s) = 6.22755 6.43161 6.33040
#
# Compressibility (1/GPa) = 0.02258285
#
# Stress axis : x y z
#
# Youngs Moduli (GPa) = 62.58259 60.60975 105.63289
#
# Poissons Ratio (x) = 0.39973 -0.04450
# Poissons Ratio (y) = 0.41274 0.37046
# Poissons Ratio (z) = -0.02636 0.21256
#
# Static dielectric constant tensor:
#      x y z
#    x 1.694770 0.000000 0.000000 
#    y 0.000000 1.654930 0.000000 
#    z 0.000000 0.000000 1.609560 
# 
# From -- ./inp_files/63656.got.cif
#   From: 2010.05.17/outbox.ucp.g08.bks.cvg/sg74_32_cif.got.tgz:63656.got - 2010.06.11 16:37:44.
