data_PCOD9540189
_publ_section_title
;
Structure prediction by ZEFSAII (Michael W. Deem and Ramdas Pophale) SiO2 
 PCOD9540189
Probable space group: I M M A
;
_chemical_formula_sum "Si O2"
_cell_formula_units_Z 88
_cell_length_a 8.091864
_cell_length_b 31.725598
_cell_length_c 26.020487
_cell_angle_alpha 90.000000
_cell_angle_beta 90.000000
_cell_angle_gamma 90.000000
_cell_volume 6679.959239
_symmetry_space_group_name_H-M "I M M A"
_symmetry_group_IT_number 74
_symmetry_cell_setting 'orthorhombic'
loop_
_space_group_symop_operation_xyz
x,y,z
-x,1/2-y,z
x,-y,-z
-x,1/2+y,-z
-x,-y,-z
x,1/2+y,-z
-x,y,z
x,1/2-y,z
1/2+x,1/2+y,1/2+z
1/2-x,-y,1/2+z
1/2+x,1/2-y,1/2-z
1/2-x,y,1/2-z
1/2-x,1/2-y,1/2-z
1/2+x,y,1/2-z
1/2-x,1/2+y,1/2+z
1/2+x,-y,1/2+z
loop_
_atom_site_type_symbol
_atom_site_label
_atom_site_fract_x
_atom_site_fract_y
_atom_site_fract_z
Si Si1 0.317865 0.412733 0.090268
Si Si2 0.500000 0.940586 0.452894
Si Si3 0.309859 0.386000 0.969468
Si Si4 0.807714 0.825187 0.881266
Si Si5 0.303395 0.750000 0.808997
Si Si6 0.699164 0.203354 0.006549
Si Si7 0.000000 0.964681 0.925211
O O1 0.500000 0.430444 0.100867
O O2 0.313416 0.399576 0.029809
O O3 0.291604 0.368908 0.120263
O O4 0.165239 0.444075 0.098125
O O5 0.667078 0.913853 0.443805
O O6 0.500000 0.984919 0.423603
O O7 0.500000 0.951924 0.514064
O O8 0.500000 0.390824 0.950691
O O9 0.259984 0.336671 0.971162
O O10 0.762510 0.791247 0.838413
O O11 0.772764 0.804532 0.936976
O O12 0.000000 0.835948 0.878533
O O13 0.500000 0.750000 0.812991
O O14 0.250000 0.750000 0.750000
O O15 0.500000 0.202258 0.012417
O O16 0.747071 0.250000 0.988258
#
# Coordination Sequence:
#
# PCOD9540189 Si02
#       7
#    16   8  16  16   8  16   8
#     4   9  16  27  40  53  67  84 106 135 162 192
#     4   9  16  24  35  46  69  88 104 130 170 192
#     4   8  15  24  33  47  67  88 110 133 164 202
#     4  11  19  29  42  57  71  87 107 135 171 204
#     4  12  24  36  44  56  74  94 116 137 171 218
#     4   9  16  25  37  52  68  88 114 144 172 199
#     4   9  16  26  36  53  66  83 108 136 154 207
#
# _framework density 13.173733
#
# number of rings (size 3 to 8) (size 9 to 14) (size 15 to 20)
#    0.000    2.545    1.818    3.545    3.818    0.727 
#    0.000    3.636    0.000    0.000    0.000    0.000 
#    0.000    0.000    0.000    0.000    0.000    0.000 
#
# Total GULP energy -244992.725786 kJ/mol
# GULP energy per Si atom -5568.016495 kJ/mol
# Density = 1.314375 g / cm^3
# Si number density = 13.173733 Si / 1000 Ang^3
#
#
#
# Elastic Constant Matrix: (Units=GPa)
#
#
# Indices 1 2 3 4 5 6 
#
# 1 90.4587 58.5837 9.1392 0.0000 0.0000 0.0000
# 2 58.5837 107.7812 16.3350 0.0000 0.0000 0.0000
# 3 9.1392 16.3350 10.4970 0.0000 0.0000 0.0000
# 4 0.0000 0.0000 0.0000 6.6556 0.0000 0.0000
# 5 0.0000 0.0000 0.0000 0.0000 7.7433 0.0000
# 6 0.0000 0.0000 0.0000 0.0000 0.0000 15.0464
#
#
#
# Elastic Compliance Matrix: (Units=1/GPa)
#
#
# Indices 1 2 3 4 5 6 
#
# 1 0.017063 -0.009190 -0.000554 0.000000 0.000000 0.000000
# 2 -0.009190 0.017092 -0.018596 0.000000 0.000000 0.000000
# 3 -0.000554 -0.018596 0.124686 0.000000 0.000000 0.000000
# 4 0.000000 0.000000 0.000000 0.150250 0.000000 0.000000
# 5 0.000000 0.000000 0.000000 0.000000 0.129143 0.000000
# 6 0.000000 0.000000 0.000000 0.000000 0.000000 0.066461
#
#
# Mechanical properties :
#
#
# Convention : Reuss Voigt Hill
#
# Bulk Modulus (GPa) = 9.78860 41.87253 25.83056
# Shear Modulus (GPa) = 8.39732 14.20100 11.29916
#
# Velocity S-wave (km/s) = 2.52747 3.28682 2.93184
# Velocity P-wave (km/s) = 3.99550 6.80133 5.57773
#
# Compressibility (1/GPa) = 0.10215965
#
# Stress axis : x y z
#
# Youngs Moduli (GPa) = 58.60752 58.50782 8.02017
#
# Poissons Ratio (x) = 0.53771 0.00444
# Poissons Ratio (y) = 0.53862 0.14914
# Poissons Ratio (z) = 0.03247 1.08801
#
# Static dielectric constant tensor:
#      x y z
#    x 1.462020 0.000000 0.000000 
#    y 0.000000 1.474730 0.000000 
#    z 0.000000 0.000000 1.368610 
# 
# From -- ./inp_files/65206.got.cif
#   From: 2010.05.17/outbox.cif.g08.bks.cpg/sg74_33_cif.got.tgz:65206.got - 2010.06.03 17:57:02.
