data_PCOD9540501
_publ_section_title
;
Structure prediction by ZEFSAII (Michael W. Deem and Ramdas Pophale) SiO2 
 PCOD9540501
Probable space group: I M M A
;
_chemical_formula_sum "Si O2"
_cell_formula_units_Z 104
_cell_length_a 21.883375
_cell_length_b 15.176766
_cell_length_c 15.211700
_cell_angle_alpha 90.000000
_cell_angle_beta 90.000000
_cell_angle_gamma 90.000000
_cell_volume 5052.092488
_symmetry_space_group_name_H-M "I M M A"
_symmetry_group_IT_number 74
_symmetry_cell_setting 'orthorhombic'
loop_
_space_group_symop_operation_xyz
x,y,z
-x,1/2-y,z
x,-y,-z
-x,1/2+y,-z
-x,-y,-z
x,1/2+y,-z
-x,y,z
x,1/2-y,z
1/2+x,1/2+y,1/2+z
1/2-x,-y,1/2+z
1/2+x,1/2-y,1/2-z
1/2-x,y,1/2-z
1/2-x,1/2-y,1/2-z
1/2+x,y,1/2-z
1/2-x,1/2+y,1/2+z
1/2+x,-y,1/2+z
loop_
_atom_site_type_symbol
_atom_site_label
_atom_site_fract_x
_atom_site_fract_y
_atom_site_fract_z
Si Si1 0.692163 0.104222 0.809352
Si Si2 0.932462 0.901727 0.219451
Si Si3 0.894908 0.853182 0.029551
Si Si4 0.865359 0.750000 0.731303
Si Si5 0.756478 0.353734 0.986196
Si Si6 0.291483 0.399163 0.169464
Si Si7 0.430890 0.601616 0.658155
O O1 0.750000 0.134857 0.750000
O O2 0.626237 0.133000 0.772948
O O3 0.708160 0.129571 0.909031
O O4 0.691609 0.997888 0.805523
O O5 0.929342 0.865549 0.120475
O O6 0.000000 0.883176 0.257211
O O7 0.926236 0.007175 0.204842
O O8 0.898169 0.750000 0.005353
O O9 0.824225 0.878134 0.046350
O O10 0.919224 0.906051 0.945781
O O11 0.844935 0.828412 0.661986
O O12 0.885066 0.827757 0.801555
O O13 0.757373 0.250000 0.006680
O O14 0.743428 0.402655 0.077197
O O15 0.250000 0.361626 0.250000
O O16 0.500000 0.634534 0.672374
#
# Coordination Sequence:
#
# PCOD9540501 Si02
#       7
#    16  16  16   8  16  16  16
#     4  11  23  42  63  91 124 168 212 256 311 373
#     4  11  24  42  62  89 126 170 216 261 311 374
#     4  11  23  37  59  92 129 166 209 257 316 383
#     4  12  20  36  60  88 125 155 204 251 316 367
#     4  11  24  39  63  94 128 164 206 263 319 374
#     4  11  23  37  62  94 125 158 203 262 320 375
#     4  11  23  38  60  90 129 171 206 252 322 392
#
# _framework density 20.585529000000001
#
# number of rings (size 3 to 8) (size 9 to 14) (size 15 to 20)
#    0.000    0.923    4.615    2.769    4.308    4.308 
#    0.000    0.000    0.000    3.692    0.000    0.000 
#    0.000    0.000    0.000    0.000    0.000    0.000 
#
# Total GULP energy -289597.131977 kJ/mol
# GULP energy per Si atom -5569.175615 kJ/mol
# Density = 2.053868 g / cm^3
# Si number density = 20.585529 Si / 1000 Ang^3
#
#
#
# Elastic Constant Matrix: (Units=GPa)
#
#
# Indices 1 2 3 4 5 6 
#
# 1 113.1537 5.3596 46.2105 0.0000 0.0000 0.0000
# 2 5.3596 32.4012 -13.8079 0.0000 0.0000 0.0000
# 3 46.2105 -13.8079 75.5711 0.0000 0.0000 0.0000
# 4 0.0000 0.0000 0.0000 34.9618 0.0000 0.0000
# 5 0.0000 0.0000 0.0000 0.0000 26.5742 0.0000
# 6 0.0000 0.0000 0.0000 0.0000 0.0000 0.6930
#
#
#
# Elastic Compliance Matrix: (Units=1/GPa)
#
#
# Indices 1 2 3 4 5 6 
#
# 1 0.012736 -0.005883 -0.008863 0.000000 0.000000 0.000000
# 2 -0.005883 0.036187 0.010210 0.000000 0.000000 0.000000
# 3 -0.008863 0.010210 0.020517 0.000000 0.000000 0.000000
# 4 0.000000 0.000000 0.000000 0.028603 0.000000 0.000000
# 5 0.000000 0.000000 0.000000 0.000000 0.037630 0.000000
# 6 0.000000 0.000000 0.000000 0.000000 0.000000 1.442986
#
#
# Mechanical properties :
#
#
# Convention : Reuss Voigt Hill
#
# Bulk Modulus (GPa) = 16.56534 32.96114 24.76324
# Shear Modulus (GPa) = 3.10973 24.67007 13.88990
#
# Velocity S-wave (km/s) = 1.23041 3.46557 2.60040
# Velocity P-wave (km/s) = 3.17539 5.66217 4.59038
#
# Compressibility (1/GPa) = 0.06036702
#
# Stress axis : x y z
#
# Youngs Moduli (GPa) = 78.52015 27.63416 48.73921
#
# Poissons Ratio (x) = 0.16258 0.43196
# Poissons Ratio (y) = 0.46197 -0.49761
# Poissons Ratio (z) = 0.69589 -0.28213
#
# Static dielectric constant tensor:
#      x y z
#    x 1.809870 0.000000 0.000000 
#    y 0.000000 1.776160 0.000000 
#    z 0.000000 0.000000 1.719820 
# 
# From -- ./inp_files/36516.got.cif
#   From: 2010.05.17/outbox.cif.g08.bks.cpg/sg74_19_cif.got.tgz:36516.got - 2010.06.03 17:57:02.
