data_PCOD9540236
_publ_section_title
;
Structure prediction by ZEFSAII (Michael W. Deem and Ramdas Pophale) SiO2 
 PCOD9540236
Probable space group: I M M A
;
_chemical_formula_sum "Si O2"
_cell_formula_units_Z 80
_cell_length_a 16.222396
_cell_length_b 20.269857
_cell_length_c 13.543746
_cell_angle_alpha 90.000000
_cell_angle_beta 90.000000
_cell_angle_gamma 90.000000
_cell_volume 4453.531043
_symmetry_space_group_name_H-M "I M M A"
_symmetry_group_IT_number 74
_symmetry_cell_setting 'orthorhombic'
loop_
_space_group_symop_operation_xyz
x,y,z
-x,1/2-y,z
x,-y,-z
-x,1/2+y,-z
-x,-y,-z
x,1/2+y,-z
-x,y,z
x,1/2-y,z
1/2+x,1/2+y,1/2+z
1/2-x,-y,1/2+z
1/2+x,1/2-y,1/2-z
1/2-x,y,1/2-z
1/2-x,1/2-y,1/2-z
1/2+x,y,1/2-z
1/2-x,1/2+y,1/2+z
1/2+x,-y,1/2+z
loop_
_atom_site_type_symbol
_atom_site_label
_atom_site_fract_x
_atom_site_fract_y
_atom_site_fract_z
Si Si1 0.000000 0.825875 0.988742
Si Si2 0.622304 0.565782 0.435467
Si Si3 0.184100 0.925503 0.468629
Si Si4 0.331417 0.606987 0.812716
Si Si5 0.500000 0.824344 0.747080
Si Si6 0.594392 0.464752 0.790772
O O1 0.000000 0.750000 0.025239
O O2 0.000000 0.823751 0.870996
O O3 0.922275 0.869926 0.021807
O O4 0.600906 0.500000 0.500000
O O5 0.720421 0.572751 0.440028
O O6 0.596445 0.558196 0.322065
O O7 0.177371 0.883951 0.569216
O O8 0.129380 0.913237 0.371540
O O9 0.158840 0.000000 0.500000
O O10 0.250000 0.626466 0.750000
O O11 0.415475 0.641331 0.779403
O O12 0.347570 0.529229 0.793923
O O13 0.500000 0.750000 0.785440
O O14 0.500000 0.482283 0.816681
#
# Coordination Sequence:
#
# PCOD9540236 Si02
#       6
#     8  16  16  16   8  16
#     4  11  23  37  56  83 116 150 189 240 293 339
#     4  11  20  36  59  87 113 148 195 242 284 342
#     4   9  20  33  55  84 120 146 178 233 295 349
#     4  11  21  37  58  84 118 152 187 234 292 353
#     4  11  24  39  57  81 111 150 197 240 284 345
#     4  11  20  32  57  91 117 146 185 235 298 347
#
# _framework density 17.963274999999999
#
# number of rings (size 3 to 8) (size 9 to 14) (size 15 to 20)
#    0.000    1.400    2.000    6.900    1.400    1.600 
#    0.000    1.000    0.000    4.800    0.000    0.000 
#    0.000    0.000    0.000    0.000    0.000    0.000 
#
# Total GULP energy -223057.201742 kJ/mol
# GULP energy per Si atom -5576.430044 kJ/mol
# Density = 1.792239 g / cm^3
# Si number density = 17.963275 Si / 1000 Ang^3
#
#
#
# Elastic Constant Matrix: (Units=GPa)
#
#
# Indices 1 2 3 4 5 6 
#
# 1 119.1708 26.2490 59.2161 0.0000 0.0000 0.0000
# 2 26.2490 66.6106 33.9310 0.0000 0.0000 0.0000
# 3 59.2161 33.9310 132.3573 0.0000 0.0000 0.0000
# 4 0.0000 0.0000 0.0000 12.8634 0.0000 0.0000
# 5 0.0000 0.0000 0.0000 0.0000 22.1178 0.0000
# 6 0.0000 0.0000 0.0000 0.0000 0.0000 -3.0403
#
#
#
# Elastic Compliance Matrix: (Units=1/GPa)
#
#
# Indices 1 2 3 4 5 6 
#
# 1 0.011042 -0.002110 -0.004399 0.000000 0.000000 0.000000
# 2 -0.002110 0.017671 -0.003586 0.000000 0.000000 0.000000
# 3 -0.004399 -0.003586 0.010443 0.000000 0.000000 0.000000
# 4 0.000000 0.000000 0.000000 0.077740 0.000000 0.000000
# 5 0.000000 0.000000 0.000000 0.000000 0.045212 0.000000
# 6 0.000000 0.000000 0.000000 0.000000 0.000000 -0.328911
#
#
# Mechanical properties :
#
#
# Convention : Reuss Voigt Hill
#
# Bulk Modulus (GPa) = 52.72927 61.88120 57.30524
# Shear Modulus (GPa) = -35.64050 19.63768 -8.00141
#
# Velocity S-wave (km/s) = -4.45913 3.30996 -2.11281
# Velocity P-wave (km/s) = 1.70466 7.00937 5.10084
#
# Compressibility (1/GPa) = 0.01896480
#
# Stress axis : x y z
#
# Youngs Moduli (GPa) = 90.56233 56.59015 95.76017
#
# Poissons Ratio (x) = 0.11943 0.42127
# Poissons Ratio (y) = 0.19112 0.34339
# Poissons Ratio (z) = 0.39840 0.20293
#
# Static dielectric constant tensor:
#      x y z
#    x 1.629330 0.000000 0.000000 
#    y 0.000000 1.609550 0.000000 
#    z 0.000000 0.000000 1.666300 
# 
# From -- ./inp_files/20560.got.cif
#   From: 2010.05.17/outbox.cif.g08.bks.cpg/sg74_11_cif.got.tgz:20560.got - 2010.06.03 17:57:02.
