data_PCOD9540134
_publ_section_title
;
Structure prediction by ZEFSAII (Michael W. Deem and Ramdas Pophale) SiO2 
 PCOD9540134
Probable space group: I M M A
;
_chemical_formula_sum "Si O2"
_cell_formula_units_Z 72
_cell_length_a 8.618686
_cell_length_b 27.451070
_cell_length_c 14.858799
_cell_angle_alpha 90.000000
_cell_angle_beta 90.000000
_cell_angle_gamma 90.000000
_cell_volume 3515.475242
_symmetry_space_group_name_H-M "I M M A"
_symmetry_group_IT_number 74
_symmetry_cell_setting 'orthorhombic'
loop_
_space_group_symop_operation_xyz
x,y,z
-x,1/2-y,z
x,-y,-z
-x,1/2+y,-z
-x,-y,-z
x,1/2+y,-z
-x,y,z
x,1/2-y,z
1/2+x,1/2+y,1/2+z
1/2-x,-y,1/2+z
1/2+x,1/2-y,1/2-z
1/2-x,y,1/2-z
1/2-x,1/2-y,1/2-z
1/2+x,y,1/2-z
1/2-x,1/2+y,1/2+z
1/2+x,-y,1/2+z
loop_
_atom_site_type_symbol
_atom_site_label
_atom_site_fract_x
_atom_site_fract_y
_atom_site_fract_z
Si Si1 0.184739 0.619609 0.152491
Si Si2 0.815463 0.340348 0.477221
Si Si3 0.812772 0.750000 0.648409
Si Si4 0.681603 0.915161 0.656416
Si Si5 0.679708 0.013434 0.894375
O O1 0.250000 0.633746 0.250000
O O2 0.259288 0.567218 0.126706
O O3 0.000000 0.614751 0.155534
O O4 0.233791 0.656683 0.073613
O O5 0.765608 0.296926 0.410645
O O6 0.772212 0.389527 0.424352
O O7 0.000000 0.337345 0.490464
O O8 0.750000 0.750000 0.750000
O O9 0.000000 0.750000 0.654178
O O10 0.500000 0.905109 0.649284
O O11 0.750000 0.895929 0.750000
O O12 0.715026 0.972537 0.651668
O O13 0.500000 0.009065 0.864946
O O14 0.685307 0.000000 0.000000
#
# Coordination Sequence:
#
# PCOD9540134 Si02
#       5
#    16  16   8  16  16
#     4  12  25  42  65  93 127 170 215 262 314 373
#     4  11  23  43  66  94 127 162 207 260 316 376
#     4  10  24  44  71 100 131 164 201 254 316 380
#     4  12  24  38  59  89 125 166 210 257 310 371
#     4  11  22  38  61  88 125 169 211 260 312 367
#
# _framework density 20.480872999999999
#
# number of rings (size 3 to 8) (size 9 to 14) (size 15 to 20)
#    0.000    0.667    2.222    6.667    0.000    4.444 
#    0.000    0.556    0.000    0.000    0.000    0.000 
#    0.000    0.000    0.000    0.000    0.000    0.000 
#
# Total GULP energy -201455.041088 kJ/mol
# GULP energy per Si atom -5595.973364 kJ/mol
# Density = 2.043426 g / cm^3
# Si number density = 20.480873 Si / 1000 Ang^3
#
#
#
# Elastic Constant Matrix: (Units=GPa)
#
#
# Indices 1 2 3 4 5 6 
#
# 1 78.8208 2.4107 26.9653 0.0000 0.0000 0.0000
# 2 2.4107 76.6706 37.6628 0.0001 0.0000 -0.0001
# 3 26.9653 37.6628 162.3815 0.0003 0.0000 -0.0001
# 4 0.0000 0.0001 0.0003 29.8732 0.0000 -0.0001
# 5 0.0000 0.0000 0.0000 0.0000 35.7299 0.0000
# 6 0.0000 -0.0001 -0.0001 -0.0001 0.0000 10.6569
#
#
#
# Elastic Compliance Matrix: (Units=1/GPa)
#
#
# Indices 1 2 3 4 5 6 
#
# 1 0.013491 0.000763 -0.002417 0.000000 0.000000 0.000000
# 2 0.000763 0.014763 -0.003551 0.000000 0.000000 0.000000
# 3 -0.002417 -0.003551 0.007383 0.000000 0.000000 0.000000
# 4 0.000000 0.000000 0.000000 0.033475 0.000000 0.000000
# 5 0.000000 0.000000 0.000000 0.000000 0.027988 0.000000
# 6 0.000000 0.000000 0.000000 0.000000 0.000000 0.093836
#
#
# Mechanical properties :
#
#
# Convention : Reuss Voigt Hill
#
# Bulk Modulus (GPa) = 39.63971 50.21672 44.92822
# Shear Modulus (GPa) = 23.83734 31.97426 27.90580
#
# Velocity S-wave (km/s) = 3.41527 3.95546 3.69525
# Velocity P-wave (km/s) = 5.91174 6.74040 6.33962
#
# Compressibility (1/GPa) = 0.02522723
#
# Stress axis : x y z
#
# Youngs Moduli (GPa) = 74.12548 67.73636 135.43976
#
# Poissons Ratio (x) = -0.05170 0.32740
# Poissons Ratio (y) = -0.05658 0.48093
# Poissons Ratio (z) = 0.17918 0.24053
#
# Static dielectric constant tensor:
#      x y z
#    x 1.677840 0.000000 0.000000 
#    y 0.000000 1.740710 0.000000 
#    z 0.000000 0.000000 1.736340 
# 
# From -- ./inp_files/29190.got.cif
#   From: 2010.05.17/outbox.cif.g08.bks.cpg/sg74_15_cif.got.tgz:29190.got - 2010.06.03 17:57:02.
