data_PCOD9540979
_publ_section_title
;
Structure prediction by ZEFSAII (Michael W. Deem and Ramdas Pophale) SiO2 
 PCOD9540979
Probable space group: I M M A
;
_chemical_formula_sum "Si O2"
_cell_formula_units_Z 56
_cell_length_a 15.000000
_cell_length_b 15.000000
_cell_length_c 24.000000
_cell_angle_alpha 90.000000
_cell_angle_beta 90.000000
_cell_angle_gamma 90.000000
_cell_volume 5400.000000
_symmetry_space_group_name_H-M "I M M A"
_symmetry_group_IT_number 74
_symmetry_cell_setting 'orthorhombic'
loop_
_space_group_symop_operation_xyz
x,y,z
-x,1/2-y,z
x,-y,-z
-x,1/2+y,-z
-x,-y,-z
x,1/2+y,-z
-x,y,z
x,1/2-y,z
1/2+x,1/2+y,1/2+z
1/2-x,-y,1/2+z
1/2+x,1/2-y,1/2-z
1/2-x,y,1/2-z
1/2-x,1/2-y,1/2-z
1/2+x,y,1/2-z
1/2-x,1/2+y,1/2+z
1/2+x,-y,1/2+z
loop_
_atom_site_type_symbol
_atom_site_label
_atom_site_fract_x
_atom_site_fract_y
_atom_site_fract_z
Si Si1 0.397892 0.966091 0.136101
Si Si2 0.394720 0.146633 0.381099
Si Si3 0.777627 0.000099 0.187580
Si Si4 0.896742 0.651338 0.135759
Si Si5 0.347042 0.353319 0.968234
Si Si6 0.897745 0.343985 0.406610
Si Si7 0.643712 0.601491 0.491363
O O1 0.500000 0.964259 0.157025
O O2 0.393259 0.909574 0.079613
O O3 0.313646 0.943830 0.173204
O O4 0.366766 0.066808 0.121455
O O5 0.500000 0.120646 0.372030
O O6 0.384645 0.250000 0.363295
O O7 0.324343 0.081713 0.348785
O O8 0.378406 0.144681 0.448607
O O9 0.750000 0.031850 0.250000
O O10 0.849282 0.923420 0.172536
O O11 0.857923 0.750000 0.144935
O O12 0.892412 0.634497 0.068350
O O13 0.000000 0.651628 0.150721
O O14 0.339561 0.250000 0.951427
O O15 0.249672 0.391368 0.981594
O O16 0.396450 0.356230 0.027133
O O17 0.850851 0.250000 0.394223
O O18 0.000000 0.337467 0.388983
O O19 0.615780 0.500000 0.500000
#
# Coordination Sequence:
#
# PCOD9540979 Si02
#       7
#    16  16  16  16  16  16  16
#     4  11  23  39  59  86 120 165 221 275 327 385
#     4  11  24  43  70 106 145 182 225 282 350 423
#     4  12  27  46  69  93 128 180 235 294 346 404
#     4  11  24  44  71 103 139 178 222 279 351 425
#     4  11  20  32  54  87 131 172 205 248 311 389
#     4   9  18  32  52  81 117 158 202 250 307 375
#     4  12  21  35  65 106 146 181 212 265 339 425
#
# _framework density 10.370369999999999
#
# number of rings (size 3 to 8) (size 9 to 14) (size 15 to 20)
#    0.000    1.000    2.857    4.714    0.000    7.143 
#    0.000    0.000    0.000    1.714    0.000    0.000 
#    0.000    0.000    0.000    0.000    0.000    0.000 
#
# Total GULP energy -311881.982142 kJ/mol
# GULP energy per Si atom -5569.321110 kJ/mol
# Density = 1.034677 g / cm^3
# Si number density = 10.370370 Si / 1000 Ang^3
#
#
#
# Elastic Constant Matrix: (Units=GPa)
#
#
# Indices 1 2 3 4 5 6 
#
# 1 128.4254 18.3347 20.8961 0.0000 0.0000 0.0000
# 2 18.3347 78.7448 -6.6032 0.0000 0.0000 0.0000
# 3 20.8961 -6.6032 36.6167 0.0000 0.0000 0.0000
# 4 0.0000 0.0000 0.0000 2.6027 0.0000 0.0000
# 5 0.0000 0.0000 0.0000 0.0000 3.8174 0.0000
# 6 0.0000 0.0000 0.0000 0.0000 0.0000 21.0608
#
#
#
# Elastic Compliance Matrix: (Units=1/GPa)
#
#
# Indices 1 2 3 4 5 6 
#
# 1 0.009074 -0.002586 -0.005645 0.000000 0.000000 0.000000
# 2 -0.002586 0.013631 0.003934 0.000000 0.000000 0.000000
# 3 -0.005645 0.003934 0.031241 0.000000 0.000000 0.000000
# 4 0.000000 0.000000 0.000000 0.384217 0.000000 0.000000
# 5 0.000000 0.000000 0.000000 0.000000 0.261957 0.000000
# 6 0.000000 0.000000 0.000000 0.000000 0.000000 0.047482
#
#
# Mechanical properties :
#
#
# Convention : Reuss Voigt Hill
#
# Bulk Modulus (GPa) = 22.04958 34.33805 28.19381
# Shear Modulus (GPa) = 6.48245 19.57346 13.02795
#
# Velocity S-wave (km/s) = 1.76982 3.07534 2.50898
# Velocity P-wave (km/s) = 3.85103 5.40389 4.69215
#
# Compressibility (1/GPa) = 0.04535233
#
# Stress axis : x y z
#
# Youngs Moduli (GPa) = 110.20115 73.36061 32.00949
#
# Poissons Ratio (x) = 0.18972 0.18069
# Poissons Ratio (y) = 0.28500 -0.12593
# Poissons Ratio (z) = 0.62207 -0.28860
#
# Static dielectric constant tensor:
#      x y z
#    x 1.737790 0.000000 0.000000 
#    y 0.000000 1.822640 0.000000 
#    z 0.000000 0.000000 1.770990 
# 
# From -- ./inp_files/60089.got.cif
#   From: 2010.05.17/outbox.ucp.g08.bks.cvg/sg74_31_cif.got.tgz:60089.got - 2010.06.11 16:37:44.
