data_PCOD9540169
_publ_section_title
;
Structure prediction by ZEFSAII (Michael W. Deem and Ramdas Pophale) SiO2 
 PCOD9540169
Probable space group: I M M A
;
_chemical_formula_sum "Si O2"
_cell_formula_units_Z 112
_cell_length_a 20.696490
_cell_length_b 27.786519
_cell_length_c 11.779542
_cell_angle_alpha 90.000000
_cell_angle_beta 90.000000
_cell_angle_gamma 90.000000
_cell_volume 6774.219212
_symmetry_space_group_name_H-M "I M M A"
_symmetry_group_IT_number 74
_symmetry_cell_setting 'orthorhombic'
loop_
_space_group_symop_operation_xyz
x,y,z
-x,1/2-y,z
x,-y,-z
-x,1/2+y,-z
-x,-y,-z
x,1/2+y,-z
-x,y,z
x,1/2-y,z
1/2+x,1/2+y,1/2+z
1/2-x,-y,1/2+z
1/2+x,1/2-y,1/2-z
1/2-x,y,1/2-z
1/2-x,1/2-y,1/2-z
1/2+x,y,1/2-z
1/2-x,1/2+y,1/2+z
1/2+x,-y,1/2+z
loop_
_atom_site_type_symbol
_atom_site_label
_atom_site_fract_x
_atom_site_fract_y
_atom_site_fract_z
Si Si1 0.305378 0.118235 0.403063
Si Si2 0.651237 0.191867 0.818026
Si Si3 0.804332 0.456688 0.914438
Si Si4 0.842729 0.027740 0.662180
Si Si5 0.841106 0.587619 0.660105
Si Si6 0.707968 0.192963 0.577645
Si Si7 0.923419 0.888677 0.450734
O O1 0.325009 0.089375 0.515453
O O2 0.232193 0.100928 0.376088
O O3 0.345300 0.104904 0.290948
O O4 0.305445 0.171516 0.453612
O O5 0.640073 0.250000 0.827872
O O6 0.662447 0.179687 0.684991
O O7 0.719316 0.180263 0.881153
O O8 0.599527 0.157099 0.876371
O O9 0.839807 0.462700 0.796101
O O10 0.727667 0.457369 0.886723
O O11 0.816587 0.500000 0.000000
O O12 0.894924 0.062307 0.605092
O O13 0.849571 0.970174 0.648313
O O14 0.890068 0.613086 0.574553
O O15 0.705314 0.250000 0.571813
O O16 0.000000 0.890676 0.458604
#
# Coordination Sequence:
#
# PCOD9540169 Si02
#       7
#    16  16  16  16  16  16  16
#     4  11  18  31  52  79 113 137 170 221 272 328
#     4   9  18  36  58  84 111 135 169 219 276 325
#     4  11  16  29  53  81 103 132 168 223 278 323
#     4  11  20  32  51  78 111 137 180 222 269 322
#     4  11  21  32  48  74 109 150 176 211 265 319
#     4   9  17  32  59  88 113 134 159 216 290 331
#     4  12  24  37  53  75 106 148 190 223 258 310
#
# _framework density 16.533270000000002
#
# number of rings (size 3 to 8) (size 9 to 14) (size 15 to 20)
#    0.000    1.429    5.714    3.000    0.000    3.714 
#    0.000    2.143    0.000    3.857    0.000    0.000 
#    0.000    0.000    0.000    0.000    0.000    0.000 
#
# Total GULP energy -312213.382184 kJ/mol
# GULP energy per Si atom -5575.238968 kJ/mol
# Density = 1.649564 g / cm^3
# Si number density = 16.533270 Si / 1000 Ang^3
#
#
#
# Elastic Constant Matrix: (Units=GPa)
#
#
# Indices 1 2 3 4 5 6 
#
# 1 74.1462 30.6700 39.1066 0.0000 0.0000 0.0000
# 2 30.6700 55.0720 44.6669 0.0000 0.0000 0.0000
# 3 39.1066 44.6669 124.3219 0.0000 0.0000 0.0000
# 4 0.0000 0.0000 0.0000 48.4878 0.0000 0.0000
# 5 0.0000 0.0000 0.0000 0.0000 11.9529 0.0000
# 6 0.0000 0.0000 0.0000 0.0000 0.0000 5.1407
#
#
#
# Elastic Compliance Matrix: (Units=1/GPa)
#
#
# Indices 1 2 3 4 5 6 
#
# 1 0.018259 -0.007776 -0.002950 0.000000 0.000000 0.000000
# 2 -0.007776 0.028937 -0.007951 0.000000 0.000000 0.000000
# 3 -0.002950 -0.007951 0.011828 0.000000 0.000000 0.000000
# 4 0.000000 0.000000 0.000000 0.020624 0.000000 0.000000
# 5 0.000000 0.000000 0.000000 0.000000 0.083662 0.000000
# 6 0.000000 0.000000 0.000000 0.000000 0.000000 0.194525
#
#
# Mechanical properties :
#
#
# Convention : Reuss Voigt Hill
#
# Bulk Modulus (GPa) = 46.14412 53.60304 49.87358
# Shear Modulus (GPa) = 12.42508 22.38939 17.40724
#
# Velocity S-wave (km/s) = 2.74436 3.68394 3.24830
# Velocity P-wave (km/s) = 6.16543 7.11245 6.65580
#
# Compressibility (1/GPa) = 0.02167123
#
# Stress axis : x y z
#
# Youngs Moduli (GPa) = 54.76687 34.55767 84.54512
#
# Poissons Ratio (x) = 0.26873 0.24938
# Poissons Ratio (y) = 0.42588 0.67218
# Poissons Ratio (z) = 0.16155 0.27475
#
# Static dielectric constant tensor:
#      x y z
#    x 1.524660 0.000000 0.000000 
#    y 0.000000 1.708190 0.000000 
#    z 0.000000 0.000000 1.579420 
# 
# From -- ./inp_files/24351.got.cif
#   From: 2010.05.17/outbox.cif.g08.bks.cpg/sg74_13_cif.got.tgz:24351.got - 2010.06.03 17:57:02.
