data_PCOD9540825
_publ_section_title
;
Structure prediction by ZEFSAII (Michael W. Deem and Ramdas Pophale) SiO2 
 PCOD9540825
Probable space group: I M M A
;
_chemical_formula_sum "Si O2"
_cell_formula_units_Z 52
_cell_length_a 21.000000
_cell_length_b 9.000000
_cell_length_c 30.000000
_cell_angle_alpha 90.000000
_cell_angle_beta 90.000000
_cell_angle_gamma 90.000000
_cell_volume 5670.000000
_symmetry_space_group_name_H-M "I M M A"
_symmetry_group_IT_number 74
_symmetry_cell_setting 'orthorhombic'
loop_
_space_group_symop_operation_xyz
x,y,z
-x,1/2-y,z
x,-y,-z
-x,1/2+y,-z
-x,-y,-z
x,1/2+y,-z
-x,y,z
x,1/2-y,z
1/2+x,1/2+y,1/2+z
1/2-x,-y,1/2+z
1/2+x,1/2-y,1/2-z
1/2-x,y,1/2-z
1/2-x,1/2-y,1/2-z
1/2+x,y,1/2-z
1/2-x,1/2+y,1/2+z
1/2+x,-y,1/2+z
loop_
_atom_site_type_symbol
_atom_site_label
_atom_site_fract_x
_atom_site_fract_y
_atom_site_fract_z
Si Si1 0.771039 0.928651 0.120896
Si Si2 0.075756 0.414645 0.457539
Si Si3 0.639681 0.428143 0.450986
Si Si4 0.000000 0.572082 0.951186
Si Si5 0.309040 0.931193 0.281022
Si Si6 0.071396 0.431484 0.725282
Si Si7 0.878275 0.927612 0.370985
O O1 0.777798 0.750000 0.116155
O O2 0.800586 0.975955 0.168127
O O3 0.696245 0.961718 0.124524
O O4 0.806096 0.008377 0.080672
O O5 0.103277 0.500000 0.500000
O O6 0.103096 0.250000 0.454553
O O7 0.086778 0.501840 0.412480
O O8 0.000000 0.402679 0.464192
O O9 0.644247 0.500000 0.500000
O O10 0.643990 0.250000 0.454549
O O11 0.569017 0.468057 0.431450
O O12 0.000000 0.750000 0.955802
O O13 0.000000 0.500000 0.000000
O O14 0.307709 0.750000 0.280385
O O15 0.250000 0.979030 0.250000
O O16 0.375209 0.980736 0.259848
O O17 0.071661 0.250000 0.725405
O O18 0.093219 0.478322 0.675994
O O19 0.000000 0.480898 0.735064
O O20 0.885335 0.750000 0.372521
#
# Coordination Sequence:
#
# PCOD9540825 Si02
#       7
#    16  16  16   8  16  16  16
#     4  10  20  33  52  79 109 141 177 214 259 312
#     4  10  21  36  53  74 102 135 171 215 264 313
#     4  10  20  36  57  79 106 138 175 218 264 315
#     4   8  16  32  54  76  98 132 172 212 258 310
#     4   9  15  29  50  72 104 142 175 213 261 310
#     4   9  16  27  48  77 104 133 175 222 262 305
#     4  10  19  32  52  76 103 138 177 217 260 309
#
# _framework density 9.1710759999999993
#
# number of rings (size 3 to 8) (size 9 to 14) (size 15 to 20)
#    0.000    2.462    1.538    1.385    0.000    3.385 
#    1.385    0.000    0.000    1.385    0.000    0.000 
#    0.000    0.000    0.000    0.000    0.000    0.000 
#
# Total GULP energy -289785.938913 kJ/mol
# GULP energy per Si atom -5572.806518 kJ/mol
# Density = 0.915020 g / cm^3
# Si number density = 9.171076 Si / 1000 Ang^3
#
#
#
# Elastic Constant Matrix: (Units=GPa)
#
#
# Indices 1 2 3 4 5 6 
#
# 1 86.6860 43.4350 37.9668 0.0000 0.0000 0.0000
# 2 43.4350 -6.1790 19.2668 0.0000 0.0000 0.0000
# 3 37.9668 19.2668 78.5877 0.0000 0.0000 0.0000
# 4 0.0000 0.0000 0.0000 7.7176 0.0000 0.0000
# 5 0.0000 0.0000 0.0000 0.0000 68.7409 0.0000
# 6 0.0000 0.0000 0.0000 0.0000 0.0000 6.9720
#
#
#
# Elastic Compliance Matrix: (Units=1/GPa)
#
#
# Indices 1 2 3 4 5 6 
#
# 1 0.005709 0.017870 -0.007139 0.000000 0.000000 0.000000
# 2 0.017870 -0.035786 0.000140 0.000000 0.000000 0.000000
# 3 -0.007139 0.000140 0.016139 0.000000 0.000000 0.000000
# 4 0.000000 0.000000 0.000000 0.129574 0.000000 0.000000
# 5 0.000000 0.000000 0.000000 0.000000 0.014547 0.000000
# 6 0.000000 0.000000 0.000000 0.000000 0.000000 0.143431
#
#
# Mechanical properties :
#
#
# Convention : Reuss Voigt Hill
#
# Bulk Modulus (GPa) = 128.14353 40.04800 84.09577
# Shear Modulus (GPa) = 19.64845 20.58116 20.11481
#
# Velocity S-wave (km/s) = 3.27650 3.35336 3.31515
# Velocity P-wave (km/s) = 9.18305 6.07245 7.78470
#
# Compressibility (1/GPa) = 0.00780375
#
# Stress axis : x y z
#
# Youngs Moduli (GPa) = 175.16824 -27.94353 61.96101
#
# Poissons Ratio (x) = 0.49934 0.44234
# Poissons Ratio (y) = -3.13021 -0.00870
# Poissons Ratio (z) = 1.25053 0.00392
#
# Static dielectric constant tensor:
#      x y z
#    x 1.656250 0.000000 0.000000 
#    y 0.000000 1.634310 0.000000 
#    z 0.000000 0.000000 1.595580 
# 
# From -- ./inp_files/73354.got.cif
#   From: 2010.05.17/outbox.ucp.g08.bks.cvg/sg74_37_cif.got.tgz:73354.got - 2010.06.11 16:37:44.
