data_PCOD9540998
_publ_section_title
;
Structure prediction by ZEFSAII (Michael W. Deem and Ramdas Pophale) SiO2 
 PCOD9540998
Probable space group: P 4
;
_chemical_formula_sum "Si O2"
_cell_formula_units_Z 24
_cell_length_a 11.328982
_cell_length_b 11.328982
_cell_length_c 9.932861
_cell_angle_alpha 90.000000
_cell_angle_beta 90.000000
_cell_angle_gamma 90.000000
_cell_volume 1274.841321
_symmetry_space_group_name_H-M "P 4"
_symmetry_group_IT_number 75
_symmetry_cell_setting 'tetragonal'
loop_
_space_group_symop_operation_xyz
x,y,z
-y,x,z
-x,-y,z
y,-x,z
loop_
_atom_site_type_symbol
_atom_site_label
_atom_site_fract_x
_atom_site_fract_y
_atom_site_fract_z
Si Si1 0.131433 0.506099 0.648990
Si Si2 0.299953 0.179039 0.830708
Si Si3 0.692332 0.555197 0.424160
Si Si4 0.319230 0.575988 0.049534
Si Si5 0.088472 0.339408 0.904389
Si Si6 0.131380 0.468407 0.189636
O O1 0.164212 0.641862 0.683629
O O2 0.233417 0.445657 0.562324
O O3 0.116223 0.438724 0.791777
O O4 0.000000 0.500000 0.585821
O O5 0.384841 0.273477 0.904883
O O6 0.171293 0.231533 0.858637
O O7 0.309151 0.049045 0.894126
O O8 0.578342 0.639257 0.412857
O O9 0.788275 0.582676 0.308641
O O10 0.355382 0.440022 0.070254
O O11 0.205080 0.585399 0.143898
O O12 0.115756 0.389714 0.053394
O O13 0.000000 0.500000 0.234836
#
# Coordination Sequence:
#
# PCOD9540998 Si02
#       6
#     4   4   4   4   4   4
#     4  10  20  39  60  84 111 153 193 237 294 353
#     4  11  20  37  58  86 118 152 199 241 285 346
#     4  11  25  39  55  83 120 149 185 241 299 354
#     4  11  20  31  54  86 114 144 183 233 285 339
#     4  11  22  36  62  85 116 156 198 243 288 346
#     4  12  21  37  56  83 113 154 193 231 282 347
#
# _framework density 18.825870999999999
#
# number of rings (size 3 to 8) (size 9 to 14) (size 15 to 20)
#    0.000    1.000    5.000    3.000    0.000    1.667 
#    0.000    1.667    0.000    0.000    0.000    0.000 
#    0.000   10.667    0.000    0.000    0.000    0.000 
#
# Total GULP energy -133728.151685 kJ/mol
# GULP energy per Si atom -5572.006320 kJ/mol
# Density = 1.878302 g / cm^3
# Si number density = 18.825871 Si / 1000 Ang^3
#
#
#
# Elastic Constant Matrix: (Units=GPa)
#
#
# Indices 1 2 3 4 5 6 
#
# 1 110.5529 42.2012 29.4188 0.0000 0.0000 2.0666
# 2 42.2012 110.5529 29.4188 0.0000 0.0000 -2.0666
# 3 29.4188 29.4188 73.2724 0.0000 0.0000 0.0000
# 4 0.0000 0.0000 0.0000 23.0900 0.0000 0.0000
# 5 0.0000 0.0000 0.0000 0.0000 23.0900 0.0000
# 6 2.0666 -2.0666 0.0000 0.0000 0.0000 34.9043
#
#
#
# Elastic Compliance Matrix: (Units=1/GPa)
#
#
# Indices 1 2 3 4 5 6 
#
# 1 0.011213 -0.003469 -0.003109 0.000000 0.000000 -0.000869
# 2 -0.003469 0.011213 -0.003109 0.000000 0.000000 0.000869
# 3 -0.003109 -0.003109 0.016144 0.000000 0.000000 0.000000
# 4 0.000000 0.000000 0.000000 0.043309 0.000000 0.000000
# 5 0.000000 0.000000 0.000000 0.000000 0.043309 0.000000
# 6 -0.000869 0.000869 0.000000 0.000000 0.000000 0.028753
#
#
# Mechanical properties :
#
#
# Convention : Reuss Voigt Hill
#
# Bulk Modulus (GPa) = 52.09522 55.16175 53.62848
# Shear Modulus (GPa) = 27.82171 29.10615 28.46393
#
# Velocity S-wave (km/s) = 3.84844 3.93628 3.89261
# Velocity P-wave (km/s) = 6.89054 7.07274 6.98224
#
# Compressibility (1/GPa) = 0.01919562
#
# Stress axis : x y z
#
# Youngs Moduli (GPa) = 89.17878 89.17878 61.94097
#
# Poissons Ratio (x) = 0.30939 0.19259
# Poissons Ratio (y) = 0.30939 0.19259
# Poissons Ratio (z) = 0.27728 0.27728
#
# Static dielectric constant tensor:
#      x y z
#    x 1.694160 0.000000 0.000000 
#    y 0.000000 1.694160 0.000000 
#    z 0.000000 0.000000 1.710930 
# 
# From -- ./inp_files/342.got.cif
#   From: 2010.05.17/outbox.cif.g08.bks.cpg/sg75_cif.got.tgz:342.got - 2010.06.03 18:42:43.
