data_PCOD9540976
_publ_section_title
;
Structure prediction by ZEFSAII (Michael W. Deem and Ramdas Pophale) SiO2 
 PCOD9540976
Probable space group: I M M A
;
_chemical_formula_sum "Si O2"
_cell_formula_units_Z 48
_cell_length_a 21.000000
_cell_length_b 15.000000
_cell_length_c 15.000000
_cell_angle_alpha 90.000000
_cell_angle_beta 90.000000
_cell_angle_gamma 90.000000
_cell_volume 4725.000000
_symmetry_space_group_name_H-M "I M M A"
_symmetry_group_IT_number 74
_symmetry_cell_setting 'orthorhombic'
loop_
_space_group_symop_operation_xyz
x,y,z
-x,1/2-y,z
x,-y,-z
-x,1/2+y,-z
-x,-y,-z
x,1/2+y,-z
-x,y,z
x,1/2-y,z
1/2+x,1/2+y,1/2+z
1/2-x,-y,1/2+z
1/2+x,1/2-y,1/2-z
1/2-x,y,1/2-z
1/2-x,1/2-y,1/2-z
1/2+x,y,1/2-z
1/2-x,1/2+y,1/2+z
1/2+x,-y,1/2+z
loop_
_atom_site_type_symbol
_atom_site_label
_atom_site_fract_x
_atom_site_fract_y
_atom_site_fract_z
Si Si1 0.817279 0.108822 0.217023
Si Si2 0.072867 0.250000 0.245774
Si Si3 0.573809 0.750000 0.956951
Si Si4 0.675638 0.409431 0.767981
Si Si5 0.924991 0.642859 0.114799
Si Si6 0.186149 0.643343 0.978766
Si Si7 0.830813 0.102726 0.530902
O O1 0.750000 0.150783 0.250000
O O2 0.881182 0.166763 0.223569
O O3 0.810340 0.089486 0.112750
O O4 0.823010 0.016798 0.268720
O O5 0.066545 0.250000 0.351314
O O6 0.000000 0.250000 0.207652
O O7 0.500000 0.750000 0.993604
O O8 0.618507 0.834762 0.980564
O O9 0.750000 0.380832 0.750000
O O10 0.620933 0.381238 0.698333
O O11 0.655670 0.380660 0.865588
O O12 0.929340 0.750000 0.112113
O O13 0.000000 0.610456 0.115044
O O14 0.877498 0.617329 0.032967
O O15 0.181399 0.750000 0.959759
O O16 0.255815 0.628190 0.021049
O O17 0.837653 0.000000 0.500000
#
# Coordination Sequence:
#
# PCOD9540976 Si02
#       7
#    16   8   8  16  16  16  16
#     4  11  23  40  65  98 128 165 217 270 330 389
#     4  11  23  41  63  91 131 168 211 268 330 395
#     4  11  26  45  66  97 132 175 224 276 345 404
#     4  11  23  41  65  95 130 169 220 276 324 390
#     4  10  24  43  64  93 134 178 217 266 328 395
#     4  11  22  40  68  99 132 170 219 277 327 398
#     4  12  24  42  70  99 133 173 225 281 339 397
#
# _framework density 10.15873
#
# number of rings (size 3 to 8) (size 9 to 14) (size 15 to 20)
#    0.000    1.000    3.333    4.250    1.167    2.667 
#    0.000    0.833    0.000    0.000    0.000    0.000 
#    0.000    0.000    0.000    0.000    0.000    0.000 
#
# Total GULP energy -267743.569769 kJ/mol
# GULP energy per Si atom -5577.991037 kJ/mol
# Density = 1.013561 g / cm^3
# Si number density = 10.158730 Si / 1000 Ang^3
#
#
#
# Elastic Constant Matrix: (Units=GPa)
#
#
# Indices 1 2 3 4 5 6 
#
# 1 207.4722 26.4218 35.4631 0.0000 0.0000 0.0000
# 2 26.4218 50.6683 -8.0651 0.0000 0.0000 0.0000
# 3 35.4631 -8.0651 81.4548 0.0000 0.0000 0.0000
# 4 0.0000 0.0000 0.0000 7.4746 0.0000 0.0000
# 5 0.0000 0.0000 0.0000 0.0000 35.5419 0.0000
# 6 0.0000 0.0000 0.0000 0.0000 0.0000 -335.0802
#
#
#
# Elastic Compliance Matrix: (Units=1/GPa)
#
#
# Indices 1 2 3 4 5 6 
#
# 1 0.005745 -0.003448 -0.002843 0.000000 0.000000 0.000000
# 2 -0.003448 0.022122 0.003692 0.000000 0.000000 0.000000
# 3 -0.002843 0.003692 0.013880 0.000000 0.000000 0.000000
# 4 0.000000 0.000000 0.000000 0.133786 0.000000 0.000000
# 5 0.000000 0.000000 0.000000 0.000000 0.028136 0.000000
# 6 0.000000 0.000000 0.000000 0.000000 0.000000 -0.002984
#
#
# Mechanical properties :
#
#
# Convention : Reuss Voigt Hill
#
# Bulk Modulus (GPa) = 27.36105 49.69276 38.52690
# Shear Modulus (GPa) = 22.92886 -39.36105 -8.21609
#
# Velocity S-wave (km/s) = 3.36300 -4.40625 -2.01312
# Velocity P-wave (km/s) = 5.34563 1.17282 3.68783
#
# Compressibility (1/GPa) = 0.03654831
#
# Stress axis : x y z
#
# Youngs Moduli (GPa) = 174.06599 45.20394 72.04683
#
# Poissons Ratio (x) = 0.15587 0.20480
# Poissons Ratio (y) = 0.60022 -0.26597
# Poissons Ratio (z) = 0.49480 -0.16688
#
# Static dielectric constant tensor:
#      x y z
#    x 1.716190 0.000000 0.000000 
#    y 0.000000 1.742400 0.000000 
#    z 0.000000 0.000000 1.745800 
# 
# From -- ./inp_files/35334.got.cif
#   From: 2010.05.17/outbox.ucp.g08.bks.cvg/sg74_18_cif.got.tgz:35334.got - 2010.06.11 16:37:44.
