data_PCOD9540987
_publ_section_title
;
Structure prediction by ZEFSAII (Michael W. Deem and Ramdas Pophale) SiO2 
 PCOD9540987
Probable space group: I M M A
;
_chemical_formula_sum "Si O2"
_cell_formula_units_Z 36
_cell_length_a 15.000000
_cell_length_b 27.000000
_cell_length_c 9.000000
_cell_angle_alpha 90.000000
_cell_angle_beta 90.000000
_cell_angle_gamma 90.000000
_cell_volume 3645.000000
_symmetry_space_group_name_H-M "I M M A"
_symmetry_group_IT_number 74
_symmetry_cell_setting 'orthorhombic'
loop_
_space_group_symop_operation_xyz
x,y,z
-x,1/2-y,z
x,-y,-z
-x,1/2+y,-z
-x,-y,-z
x,1/2+y,-z
-x,y,z
x,1/2-y,z
1/2+x,1/2+y,1/2+z
1/2-x,-y,1/2+z
1/2+x,1/2-y,1/2-z
1/2-x,y,1/2-z
1/2-x,1/2-y,1/2-z
1/2+x,y,1/2-z
1/2-x,1/2+y,1/2+z
1/2+x,-y,1/2+z
loop_
_atom_site_type_symbol
_atom_site_label
_atom_site_fract_x
_atom_site_fract_y
_atom_site_fract_z
Si Si1 0.324789 0.136476 0.378739
Si Si2 0.500000 0.019402 0.720697
Si Si3 0.303128 0.955620 0.403730
Si Si4 0.000000 0.401309 0.296704
Si Si5 0.500000 0.372906 0.857697
Si Si6 0.150264 0.308245 0.817303
O O1 0.250000 0.147331 0.250000
O O2 0.297073 0.091381 0.488091
O O3 0.412914 0.118192 0.291492
O O4 0.346586 0.177843 0.505913
O O5 0.406101 0.028890 0.633454
O O6 0.500000 0.068211 0.824292
O O7 0.500000 0.962694 0.786370
O O8 0.250000 0.948402 0.250000
O O9 0.261779 0.000000 0.500000
O O10 0.000000 0.375676 0.461517
O O11 0.416050 0.344741 0.776713
O O12 0.124549 0.250000 0.800128
O O13 0.250000 0.313900 0.750000
#
# Coordination Sequence:
#
# PCOD9540987 Si02
#       6
#    16   8  16   8   8  16
#     4  12  25  44  69 100 140 179 228 284 347 406
#     4  12  25  43  68  94 145 183 228 268 334 404
#     4  12  25  42  66  96 140 189 234 280 333 407
#     4  12  27  43  66 103 143 182 225 277 336 410
#     4  12  25  45  71 102 134 182 233 278 336 410
#     4  11  25  48  74  99 131 176 229 288 352 411
#
# _framework density 9.8765429999999999
#
# number of rings (size 3 to 8) (size 9 to 14) (size 15 to 20)
#    0.000    0.222    4.444    5.000    3.111    0.444 
#    0.000    2.222    0.000    0.000    0.000    0.000 
#    0.000    0.000    0.000    0.000    0.000    0.000 
#
# Total GULP energy -201097.649180 kJ/mol
# GULP energy per Si atom -5586.045811 kJ/mol
# Density = 0.985406 g / cm^3
# Si number density = 9.876543 Si / 1000 Ang^3
#
#
#
# Elastic Constant Matrix: (Units=GPa)
#
#
# Indices 1 2 3 4 5 6 
#
# 1 104.7137 22.7712 51.2002 0.0002 -0.0003 0.0001
# 2 22.7712 110.8547 47.3700 0.0001 -0.0001 0.0000
# 3 51.2002 47.3700 189.0029 0.0009 -0.0010 -0.0004
# 4 0.0002 0.0001 0.0009 39.5500 -0.0001 -0.0001
# 5 -0.0003 -0.0001 -0.0010 -0.0001 36.8797 0.0000
# 6 0.0001 0.0000 -0.0004 -0.0001 0.0000 24.5160
#
#
#
# Elastic Compliance Matrix: (Units=1/GPa)
#
#
# Indices 1 2 3 4 5 6 
#
# 1 0.011130 -0.001118 -0.002735 0.000000 0.000000 0.000000
# 2 -0.001118 0.010215 -0.002257 0.000000 0.000000 0.000000
# 3 -0.002735 -0.002257 0.006598 0.000000 0.000000 0.000000
# 4 0.000000 0.000000 0.000000 0.025284 0.000000 0.000000
# 5 0.000000 0.000000 0.000000 0.000000 0.027115 0.000000
# 6 0.000000 0.000000 0.000000 0.000000 0.000000 0.040790
#
#
# Mechanical properties :
#
#
# Convention : Reuss Voigt Hill
#
# Bulk Modulus (GPa) = 63.60231 71.91715 67.75973
# Shear Modulus (GPa) = 36.07681 39.07113 37.57397
#
# Velocity S-wave (km/s) = 4.27826 4.45227 4.36613
# Velocity P-wave (km/s) = 7.52817 7.93205 7.73274
#
# Compressibility (1/GPa) = 0.01572270
#
# Stress axis : x y z
#
# Youngs Moduli (GPa) = 89.84580 97.89496 151.56980
#
# Poissons Ratio (x) = 0.10941 0.41455
# Poissons Ratio (y) = 0.10041 0.34216
# Poissons Ratio (z) = 0.24573 0.22099
#
# Static dielectric constant tensor:
#      x y z
#    x 1.717300 0.000000 0.000000 
#    y 0.000000 1.728300 0.000000 
#    z 0.000000 0.000000 1.695390 
# 
# From -- ./inp_files/9216.got.cif
#   From: 2010.05.17/outbox.ucp.g08.bks.cvg/sg74_5_cif.got.tgz:9216.got - 2010.06.11 16:37:44.
