data_PCOD9540479
_publ_section_title
;
Structure prediction by ZEFSAII (Michael W. Deem and Ramdas Pophale) SiO2 
 PCOD9540479
Probable space group: I M M A
;
_chemical_formula_sum "Si O2"
_cell_formula_units_Z 112
_cell_length_a 29.486631
_cell_length_b 15.257802
_cell_length_c 11.824724
_cell_angle_alpha 90.000000
_cell_angle_beta 90.000000
_cell_angle_gamma 90.000000
_cell_volume 5319.957251
_symmetry_space_group_name_H-M "I M M A"
_symmetry_group_IT_number 74
_symmetry_cell_setting 'orthorhombic'
loop_
_space_group_symop_operation_xyz
x,y,z
-x,1/2-y,z
x,-y,-z
-x,1/2+y,-z
-x,-y,-z
x,1/2+y,-z
-x,y,z
x,1/2-y,z
1/2+x,1/2+y,1/2+z
1/2-x,-y,1/2+z
1/2+x,1/2-y,1/2-z
1/2-x,y,1/2-z
1/2-x,1/2-y,1/2-z
1/2+x,y,1/2-z
1/2-x,1/2+y,1/2+z
1/2+x,-y,1/2+z
loop_
_atom_site_type_symbol
_atom_site_label
_atom_site_fract_x
_atom_site_fract_y
_atom_site_fract_z
Si Si1 0.051707 0.144121 0.507361
Si Si2 0.206121 0.098881 0.681420
Si Si3 0.686123 0.596722 0.730678
Si Si4 0.083349 0.353405 0.257853
Si Si5 0.949906 0.982550 0.132029
Si Si6 0.394151 0.649629 0.228751
Si Si7 0.758613 0.349647 0.442446
O O1 0.049599 0.250000 0.513097
O O2 0.076480 0.124615 0.390102
O O3 0.080429 0.116413 0.615460
O O4 0.000000 0.111097 0.508219
O O5 0.250000 0.131822 0.750000
O O6 0.159376 0.148845 0.704279
O O7 0.220096 0.101019 0.549594
O O8 0.194799 0.002122 0.728215
O O9 0.634550 0.625403 0.721411
O O10 0.713232 0.611319 0.614043
O O11 0.707673 0.650627 0.834970
O O12 0.072976 0.250000 0.241439
O O13 0.053354 0.422967 0.191276
O O14 0.911148 0.917227 0.176176
O O15 0.000000 0.944029 0.155885
O O16 0.945213 0.000000 0.000000
O O17 0.407961 0.750000 0.253257
O O18 0.750259 0.250000 0.479184
#
# Coordination Sequence:
#
# PCOD9540479 Si02
#       7
#    16  16  16  16  16  16  16
#     4   9  19  37  66 103 136 166 210 272 344 418
#     4  12  25  43  67  96 134 175 226 287 344 403
#     4  11  22  41  67  93 129 180 225 269 336 411
#     4  11  22  41  69 101 136 174 222 280 344 411
#     4  11  26  46  67  96 135 180 232 282 333 410
#     4  11  24  45  71  99 134 178 225 282 353 421
#     4  11  23  40  64  95 130 172 225 278 336 405
#
# _framework density 21.052802
#
# number of rings (size 3 to 8) (size 9 to 14) (size 15 to 20)
#    0.000    1.143    2.857    4.286    0.000    6.286 
#    0.000    2.857    0.000    0.000    0.000    0.000 
#    0.000    0.000    0.000    0.000    0.000    0.000 
#
# Total GULP energy -312952.842382 kJ/mol
# GULP energy per Si atom -5588.443614 kJ/mol
# Density = 2.100488 g / cm^3
# Si number density = 21.052802 Si / 1000 Ang^3
#
#
#
# Elastic Constant Matrix: (Units=GPa)
#
#
# Indices 1 2 3 4 5 6 
#
# 1 125.1508 14.9293 36.4315 0.0000 0.0000 0.0000
# 2 14.9293 104.7864 28.8545 0.0000 0.0000 0.0000
# 3 36.4315 28.8545 80.9212 0.0000 0.0000 0.0000
# 4 0.0000 0.0000 0.0000 15.6979 0.0000 0.0000
# 5 0.0000 0.0000 0.0000 0.0000 30.5921 0.0000
# 6 0.0000 0.0000 0.0000 0.0000 0.0000 16.5398
#
#
#
# Elastic Compliance Matrix: (Units=1/GPa)
#
#
# Indices 1 2 3 4 5 6 
#
# 1 0.009199 -0.000189 -0.004074 0.000000 0.000000 0.000000
# 2 -0.000189 0.010586 -0.003690 0.000000 0.000000 0.000000
# 3 -0.004074 -0.003690 0.015508 0.000000 0.000000 0.000000
# 4 0.000000 0.000000 0.000000 0.063703 0.000000 0.000000
# 5 0.000000 0.000000 0.000000 0.000000 0.032688 0.000000
# 6 0.000000 0.000000 0.000000 0.000000 0.000000 0.060460
#
#
# Mechanical properties :
#
#
# Convention : Reuss Voigt Hill
#
# Bulk Modulus (GPa) = 51.58010 52.36546 51.97278
# Shear Modulus (GPa) = 23.30876 27.94215 25.62545
#
# Velocity S-wave (km/s) = 3.33101 3.64708 3.49262
# Velocity P-wave (km/s) = 6.27277 6.53164 6.40352
#
# Compressibility (1/GPa) = 0.01938732
#
# Stress axis : x y z
#
# Youngs Moduli (GPa) = 108.70917 94.46306 64.48447
#
# Poissons Ratio (x) = 0.01783 0.26272
# Poissons Ratio (y) = 0.02052 0.23793
# Poissons Ratio (z) = 0.44289 0.34855
#
# Static dielectric constant tensor:
#      x y z
#    x 1.760730 0.000000 0.000000 
#    y 0.000000 1.789260 0.000000 
#    z 0.000000 0.000000 1.721400 
# 
# From -- ./inp_files/27217.got.cif
#   From: 2010.05.17/outbox.cif.g08.bks.cpg/sg74_14_cif.got.tgz:27217.got - 2010.06.03 17:57:02.
