data_PCOD9540382
_publ_section_title
;
Structure prediction by ZEFSAII (Michael W. Deem and Ramdas Pophale) SiO2 
 PCOD9540382
Probable space group: I M M A
;
_chemical_formula_sum "Si O2"
_cell_formula_units_Z 64
_cell_length_a 14.344231
_cell_length_b 27.672943
_cell_length_c 8.933694
_cell_angle_alpha 90.000000
_cell_angle_beta 90.000000
_cell_angle_gamma 90.000000
_cell_volume 3546.203808
_symmetry_space_group_name_H-M "I M M A"
_symmetry_group_IT_number 74
_symmetry_cell_setting 'orthorhombic'
loop_
_space_group_symop_operation_xyz
x,y,z
-x,1/2-y,z
x,-y,-z
-x,1/2+y,-z
-x,-y,-z
x,1/2+y,-z
-x,y,z
x,1/2-y,z
1/2+x,1/2+y,1/2+z
1/2-x,-y,1/2+z
1/2+x,1/2-y,1/2-z
1/2-x,y,1/2-z
1/2-x,1/2-y,1/2-z
1/2+x,y,1/2-z
1/2-x,1/2+y,1/2+z
1/2+x,-y,1/2+z
loop_
_atom_site_type_symbol
_atom_site_label
_atom_site_fract_x
_atom_site_fract_y
_atom_site_fract_z
Si Si1 0.500000 0.604880 0.317471
Si Si2 0.500000 0.029085 0.155970
Si Si3 0.844417 0.975679 0.159766
Si Si4 0.351533 0.306533 0.206211
Si Si5 0.000000 0.365335 0.470142
Si Si6 0.500000 0.304010 0.469136
O O1 0.409715 0.571745 0.353282
O O2 0.500000 0.653259 0.413550
O O3 0.500000 0.619271 0.142776
O O4 0.500000 0.085474 0.124565
O O5 0.590686 0.012722 0.247491
O O6 0.500000 0.000000 0.000000
O O7 0.750000 0.965633 0.250000
O O8 0.824306 0.000000 0.000000
O O9 0.343021 0.250000 0.161786
O O10 0.250000 0.325678 0.250000
O O11 0.409115 0.335052 0.080359
O O12 0.412846 0.308179 0.356756
O O13 0.500000 0.250000 0.536212
#
# Coordination Sequence:
#
# PCOD9540382 Si02
#       6
#     8   8  16  16   8   8
#     4  11  24  41  58  91 126 149 205 253 293 357
#     4  11  21  42  58  87 126 152 203 247 304 356
#     4  11  25  41  63  86 120 163 201 254 302 361
#     4   9  20  39  62  90 119 154 203 245 292 363
#     4  11  22  35  64  86 118 160 193 249 299 360
#     4   9  20  39  61  87 122 160 195 243 303 356
#
# _framework density 18.047467999999999
#
# number of rings (size 3 to 8) (size 9 to 14) (size 15 to 20)
#    0.000    1.750    2.500    3.375    7.000    4.000 
#    0.000    0.000    0.000    5.250    0.000    0.000 
#    0.000    0.000    0.000    0.000    0.000    0.000 
#
# Total GULP energy -178665.287815 kJ/mol
# GULP energy per Si atom -5583.290244 kJ/mol
# Density = 1.800639 g / cm^3
# Si number density = 18.047468 Si / 1000 Ang^3
#
#
#
# Elastic Constant Matrix: (Units=GPa)
#
#
# Indices 1 2 3 4 5 6 
#
# 1 144.7223 37.5606 32.7667 -0.0011 0.0016 0.0034
# 2 37.5606 107.7177 47.0384 0.0011 -0.0014 -0.0080
# 3 32.7667 47.0384 86.7546 -0.0132 0.0135 0.0582
# 4 -0.0011 0.0011 -0.0132 36.5966 0.0047 0.0260
# 5 0.0016 -0.0014 0.0135 0.0047 3.6399 -0.0288
# 6 0.0034 -0.0080 0.0582 0.0260 -0.0288 -37.1679
#
#
#
# Elastic Compliance Matrix: (Units=1/GPa)
#
#
# Indices 1 2 3 4 5 6 
#
# 1 0.007838 -0.001887 -0.001937 0.000000 0.000003 -0.000002
# 2 -0.001887 0.012618 -0.006129 -0.000003 0.000028 -0.000013
# 3 -0.001937 -0.006129 0.015581 0.000006 -0.000059 0.000026
# 4 0.000000 -0.000003 0.000006 0.027325 -0.000035 0.000019
# 5 0.000003 0.000028 -0.000059 -0.000035 0.274735 -0.000213
# 6 -0.000002 -0.000013 0.000026 0.000019 -0.000213 -0.026905
#
#
# Mechanical properties :
#
#
# Convention : Reuss Voigt Hill
#
# Bulk Modulus (GPa) = 61.99099 63.76955 62.88027
# Shear Modulus (GPa) = 14.85992 15.40230 15.13111
#
# Velocity S-wave (km/s) = 2.87257 2.92453 2.89867
# Velocity P-wave (km/s) = 6.73986 6.84214 6.79119
#
# Compressibility (1/GPa) = 0.01613138
#
# Stress axis : x y z
#
# Youngs Moduli (GPa) = 127.58058 79.25288 64.17927
#
# Poissons Ratio (x) = 0.14957 0.12433
# Poissons Ratio (y) = 0.24077 0.39333
# Poissons Ratio (z) = 0.24715 0.48571
#
# Static dielectric constant tensor:
#      x y z
#    x 1.636620 0.000000 0.000000 
#    y 0.000000 1.624190 0.000000 
#    z 0.000000 0.000000 1.599370 
# 
# From -- ./inp_files/9302.got.cif
#   From: 2010.05.17/outbox.cif.g08.bks.cpg/sg74_5_cif.got.tgz:9302.got - 2010.06.03 17:57:02.
