data_PCOD9540901
_publ_section_title
;
Structure prediction by ZEFSAII (Michael W. Deem and Ramdas Pophale) SiO2 
 PCOD9540901
Probable space group: I M M A
;
_chemical_formula_sum "Si O2"
_cell_formula_units_Z 48
_cell_length_a 27.000000
_cell_length_b 9.000000
_cell_length_c 21.000000
_cell_angle_alpha 90.000000
_cell_angle_beta 90.000000
_cell_angle_gamma 90.000000
_cell_volume 5103.000000
_symmetry_space_group_name_H-M "I M M A"
_symmetry_group_IT_number 74
_symmetry_cell_setting 'orthorhombic'
loop_
_space_group_symop_operation_xyz
x,y,z
-x,1/2-y,z
x,-y,-z
-x,1/2+y,-z
-x,-y,-z
x,1/2+y,-z
-x,y,z
x,1/2-y,z
1/2+x,1/2+y,1/2+z
1/2-x,-y,1/2+z
1/2+x,1/2-y,1/2-z
1/2-x,y,1/2-z
1/2-x,1/2-y,1/2-z
1/2+x,y,1/2-z
1/2-x,1/2+y,1/2+z
1/2+x,-y,1/2+z
loop_
_atom_site_type_symbol
_atom_site_label
_atom_site_fract_x
_atom_site_fract_y
_atom_site_fract_z
Si Si1 0.285592 0.927334 0.807687
Si Si2 0.559615 0.075118 0.933376
Si Si3 0.372975 0.571749 0.433438
Si Si4 0.443393 0.927930 0.318684
Si Si5 0.400866 0.073798 0.194244
Si Si6 0.243484 0.927303 0.066760
O O1 0.278527 0.750000 0.816483
O O2 0.250000 0.976031 0.750000
O O3 0.342918 0.953572 0.791847
O O4 0.272113 0.008705 0.872942
O O5 0.500000 0.057751 0.927354
O O6 0.570803 0.250000 0.934892
O O7 0.584538 0.999573 0.872631
O O8 0.574671 0.000000 0.000000
O O9 0.389058 0.500000 0.500000
O O10 0.377209 0.750000 0.438422
O O11 0.405707 0.521984 0.373699
O O12 0.314932 0.535942 0.424110
O O13 0.500000 0.956809 0.337842
O O14 0.437546 0.750000 0.310648
O O15 0.431746 0.004788 0.251919
O O16 0.409088 0.250000 0.190363
O O17 0.248546 0.750000 0.063067
O O18 0.259401 0.000000 0.000000
#
# Coordination Sequence:
#
# PCOD9540901 Si02
#       6
#    16  16  16  16  16  16
#     4  10  22  39  57  79 109 143 180 225 274 321
#     4  10  21  38  60  84 111 144 180 220 267 319
#     4   9  19  35  55  81 111 143 181 223 268 319
#     4  10  21  37  56  79 110 146 182 223 270 319
#     4  11  23  37  56  82 110 142 181 225 271 321
#     4  10  20  35  57  82 109 143 181 222 268 320
#
# _framework density 9.4062319999999993
#
# number of rings (size 3 to 8) (size 9 to 14) (size 15 to 20)
#    0.000    2.000    0.000    3.000    0.000    7.333 
#    0.000    0.000    0.000    0.000    0.000    0.000 
#    0.000    0.000    0.000    0.000    0.000    0.000 
#
# Total GULP energy -268189.369656 kJ/mol
# GULP energy per Si atom -5587.278534 kJ/mol
# Density = 0.938482 g / cm^3
# Si number density = 9.406232 Si / 1000 Ang^3
#
#
#
# Elastic Constant Matrix: (Units=GPa)
#
#
# Indices 1 2 3 4 5 6 
#
# 1 16.7815 20.8250 -1.4669 0.0000 0.0000 0.0000
# 2 20.8250 21.4562 5.5972 0.0000 0.0000 0.0000
# 3 -1.4669 5.5972 57.3939 0.0000 0.0000 0.0000
# 4 0.0000 0.0000 0.0000 39.7840 0.0000 0.0000
# 5 0.0000 0.0000 0.0000 0.0000 29.7205 0.0000
# 6 0.0000 0.0000 0.0000 0.0000 0.0000 24.0577
#
#
#
# Elastic Compliance Matrix: (Units=1/GPa)
#
#
# Indices 1 2 3 4 5 6 
#
# 1 -0.233544 0.234188 -0.028808 0.000000 0.000000 0.000000
# 2 0.234188 -0.187011 0.024223 0.000000 0.000000 0.000000
# 3 -0.028808 0.024223 0.014325 0.000000 0.000000 0.000000
# 4 0.000000 0.000000 0.000000 0.025136 0.000000 0.000000
# 5 0.000000 0.000000 0.000000 0.000000 0.033647 0.000000
# 6 0.000000 0.000000 0.000000 0.000000 0.000000 0.041567
#
#
# Mechanical properties :
#
#
# Convention : Reuss Voigt Hill
#
# Bulk Modulus (GPa) = 18.87593 16.17138 17.52366
# Shear Modulus (GPa) = -6.68960 23.42419 8.36729
#
# Velocity S-wave (km/s) = -1.88777 3.53248 2.11125
# Velocity P-wave (km/s) = 2.30304 5.02521 3.90875
#
# Compressibility (1/GPa) = 0.05297751
#
# Stress axis : x y z
#
# Youngs Moduli (GPa) = -4.28185 -5.34727 69.80870
#
# Poissons Ratio (x) = 1.25227 2.01103
# Poissons Ratio (y) = 1.00276 -1.69100
# Poissons Ratio (z) = -0.12335 0.12953
#
# Static dielectric constant tensor:
#      x y z
#    x 1.654930 0.000000 0.000000 
#    y 0.000000 1.627800 0.000000 
#    z 0.000000 0.000000 1.605960 
# 
# From -- ./inp_files/49045.got.cif
#   From: 2010.05.17/outbox.ucp.g08.bks.cvg/sg74_25_cif.got.tgz:49045.got - 2010.06.11 16:37:44.
