data_PCOD9540061
_publ_section_title
;
Structure prediction by ZEFSAII (Michael W. Deem and Ramdas Pophale) SiO2 
 PCOD9540061
Probable space group: I M M A
;
_chemical_formula_sum "Si O2"
_cell_formula_units_Z 84
_cell_length_a 14.035740
_cell_length_b 30.850557
_cell_length_c 11.012761
_cell_angle_alpha 90.000000
_cell_angle_beta 90.000000
_cell_angle_gamma 90.000000
_cell_volume 4768.640012
_symmetry_space_group_name_H-M "I M M A"
_symmetry_group_IT_number 74
_symmetry_cell_setting 'orthorhombic'
loop_
_space_group_symop_operation_xyz
x,y,z
-x,1/2-y,z
x,-y,-z
-x,1/2+y,-z
-x,-y,-z
x,1/2+y,-z
-x,y,z
x,1/2-y,z
1/2+x,1/2+y,1/2+z
1/2-x,-y,1/2+z
1/2+x,1/2-y,1/2-z
1/2-x,y,1/2-z
1/2-x,1/2-y,1/2-z
1/2+x,y,1/2-z
1/2-x,1/2+y,1/2+z
1/2+x,-y,1/2+z
loop_
_atom_site_type_symbol
_atom_site_label
_atom_site_fract_x
_atom_site_fract_y
_atom_site_fract_z
Si Si1 0.500000 0.700057 0.528405
Si Si2 0.112637 0.453131 0.557215
Si Si3 0.000000 0.250000 0.503005
Si Si4 0.819840 0.112195 0.350896
Si Si5 0.000000 0.673189 0.697659
Si Si6 0.697884 0.838909 0.455582
Si Si7 0.795601 0.750000 0.382663
Si Si8 0.250000 0.592499 0.250000
O O1 0.500000 0.750000 0.489004
O O2 0.500000 0.697896 0.674427
O O3 0.408603 0.675656 0.478628
O O4 0.136728 0.500000 0.500000
O O5 0.133177 0.420481 0.446387
O O6 0.176223 0.436920 0.671682
O O7 0.000000 0.452623 0.588510
O O8 0.000000 0.292365 0.414079
O O9 0.092316 0.250000 0.589469
O O10 0.750000 0.091266 0.250000
O O11 0.905880 0.142869 0.305970
O O12 0.745382 0.140498 0.426844
O O13 0.756538 0.794953 0.434707
O O14 0.704019 0.874232 0.347807
O O15 0.750000 0.750000 0.250000
#
# Coordination Sequence:
#
# PCOD9540061 Si02
#       8
#     8  16   4  16   8  16   8   8
#     4  12  24  35  58  90 127 170 207 264 308 354
#     4  10  23  43  68  96 124 159 205 256 322 394
#     4  12  26  38  68  84 124 174 222 268 318 370
#     4  11  22  39  64  88 123 161 207 262 310 381
#     4  12  22  38  60  91 120 167 213 258 317 365
#     4  11  23  39  58  87 124 166 214 252 310 364
#     4  12  24  41  56  87 119 167 219 261 304 365
#     4  10  24  43  64  90 126 168 202 261 312 380
#
# _framework density 17.615084
#
# number of rings (size 3 to 8) (size 9 to 14) (size 15 to 20)
#    0.000    0.952    7.143    0.000    2.667    0.762 
#    0.000    2.857    0.000    0.571    0.000    0.000 
#    0.000    0.000    0.000    0.000    0.000    0.000 
#
# Total GULP energy -234179.661800 kJ/mol
# GULP energy per Si atom -5575.706233 kJ/mol
# Density = 1.757499 g / cm^3
# Si number density = 17.615084 Si / 1000 Ang^3
#
#
#
# Elastic Constant Matrix: (Units=GPa)
#
#
# Indices 1 2 3 4 5 6 
#
# 1 158.1823 58.8466 56.9436 0.0001 0.0000 0.0000
# 2 58.8466 97.0566 26.1128 0.0000 -0.0001 0.0000
# 3 56.9436 26.1128 80.1447 0.0015 -0.0003 0.0000
# 4 0.0001 0.0000 0.0015 -67.6448 -0.0004 0.0000
# 5 0.0000 -0.0001 -0.0003 -0.0004 22.3551 0.0000
# 6 0.0000 0.0000 0.0000 0.0000 0.0000 28.6029
#
#
#
# Elastic Compliance Matrix: (Units=1/GPa)
#
#
# Indices 1 2 3 4 5 6 
#
# 1 0.010062 -0.004578 -0.005657 0.000000 0.000000 0.000000
# 2 -0.004578 0.013377 -0.001105 0.000000 0.000000 0.000000
# 3 -0.005657 -0.001105 0.016857 0.000000 0.000000 0.000000
# 4 0.000000 0.000000 0.000000 -0.014783 0.000000 0.000000
# 5 0.000000 0.000000 0.000000 0.000000 0.044733 0.000000
# 6 0.000000 0.000000 0.000000 0.000000 0.000000 0.034961
#
#
# Mechanical properties :
#
#
# Convention : Reuss Voigt Hill
#
# Bulk Modulus (GPa) = 56.77490 68.79886 62.78688
# Shear Modulus (GPa) = 37.38066 9.56134 23.47100
#
# Velocity S-wave (km/s) = 4.61160 2.33232 3.65422
# Velocity P-wave (km/s) = 7.78824 6.81135 7.31612
#
# Compressibility (1/GPa) = 0.01761342
#
# Stress axis : x y z
#
# Youngs Moduli (GPa) = 99.38815 74.75733 59.32245
#
# Poissons Ratio (x) = 0.34227 0.33559
# Poissons Ratio (y) = 0.45504 0.06557
# Poissons Ratio (z) = 0.56225 0.08263
#
# Static dielectric constant tensor:
#      x y z
#    x 1.567150 0.000000 0.000000 
#    y 0.000000 1.569520 0.000000 
#    z 0.000000 0.000000 1.596900 
# 
# From -- ./inp_files/19122.got.cif
#   From: 2010.05.17/outbox.cif.g08.bks.cpg/sg74_10_cif.got.tgz:19122.got - 2010.06.03 17:57:02.
