data_PCOD9540846
_publ_section_title
;
Structure prediction by ZEFSAII (Michael W. Deem and Ramdas Pophale) SiO2 
 PCOD9540846
Probable space group: I M M A
;
_chemical_formula_sum "Si O2"
_cell_formula_units_Z 48
_cell_length_a 24.000000
_cell_length_b 9.000000
_cell_length_c 24.000000
_cell_angle_alpha 90.000000
_cell_angle_beta 90.000000
_cell_angle_gamma 90.000000
_cell_volume 5184.000000
_symmetry_space_group_name_H-M "I M M A"
_symmetry_group_IT_number 74
_symmetry_cell_setting 'orthorhombic'
loop_
_space_group_symop_operation_xyz
x,y,z
-x,1/2-y,z
x,-y,-z
-x,1/2+y,-z
-x,-y,-z
x,1/2+y,-z
-x,y,z
x,1/2-y,z
1/2+x,1/2+y,1/2+z
1/2-x,-y,1/2+z
1/2+x,1/2-y,1/2-z
1/2-x,y,1/2-z
1/2-x,1/2-y,1/2-z
1/2+x,y,1/2-z
1/2-x,1/2+y,1/2+z
1/2+x,-y,1/2+z
loop_
_atom_site_type_symbol
_atom_site_label
_atom_site_fract_x
_atom_site_fract_y
_atom_site_fract_z
Si Si1 0.144815 0.072320 0.857838
Si Si2 0.062687 0.422455 0.551093
Si Si3 0.760449 0.069496 0.687002
Si Si4 0.113733 0.574787 0.329442
Si Si5 0.938856 0.573360 0.939985
Si Si6 0.936183 0.925526 0.771359
O O1 0.143123 0.250000 0.862665
O O2 0.208513 0.022183 0.850479
O O3 0.112012 0.995979 0.907359
O O4 0.109139 0.020373 0.804710
O O5 0.092074 0.500000 0.500000
O O6 0.058257 0.250000 0.537686
O O7 0.093713 0.435775 0.608208
O O8 0.000000 0.484382 0.557501
O O9 0.759469 0.250000 0.686477
O O10 0.750000 0.020410 0.750000
O O11 0.822430 0.024768 0.672274
O O12 0.110039 0.750000 0.311747
O O13 0.075334 0.472250 0.291656
O O14 0.933606 0.750000 0.943473
O O15 0.000000 0.541710 0.913793
O O16 0.939788 0.500000 0.000000
O O17 0.927843 0.750000 0.781340
O O18 0.000000 0.961421 0.785695
#
# Coordination Sequence:
#
# PCOD9540846 Si02
#       6
#    16  16  16  16  16  16
#     4  11  21  35  57  81 108 144 184 221 267 326
#     4   9  18  32  52  77 103 134 171 212 259 310
#     4   9  17  33  55  79 106 141 180 220 266 313
#     4  10  19  35  57  78 103 137 181 223 263 319
#     4  10  21  38  59  83 112 144 181 227 277 328
#     4  11  23  35  49  76 112 142 172 220 276 323
#
# _framework density 9.2592590000000001
#
# number of rings (size 3 to 8) (size 9 to 14) (size 15 to 20)
#    0.000    2.000    1.667    2.500    0.000    5.667 
#    0.000    5.000    0.000    2.000    0.000    0.000 
#    0.000    0.000    0.000    0.000    0.000    0.000 
#
# Total GULP energy -267448.366158 kJ/mol
# GULP energy per Si atom -5571.840962 kJ/mol
# Density = 0.923818 g / cm^3
# Si number density = 9.259259 Si / 1000 Ang^3
#
#
#
# Elastic Constant Matrix: (Units=GPa)
#
#
# Indices 1 2 3 4 5 6 
#
# 1 73.1415 26.0418 29.1622 0.0000 0.0000 0.0000
# 2 26.0418 21.0011 35.0531 0.0000 0.0000 0.0000
# 3 29.1622 35.0531 63.3392 0.0000 0.0000 0.0000
# 4 0.0000 0.0000 0.0000 26.2995 0.0000 0.0000
# 5 0.0000 0.0000 0.0000 0.0000 139.5811 0.0000
# 6 0.0000 0.0000 0.0000 0.0000 0.0000 18.9333
#
#
#
# Elastic Compliance Matrix: (Units=1/GPa)
#
#
# Indices 1 2 3 4 5 6 
#
# 1 -0.667688 4.127159 -1.976632 0.000000 0.000000 0.000000
# 2 4.127159-24.886890 11.872657 0.000000 0.000000 0.000000
# 3 -1.976632 11.872657 -5.644688 0.000000 0.000000 0.000000
# 4 0.000000 0.000000 0.000000 0.038024 0.000000 0.000000
# 5 0.000000 0.000000 0.000000 0.000000 0.007164 0.000000
# 6 0.000000 0.000000 0.000000 0.000000 0.000000 0.052817
#
#
# Mechanical properties :
#
#
# Convention : Reuss Voigt Hill
#
# Bulk Modulus (GPa) = -0.31717 37.55511 18.61897
# Shear Modulus (GPa) = -0.08306 41.44444 20.68069
#
# Velocity S-wave (km/s) = -0.21201 4.73588 3.34542
# Velocity P-wave (km/s) = 0.48122 7.08721 4.99985
#
# Compressibility (1/GPa) = -3.15289781
#
# Stress axis : x y z
#
# Youngs Moduli (GPa) = -1.49771 -0.04018 -0.17716
#
# Poissons Ratio (x) = 0.16584 -0.35018
# Poissons Ratio (y) = 6.18127 2.10333
# Poissons Ratio (z) = -2.96041 0.47706
#
# Static dielectric constant tensor:
#      x y z
#    x 1.642890 0.000000 0.000000 
#    y 0.000000 1.622460 0.000000 
#    z 0.000000 0.000000 1.649250 
# 
# From -- ./inp_files/57263.got.cif
#   From: 2010.05.17/outbox.ucp.g08.bks.cvg/sg74_29_cif.got.tgz:57263.got - 2010.06.11 16:37:44.
