data_PCOD9540619
_publ_section_title
;
Structure prediction by ZEFSAII (Michael W. Deem and Ramdas Pophale) SiO2 
 PCOD9540619
Probable space group: I M M A
;
_chemical_formula_sum "Si O2"
_cell_formula_units_Z 84
_cell_length_a 19.903632
_cell_length_b 14.308166
_cell_length_c 14.239956
_cell_angle_alpha 90.000000
_cell_angle_beta 90.000000
_cell_angle_gamma 90.000000
_cell_volume 4055.318332
_symmetry_space_group_name_H-M "I M M A"
_symmetry_group_IT_number 74
_symmetry_cell_setting 'orthorhombic'
loop_
_space_group_symop_operation_xyz
x,y,z
-x,1/2-y,z
x,-y,-z
-x,1/2+y,-z
-x,-y,-z
x,1/2+y,-z
-x,y,z
x,1/2-y,z
1/2+x,1/2+y,1/2+z
1/2-x,-y,1/2+z
1/2+x,1/2-y,1/2-z
1/2-x,y,1/2-z
1/2-x,1/2-y,1/2-z
1/2+x,y,1/2-z
1/2-x,1/2+y,1/2+z
1/2+x,-y,1/2+z
loop_
_atom_site_type_symbol
_atom_site_label
_atom_site_fract_x
_atom_site_fract_y
_atom_site_fract_z
Si Si1 0.345680 0.750000 0.459567
Si Si2 0.313405 0.000000 0.000000
Si Si3 0.922932 0.862135 0.573090
Si Si4 0.500000 0.750000 0.529409
Si Si5 0.381439 0.061322 0.272032
Si Si6 0.000000 0.045257 0.100494
Si Si7 0.190380 0.250000 0.171073
Si Si8 0.719559 0.587530 0.338853
O O1 0.426756 0.750000 0.477673
O O2 0.302241 0.750000 0.557634
O O3 0.324027 0.842079 0.402314
O O4 0.266624 0.030046 0.912340
O O5 0.363686 0.912040 0.984561
O O6 0.912476 0.750000 0.581867
O O7 0.914841 0.913240 0.673380
O O8 0.000000 0.876090 0.538834
O O9 0.500000 0.656906 0.590917
O O10 0.435463 0.018694 0.341692
O O11 0.352444 0.158278 0.309264
O O12 0.322063 0.988309 0.278975
O O13 0.000000 0.000000 0.000000
O O14 0.250000 0.250000 0.250000
O O15 0.750000 0.643102 0.250000
#
# Coordination Sequence:
#
# PCOD9540619 Si02
#       8
#     8   8  16   4  16   8   8  16
#     4  12  27  46  69  95 143 198 242 289 352 430
#     4  12  27  48  72 103 148 184 240 300 362 419
#     4  11  25  46  77 108 140 184 238 294 360 424
#     4  12  24  46  64 100 138 178 232 292 344 414
#     4  12  23  42  66 106 137 179 228 292 359 422
#     4  12  24  40  68  99 140 183 227 287 357 428
#     4  12  26  39  65 101 143 172 231 289 354 420
#     4  12  27  46  68 102 140 191 238 291 358 430
#
# _framework density 20.713539000000001
#
# number of rings (size 3 to 8) (size 9 to 14) (size 15 to 20)
#    0.000    0.190    5.714    3.429    5.333    0.000 
#    0.000    0.000    0.000    0.000    0.000    0.000 
#    0.000    0.000    0.000    0.000    0.000    0.000 
#
# Total GULP energy -234383.819967 kJ/mol
# GULP energy per Si atom -5580.567142 kJ/mol
# Density = 2.066639 g / cm^3
# Si number density = 20.713539 Si / 1000 Ang^3
#
#
#
# Elastic Constant Matrix: (Units=GPa)
#
#
# Indices 1 2 3 4 5 6 
#
# 1 124.6081 34.5232 44.7579 0.0000 0.0000 0.0000
# 2 34.5232 77.9824 5.5305 0.0000 0.0000 0.0000
# 3 44.7579 5.5305 95.2845 0.0000 0.0000 0.0000
# 4 0.0000 0.0000 0.0000 38.1497 0.0000 0.0000
# 5 0.0000 0.0000 0.0000 0.0000 7.3671 0.0000
# 6 0.0000 0.0000 0.0000 0.0000 0.0000 23.5040
#
#
#
# Elastic Compliance Matrix: (Units=1/GPa)
#
#
# Indices 1 2 3 4 5 6 
#
# 1 0.011055 -0.004544 -0.004929 0.000000 0.000000 0.000000
# 2 -0.004544 0.014745 0.001279 0.000000 0.000000 0.000000
# 3 -0.004929 0.001279 0.012736 0.000000 0.000000 0.000000
# 4 0.000000 0.000000 0.000000 0.026213 0.000000 0.000000
# 5 0.000000 0.000000 0.000000 0.000000 0.135739 0.000000
# 6 0.000000 0.000000 0.000000 0.000000 0.000000 0.042546
#
#
# Mechanical properties :
#
#
# Convention : Reuss Voigt Hill
#
# Bulk Modulus (GPa) = 45.15457 51.94422 48.54939
# Shear Modulus (GPa) = 18.74038 28.00839 23.37439
#
# Velocity S-wave (km/s) = 3.01115 3.68119 3.36290
# Velocity P-wave (km/s) = 5.82548 6.57267 6.21033
#
# Compressibility (1/GPa) = 0.02214615
#
# Stress axis : x y z
#
# Youngs Moduli (GPa) = 90.45998 67.82173 78.51809
#
# Poissons Ratio (x) = 0.30821 0.38701
# Poissons Ratio (y) = 0.41108 -0.10041
# Poissons Ratio (z) = 0.44587 -0.08673
#
# Static dielectric constant tensor:
#      x y z
#    x 1.778090 0.000000 0.000000 
#    y 0.000000 1.718680 0.000000 
#    z 0.000000 0.000000 1.801660 
# 
# From -- ./inp_files/35231.got.cif
#   From: 2010.05.17/outbox.cif.g08.bks.cpg/sg74_18_cif.got.tgz:35231.got - 2010.06.03 17:57:02.
