data_PCOD9540894
_publ_section_title
;
Structure prediction by ZEFSAII (Michael W. Deem and Ramdas Pophale) SiO2 
 PCOD9540894
Probable space group: I M M A
;
_chemical_formula_sum "Si O2"
_cell_formula_units_Z 48
_cell_length_a 9.000000
_cell_length_b 27.000000
_cell_length_c 21.000000
_cell_angle_alpha 90.000000
_cell_angle_beta 90.000000
_cell_angle_gamma 90.000000
_cell_volume 5103.000000
_symmetry_space_group_name_H-M "I M M A"
_symmetry_group_IT_number 74
_symmetry_cell_setting 'orthorhombic'
loop_
_space_group_symop_operation_xyz
x,y,z
-x,1/2-y,z
x,-y,-z
-x,1/2+y,-z
-x,-y,-z
x,1/2+y,-z
-x,y,z
x,1/2-y,z
1/2+x,1/2+y,1/2+z
1/2-x,-y,1/2+z
1/2+x,1/2-y,1/2-z
1/2-x,y,1/2-z
1/2-x,1/2-y,1/2-z
1/2+x,y,1/2-z
1/2-x,1/2+y,1/2+z
1/2+x,-y,1/2+z
loop_
_atom_site_type_symbol
_atom_site_label
_atom_site_fract_x
_atom_site_fract_y
_atom_site_fract_z
Si Si1 0.821274 0.952751 0.421761
Si Si2 0.172477 0.604979 0.186707
Si Si3 0.324373 0.693778 0.488659
Si Si4 0.820529 0.399952 0.446912
Si Si5 0.330193 0.306639 0.851750
Si Si6 0.179038 0.041476 0.322357
O O1 0.751843 0.909495 0.379212
O O2 0.781562 0.941210 0.496610
O O3 0.000000 0.954025 0.421832
O O4 0.776747 0.997474 0.372798
O O5 0.250000 0.583024 0.250000
O O6 0.206869 0.663044 0.186397
O O7 0.000000 0.592724 0.186454
O O8 0.500000 0.685462 0.473688
O O9 0.312492 0.750000 0.515149
O O10 0.263135 0.650029 0.533053
O O11 0.223871 0.692986 0.425169
O O12 0.788630 0.413839 0.372854
O O13 0.000000 0.394747 0.451699
O O14 0.500000 0.327035 0.845453
O O15 0.333731 0.250000 0.831334
O O16 0.250000 0.041872 0.250000
O O17 0.000000 0.038458 0.313214
#
# Coordination Sequence:
#
# PCOD9540894 Si02
#       6
#    16  16  16  16  16  16
#     4  10  20  37  59  83 113 149 193 239 283 335
#     4  12  24  36  52  75 108 148 192 238 287 338
#     4  10  20  34  55  86 120 150 184 232 288 342
#     4  10  20  36  61  88 116 152 195 238 284 341
#     4  10  20  35  54  75 103 142 187 234 286 341
#     4  10  22  39  59  86 118 155 193 236 291 345
#
# _framework density 9.4062319999999993
#
# number of rings (size 3 to 8) (size 9 to 14) (size 15 to 20)
#    0.000    1.667    1.667    3.500    0.000    7.000 
#    0.000    0.000    0.000    3.500    0.000    0.000 
#    0.000    0.000    0.000    0.000    0.000    0.000 
#
# Total GULP energy -267212.497590 kJ/mol
# GULP energy per Si atom -5566.927033 kJ/mol
# Density = 0.938482 g / cm^3
# Si number density = 9.406232 Si / 1000 Ang^3
#
#
#
# Elastic Constant Matrix: (Units=GPa)
#
#
# Indices 1 2 3 4 5 6 
#
# 1 9.4143 -1.1997 2.5271 0.0000 0.0000 0.0000
# 2 -1.1997 63.5838 18.4475 0.0000 0.0000 0.0000
# 3 2.5271 18.4475 133.3371 0.0000 0.0000 0.0000
# 4 0.0000 0.0000 0.0000 16.9320 0.0000 0.0000
# 5 0.0000 0.0000 0.0000 0.0000 30.0320 0.0000
# 6 0.0000 0.0000 0.0000 0.0000 0.0000 19.1908
#
#
#
# Elastic Compliance Matrix: (Units=1/GPa)
#
#
# Indices 1 2 3 4 5 6 
#
# 1 0.107215 0.002722 -0.002409 0.000000 0.000000 0.000000
# 2 0.002722 0.016454 -0.002328 0.000000 0.000000 0.000000
# 3 -0.002409 -0.002328 0.007868 0.000000 0.000000 0.000000
# 4 0.000000 0.000000 0.000000 0.059060 0.000000 0.000000
# 5 0.000000 0.000000 0.000000 0.000000 0.033298 0.000000
# 6 0.000000 0.000000 0.000000 0.000000 0.000000 0.052108
#
#
# Mechanical properties :
#
#
# Convention : Reuss Voigt Hill
#
# Bulk Modulus (GPa) = 7.84272 27.32055 17.58164
# Shear Modulus (GPa) = 15.50222 25.66831 20.58526
#
# Velocity S-wave (km/s) = 2.87372 3.69783 3.31151
# Velocity P-wave (km/s) = 3.89731 5.72591 4.89770
#
# Compressibility (1/GPa) = 0.12750672
#
# Stress axis : x y z
#
# Youngs Moduli (GPa) = 9.32706 60.77523 127.10481
#
# Poissons Ratio (x) = -0.16541 0.30614
# Poissons Ratio (y) = -0.02539 0.29590
# Poissons Ratio (z) = 0.02246 0.14149
#
# Static dielectric constant tensor:
#      x y z
#    x 1.636960 0.000000 0.000000 
#    y 0.000000 1.854310 0.000000 
#    z 0.000000 0.000000 1.670240 
# 
# From -- ./inp_files/49034.got.cif
#   From: 2010.05.17/outbox.ucp.g08.bks.cvg/sg74_25_cif.got.tgz:49034.got - 2010.06.11 16:37:44.
