data_PCOD9540163
_publ_section_title
;
Structure prediction by ZEFSAII (Michael W. Deem and Ramdas Pophale) SiO2 
 PCOD9540163
Probable space group: I M M A
;
_chemical_formula_sum "Si O2"
_cell_formula_units_Z 68
_cell_length_a 20.618928
_cell_length_b 14.196606
_cell_length_c 10.733758
_cell_angle_alpha 90.000000
_cell_angle_beta 90.000000
_cell_angle_gamma 90.000000
_cell_volume 3141.972729
_symmetry_space_group_name_H-M "I M M A"
_symmetry_group_IT_number 74
_symmetry_cell_setting 'orthorhombic'
loop_
_space_group_symop_operation_xyz
x,y,z
-x,1/2-y,z
x,-y,-z
-x,1/2+y,-z
-x,-y,-z
x,1/2+y,-z
-x,y,z
x,1/2-y,z
1/2+x,1/2+y,1/2+z
1/2-x,-y,1/2+z
1/2+x,1/2-y,1/2-z
1/2-x,y,1/2-z
1/2-x,1/2-y,1/2-z
1/2+x,y,1/2-z
1/2-x,1/2+y,1/2+z
1/2+x,-y,1/2+z
loop_
_atom_site_type_symbol
_atom_site_label
_atom_site_fract_x
_atom_site_fract_y
_atom_site_fract_z
Si Si1 0.314639 0.356916 0.049974
Si Si2 0.673834 0.896462 0.446536
Si Si3 0.572757 0.250000 0.456503
Si Si4 0.500000 0.250000 0.211441
Si Si5 0.000000 0.462646 0.359075
Si Si6 0.361286 0.465601 0.815272
O O1 0.332200 0.250000 0.084821
O O2 0.241926 0.356849 0.995492
O O3 0.357807 0.399674 0.937670
O O4 0.322173 0.437444 0.155264
O O5 0.614236 0.837713 0.498844
O O6 0.668475 0.907795 0.298387
O O7 0.669466 0.000000 0.500000
O O8 0.500000 0.250000 0.510516
O O9 0.560363 0.250000 0.308479
O O10 0.500000 0.151129 0.140789
O O11 0.000000 0.500000 0.500000
O O12 0.935040 0.501406 0.294017
#
# Coordination Sequence:
#
# PCOD9540163 Si02
#       6
#    16  16   8   4   8  16
#     4  11  24  45  69 104 144 189 240 294 364 442
#     4  12  24  45  72 103 147 188 238 304 360 432
#     4  10  26  48  69 109 136 197 246 291 372 420
#     4  10  26  48  74 104 150 186 250 300 348 456
#     4  12  24  47  72 105 143 194 237 304 363 431
#     4  11  26  44  70 107 143 192 240 301 370 427
#
# _framework density 21.642454000000001
#
# number of rings (size 3 to 8) (size 9 to 14) (size 15 to 20)
#    0.353    0.471    5.882    2.118    4.941    1.412 
#    2.118    1.176    0.000    0.000    0.000    0.000 
#    0.000    0.000    0.000    0.000    0.000    0.000 
#
# Total GULP energy -190141.905808 kJ/mol
# GULP energy per Si atom -5592.408994 kJ/mol
# Density = 2.159319 g / cm^3
# Si number density = 21.642454 Si / 1000 Ang^3
#
#
#
# Elastic Constant Matrix: (Units=GPa)
#
#
# Indices 1 2 3 4 5 6 
#
# 1 155.6166 40.5709 19.7829 0.0000 0.0000 0.0000
# 2 40.5709 148.6928 25.1427 0.0000 0.0000 0.0000
# 3 19.7829 25.1427 75.0509 0.0000 0.0000 0.0000
# 4 0.0000 0.0000 0.0000 27.9033 0.0000 0.0000
# 5 0.0000 0.0000 0.0000 0.0000 14.2050 0.0000
# 6 0.0000 0.0000 0.0000 0.0000 0.0000 40.6530
#
#
#
# Elastic Compliance Matrix: (Units=1/GPa)
#
#
# Indices 1 2 3 4 5 6 
#
# 1 0.007033 -0.001702 -0.001284 0.000000 0.000000 0.000000
# 2 -0.001702 0.007541 -0.002078 0.000000 0.000000 0.000000
# 3 -0.001284 -0.002078 0.014359 0.000000 0.000000 0.000000
# 4 0.000000 0.000000 0.000000 0.035838 0.000000 0.000000
# 5 0.000000 0.000000 0.000000 0.000000 0.070398 0.000000
# 6 0.000000 0.000000 0.000000 0.000000 0.000000 0.024598
#
#
# Mechanical properties :
#
#
# Convention : Reuss Voigt Hill
#
# Bulk Modulus (GPa) = 53.17425 61.15038 57.16232
# Shear Modulus (GPa) = 28.38297 36.14319 32.26308
#
# Velocity S-wave (km/s) = 3.62532 4.09101 3.86519
# Velocity P-wave (km/s) = 6.49205 7.11557 6.81095
#
# Compressibility (1/GPa) = 0.01880609
#
# Stress axis : x y z
#
# Youngs Moduli (GPa) = 142.18809 132.60930 69.64413
#
# Poissons Ratio (x) = 0.22568 0.08940
# Poissons Ratio (y) = 0.24199 0.14470
# Poissons Ratio (z) = 0.18253 0.27552
#
# Static dielectric constant tensor:
#      x y z
#    x 1.804610 0.000000 0.000000 
#    y 0.000000 1.867680 0.000000 
#    z 0.000000 0.000000 1.856750 
# 
# From -- ./inp_files/23428.got.cif
#   From: 2010.05.17/outbox.cif.g08.bks.cpg/sg74_12_cif.got.tgz:23428.got - 2010.06.03 17:57:02.
