data_PCOD9540804
_publ_section_title
;
Structure prediction by ZEFSAII (Michael W. Deem and Ramdas Pophale) SiO2 
 PCOD9540804
Probable space group: I M M A
;
_chemical_formula_sum "Si O2"
_cell_formula_units_Z 40
_cell_length_a 24.000000
_cell_length_b 15.000000
_cell_length_c 12.000000
_cell_angle_alpha 90.000000
_cell_angle_beta 90.000000
_cell_angle_gamma 90.000000
_cell_volume 4320.000000
_symmetry_space_group_name_H-M "I M M A"
_symmetry_group_IT_number 74
_symmetry_cell_setting 'orthorhombic'
loop_
_space_group_symop_operation_xyz
x,y,z
-x,1/2-y,z
x,-y,-z
-x,1/2+y,-z
-x,-y,-z
x,1/2+y,-z
-x,y,z
x,1/2-y,z
1/2+x,1/2+y,1/2+z
1/2-x,-y,1/2+z
1/2+x,1/2-y,1/2-z
1/2-x,y,1/2-z
1/2-x,1/2-y,1/2-z
1/2+x,y,1/2-z
1/2-x,1/2+y,1/2+z
1/2+x,-y,1/2+z
loop_
_atom_site_type_symbol
_atom_site_label
_atom_site_fract_x
_atom_site_fract_y
_atom_site_fract_z
Si Si1 0.347118 0.642600 0.503409
Si Si2 0.128268 0.021046 0.379373
Si Si3 0.066743 0.857341 0.804469
Si Si4 0.234480 0.146304 0.380432
Si Si5 0.182380 0.856946 0.249140
O O1 0.345409 0.750000 0.509799
O O2 0.399002 0.617423 0.582506
O O3 0.289157 0.611101 0.557096
O O4 0.343554 0.621994 0.372931
O O5 0.090176 0.077924 0.293010
O O6 0.181609 0.084887 0.400037
O O7 0.101743 0.000000 0.500000
O O8 0.152163 0.928109 0.329052
O O9 0.077757 0.750000 0.782214
O O10 0.000000 0.866870 0.817096
O O11 0.223847 0.250000 0.412985
O O12 0.250000 0.146045 0.250000
O O13 0.173832 0.750000 0.272736
O O14 0.250000 0.870423 0.250000
#
# Coordination Sequence:
#
# PCOD9540804 Si02
#       5
#    16  16  16  16  16
#     4   9  18  36  61  86 116 154 196 247 306 366
#     4  12  24  36  57  88 122 160 204 244 299 368
#     4  10  22  42  66  90 117 154 204 260 310 355
#     4  10  18  32  56  87 120 150 191 246 307 371
#     4  10  22  39  57  85 125 162 193 236 301 368
#
# _framework density 9.2592590000000001
#
# number of rings (size 3 to 8) (size 9 to 14) (size 15 to 20)
#    0.000    1.800    2.000    2.400    0.000    4.400 
#    0.000    2.000    0.000    1.800    0.000    0.000 
#    0.000    0.000    0.000    0.000    0.000    0.000 
#
# Total GULP energy -223326.637173 kJ/mol
# GULP energy per Si atom -5583.165929 kJ/mol
# Density = 0.923818 g / cm^3
# Si number density = 9.259259 Si / 1000 Ang^3
#
#
#
# Elastic Constant Matrix: (Units=GPa)
#
#
# Indices 1 2 3 4 5 6 
#
# 1 97.2130 35.0683 49.9813 0.0000 0.0000 0.0000
# 2 35.0683 90.1350 46.8193 0.0000 0.0000 0.0000
# 3 49.9813 46.8193 127.7543 0.0000 0.0000 0.0000
# 4 0.0000 0.0000 0.0000 23.9090 0.0000 0.0000
# 5 0.0000 0.0000 0.0000 0.0000 16.5517 0.0000
# 6 0.0000 0.0000 0.0000 0.0000 0.0000 21.8855
#
#
#
# Elastic Compliance Matrix: (Units=1/GPa)
#
#
# Indices 1 2 3 4 5 6 
#
# 1 0.013548 -0.003110 -0.004161 0.000000 0.000000 0.000000
# 2 -0.003110 0.014417 -0.004067 0.000000 0.000000 0.000000
# 3 -0.004161 -0.004067 0.010946 0.000000 0.000000 0.000000
# 4 0.000000 0.000000 0.000000 0.041825 0.000000 0.000000
# 5 0.000000 0.000000 0.000000 0.000000 0.060417 0.000000
# 6 0.000000 0.000000 0.000000 0.000000 0.000000 0.045692
#
#
# Mechanical properties :
#
#
# Convention : Reuss Voigt Hill
#
# Bulk Modulus (GPa) = 61.59230 64.31556 62.95393
# Shear Modulus (GPa) = 23.26331 24.68480 23.97406
#
# Velocity S-wave (km/s) = 3.54816 3.65496 3.60196
# Velocity P-wave (km/s) = 7.07941 7.25379 7.16713
#
# Compressibility (1/GPa) = 0.01623580
#
# Stress axis : x y z
#
# Youngs Moduli (GPa) = 73.81367 69.36344 91.36023
#
# Poissons Ratio (x) = 0.21570 0.38011
# Poissons Ratio (y) = 0.22954 0.37155
# Poissons Ratio (z) = 0.30711 0.28209
#
# Static dielectric constant tensor:
#      x y z
#    x 1.607610 0.000000 0.000000 
#    y 0.000000 1.654830 0.000000 
#    z 0.000000 0.000000 1.689700 
# 
# From -- ./inp_files/20461.got.cif
#   From: 2010.05.17/outbox.ucp.g08.bks.cvg/sg74_11_cif.got.tgz:20461.got - 2010.06.11 16:37:44.
