data_PCOD9540069
_publ_section_title
;
Structure prediction by ZEFSAII (Michael W. Deem and Ramdas Pophale) SiO2 
 PCOD9540069
Probable space group: I M M A
;
_chemical_formula_sum "Si O2"
_cell_formula_units_Z 64
_cell_length_a 14.242080
_cell_length_b 13.169369
_cell_length_c 17.485055
_cell_angle_alpha 90.000000
_cell_angle_beta 90.000000
_cell_angle_gamma 90.000000
_cell_volume 3279.483047
_symmetry_space_group_name_H-M "I M M A"
_symmetry_group_IT_number 74
_symmetry_cell_setting 'orthorhombic'
loop_
_space_group_symop_operation_xyz
x,y,z
-x,1/2-y,z
x,-y,-z
-x,1/2+y,-z
-x,-y,-z
x,1/2+y,-z
-x,y,z
x,1/2-y,z
1/2+x,1/2+y,1/2+z
1/2-x,-y,1/2+z
1/2+x,1/2-y,1/2-z
1/2-x,y,1/2-z
1/2-x,1/2-y,1/2-z
1/2+x,y,1/2-z
1/2-x,1/2+y,1/2+z
1/2+x,-y,1/2+z
loop_
_atom_site_type_symbol
_atom_site_label
_atom_site_fract_x
_atom_site_fract_y
_atom_site_fract_z
Si Si1 0.614092 0.750000 0.018702
Si Si2 0.108377 0.637991 0.828812
Si Si3 0.894397 0.477310 0.695836
Si Si4 0.657273 0.750000 0.197740
Si Si5 0.772145 0.924908 0.565152
O O1 0.500000 0.750000 0.024649
O O2 0.653981 0.846907 0.972626
O O3 0.658303 0.750000 0.104431
O O4 0.117726 0.750000 0.791844
O O5 0.125557 0.549196 0.767991
O O6 0.184556 0.629623 0.895146
O O7 0.000000 0.628867 0.855205
O O8 0.889159 0.358608 0.715981
O O9 0.823805 0.508081 0.629299
O O10 0.000000 0.500258 0.669411
O O11 0.750000 0.750000 0.250000
O O12 0.736781 0.000000 0.500000
#
# Coordination Sequence:
#
# PCOD9540069 Si02
#       5
#     8  16  16   8  16
#     4  12  26  42  64  97 135 169 209 267 326 383
#     4  10  23  44  67  94 128 169 218 270 318 380
#     4  11  24  41  65  96 130 171 216 265 322 385
#     4  12  24  42  64  89 133 175 217 257 311 384
#     4  12  24  40  67  96 129 167 214 265 329 390
#
# _framework density 19.515270999999998
#
# number of rings (size 3 to 8) (size 9 to 14) (size 15 to 20)
#    0.000    0.750    3.750    4.125    1.750    2.500 
#    0.000    0.000    0.000    0.000    0.000    0.000 
#    0.000    0.000    0.000    0.000    0.000    0.000 
#
# Total GULP energy -178696.130044 kJ/mol
# GULP energy per Si atom -5584.254064 kJ/mol
# Density = 1.947085 g / cm^3
# Si number density = 19.515271 Si / 1000 Ang^3
#
#
#
# Elastic Constant Matrix: (Units=GPa)
#
#
# Indices 1 2 3 4 5 6 
#
# 1 93.5710 35.0539 68.0625 0.0000 0.0000 0.0000
# 2 35.0539 152.6327 52.1766 0.0000 0.0000 0.0000
# 3 68.0625 52.1766 82.1198 0.0000 0.0000 0.0000
# 4 0.0000 0.0000 0.0000 38.1609 0.0000 0.0000
# 5 0.0000 0.0000 0.0000 0.0000 9.3593 0.0000
# 6 0.0000 0.0000 0.0000 0.0000 0.0000 40.5362
#
#
#
# Elastic Compliance Matrix: (Units=1/GPa)
#
#
# Indices 1 2 3 4 5 6 
#
# 1 0.027324 0.001873 -0.023837 0.000000 0.000000 0.000000
# 2 0.001873 0.008498 -0.006952 0.000000 0.000000 0.000000
# 3 -0.023837 -0.006952 0.036351 0.000000 0.000000 0.000000
# 4 0.000000 0.000000 0.000000 0.026205 0.000000 0.000000
# 5 0.000000 0.000000 0.000000 0.000000 0.106846 0.000000
# 6 0.000000 0.000000 0.000000 0.000000 0.000000 0.024669
#
#
# Mechanical properties :
#
#
# Convention : Reuss Voigt Hill
#
# Bulk Modulus (GPa) = 69.72685 70.98992 70.35839
# Shear Modulus (GPa) = 17.09376 29.14665 23.12021
#
# Velocity S-wave (km/s) = 2.96280 3.86881 3.44572
# Velocity P-wave (km/s) = 6.89284 7.51083 7.20846
#
# Compressibility (1/GPa) = 0.01434168
#
# Stress axis : x y z
#
# Youngs Moduli (GPa) = 36.59792 117.67565 27.50973
#
# Poissons Ratio (x) = -0.22043 0.65574
# Poissons Ratio (y) = -0.06855 0.19124
# Poissons Ratio (z) = 0.87238 0.81807
#
# Static dielectric constant tensor:
#      x y z
#    x 1.690700 0.000000 0.000000 
#    y 0.000000 1.706750 0.000000 
#    z 0.000000 0.000000 1.650550 
# 
# From -- ./inp_files/40716.got.cif
#   From: 2010.05.17/outbox.cif.g08.bks.cpg/sg74_21_cif.got.tgz:40716.got - 2010.06.03 17:57:02.
