data_PCOD9540406
_publ_section_title
;
Structure prediction by ZEFSAII (Michael W. Deem and Ramdas Pophale) SiO2 
 PCOD9540406
Probable space group: I M M A
;
_chemical_formula_sum "Si O2"
_cell_formula_units_Z 64
_cell_length_a 20.236334
_cell_length_b 16.478768
_cell_length_c 9.886178
_cell_angle_alpha 90.000000
_cell_angle_beta 90.000000
_cell_angle_gamma 90.000000
_cell_volume 3296.742326
_symmetry_space_group_name_H-M "I M M A"
_symmetry_group_IT_number 74
_symmetry_cell_setting 'orthorhombic'
loop_
_space_group_symop_operation_xyz
x,y,z
-x,1/2-y,z
x,-y,-z
-x,1/2+y,-z
-x,-y,-z
x,1/2+y,-z
-x,y,z
x,1/2-y,z
1/2+x,1/2+y,1/2+z
1/2-x,-y,1/2+z
1/2+x,1/2-y,1/2-z
1/2-x,y,1/2-z
1/2-x,1/2-y,1/2-z
1/2+x,y,1/2-z
1/2-x,1/2+y,1/2+z
1/2+x,-y,1/2+z
loop_
_atom_site_type_symbol
_atom_site_label
_atom_site_fract_x
_atom_site_fract_y
_atom_site_fract_z
Si Si1 0.664455 0.343992 0.666658
Si Si2 0.197105 0.408413 0.554372
Si Si3 0.674275 0.344894 0.224808
Si Si4 0.076151 0.591287 0.944271
O O1 0.673593 0.250000 0.703943
O O2 0.729334 0.374788 0.585645
O O3 0.660308 0.396860 0.802961
O O4 0.603433 0.354048 0.566497
O O5 0.200358 0.500000 0.500000
O O6 0.164080 0.642790 0.565511
O O7 0.670168 0.250000 0.262052
O O8 0.750000 0.372454 0.250000
O O9 0.623257 0.393561 0.316478
O O10 0.000000 0.608076 0.911686
O O11 0.082210 0.500000 0.000000
#
# Coordination Sequence:
#
# PCOD9540406 Si02
#       4
#    16  16  16  16
#     4  11  22  38  59  88 123 160 206 256 310 370
#     4  11  22  35  60  89 124 158 202 260 315 361
#     4  11  22  37  60  92 124 159 206 262 314 369
#     4  11  24  42  63  90 127 167 209 255 312 380
#
# _framework density 19.413104000000001
#
# number of rings (size 3 to 8) (size 9 to 14) (size 15 to 20)
#    0.000    1.000    2.500    6.000    3.500    2.000 
#    0.000    1.250    0.000    7.500    0.000    0.000 
#    0.000    0.000    0.000    0.000    0.000    0.000 
#
# Total GULP energy -178904.013833 kJ/mol
# GULP energy per Si atom -5590.750432 kJ/mol
# Density = 1.936892 g / cm^3
# Si number density = 19.413104 Si / 1000 Ang^3
#
#
#
# Elastic Constant Matrix: (Units=GPa)
#
#
# Indices 1 2 3 4 5 6 
#
# 1 118.4371 31.5139 68.9524 0.0000 0.0000 0.0000
# 2 31.5139 91.0549 31.8457 0.0000 0.0000 0.0000
# 3 68.9524 31.8457 152.4561 0.0000 0.0000 0.0000
# 4 0.0000 0.0000 0.0000 35.2590 0.0000 0.0000
# 5 0.0000 0.0000 0.0000 0.0000 30.6492 0.0000
# 6 0.0000 0.0000 0.0000 0.0000 0.0000 8.0152
#
#
#
# Elastic Compliance Matrix: (Units=1/GPa)
#
#
# Indices 1 2 3 4 5 6 
#
# 1 0.011936 -0.002420 -0.004893 0.000000 0.000000 0.000000
# 2 -0.002420 0.012338 -0.001483 0.000000 0.000000 0.000000
# 3 -0.004893 -0.001483 0.009082 0.000000 0.000000 0.000000
# 4 0.000000 0.000000 0.000000 0.028362 0.000000 0.000000
# 5 0.000000 0.000000 0.000000 0.000000 0.032627 0.000000
# 6 0.000000 0.000000 0.000000 0.000000 0.000000 0.124763
#
#
# Mechanical properties :
#
#
# Convention : Reuss Voigt Hill
#
# Bulk Modulus (GPa) = 63.43083 69.61915 66.52499
# Shear Modulus (GPa) = 20.66511 30.09375 25.37943
#
# Velocity S-wave (km/s) = 3.26620 3.94150 3.61963
# Velocity P-wave (km/s) = 6.85341 7.52686 7.19802
#
# Compressibility (1/GPa) = 0.01576521
#
# Stress axis : x y z
#
# Youngs Moduli (GPa) = 83.78269 81.04724 110.10880
#
# Poissons Ratio (x) = 0.19611 0.53874
# Poissons Ratio (y) = 0.20273 0.16329
# Poissons Ratio (z) = 0.40993 0.12019
#
# Static dielectric constant tensor:
#      x y z
#    x 1.663050 0.000000 0.000000 
#    y 0.000000 1.710710 0.000000 
#    z 0.000000 0.000000 1.698430 
# 
# From -- ./inp_files/20126.got.cif
#   From: 2010.05.17/outbox.cif.g08.bks.cpg/sg74_11_cif.got.tgz:20126.got - 2010.06.03 17:57:02.
