data_PCOD9540320
_publ_section_title
;
Structure prediction by ZEFSAII (Michael W. Deem and Ramdas Pophale) SiO2 
 PCOD9540320
Probable space group: I M M A
;
_chemical_formula_sum "Si O2"
_cell_formula_units_Z 96
_cell_length_a 8.917012
_cell_length_b 28.521427
_cell_length_c 20.638587
_cell_angle_alpha 90.000000
_cell_angle_beta 90.000000
_cell_angle_gamma 90.000000
_cell_volume 5248.927354
_symmetry_space_group_name_H-M "I M M A"
_symmetry_group_IT_number 74
_symmetry_cell_setting 'orthorhombic'
loop_
_space_group_symop_operation_xyz
x,y,z
-x,1/2-y,z
x,-y,-z
-x,1/2+y,-z
-x,-y,-z
x,1/2+y,-z
-x,y,z
x,1/2-y,z
1/2+x,1/2+y,1/2+z
1/2-x,-y,1/2+z
1/2+x,1/2-y,1/2-z
1/2-x,y,1/2-z
1/2-x,1/2-y,1/2-z
1/2+x,y,1/2-z
1/2-x,1/2+y,1/2+z
1/2+x,-y,1/2+z
loop_
_atom_site_type_symbol
_atom_site_label
_atom_site_fract_x
_atom_site_fract_y
_atom_site_fract_z
Si Si1 0.678206 0.664160 0.451263
Si Si2 0.825869 0.966320 0.600103
Si Si3 0.321016 0.883657 0.678684
Si Si4 0.320738 0.195353 0.086289
Si Si5 0.831740 0.305889 0.813118
Si Si6 0.674806 0.566012 0.049865
O O1 0.500000 0.673025 0.458200
O O2 0.760688 0.683980 0.514340
O O3 0.735672 0.685782 0.383823
O O4 0.715161 0.609419 0.444219
O O5 0.727547 0.932185 0.643836
O O6 0.819876 0.948897 0.525612
O O7 0.000000 0.962724 0.621010
O O8 0.785530 0.021226 0.594174
O O9 0.500000 0.880423 0.681979
O O10 0.250000 0.881685 0.750000
O O11 0.256516 0.840998 0.635311
O O12 0.500000 0.188156 0.088111
O O13 0.289449 0.250000 0.101628
O O14 0.500000 0.325324 0.685093
O O15 0.841007 0.250000 0.805173
O O16 0.750000 0.325256 0.750000
O O17 0.500000 0.578729 0.063146
#
# Coordination Sequence:
#
# PCOD9540320 Si02
#       6
#    16  16  16  16  16  16
#     4  11  21  34  56  88 121 152 189 240 294 346
#     4   9  18  36  59  85 115 149 189 233 281 336
#     4  12  25  41  63  88 118 157 197 246 301 357
#     4  11  24  41  61  86 117 154 199 248 297 354
#     4   9  19  35  53  75 107 147 189 231 278 335
#     4   9  18  33  58  86 116 150 185 230 281 336
#
# _framework density 18.289451
#
# number of rings (size 3 to 8) (size 9 to 14) (size 15 to 20)
#    0.000    1.833    1.667    4.000    0.000    4.333 
#    0.000    4.167    0.000    2.000    0.000    0.000 
#    0.000    0.000    0.000    0.000    0.000    0.000 
#
# Total GULP energy -267781.211081 kJ/mol
# GULP energy per Si atom -5578.775231 kJ/mol
# Density = 1.824782 g / cm^3
# Si number density = 18.289451 Si / 1000 Ang^3
#
#
#
# Elastic Constant Matrix: (Units=GPa)
#
#
# Indices 1 2 3 4 5 6 
#
# 1 75.9926 32.1716 48.7511 0.0000 0.0000 0.0000
# 2 32.1716 54.0679 29.0632 0.0000 0.0000 0.0000
# 3 48.7511 29.0632 123.4474 0.0002 0.0000 0.0001
# 4 0.0000 0.0000 0.0002 14.8793 0.0000 0.0000
# 5 0.0000 0.0000 0.0000 0.0000 27.0890 0.0000
# 6 0.0000 0.0000 0.0001 0.0000 0.0000 -2.6026
#
#
#
# Elastic Compliance Matrix: (Units=1/GPa)
#
#
# Indices 1 2 3 4 5 6 
#
# 1 0.020977 -0.009192 -0.006120 0.000000 0.000000 0.000000
# 2 -0.009192 0.025203 -0.002304 0.000000 0.000000 0.000000
# 3 -0.006120 -0.002304 0.011060 0.000000 0.000000 0.000000
# 4 0.000000 0.000000 0.000000 0.067207 0.000000 0.000001
# 5 0.000000 0.000000 0.000000 0.000000 0.036915 0.000000
# 6 0.000000 0.000000 0.000000 0.000001 0.000000 -0.384229
#
#
# Mechanical properties :
#
#
# Convention : Reuss Voigt Hill
#
# Bulk Modulus (GPa) = 45.43671 52.60884 49.02277
# Shear Modulus (GPa) = -27.73151 17.44127 -5.14512
#
# Velocity S-wave (km/s) = -3.89814 3.09143 -1.67907
# Velocity P-wave (km/s) = 2.15323 6.44745 4.80656
#
# Compressibility (1/GPa) = 0.02200864
#
# Stress axis : x y z
#
# Youngs Moduli (GPa) = 47.67200 39.67800 90.41777
#
# Poissons Ratio (x) = 0.36472 0.55335
# Poissons Ratio (y) = 0.43820 0.20828
# Poissons Ratio (z) = 0.29175 0.09140
#
# Static dielectric constant tensor:
#      x y z
#    x 1.633500 0.000000 0.000000 
#    y 0.000000 1.650280 0.000000 
#    z 0.000000 0.000000 1.623830 
# 
# From -- ./inp_files/49068.got.cif
#   From: 2010.05.17/outbox.cif.g08.bks.cpg/sg74_25_cif.got.tgz:49068.got - 2010.06.03 17:57:02.
