data_PCOD9540945
_publ_section_title
;
Structure prediction by ZEFSAII (Michael W. Deem and Ramdas Pophale) SiO2 
 PCOD9540945
Probable space group: I M M A
;
_chemical_formula_sum "Si O2"
_cell_formula_units_Z 36
_cell_length_a 24.000000
_cell_length_b 9.000000
_cell_length_c 18.000000
_cell_angle_alpha 90.000000
_cell_angle_beta 90.000000
_cell_angle_gamma 90.000000
_cell_volume 3888.000000
_symmetry_space_group_name_H-M "I M M A"
_symmetry_group_IT_number 74
_symmetry_cell_setting 'orthorhombic'
loop_
_space_group_symop_operation_xyz
x,y,z
-x,1/2-y,z
x,-y,-z
-x,1/2+y,-z
-x,-y,-z
x,1/2+y,-z
-x,y,z
x,1/2-y,z
1/2+x,1/2+y,1/2+z
1/2-x,-y,1/2+z
1/2+x,1/2-y,1/2-z
1/2-x,y,1/2-z
1/2-x,1/2-y,1/2-z
1/2+x,y,1/2-z
1/2-x,1/2+y,1/2+z
1/2+x,-y,1/2+z
loop_
_atom_site_type_symbol
_atom_site_label
_atom_site_fract_x
_atom_site_fract_y
_atom_site_fract_z
Si Si1 0.000000 0.429761 0.583709
Si Si2 0.874454 0.071188 0.648630
Si Si3 0.564011 0.927816 0.581571
Si Si4 0.237171 0.068950 0.418099
Si Si5 0.338008 0.928897 0.321493
O O1 0.000000 0.500000 0.500000
O O2 0.939712 0.467954 0.625425
O O3 0.000000 0.250000 0.577756
O O4 0.869621 0.250000 0.636371
O O5 0.855756 0.043388 0.735002
O O6 0.825795 0.986502 0.602371
O O7 0.500000 0.950660 0.608300
O O8 0.573789 0.750000 0.577971
O O9 0.567482 0.000000 0.500000
O O10 0.610133 0.007032 0.631583
O O11 0.239771 0.250000 0.419789
O O12 0.251055 0.000000 0.500000
O O13 0.282019 0.005613 0.356696
O O14 0.332037 0.750000 0.329970
#
# Coordination Sequence:
#
# PCOD9540945 Si02
#       5
#     8  16  16  16  16
#     4  10  22  42  66  94 125 162 205 252 303 362
#     4  10  23  42  65  93 127 163 207 256 311 370
#     4  10  21  37  57  84 120 162 209 259 308 367
#     4  12  25  42  65  91 125 164 209 258 312 373
#     4  11  23  39  63  91 125 163 205 255 311 373
#
# _framework density 9.2592590000000001
#
# number of rings (size 3 to 8) (size 9 to 14) (size 15 to 20)
#    0.000    1.333    0.000    5.333    1.556    8.444 
#    0.000    0.000    0.000    0.000    0.000    0.000 
#    0.000    0.000    0.000    0.000    0.000    0.000 
#
# Total GULP energy -200949.213106 kJ/mol
# GULP energy per Si atom -5581.922586 kJ/mol
# Density = 0.923818 g / cm^3
# Si number density = 9.259259 Si / 1000 Ang^3
#
#
#
# Elastic Constant Matrix: (Units=GPa)
#
#
# Indices 1 2 3 4 5 6 
#
# 1 165.0790 55.7579 66.0048 0.0000 0.0000 0.0000
# 2 55.7579 114.7851 47.2377 0.0000 0.0000 0.0000
# 3 66.0048 47.2377 115.8129 0.0000 0.0000 0.0000
# 4 0.0000 0.0000 0.0000 35.1461 0.0000 0.0000
# 5 0.0000 0.0000 0.0000 0.0000 44.1065 0.0000
# 6 0.0000 0.0000 0.0000 0.0000 0.0000 46.2509
#
#
#
# Elastic Compliance Matrix: (Units=1/GPa)
#
#
# Indices 1 2 3 4 5 6 
#
# 1 0.008421 -0.002542 -0.003762 0.000000 0.000000 0.000000
# 2 -0.002542 0.011237 -0.003134 0.000000 0.000000 0.000000
# 3 -0.003762 -0.003134 0.012057 0.000000 0.000000 0.000000
# 4 0.000000 0.000000 0.000000 0.028453 0.000000 0.000000
# 5 0.000000 0.000000 0.000000 0.000000 0.022672 0.000000
# 6 0.000000 0.000000 0.000000 0.000000 0.000000 0.021621
#
#
# Mechanical properties :
#
#
# Convention : Reuss Voigt Hill
#
# Bulk Modulus (GPa) = 77.89943 81.51973 79.70958
# Shear Modulus (GPa) = 39.17962 40.21249 39.69605
#
# Velocity S-wave (km/s) = 4.60466 4.66496 4.63491
# Velocity P-wave (km/s) = 8.39211 8.55173 8.47230
#
# Compressibility (1/GPa) = 0.01283707
#
# Stress axis : x y z
#
# Youngs Moduli (GPa) = 118.75587 88.99424 82.93745
#
# Poissons Ratio (x) = 0.22623 0.31203
# Poissons Ratio (y) = 0.30189 0.25996
# Poissons Ratio (z) = 0.44679 0.27894
#
# Static dielectric constant tensor:
#      x y z
#    x 1.654650 0.000000 0.000000 
#    y 0.000000 1.623190 0.000000 
#    z 0.000000 0.000000 1.654810 
# 
# From -- ./inp_files/45818.got.cif
#   From: 2010.05.17/outbox.ucp.g08.bks.cvg/sg74_23_cif.got.tgz:45818.got - 2010.06.11 16:37:44.
