data_PCOD9540271
_publ_section_title
;
Structure prediction by ZEFSAII (Michael W. Deem and Ramdas Pophale) SiO2 
 PCOD9540271
Probable space group: I M M A
;
_chemical_formula_sum "Si O2"
_cell_formula_units_Z 88
_cell_length_a 23.520046
_cell_length_b 22.796568
_cell_length_c 7.394667
_cell_angle_alpha 90.000000
_cell_angle_beta 90.000000
_cell_angle_gamma 90.000000
_cell_volume 3964.845399
_symmetry_space_group_name_H-M "I M M A"
_symmetry_group_IT_number 74
_symmetry_cell_setting 'orthorhombic'
loop_
_space_group_symop_operation_xyz
x,y,z
-x,1/2-y,z
x,-y,-z
-x,1/2+y,-z
-x,-y,-z
x,1/2+y,-z
-x,y,z
x,1/2-y,z
1/2+x,1/2+y,1/2+z
1/2-x,-y,1/2+z
1/2+x,1/2-y,1/2-z
1/2-x,y,1/2-z
1/2-x,1/2-y,1/2-z
1/2+x,y,1/2-z
1/2-x,1/2+y,1/2+z
1/2+x,-y,1/2+z
loop_
_atom_site_type_symbol
_atom_site_label
_atom_site_fract_x
_atom_site_fract_y
_atom_site_fract_z
Si Si1 0.156882 0.315388 0.872262
Si Si2 0.281581 0.318708 0.017213
Si Si3 0.845866 0.500000 0.000000
Si Si4 0.317312 0.053752 0.150737
Si Si5 0.059466 0.067779 0.440502
Si Si6 0.433682 0.407036 0.652420
O O1 0.135619 0.250000 0.876178
O O2 0.213388 0.319718 0.992814
O O3 0.183937 0.325316 0.672339
O O4 0.103368 0.354245 0.924927
O O5 0.294630 0.250000 0.079015
O O6 0.293435 0.382057 0.106037
O O7 0.804708 0.470793 0.149324
O O8 0.889984 0.459446 0.890356
O O9 0.384313 0.070778 0.172304
O O10 0.314111 0.000000 0.000000
O O11 0.065185 0.101310 0.630047
O O12 0.000000 0.083881 0.349246
O O13 0.055564 0.000000 0.500000
O O14 0.500000 0.415486 0.598889
#
# Coordination Sequence:
#
# PCOD9540271 Si02
#       6
#    16  16   8  16  16  16
#     4   9  18  36  63  93 125 171 227 272 326 402
#     4   9  18  36  64  94 130 177 227 280 336 401
#     4  12  23  36  60  96 126 166 215 266 340 410
#     4  11  20  38  63  92 135 173 215 279 337 398
#     4   9  16  30  53  81 121 166 208 260 322 386
#     4  11  21  35  57  90 127 166 215 271 332 397
#
# _framework density 22.195063000000001
#
# number of rings (size 3 to 8) (size 9 to 14) (size 15 to 20)
#    0.000    2.000    5.455    1.364    0.000    1.091 
#    1.636    1.818    0.000    3.818    0.000    0.000 
#    0.000    0.000    0.000    0.000    0.000    0.000 
#
# Total GULP energy -245020.337247 kJ/mol
# GULP energy per Si atom -5568.644028 kJ/mol
# Density = 2.214455 g / cm^3
# Si number density = 22.195063 Si / 1000 Ang^3
#
#
#
# Elastic Constant Matrix: (Units=GPa)
#
#
# Indices 1 2 3 4 5 6 
#
# 1 70.3652 55.0885 5.2427 0.0000 0.0000 0.0000
# 2 55.0885 161.6700 50.9670 0.0000 0.0000 0.0000
# 3 5.2427 50.9670 79.4967 0.0000 0.0000 0.0000
# 4 0.0000 0.0000 0.0000 24.1991 0.0000 0.0000
# 5 0.0000 0.0000 0.0000 0.0000 20.4293 0.0000
# 6 0.0000 0.0000 0.0000 0.0000 0.0000 21.5149
#
#
#
# Elastic Compliance Matrix: (Units=1/GPa)
#
#
# Indices 1 2 3 4 5 6 
#
# 1 0.020294 -0.008138 0.003879 0.000000 0.000000 0.000000
# 2 -0.008138 0.011016 -0.006526 0.000000 0.000000 0.000000
# 3 0.003879 -0.006526 0.016507 0.000000 0.000000 0.000000
# 4 0.000000 0.000000 0.000000 0.041324 0.000000 0.000000
# 5 0.000000 0.000000 0.000000 0.000000 0.048949 0.000000
# 6 0.000000 0.000000 0.000000 0.000000 0.000000 0.046479
#
#
# Mechanical properties :
#
#
# Convention : Reuss Voigt Hill
#
# Bulk Modulus (GPa) = 38.09918 59.34760 48.72339
# Shear Modulus (GPa) = 23.26807 26.57759 24.92283
#
# Velocity S-wave (km/s) = 3.24133 3.46418 3.35460
# Velocity P-wave (km/s) = 5.58669 6.54201 6.08313
#
# Compressibility (1/GPa) = 0.02624729
#
# Stress axis : x y z
#
# Youngs Moduli (GPa) = 49.27655 90.78017 60.58013
#
# Poissons Ratio (x) = 0.73876 -0.23499
# Poissons Ratio (y) = 0.40101 0.39533
# Poissons Ratio (z) = -0.19114 0.59240
#
# Static dielectric constant tensor:
#      x y z
#    x 1.863230 0.000000 0.000000 
#    y 0.000000 1.881150 0.000000 
#    z 0.000000 0.000000 1.958800 
# 
# From -- ./inp_files/34416.got.cif
#   From: 2010.05.17/outbox.cif.g08.bks.cpg/sg74_18_cif.got.tgz:34416.got - 2010.06.03 17:57:02.
