data_PCOD9540126
_publ_section_title
;
Structure prediction by ZEFSAII (Michael W. Deem and Ramdas Pophale) SiO2 
 PCOD9540126
Probable space group: I M M A
;
_chemical_formula_sum "Si O2"
_cell_formula_units_Z 104
_cell_length_a 26.899695
_cell_length_b 8.052980
_cell_length_c 22.276671
_cell_angle_alpha 90.000000
_cell_angle_beta 90.000000
_cell_angle_gamma 90.000000
_cell_volume 4825.632749
_symmetry_space_group_name_H-M "I M M A"
_symmetry_group_IT_number 74
_symmetry_cell_setting 'orthorhombic'
loop_
_space_group_symop_operation_xyz
x,y,z
-x,1/2-y,z
x,-y,-z
-x,1/2+y,-z
-x,-y,-z
x,1/2+y,-z
-x,y,z
x,1/2-y,z
1/2+x,1/2+y,1/2+z
1/2-x,-y,1/2+z
1/2+x,1/2-y,1/2-z
1/2-x,y,1/2-z
1/2-x,1/2-y,1/2-z
1/2+x,y,1/2-z
1/2-x,1/2+y,1/2+z
1/2+x,-y,1/2+z
loop_
_atom_site_type_symbol
_atom_site_label
_atom_site_fract_x
_atom_site_fract_y
_atom_site_fract_z
Si Si1 0.128302 0.051556 0.432080
Si Si2 0.607423 0.054231 0.611254
Si Si3 0.055342 0.452246 0.336031
Si Si4 0.708083 0.055902 0.434847
Si Si5 0.000000 0.950555 0.069715
Si Si6 0.283827 0.048027 0.160322
Si Si7 0.858137 0.951193 0.757917
O O1 0.127186 0.250000 0.430828
O O2 0.078059 0.991416 0.399595
O O3 0.173769 0.005540 0.388764
O O4 0.134310 0.000000 0.500000
O O5 0.607098 0.250000 0.599334
O O6 0.551520 0.989623 0.599887
O O7 0.649531 0.975888 0.569421
O O8 0.626997 0.021660 0.678174
O O9 0.053462 0.250000 0.336494
O O10 0.096185 0.494468 0.286242
O O11 0.000000 0.514280 0.324357
O O12 0.717590 0.250000 0.432662
O O13 0.734698 0.986065 0.374421
O O14 0.727312 0.000000 0.500000
O O15 0.000000 0.750000 0.074211
O O16 0.000000 0.000000 0.000000
O O17 0.280177 0.250000 0.166452
O O18 0.307250 0.993251 0.224187
O O19 0.855362 0.750000 0.763501
#
# Coordination Sequence:
#
# PCOD9540126 Si02
#       7
#    16  16  16  16   8  16  16
#     4   9  16  28  46  69 100 138 179 223 271 324
#     4  11  24  41  59  85 117 148 182 229 287 341
#     4   8  15  28  47  71 100 135 178 228 274 320
#     4  11  22  38  60  86 115 149 189 233 279 331
#     4  10  24  44  64  84 114 150 183 226 283 342
#     4   8  17  34  55  79 111 149 185 225 275 329
#     4   9  18  35  58  83 109 144 191 232 272 328
#
# _framework density 21.551577000000002
#
# number of rings (size 3 to 8) (size 9 to 14) (size 15 to 20)
#    0.000    2.615    0.000    3.692    1.077    3.385 
#    0.000    8.462    0.000    0.923    0.000    0.000 
#    0.000    0.000    0.000    0.000    0.000    0.000 
#
# Total GULP energy -290008.267188 kJ/mol
# GULP energy per Si atom -5577.082061 kJ/mol
# Density = 2.150253 g / cm^3
# Si number density = 21.551577 Si / 1000 Ang^3
#
#
#
# Elastic Constant Matrix: (Units=GPa)
#
#
# Indices 1 2 3 4 5 6 
#
# 1 133.4434 1.9187 32.6489 0.0000 0.0000 0.0000
# 2 1.9187 7.0908 -5.9974 0.0000 0.0000 0.0000
# 3 32.6489 -5.9974 101.6721 0.0000 0.0000 0.0000
# 4 0.0000 0.0000 0.0000 31.3721 0.0000 0.0000
# 5 0.0000 0.0000 0.0000 0.0000 14.8417 0.0000
# 6 0.0000 0.0000 0.0000 0.0000 0.0000 31.9287
#
#
#
# Elastic Compliance Matrix: (Units=1/GPa)
#
#
# Indices 1 2 3 4 5 6 
#
# 1 0.008281 -0.004725 -0.002938 0.000000 0.000000 0.000000
# 2 -0.004725 0.151131 0.010432 0.000000 0.000000 0.000000
# 3 -0.002938 0.010432 0.011394 0.000000 0.000000 0.000000
# 4 0.000000 0.000000 0.000000 0.031875 0.000000 0.000000
# 5 0.000000 0.000000 0.000000 0.000000 0.067378 0.000000
# 6 0.000000 0.000000 0.000000 0.000000 0.000000 0.031320
#
#
# Mechanical properties :
#
#
# Convention : Reuss Voigt Hill
#
# Bulk Modulus (GPa) = 5.67074 33.26075 19.46574
# Shear Modulus (GPa) = 14.09953 29.87091 21.98522
#
# Velocity S-wave (km/s) = 2.56055 3.72697 3.19740
# Velocity P-wave (km/s) = 3.37326 5.82983 4.76266
#
# Compressibility (1/GPa) = 0.17634371
#
# Stress axis : x y z
#
# Youngs Moduli (GPa) = 120.76528 6.61679 87.76330
#
# Poissons Ratio (x) = 0.03127 0.25783
# Poissons Ratio (y) = 0.57066 -0.91557
# Poissons Ratio (z) = 0.35478 -0.06903
#
# Static dielectric constant tensor:
#      x y z
#    x 1.827780 0.000000 0.000000 
#    y 0.000000 1.066850 0.000000 
#    z 0.000000 0.000000 1.830150 
# 
# From -- ./inp_files/55265.got.cif
#   From: 2010.05.17/outbox.cif.g08.bks.cpg/sg74_28_cif.got.tgz:55265.got - 2010.06.03 17:57:02.
