data_PCOD9540594
_publ_section_title
;
Structure prediction by ZEFSAII (Michael W. Deem and Ramdas Pophale) SiO2 
 PCOD9540594
Probable space group: I M M A
;
_chemical_formula_sum "Si O2"
_cell_formula_units_Z 36
_cell_length_a 24.820927
_cell_length_b 8.067887
_cell_length_c 7.754448
_cell_angle_alpha 90.000000
_cell_angle_beta 90.000000
_cell_angle_gamma 90.000000
_cell_volume 1552.847088
_symmetry_space_group_name_H-M "I M M A"
_symmetry_group_IT_number 74
_symmetry_cell_setting 'orthorhombic'
loop_
_space_group_symop_operation_xyz
x,y,z
-x,1/2-y,z
x,-y,-z
-x,1/2+y,-z
-x,-y,-z
x,1/2+y,-z
-x,y,z
x,1/2-y,z
1/2+x,1/2+y,1/2+z
1/2-x,-y,1/2+z
1/2+x,1/2-y,1/2-z
1/2-x,y,1/2-z
1/2-x,1/2-y,1/2-z
1/2+x,y,1/2-z
1/2-x,1/2+y,1/2+z
1/2+x,-y,1/2+z
loop_
_atom_site_type_symbol
_atom_site_label
_atom_site_fract_x
_atom_site_fract_y
_atom_site_fract_z
Si Si1 0.923211 0.943293 0.810145
Si Si2 0.000000 0.500000 0.500000
Si Si3 0.190084 0.551499 0.303311
O O1 0.936123 0.750000 0.786549
O O2 0.859276 0.971439 0.797965
O O3 0.953332 0.028966 0.650349
O O4 0.940204 0.000000 0.000000
O O5 0.182495 0.500000 0.500000
O O6 0.186805 0.750000 0.283127
O O7 0.250000 0.496921 0.250000
#
# Coordination Sequence:
#
# PCOD9540594 Si02
#       3
#    16   4  16
#     4  12  27  47  75 108 148 195 246 304 365 437
#     4  12  28  48  74 108 148 196 246 302 368 430
#     4  11  24  43  70 105 146 191 242 301 365 434
#
# _framework density 23.183223999999999
#
# number of rings (size 3 to 8) (size 9 to 14) (size 15 to 20)
#    0.000    0.444    2.222    5.333    0.000   12.444 
#    0.000    0.000    0.000    0.000    0.000    0.000 
#    0.000    0.000    0.000    0.000    0.000    0.000 
#
# Total GULP energy -100274.777342 kJ/mol
# GULP energy per Si atom -5570.820963 kJ/mol
# Density = 2.313046 g / cm^3
# Si number density = 23.183224 Si / 1000 Ang^3
#
#
#
# Elastic Constant Matrix: (Units=GPa)
#
#
# Indices 1 2 3 4 5 6 
#
# 1 201.7704 11.9875 49.2791 0.0000 0.0000 0.0000
# 2 11.9875 41.2186 -19.2523 0.0000 0.0000 0.0000
# 3 49.2791 -19.2523 187.0125 0.0000 0.0000 0.0000
# 4 0.0000 0.0000 0.0000 19.5721 0.0000 0.0000
# 5 0.0000 0.0000 0.0000 0.0000 85.0554 0.0000
# 6 0.0000 0.0000 0.0000 0.0000 0.0000 -91.9559
#
#
#
# Elastic Compliance Matrix: (Units=1/GPa)
#
#
# Indices 1 2 3 4 5 6 
#
# 1 0.005514 -0.002397 -0.001700 0.000000 0.000000 0.000000
# 2 -0.002397 0.026529 0.003363 0.000000 0.000000 0.000000
# 3 -0.001700 0.003363 0.006141 0.000000 0.000000 0.000000
# 4 0.000000 0.000000 0.000000 0.051093 0.000000 0.000000
# 5 0.000000 0.000000 0.000000 0.000000 0.011757 0.000000
# 6 0.000000 0.000000 0.000000 0.000000 0.000000 -0.010875
#
#
# Mechanical properties :
#
#
# Convention : Reuss Voigt Hill
#
# Bulk Modulus (GPa) = 27.23672 57.11446 42.17559
# Shear Modulus (GPa) = 48.13886 28.40013 38.26950
#
# Velocity S-wave (km/s) = 4.56175 3.50384 4.06734
# Velocity P-wave (km/s) = 6.28650 6.40771 6.34740
#
# Compressibility (1/GPa) = 0.03671514
#
# Stress axis : x y z
#
# Youngs Moduli (GPa) = 181.36681 37.69485 162.83179
#
# Poissons Ratio (x) = 0.09037 0.27677
# Poissons Ratio (y) = 0.43481 -0.54757
# Poissons Ratio (z) = 0.30827 -0.12676
#
# Static dielectric constant tensor:
#      x y z
#    x 1.920190 0.000000 0.000000 
#    y 0.000000 1.889420 0.000000 
#    z 0.000000 0.000000 1.677820 
# 
# From -- ./inp_files/11343.got.cif
#   From: 2010.05.17/outbox.cif.g08.bks.cpg/sg74_6_cif.got.tgz:11343.got - 2010.06.03 17:57:02.
