data_PCOD9540260
_publ_section_title
;
Structure prediction by ZEFSAII (Michael W. Deem and Ramdas Pophale) SiO2 
 PCOD9540260
Probable space group: I M M A
;
_chemical_formula_sum "Si O2"
_cell_formula_units_Z 80
_cell_length_a 10.378875
_cell_length_b 22.460603
_cell_length_c 20.192214
_cell_angle_alpha 90.000000
_cell_angle_beta 90.000000
_cell_angle_gamma 90.000000
_cell_volume 4707.123938
_symmetry_space_group_name_H-M "I M M A"
_symmetry_group_IT_number 74
_symmetry_cell_setting 'orthorhombic'
loop_
_space_group_symop_operation_xyz
x,y,z
-x,1/2-y,z
x,-y,-z
-x,1/2+y,-z
-x,-y,-z
x,1/2+y,-z
-x,y,z
x,1/2-y,z
1/2+x,1/2+y,1/2+z
1/2-x,-y,1/2+z
1/2+x,1/2-y,1/2-z
1/2-x,y,1/2-z
1/2-x,1/2-y,1/2-z
1/2+x,y,1/2-z
1/2-x,1/2+y,1/2+z
1/2+x,-y,1/2+z
loop_
_atom_site_type_symbol
_atom_site_label
_atom_site_fract_x
_atom_site_fract_y
_atom_site_fract_z
Si Si1 0.000000 0.950370 0.943200
Si Si2 0.255729 0.377277 0.026941
Si Si3 0.500000 0.551947 0.178194
Si Si4 0.249703 0.878305 0.367717
Si Si5 0.850529 0.250000 0.865039
Si Si6 0.500000 0.954740 0.937170
Si Si7 0.651401 0.750000 0.526291
Si Si8 0.000000 0.955957 0.168395
O O1 0.873581 0.911701 0.953896
O O2 0.000000 0.015947 0.126172
O O3 0.000000 0.000000 0.000000
O O4 0.375693 0.412217 0.057787
O O5 0.228759 0.309031 0.046573
O O6 0.270705 0.378809 0.947126
O O7 0.625659 0.592129 0.165008
O O8 0.500000 0.496785 0.127188
O O9 0.500000 0.532019 0.253907
O O10 0.279273 0.810771 0.345508
O O11 0.374995 0.917555 0.351542
O O12 0.000000 0.250000 0.842839
O O13 0.853654 0.250000 0.945700
O O14 0.500000 0.000000 0.000000
O O15 0.000000 0.750000 0.952427
#
# Coordination Sequence:
#
# PCOD9540260 Si02
#       8
#     8  16   8  16   8   8   8   8
#     4  12  20  33  61  87 107 143 201 229 276 334
#     4  11  20  35  61  88 112 150 181 238 287 325
#     4  12  26  39  52  81 120 154 185 234 282 329
#     4  11  20  38  57  79 114 149 193 233 279 327
#     4   9  18  33  58  81 107 147 192 241 271 317
#     4  12  22  39  57  81 121 153 189 227 276 348
#     4   9  18  33  55  92 120 129 182 246 287 323
#     4  12  24  37  56  81 112 152 193 236 280 329
#
# _framework density 16.995515999999999
#
# number of rings (size 3 to 8) (size 9 to 14) (size 15 to 20)
#    0.000    1.000    6.000    2.400    0.000    0.800 
#    0.000    6.000    0.000    0.000    0.000    4.200 
#    0.000    0.000    0.000    0.000    0.000    0.000 
#
# Total GULP energy -223465.620068 kJ/mol
# GULP energy per Si atom -5586.640502 kJ/mol
# Density = 1.695683 g / cm^3
# Si number density = 16.995516 Si / 1000 Ang^3
#
#
#
# Elastic Constant Matrix: (Units=GPa)
#
#
# Indices 1 2 3 4 5 6 
#
# 1 122.6144 56.2556 3.3760 0.0000 0.0000 0.0000
# 2 56.2556 141.7946 34.0520 0.0000 0.0000 0.0000
# 3 3.3760 34.0520 65.2635 0.0000 0.0000 0.0000
# 4 0.0000 0.0000 0.0000 12.4723 0.0000 0.0000
# 5 0.0000 0.0000 0.0000 0.0000 89.1432 0.0000
# 6 0.0000 0.0000 0.0000 0.0000 0.0000 35.8864
#
#
#
# Elastic Compliance Matrix: (Units=1/GPa)
#
#
# Indices 1 2 3 4 5 6 
#
# 1 0.010153 -0.004461 0.001802 0.000000 0.000000 0.000000
# 2 -0.004461 0.010023 -0.004999 0.000000 0.000000 0.000000
# 3 0.001802 -0.004999 0.017837 0.000000 0.000000 0.000000
# 4 0.000000 0.000000 0.000000 0.080178 0.000000 0.000000
# 5 0.000000 0.000000 0.000000 0.000000 0.011218 0.000000
# 6 0.000000 0.000000 0.000000 0.000000 0.000000 0.027866
#
#
# Mechanical properties :
#
#
# Convention : Reuss Voigt Hill
#
# Bulk Modulus (GPa) = 44.05611 57.44884 50.75247
# Shear Modulus (GPa) = 27.75398 43.23298 35.49348
#
# Velocity S-wave (km/s) = 4.04545 5.04907 4.57486
# Velocity P-wave (km/s) = 6.91370 8.23811 7.60480
#
# Compressibility (1/GPa) = 0.02269833
#
# Stress axis : x y z
#
# Youngs Moduli (GPa) = 98.49664 99.77397 56.06197
#
# Poissons Ratio (x) = 0.44507 -0.10104
# Poissons Ratio (y) = 0.43937 0.28024
# Poissons Ratio (z) = -0.17752 0.49874
#
# Static dielectric constant tensor:
#      x y z
#    x 1.554990 0.000000 0.000000 
#    y 0.000000 1.559880 0.000000 
#    z 0.000000 0.000000 1.555510 
# 
# From -- ./inp_files/48676.got.cif
#   From: 2010.05.17/outbox.cif.g08.bks.cpg/sg74_25_cif.got.tgz:48676.got - 2010.06.03 17:57:02.
