data_PCOD9540261
_publ_section_title
;
Structure prediction by ZEFSAII (Michael W. Deem and Ramdas Pophale) SiO2 
 PCOD9540261
Probable space group: I M M A
;
_chemical_formula_sum "Si O2"
_cell_formula_units_Z 96
_cell_length_a 9.763848
_cell_length_b 24.972295
_cell_length_c 24.016959
_cell_angle_alpha 90.000000
_cell_angle_beta 90.000000
_cell_angle_gamma 90.000000
_cell_volume 5855.951662
_symmetry_space_group_name_H-M "I M M A"
_symmetry_group_IT_number 74
_symmetry_cell_setting 'orthorhombic'
loop_
_space_group_symop_operation_xyz
x,y,z
-x,1/2-y,z
x,-y,-z
-x,1/2+y,-z
-x,-y,-z
x,1/2+y,-z
-x,y,z
x,1/2-y,z
1/2+x,1/2+y,1/2+z
1/2-x,-y,1/2+z
1/2+x,1/2-y,1/2-z
1/2-x,y,1/2-z
1/2-x,1/2-y,1/2-z
1/2+x,y,1/2-z
1/2-x,1/2+y,1/2+z
1/2+x,-y,1/2+z
loop_
_atom_site_type_symbol
_atom_site_label
_atom_site_fract_x
_atom_site_fract_y
_atom_site_fract_z
Si Si1 0.153369 0.812208 0.485442
Si Si2 0.160736 0.410968 0.002139
Si Si3 0.162255 0.003788 0.906955
Si Si4 0.161800 0.464514 0.692771
Si Si5 0.202227 0.848856 0.362474
Si Si6 0.500000 0.191586 0.776194
Si Si7 0.500000 0.185175 0.655991
O O1 0.198419 0.750000 0.488855
O O2 0.253328 0.857165 0.509799
O O3 0.143323 0.829664 0.420783
O O4 0.000000 0.815714 0.509472
O O5 0.198351 0.444689 0.946109
O O6 0.000000 0.398599 0.997793
O O7 0.178664 0.452647 0.052800
O O8 0.000000 0.008738 0.892735
O O9 0.257086 0.999805 0.852700
O O10 0.250000 0.462592 0.750000
O O11 0.167333 0.407127 0.661348
O O12 0.000000 0.477401 0.701750
O O13 0.133084 0.814124 0.313769
O O14 0.362042 0.838205 0.368657
O O15 0.500000 0.250000 0.751956
O O16 0.500000 0.159553 0.719113
O O17 0.500000 0.250000 0.646655
#
# Coordination Sequence:
#
# PCOD9540261 Si02
#       7
#    16  16  16  16  16   8   8
#     4  11  22  35  51  73 103 138 175 219 266 308
#     4   9  19  36  57  79 102 133 172 218 271 319
#     4   9  19  37  57  79 104 132 170 220 271 319
#     4  12  24  36  54  77 102 138 177 218 265 312
#     4  12  23  35  46  66  94 130 171 217 267 306
#     4  11  20  36  48  56  83 122 170 222 267 308
#     4  11  24  34  46  62  79 120 176 226 271 312
#
# _framework density 16.393578999999999
#
# number of rings (size 3 to 8) (size 9 to 14) (size 15 to 20)
#    0.000    1.333    3.333    4.500    3.500    2.333 
#    0.000    1.667    0.000    0.000    0.000    0.000 
#    0.000    0.667    0.000    2.167    0.000    3.167 
#
# Total GULP energy -267500.571194 kJ/mol
# GULP energy per Si atom -5572.928567 kJ/mol
# Density = 1.635627 g / cm^3
# Si number density = 16.393579 Si / 1000 Ang^3
#
#
#
# Elastic Constant Matrix: (Units=GPa)
#
#
# Indices 1 2 3 4 5 6 
#
# 1 119.8389 44.9963 36.7891 0.0000 0.0000 0.0000
# 2 44.9963 81.4635 27.8441 0.0000 0.0000 0.0000
# 3 36.7891 27.8441 52.2516 0.0000 0.0000 0.0000
# 4 0.0000 0.0000 0.0000 18.2507 0.0000 0.0000
# 5 0.0000 0.0000 0.0000 0.0000 18.3067 0.0000
# 6 0.0000 0.0000 0.0000 0.0000 0.0000 29.4573
#
#
#
# Elastic Compliance Matrix: (Units=1/GPa)
#
#
# Indices 1 2 3 4 5 6 
#
# 1 0.011868 -0.004523 -0.005946 0.000000 0.000000 0.000000
# 2 -0.004523 0.016733 -0.005732 0.000000 0.000000 0.000000
# 3 -0.005946 -0.005732 0.026379 0.000000 0.000000 0.000000
# 4 0.000000 0.000000 0.000000 0.054792 0.000000 0.000000
# 5 0.000000 0.000000 0.000000 0.000000 0.054625 0.000000
# 6 0.000000 0.000000 0.000000 0.000000 0.000000 0.033947
#
#
# Mechanical properties :
#
#
# Convention : Reuss Voigt Hill
#
# Bulk Modulus (GPa) = 44.29070 52.53477 48.41274
# Shear Modulus (GPa) = 20.98433 22.79790 21.89111
#
# Velocity S-wave (km/s) = 3.58164 3.73320 3.65820
# Velocity P-wave (km/s) = 6.64680 7.12025 6.88759
#
# Compressibility (1/GPa) = 0.02257810
#
# Stress axis : x y z
#
# Youngs Moduli (GPa) = 84.25943 59.76213 37.90887
#
# Poissons Ratio (x) = 0.27031 0.22540
# Poissons Ratio (y) = 0.38111 0.21730
# Poissons Ratio (z) = 0.50099 0.34257
#
# Static dielectric constant tensor:
#      x y z
#    x 1.618810 0.000000 0.000000 
#    y 0.000000 1.575480 0.000000 
#    z 0.000000 0.000000 1.553090 
# 
# From -- ./inp_files/57557.got.cif
#   From: 2010.05.17/outbox.cif.g08.bks.cpg/sg74_29_cif.got.tgz:57557.got - 2010.06.03 17:57:02.
