data_PCOD9540426
_publ_section_title
;
Structure prediction by ZEFSAII (Michael W. Deem and Ramdas Pophale) SiO2 
 PCOD9540426
Probable space group: I M M A
;
_chemical_formula_sum "Si O2"
_cell_formula_units_Z 32
_cell_length_a 22.014975
_cell_length_b 5.320862
_cell_length_c 11.871983
_cell_angle_alpha 90.000000
_cell_angle_beta 90.000000
_cell_angle_gamma 90.000000
_cell_volume 1390.667989
_symmetry_space_group_name_H-M "I M M A"
_symmetry_group_IT_number 74
_symmetry_cell_setting 'orthorhombic'
loop_
_space_group_symop_operation_xyz
x,y,z
-x,1/2-y,z
x,-y,-z
-x,1/2+y,-z
-x,-y,-z
x,1/2+y,-z
-x,y,z
x,1/2-y,z
1/2+x,1/2+y,1/2+z
1/2-x,-y,1/2+z
1/2+x,1/2-y,1/2-z
1/2-x,y,1/2-z
1/2-x,1/2-y,1/2-z
1/2+x,y,1/2-z
1/2-x,1/2+y,1/2+z
1/2+x,-y,1/2+z
loop_
_atom_site_type_symbol
_atom_site_label
_atom_site_fract_x
_atom_site_fract_y
_atom_site_fract_z
Si Si1 0.351393 0.250000 0.187607
Si Si2 0.431556 0.250000 0.547556
Si Si3 0.280870 0.250000 0.424702
Si Si4 0.429535 0.750000 0.183397
O O1 0.328220 0.250000 0.318714
O O2 0.287730 0.250000 0.123816
O O3 0.391605 0.496635 0.158300
O O4 0.500000 0.250000 0.499137
O O5 0.403562 0.500000 0.500000
O O6 0.433522 0.250000 0.680449
O O7 0.284289 0.500000 0.500000
O O8 0.500000 0.750000 0.141636
#
# Coordination Sequence:
#
# PCOD9540426 Si02
#       4
#     8   8   8   8
#     4  11  24  41  65  97 125 163 218 258 312 387
#     4   9  17  28  43  69 108 154 196 228 275 351
#     4  11  24  44  69  93 123 164 213 275 323 358
#     4  11  22  37  59  89 131 171 200 250 316 379
#
# _framework density 23.010524
#
# number of rings (size 3 to 8) (size 9 to 14) (size 15 to 20)
#    0.000    1.500    0.000    5.250    0.000   14.000 
#    0.000    0.000    0.000   16.500    0.000    0.000 
#    0.000    0.000    0.000    0.000    0.000    0.000 
#
# Total GULP energy -89421.832207 kJ/mol
# GULP energy per Si atom -5588.864513 kJ/mol
# Density = 2.295815 g / cm^3
# Si number density = 23.010524 Si / 1000 Ang^3
#
#
#
# Elastic Constant Matrix: (Units=GPa)
#
#
# Indices 1 2 3 4 5 6 
#
# 1 232.7643 91.5632 36.0624 0.0000 0.0000 0.0000
# 2 91.5632 241.3691 27.9471 0.0000 0.0000 0.0000
# 3 36.0624 27.9471 39.4669 0.0000 0.0000 0.0000
# 4 0.0000 0.0000 0.0000 10.6888 0.0000 0.0000
# 5 0.0000 0.0000 0.0000 0.0000 32.4972 0.0000
# 6 0.0000 0.0000 0.0000 0.0000 0.0000 55.7331
#
#
#
# Elastic Compliance Matrix: (Units=1/GPa)
#
#
# Indices 1 2 3 4 5 6 
#
# 1 0.005551 -0.001654 -0.003901 0.000000 0.000000 0.000000
# 2 -0.001654 0.005006 -0.002033 0.000000 0.000000 0.000000
# 3 -0.003901 -0.002033 0.030342 0.000000 0.000000 0.000000
# 4 0.000000 0.000000 0.000000 0.093556 0.000000 0.000000
# 5 0.000000 0.000000 0.000000 0.000000 0.030772 0.000000
# 6 0.000000 0.000000 0.000000 0.000000 0.000000 0.017943
#
#
# Mechanical properties :
#
#
# Convention : Reuss Voigt Hill
#
# Bulk Modulus (GPa) = 38.87691 91.63841 65.25766
# Shear Modulus (GPa) = 24.16383 43.65234 33.90808
#
# Velocity S-wave (km/s) = 3.24407 4.36025 3.84290
# Velocity P-wave (km/s) = 5.56453 8.07837 6.93628
#
# Compressibility (1/GPa) = 0.02572221
#
# Stress axis : x y z
#
# Youngs Moduli (GPa) = 180.13791 199.76122 32.95751
#
# Poissons Ratio (x) = 0.33044 0.12857
# Poissons Ratio (y) = 0.29798 0.06701
# Poissons Ratio (z) = 0.70273 0.40618
#
# Static dielectric constant tensor:
#      x y z
#    x 1.879720 0.000000 0.000000 
#    y 0.000000 2.127220 0.000000 
#    z 0.000000 0.000000 1.857350 
# 
# From -- ./inp_files/27568.got.cif
#   From: 2010.05.17/outbox.cif.g08.bks.cpg/sg74_14_cif.got.tgz:27568.got - 2010.06.03 17:57:02.
