data_PCOD9540223
_publ_section_title
;
Structure prediction by ZEFSAII (Michael W. Deem and Ramdas Pophale) SiO2 
 PCOD9540223
Probable space group: I M M A
;
_chemical_formula_sum "Si O2"
_cell_formula_units_Z 104
_cell_length_a 8.606140
_cell_length_b 29.517694
_cell_length_c 29.589405
_cell_angle_alpha 90.000000
_cell_angle_beta 90.000000
_cell_angle_gamma 90.000000
_cell_volume 7516.697364
_symmetry_space_group_name_H-M "I M M A"
_symmetry_group_IT_number 74
_symmetry_cell_setting 'orthorhombic'
loop_
_space_group_symop_operation_xyz
x,y,z
-x,1/2-y,z
x,-y,-z
-x,1/2+y,-z
-x,-y,-z
x,1/2+y,-z
-x,y,z
x,1/2-y,z
1/2+x,1/2+y,1/2+z
1/2-x,-y,1/2+z
1/2+x,1/2-y,1/2-z
1/2-x,y,1/2-z
1/2-x,1/2-y,1/2-z
1/2+x,y,1/2-z
1/2-x,1/2+y,1/2+z
1/2+x,-y,1/2+z
loop_
_atom_site_type_symbol
_atom_site_label
_atom_site_fract_x
_atom_site_fract_y
_atom_site_fract_z
Si Si1 0.184521 0.162177 0.846949
Si Si2 0.188454 0.037228 0.603240
Si Si3 0.313685 0.696818 0.058017
Si Si4 0.185818 0.072242 0.699427
Si Si5 0.322180 0.539037 0.961673
Si Si6 0.816670 0.391868 0.971787
Si Si7 0.813572 0.750000 0.299548
O O1 0.246392 0.173693 0.896734
O O2 0.259743 0.120765 0.819825
O O3 0.238923 0.206454 0.821474
O O4 0.000000 0.156051 0.848012
O O5 0.232151 0.041307 0.656022
O O6 0.252786 0.077842 0.571021
O O7 0.000000 0.040295 0.599978
O O8 0.235830 0.989078 0.581611
O O9 0.500000 0.697425 0.060424
O O10 0.263586 0.750000 0.053182
O O11 0.258791 0.658035 0.023290
O O12 0.250000 0.063507 0.750000
O O13 0.000000 0.071450 0.702768
O O14 0.500000 0.554499 0.954267
O O15 0.327976 0.500000 0.000000
O O16 0.222711 0.578678 0.983755
O O17 0.000000 0.387177 0.965458
O O18 0.750000 0.750000 0.250000
O O19 0.000000 0.750000 0.303534
#
# Coordination Sequence:
#
# PCOD9540223 Si02
#       7
#    16  16  16  16  16  16   8
#     4  12  23  35  49  64  80 102 137 182 227 267
#     4   9  18  32  49  64  85 115 144 176 216 263
#     4  11  22  35  50  64  83 113 146 179 220 267
#     4  11  22  35  49  64  86 114 146 180 221 266
#     4   8  15  29  47  66  86 111 140 170 211 261
#     4  11  20  29  46  69  91 111 136 176 221 262
#     4  12  24  38  50  60  74  98 132 178 226 270
#
# _framework density 13.835863
#
# number of rings (size 3 to 8) (size 9 to 14) (size 15 to 20)
#    0.000    1.538    2.308    5.769    0.000    4.308 
#    0.000    0.000    0.000    0.000    0.000    0.000 
#    0.000    0.000    0.000    0.000    0.000    0.769 
#
# Total GULP energy -289622.473113 kJ/mol
# GULP energy per Si atom -5569.662944 kJ/mol
# Density = 1.380437 g / cm^3
# Si number density = 13.835863 Si / 1000 Ang^3
#
#
#
# Elastic Constant Matrix: (Units=GPa)
#
#
# Indices 1 2 3 4 5 6 
#
# 1 42.5426 20.2936 21.6432 0.0000 0.0000 0.0000
# 2 20.2936 65.1624 53.6934 0.0000 0.0000 0.0000
# 3 21.6432 53.6934 81.6482 0.0000 0.0000 0.0000
# 4 0.0000 0.0000 0.0000 28.9280 0.0000 0.0000
# 5 0.0000 0.0000 0.0000 0.0000 18.0157 0.0000
# 6 0.0000 0.0000 0.0000 0.0000 0.0000 20.0672
#
#
#
# Elastic Compliance Matrix: (Units=1/GPa)
#
#
# Indices 1 2 3 4 5 6 
#
# 1 0.028110 -0.005707 -0.003698 0.000000 0.000000 0.000000
# 2 -0.005707 0.034656 -0.021278 0.000000 0.000000 0.000000
# 3 -0.003698 -0.021278 0.027221 0.000000 0.000000 0.000000
# 4 0.000000 0.000000 0.000000 0.034569 0.000000 0.000000
# 5 0.000000 0.000000 0.000000 0.000000 0.055507 0.000000
# 6 0.000000 0.000000 0.000000 0.000000 0.000000 0.049832
#
#
# Mechanical properties :
#
#
# Convention : Reuss Voigt Hill
#
# Bulk Modulus (GPa) = 34.93985 42.29039 38.61512
# Shear Modulus (GPa) = 16.62225 19.65038 18.13631
#
# Velocity S-wave (km/s) = 3.46987 3.77271 3.62445
# Velocity P-wave (km/s) = 6.43127 7.04343 6.74430
#
# Compressibility (1/GPa) = 0.02862061
#
# Stress axis : x y z
#
# Youngs Moduli (GPa) = 35.57504 28.85464 36.73655
#
# Poissons Ratio (x) = 0.16467 0.13587
# Poissons Ratio (y) = 0.20302 0.78168
# Poissons Ratio (z) = 0.13157 0.61397
#
# Static dielectric constant tensor:
#      x y z
#    x 1.461750 0.000000 0.000000 
#    y 0.000000 1.461130 0.000000 
#    z 0.000000 0.000000 1.493690 
# 
# From -- ./inp_files/70970.got.cif
#   From: 2010.05.17/outbox.cif.g08.bks.cpg/sg74_36_cif.got.tgz:70970.got - 2010.06.03 17:57:02.
