data_PCOD9540602
_publ_section_title
;
Structure prediction by ZEFSAII (Michael W. Deem and Ramdas Pophale) SiO2 
 PCOD9540602
Probable space group: I M M A
;
_chemical_formula_sum "Si O2"
_cell_formula_units_Z 60
_cell_length_a 14.913598
_cell_length_b 18.154207
_cell_length_c 9.051689
_cell_angle_alpha 90.000000
_cell_angle_beta 90.000000
_cell_angle_gamma 90.000000
_cell_volume 2450.695422
_symmetry_space_group_name_H-M "I M M A"
_symmetry_group_IT_number 74
_symmetry_cell_setting 'orthorhombic'
loop_
_space_group_symop_operation_xyz
x,y,z
-x,1/2-y,z
x,-y,-z
-x,1/2+y,-z
-x,-y,-z
x,1/2+y,-z
-x,y,z
x,1/2-y,z
1/2+x,1/2+y,1/2+z
1/2-x,-y,1/2+z
1/2+x,1/2-y,1/2-z
1/2-x,y,1/2-z
1/2-x,1/2-y,1/2-z
1/2+x,y,1/2-z
1/2-x,1/2+y,1/2+z
1/2+x,-y,1/2+z
loop_
_atom_site_type_symbol
_atom_site_label
_atom_site_fract_x
_atom_site_fract_y
_atom_site_fract_z
Si Si1 0.849600 0.882488 0.572650
Si Si2 0.500000 0.596235 0.405603
Si Si3 0.500000 0.668925 0.711291
Si Si4 0.152935 0.460259 0.715728
Si Si5 0.298985 0.750000 0.091133
Si Si6 0.000000 0.250000 0.722749
O O1 0.916169 0.841481 0.681272
O O2 0.889831 0.916448 0.421764
O O3 0.780166 0.822008 0.510064
O O4 0.827302 0.957176 0.660342
O O5 0.500000 0.611407 0.578771
O O6 0.413221 0.551588 0.350536
O O7 0.500000 0.675983 0.322795
O O8 0.500000 0.750000 0.645911
O O9 0.250000 0.427187 0.750000
O O10 0.250000 0.750000 0.250000
O O11 0.406896 0.750000 0.128114
#
# Coordination Sequence:
#
# PCOD9540602 Si02
#       6
#    16   8   8  16   8   4
#     4  11  24  44  75 106 146 201 255 318 385 458
#     4  12  26  46  76 112 151 210 246 320 401 455
#     4  12  25  45  72 116 161 194 259 329 390 466
#     4  11  26  49  77 110 152 200 265 320 387 478
#     4  12  24  47  80 115 152 207 261 319 389 476
#     4  12  24  42  76 108 148 192 256 304 376 466
#
# _framework density 24.482848000000001
#
# number of rings (size 3 to 8) (size 9 to 14) (size 15 to 20)
#    0.000    0.533    4.667    3.200    0.000    8.533 
#    0.000    0.667    0.000    0.000    0.000    0.000 
#    0.000    0.000    0.000    0.000    0.000    0.000 
#
# Total GULP energy -167737.526230 kJ/mol
# GULP energy per Si atom -5591.250874 kJ/mol
# Density = 2.442712 g / cm^3
# Si number density = 24.482848 Si / 1000 Ang^3
#
#
#
# Elastic Constant Matrix: (Units=GPa)
#
#
# Indices 1 2 3 4 5 6 
#
# 1 107.1068 11.0926 62.9317 0.0000 0.0000 0.0000
# 2 11.0926 174.7723 65.9500 0.0000 0.0000 0.0000
# 3 62.9317 65.9500 173.0329 0.0000 0.0000 0.0000
# 4 0.0000 0.0000 0.0000 59.4529 0.0000 0.0000
# 5 0.0000 0.0000 0.0000 0.0000 -368.8142 0.0000
# 6 0.0000 0.0000 0.0000 0.0000 0.0000 15.5681
#
#
#
# Elastic Compliance Matrix: (Units=1/GPa)
#
#
# Indices 1 2 3 4 5 6 
#
# 1 0.012033 0.001037 -0.004771 0.000000 0.000000 0.000000
# 2 0.001037 0.006772 -0.002958 0.000000 0.000000 0.000000
# 3 -0.004771 -0.002958 0.008642 0.000000 0.000000 0.000000
# 4 0.000000 0.000000 0.000000 0.016820 0.000000 0.000000
# 5 0.000000 0.000000 0.000000 0.000000 -0.002711 0.000000
# 6 0.000000 0.000000 0.000000 0.000000 0.000000 0.064234
#
#
# Mechanical properties :
#
#
# Convention : Reuss Voigt Hill
#
# Bulk Modulus (GPa) = 71.11774 81.65118 76.38446
# Shear Modulus (GPa) = 40.36750 -37.76279 1.30235
#
# Velocity S-wave (km/s) = 4.06496 -3.93162 0.73014
# Velocity P-wave (km/s) = 7.15142 3.57946 5.65488
#
# Compressibility (1/GPa) = 0.01406119
#
# Stress axis : x y z
#
# Youngs Moduli (GPa) = 83.10773 147.66218 115.71261
#
# Poissons Ratio (x) = -0.15309 0.55211
# Poissons Ratio (y) = -0.08616 0.34231
# Poissons Ratio (z) = 0.39654 0.43682
#
# Static dielectric constant tensor:
#      x y z
#    x 1.930770 0.000000 0.000000 
#    y 0.000000 2.066210 0.000000 
#    z 0.000000 0.000000 1.871560 
# 
# From -- ./inp_files/10061.got.cif
#   From: 2010.05.17/outbox.cif.g08.bks.cpg/sg74_6_cif.got.tgz:10061.got - 2010.06.03 17:57:02.
