data_PCOD9540761
_publ_section_title
;
Structure prediction by ZEFSAII (Michael W. Deem and Ramdas Pophale) SiO2 
 PCOD9540761
Probable space group: I M M A
;
_chemical_formula_sum "Si O2"
_cell_formula_units_Z 80
_cell_length_a 28.702605
_cell_length_b 14.357335
_cell_length_c 10.217744
_cell_angle_alpha 90.000000
_cell_angle_beta 90.000000
_cell_angle_gamma 90.000000
_cell_volume 4210.659913
_symmetry_space_group_name_H-M "I M M A"
_symmetry_group_IT_number 74
_symmetry_cell_setting 'orthorhombic'
loop_
_space_group_symop_operation_xyz
x,y,z
-x,1/2-y,z
x,-y,-z
-x,1/2+y,-z
-x,-y,-z
x,1/2+y,-z
-x,y,z
x,1/2-y,z
1/2+x,1/2+y,1/2+z
1/2-x,-y,1/2+z
1/2+x,1/2-y,1/2-z
1/2-x,y,1/2-z
1/2-x,1/2-y,1/2-z
1/2+x,y,1/2-z
1/2-x,1/2+y,1/2+z
1/2+x,-y,1/2+z
loop_
_atom_site_type_symbol
_atom_site_label
_atom_site_fract_x
_atom_site_fract_y
_atom_site_fract_z
Si Si1 0.448427 0.979701 0.156775
Si Si2 0.291468 0.363439 0.348905
Si Si3 0.737626 0.863474 0.103161
Si Si4 0.109802 0.357185 0.268418
Si Si5 0.633698 0.643441 0.077316
O O1 0.500000 0.946670 0.195610
O O2 0.405143 0.909227 0.160782
O O3 0.432864 0.070975 0.237269
O O4 0.451108 0.000000 0.000000
O O5 0.292903 0.250000 0.343481
O O6 0.250000 0.391371 0.250000
O O7 0.274349 0.392140 0.492736
O O8 0.343202 0.391554 0.304119
O O9 0.736068 0.750000 0.093351
O O10 0.750000 0.888279 0.250000
O O11 0.685279 0.898237 0.081176
O O12 0.099701 0.250000 0.229269
O O13 0.120825 0.355654 0.423967
O O14 0.635804 0.750000 0.123203
#
# Coordination Sequence:
#
# PCOD9540761 Si02
#       5
#    16  16  16  16  16
#     4   9  18  30  44  66  97 126 159 210 258 294
#     4   9  14  24  44  69  95 126 160 190 233 291
#     4   9  16  26  44  71 100 129 158 194 239 288
#     4   9  16  27  46  68  92 126 164 199 240 297
#     4   9  16  28  46  66  93 128 161 197 245 297
#
# _framework density 18.999396000000001
#
# number of rings (size 3 to 8) (size 9 to 14) (size 15 to 20)
#    0.000    3.000    2.000    0.000    0.000    0.800 
#    0.000    5.000    0.000    0.000    0.000    2.800 
#    0.000    8.000    0.000    0.000    0.000    0.000 
#
# Total GULP energy -222823.652471 kJ/mol
# GULP energy per Si atom -5570.591312 kJ/mol
# Density = 1.895615 g / cm^3
# Si number density = 18.999396 Si / 1000 Ang^3
#
#
#
# Elastic Constant Matrix: (Units=GPa)
#
#
# Indices 1 2 3 4 5 6 
#
# 1 105.2236 39.4636 22.8009 0.0000 0.0000 0.0000
# 2 39.4636 60.9496 10.7379 0.0000 0.0000 0.0000
# 3 22.8009 10.7379 58.0696 0.0000 0.0000 0.0000
# 4 0.0000 0.0000 0.0000 -4.4902 0.0000 0.0000
# 5 0.0000 0.0000 0.0000 0.0000 12.2851 0.0000
# 6 0.0000 0.0000 0.0000 0.0000 0.0000 25.7459
#
#
#
# Elastic Compliance Matrix: (Units=1/GPa)
#
#
# Indices 1 2 3 4 5 6 
#
# 1 0.013298 -0.007949 -0.003751 0.000000 0.000000 0.000000
# 2 -0.007949 0.021711 -0.000894 0.000000 0.000000 0.000000
# 3 -0.003751 -0.000894 0.018859 0.000000 0.000000 0.000000
# 4 0.000000 0.000000 0.000000 -0.222706 0.000000 0.000000
# 5 0.000000 0.000000 0.000000 0.000000 0.081399 0.000000
# 6 0.000000 0.000000 0.000000 0.000000 0.000000 0.038841
#
#
# Mechanical properties :
#
#
# Convention : Reuss Voigt Hill
#
# Bulk Modulus (GPa) = 34.86768 41.13863 38.00315
# Shear Modulus (GPa) = -361.02217 16.79086 -172.11566
#
# Velocity S-wave (km/s) = -13.79965 2.97603 -9.52821
# Velocity P-wave (km/s) = 15.34650 5.78866 10.05004
#
# Compressibility (1/GPa) = 0.02867986
#
# Stress axis : x y z
#
# Youngs Moduli (GPa) = 75.20072 46.05899 53.02527
#
# Poissons Ratio (x) = 0.36613 0.19892
# Poissons Ratio (y) = 0.59778 0.04738
# Poissons Ratio (z) = 0.28211 0.04115
#
# Static dielectric constant tensor:
#      x y z
#    x 1.650600 0.000000 0.000000 
#    y 0.000000 1.745760 0.000000 
#    z 0.000000 0.000000 1.643770 
# 
# From -- ./inp_files/14911.got.cif
#   From: 2010.05.17/outbox.cif.g08.bks.cpg/sg74_8_cif.got.tgz:14911.got - 2010.06.03 17:57:02.
