data_PCOD9540379
_publ_section_title
;
Structure prediction by ZEFSAII (Michael W. Deem and Ramdas Pophale) SiO2 
 PCOD9540379
Probable space group: I M M A
;
_chemical_formula_sum "Si O2"
_cell_formula_units_Z 96
_cell_length_a 22.779326
_cell_length_b 18.633959
_cell_length_c 11.832267
_cell_angle_alpha 90.000000
_cell_angle_beta 90.000000
_cell_angle_gamma 90.000000
_cell_volume 5022.430858
_symmetry_space_group_name_H-M "I M M A"
_symmetry_group_IT_number 74
_symmetry_cell_setting 'orthorhombic'
loop_
_space_group_symop_operation_xyz
x,y,z
-x,1/2-y,z
x,-y,-z
-x,1/2+y,-z
-x,-y,-z
x,1/2+y,-z
-x,y,z
x,1/2-y,z
1/2+x,1/2+y,1/2+z
1/2-x,-y,1/2+z
1/2+x,1/2-y,1/2-z
1/2-x,y,1/2-z
1/2-x,1/2-y,1/2-z
1/2+x,y,1/2-z
1/2-x,1/2+y,1/2+z
1/2+x,-y,1/2+z
loop_
_atom_site_type_symbol
_atom_site_label
_atom_site_fract_x
_atom_site_fract_y
_atom_site_fract_z
Si Si1 0.500000 0.663612 0.861692
Si Si2 0.815722 0.393891 0.303823
Si Si3 0.000000 0.337280 0.102681
Si Si4 0.699457 0.569583 0.418728
Si Si5 0.118072 0.666589 0.502471
Si Si6 0.668461 0.443271 0.834872
Si Si7 0.128303 0.664461 0.921196
O O1 0.500000 0.750000 0.852460
O O2 0.500000 0.636878 0.732982
O O3 0.440792 0.645879 0.928816
O O4 0.750000 0.398747 0.250000
O O5 0.827904 0.341308 0.408382
O O6 0.834896 0.471209 0.352411
O O7 0.855447 0.368490 0.200008
O O8 0.938160 0.358557 0.048479
O O9 0.000000 0.250000 0.104003
O O10 0.693639 0.500000 0.500000
O O11 0.665432 0.563424 0.300463
O O12 0.766711 0.576397 0.380957
O O13 0.674529 0.635254 0.489423
O O14 0.113905 0.750000 0.466704
O O15 0.126527 0.610666 0.400916
O O16 0.130791 0.750000 0.911895
#
# Coordination Sequence:
#
# PCOD9540379 Si02
#       7
#     8  16   8  16  16  16  16
#     4   9  18  38  61  84 125 167 197 251 316 352
#     4  12  21  37  62  89 122 162 199 247 310 365
#     4   9  18  38  61  89 123 160 199 255 323 351
#     4  11  21  41  62  84 124 168 201 244 306 371
#     4  11  23  38  61  93 124 158 206 253 300 362
#     4  11  23  39  62  87 125 171 200 238 312 377
#     4  11  22  37  64  93 119 155 210 262 301 353
#
# _framework density 19.114249000000001
#
# number of rings (size 3 to 8) (size 9 to 14) (size 15 to 20)
#    0.000    1.167    5.000    3.000    0.000    4.000 
#    0.000    5.417    0.000    3.000    0.000    0.000 
#    0.000    0.000    0.000    0.000    0.000    0.000 
#
# Total GULP energy -267866.606929 kJ/mol
# GULP energy per Si atom -5580.554311 kJ/mol
# Density = 1.907074 g / cm^3
# Si number density = 19.114249 Si / 1000 Ang^3
#
#
#
# Elastic Constant Matrix: (Units=GPa)
#
#
# Indices 1 2 3 4 5 6 
#
# 1 57.6514 41.9861 26.2506 0.0000 0.0000 0.0000
# 2 41.9861 72.1087 22.8173 0.0000 0.0000 0.0000
# 3 26.2506 22.8173 91.1316 0.0000 0.0000 0.0000
# 4 0.0000 0.0000 0.0000 35.4849 0.0000 0.0000
# 5 0.0000 0.0000 0.0000 0.0000 15.6254 0.0000
# 6 0.0000 0.0000 0.0000 0.0000 0.0000 -78.2552
#
#
#
# Elastic Compliance Matrix: (Units=1/GPa)
#
#
# Indices 1 2 3 4 5 6 
#
# 1 0.032050 -0.017094 -0.004952 0.000000 0.000000 0.000000
# 2 -0.017094 0.024179 -0.001130 0.000000 0.000000 0.000000
# 3 -0.004952 -0.001130 0.012682 0.000000 0.000000 0.000000
# 4 0.000000 0.000000 0.000000 0.028181 0.000000 0.000000
# 5 0.000000 0.000000 0.000000 0.000000 0.063998 0.000000
# 6 0.000000 0.000000 0.000000 0.000000 0.000000 -0.012779
#
#
# Mechanical properties :
#
#
# Convention : Reuss Voigt Hill
#
# Bulk Modulus (GPa) = 44.32853 44.77777 44.55315
# Shear Modulus (GPa) = 24.72996 3.22685 13.97840
#
# Velocity S-wave (km/s) = 3.60084 1.30071 2.70720
# Velocity P-wave (km/s) = 6.36630 5.07278 5.75599
#
# Compressibility (1/GPa) = 0.02255884
#
# Stress axis : x y z
#
# Youngs Moduli (GPa) = 31.20137 41.35841 78.84928
#
# Poissons Ratio (x) = 0.70700 0.39046
# Poissons Ratio (y) = 0.53337 0.08908
# Poissons Ratio (z) = 0.15451 0.04673
#
# Static dielectric constant tensor:
#      x y z
#    x 1.693240 0.000000 0.000000 
#    y 0.000000 1.673250 0.000000 
#    z 0.000000 0.000000 1.676250 
# 
# From -- ./inp_files/25216.got.cif
#   From: 2010.05.17/outbox.cif.g08.bks.cpg/sg74_13_cif.got.tgz:25216.got - 2010.06.03 17:57:02.
