data_PCOD9540399
_publ_section_title
;
Structure prediction by ZEFSAII (Michael W. Deem and Ramdas Pophale) SiO2 
 PCOD9540399
Probable space group: I M M A
;
_chemical_formula_sum "Si O2"
_cell_formula_units_Z 80
_cell_length_a 26.784237
_cell_length_b 33.554827
_cell_length_c 5.143074
_cell_angle_alpha 90.000000
_cell_angle_beta 90.000000
_cell_angle_gamma 90.000000
_cell_volume 4622.288584
_symmetry_space_group_name_H-M "I M M A"
_symmetry_group_IT_number 74
_symmetry_cell_setting 'orthorhombic'
loop_
_space_group_symop_operation_xyz
x,y,z
-x,1/2-y,z
x,-y,-z
-x,1/2+y,-z
-x,-y,-z
x,1/2+y,-z
-x,y,z
x,1/2-y,z
1/2+x,1/2+y,1/2+z
1/2-x,-y,1/2+z
1/2+x,1/2-y,1/2-z
1/2-x,y,1/2-z
1/2-x,1/2-y,1/2-z
1/2+x,y,1/2-z
1/2-x,1/2+y,1/2+z
1/2+x,-y,1/2+z
loop_
_atom_site_type_symbol
_atom_site_label
_atom_site_fract_x
_atom_site_fract_y
_atom_site_fract_z
Si Si1 0.785723 0.706134 0.498604
Si Si2 0.442538 0.454904 0.883369
Si Si3 0.315813 0.500000 0.500000
Si Si4 0.194720 0.877851 0.626232
Si Si5 0.250000 0.433438 0.750000
Si Si6 0.117280 0.064388 0.145496
O O1 0.809890 0.750000 0.469485
O O2 0.750000 0.699647 0.250000
O O3 0.818945 0.666738 0.536798
O O4 0.750000 0.708444 0.750000
O O5 0.500000 0.447293 0.809954
O O6 0.407927 0.444172 0.634537
O O7 0.441347 0.500000 0.000000
O O8 0.423539 0.430111 0.130752
O O9 0.280027 0.463910 0.572281
O O10 0.351603 0.476657 0.299306
O O11 0.250000 0.874891 0.750000
O O12 0.207845 0.906923 0.387526
O O13 0.155571 0.899010 0.816398
#
# Coordination Sequence:
#
# PCOD9540399 Si02
#       6
#    16  16   8  16   8  16
#     4   9  18  33  53  75 104 143 180 214 261 316
#     4  11  23  40  57  74  98 135 186 237 282 321
#     4  12  22  34  47  70 102 152 185 224 258 316
#     4  11  22  34  52  79 113 144 179 220 264 322
#     4  12  22  36  45  70 112 158 185 220 256 306
#     4  12  23  36  55  77 104 141 185 225 273 322
#
# _framework density 17.307442999999999
#
# number of rings (size 3 to 8) (size 9 to 14) (size 15 to 20)
#    0.000    1.000    5.000    3.000    0.000    1.600 
#    0.000    0.000    0.000    0.000    0.000    0.000 
#    0.000    4.800    0.000    0.000    0.000    0.000 
#
# Total GULP energy -222782.617512 kJ/mol
# GULP energy per Si atom -5569.565438 kJ/mol
# Density = 1.726805 g / cm^3
# Si number density = 17.307443 Si / 1000 Ang^3
#
#
#
# Elastic Constant Matrix: (Units=GPa)
#
#
# Indices 1 2 3 4 5 6 
#
# 1 79.1133 39.5074 30.4688 0.0000 0.0000 0.0000
# 2 39.5074 144.0591 31.6877 0.0000 0.0000 0.0000
# 3 30.4688 31.6877 102.5016 0.0000 0.0000 0.0000
# 4 0.0000 0.0000 0.0000 22.1271 0.0000 0.0000
# 5 0.0000 0.0000 0.0000 0.0000 25.3452 0.0000
# 6 0.0000 0.0000 0.0000 0.0000 0.0000 31.7792
#
#
#
# Elastic Compliance Matrix: (Units=1/GPa)
#
#
# Indices 1 2 3 4 5 6 
#
# 1 0.015794 -0.003539 -0.003601 0.000000 0.000000 0.000000
# 2 -0.003539 0.008241 -0.001496 0.000000 0.000000 0.000000
# 3 -0.003601 -0.001496 0.011289 0.000000 0.000000 0.000000
# 4 0.000000 0.000000 0.000000 0.045193 0.000000 0.000000
# 5 0.000000 0.000000 0.000000 0.000000 0.039455 0.000000
# 6 0.000000 0.000000 0.000000 0.000000 0.000000 0.031467
#
#
# Mechanical properties :
#
#
# Convention : Reuss Voigt Hill
#
# Bulk Modulus (GPa) = 55.39353 58.77796 57.08574
# Shear Modulus (GPa) = 28.61571 30.78431 29.70001
#
# Velocity S-wave (km/s) = 4.07058 4.22201 4.14699
# Velocity P-wave (km/s) = 7.35989 7.60276 7.48231
#
# Compressibility (1/GPa) = 0.01805265
#
# Stress axis : x y z
#
# Youngs Moduli (GPa) = 63.31365 121.34063 88.58481
#
# Poissons Ratio (x) = 0.42948 0.31897
# Poissons Ratio (y) = 0.22410 0.13249
# Poissons Ratio (z) = 0.22797 0.18148
#
# Static dielectric constant tensor:
#      x y z
#    x 1.631100 0.000000 0.000000 
#    y 0.000000 1.659610 0.000000 
#    z 0.000000 0.000000 1.683350 
# 
# From -- ./inp_files/4596.got.cif
#   From: 2010.05.17/outbox.cif.g08.bks.cpg/sg74_3_cif.got.tgz:4596.got - 2010.06.03 17:57:02.
