data_PCOD9540031
_publ_section_title
;
Structure prediction by ZEFSAII (Michael W. Deem and Ramdas Pophale) SiO2 
 PCOD9540031
Probable space group: I M M A
;
_chemical_formula_sum "Si O2"
_cell_formula_units_Z 80
_cell_length_a 14.740548
_cell_length_b 16.192966
_cell_length_c 16.030104
_cell_angle_alpha 90.000000
_cell_angle_beta 90.000000
_cell_angle_gamma 90.000000
_cell_volume 3826.276701
_symmetry_space_group_name_H-M "I M M A"
_symmetry_group_IT_number 74
_symmetry_cell_setting 'orthorhombic'
loop_
_space_group_symop_operation_xyz
x,y,z
-x,1/2-y,z
x,-y,-z
-x,1/2+y,-z
-x,-y,-z
x,1/2+y,-z
-x,y,z
x,1/2-y,z
1/2+x,1/2+y,1/2+z
1/2-x,-y,1/2+z
1/2+x,1/2-y,1/2-z
1/2-x,y,1/2-z
1/2-x,1/2-y,1/2-z
1/2+x,y,1/2-z
1/2-x,1/2+y,1/2+z
1/2+x,-y,1/2+z
loop_
_atom_site_type_symbol
_atom_site_label
_atom_site_fract_x
_atom_site_fract_y
_atom_site_fract_z
Si Si1 0.850693 0.843421 0.788901
Si Si2 0.108106 0.658673 0.487819
Si Si3 0.103928 0.002003 0.099777
Si Si4 0.899475 0.951369 0.642819
Si Si5 0.230954 0.601845 0.338786
O O1 0.875101 0.750000 0.813127
O O2 0.750000 0.842713 0.750000
O O3 0.862925 0.910165 0.862453
O O4 0.905120 0.879276 0.710539
O O5 0.122562 0.750000 0.524917
O O6 0.130554 0.588490 0.555360
O O7 0.172301 0.649258 0.407832
O O8 0.000000 0.652521 0.469017
O O9 0.000000 0.989284 0.129107
O O10 0.173189 0.931344 0.128096
O O11 0.104280 0.000000 0.000000
O O12 0.000000 0.987146 0.631010
O O13 0.830415 0.019677 0.675405
O O14 0.250000 0.643401 0.250000
#
# Coordination Sequence:
#
# PCOD9540031 Si02
#       5
#    16  16  16  16  16
#     4  11  22  38  62  95 128 161 200 253 320 378
#     4  10  23  41  64  95 127 159 200 255 318 377
#     4  11  23  40  59  83 120 169 217 254 292 353
#     4  11  20  37  64  96 127 157 193 249 320 384
#     4  12  23  39  62  90 121 165 207 252 303 362
#
# _framework density 20.908055000000001
#
# number of rings (size 3 to 8) (size 9 to 14) (size 15 to 20)
#    0.000    1.000    4.000    3.600    0.000    5.200 
#    0.000    0.000    0.000    1.800    0.000    0.000 
#    0.000    0.000    0.000    0.000    0.000    0.000 
#
# Total GULP energy -223480.026810 kJ/mol
# GULP energy per Si atom -5587.000670 kJ/mol
# Density = 2.086047 g / cm^3
# Si number density = 20.908055 Si / 1000 Ang^3
#
#
#
# Elastic Constant Matrix: (Units=GPa)
#
#
# Indices 1 2 3 4 5 6 
#
# 1 99.3584 7.7330 14.1838 0.0000 0.0000 0.0000
# 2 7.7330 68.1669 19.3599 0.0000 0.0000 0.0000
# 3 14.1838 19.3599 106.1730 0.0000 0.0000 0.0000
# 4 0.0000 0.0000 0.0000 28.0445 0.0000 0.0000
# 5 0.0000 0.0000 0.0000 0.0000 178.2682 0.0000
# 6 0.0000 0.0000 0.0000 0.0000 0.0000 8.5505
#
#
#
# Elastic Compliance Matrix: (Units=1/GPa)
#
#
# Indices 1 2 3 4 5 6 
#
# 1 0.010304 -0.000820 -0.001227 0.000000 0.000000 0.000000
# 2 -0.000820 0.015536 -0.002723 0.000000 0.000000 0.000000
# 3 -0.001227 -0.002723 0.010079 0.000000 0.000000 0.000000
# 4 0.000000 0.000000 0.000000 0.035658 0.000000 0.000000
# 5 0.000000 0.000000 0.000000 0.000000 0.005610 0.000000
# 6 0.000000 0.000000 0.000000 0.000000 0.000000 0.116952
#
#
# Mechanical properties :
#
#
# Convention : Reuss Voigt Hill
#
# Bulk Modulus (GPa) = 37.91072 39.58352 38.74712
# Shear Modulus (GPa) = 23.53247 58.46742 40.99994
#
# Velocity S-wave (km/s) = 3.35852 5.29384 4.43308
# Velocity P-wave (km/s) = 5.76290 7.50597 6.69144
#
# Compressibility (1/GPa) = 0.02637776
#
# Stress axis : x y z
#
# Youngs Moduli (GPa) = 97.05382 64.36497 99.21545
#
# Poissons Ratio (x) = 0.05281 0.12172
# Poissons Ratio (y) = 0.07962 0.27020
# Poissons Ratio (z) = 0.11907 0.17529
#
# Static dielectric constant tensor:
#      x y z
#    x 1.807800 0.000000 0.000000 
#    y 0.000000 1.748210 0.000000 
#    z 0.000000 0.000000 1.748140 
# 
# From -- ./inp_files/33963.got.cif
#   From: 2010.05.17/outbox.cif.g08.bks.cpg/sg74_17_cif.got.tgz:33963.got - 2010.06.03 17:57:02.
