data_PCOD9540244
_publ_section_title
;
Structure prediction by ZEFSAII (Michael W. Deem and Ramdas Pophale) SiO2 
 PCOD9540244
Probable space group: I M M A
;
_chemical_formula_sum "Si O2"
_cell_formula_units_Z 64
_cell_length_a 24.356312
_cell_length_b 7.905701
_cell_length_c 17.382209
_cell_angle_alpha 90.000000
_cell_angle_beta 90.000000
_cell_angle_gamma 90.000000
_cell_volume 3347.009007
_symmetry_space_group_name_H-M "I M M A"
_symmetry_group_IT_number 74
_symmetry_cell_setting 'orthorhombic'
loop_
_space_group_symop_operation_xyz
x,y,z
-x,1/2-y,z
x,-y,-z
-x,1/2+y,-z
-x,-y,-z
x,1/2+y,-z
-x,y,z
x,1/2-y,z
1/2+x,1/2+y,1/2+z
1/2-x,-y,1/2+z
1/2+x,1/2-y,1/2-z
1/2-x,y,1/2-z
1/2-x,1/2-y,1/2-z
1/2+x,y,1/2-z
1/2-x,1/2+y,1/2+z
1/2+x,-y,1/2+z
loop_
_atom_site_type_symbol
_atom_site_label
_atom_site_fract_x
_atom_site_fract_y
_atom_site_fract_z
Si Si1 0.938362 0.750000 0.697861
Si Si2 0.659264 0.054962 0.215128
Si Si3 0.562879 0.750000 0.613880
Si Si4 0.359938 0.436753 0.615592
Si Si5 0.739053 0.952545 0.918579
O O1 0.900192 0.909801 0.676590
O O2 0.939694 0.750000 0.791837
O O3 0.000000 0.750000 0.669360
O O4 0.676304 0.250000 0.238114
O O5 0.703282 0.990044 0.154553
O O6 0.650067 0.952870 0.292421
O O7 0.500000 0.750000 0.586223
O O8 0.597903 0.584091 0.592660
O O9 0.379926 0.250000 0.595541
O O10 0.299396 0.468016 0.582840
O O11 0.743947 0.750000 0.913419
O O12 0.712562 0.000000 0.000000
#
# Coordination Sequence:
#
# PCOD9540244 Si02
#       5
#     8  16   8  16  16
#     4   7  12  27  53  77  97 136 177 212 262 309
#     4   8  17  32  51  76 107 141 174 222 266 314
#     4   9  18  35  55  79 111 138 173 222 264 309
#     4  11  20  33  56  82 107 142 178 217 267 323
#     4  11  21  34  50  75 108 143 179 224 273 323
#
# _framework density 19.121551
#
# number of rings (size 3 to 8) (size 9 to 14) (size 15 to 20)
#    0.750    1.750    2.500    1.500    0.000    5.500 
#    0.000    0.000    0.000    1.500    0.000    0.000 
#    0.000    0.000    0.000    0.000    0.000    0.000 
#
# Total GULP energy -178313.711988 kJ/mol
# GULP energy per Si atom -5572.303500 kJ/mol
# Density = 1.907803 g / cm^3
# Si number density = 19.121551 Si / 1000 Ang^3
#
#
#
# Elastic Constant Matrix: (Units=GPa)
#
#
# Indices 1 2 3 4 5 6 
#
# 1 115.9583 32.2473 24.3342 0.0000 0.0000 0.0000
# 2 32.2473 106.9142 17.4811 0.0000 0.0000 0.0000
# 3 24.3342 17.4811 50.2984 0.0000 0.0000 0.0000
# 4 0.0000 0.0000 0.0000 16.9619 0.0000 0.0000
# 5 0.0000 0.0000 0.0000 0.0000 -8.1850 0.0000
# 6 0.0000 0.0000 0.0000 0.0000 0.0000 -0.4885
#
#
#
# Elastic Compliance Matrix: (Units=1/GPa)
#
#
# Indices 1 2 3 4 5 6 
#
# 1 0.010145 -0.002393 -0.004076 0.000000 0.000000 0.000000
# 2 -0.002393 0.010481 -0.002485 0.000000 0.000000 0.000000
# 3 -0.004076 -0.002485 0.022717 0.000000 0.000000 0.000000
# 4 0.000000 0.000000 0.000000 0.058956 0.000000 0.000000
# 5 0.000000 0.000000 0.000000 0.000000 -0.122175 0.000000
# 6 0.000000 0.000000 0.000000 0.000000 0.000000 -2.046909
#
#
# Mechanical properties :
#
#
# Convention : Reuss Voigt Hill
#
# Bulk Modulus (GPa) = 39.31693 46.81066 43.06379
# Shear Modulus (GPa) = -2.45050 14.93156 6.24053
#
# Velocity S-wave (km/s) = -1.13328 2.79745 1.80851
# Velocity P-wave (km/s) = 4.34670 5.91337 5.18950
#
# Compressibility (1/GPa) = 0.02543434
#
# Stress axis : x y z
#
# Youngs Moduli (GPa) = 98.57293 95.40648 44.01984
#
# Poissons Ratio (x) = 0.22834 0.17943
# Poissons Ratio (y) = 0.23592 0.10939
# Poissons Ratio (z) = 0.40180 0.23708
#
# Static dielectric constant tensor:
#      x y z
#    x 1.680760 0.000000 0.000000 
#    y 0.000000 1.696460 0.000000 
#    z 0.000000 0.000000 1.674200 
# 
# From -- ./inp_files/35990.got.cif
#   From: 2010.05.17/outbox.cif.g08.bks.cpg/sg74_18_cif.got.tgz:35990.got - 2010.06.03 17:57:02.
