data_PCOD9540196
_publ_section_title
;
Structure prediction by ZEFSAII (Michael W. Deem and Ramdas Pophale) SiO2 
 PCOD9540196
Probable space group: I M M A
;
_chemical_formula_sum "Si O2"
_cell_formula_units_Z 76
_cell_length_a 19.151935
_cell_length_b 13.442538
_cell_length_c 17.150094
_cell_angle_alpha 90.000000
_cell_angle_beta 90.000000
_cell_angle_gamma 90.000000
_cell_volume 4415.302231
_symmetry_space_group_name_H-M "I M M A"
_symmetry_group_IT_number 74
_symmetry_cell_setting 'orthorhombic'
loop_
_space_group_symop_operation_xyz
x,y,z
-x,1/2-y,z
x,-y,-z
-x,1/2+y,-z
-x,-y,-z
x,1/2+y,-z
-x,y,z
x,1/2-y,z
1/2+x,1/2+y,1/2+z
1/2-x,-y,1/2+z
1/2+x,1/2-y,1/2-z
1/2-x,y,1/2-z
1/2-x,1/2-y,1/2-z
1/2+x,y,1/2-z
1/2-x,1/2+y,1/2+z
1/2+x,-y,1/2+z
loop_
_atom_site_type_symbol
_atom_site_label
_atom_site_fract_x
_atom_site_fract_y
_atom_site_fract_z
Si Si1 0.674958 0.358105 0.794388
Si Si2 0.500000 0.966903 0.589775
Si Si3 0.363518 0.028221 0.313869
Si Si4 0.339727 0.250000 0.494029
Si Si5 0.000000 0.750000 0.961092
Si Si6 0.180573 0.250000 0.193998
Si Si7 0.243900 0.930789 0.069745
O O1 0.641324 0.250000 0.782001
O O2 0.750000 0.353892 0.750000
O O3 0.636931 0.452543 0.758107
O O4 0.694822 0.376787 0.883621
O O5 0.430388 0.996712 0.633872
O O6 0.500000 0.848058 0.589795
O O7 0.500000 0.000000 0.500000
O O8 0.357391 0.143998 0.290455
O O9 0.297352 0.999865 0.368261
O O10 0.424181 0.250000 0.502614
O O11 0.316640 0.250000 0.402216
O O12 0.308302 0.152512 0.535359
O O13 0.250000 0.250000 0.250000
O O14 0.268466 0.000000 0.000000
#
# Coordination Sequence:
#
# PCOD9540196 Si02
#       7
#    16   8  16   8   4   8  16
#     4   9  19  35  52  72 107 143 185 234 279 322
#     4  12  22  38  52  80 113 153 195 215 265 345
#     4  11  22  35  53  76 111 149 184 228 278 333
#     4  12  22  32  53  78 112 151 186 224 283 328
#     4  12  20  36  48  74 120 156 174 220 260 336
#     4  12  22  36  52  79 112 146 187 234 284 327
#     4  11  19  33  52  81 106 140 186 231 279 333
#
# _framework density 17.212864
#
# number of rings (size 3 to 8) (size 9 to 14) (size 15 to 20)
#    0.000    1.053    5.263    3.789    1.474    0.000 
#    1.895    0.000    0.000    0.000    0.000    0.737 
#    0.000    0.000    0.000    0.000    0.000    0.000 
#
# Total GULP energy -211795.813865 kJ/mol
# GULP energy per Si atom -5573.574049 kJ/mol
# Density = 1.717369 g / cm^3
# Si number density = 17.212864 Si / 1000 Ang^3
#
#
#
# Elastic Constant Matrix: (Units=GPa)
#
#
# Indices 1 2 3 4 5 6 
#
# 1 50.3992 24.1088 33.5640 0.0000 0.0000 0.0000
# 2 24.1088 133.2443 46.7144 0.0000 0.0000 0.0000
# 3 33.5640 46.7144 83.8540 0.0000 0.0000 0.0000
# 4 0.0000 0.0000 0.0000 27.0465 0.0000 0.0000
# 5 0.0000 0.0000 0.0000 0.0000 24.7249 0.0000
# 6 0.0000 0.0000 0.0000 0.0000 0.0000 13.5897
#
#
#
# Elastic Compliance Matrix: (Units=1/GPa)
#
#
# Indices 1 2 3 4 5 6 
#
# 1 0.027254 -0.001375 -0.010143 0.000000 0.000000 0.000000
# 2 -0.001375 0.009396 -0.004684 0.000000 0.000000 0.000000
# 3 -0.010143 -0.004684 0.018595 0.000000 0.000000 0.000000
# 4 0.000000 0.000000 0.000000 0.036973 0.000000 0.000000
# 5 0.000000 0.000000 0.000000 0.000000 0.040445 0.000000
# 6 0.000000 0.000000 0.000000 0.000000 0.000000 0.073585
#
#
# Mechanical properties :
#
#
# Convention : Reuss Voigt Hill
#
# Bulk Modulus (GPa) = 43.78124 52.91909 48.35016
# Shear Modulus (GPa) = 20.30324 23.94624 22.12474
#
# Velocity S-wave (km/s) = 3.43817 3.73390 3.58908
# Velocity P-wave (km/s) = 6.42275 7.02852 6.73245
#
# Compressibility (1/GPa) = 0.02284084
#
# Stress axis : x y z
#
# Youngs Moduli (GPa) = 36.69158 106.42815 53.77880
#
# Poissons Ratio (x) = 0.14637 0.54547
# Poissons Ratio (y) = 0.05046 0.25190
# Poissons Ratio (z) = 0.37215 0.49850
#
# Static dielectric constant tensor:
#      x y z
#    x 1.603250 0.000000 0.000000 
#    y 0.000000 1.630840 0.000000 
#    z 0.000000 0.000000 1.598920 
# 
# From -- ./inp_files/35115.got.cif
#   From: 2010.05.17/outbox.cif.g08.bks.cpg/sg74_18_cif.got.tgz:35115.got - 2010.06.03 17:57:02.
