data_PCOD9540637
_publ_section_title
;
Structure prediction by ZEFSAII (Michael W. Deem and Ramdas Pophale) SiO2 
 PCOD9540637
Probable space group: I M M A
;
_chemical_formula_sum "Si O2"
_cell_formula_units_Z 60
_cell_length_a 14.279237
_cell_length_b 7.213412
_cell_length_c 22.146339
_cell_angle_alpha 90.000000
_cell_angle_beta 90.000000
_cell_angle_gamma 90.000000
_cell_volume 2281.117642
_symmetry_space_group_name_H-M "I M M A"
_symmetry_group_IT_number 74
_symmetry_cell_setting 'orthorhombic'
loop_
_space_group_symop_operation_xyz
x,y,z
-x,1/2-y,z
x,-y,-z
-x,1/2+y,-z
-x,-y,-z
x,1/2+y,-z
-x,y,z
x,1/2-y,z
1/2+x,1/2+y,1/2+z
1/2-x,-y,1/2+z
1/2+x,1/2-y,1/2-z
1/2-x,y,1/2-z
1/2-x,1/2-y,1/2-z
1/2+x,y,1/2-z
1/2-x,1/2+y,1/2+z
1/2+x,-y,1/2+z
loop_
_atom_site_type_symbol
_atom_site_label
_atom_site_fract_x
_atom_site_fract_y
_atom_site_fract_z
Si Si1 0.205420 0.529106 0.571838
Si Si2 0.750000 0.750000 0.250000
Si Si3 0.000000 0.029282 0.427290
Si Si4 0.104908 0.530363 0.729872
Si Si5 0.898667 0.025979 0.127296
O O1 0.207641 0.500000 0.500000
O O2 0.204681 0.750000 0.584212
O O3 0.304287 0.457265 0.596639
O O4 0.102620 0.460434 0.592787
O O5 0.807198 0.588837 0.288495
O O6 0.000000 0.250000 0.415846
O O7 0.000000 0.000000 0.500000
O O8 0.120163 0.750000 0.723570
O O9 0.101811 0.479489 0.801629
O O10 0.000000 0.489665 0.706884
O O11 0.898319 0.250000 0.124138
O O12 0.000000 0.964597 0.102342
#
# Coordination Sequence:
#
# PCOD9540637 Si02
#       5
#    16   4   8  16  16
#     4   9  16  27  44  67  95 130 173 215 259 306
#     4  12  20  32  60  88 108 132 188 240 276 332
#     4   8  14  24  40  60  84 120 164 204 248 304
#     4   9  19  36  57  81 110 148 183 219 281 349
#     4   8  15  30  50  69  97 136 175 212 259 325
#
# _framework density 26.302897000000002
#
# number of rings (size 3 to 8) (size 9 to 14) (size 15 to 20)
#    0.000    3.200    0.000    2.400    0.000    0.533 
#    2.400    0.000    5.867    0.000    0.000    0.000 
#    0.000    0.000    0.000    0.000    0.000    0.000 
#
# Total GULP energy -167241.832101 kJ/mol
# GULP energy per Si atom -5574.727737 kJ/mol
# Density = 2.624303 g / cm^3
# Si number density = 26.302897 Si / 1000 Ang^3
#
#
#
# Elastic Constant Matrix: (Units=GPa)
#
#
# Indices 1 2 3 4 5 6 
#
# 1 310.0022 28.3259 93.1084 0.0000 0.0000 0.0000
# 2 28.3259 124.6758 -8.7344 0.0000 0.0000 0.0000
# 3 93.1084 -8.7344 84.0248 0.0000 0.0000 0.0000
# 4 0.0000 0.0000 0.0000 -291.1111 0.0000 0.0000
# 5 0.0000 0.0000 0.0000 0.0000 58.5643 0.0000
# 6 0.0000 0.0000 0.0000 0.0000 0.0000 -202.9119
#
#
#
# Elastic Compliance Matrix: (Units=1/GPa)
#
#
# Indices 1 2 3 4 5 6 
#
# 1 0.005124 -0.001573 -0.005842 0.000000 0.000000 0.000000
# 2 -0.001573 0.008563 0.002634 0.000000 0.000000 0.000000
# 3 -0.005842 0.002634 0.018648 0.000000 0.000000 0.000000
# 4 0.000000 0.000000 0.000000 -0.003435 0.000000 0.000000
# 5 0.000000 0.000000 0.000000 0.000000 0.017075 0.000000
# 6 0.000000 0.000000 0.000000 0.000000 0.000000 -0.004928
#
#
# Mechanical properties :
#
#
# Convention : Reuss Voigt Hill
#
# Bulk Modulus (GPa) = 43.91319 82.67806 63.29562
# Shear Modulus (GPa) = 85.91040 -60.02488 12.94276
#
# Velocity S-wave (km/s) = 5.72126 -4.78228 2.22066
# Velocity P-wave (km/s) = 7.77015 1.00386 5.53999
#
# Compressibility (1/GPa) = 0.02277220
#
# Stress axis : x y z
#
# Youngs Moduli (GPa) = 195.15840 116.78452 53.62489
#
# Poissons Ratio (x) = 0.18375 0.31325
# Poissons Ratio (y) = 0.30706 -0.14123
# Poissons Ratio (z) = 1.14003 -0.30756
#
# Static dielectric constant tensor:
#      x y z
#    x 2.185220 0.000000 0.000000 
#    y 0.000000 1.999050 0.000000 
#    z 0.000000 0.000000 2.131740 
# 
# From -- ./inp_files/71230.got.cif
#   From: 2010.05.17/outbox.cif.g08.bks.cpg/sg74_36_cif.got.tgz:71230.got - 2010.06.03 17:57:02.
