data_PCOD9540705
_publ_section_title
;
Structure prediction by ZEFSAII (Michael W. Deem and Ramdas Pophale) SiO2 
 PCOD9540705
Probable space group: I M M A
;
_chemical_formula_sum "Si O2"
_cell_formula_units_Z 72
_cell_length_a 7.279512
_cell_length_b 11.139809
_cell_length_c 38.666163
_cell_angle_alpha 90.000000
_cell_angle_beta 90.000000
_cell_angle_gamma 90.000000
_cell_volume 3135.530924
_symmetry_space_group_name_H-M "I M M A"
_symmetry_group_IT_number 74
_symmetry_cell_setting 'orthorhombic'
loop_
_space_group_symop_operation_xyz
x,y,z
-x,1/2-y,z
x,-y,-z
-x,1/2+y,-z
-x,-y,-z
x,1/2+y,-z
-x,y,z
x,1/2-y,z
1/2+x,1/2+y,1/2+z
1/2-x,-y,1/2+z
1/2+x,1/2-y,1/2-z
1/2-x,y,1/2-z
1/2-x,1/2-y,1/2-z
1/2+x,y,1/2-z
1/2-x,1/2+y,1/2+z
1/2+x,-y,1/2+z
loop_
_atom_site_type_symbol
_atom_site_label
_atom_site_fract_x
_atom_site_fract_y
_atom_site_fract_z
Si Si1 0.723239 0.117927 0.101469
Si Si2 0.224046 0.620512 0.359328
Si Si3 0.217947 0.750000 0.708691
Si Si4 0.781027 0.512747 0.290466
Si Si5 0.723282 0.617308 0.979388
O O1 0.500000 0.118138 0.103400
O O2 0.781551 0.250000 0.114770
O O3 0.772959 0.109727 0.061045
O O4 0.785775 0.998876 0.120971
O O5 0.283631 0.750000 0.373100
O O6 0.279571 0.606231 0.319194
O O7 0.000000 0.620071 0.360916
O O8 0.250000 0.750000 0.750000
O O9 0.290491 0.880442 0.698590
O O10 0.000000 0.750000 0.700850
O O11 0.750000 0.537483 0.250000
O O12 0.000000 0.505204 0.293478
O O13 0.500000 0.616381 0.980747
O O14 0.780701 0.750000 0.992302
O O15 0.786572 0.500000 0.000000
#
# Coordination Sequence:
#
# PCOD9540705 Si02
#       5
#    16  16   8  16  16
#     4   8  14  23  34  47  65  91 123 157 193 233
#     4   9  17  26  36  52  72  94 123 159 199 239
#     4   8  14  24  38  56  74  94 122 156 194 234
#     4   9  17  28  42  59  79 102 131 167 206 246
#     4   8  13  20  29  43  62  86 117 152 189 227
#
# _framework density 22.962619
#
# number of rings (size 3 to 8) (size 9 to 14) (size 15 to 20)
#    0.000    3.556    0.000    1.333    1.556    1.333 
#    0.000    4.444    0.000    0.000    0.000    0.000 
#    0.000    0.000    0.000    0.000    0.000    1.111 
#
# Total GULP energy -200730.873437 kJ/mol
# GULP energy per Si atom -5575.857595 kJ/mol
# Density = 2.291035 g / cm^3
# Si number density = 22.962619 Si / 1000 Ang^3
#
#
#
# Elastic Constant Matrix: (Units=GPa)
#
#
# Indices 1 2 3 4 5 6 
#
# 1 97.8111 6.0141 -1.9761 0.0000 0.0000 0.0000
# 2 6.0141 251.7771 99.3678 0.0000 0.0000 0.0000
# 3 -1.9761 99.3678 76.0736 0.0000 0.0000 0.0000
# 4 0.0000 0.0000 0.0000 36.5302 0.0000 0.0000
# 5 0.0000 0.0000 0.0000 0.0000 -9.8339 0.0000
# 6 0.0000 0.0000 0.0000 0.0000 0.0000 -5.0362
#
#
#
# Elastic Compliance Matrix: (Units=1/GPa)
#
#
# Indices 1 2 3 4 5 6 
#
# 1 0.010293 -0.000725 0.001215 0.000000 0.000000 0.000000
# 2 -0.000725 0.008249 -0.010794 0.000000 0.000000 0.000000
# 3 0.001215 -0.010794 0.027276 0.000000 0.000000 0.000000
# 4 0.000000 0.000000 0.000000 0.027375 0.000000 0.000000
# 5 0.000000 0.000000 0.000000 0.000000 -0.101689 0.000000
# 6 0.000000 0.000000 0.000000 0.000000 0.000000 -0.198561
#
#
# Mechanical properties :
#
#
# Convention : Reuss Voigt Hill
#
# Bulk Modulus (GPa) = 39.66847 70.27480 54.97164
# Shear Modulus (GPa) = -25.24669 25.81574 0.28453
#
# Velocity S-wave (km/s) = -3.31942 3.35662 0.35239
# Velocity P-wave (km/s) = 1.61905 6.75966 4.91499
#
# Compressibility (1/GPa) = 0.02520894
#
# Stress axis : x y z
#
# Youngs Moduli (GPa) = 97.15412 121.22661 36.66282
#
# Poissons Ratio (x) = 0.08792 -0.04454
# Poissons Ratio (y) = 0.07046 0.39573
# Poissons Ratio (z) = -0.11802 1.30849
#
# Static dielectric constant tensor:
#      x y z
#    x 1.902330 0.000000 0.000000 
#    y 0.000000 1.874500 0.000000 
#    z 0.000000 0.000000 1.816800 
# 
# From -- ./inp_files/71418.got.cif
#   From: 2010.05.17/outbox.cif.g08.bks.cpg/sg74_36_cif.got.tgz:71418.got - 2010.06.03 17:57:02.
