data_PCOD9540423
_publ_section_title
;
Structure prediction by ZEFSAII (Michael W. Deem and Ramdas Pophale) SiO2 
 PCOD9540423
Probable space group: I M M A
;
_chemical_formula_sum "Si O2"
_cell_formula_units_Z 100
_cell_length_a 14.736750
_cell_length_b 21.255925
_cell_length_c 18.425175
_cell_angle_alpha 90.000000
_cell_angle_beta 90.000000
_cell_angle_gamma 90.000000
_cell_volume 5771.561749
_symmetry_space_group_name_H-M "I M M A"
_symmetry_group_IT_number 74
_symmetry_cell_setting 'orthorhombic'
loop_
_space_group_symop_operation_xyz
x,y,z
-x,1/2-y,z
x,-y,-z
-x,1/2+y,-z
-x,-y,-z
x,1/2+y,-z
-x,y,z
x,1/2-y,z
1/2+x,1/2+y,1/2+z
1/2-x,-y,1/2+z
1/2+x,1/2-y,1/2-z
1/2-x,y,1/2-z
1/2-x,1/2-y,1/2-z
1/2+x,y,1/2-z
1/2-x,1/2+y,1/2+z
1/2+x,-y,1/2+z
loop_
_atom_site_type_symbol
_atom_site_label
_atom_site_fract_x
_atom_site_fract_y
_atom_site_fract_z
Si Si1 0.848690 0.675971 0.417976
Si Si2 0.500000 0.750000 0.350187
Si Si3 0.604677 0.088748 0.790108
Si Si4 0.151322 0.356124 0.860364
Si Si5 0.223543 0.532722 0.669210
Si Si6 0.608494 0.568765 0.962846
Si Si7 0.898260 0.514359 0.083847
O O1 0.870677 0.750000 0.430423
O O2 0.898066 0.644862 0.348623
O O3 0.743861 0.669428 0.393950
O O4 0.868701 0.627296 0.483814
O O5 0.578270 0.803337 0.351120
O O6 0.500000 0.071233 0.773022
O O7 0.656324 0.112109 0.718788
O O8 0.660984 0.029784 0.820898
O O9 0.113266 0.411222 0.910055
O O10 0.250000 0.556364 0.750000
O O11 0.165574 0.573415 0.611665
O O12 0.318454 0.515869 0.630810
O O13 0.500000 0.568272 0.949756
O O14 0.630514 0.500000 0.000000
O O15 0.000000 0.495702 0.107149
O O16 0.886192 0.500000 0.000000
#
# Coordination Sequence:
#
# PCOD9540423 Si02
#       7
#    16   4  16  16  16  16  16
#     4  12  25  38  60  87 121 162 207 248 300 359
#     4  12  24  36  56  76 122 178 210 236 290 356
#     4  12  23  35  56  85 125 165 204 246 289 358
#     4  12  22  39  53  82 122 166 204 243 292 352
#     4  12  22  37  62  89 115 155 201 251 302 361
#     4  11  23  42  63  87 122 162 200 250 308 361
#     4  11  22  37  58  83 115 152 197 252 299 347
#
# _framework density 17.326332000000001
#
# number of rings (size 3 to 8) (size 9 to 14) (size 15 to 20)
#    0.000    0.320    7.200    2.880    1.120    2.560 
#    0.000    0.000    0.000    0.480    0.000    0.000 
#    0.000    0.000    0.000    0.000    0.000    0.000 
#
# Total GULP energy -278616.636634 kJ/mol
# GULP energy per Si atom -5572.332733 kJ/mol
# Density = 1.728690 g / cm^3
# Si number density = 17.326332 Si / 1000 Ang^3
#
#
#
# Elastic Constant Matrix: (Units=GPa)
#
#
# Indices 1 2 3 4 5 6 
#
# 1 114.4882 0.3322 23.0469 0.0000 0.0001 0.0000
# 2 0.3322 79.2123 46.7371 0.0000 0.0001 0.0000
# 3 23.0469 46.7371 86.0032 0.0000 0.0001 0.0000
# 4 0.0000 0.0000 0.0000 37.9255 0.0001 0.0000
# 5 0.0001 0.0001 0.0001 0.0001 -389.8337 0.0000
# 6 0.0000 0.0000 0.0000 0.0000 0.0000 24.3921
#
#
#
# Elastic Compliance Matrix: (Units=1/GPa)
#
#
# Indices 1 2 3 4 5 6 
#
# 1 0.009474 0.002147 -0.003705 0.000000 0.000000 0.000000
# 2 0.002147 0.019069 -0.010938 0.000000 0.000000 0.000000
# 3 -0.003705 -0.010938 0.018564 0.000000 0.000000 0.000000
# 4 0.000000 0.000000 0.000000 0.026368 0.000000 0.000000
# 5 0.000000 0.000000 0.000000 0.000000 -0.002565 0.000000
# 6 0.000000 0.000000 0.000000 0.000000 0.000000 0.040997
#
#
# Mechanical properties :
#
#
# Convention : Reuss Voigt Hill
#
# Bulk Modulus (GPa) = 45.22010 46.65955 45.93983
# Shear Modulus (GPa) = 34.65683 -51.53074 -8.43695
#
# Velocity S-wave (km/s) = 4.47726 -5.45947 -2.20907
# Velocity P-wave (km/s) = 7.27210 3.57111 4.47943
#
# Compressibility (1/GPa) = 0.02211406
#
# Stress axis : x y z
#
# Youngs Moduli (GPa) = 105.54980 52.44137 53.86634
#
# Poissons Ratio (x) = -0.11257 0.19959
# Poissons Ratio (y) = -0.22656 0.58919
# Poissons Ratio (z) = 0.39110 0.57360
#
# Static dielectric constant tensor:
#      x y z
#    x 1.592480 0.000000 0.000000 
#    y 0.000000 1.555480 0.000000 
#    z 0.000000 0.000000 1.620580 
# 
# From -- ./inp_files/43025.got.cif
#   From: 2010.05.17/outbox.cif.g08.bks.cpg/sg74_22_cif.got.tgz:43025.got - 2010.06.03 17:57:02.
