data_PCOD9540582
_publ_section_title
;
Structure prediction by ZEFSAII (Michael W. Deem and Ramdas Pophale) SiO2 
 PCOD9540582
Probable space group: I M M A
;
_chemical_formula_sum "Si O2"
_cell_formula_units_Z 112
_cell_length_a 29.259175
_cell_length_b 29.259175
_cell_length_c 6.235177
_cell_angle_alpha 90.000000
_cell_angle_beta 90.000000
_cell_angle_gamma 90.000000
_cell_volume 5337.930800
_symmetry_space_group_name_H-M "I M M A"
_symmetry_group_IT_number 74
_symmetry_cell_setting 'orthorhombic'
loop_
_space_group_symop_operation_xyz
x,y,z
-x,1/2-y,z
x,-y,-z
-x,1/2+y,-z
-x,-y,-z
x,1/2+y,-z
-x,y,z
x,1/2-y,z
1/2+x,1/2+y,1/2+z
1/2-x,-y,1/2+z
1/2+x,1/2-y,1/2-z
1/2-x,y,1/2-z
1/2-x,1/2-y,1/2-z
1/2+x,y,1/2-z
1/2-x,1/2+y,1/2+z
1/2+x,-y,1/2+z
loop_
_atom_site_type_symbol
_atom_site_label
_atom_site_fract_x
_atom_site_fract_y
_atom_site_fract_z
Si Si1 0.426582 0.380240 0.792096
Si Si2 0.802445 0.298374 0.677401
Si Si3 0.369760 0.676582 0.542096
Si Si4 0.128570 0.051688 0.414817
Si Si5 0.050976 0.300976 0.375000
Si Si6 0.451626 0.052445 0.427400
Si Si7 0.198312 0.121430 0.335183
O O1 0.402028 0.347971 0.625000
O O2 0.452686 0.415107 0.634924
O O3 0.391801 0.413414 0.912722
O O4 0.446825 0.344496 0.965431
O O5 0.810532 0.250000 0.555007
O O6 0.750000 0.298872 0.750000
O O7 0.808069 0.343587 0.534516
O O8 0.834893 0.297314 0.884926
O O9 0.405504 0.696825 0.715432
O O10 0.336586 0.641801 0.662722
O O11 0.093587 0.058069 0.215484
O O12 0.179499 0.070501 0.375001
O O13 0.127121 0.000000 0.500000
O O14 0.053292 0.250000 0.480029
O O15 0.000000 0.303292 0.269971
O O16 0.500000 0.060532 0.305006
O O17 0.451128 0.000000 0.500000
O O18 0.250000 0.122879 0.250000
#
# Coordination Sequence:
#
# PCOD9540582 Si02
#       7
#    16  16  16  16  16  16  16
#     4  12  23  43  70 101 141 184 233 294 349 418
#     4  11  24  41  68 105 139 180 229 286 355 419
#     4  12  23  43  70 101 141 184 233 294 349 418
#     4  12  25  46  70 100 140 179 233 293 354 428
#     4  11  26  46  70 104 148 198 244 288 354 434
#     4  11  24  41  68 105 139 180 229 286 355 419
#     4  12  25  46  70 100 140 179 233 293 354 428
#
# _framework density 20.981914
#
# number of rings (size 3 to 8) (size 9 to 14) (size 15 to 20)
#    0.000    0.429    7.143    0.857    0.000    7.429 
#    0.000    4.286    0.000    0.000    0.000    0.000 
#    0.000    0.000    0.000    0.000    0.000    0.000 
#
# Total GULP energy -312210.397979 kJ/mol
# GULP energy per Si atom -5575.185678 kJ/mol
# Density = 2.093416 g / cm^3
# Si number density = 20.981914 Si / 1000 Ang^3
#
#
#
# Elastic Constant Matrix: (Units=GPa)
#
#
# Indices 1 2 3 4 5 6 
#
# 1 142.1000 54.0429 41.1258 0.0000 0.0000 0.0000
# 2 54.0429 142.0998 41.1257 0.0000 0.0000 0.0000
# 3 41.1258 41.1257 72.2273 0.0000 0.0000 0.0000
# 4 0.0000 0.0000 0.0000 37.6336 0.0000 0.0000
# 5 0.0000 0.0000 0.0000 0.0000 37.6350 0.0000
# 6 0.0000 0.0000 0.0000 0.0000 0.0000 256.8821
#
#
#
# Elastic Compliance Matrix: (Units=1/GPa)
#
#
# Indices 1 2 3 4 5 6 
#
# 1 0.009027 -0.002329 -0.003814 0.000000 0.000000 0.000000
# 2 -0.002329 0.009027 -0.003814 0.000000 0.000000 0.000000
# 3 -0.003814 -0.003814 0.018188 0.000000 0.000000 0.000000
# 4 0.000000 0.000000 0.000000 0.026572 0.000000 0.000000
# 5 0.000000 0.000000 0.000000 0.000000 0.026571 0.000000
# 6 0.000000 0.000000 0.000000 0.000000 0.000000 0.003893
#
#
# Mechanical properties :
#
#
# Convention : Reuss Voigt Hill
#
# Bulk Modulus (GPa) = 61.24110 69.89066 65.56588
# Shear Modulus (GPa) = 42.14662 81.10563 61.62613
#
# Velocity S-wave (km/s) = 4.48673 6.22406 5.42539
# Velocity P-wave (km/s) = 7.48945 9.22140 8.40018
#
# Compressibility (1/GPa) = 0.01632890
#
# Stress axis : x y z
#
# Youngs Moduli (GPa) = 110.78011 110.78002 54.98143
#
# Poissons Ratio (x) = 0.25805 0.20967
# Poissons Ratio (y) = 0.25805 0.20967
# Poissons Ratio (z) = 0.42246 0.42246
#
# Static dielectric constant tensor:
#      x y z
#    x 1.791390 0.000000 0.000000 
#    y 0.000000 1.791390 0.000000 
#    z 0.000000 0.000000 1.762900 
# 
# From -- ./inp_files/5322.got.cif
#   From: 2010.05.17/outbox.cif.g08.bks.cpg/sg74_3_cif.got.tgz:5322.got - 2010.06.03 17:57:02.
