data_PCOD9540504
_publ_section_title
;
Structure prediction by ZEFSAII (Michael W. Deem and Ramdas Pophale) SiO2 
 PCOD9540504
Probable space group: I M M A
;
_chemical_formula_sum "Si O2"
_cell_formula_units_Z 80
_cell_length_a 26.808086
_cell_length_b 15.509958
_cell_length_c 8.893228
_cell_angle_alpha 90.000000
_cell_angle_beta 90.000000
_cell_angle_gamma 90.000000
_cell_volume 3697.735617
_symmetry_space_group_name_H-M "I M M A"
_symmetry_group_IT_number 74
_symmetry_cell_setting 'orthorhombic'
loop_
_space_group_symop_operation_xyz
x,y,z
-x,1/2-y,z
x,-y,-z
-x,1/2+y,-z
-x,-y,-z
x,1/2+y,-z
-x,y,z
x,1/2-y,z
1/2+x,1/2+y,1/2+z
1/2-x,-y,1/2+z
1/2+x,1/2-y,1/2-z
1/2-x,y,1/2-z
1/2-x,1/2-y,1/2-z
1/2+x,y,1/2-z
1/2-x,1/2+y,1/2+z
1/2+x,-y,1/2+z
loop_
_atom_site_type_symbol
_atom_site_label
_atom_site_fract_x
_atom_site_fract_y
_atom_site_fract_z
Si Si1 0.245647 0.595933 0.428742
Si Si2 0.445073 0.352917 0.566168
Si Si3 0.650605 0.149624 0.098199
Si Si4 0.943772 0.355247 0.590616
Si Si5 0.156002 0.093190 0.075802
O O1 0.241760 0.500000 0.500000
O O2 0.250000 0.591706 0.250000
O O3 0.195898 0.643559 0.481540
O O4 0.296020 0.637278 0.498377
O O5 0.500000 0.384966 0.517023
O O6 0.448590 0.250000 0.576920
O O7 0.435349 0.384496 0.737032
O O8 0.398530 0.370937 0.460809
O O9 0.644074 0.250000 0.143534
O O10 0.663392 0.095581 0.246290
O O11 0.600115 0.117131 0.019503
O O12 0.942181 0.250000 0.591423
O O13 0.000000 0.380252 0.545744
O O14 0.155317 0.000000 0.000000
#
# Coordination Sequence:
#
# PCOD9540504 Si02
#       5
#    16  16  16  16  16
#     4  11  23  41  62  84 117 158 197 240 297 358
#     4   9  18  35  59  84 113 152 196 243 294 347
#     4  11  23  38  61  91 119 153 200 250 295 347
#     4   8  16  33  56  82 111 143 184 235 291 347
#     4  11  23  38  56  82 117 156 196 240 295 353
#
# _framework density 21.634861000000001
#
# number of rings (size 3 to 8) (size 9 to 14) (size 15 to 20)
#    0.000    2.000    0.000    6.000    0.000    4.000 
#    0.000    2.000    0.000    3.000    0.000    0.000 
#    0.000    0.000    0.000    0.000    0.000    0.000 
#
# Total GULP energy -223395.526617 kJ/mol
# GULP energy per Si atom -5584.888165 kJ/mol
# Density = 2.158562 g / cm^3
# Si number density = 21.634861 Si / 1000 Ang^3
#
#
#
# Elastic Constant Matrix: (Units=GPa)
#
#
# Indices 1 2 3 4 5 6 
#
# 1 153.2882 -2.9775 75.1205 0.0000 0.0000 0.0000
# 2 -2.9775 31.0173 4.0001 0.0000 0.0000 0.0000
# 3 75.1205 4.0001 144.2873 0.0000 0.0000 0.0000
# 4 0.0000 0.0000 0.0000 21.1880 0.0000 0.0000
# 5 0.0000 0.0000 0.0000 0.0000 -12.5438 0.0000
# 6 0.0000 0.0000 0.0000 0.0000 0.0000 19.5450
#
#
#
# Elastic Compliance Matrix: (Units=1/GPa)
#
#
# Indices 1 2 3 4 5 6 
#
# 1 0.008822 0.001444 -0.004633 0.000000 0.000000 0.000000
# 2 0.001444 0.032592 -0.001656 0.000000 0.000000 0.000000
# 3 -0.004633 -0.001656 0.009389 0.000000 0.000000 0.000000
# 4 0.000000 0.000000 0.000000 0.047197 0.000000 0.000000
# 5 0.000000 0.000000 0.000000 0.000000 -0.079721 0.000000
# 6 0.000000 0.000000 0.000000 0.000000 0.000000 0.051164
#
#
# Mechanical properties :
#
#
# Convention : Reuss Voigt Hill
#
# Bulk Modulus (GPa) = 24.32231 53.43100 38.87665
# Shear Modulus (GPa) = 53.85807 22.46781 38.16294
#
# Velocity S-wave (km/s) = 4.99481 3.22607 4.20450
# Velocity P-wave (km/s) = 6.67314 6.21507 6.44817
#
# Compressibility (1/GPa) = 0.04111452
#
# Stress axis : x y z
#
# Youngs Moduli (GPa) = 113.34965 30.68213 106.51103
#
# Poissons Ratio (x) = -0.04432 0.49349
# Poissons Ratio (y) = -0.16372 0.17634
# Poissons Ratio (z) = 0.52517 0.05080
#
# Static dielectric constant tensor:
#      x y z
#    x 1.840190 0.000000 0.000000 
#    y 0.000000 1.840750 0.000000 
#    z 0.000000 0.000000 1.750900 
# 
# From -- ./inp_files/10877.got.cif
#   From: 2010.05.17/outbox.cif.g08.bks.cpg/sg74_6_cif.got.tgz:10877.got - 2010.06.03 17:57:02.
