data_PCOD9540148
_publ_section_title
;
Structure prediction by ZEFSAII (Michael W. Deem and Ramdas Pophale) SiO2 
 PCOD9540148
Probable space group: I M M A
;
_chemical_formula_sum "Si O2"
_cell_formula_units_Z 64
_cell_length_a 10.138145
_cell_length_b 25.965701
_cell_length_c 13.192760
_cell_angle_alpha 90.000000
_cell_angle_beta 90.000000
_cell_angle_gamma 90.000000
_cell_volume 3472.915464
_symmetry_space_group_name_H-M "I M M A"
_symmetry_group_IT_number 74
_symmetry_cell_setting 'orthorhombic'
loop_
_space_group_symop_operation_xyz
x,y,z
-x,1/2-y,z
x,-y,-z
-x,1/2+y,-z
-x,-y,-z
x,1/2+y,-z
-x,y,z
x,1/2-y,z
1/2+x,1/2+y,1/2+z
1/2-x,-y,1/2+z
1/2+x,1/2-y,1/2-z
1/2-x,y,1/2-z
1/2-x,1/2-y,1/2-z
1/2+x,y,1/2-z
1/2-x,1/2+y,1/2+z
1/2+x,-y,1/2+z
loop_
_atom_site_type_symbol
_atom_site_label
_atom_site_fract_x
_atom_site_fract_y
_atom_site_fract_z
Si Si1 0.656430 0.188020 0.154566
Si Si2 0.750000 0.080635 0.750000
Si Si3 0.000000 0.446533 0.446496
Si Si4 0.000000 0.441786 0.040756
Si Si5 0.000000 0.997217 0.238914
Si Si6 0.741863 0.380997 0.975315
O O1 0.500000 0.171817 0.163373
O O2 0.656529 0.250000 0.156323
O O3 0.750000 0.170634 0.250000
O O4 0.717561 0.169119 0.046497
O O5 0.874683 0.041740 0.762871
O O6 0.764728 0.115590 0.647909
O O7 0.000000 0.500000 0.500000
O O8 0.000000 0.465472 0.333829
O O9 0.126303 0.416496 0.482801
O O10 0.000000 0.458101 0.155820
O O11 0.123958 0.408912 0.006039
O O12 0.000000 0.500000 0.000000
#
# Coordination Sequence:
#
# PCOD9540148 Si02
#       6
#    16   8   8   8   8  16
#     4  10  24  47  71  96 124 156 204 269 330 381
#     4  12  22  40  57  84 128 166 215 246 306 358
#     4  12  22  38  59  87 121 167 222 254 303 370
#     4  12  24  40  55  91 133 169 210 250 303 366
#     4  12  24  36  56  82 126 172 204 264 298 356
#     4  12  24  39  62  92 123 169 211 257 311 373
#
# _framework density 18.428319999999999
#
# number of rings (size 3 to 8) (size 9 to 14) (size 15 to 20)
#    0.000    0.500    6.250    2.250    5.250    0.000 
#    0.000    0.625    0.000    0.000    0.000    0.000 
#    0.000    0.000    0.000    0.000    0.000    0.000 
#
# Total GULP energy -178217.900439 kJ/mol
# GULP energy per Si atom -5569.309389 kJ/mol
# Density = 1.838638 g / cm^3
# Si number density = 18.428320 Si / 1000 Ang^3
#
#
#
# Elastic Constant Matrix: (Units=GPa)
#
#
# Indices 1 2 3 4 5 6 
#
# 1 144.9483 26.7737 20.0688 0.0000 0.0000 0.0000
# 2 26.7737 42.8533 28.7239 0.0000 0.0000 0.0000
# 3 20.0688 28.7239 183.6561 0.0001 -0.0002 0.0001
# 4 0.0000 0.0000 0.0001 38.6653 0.0000 0.0000
# 5 0.0000 0.0000 -0.0002 0.0000 24.4277 0.0000
# 6 0.0000 0.0000 0.0001 0.0000 0.0000 27.1159
#
#
#
# Elastic Compliance Matrix: (Units=1/GPa)
#
#
# Indices 1 2 3 4 5 6 
#
# 1 0.007801 -0.004806 -0.000101 0.000000 0.000000 0.000000
# 2 -0.004806 0.029029 -0.004015 0.000000 0.000000 0.000000
# 3 -0.000101 -0.004015 0.006084 0.000000 0.000000 0.000000
# 4 0.000000 0.000000 0.000000 0.025863 0.000000 0.000000
# 5 0.000000 0.000000 0.000000 0.000000 0.040937 0.000000
# 6 0.000000 0.000000 0.000000 0.000000 0.000000 0.036879
#
#
# Mechanical properties :
#
#
# Convention : Reuss Voigt Hill
#
# Bulk Modulus (GPa) = 39.88799 58.06559 48.97679
# Shear Modulus (GPa) = 28.93627 37.76788 33.35208
#
# Velocity S-wave (km/s) = 3.96688 4.53199 4.25882
# Velocity P-wave (km/s) = 6.53249 7.67871 7.12868
#
# Compressibility (1/GPa) = 0.02507020
#
# Stress axis : x y z
#
# Youngs Moduli (GPa) = 128.19323 34.44777 164.36783
#
# Poissons Ratio (x) = 0.16556 0.01656
# Poissons Ratio (y) = 0.61612 0.65994
# Poissons Ratio (z) = 0.01291 0.13831
#
# Static dielectric constant tensor:
#      x y z
#    x 1.592440 0.000000 0.000000 
#    y 0.000000 1.612650 0.000000 
#    z 0.000000 0.000000 1.555970 
# 
# From -- ./inp_files/17653.got.cif
#   From: 2010.05.17/outbox.cif.g08.bks.cpg/sg74_9_cif.got.tgz:17653.got - 2010.06.03 17:57:02.
