data_PCOD9540317
_publ_section_title
;
Structure prediction by ZEFSAII (Michael W. Deem and Ramdas Pophale) SiO2 
 PCOD9540317
Probable space group: I M M A
;
_chemical_formula_sum "Si O2"
_cell_formula_units_Z 72
_cell_length_a 26.419979
_cell_length_b 8.449787
_cell_length_c 17.727305
_cell_angle_alpha 90.000000
_cell_angle_beta 90.000000
_cell_angle_gamma 90.000000
_cell_volume 3957.500209
_symmetry_space_group_name_H-M "I M M A"
_symmetry_group_IT_number 74
_symmetry_cell_setting 'orthorhombic'
loop_
_space_group_symop_operation_xyz
x,y,z
-x,1/2-y,z
x,-y,-z
-x,1/2+y,-z
-x,-y,-z
x,1/2+y,-z
-x,y,z
x,1/2-y,z
1/2+x,1/2+y,1/2+z
1/2-x,-y,1/2+z
1/2+x,1/2-y,1/2-z
1/2-x,y,1/2-z
1/2-x,1/2-y,1/2-z
1/2+x,y,1/2-z
1/2-x,1/2+y,1/2+z
1/2+x,-y,1/2+z
loop_
_atom_site_type_symbol
_atom_site_label
_atom_site_fract_x
_atom_site_fract_y
_atom_site_fract_z
Si Si1 0.657570 0.439259 0.423632
Si Si2 0.691602 0.441564 0.257521
Si Si3 0.412200 0.938857 0.197886
Si Si4 0.945038 0.941743 0.862508
Si Si5 0.000000 0.439443 0.413331
O O1 0.681967 0.500000 0.500000
O O2 0.658904 0.250000 0.425836
O O3 0.679478 0.488944 0.343472
O O4 0.599728 0.496418 0.416323
O O5 0.688738 0.250000 0.251586
O O6 0.750000 0.489389 0.250000
O O7 0.647049 0.507074 0.203109
O O8 0.413752 0.750000 0.194879
O O9 0.434706 0.999218 0.277696
O O10 0.449562 0.003522 0.132410
O O11 0.943547 0.750000 0.859519
O O12 0.000000 0.994644 0.887651
O O13 0.000000 0.500000 0.500000
O O14 0.000000 0.250000 0.413405
#
# Coordination Sequence:
#
# PCOD9540317 Si02
#       5
#    16  16  16  16   8
#     4   9  18  31  48  74 104 136 174 218 270 319
#     4   9  19  38  61  80 103 146 197 236 279 341
#     4  11  21  34  55  85 115 143 182 231 285 341
#     4   9  17  31  51  72 100 143 184 214 250 310
#     4  12  24  40  60  84 117 154 193 240 294 350
#
# _framework density 18.193304000000001
#
# number of rings (size 3 to 8) (size 9 to 14) (size 15 to 20)
#    0.000    2.222    1.111    4.333    0.000    4.444 
#    0.000    1.111    0.000    2.667    0.000    0.000 
#    0.000    0.000    0.000    0.000    0.000    0.000 
#
# Total GULP energy -200507.115815 kJ/mol
# GULP energy per Si atom -5569.642106 kJ/mol
# Density = 1.815190 g / cm^3
# Si number density = 18.193304 Si / 1000 Ang^3
#
#
#
# Elastic Constant Matrix: (Units=GPa)
#
#
# Indices 1 2 3 4 5 6 
#
# 1 146.7183 26.3845 54.3061 0.0000 0.0000 0.0000
# 2 26.3845 30.5800 13.2131 0.0000 0.0000 0.0000
# 3 54.3061 13.2131 114.3329 0.0000 0.0000 0.0000
# 4 0.0000 0.0000 0.0000 24.8568 0.0000 0.0000
# 5 0.0000 0.0000 0.0000 0.0000 11.1940 0.0000
# 6 0.0000 0.0000 0.0000 0.0000 0.0000 13.4310
#
#
#
# Elastic Compliance Matrix: (Units=1/GPa)
#
#
# Indices 1 2 3 4 5 6 
#
# 1 0.009345 -0.006468 -0.003691 0.000000 0.000000 0.000000
# 2 -0.006468 0.038897 -0.001423 0.000000 0.000000 0.000000
# 3 -0.003691 -0.001423 0.010664 0.000000 0.000000 0.000000
# 4 0.000000 0.000000 0.000000 0.040230 0.000000 0.000000
# 5 0.000000 0.000000 0.000000 0.000000 0.089334 0.000000
# 6 0.000000 0.000000 0.000000 0.000000 0.000000 0.074454
#
#
# Mechanical properties :
#
#
# Convention : Reuss Voigt Hill
#
# Bulk Modulus (GPa) = 27.97884 53.27097 40.62491
# Shear Modulus (GPa) = 16.77835 23.07819 19.92827
#
# Velocity S-wave (km/s) = 3.04011 3.56546 3.31322
# Velocity P-wave (km/s) = 5.26641 6.80398 6.08396
#
# Compressibility (1/GPa) = 0.03574130
#
# Stress axis : x y z
#
# Youngs Moduli (GPa) = 107.00608 25.70912 93.77212
#
# Poissons Ratio (x) = 0.16629 0.34614
# Poissons Ratio (y) = 0.69213 0.13343
# Poissons Ratio (z) = 0.39499 0.03658
#
# Static dielectric constant tensor:
#      x y z
#    x 1.673260 0.000000 0.000000 
#    y 0.000000 1.600780 0.000000 
#    z 0.000000 0.000000 1.599330 
# 
# From -- ./inp_files/37055.got.cif
#   From: 2010.05.17/outbox.cif.g08.bks.cpg/sg74_19_cif.got.tgz:37055.got - 2010.06.03 17:57:02.
