data_PCOD9540933
_publ_section_title
;
Structure prediction by ZEFSAII (Michael W. Deem and Ramdas Pophale) SiO2 
 PCOD9540933
Probable space group: I M M A
;
_chemical_formula_sum "Si O2"
_cell_formula_units_Z 32
_cell_length_a 24.000000
_cell_length_b 9.000000
_cell_length_c 15.000000
_cell_angle_alpha 90.000000
_cell_angle_beta 90.000000
_cell_angle_gamma 90.000000
_cell_volume 3240.000000
_symmetry_space_group_name_H-M "I M M A"
_symmetry_group_IT_number 74
_symmetry_cell_setting 'orthorhombic'
loop_
_space_group_symop_operation_xyz
x,y,z
-x,1/2-y,z
x,-y,-z
-x,1/2+y,-z
-x,-y,-z
x,1/2+y,-z
-x,y,z
x,1/2-y,z
1/2+x,1/2+y,1/2+z
1/2-x,-y,1/2+z
1/2+x,1/2-y,1/2-z
1/2-x,y,1/2-z
1/2-x,1/2-y,1/2-z
1/2+x,y,1/2-z
1/2-x,1/2+y,1/2+z
1/2+x,-y,1/2+z
loop_
_atom_site_type_symbol
_atom_site_label
_atom_site_fract_x
_atom_site_fract_y
_atom_site_fract_z
Si Si1 0.065472 0.914650 0.413608
Si Si2 0.278669 0.572741 0.093469
Si Si3 0.367113 0.922170 0.782376
Si Si4 0.158879 0.076211 0.086045
O O1 0.090359 0.750000 0.406088
O O2 0.000000 0.899338 0.423099
O O3 0.086177 0.000000 0.500000
O O4 0.079042 0.015803 0.330486
O O5 0.277388 0.750000 0.088306
O O6 0.317151 0.516104 0.173743
O O7 0.216902 0.507438 0.104132
O O8 0.297532 0.500000 0.000000
O O9 0.356399 0.750000 0.802993
O O10 0.373615 0.937755 0.677487
O O11 0.169887 0.250000 0.068479
O O12 0.132623 0.000000 0.000000
#
# Coordination Sequence:
#
# PCOD9540933 Si02
#       4
#    16  16  16  16
#     4  10  21  37  57  81 108 136 167 207 255 307
#     4  11  21  33  51  75 106 141 175 213 255 303
#     4  11  22  35  53  77 105 137 173 213 257 306
#     4  10  21  36  53  74 103 138 175 216 258 301
#
# _framework density 9.8765429999999999
#
# number of rings (size 3 to 8) (size 9 to 14) (size 15 to 20)
#    0.000    1.500    0.000    7.500    0.000    8.500 
#    0.000    0.000    0.000    0.750    0.000    0.000 
#    0.000    0.000    0.000    0.000    0.000    0.000 
#
# Total GULP energy -178495.758204 kJ/mol
# GULP energy per Si atom -5577.992444 kJ/mol
# Density = 0.985406 g / cm^3
# Si number density = 9.876543 Si / 1000 Ang^3
#
#
#
# Elastic Constant Matrix: (Units=GPa)
#
#
# Indices 1 2 3 4 5 6 
#
# 1 32.8596 19.8031 16.0648 0.0000 0.0000 0.0000
# 2 19.8031 162.6211 100.3011 0.0000 0.0000 0.0000
# 3 16.0648 100.3011 97.6169 0.0000 0.0000 0.0000
# 4 0.0000 0.0000 0.0000 24.8174 0.0000 0.0000
# 5 0.0000 0.0000 0.0000 0.0000 50.3821 0.0000
# 6 0.0000 0.0000 0.0000 0.0000 0.0000 19.4395
#
#
#
# Elastic Compliance Matrix: (Units=1/GPa)
#
#
# Indices 1 2 3 4 5 6 
#
# 1 0.033296 -0.001843 -0.003586 0.000000 0.000000 0.000000
# 2 -0.001843 0.016891 -0.017052 0.000000 0.000000 0.000000
# 3 -0.003586 -0.017052 0.028356 0.000000 0.000000 0.000000
# 4 0.000000 0.000000 0.000000 0.040294 0.000000 0.000000
# 5 0.000000 0.000000 0.000000 0.000000 0.019848 0.000000
# 6 0.000000 0.000000 0.000000 0.000000 0.000000 0.051442
#
#
# Mechanical properties :
#
#
# Convention : Reuss Voigt Hill
#
# Bulk Modulus (GPa) = 29.77916 62.82618 46.30267
# Shear Modulus (GPa) = 20.30179 29.38969 24.84574
#
# Velocity S-wave (km/s) = 3.20938 3.86145 3.55042
# Velocity P-wave (km/s) = 5.37046 7.19416 6.34814
#
# Compressibility (1/GPa) = 0.03358053
#
# Stress axis : x y z
#
# Youngs Moduli (GPa) = 30.03333 59.20232 35.26641
#
# Poissons Ratio (x) = 0.10910 0.12647
# Poissons Ratio (y) = 0.05535 0.60138
# Poissons Ratio (z) = 0.10770 1.00954
#
# Static dielectric constant tensor:
#      x y z
#    x 1.723420 0.000000 0.000000 
#    y 0.000000 1.692600 0.000000 
#    z 0.000000 0.000000 1.714750 
# 
# From -- ./inp_files/28803.got.cif
#   From: 2010.05.17/outbox.ucp.g08.bks.cvg/sg74_15_cif.got.tgz:28803.got - 2010.06.11 16:37:44.
