data_PCOD9540480
_publ_section_title
;
Structure prediction by ZEFSAII (Michael W. Deem and Ramdas Pophale) SiO2 
 PCOD9540480
Probable space group: I M M A
;
_chemical_formula_sum "Si O2"
_cell_formula_units_Z 72
_cell_length_a 14.595567
_cell_length_b 27.478682
_cell_length_c 8.280094
_cell_angle_alpha 90.000000
_cell_angle_beta 90.000000
_cell_angle_gamma 90.000000
_cell_volume 3320.871998
_symmetry_space_group_name_H-M "I M M A"
_symmetry_group_IT_number 74
_symmetry_cell_setting 'orthorhombic'
loop_
_space_group_symop_operation_xyz
x,y,z
-x,1/2-y,z
x,-y,-z
-x,1/2+y,-z
-x,-y,-z
x,1/2+y,-z
-x,y,z
x,1/2-y,z
1/2+x,1/2+y,1/2+z
1/2-x,-y,1/2+z
1/2+x,1/2-y,1/2-z
1/2-x,y,1/2-z
1/2-x,1/2-y,1/2-z
1/2+x,y,1/2-z
1/2-x,1/2+y,1/2+z
1/2+x,-y,1/2+z
loop_
_atom_site_type_symbol
_atom_site_label
_atom_site_fract_x
_atom_site_fract_y
_atom_site_fract_z
Si Si1 0.350424 0.000000 0.500000
Si Si2 0.500000 0.074182 0.614372
Si Si3 0.250000 0.930988 0.750000
Si Si4 0.889048 0.750000 0.736302
Si Si5 0.610568 0.750000 0.386817
Si Si6 0.646190 0.144857 0.744308
Si Si7 0.395109 0.645039 0.884144
O O1 0.418967 0.032291 0.608414
O O2 0.288209 0.034982 0.391591
O O3 0.580306 0.116476 0.623752
O O4 0.331723 0.895870 0.807408
O O5 0.859404 0.800659 0.656123
O O6 0.000000 0.750000 0.722206
O O7 0.864673 0.750000 0.924364
O O8 0.500000 0.750000 0.373373
O O9 0.646221 0.798751 0.304296
O O10 0.750000 0.126271 0.750000
O O11 0.605807 0.138957 0.923415
O O12 0.500000 0.640386 0.824148
#
# Coordination Sequence:
#
# PCOD9540480 Si02
#       7
#     8   8   8   8   8  16  16
#     4  11  30  50  75 106 142 187 244 324 365 438
#     4  11  26  49  77 101 144 190 242 310 371 419
#     4  12  30  49  78 108 144 185 252 302 378 432
#     4   9  23  40  69 107 151 187 236 279 356 435
#     4  11  22  41  71 108 150 198 228 291 356 435
#     4  12  25  44  74 107 145 192 247 289 356 439
#     4  11  25  47  72 108 147 192 234 298 359 440
#
# _framework density 21.681052000000001
#
# number of rings (size 3 to 8) (size 9 to 14) (size 15 to 20)
#    0.000    0.889    2.222    2.333   14.000    1.333 
#    0.000    1.667    0.000    0.000    0.000    0.000 
#    0.000    0.000    0.000    0.000    0.000    0.000 
#
# Total GULP energy -200459.210033 kJ/mol
# GULP energy per Si atom -5568.311390 kJ/mol
# Density = 2.163170 g / cm^3
# Si number density = 21.681052 Si / 1000 Ang^3
#
#
#
# Elastic Constant Matrix: (Units=GPa)
#
#
# Indices 1 2 3 4 5 6 
#
# 1 161.7107 62.3975 15.3179 0.0007 0.0001 0.0042
# 2 62.3975 154.6211 14.5077 -0.0005 0.0003 0.0049
# 3 15.3179 14.5077 37.1497 -0.0211 0.0039 0.0211
# 4 0.0007 -0.0005 -0.0211 3.1036 0.0017 0.0088
# 5 0.0001 0.0003 0.0039 0.0017 22.5913 -0.0007
# 6 0.0042 0.0049 0.0211 0.0088 -0.0007 9.0442
#
#
#
# Elastic Compliance Matrix: (Units=1/GPa)
#
#
# Indices 1 2 3 4 5 6 
#
# 1 0.007461 -0.002826 -0.001973 -0.000016 0.000000 0.000003
# 2 -0.002826 0.007784 -0.001875 -0.000011 0.000000 0.000001
# 3 -0.001973 -0.001875 0.028464 0.000194 -0.000005 -0.000065
# 4 -0.000016 -0.000011 0.000194 0.322212 -0.000024 -0.000314
# 5 0.000000 0.000000 -0.000005 -0.000024 0.044265 0.000003
# 6 0.000003 0.000001 -0.000065 -0.000314 0.000003 0.110568
#
#
# Mechanical properties :
#
#
# Convention : Reuss Voigt Hill
#
# Bulk Modulus (GPa) = 32.93581 59.76974 46.35277
# Shear Modulus (GPa) = 9.18745 24.36505 16.77625
#
# Velocity S-wave (km/s) = 2.06076 3.35594 2.78470
# Velocity P-wave (km/s) = 4.57016 6.53024 5.63606
#
# Compressibility (1/GPa) = 0.03036209
#
# Stress axis : x y z
#
# Youngs Moduli (GPa) = 134.02776 128.47408 35.13236
#
# Poissons Ratio (x) = 0.36305 0.06931
# Poissons Ratio (y) = 0.37874 0.06586
# Poissons Ratio (z) = 0.26443 0.24082
#
# Static dielectric constant tensor:
#      x y z
#    x 1.808020 0.000000 0.000000 
#    y 0.000000 1.754470 -0.000020 
#    z 0.000000 -0.000020 1.886470 
# 
# From -- ./inp_files/9237.got.cif
#   From: 2010.05.17/outbox.cif.g08.bks.cpg/sg74_5_cif.got.tgz:9237.got - 2010.06.03 17:57:02.
