data_PCOD9540763
_publ_section_title
;
Structure prediction by ZEFSAII (Michael W. Deem and Ramdas Pophale) SiO2 
 PCOD9540763
Probable space group: I M M A
;
_chemical_formula_sum "Si O2"
_cell_formula_units_Z 64
_cell_length_a 9.358289
_cell_length_b 7.296980
_cell_length_c 42.710825
_cell_angle_alpha 90.000000
_cell_angle_beta 90.000000
_cell_angle_gamma 90.000000
_cell_volume 2916.604685
_symmetry_space_group_name_H-M "I M M A"
_symmetry_group_IT_number 74
_symmetry_cell_setting 'orthorhombic'
loop_
_space_group_symop_operation_xyz
x,y,z
-x,1/2-y,z
x,-y,-z
-x,1/2+y,-z
-x,-y,-z
x,1/2+y,-z
-x,y,z
x,1/2-y,z
1/2+x,1/2+y,1/2+z
1/2-x,-y,1/2+z
1/2+x,1/2-y,1/2-z
1/2-x,y,1/2-z
1/2-x,1/2-y,1/2-z
1/2+x,y,1/2-z
1/2-x,1/2+y,1/2+z
1/2+x,-y,1/2+z
loop_
_atom_site_type_symbol
_atom_site_label
_atom_site_fract_x
_atom_site_fract_y
_atom_site_fract_z
Si Si1 0.835943 0.026195 0.095403
Si Si2 0.664930 0.473464 0.280979
Si Si3 0.164674 0.473392 0.342859
Si Si4 0.337092 0.968298 0.964758
O O1 0.836493 0.250000 0.095357
O O2 0.743647 0.969545 0.125400
O O3 0.762149 0.964335 0.063209
O O4 0.000000 0.968038 0.097814
O O5 0.500000 0.531646 0.280679
O O6 0.664267 0.250000 0.280976
O O7 0.750000 0.530861 0.250000
O O8 0.747485 0.531005 0.312274
O O9 0.164007 0.250000 0.342779
O O10 0.000000 0.531876 0.341859
O O11 0.500000 0.039870 0.962784
O O12 0.345841 0.750000 0.960814
O O13 0.283305 0.000000 0.000000
#
# Coordination Sequence:
#
# PCOD9540763 Si02
#       4
#    16  16  16  16
#     4   9  16  25  37  53  72  94 122 157 195 234
#     4   9  15  21  28  39  57  82 114 152 192 232
#     4   9  15  22  32  45  62  86 117 153 192 232
#     4   9  17  29  44  61  81 105 133 165 201 241
#
# _framework density 21.943322999999999
#
# number of rings (size 3 to 8) (size 9 to 14) (size 15 to 20)
#    0.000    3.000    0.000    2.250    0.000    9.500 
#    0.000    0.000    0.000    0.000    0.000    0.000 
#    0.000    0.000    0.000    0.000    0.000    1.250 
#
# Total GULP energy -178824.171769 kJ/mol
# GULP energy per Si atom -5588.255368 kJ/mol
# Density = 2.189338 g / cm^3
# Si number density = 21.943323 Si / 1000 Ang^3
#
#
#
# Elastic Constant Matrix: (Units=GPa)
#
#
# Indices 1 2 3 4 5 6 
#
# 1 234.5224 6.5060 170.4864 0.0000 0.0000 0.0000
# 2 6.5060 92.1115 2.7375 0.0000 0.0000 0.0000
# 3 170.4864 2.7375 260.6251 0.0000 0.0000 0.0000
# 4 0.0000 0.0000 0.0000 -0.6692 0.0000 0.0000
# 5 0.0000 0.0000 0.0000 0.0000 41.6339 0.0000
# 6 0.0000 0.0000 0.0000 0.0000 0.0000 -20.4947
#
#
#
# Elastic Compliance Matrix: (Units=1/GPa)
#
#
# Indices 1 2 3 4 5 6 
#
# 1 0.008146 -0.000417 -0.005324 0.000000 0.000000 0.000000
# 2 -0.000417 0.010881 0.000159 0.000000 0.000000 0.000000
# 3 -0.005324 0.000159 0.007318 0.000000 0.000000 0.000000
# 4 0.000000 0.000000 0.000000 -1.494303 0.000000 0.000000
# 5 0.000000 0.000000 0.000000 0.000000 0.024019 0.000000
# 6 0.000000 0.000000 0.000000 0.000000 0.000000 -0.048793
#
#
# Mechanical properties :
#
#
# Convention : Reuss Voigt Hill
#
# Bulk Modulus (GPa) = 65.87790 105.19098 85.53444
# Shear Modulus (GPa) = -3.38637 31.26259 13.93811
#
# Velocity S-wave (km/s) = -1.24362 3.77861 2.52303
# Velocity P-wave (km/s) = 5.29385 8.19017 6.89579
#
# Compressibility (1/GPa) = 0.01517960
#
# Stress axis : x y z
#
# Youngs Moduli (GPa) = 122.75831 91.90200 136.64663
#
# Poissons Ratio (x) = 0.03834 0.72755
# Poissons Ratio (y) = 0.05121 -0.02167
# Poissons Ratio (z) = 0.65361 -0.01457
#
# Static dielectric constant tensor:
#      x y z
#    x 1.739700 0.000000 0.000000 
#    y 0.000000 1.234540 0.000000 
#    z 0.000000 0.000000 1.742580 
# 
# From -- ./inp_files/71386.got.cif
#   From: 2010.05.17/outbox.cif.g08.bks.cpg/sg74_36_cif.got.tgz:71386.got - 2010.06.03 17:57:02.
