data_PCOD9540144
_publ_section_title
;
Structure prediction by ZEFSAII (Michael W. Deem and Ramdas Pophale) SiO2 
 PCOD9540144
Probable space group: I M M A
;
_chemical_formula_sum "Si O2"
_cell_formula_units_Z 88
_cell_length_a 11.603106
_cell_length_b 16.675149
_cell_length_c 22.643458
_cell_angle_alpha 90.000000
_cell_angle_beta 90.000000
_cell_angle_gamma 90.000000
_cell_volume 4381.135991
_symmetry_space_group_name_H-M "I M M A"
_symmetry_group_IT_number 74
_symmetry_cell_setting 'orthorhombic'
loop_
_space_group_symop_operation_xyz
x,y,z
-x,1/2-y,z
x,-y,-z
-x,1/2+y,-z
-x,-y,-z
x,1/2+y,-z
-x,y,z
x,1/2-y,z
1/2+x,1/2+y,1/2+z
1/2-x,-y,1/2+z
1/2+x,1/2-y,1/2-z
1/2-x,y,1/2-z
1/2-x,1/2-y,1/2-z
1/2+x,y,1/2-z
1/2-x,1/2+y,1/2+z
1/2+x,-y,1/2+z
loop_
_atom_site_type_symbol
_atom_site_label
_atom_site_fract_x
_atom_site_fract_y
_atom_site_fract_z
Si Si1 0.367290 0.750000 0.211445
Si Si2 0.636537 0.841022 0.611430
Si Si3 0.000000 0.840058 0.696239
Si Si4 0.793902 0.545542 0.689851
Si Si5 0.369201 0.607311 0.117912
Si Si6 0.000000 0.157858 0.445856
Si Si7 0.263163 0.405137 0.002517
O O1 0.500000 0.750000 0.238168
O O2 0.250000 0.750000 0.250000
O O3 0.361624 0.672892 0.168888
O O4 0.500000 0.844835 0.619440
O O5 0.677101 0.750000 0.624318
O O6 0.699993 0.904843 0.652956
O O7 0.670688 0.861838 0.543926
O O8 0.887827 0.890369 0.711979
O O9 0.000000 0.837321 0.624904
O O10 0.000000 0.750000 0.720120
O O11 0.750000 0.505104 0.750000
O O12 0.847023 0.479201 0.646795
O O13 0.500000 0.609288 0.093737
O O14 0.281026 0.623177 0.064658
O O15 0.885418 0.112869 0.466115
O O16 0.000000 0.250000 0.468623
O O17 0.241305 0.500000 0.000000
#
# Coordination Sequence:
#
# PCOD9540144 Si02
#       7
#     8  16   8  16  16   8  16
#     4  10  24  46  70 100 138 180 227 284 341 396
#     4  11  26  45  63  91 134 177 214 261 321 394
#     4  11  22  39  63  96 126 162 212 264 319 375
#     4  12  25  43  65  93 128 171 219 268 319 380
#     4  11  23  41  68 102 131 163 218 279 332 387
#     4  11  21  33  63  99 128 154 193 258 333 381
#     4  12  22  38  65  96 128 162 206 262 328 387
#
# _framework density 20.086113999999998
#
# number of rings (size 3 to 8) (size 9 to 14) (size 15 to 20)
#    0.000    0.727    5.455    1.909    3.818    1.818 
#    0.000    1.818    0.000    0.000    0.000    0.000 
#    0.000    0.000    0.000    0.000    0.000    0.000 
#
# Total GULP energy -245964.211420 kJ/mol
# GULP energy per Si atom -5590.095714 kJ/mol
# Density = 2.004040 g / cm^3
# Si number density = 20.086114 Si / 1000 Ang^3
#
#
#
# Elastic Constant Matrix: (Units=GPa)
#
#
# Indices 1 2 3 4 5 6 
#
# 1 70.9034 18.1386 20.4635 0.0000 0.0000 0.0000
# 2 18.1386 89.8307 5.2539 0.0000 0.0000 0.0000
# 3 20.4635 5.2539 74.9852 0.0000 0.0000 0.0000
# 4 0.0000 0.0000 0.0000 15.1975 0.0000 0.0000
# 5 0.0000 0.0000 0.0000 0.0000 17.0368 0.0000
# 6 0.0000 0.0000 0.0000 0.0000 0.0000 35.0479
#
#
#
# Elastic Compliance Matrix: (Units=1/GPa)
#
#
# Indices 1 2 3 4 5 6 
#
# 1 0.016077 -0.003002 -0.004177 0.000000 0.000000 0.000000
# 2 -0.003002 0.011738 -0.000003 0.000000 0.000000 0.000000
# 3 -0.004177 -0.000003 0.014476 0.000000 0.000000 0.000000
# 4 0.000000 0.000000 0.000000 0.065800 0.000000 0.000000
# 5 0.000000 0.000000 0.000000 0.000000 0.058697 0.000000
# 6 0.000000 0.000000 0.000000 0.000000 0.000000 0.028532
#
#
# Mechanical properties :
#
#
# Convention : Reuss Voigt Hill
#
# Bulk Modulus (GPa) = 35.80758 35.93681 35.87219
# Shear Modulus (GPa) = 22.83160 26.24733 24.53947
#
# Velocity S-wave (km/s) = 3.37513 3.61881 3.49909
# Velocity P-wave (km/s) = 5.74930 5.94905 5.85003
#
# Compressibility (1/GPa) = 0.02792705
#
# Stress axis : x y z
#
# Youngs Moduli (GPa) = 62.19972 85.19046 69.07914
#
# Poissons Ratio (x) = 0.25574 0.28855
# Poissons Ratio (y) = 0.18672 0.00022
# Poissons Ratio (z) = 0.25982 0.00027
#
# Static dielectric constant tensor:
#      x y z
#    x 1.693950 0.000000 0.000000 
#    y 0.000000 1.710590 0.000000 
#    z 0.000000 0.000000 1.716800 
# 
# From -- ./inp_files/58691.got.cif
#   From: 2010.05.17/outbox.cif.g08.bks.cpg/sg74_30_cif.got.tgz:58691.got - 2010.06.03 17:57:02.
