data_PCOD9540185
_publ_section_title
;
Structure prediction by ZEFSAII (Michael W. Deem and Ramdas Pophale) SiO2 
 PCOD9540185
Probable space group: I M M A
;
_chemical_formula_sum "Si O2"
_cell_formula_units_Z 80
_cell_length_a 20.048666
_cell_length_b 8.103242
_cell_length_c 34.486730
_cell_angle_alpha 90.000000
_cell_angle_beta 90.000000
_cell_angle_gamma 90.000000
_cell_volume 5602.686303
_symmetry_space_group_name_H-M "I M M A"
_symmetry_group_IT_number 74
_symmetry_cell_setting 'orthorhombic'
loop_
_space_group_symop_operation_xyz
x,y,z
-x,1/2-y,z
x,-y,-z
-x,1/2+y,-z
-x,-y,-z
x,1/2+y,-z
-x,y,z
x,1/2-y,z
1/2+x,1/2+y,1/2+z
1/2-x,-y,1/2+z
1/2+x,1/2-y,1/2-z
1/2-x,y,1/2-z
1/2-x,1/2-y,1/2-z
1/2+x,y,1/2-z
1/2-x,1/2+y,1/2+z
1/2+x,-y,1/2+z
loop_
_atom_site_type_symbol
_atom_site_label
_atom_site_fract_x
_atom_site_fract_y
_atom_site_fract_z
Si Si1 0.000000 0.548798 0.756760
Si Si2 0.922952 0.949130 0.457021
Si Si3 0.633632 0.554374 0.122229
Si Si4 0.853662 0.548113 0.767635
Si Si5 0.500000 0.551787 0.833711
Si Si6 0.223032 0.052219 0.309793
O O1 0.070616 0.492115 0.774064
O O2 0.000000 0.750000 0.758483
O O3 0.000000 0.503344 0.711330
O O4 0.924338 0.750000 0.455524
O O5 0.877687 0.010383 0.421474
O O6 0.000000 0.006470 0.451542
O O7 0.901426 0.000000 0.500000
O O8 0.639932 0.750000 0.119838
O O9 0.565796 0.511811 0.145089
O O10 0.694234 0.492656 0.148547
O O11 0.854436 0.750000 0.767702
O O12 0.826792 0.497274 0.724940
O O13 0.797072 0.494057 0.798053
O O14 0.500000 0.750000 0.835129
O O15 0.223914 0.250000 0.307426
#
# Coordination Sequence:
#
# PCOD9540185 Si02
#       6
#     8  16  16  16   8  16
#     4   9  14  23  41  60  74  99 136 175 206 224
#     4   9  18  31  42  55  76 101 128 161 198 233
#     4  11  20  30  41  57  83 105 127 167 209 238
#     4   8  14  24  39  58  80 100 133 176 201 222
#     4  11  19  27  42  60  75 101 142 171 195 236
#     4   9  16  27  41  58  77 103 136 168 197 233
#
# _framework density 14.278865
#
# number of rings (size 3 to 8) (size 9 to 14) (size 15 to 20)
#    0.000    2.600    3.000    2.100    0.000    1.600 
#    0.000    2.000    0.000    0.000    0.000    0.000 
#    0.000    0.000    0.000    0.900    0.000    9.400 
#
# Total GULP energy -222808.163226 kJ/mol
# GULP energy per Si atom -5570.204081 kJ/mol
# Density = 1.424637 g / cm^3
# Si number density = 14.278865 Si / 1000 Ang^3
#
#
#
# Elastic Constant Matrix: (Units=GPa)
#
#
# Indices 1 2 3 4 5 6 
#
# 1 117.5448 8.0077 62.0241 0.0000 0.0000 0.0000
# 2 8.0077 2.5102 6.0716 0.0000 0.0000 0.0000
# 3 62.0241 6.0716 106.4161 0.0000 0.0000 0.0000
# 4 0.0000 0.0000 0.0000 15.8545 0.0000 0.0000
# 5 0.0000 0.0000 0.0000 0.0000 25.7381 0.0000
# 6 0.0000 0.0000 0.0000 0.0000 0.0000 9.7902
#
#
#
# Elastic Compliance Matrix: (Units=1/GPa)
#
#
# Indices 1 2 3 4 5 6 
#
# 1 0.013857 -0.028619 -0.006444 0.000000 0.000000 0.000000
# 2 -0.028619 0.521254 -0.013060 0.000000 0.000000 0.000000
# 3 -0.006444 -0.013060 0.013898 0.000000 0.000000 0.000000
# 4 0.000000 0.000000 0.000000 0.063073 0.000000 0.000000
# 5 0.000000 0.000000 0.000000 0.000000 0.038853 0.000000
# 6 0.000000 0.000000 0.000000 0.000000 0.000000 0.102143
#
#
# Mechanical properties :
#
#
# Convention : Reuss Voigt Hill
#
# Bulk Modulus (GPa) = 2.20866 42.07534 22.14200
# Shear Modulus (GPa) = 4.99877 20.30107 12.64992
#
# Velocity S-wave (km/s) = 1.87308 3.77471 2.97967
# Velocity P-wave (km/s) = 2.49561 6.96626 5.23244
#
# Compressibility (1/GPa) = 0.45276397
#
# Stress axis : x y z
#
# Youngs Moduli (GPa) = 72.16486 1.91845 71.95328
#
# Poissons Ratio (x) = 0.05490 0.46365
# Poissons Ratio (y) = 2.06528 0.93971
# Poissons Ratio (z) = 0.46501 0.02506
#
# Static dielectric constant tensor:
#      x y z
#    x 1.480190 0.000000 0.000000 
#    y 0.000000 1.503240 0.000000 
#    z 0.000000 0.000000 1.476630 
# 
# From -- ./inp_files/73239.got.cif
#   From: 2010.05.17/outbox.cif.g08.bks.cpg/sg74_37_cif.got.tgz:73239.got - 2010.06.03 17:57:02.
