data_PCOD9540646
_publ_section_title
;
Structure prediction by ZEFSAII (Michael W. Deem and Ramdas Pophale) SiO2 
 PCOD9540646
Probable space group: I M M A
;
_chemical_formula_sum "Si O2"
_cell_formula_units_Z 44
_cell_length_a 13.511704
_cell_length_b 9.965647
_cell_length_c 14.240901
_cell_angle_alpha 90.000000
_cell_angle_beta 90.000000
_cell_angle_gamma 90.000000
_cell_volume 1917.578226
_symmetry_space_group_name_H-M "I M M A"
_symmetry_group_IT_number 74
_symmetry_cell_setting 'orthorhombic'
loop_
_space_group_symop_operation_xyz
x,y,z
-x,1/2-y,z
x,-y,-z
-x,1/2+y,-z
-x,-y,-z
x,1/2+y,-z
-x,y,z
x,1/2-y,z
1/2+x,1/2+y,1/2+z
1/2-x,-y,1/2+z
1/2+x,1/2-y,1/2-z
1/2-x,y,1/2-z
1/2-x,1/2-y,1/2-z
1/2+x,y,1/2-z
1/2-x,1/2+y,1/2+z
1/2+x,-y,1/2+z
loop_
_atom_site_type_symbol
_atom_site_label
_atom_site_fract_x
_atom_site_fract_y
_atom_site_fract_z
Si Si1 0.610965 0.011521 0.670746
Si Si2 0.138162 0.750000 0.715473
Si Si3 0.250000 0.250000 0.750000
Si Si4 0.752095 0.000000 0.500000
Si Si5 0.114491 0.250000 0.507696
O O1 0.500000 0.050409 0.639084
O O2 0.669639 0.132790 0.718191
O O3 0.600463 0.888435 0.741971
O O4 0.679535 0.960555 0.584552
O O5 0.250000 0.750000 0.750000
O O6 0.119291 0.750000 0.605000
O O7 0.822849 0.880540 0.463266
O O8 0.000000 0.250000 0.538792
#
# Coordination Sequence:
#
# PCOD9540646 Si02
#       5
#    16   8   4   8   8
#     4  12  25  44  71 101 131 179 225 277 343 390
#     4  12  22  47  72  94 130 171 228 283 319 388
#     4  12  24  42  62  96 146 170 212 276 324 410
#     4  12  24  44  68  96 142 166 220 286 326 400
#     4  12  25  43  68  97 132 180 220 268 337 400
#
# _framework density 22.945609000000001
#
# number of rings (size 3 to 8) (size 9 to 14) (size 15 to 20)
#    0.000    0.000    5.455    4.364    0.000    0.000 
#    0.000   18.182    0.000    0.000    0.000    0.000 
#    0.000    0.000    0.000    0.000    0.000    0.000 
#
# Total GULP energy -122607.968854 kJ/mol
# GULP energy per Si atom -5573.089493 kJ/mol
# Density = 2.289338 g / cm^3
# Si number density = 22.945609 Si / 1000 Ang^3
#
#
#
# Elastic Constant Matrix: (Units=GPa)
#
#
# Indices 1 2 3 4 5 6 
#
# 1 220.9613 30.1309 1.5183 0.0000 0.0000 0.0000
# 2 30.1309 124.9802 -7.7522 0.0000 0.0000 0.0000
# 3 1.5183 -7.7522 56.9573 0.0000 0.0000 0.0000
# 4 0.0000 0.0000 0.0000 23.1505 0.0000 0.0000
# 5 0.0000 0.0000 0.0000 0.0000 16.5125 0.0000
# 6 0.0000 0.0000 0.0000 0.0000 0.0000 104.3890
#
#
#
# Elastic Compliance Matrix: (Units=1/GPa)
#
#
# Indices 1 2 3 4 5 6 
#
# 1 0.004684 -0.001147 -0.000281 0.000000 0.000000 0.000000
# 2 -0.001147 0.008350 0.001167 0.000000 0.000000 0.000000
# 3 -0.000281 0.001167 0.017723 0.000000 0.000000 0.000000
# 4 0.000000 0.000000 0.000000 0.043196 0.000000 0.000000
# 5 0.000000 0.000000 0.000000 0.000000 0.060560 0.000000
# 6 0.000000 0.000000 0.000000 0.000000 0.000000 0.009580
#
#
# Mechanical properties :
#
#
# Convention : Reuss Voigt Hill
#
# Bulk Modulus (GPa) = 33.07278 50.07697 41.57488
# Shear Modulus (GPa) = 32.32218 54.07721 43.19969
#
# Velocity S-wave (km/s) = 3.75726 4.85991 4.34372
# Velocity P-wave (km/s) = 5.76780 7.30501 6.58144
#
# Compressibility (1/GPa) = 0.03023635
#
# Stress axis : x y z
#
# Youngs Moduli (GPa) = 213.49409 119.75905 56.42280
#
# Poissons Ratio (x) = 0.13732 0.01585
# Poissons Ratio (y) = 0.24481 -0.06585
# Poissons Ratio (z) = 0.05998 -0.13977
#
# Static dielectric constant tensor:
#      x y z
#    x 1.878650 0.000000 0.000000 
#    y 0.000000 1.820730 0.000000 
#    z 0.000000 0.000000 1.880720 
# 
# From -- ./inp_files/42004.got.cif
#   From: 2010.05.17/outbox.cif.g08.bks.cpg/sg74_22_cif.got.tgz:42004.got - 2010.06.03 17:57:02.
