data_PCOD9540301
_publ_section_title
;
Structure prediction by ZEFSAII (Michael W. Deem and Ramdas Pophale) SiO2 
 PCOD9540301
Probable space group: I M M A
;
_chemical_formula_sum "Si O2"
_cell_formula_units_Z 80
_cell_length_a 9.104400
_cell_length_b 29.111945
_cell_length_c 17.711902
_cell_angle_alpha 90.000000
_cell_angle_beta 90.000000
_cell_angle_gamma 90.000000
_cell_volume 4694.482806
_symmetry_space_group_name_H-M "I M M A"
_symmetry_group_IT_number 74
_symmetry_cell_setting 'orthorhombic'
loop_
_space_group_symop_operation_xyz
x,y,z
-x,1/2-y,z
x,-y,-z
-x,1/2+y,-z
-x,-y,-z
x,1/2+y,-z
-x,y,z
x,1/2-y,z
1/2+x,1/2+y,1/2+z
1/2-x,-y,1/2+z
1/2+x,1/2-y,1/2-z
1/2-x,y,1/2-z
1/2-x,1/2-y,1/2-z
1/2+x,y,1/2-z
1/2-x,1/2+y,1/2+z
1/2+x,-y,1/2+z
loop_
_atom_site_type_symbol
_atom_site_label
_atom_site_fract_x
_atom_site_fract_y
_atom_site_fract_z
Si Si1 0.325064 0.536906 0.168895
Si Si2 0.323621 0.802390 0.517709
Si Si3 0.333461 0.965395 0.571806
Si Si4 0.823569 0.394936 0.949391
Si Si5 0.166835 0.194273 0.324540
O O1 0.500000 0.539267 0.173856
O O2 0.250000 0.541614 0.250000
O O3 0.273573 0.488703 0.131443
O O4 0.262817 0.576725 0.113643
O O5 0.500000 0.803516 0.527033
O O6 0.281270 0.750000 0.497932
O O7 0.286204 0.841367 0.456811
O O8 0.251201 0.814574 0.597785
O O9 0.500000 0.962811 0.602217
O O10 0.292596 0.917913 0.531415
O O11 0.336999 0.000000 0.500000
O O12 0.000000 0.400434 0.936886
O O13 0.161558 0.250000 0.318440
O O14 0.250000 0.177097 0.250000
O O15 0.000000 0.177368 0.327201
#
# Coordination Sequence:
#
# PCOD9540301 Si02
#       5
#    16  16  16  16  16
#     4  11  21  33  52  76 101 128 161 201 244 295
#     4   9  17  30  49  72  98 131 170 208 246 289
#     4   8  15  30  50  71  97 126 154 189 237 290
#     4   9  18  33  52  74 102 133 163 199 244 291
#     4   9  16  26  41  61  86 117 155 199 243 285
#
# _framework density 17.04128
#
# number of rings (size 3 to 8) (size 9 to 14) (size 15 to 20)
#    0.000    2.800    0.000    3.600    0.000    6.800 
#    0.000    1.000    0.000    0.600    0.000    0.000 
#    0.000    0.000    0.000    0.000    0.000    0.000 
#
# Total GULP energy -222814.218996 kJ/mol
# GULP energy per Si atom -5570.355475 kJ/mol
# Density = 1.700249 g / cm^3
# Si number density = 17.041280 Si / 1000 Ang^3
#
#
#
# Elastic Constant Matrix: (Units=GPa)
#
#
# Indices 1 2 3 4 5 6 
#
# 1 89.4020 43.6510 63.6748 0.0000 0.0000 0.0000
# 2 43.6510 83.9219 40.5249 0.0001 0.0000 0.0000
# 3 63.6748 40.5249 87.6184 0.0003 0.0000 0.0000
# 4 0.0000 0.0001 0.0003 17.3411 0.0000 0.0000
# 5 0.0000 0.0000 0.0000 0.0000 27.0753 0.0000
# 6 0.0000 0.0000 0.0000 0.0000 0.0000 9.7193
#
#
#
# Elastic Compliance Matrix: (Units=1/GPa)
#
#
# Indices 1 2 3 4 5 6 
#
# 1 0.024979 -0.005442 -0.015636 0.000000 0.000000 0.000000
# 2 -0.005442 0.016528 -0.003690 0.000000 0.000000 0.000000
# 3 -0.015636 -0.003690 0.024483 0.000000 0.000000 0.000000
# 4 0.000000 0.000000 0.000000 0.057666 0.000000 0.000000
# 5 0.000000 0.000000 0.000000 0.000000 0.036934 0.000000
# 6 0.000000 0.000000 0.000000 0.000000 0.000000 0.102888
#
#
# Mechanical properties :
#
#
# Convention : Reuss Voigt Hill
#
# Bulk Modulus (GPa) = 60.77320 61.84929 61.31124
# Shear Modulus (GPa) = 15.69870 18.36659 17.03264
#
# Velocity S-wave (km/s) = 3.03845 3.28650 3.16491
# Velocity P-wave (km/s) = 6.93176 7.12559 7.02934
#
# Compressibility (1/GPa) = 0.01645462
#
# Stress axis : x y z
#
# Youngs Moduli (GPa) = 40.03388 60.50281 40.84538
#
# Poissons Ratio (x) = 0.32926 0.63865
# Poissons Ratio (y) = 0.21787 0.15070
# Poissons Ratio (z) = 0.62596 0.22323
#
# Static dielectric constant tensor:
#      x y z
#    x 1.574830 0.000000 0.000000 
#    y 0.000000 1.619080 0.000000 
#    z 0.000000 0.000000 1.550910 
# 
# From -- ./inp_files/39945.got.cif
#   From: 2010.05.17/outbox.cif.g08.bks.cpg/sg74_20_cif.got.tgz:39945.got - 2010.06.03 17:57:02.
