data_PCOD9540862
_publ_section_title
;
Structure prediction by ZEFSAII (Michael W. Deem and Ramdas Pophale) SiO2 
 PCOD9540862
Probable space group: I M M A
;
_chemical_formula_sum "Si O2"
_cell_formula_units_Z 40
_cell_length_a 18.000000
_cell_length_b 9.000000
_cell_length_c 27.000000
_cell_angle_alpha 90.000000
_cell_angle_beta 90.000000
_cell_angle_gamma 90.000000
_cell_volume 4374.000000
_symmetry_space_group_name_H-M "I M M A"
_symmetry_group_IT_number 74
_symmetry_cell_setting 'orthorhombic'
loop_
_space_group_symop_operation_xyz
x,y,z
-x,1/2-y,z
x,-y,-z
-x,1/2+y,-z
-x,-y,-z
x,1/2+y,-z
-x,y,z
x,1/2-y,z
1/2+x,1/2+y,1/2+z
1/2-x,-y,1/2+z
1/2+x,1/2-y,1/2-z
1/2-x,y,1/2-z
1/2-x,1/2-y,1/2-z
1/2+x,y,1/2-z
1/2-x,1/2+y,1/2+z
1/2+x,-y,1/2+z
loop_
_atom_site_type_symbol
_atom_site_label
_atom_site_fract_x
_atom_site_fract_y
_atom_site_fract_z
Si Si1 0.127152 0.928238 0.049631
Si Si2 0.208012 0.927696 0.548317
Si Si3 0.300496 0.926548 0.840854
Si Si4 0.362558 0.571327 0.341507
Si Si5 0.583161 0.571208 0.233454
O O1 0.126673 0.750000 0.044063
O O2 0.099832 0.965957 0.105341
O O3 0.211525 0.991815 0.051025
O O4 0.092743 0.000000 0.000000
O O5 0.217621 0.750000 0.541655
O O6 0.172722 0.952776 0.602333
O O7 0.170346 0.000000 0.500000
O O8 0.295256 0.750000 0.833562
O O9 0.218266 0.996153 0.837450
O O10 0.354886 0.997024 0.800688
O O11 0.352283 0.750000 0.342246
O O12 0.405842 0.533081 0.291439
O O13 0.500000 0.528385 0.217905
O O14 0.590130 0.750000 0.229569
#
# Coordination Sequence:
#
# PCOD9540862 Si02
#       5
#    16  16  16  16  16
#     4   9  15  24  41  66  95 123 151 188 233 277
#     4   9  16  26  42  67  97 124 151 186 229 277
#     4  10  20  32  49  75 102 126 155 195 241 285
#     4   9  18  32  50  72  97 126 161 199 236 278
#     4  10  21  36  52  69  92 126 166 203 239 282
#
# _framework density 9.1449470000000002
#
# number of rings (size 3 to 8) (size 9 to 14) (size 15 to 20)
#    0.000    2.600    0.000    3.600    0.000    6.800 
#    0.000    0.000    0.000    1.200    0.000    0.000 
#    0.000    0.000    0.000    0.000    0.000    5.400 
#
# Total GULP energy -222863.379074 kJ/mol
# GULP energy per Si atom -5571.584477 kJ/mol
# Density = 0.912413 g / cm^3
# Si number density = 9.144947 Si / 1000 Ang^3
#
#
#
# Elastic Constant Matrix: (Units=GPa)
#
#
# Indices 1 2 3 4 5 6 
#
# 1 42.9309 9.6549 22.6923 0.0000 0.0000 0.0000
# 2 9.6549 44.6501 32.9707 0.0000 0.0000 0.0000
# 3 22.6923 32.9707 116.7064 0.0000 0.0000 0.0000
# 4 0.0000 0.0000 0.0000 34.8843 0.0000 0.0000
# 5 0.0000 0.0000 0.0000 0.0000 -7.4398 0.0000
# 6 0.0000 0.0000 0.0000 0.0000 0.0000 -0.6486
#
#
#
# Elastic Compliance Matrix: (Units=1/GPa)
#
#
# Indices 1 2 3 4 5 6 
#
# 1 0.026164 -0.002402 -0.004409 0.000000 0.000000 0.000000
# 2 -0.002402 0.028521 -0.007590 0.000000 0.000000 0.000000
# 3 -0.004409 -0.007590 0.011570 0.000000 0.000000 0.000000
# 4 0.000000 0.000000 0.000000 0.028666 0.000000 0.000000
# 5 0.000000 0.000000 0.000000 0.000000 -0.134412 0.000000
# 6 0.000000 0.000000 0.000000 0.000000 0.000000 -1.541848
#
#
# Mechanical properties :
#
#
# Convention : Reuss Voigt Hill
#
# Bulk Modulus (GPa) = 26.70054 37.21370 31.95712
# Shear Modulus (GPa) = -3.24664 14.62382 5.68859
#
# Velocity S-wave (km/s) = -1.33377 2.83071 1.76550
# Velocity P-wave (km/s) = 3.50118 5.57447 4.65473
#
# Compressibility (1/GPa) = 0.03745242
#
# Stress axis : x y z
#
# Youngs Moduli (GPa) = 38.22081 35.06233 86.42995
#
# Poissons Ratio (x) = 0.08422 0.38104
# Poissons Ratio (y) = 0.09181 0.65603
# Poissons Ratio (z) = 0.16850 0.26613
#
# Static dielectric constant tensor:
#      x y z
#    x 1.584710 0.000000 0.000000 
#    y 0.000000 1.609050 0.000000 
#    z 0.000000 0.000000 1.706310 
# 
# From -- ./inp_files/63895.got.cif
#   From: 2010.05.17/outbox.ucp.g08.bks.cvg/sg74_32_cif.got.tgz:63895.got - 2010.06.11 16:37:44.
