data_PCOD9540327
_publ_section_title
;
Structure prediction by ZEFSAII (Michael W. Deem and Ramdas Pophale) SiO2 
 PCOD9540327
Probable space group: I M M A
;
_chemical_formula_sum "Si O2"
_cell_formula_units_Z 64
_cell_length_a 17.969691
_cell_length_b 8.693700
_cell_length_c 24.177816
_cell_angle_alpha 90.000000
_cell_angle_beta 90.000000
_cell_angle_gamma 90.000000
_cell_volume 3777.133431
_symmetry_space_group_name_H-M "I M M A"
_symmetry_group_IT_number 74
_symmetry_cell_setting 'orthorhombic'
loop_
_space_group_symop_operation_xyz
x,y,z
-x,1/2-y,z
x,-y,-z
-x,1/2+y,-z
-x,-y,-z
x,1/2+y,-z
-x,y,z
x,1/2-y,z
1/2+x,1/2+y,1/2+z
1/2-x,-y,1/2+z
1/2+x,1/2-y,1/2-z
1/2-x,y,1/2-z
1/2-x,1/2-y,1/2-z
1/2+x,y,1/2-z
1/2-x,1/2+y,1/2+z
1/2+x,-y,1/2+z
loop_
_atom_site_type_symbol
_atom_site_label
_atom_site_fract_x
_atom_site_fract_y
_atom_site_fract_z
Si Si1 0.500000 0.934051 0.735527
Si Si2 0.869514 0.934196 0.439230
Si Si3 0.916545 0.931394 0.139624
Si Si4 0.706042 0.433270 0.439962
Si Si5 0.500000 0.565051 0.864607
O O1 0.500000 0.750000 0.730026
O O2 0.500000 0.974955 0.799679
O O3 0.569934 0.002999 0.701372
O O4 0.870643 0.750000 0.441059
O O5 0.888983 0.000000 0.500000
O O6 0.786399 0.993749 0.426649
O O7 0.928123 0.997174 0.395235
O O8 0.900436 0.750000 0.141313
O O9 0.000000 0.951347 0.114256
O O10 0.854819 0.018640 0.104980
O O11 0.684081 0.500000 0.500000
O O12 0.713228 0.250000 0.443604
O O13 0.500000 0.750000 0.869567
#
# Coordination Sequence:
#
# PCOD9540327 Si02
#       5
#     8  16  16  16   8
#     4   9  19  36  57  80 107 142 181 226 268 315
#     4  11  22  37  57  82 113 143 179 222 272 323
#     4   9  19  35  56  79 111 145 180 223 268 318
#     4  11  21  35  56  81 113 145 180 222 271 323
#     4  11  22  38  59  82 109 142 183 222 271 325
#
# _framework density 16.944067
#
# number of rings (size 3 to 8) (size 9 to 14) (size 15 to 20)
#    0.750    1.000    0.000    7.500    0.000    2.500 
#    0.000    1.250    0.000    7.500    0.000    0.000 
#    0.000    0.000    0.000    0.000    0.000    0.000 
#
# Total GULP energy -178484.857006 kJ/mol
# GULP energy per Si atom -5577.651781 kJ/mol
# Density = 1.690550 g / cm^3
# Si number density = 16.944067 Si / 1000 Ang^3
#
#
#
# Elastic Constant Matrix: (Units=GPa)
#
#
# Indices 1 2 3 4 5 6 
#
# 1 82.0273 58.8286 91.6084 0.0000 0.0000 0.0000
# 2 58.8286 150.1466 75.7390 0.0000 0.0000 0.0000
# 3 91.6084 75.7390 140.3584 0.0000 0.0000 0.0000
# 4 0.0000 0.0000 0.0000 28.7708 0.0000 0.0000
# 5 0.0000 0.0000 0.0000 0.0000 -26.5902 0.0000
# 6 0.0000 0.0000 0.0000 0.0000 0.0000 31.8908
#
#
#
# Elastic Compliance Matrix: (Units=1/GPa)
#
#
# Indices 1 2 3 4 5 6 
#
# 1 0.046666 -0.004012 -0.028293 0.000000 0.000000 0.000000
# 2 -0.004012 0.009496 -0.002505 0.000000 0.000000 0.000000
# 3 -0.028293 -0.002505 0.026942 0.000000 0.000000 0.000000
# 4 0.000000 0.000000 0.000000 0.034757 0.000000 0.000000
# 5 0.000000 0.000000 0.000000 0.000000 -0.037608 0.000000
# 6 0.000000 0.000000 0.000000 0.000000 0.000000 0.031357
#
#
# Mechanical properties :
#
#
# Convention : Reuss Voigt Hill
#
# Bulk Modulus (GPa) = 74.16352 91.65382 82.90867
# Shear Modulus (GPa) = 26.92136 16.57137 21.74637
#
# Velocity S-wave (km/s) = 3.99035 3.13070 3.58637
# Velocity P-wave (km/s) = 8.06815 8.20230 8.13551
#
# Compressibility (1/GPa) = 0.01348372
#
# Stress axis : x y z
#
# Youngs Moduli (GPa) = 21.42892 105.30703 37.11624
#
# Poissons Ratio (x) = 0.42253 1.05011
# Poissons Ratio (y) = 0.08598 0.09299
# Poissons Ratio (z) = 0.60628 0.26384
#
# Static dielectric constant tensor:
#      x y z
#    x 1.560480 0.000000 0.000000 
#    y 0.000000 1.563620 0.000000 
#    z 0.000000 0.000000 1.552730 
# 
# From -- ./inp_files/60548.got.cif
#   From: 2010.05.17/outbox.cif.g08.bks.cpg/sg74_31_cif.got.tgz:60548.got - 2010.06.03 17:57:02.
