data_PCOD9540718
_publ_section_title
;
Structure prediction by ZEFSAII (Michael W. Deem and Ramdas Pophale) SiO2 
 PCOD9540718
Probable space group: I M M A
;
_chemical_formula_sum "Si O2"
_cell_formula_units_Z 128
_cell_length_a 25.993834
_cell_length_b 7.362465
_cell_length_c 30.424959
_cell_angle_alpha 90.000000
_cell_angle_beta 90.000000
_cell_angle_gamma 90.000000
_cell_volume 5822.688889
_symmetry_space_group_name_H-M "I M M A"
_symmetry_group_IT_number 74
_symmetry_cell_setting 'orthorhombic'
loop_
_space_group_symop_operation_xyz
x,y,z
-x,1/2-y,z
x,-y,-z
-x,1/2+y,-z
-x,-y,-z
x,1/2+y,-z
-x,y,z
x,1/2-y,z
1/2+x,1/2+y,1/2+z
1/2-x,-y,1/2+z
1/2+x,1/2-y,1/2-z
1/2-x,y,1/2-z
1/2-x,1/2-y,1/2-z
1/2+x,y,1/2-z
1/2-x,1/2+y,1/2+z
1/2+x,-y,1/2+z
loop_
_atom_site_type_symbol
_atom_site_label
_atom_site_fract_x
_atom_site_fract_y
_atom_site_fract_z
Si Si1 0.059533 0.471328 0.643629
Si Si2 0.059069 0.033606 0.547429
Si Si3 0.845980 0.471358 0.805343
Si Si4 0.150346 0.471993 0.704831
Si Si5 0.557827 0.528064 0.362706
Si Si6 0.771148 0.466719 0.951329
Si Si7 0.743567 0.528344 0.142906
Si Si8 0.889048 0.533636 0.048694
O O1 0.059660 0.250000 0.644376
O O2 0.079348 0.528100 0.594911
O O3 0.097149 0.530286 0.682248
O O4 0.000000 0.527069 0.648253
O O5 0.056260 0.250000 0.550656
O O6 0.000000 0.963216 0.544943
O O7 0.084432 0.000000 0.500000
O O8 0.845388 0.250000 0.805371
O O9 0.842407 0.530745 0.754942
O O10 0.899106 0.528336 0.827891
O O11 0.797403 0.526750 0.834833
O O12 0.150609 0.250000 0.705515
O O13 0.196673 0.530488 0.673302
O O14 0.500000 0.468222 0.353340
O O15 0.557342 0.750000 0.362571
O O16 0.576967 0.467982 0.410885
O O17 0.774139 0.250000 0.947234
O O18 0.742059 0.531729 0.907843
O O19 0.830215 0.537146 0.949999
O O20 0.749568 0.500000 0.000000
O O21 0.742449 0.750000 0.143037
O O22 0.885344 0.750000 0.054158
O O23 0.910146 0.500000 0.000000
#
# Coordination Sequence:
#
# PCOD9540718 Si02
#       8
#    16  16  16  16  16  16  16  16
#     4   8  14  24  35  50  76 105 130 161 203 247
#     4   8  13  22  37  55  76 103 132 161 194 234
#     4   9  15  24  36  53  78 107 137 171 209 250
#     4   9  16  23  36  56  77 105 139 170 206 254
#     4   9  16  25  37  55  81 112 142 173 213 256
#     4   9  16  27  44  63  87 117 145 174 212 257
#     4   9  15  25  39  56  80 107 135 172 213 247
#     4   9  16  27  42  60  84 115 147 177 212 254
#
# _framework density 21.982970000000002
#
# number of rings (size 3 to 8) (size 9 to 14) (size 15 to 20)
#    0.000    3.250    1.250    1.125    0.000    2.250 
#    0.000    3.125    0.000    0.000    0.000    0.000 
#    0.000    5.000    0.000    2.875    0.000    3.000 
#
# Total GULP energy -357012.641958 kJ/mol
# GULP energy per Si atom -5578.322531 kJ/mol
# Density = 2.193294 g / cm^3
# Si number density = 21.982970 Si / 1000 Ang^3
#
#
#
# Elastic Constant Matrix: (Units=GPa)
#
#
# Indices 1 2 3 4 5 6 
#
# 1 92.1902 -0.0638 90.4798 0.0000 0.0000 0.0000
# 2 -0.0638 78.0282 1.0403 0.0000 0.0000 0.0000
# 3 90.4798 1.0403 214.7087 0.0000 0.0000 0.0000
# 4 0.0000 0.0000 0.0000 10.4079 0.0000 0.0000
# 5 0.0000 0.0000 0.0000 0.0000 10.8008 0.0000
# 6 0.0000 0.0000 0.0000 0.0000 0.0000 -10.8847
#
#
#
# Elastic Compliance Matrix: (Units=1/GPa)
#
#
# Indices 1 2 3 4 5 6 
#
# 1 0.018499 0.000119 -0.007796 0.000000 0.000000 0.000000
# 2 0.000119 0.012817 -0.000112 0.000000 0.000000 0.000000
# 3 -0.007796 -0.000112 0.007943 0.000000 0.000000 0.000000
# 4 0.000000 0.000000 0.000000 0.096081 0.000000 0.000000
# 5 0.000000 0.000000 0.000000 0.000000 0.092586 0.000000
# 6 0.000000 0.000000 0.000000 0.000000 0.000000 -0.091872
#
#
# Mechanical properties :
#
#
# Convention : Reuss Voigt Hill
#
# Bulk Modulus (GPa) = 42.22810 63.09331 52.66071
# Shear Modulus (GPa) = 31.34285 21.62952 26.48619
#
# Velocity S-wave (km/s) = 3.78005 3.14016 3.47486
# Velocity P-wave (km/s) = 6.18893 6.47385 6.33299
#
# Compressibility (1/GPa) = 0.02368092
#
# Stress axis : x y z
#
# Youngs Moduli (GPa) = 54.05816 78.01845 125.89200
#
# Poissons Ratio (x) = -0.00929 0.98146
# Poissons Ratio (y) = -0.00644 0.01413
# Poissons Ratio (z) = 0.42144 0.00876
#
# Static dielectric constant tensor:
#      x y z
#    x 1.758640 0.000000 0.000000 
#    y 0.000000 1.906650 0.000000 
#    z 0.000000 0.000000 1.801660 
# 
# From -- ./inp_files/59309.got.cif
#   From: 2010.05.17/outbox.cif.g08.bks.cpg/sg74_30_cif.got.tgz:59309.got - 2010.06.03 17:57:02.
