data_PCOD9540354
_publ_section_title
;
Structure prediction by ZEFSAII (Michael W. Deem and Ramdas Pophale) SiO2 
 PCOD9540354
Probable space group: I M M A
;
_chemical_formula_sum "Si O2"
_cell_formula_units_Z 48
_cell_length_a 28.598337
_cell_length_b 15.912837
_cell_length_c 5.013764
_cell_angle_alpha 90.000000
_cell_angle_beta 90.000000
_cell_angle_gamma 90.000000
_cell_volume 2281.667106
_symmetry_space_group_name_H-M "I M M A"
_symmetry_group_IT_number 74
_symmetry_cell_setting 'orthorhombic'
loop_
_space_group_symop_operation_xyz
x,y,z
-x,1/2-y,z
x,-y,-z
-x,1/2+y,-z
-x,-y,-z
x,1/2+y,-z
-x,y,z
x,1/2-y,z
1/2+x,1/2+y,1/2+z
1/2-x,-y,1/2+z
1/2+x,1/2-y,1/2-z
1/2-x,y,1/2-z
1/2-x,1/2-y,1/2-z
1/2+x,y,1/2-z
1/2-x,1/2+y,1/2+z
1/2+x,-y,1/2+z
loop_
_atom_site_type_symbol
_atom_site_label
_atom_site_fract_x
_atom_site_fract_y
_atom_site_fract_z
Si Si1 0.296818 0.153131 0.111667
Si Si2 0.350455 0.596053 0.398050
Si Si3 0.551284 0.938077 0.248176
O O1 0.287463 0.250000 0.037023
O O2 0.250000 0.117584 0.250000
O O3 0.335015 0.148846 0.346262
O O4 0.315194 0.107501 0.848446
O O5 0.350056 0.500000 0.500000
O O6 0.402637 0.616822 0.294541
O O7 0.500000 0.897095 0.214979
O O8 0.548343 0.000000 0.500000
O O9 0.559620 0.000000 0.000000
#
# Coordination Sequence:
#
# PCOD9540354 Si02
#       3
#    16  16  16
#     4  11  24  41  59  80 115 160 193 225 286 355
#     4  11  21  37  61  89 114 143 193 247 282 320
#     4   9  17  31  53  82 114 145 179 225 283 339
#
# _framework density 21.03725
#
# number of rings (size 3 to 8) (size 9 to 14) (size 15 to 20)
#    0.000    1.667    0.000    7.000    0.000    5.333 
#    0.000    1.667    0.000    6.000    0.000    0.000 
#    0.000    0.000    0.000    0.000    0.000    0.000 
#
# Total GULP energy -134001.378367 kJ/mol
# GULP energy per Si atom -5583.390765 kJ/mol
# Density = 2.098937 g / cm^3
# Si number density = 21.037250 Si / 1000 Ang^3
#
#
#
# Elastic Constant Matrix: (Units=GPa)
#
#
# Indices 1 2 3 4 5 6 
#
# 1 114.0672 22.3696 34.1250 0.0000 0.0000 0.0000
# 2 22.3696 30.6481 13.1945 0.0000 0.0000 0.0000
# 3 34.1250 13.1945 151.0559 0.0000 -0.0001 0.0000
# 4 0.0000 0.0000 0.0000 3.4355 0.0000 0.0000
# 5 0.0000 0.0000 -0.0001 0.0000 36.4985 0.0000
# 6 0.0000 0.0000 0.0000 0.0000 0.0000 -42.7951
#
#
#
# Elastic Compliance Matrix: (Units=1/GPa)
#
#
# Indices 1 2 3 4 5 6 
#
# 1 0.010682 -0.007022 -0.001800 0.000000 0.000000 0.000000
# 2 -0.007022 0.038519 -0.001778 0.000000 0.000000 0.000000
# 3 -0.001800 -0.001778 0.007182 0.000000 0.000000 0.000000
# 4 0.000000 0.000000 0.000000 0.291080 0.000000 0.000000
# 5 0.000000 0.000000 0.000000 0.000000 0.027398 0.000000
# 6 0.000000 0.000000 0.000000 0.000000 0.000000 -0.023367
#
#
# Mechanical properties :
#
#
# Convention : Reuss Voigt Hill
#
# Bulk Modulus (GPa) = 28.42258 48.34994 38.38626
# Shear Modulus (GPa) = 13.00653 14.49992 13.75322
#
# Velocity S-wave (km/s) = 2.48918 2.62820 2.55964
# Velocity P-wave (km/s) = 4.66919 5.67828 5.19828
#
# Compressibility (1/GPa) = 0.03518329
#
# Stress axis : x y z
#
# Youngs Moduli (GPa) = 93.61277 25.96108 139.23694
#
# Poissons Ratio (x) = 0.18230 0.25061
# Poissons Ratio (y) = 0.65735 0.24760
# Poissons Ratio (z) = 0.16849 0.04617
#
# Static dielectric constant tensor:
#      x y z
#    x 1.870880 0.000000 0.000000 
#    y 0.000000 1.758330 0.000000 
#    z 0.000000 0.000000 1.718630 
# 
# From -- ./inp_files/1254.got.cif
#   From: 2010.05.17/outbox.cif.g08.bks.cpg/sg74_1_cif.got.tgz:1254.got - 2010.06.03 17:57:02.
