data_PCOD9540079
_publ_section_title
;
Structure prediction by ZEFSAII (Michael W. Deem and Ramdas Pophale) SiO2 
 PCOD9540079
Probable space group: I M M A
;
_chemical_formula_sum "Si O2"
_cell_formula_units_Z 64
_cell_length_a 20.178781
_cell_length_b 29.592455
_cell_length_c 5.018804
_cell_angle_alpha 90.000000
_cell_angle_beta 90.000000
_cell_angle_gamma 90.000000
_cell_volume 2996.926958
_symmetry_space_group_name_H-M "I M M A"
_symmetry_group_IT_number 74
_symmetry_cell_setting 'orthorhombic'
loop_
_space_group_symop_operation_xyz
x,y,z
-x,1/2-y,z
x,-y,-z
-x,1/2+y,-z
-x,-y,-z
x,1/2+y,-z
-x,y,z
x,1/2-y,z
1/2+x,1/2+y,1/2+z
1/2-x,-y,1/2+z
1/2+x,1/2-y,1/2-z
1/2-x,y,1/2-z
1/2-x,1/2-y,1/2-z
1/2+x,y,1/2-z
1/2-x,1/2+y,1/2+z
1/2+x,-y,1/2+z
loop_
_atom_site_type_symbol
_atom_site_label
_atom_site_fract_x
_atom_site_fract_y
_atom_site_fract_z
Si Si1 0.824966 0.966962 0.749519
Si Si2 0.312447 0.250000 0.063248
Si Si3 0.616045 0.171549 0.828021
Si Si4 0.067735 0.750000 0.976242
Si Si5 0.920760 0.384850 0.156794
O O1 0.750000 0.946436 0.750000
O O2 0.882599 0.929947 0.753785
O O3 0.830408 0.000000 0.500000
O O4 0.830412 0.000000 0.000000
O O5 0.250000 0.250000 0.250000
O O6 0.373528 0.250000 0.268451
O O7 0.321186 0.296089 0.894457
O O8 0.571134 0.207349 0.670421
O O9 0.617739 0.131911 0.609277
O O10 0.589314 0.151096 0.103311
O O11 0.000000 0.750000 0.818066
O O12 0.000000 0.390330 0.107840
#
# Coordination Sequence:
#
# PCOD9540079 Si02
#       5
#    16   8  16   8  16
#     4  10  23  45  68  95 132 174 218 269 341 419
#     4  11  26  47  66  98 137 185 236 282 328 399
#     4  11  25  42  64  97 134 175 223 280 334 390
#     4  11  22  42  67  90 133 185 226 272 332 387
#     4  12  24  42  68 102 135 170 226 283 335 402
#
# _framework density 21.355208999999999
#
# number of rings (size 3 to 8) (size 9 to 14) (size 15 to 20)
#    0.000    1.000    2.500    3.750    0.000    7.000 
#    4.500    0.000    0.000    0.000    0.000    0.000 
#    0.000    0.000    0.000    0.000    0.000    0.000 
#
# Total GULP energy -178695.594811 kJ/mol
# GULP energy per Si atom -5584.237338 kJ/mol
# Density = 2.130660 g / cm^3
# Si number density = 21.355209 Si / 1000 Ang^3
#
#
#
# Elastic Constant Matrix: (Units=GPa)
#
#
# Indices 1 2 3 4 5 6 
#
# 1 139.9757 59.6243 46.0889 0.0000 0.0000 0.0000
# 2 59.6243 94.5367 28.8972 0.0000 0.0000 0.0000
# 3 46.0889 28.8972 144.1200 0.0000 0.0000 0.0000
# 4 0.0000 0.0000 0.0000 26.8673 0.0000 0.0000
# 5 0.0000 0.0000 0.0000 0.0000 28.7583 0.0000
# 6 0.0000 0.0000 0.0000 0.0000 0.0000 407.7216
#
#
#
# Elastic Compliance Matrix: (Units=1/GPa)
#
#
# Indices 1 2 3 4 5 6 
#
# 1 0.010349 -0.005875 -0.002131 0.000000 0.000000 0.000000
# 2 -0.005875 0.014604 -0.001049 0.000000 0.000000 0.000000
# 3 -0.002131 -0.001049 0.007831 0.000000 0.000000 0.000000
# 4 0.000000 0.000000 0.000000 0.037220 0.000000 0.000000
# 5 0.000000 0.000000 0.000000 0.000000 0.034773 0.000000
# 6 0.000000 0.000000 0.000000 0.000000 0.000000 0.002453
#
#
# Mechanical properties :
#
#
# Convention : Reuss Voigt Hill
#
# Bulk Modulus (GPa) = 68.16012 71.98368 70.07190
# Shear Modulus (GPa) = 38.39324 108.93757 73.66541
#
# Velocity S-wave (km/s) = 4.24469 7.15003 5.87964
# Velocity P-wave (km/s) = 7.48397 10.09677 8.88692
#
# Compressibility (1/GPa) = 0.01467134
#
# Stress axis : x y z
#
# Youngs Moduli (GPa) = 96.63201 68.47332 127.70306
#
# Poissons Ratio (x) = 0.40230 0.27218
# Poissons Ratio (y) = 0.56774 0.13401
# Poissons Ratio (z) = 0.20596 0.07185
#
# Static dielectric constant tensor:
#      x y z
#    x 1.857850 0.000000 0.000000 
#    y 0.000000 1.795820 0.000000 
#    z 0.000000 0.000000 1.762710 
# 
# From -- ./inp_files/3044.got.cif
#   From: 2010.05.17/outbox.cif.g08.bks.cpg/sg74_2_cif.got.tgz:3044.got - 2010.06.03 17:57:02.
