data_PCOD9540848
_publ_section_title
;
Structure prediction by ZEFSAII (Michael W. Deem and Ramdas Pophale) SiO2 
 PCOD9540848
Probable space group: I M M A
;
_chemical_formula_sum "Si O2"
_cell_formula_units_Z 44
_cell_length_a 15.000000
_cell_length_b 18.000000
_cell_length_c 18.000000
_cell_angle_alpha 90.000000
_cell_angle_beta 90.000000
_cell_angle_gamma 90.000000
_cell_volume 4860.000000
_symmetry_space_group_name_H-M "I M M A"
_symmetry_group_IT_number 74
_symmetry_cell_setting 'orthorhombic'
loop_
_space_group_symop_operation_xyz
x,y,z
-x,1/2-y,z
x,-y,-z
-x,1/2+y,-z
-x,-y,-z
x,1/2+y,-z
-x,y,z
x,1/2-y,z
1/2+x,1/2+y,1/2+z
1/2-x,-y,1/2+z
1/2+x,1/2-y,1/2-z
1/2-x,y,1/2-z
1/2-x,1/2-y,1/2-z
1/2+x,y,1/2-z
1/2-x,1/2+y,1/2+z
1/2+x,-y,1/2+z
loop_
_atom_site_type_symbol
_atom_site_label
_atom_site_fract_x
_atom_site_fract_y
_atom_site_fract_z
Si Si1 0.172011 0.461715 0.312151
Si Si2 0.000000 0.832992 0.162252
Si Si3 0.686687 0.571389 0.051353
Si Si4 0.638385 0.664572 0.471488
Si Si5 0.604278 0.661713 0.925196
Si Si6 0.000000 0.930865 0.943895
Si Si7 0.500000 0.497486 0.718941
O O1 0.250000 0.456466 0.250000
O O2 0.176310 0.533663 0.367695
O O3 0.159854 0.388938 0.365868
O O4 0.084548 0.474358 0.263743
O O5 0.081847 0.836896 0.104520
O O6 0.000000 0.907487 0.210826
O O7 0.000000 0.750000 0.197709
O O8 0.771138 0.624299 0.047536
O O9 0.702946 0.500000 0.000000
O O10 0.614284 0.620749 0.005821
O O11 0.649229 0.750000 0.494087
O O12 0.584949 0.619421 0.534501
O O13 0.500000 0.657878 0.903986
O O14 0.629233 0.750000 0.927708
O O15 0.000000 0.965384 0.862562
O O16 0.000000 0.000000 0.000000
#
# Coordination Sequence:
#
# PCOD9540848 Si02
#       7
#    16   8  16  16  16   8   8
#     4  11  25  40  63  95 128 167 210 254 320 384
#     4   9  19  34  55  80 118 161 197 248 308 363
#     4  10  22  37  64  86 117 158 217 255 301 362
#     4  10  19  35  57  89 120 152 201 262 310 359
#     4  10  22  43  67  91 121 164 213 265 316 368
#     4  11  21  33  61  87 118 165 211 252 308 380
#     4  12  23  40  61  88 130 167 207 256 320 378
#
# _framework density 9.0534979999999994
#
# number of rings (size 3 to 8) (size 9 to 14) (size 15 to 20)
#    0.000    1.636    2.727    3.000    6.364    1.455 
#    0.000    3.636    0.000    4.909    0.000    0.000 
#    0.000    0.000    0.000    0.000    0.000    0.000 
#
# Total GULP energy -245189.957450 kJ/mol
# GULP energy per Si atom -5572.499033 kJ/mol
# Density = 0.903289 g / cm^3
# Si number density = 9.053498 Si / 1000 Ang^3
#
#
#
# Elastic Constant Matrix: (Units=GPa)
#
#
# Indices 1 2 3 4 5 6 
#
# 1 102.6904 42.9576 43.9389 0.0000 0.0000 0.0000
# 2 42.9576 164.5751 54.4257 0.0000 0.0000 0.0000
# 3 43.9389 54.4257 116.0317 0.0000 0.0000 0.0000
# 4 0.0000 0.0000 0.0000 9.7888 0.0000 0.0000
# 5 0.0000 0.0000 0.0000 0.0000 15.9322 0.0000
# 6 0.0000 0.0000 0.0000 0.0000 0.0000 33.5024
#
#
#
# Elastic Compliance Matrix: (Units=1/GPa)
#
#
# Indices 1 2 3 4 5 6 
#
# 1 0.012127 -0.001949 -0.003678 0.000000 0.000000 0.000000
# 2 -0.001949 0.007505 -0.002782 0.000000 0.000000 0.000000
# 3 -0.003678 -0.002782 0.011316 0.000000 0.000000 0.000000
# 4 0.000000 0.000000 0.000000 0.102158 0.000000 0.000000
# 5 0.000000 0.000000 0.000000 0.000000 0.062766 0.000000
# 6 0.000000 0.000000 0.000000 0.000000 0.000000 0.029849
#
#
# Mechanical properties :
#
#
# Convention : Reuss Voigt Hill
#
# Bulk Modulus (GPa) = 70.77341 73.99350 72.38346
# Shear Modulus (GPa) = 20.22251 27.97636 24.09944
#
# Velocity S-wave (km/s) = 3.34553 3.93499 3.65217
# Velocity P-wave (km/s) = 7.35490 7.84849 7.60570
#
# Compressibility (1/GPa) = 0.01412960
#
# Stress axis : x y z
#
# Youngs Moduli (GPa) = 82.45988 133.24254 88.36906
#
# Poissons Ratio (x) = 0.25970 0.32503
# Poissons Ratio (y) = 0.16072 0.24587
# Poissons Ratio (z) = 0.30329 0.37071
#
# Static dielectric constant tensor:
#      x y z
#    x 1.944500 0.000000 0.000000 
#    y 0.000000 1.624650 0.000000 
#    z 0.000000 0.000000 1.633400 
# 
# From -- ./inp_files/42842.got.cif
#   From: 2010.05.17/outbox.ucp.g08.bks.cvg/sg74_22_cif.got.tgz:42842.got - 2010.06.11 16:37:44.
