data_PCOD9540151
_publ_section_title
;
Structure prediction by ZEFSAII (Michael W. Deem and Ramdas Pophale) SiO2 
 PCOD9540151
Probable space group: I M M A
;
_chemical_formula_sum "Si O2"
_cell_formula_units_Z 60
_cell_length_a 10.218037
_cell_length_b 22.443444
_cell_length_c 12.488370
_cell_angle_alpha 90.000000
_cell_angle_beta 90.000000
_cell_angle_gamma 90.000000
_cell_volume 2863.932181
_symmetry_space_group_name_H-M "I M M A"
_symmetry_group_IT_number 74
_symmetry_cell_setting 'orthorhombic'
loop_
_space_group_symop_operation_xyz
x,y,z
-x,1/2-y,z
x,-y,-z
-x,1/2+y,-z
-x,-y,-z
x,1/2+y,-z
-x,y,z
x,1/2-y,z
1/2+x,1/2+y,1/2+z
1/2-x,-y,1/2+z
1/2+x,1/2-y,1/2-z
1/2-x,y,1/2-z
1/2-x,1/2-y,1/2-z
1/2+x,y,1/2-z
1/2-x,1/2+y,1/2+z
1/2+x,-y,1/2+z
loop_
_atom_site_type_symbol
_atom_site_label
_atom_site_fract_x
_atom_site_fract_y
_atom_site_fract_z
Si Si1 0.750000 0.044952 0.250000
Si Si2 0.500000 0.033876 0.693230
Si Si3 0.215329 0.633277 0.553187
Si Si4 0.000000 0.250000 0.771394
Si Si5 0.000000 0.144186 0.957246
Si Si6 0.000000 0.130836 0.621906
Si Si7 0.135542 0.250000 0.332078
O O1 0.792013 0.085616 0.351084
O O2 0.629101 0.005888 0.292790
O O3 0.500000 0.076682 0.590127
O O4 0.500000 0.081726 0.787352
O O5 0.365529 0.647623 0.523731
O O6 0.148098 0.692587 0.595992
O O7 0.129852 0.618769 0.448749
O O8 0.000000 0.196385 0.866209
O O9 0.000000 0.303629 0.677540
O O10 0.250000 0.250000 0.250000
O O11 0.000000 0.250000 0.270546
#
# Coordination Sequence:
#
# PCOD9540151 Si02
#       7
#     8   8  16   4   8   8   8
#     4  12  26  43  68  97 144 182 230 278 342 408
#     4  11  26  45  66 101 136 187 234 290 330 401
#     4  12  25  44  70 103 136 184 226 285 347 414
#     4  10  24  48  70 100 132 172 226 292 346 410
#     4  11  26  44  72 102 138 177 233 286 347 404
#     4  11  24  44  72  96 134 177 235 286 347 406
#     4  12  26  43  69 101 137 174 222 280 344 419
#
# _framework density 20.950216000000001
#
# number of rings (size 3 to 8) (size 9 to 14) (size 15 to 20)
#    0.000    0.533    2.667    4.800    1.867   10.667 
#    0.000    0.000    0.000    0.000    0.000    0.000 
#    0.000    0.000    0.000    0.000    0.000    0.000 
#
# Total GULP energy -167166.197751 kJ/mol
# GULP energy per Si atom -5572.206592 kJ/mol
# Density = 2.090253 g / cm^3
# Si number density = 20.950216 Si / 1000 Ang^3
#
#
#
# Elastic Constant Matrix: (Units=GPa)
#
#
# Indices 1 2 3 4 5 6 
#
# 1 145.4381 26.0106 10.5951 0.0000 0.0000 0.0000
# 2 26.0106 150.5652 23.7440 -0.0001 0.0000 0.0000
# 3 10.5951 23.7440 56.8452 -0.0001 -0.0001 0.0000
# 4 0.0000 -0.0001 -0.0001 4.2994 0.0000 0.0000
# 5 0.0000 0.0000 -0.0001 0.0000 0.5585 0.0000
# 6 0.0000 0.0000 0.0000 0.0000 0.0000 36.7069
#
#
#
# Elastic Compliance Matrix: (Units=1/GPa)
#
#
# Indices 1 2 3 4 5 6 
#
# 1 0.007135 -0.001095 -0.000873 0.000000 0.000000 0.000000
# 2 -0.001095 0.007278 -0.002836 0.000000 0.000000 0.000000
# 3 -0.000873 -0.002836 0.018939 0.000000 0.000002 0.000000
# 4 0.000000 0.000000 0.000000 0.232593 -0.000007 0.000000
# 5 0.000000 0.000000 0.000002 -0.000007 1.790485 0.000001
# 6 0.000000 0.000000 0.000000 0.000000 0.000001 0.027243
#
#
# Mechanical properties :
#
#
# Convention : Reuss Voigt Hill
#
# Bulk Modulus (GPa) = 42.11392 52.61646 47.36519
# Shear Modulus (GPa) = 2.37960 27.81287 15.09623
#
# Velocity S-wave (km/s) = 1.06691 3.64754 2.68727
# Velocity P-wave (km/s) = 4.65438 6.55049 5.68208
#
# Compressibility (1/GPa) = 0.02374512
#
# Stress axis : x y z
#
# Youngs Moduli (GPa) = 140.15068 137.39980 52.80167
#
# Poissons Ratio (x) = 0.15046 0.04607
# Poissons Ratio (y) = 0.15347 0.14974
# Poissons Ratio (z) = 0.12228 0.38965
#
# Static dielectric constant tensor:
#      x y z
#    x 1.735410 0.000000 0.000000 
#    y 0.000000 1.726240 0.000000 
#    z 0.000000 0.000000 1.770340 
# 
# From -- ./inp_files/18514.got.cif
#   From: 2010.05.17/outbox.cif.g08.bks.cpg/sg74_10_cif.got.tgz:18514.got - 2010.06.03 17:57:02.
