data_PCOD9540647
_publ_section_title
;
Structure prediction by ZEFSAII (Michael W. Deem and Ramdas Pophale) SiO2 
 PCOD9540647
Probable space group: I M M A
;
_chemical_formula_sum "Si O2"
_cell_formula_units_Z 64
_cell_length_a 21.121527
_cell_length_b 8.750792
_cell_length_c 17.248397
_cell_angle_alpha 90.000000
_cell_angle_beta 90.000000
_cell_angle_gamma 90.000000
_cell_volume 3188.022761
_symmetry_space_group_name_H-M "I M M A"
_symmetry_group_IT_number 74
_symmetry_cell_setting 'orthorhombic'
loop_
_space_group_symop_operation_xyz
x,y,z
-x,1/2-y,z
x,-y,-z
-x,1/2+y,-z
-x,-y,-z
x,1/2+y,-z
-x,y,z
x,1/2-y,z
1/2+x,1/2+y,1/2+z
1/2-x,-y,1/2+z
1/2+x,1/2-y,1/2-z
1/2-x,y,1/2-z
1/2-x,1/2-y,1/2-z
1/2+x,y,1/2-z
1/2-x,1/2+y,1/2+z
1/2+x,-y,1/2+z
loop_
_atom_site_type_symbol
_atom_site_label
_atom_site_fract_x
_atom_site_fract_y
_atom_site_fract_z
Si Si1 0.698454 0.424438 0.383816
Si Si2 0.169291 0.430362 0.582104
Si Si3 0.620114 0.573070 0.761761
Si Si4 0.069661 0.069230 0.883578
O O1 0.712972 0.250000 0.405768
O O2 0.756166 0.530331 0.407235
O O3 0.683886 0.430606 0.291467
O O4 0.629967 0.477118 0.415543
O O5 0.149157 0.500000 0.500000
O O6 0.159964 0.250000 0.583750
O O7 0.133919 0.509197 0.654006
O O8 0.599459 0.750000 0.763583
O O9 0.574390 0.470855 0.708466
O O10 0.077753 0.250000 0.895101
O O11 0.000000 0.022271 0.910917
#
# Coordination Sequence:
#
# PCOD9540647 Si02
#       4
#    16  16  16  16
#     4   9  19  33  52  75 103 132 167 207 248 296
#     4  12  23  34  51  73 104 136 168 205 251 302
#     4   9  19  33  52  75 103 132 167 207 248 296
#     4   9  17  30  51  78 103 129 167 209 248 291
#
# _framework density 20.075139
#
# number of rings (size 3 to 8) (size 9 to 14) (size 15 to 20)
#    1.500    0.750    0.000    4.500    0.000    5.000 
#    0.000    0.000    0.000    1.500    0.000    0.000 
#    0.000    0.000    0.000    0.000    0.000    0.000 
#
# Total GULP energy -178319.906954 kJ/mol
# GULP energy per Si atom -5572.497092 kJ/mol
# Density = 2.002945 g / cm^3
# Si number density = 20.075139 Si / 1000 Ang^3
#
#
#
# Elastic Constant Matrix: (Units=GPa)
#
#
# Indices 1 2 3 4 5 6 
#
# 1 34.7236 -12.5642 -5.7951 0.0000 0.0000 0.0000
# 2 -12.5642 76.0387 16.9608 0.0000 0.0000 0.0000
# 3 -5.7951 16.9608 119.1567 0.0000 0.0000 0.0000
# 4 0.0000 0.0000 0.0000 21.0896 0.0000 0.0000
# 5 0.0000 0.0000 0.0000 0.0000 143.9275 0.0000
# 6 0.0000 0.0000 0.0000 0.0000 0.0000 1.0767
#
#
#
# Elastic Compliance Matrix: (Units=1/GPa)
#
#
# Indices 1 2 3 4 5 6 
#
# 1 0.030703 0.004896 0.000796 0.000000 0.000000 0.000000
# 2 0.004896 0.014363 -0.001806 0.000000 0.000000 0.000000
# 3 0.000796 -0.001806 0.008688 0.000000 0.000000 0.000000
# 4 0.000000 0.000000 0.000000 0.047417 0.000000 0.000000
# 5 0.000000 0.000000 0.000000 0.000000 0.006948 0.000000
# 6 0.000000 0.000000 0.000000 0.000000 0.000000 0.928765
#
#
# Mechanical properties :
#
#
# Convention : Reuss Voigt Hill
#
# Bulk Modulus (GPa) = 16.25339 25.23576 20.74458
# Shear Modulus (GPa) = 4.76362 48.63992 26.70177
#
# Velocity S-wave (km/s) = 1.54209 4.92763 3.65100
# Velocity P-wave (km/s) = 3.35925 6.70622 5.30367
#
# Compressibility (1/GPa) = 0.06152562
#
# Stress axis : x y z
#
# Youngs Moduli (GPa) = 32.56993 69.62317 115.09923
#
# Poissons Ratio (x) = -0.34085 -0.09166
# Poissons Ratio (y) = -0.15945 0.20791
# Poissons Ratio (z) = -0.02594 0.12576
#
# Static dielectric constant tensor:
#      x y z
#    x 1.720860 0.000000 0.000000 
#    y 0.000000 1.662450 0.000000 
#    z 0.000000 0.000000 1.759020 
# 
# From -- ./inp_files/44765.got.cif
#   From: 2010.05.17/outbox.cif.g08.bks.cpg/sg74_23_cif.got.tgz:44765.got - 2010.06.03 17:57:02.
