data_PCOD9540407
_publ_section_title
;
Structure prediction by ZEFSAII (Michael W. Deem and Ramdas Pophale) SiO2 
 PCOD9540407
Probable space group: I M M A
;
_chemical_formula_sum "Si O2"
_cell_formula_units_Z 80
_cell_length_a 18.900188
_cell_length_b 7.703202
_cell_length_c 27.340685
_cell_angle_alpha 90.000000
_cell_angle_beta 90.000000
_cell_angle_gamma 90.000000
_cell_volume 3980.584081
_symmetry_space_group_name_H-M "I M M A"
_symmetry_group_IT_number 74
_symmetry_cell_setting 'orthorhombic'
loop_
_space_group_symop_operation_xyz
x,y,z
-x,1/2-y,z
x,-y,-z
-x,1/2+y,-z
-x,-y,-z
x,1/2+y,-z
-x,y,z
x,1/2-y,z
1/2+x,1/2+y,1/2+z
1/2-x,-y,1/2+z
1/2+x,1/2-y,1/2-z
1/2-x,y,1/2-z
1/2-x,1/2-y,1/2-z
1/2+x,y,1/2-z
1/2-x,1/2+y,1/2+z
1/2+x,-y,1/2+z
loop_
_atom_site_type_symbol
_atom_site_label
_atom_site_fract_x
_atom_site_fract_y
_atom_site_fract_z
Si Si1 0.731974 0.448513 0.446133
Si Si2 0.077017 0.039814 0.917893
Si Si3 0.577884 0.462602 0.795691
Si Si4 0.221231 0.449982 0.658101
Si Si5 0.372940 0.038266 0.688798
O O1 0.756541 0.500000 0.500000
O O2 0.749288 0.250000 0.437227
O O3 0.646940 0.471530 0.444015
O O4 0.764096 0.547914 0.399862
O O5 0.079506 0.250000 0.920718
O O6 0.086343 0.990061 0.860748
O O7 0.000000 0.981509 0.935829
O O8 0.500000 0.521596 0.811527
O O9 0.576575 0.250000 0.797313
O O10 0.645536 0.523987 0.826701
O O11 0.592055 0.514127 0.739427
O O12 0.219643 0.250000 0.674821
O O13 0.292004 0.525879 0.682918
O O14 0.371436 0.250000 0.688794
#
# Coordination Sequence:
#
# PCOD9540407 Si02
#       5
#    16  16  16  16  16
#     4  11  22  36  53  70  90 120 160 204 248 293
#     4   9  17  30  49  74 104 134 163 196 232 272
#     4   9  15  23  42  74 105 130 160 199 238 277
#     4   9  17  30  48  71  99 129 162 200 240 282
#     4   8  13  23  42  70 102 134 165 194 225 266
#
# _framework density 20.097552
#
# number of rings (size 3 to 8) (size 9 to 14) (size 15 to 20)
#    0.000    2.800    0.000    4.200    0.000    5.600 
#    0.000    0.000    0.000   10.800    0.000    0.000 
#    0.000    0.000    0.000    0.000    0.000    0.000 
#
# Total GULP energy -223117.948460 kJ/mol
# GULP energy per Si atom -5577.948712 kJ/mol
# Density = 2.005181 g / cm^3
# Si number density = 20.097552 Si / 1000 Ang^3
#
#
#
# Elastic Constant Matrix: (Units=GPa)
#
#
# Indices 1 2 3 4 5 6 
#
# 1 109.2110 -1.6491 24.6455 0.0000 0.0000 0.0000
# 2 -1.6491 35.5371 -14.6772 0.0000 0.0000 0.0000
# 3 24.6455 -14.6772 51.6380 0.0000 0.0000 0.0000
# 4 0.0000 0.0000 0.0000 7.0331 0.0000 0.0000
# 5 0.0000 0.0000 0.0000 0.0000 -3.5663 0.0000
# 6 0.0000 0.0000 0.0000 0.0000 0.0000 -1.9883
#
#
#
# Elastic Compliance Matrix: (Units=1/GPa)
#
#
# Indices 1 2 3 4 5 6 
#
# 1 0.010359 -0.001769 -0.005447 0.000000 0.000000 0.000000
# 2 -0.001769 0.032184 0.009992 0.000000 0.000000 0.000000
# 3 -0.005447 0.009992 0.024805 0.000000 0.000000 0.000000
# 4 0.000000 0.000000 0.000000 0.142186 0.000000 0.000000
# 5 0.000000 0.000000 0.000000 0.000000 -0.280402 0.000000
# 6 0.000000 0.000000 0.000000 0.000000 0.000000 -0.502949
#
#
# Mechanical properties :
#
#
# Convention : Reuss Voigt Hill
#
# Bulk Modulus (GPa) = 13.71718 23.66940 18.69329
# Shear Modulus (GPa) = -9.00790 12.83348 1.91279
#
# Velocity S-wave (km/s) = -2.11939 2.52971 0.97664
# Velocity P-wave (km/s) = 0.92251 4.50948 3.25472
#
# Compressibility (1/GPa) = 0.07290129
#
# Stress axis : x y z
#
# Youngs Moduli (GPa) = 96.53365 31.07100 40.31388
#
# Poissons Ratio (x) = 0.05496 0.21959
# Poissons Ratio (y) = 0.17076 -0.40282
# Poissons Ratio (z) = 0.52581 -0.31046
#
# Static dielectric constant tensor:
#      x y z
#    x 1.725820 0.000000 0.000000 
#    y 0.000000 1.766860 0.000000 
#    z 0.000000 0.000000 1.709390 
# 
# From -- ./inp_files/63974.got.cif
#   From: 2010.05.17/outbox.cif.g08.bks.cpg/sg74_32_cif.got.tgz:63974.got - 2010.06.03 17:57:02.
