data_PCOD9540883
_publ_section_title
;
Structure prediction by ZEFSAII (Michael W. Deem and Ramdas Pophale) SiO2 
 PCOD9540883
Probable space group: I M M A
;
_chemical_formula_sum "Si O2"
_cell_formula_units_Z 52
_cell_length_a 27.000000
_cell_length_b 9.000000
_cell_length_c 21.000000
_cell_angle_alpha 90.000000
_cell_angle_beta 90.000000
_cell_angle_gamma 90.000000
_cell_volume 5103.000000
_symmetry_space_group_name_H-M "I M M A"
_symmetry_group_IT_number 74
_symmetry_cell_setting 'orthorhombic'
loop_
_space_group_symop_operation_xyz
x,y,z
-x,1/2-y,z
x,-y,-z
-x,1/2+y,-z
-x,-y,-z
x,1/2+y,-z
-x,y,z
x,1/2-y,z
1/2+x,1/2+y,1/2+z
1/2-x,-y,1/2+z
1/2+x,1/2-y,1/2-z
1/2-x,y,1/2-z
1/2-x,1/2-y,1/2-z
1/2+x,y,1/2-z
1/2-x,1/2+y,1/2+z
1/2+x,-y,1/2+z
loop_
_atom_site_type_symbol
_atom_site_label
_atom_site_fract_x
_atom_site_fract_y
_atom_site_fract_z
Si Si1 0.157612 0.427745 0.066229
Si Si2 0.942485 0.422000 0.237148
Si Si3 0.403694 0.923710 0.146037
Si Si4 0.500000 0.927703 0.068101
Si Si5 0.734672 0.570986 0.676203
Si Si6 0.696540 0.075578 0.930766
Si Si7 0.556350 0.926789 0.398267
O O1 0.160469 0.250000 0.059532
O O2 0.184001 0.466093 0.135017
O O3 0.101168 0.484204 0.070232
O O4 0.178919 0.500000 0.000000
O O5 0.932963 0.250000 0.219569
O O6 0.904374 0.476983 0.290724
O O7 0.940369 0.526887 0.175881
O O8 0.000000 0.430603 0.260189
O O9 0.408030 0.750000 0.165323
O O10 0.451903 0.970114 0.107308
O O11 0.358821 0.935157 0.097079
O O12 0.500000 0.750000 0.061392
O O13 0.500000 0.000000 0.000000
O O14 0.736843 0.750000 0.677804
O O15 0.750000 0.523076 0.750000
O O16 0.772928 0.504159 0.625192
O O17 0.710201 0.250000 0.935708
O O18 0.700776 0.000000 0.000000
O O19 0.500000 0.965448 0.419101
O O20 0.563076 0.750000 0.406352
#
# Coordination Sequence:
#
# PCOD9540883 Si02
#       7
#    16  16  16   8  16  16  16
#     4  11  24  43  69 100 134 175 220 267 324 389
#     4  10  20  34  55  85 120 163 211 259 313 373
#     4  10  21  36  55  82 117 161 208 259 319 378
#     4  10  20  34  52  74 112 156 203 256 309 370
#     4  10  24  46  70  98 131 168 210 265 327 383
#     4  11  24  41  63  92 124 165 213 263 322 385
#     4  10  22  40  64  95 134 175 213 260 319 383
#
# _framework density 10.190084000000001
#
# number of rings (size 3 to 8) (size 9 to 14) (size 15 to 20)
#    0.000    1.692    0.769    2.769    2.154    6.462 
#    0.000    0.000    0.000    0.000    0.000    0.000 
#    0.000    0.000    0.000    0.000    0.000    0.000 
#
# Total GULP energy -290093.445292 kJ/mol
# GULP energy per Si atom -5578.720102 kJ/mol
# Density = 1.016689 g / cm^3
# Si number density = 10.190084 Si / 1000 Ang^3
#
#
#
# Elastic Constant Matrix: (Units=GPa)
#
#
# Indices 1 2 3 4 5 6 
#
# 1 89.8182 19.7431 31.8630 0.0000 0.0000 0.0000
# 2 19.7431 27.7546 25.1377 0.0000 0.0000 0.0000
# 3 31.8630 25.1377 137.9389 0.0000 0.0000 0.0000
# 4 0.0000 0.0000 0.0000 41.7764 0.0000 0.0000
# 5 0.0000 0.0000 0.0000 0.0000 40.7424 0.0000
# 6 0.0000 0.0000 0.0000 0.0000 0.0000 24.3067
#
#
#
# Elastic Compliance Matrix: (Units=1/GPa)
#
#
# Indices 1 2 3 4 5 6 
#
# 1 0.013500 -0.008119 -0.001639 0.000000 0.000000 0.000000
# 2 -0.008119 0.048035 -0.006879 0.000000 0.000000 0.000000
# 3 -0.001639 -0.006879 0.008882 0.000000 0.000000 0.000000
# 4 0.000000 0.000000 0.000000 0.023937 0.000000 0.000000
# 5 0.000000 0.000000 0.000000 0.000000 0.024544 0.000000
# 6 0.000000 0.000000 0.000000 0.000000 0.000000 0.041141
#
#
# Mechanical properties :
#
#
# Convention : Reuss Voigt Hill
#
# Bulk Modulus (GPa) = 26.92177 45.44434 36.18306
# Shear Modulus (GPa) = 24.30823 33.28299 28.79561
#
# Velocity S-wave (km/s) = 3.45735 4.04556 3.76296
# Velocity P-wave (km/s) = 5.40150 6.64596 6.05578
#
# Compressibility (1/GPa) = 0.03714466
#
# Stress axis : x y z
#
# Youngs Moduli (GPa) = 74.07682 20.81810 112.59152
#
# Poissons Ratio (x) = 0.16901 0.18451
# Poissons Ratio (y) = 0.60139 0.77446
# Poissons Ratio (z) = 0.12140 0.14320
#
# Static dielectric constant tensor:
#      x y z
#    x 1.802720 0.000000 0.000000 
#    y 0.000000 1.694840 0.000000 
#    z 0.000000 0.000000 1.728290 
# 
# From -- ./inp_files/55208.got.cif
#   From: 2010.05.17/outbox.ucp.g08.bks.cvg/sg74_28_cif.got.tgz:55208.got - 2010.06.11 16:37:44.
