data_PCOD9540898
_publ_section_title
;
Structure prediction by ZEFSAII (Michael W. Deem and Ramdas Pophale) SiO2 
 PCOD9540898
Probable space group: I M M A
;
_chemical_formula_sum "Si O2"
_cell_formula_units_Z 52
_cell_length_a 21.000000
_cell_length_b 9.000000
_cell_length_c 30.000000
_cell_angle_alpha 90.000000
_cell_angle_beta 90.000000
_cell_angle_gamma 90.000000
_cell_volume 5670.000000
_symmetry_space_group_name_H-M "I M M A"
_symmetry_group_IT_number 74
_symmetry_cell_setting 'orthorhombic'
loop_
_space_group_symop_operation_xyz
x,y,z
-x,1/2-y,z
x,-y,-z
-x,1/2+y,-z
-x,-y,-z
x,1/2+y,-z
-x,y,z
x,1/2-y,z
1/2+x,1/2+y,1/2+z
1/2-x,-y,1/2+z
1/2+x,1/2-y,1/2-z
1/2-x,y,1/2-z
1/2-x,1/2-y,1/2-z
1/2+x,y,1/2-z
1/2-x,1/2+y,1/2+z
1/2+x,-y,1/2+z
loop_
_atom_site_type_symbol
_atom_site_label
_atom_site_fract_x
_atom_site_fract_y
_atom_site_fract_z
Si Si1 0.762778 0.070718 0.124526
Si Si2 0.076133 0.583459 0.457654
Si Si3 0.639583 0.429110 0.451253
Si Si4 0.000000 0.571399 0.951002
Si Si5 0.309850 0.070196 0.279366
Si Si6 0.071452 0.570419 0.723835
Si Si7 0.874534 0.928650 0.364892
O O1 0.751213 0.250000 0.123456
O O2 0.803624 0.027533 0.081555
O O3 0.801983 0.036118 0.169130
O O4 0.697274 0.984315 0.130265
O O5 0.103023 0.500000 0.500000
O O6 0.101631 0.750000 0.458137
O O7 0.091684 0.517765 0.410034
O O8 0.000000 0.589718 0.461890
O O9 0.645790 0.500000 0.500000
O O10 0.641312 0.250000 0.455386
O O11 0.569295 0.469579 0.431677
O O12 0.000000 0.750000 0.954604
O O13 0.000000 0.500000 0.000000
O O14 0.308842 0.250000 0.275803
O O15 0.250000 0.015576 0.250000
O O16 0.375866 0.018863 0.258842
O O17 0.074054 0.750000 0.720743
O O18 0.091766 0.502455 0.676938
O O19 0.000000 0.527494 0.735782
O O20 0.878649 0.750000 0.361272
#
# Coordination Sequence:
#
# PCOD9540898 Si02
#       7
#    16  16  16   8  16  16  16
#     4  10  20  35  54  76 105 140 176 215 262 312
#     4   9  19  35  52  71  98 131 167 209 257 303
#     4   9  18  32  52  76 105 139 175 219 266 317
#     4   8  14  28  48  72  98 130 172 210 256 312
#     4   9  16  32  56  77 104 137 170 214 262 307
#     4  10  20  35  57  83 106 134 175 218 262 315
#     4  11  22  35  53  77 106 139 175 215 260 311
#
# _framework density 9.1710759999999993
#
# number of rings (size 3 to 8) (size 9 to 14) (size 15 to 20)
#    0.000    2.462    1.538    0.923    0.000    3.385 
#    1.385    6.154    0.000    0.000    0.000    0.000 
#    0.000    0.000    0.000    0.000    0.000    0.000 
#
# Total GULP energy -289596.379124 kJ/mol
# GULP energy per Si atom -5569.161137 kJ/mol
# Density = 0.915020 g / cm^3
# Si number density = 9.171076 Si / 1000 Ang^3
#
#
#
# Elastic Constant Matrix: (Units=GPa)
#
#
# Indices 1 2 3 4 5 6 
#
# 1 90.1522 15.1746 24.8532 0.0000 0.0000 0.0000
# 2 15.1746 -5.1610 6.9022 0.0000 0.0000 0.0000
# 3 24.8532 6.9022 62.4718 0.0000 0.0000 0.0000
# 4 0.0000 0.0000 0.0000 -11.1571 0.0000 0.0000
# 5 0.0000 0.0000 0.0000 0.0000 33.3546 0.0000
# 6 0.0000 0.0000 0.0000 0.0000 0.0000 4.4779
#
#
#
# Elastic Compliance Matrix: (Units=1/GPa)
#
#
# Indices 1 2 3 4 5 6 
#
# 1 0.009404 0.019730 -0.005921 0.000000 0.000000 0.000000
# 2 0.019730 -0.127418 0.006228 0.000000 0.000000 0.000000
# 3 -0.005921 0.006228 0.017675 0.000000 0.000000 0.000000
# 4 0.000000 0.000000 0.000000 -0.089629 0.000000 0.000000
# 5 0.000000 0.000000 0.000000 0.000000 0.029981 0.000000
# 6 0.000000 0.000000 0.000000 0.000000 0.000000 0.223319
#
#
# Mechanical properties :
#
#
# Convention : Reuss Voigt Hill
#
# Bulk Modulus (GPa) = -16.59347 26.81368 5.11011
# Shear Modulus (GPa) = 1578.98172 12.03728 795.50950
#
# Velocity S-wave (km/s) = 29.37205 2.56454 20.84819
# Velocity P-wave (km/s) = 33.78200 4.83937 24.13134
#
# Compressibility (1/GPa) = -0.06026468
#
# Stress axis : x y z
#
# Youngs Moduli (GPa) = 106.34234 -7.84815 56.57834
#
# Poissons Ratio (x) = 0.15485 0.33500
# Poissons Ratio (y) = -2.09816 -0.35240
# Poissons Ratio (z) = 0.62965 0.04888
#
# Static dielectric constant tensor:
#      x y z
#    x 1.659680 0.000000 0.000000 
#    y 0.000000 1.628780 0.000000 
#    z 0.000000 0.000000 1.645270 
# 
# From -- ./inp_files/73351.got.cif
#   From: 2010.05.17/outbox.ucp.g08.bks.cvg/sg74_37_cif.got.tgz:73351.got - 2010.06.11 16:37:44.
