data_PCOD9540052
_publ_section_title
;
Structure prediction by ZEFSAII (Michael W. Deem and Ramdas Pophale) SiO2 
 PCOD9540052
Probable space group: I M M A
;
_chemical_formula_sum "Si O2"
_cell_formula_units_Z 112
_cell_length_a 16.748200
_cell_length_b 30.013572
_cell_length_c 11.153979
_cell_angle_alpha 90.000000
_cell_angle_beta 90.000000
_cell_angle_gamma 90.000000
_cell_volume 5606.807505
_symmetry_space_group_name_H-M "I M M A"
_symmetry_group_IT_number 74
_symmetry_cell_setting 'orthorhombic'
loop_
_space_group_symop_operation_xyz
x,y,z
-x,1/2-y,z
x,-y,-z
-x,1/2+y,-z
-x,-y,-z
x,1/2+y,-z
-x,y,z
x,1/2-y,z
1/2+x,1/2+y,1/2+z
1/2-x,-y,1/2+z
1/2+x,1/2-y,1/2-z
1/2-x,y,1/2-z
1/2-x,1/2-y,1/2-z
1/2+x,y,1/2-z
1/2-x,1/2+y,1/2+z
1/2+x,-y,1/2+z
loop_
_atom_site_type_symbol
_atom_site_label
_atom_site_fract_x
_atom_site_fract_y
_atom_site_fract_z
Si Si1 0.903469 0.200453 0.987633
Si Si2 0.409166 0.464507 0.717260
Si Si3 0.594781 0.623775 0.935762
Si Si4 0.799548 0.600979 0.361860
Si Si5 0.154216 0.437092 0.236351
Si Si6 0.402987 0.798292 0.766219
Si Si7 0.360033 0.399092 0.515127
O O1 0.878724 0.250000 0.940146
O O2 0.879013 0.199639 0.127795
O O3 0.000000 0.199684 0.981136
O O4 0.875058 0.151924 0.942953
O O5 0.500000 0.465479 0.762453
O O6 0.348171 0.440200 0.807279
O O7 0.376563 0.514068 0.700710
O O8 0.407096 0.434346 0.597000
O O9 0.500000 0.626690 0.948495
O O10 0.616371 0.579203 0.861696
O O11 0.626917 0.662554 0.849156
O O12 0.636286 0.628506 0.063985
O O13 0.750000 0.879063 0.250000
O O14 0.731865 0.588912 0.457762
O O15 0.250000 0.436134 0.250000
O O16 0.125681 0.405642 0.125973
O O17 0.500000 0.800685 0.765560
O O18 0.379633 0.750000 0.814703
#
# Coordination Sequence:
#
# PCOD9540052 Si02
#       7
#    16  16  16  16  16  16  16
#     4   9  17  31  56  92 130 163 200 250 309 373
#     4  11  25  41  60  86 117 161 217 264 300 359
#     4  11  21  36  63  90 119 159 208 261 306 369
#     4  10  23  43  59  80 116 164 206 252 314 369
#     4  12  23  38  60  91 129 162 199 248 319 381
#     4   8  15  29  52  86 123 153 187 242 311 369
#     4  11  21  38  63  88 126 166 199 245 315 382
#
# _framework density 19.975715999999998
#
# number of rings (size 3 to 8) (size 9 to 14) (size 15 to 20)
#    0.000    1.714    2.857    3.857    0.000    2.857 
#    0.000    2.143    0.000   10.286    0.000    8.000 
#    0.000    0.000    0.000    0.000    0.000    0.000 
#
# Total GULP energy -312133.002104 kJ/mol
# GULP energy per Si atom -5573.803609 kJ/mol
# Density = 1.993025 g / cm^3
# Si number density = 19.975716 Si / 1000 Ang^3
#
#
#
# Elastic Constant Matrix: (Units=GPa)
#
#
# Indices 1 2 3 4 5 6 
#
# 1 70.5088 13.8051 9.0137 0.0000 0.0000 -0.0001
# 2 13.8051 122.0057 18.8866 -0.0006 -0.0002 -0.0001
# 3 9.0137 18.8866 56.9434 -0.0005 -0.0005 0.0000
# 4 0.0000 -0.0006 -0.0005 11.5497 0.0001 0.0001
# 5 0.0000 -0.0002 -0.0005 0.0001 31.5659 0.0000
# 6 -0.0001 -0.0001 0.0000 0.0001 0.0000 2.4325
#
#
#
# Elastic Compliance Matrix: (Units=1/GPa)
#
#
# Indices 1 2 3 4 5 6 
#
# 1 0.014690 -0.001373 -0.001870 0.000000 0.000000 0.000000
# 2 -0.001373 0.008768 -0.002691 0.000000 0.000000 0.000000
# 3 -0.001870 -0.002691 0.018750 0.000001 0.000000 0.000000
# 4 0.000000 0.000000 0.000001 0.086582 0.000000 -0.000002
# 5 0.000000 0.000000 0.000000 0.000000 0.031680 0.000000
# 6 0.000000 0.000000 0.000000 -0.000002 0.000000 0.411108
#
#
# Mechanical properties :
#
#
# Convention : Reuss Voigt Hill
#
# Bulk Modulus (GPa) = 32.95864 36.98541 34.97202
# Shear Modulus (GPa) = 8.42376 22.95978 15.69177
#
# Velocity S-wave (km/s) = 2.05576 3.39394 2.80579
# Velocity P-wave (km/s) = 4.70851 5.82355 5.29546
#
# Compressibility (1/GPa) = 0.03034106
#
# Stress axis : x y z
#
# Youngs Moduli (GPa) = 68.07140 114.04819 53.33390
#
# Poissons Ratio (x) = 0.15656 0.09974
# Poissons Ratio (y) = 0.09345 0.14352
# Poissons Ratio (z) = 0.12730 0.30689
#
# Static dielectric constant tensor:
#      x y z
#    x 1.718320 0.000000 0.000000 
#    y 0.000000 1.737770 0.000000 
#    z 0.000000 0.000000 1.726890 
# 
# From -- ./inp_files/21137.got.cif
#   From: 2010.05.17/outbox.cif.g08.bks.cpg/sg74_11_cif.got.tgz:21137.got - 2010.06.03 17:57:02.
