data_PCOD9540005
_publ_section_title
;
Structure prediction by ZEFSAII (Michael W. Deem and Ramdas Pophale) SiO2 
 PCOD9540005
Probable space group: I M M A
;
_chemical_formula_sum "Si O2"
_cell_formula_units_Z 64
_cell_length_a 21.156516
_cell_length_b 16.071562
_cell_length_c 10.096215
_cell_angle_alpha 90.000000
_cell_angle_beta 90.000000
_cell_angle_gamma 90.000000
_cell_volume 3432.897443
_symmetry_space_group_name_H-M "I M M A"
_symmetry_group_IT_number 74
_symmetry_cell_setting 'orthorhombic'
loop_
_space_group_symop_operation_xyz
x,y,z
-x,1/2-y,z
x,-y,-z
-x,1/2+y,-z
-x,-y,-z
x,1/2+y,-z
-x,y,z
x,1/2-y,z
1/2+x,1/2+y,1/2+z
1/2-x,-y,1/2+z
1/2+x,1/2-y,1/2-z
1/2-x,y,1/2-z
1/2-x,1/2-y,1/2-z
1/2+x,y,1/2-z
1/2-x,1/2+y,1/2+z
1/2+x,-y,1/2+z
loop_
_atom_site_type_symbol
_atom_site_label
_atom_site_fract_x
_atom_site_fract_y
_atom_site_fract_z
Si Si1 0.603320 0.750000 0.338217
Si Si2 0.500000 0.378315 0.578284
Si Si3 0.500000 0.059732 0.293173
Si Si4 0.250000 0.109954 0.250000
Si Si5 0.358670 0.250000 0.966401
Si Si6 0.377275 0.426844 0.108099
Si Si7 0.783368 0.250000 0.043725
O O1 0.560974 0.670299 0.371080
O O2 0.618924 0.750000 0.183841
O O3 0.662059 0.750000 0.436959
O O4 0.500000 0.379230 0.419130
O O5 0.500000 0.469013 0.640783
O O6 0.563270 0.069132 0.206724
O O7 0.309006 0.063468 0.181508
O O8 0.217882 0.170159 0.140371
O O9 0.378368 0.334952 0.041225
O O10 0.283061 0.250000 0.969093
O O11 0.383277 0.500000 0.000000
#
# Coordination Sequence:
#
# PCOD9540005 Si02
#       7
#     8   8   8   8   8  16   8
#     4  11  20  38  59  90 122 155 199 258 306 379
#     4  10  24  37  58  90 119 157 204 250 320 367
#     4  11  23  43  60  86 124 164 208 257 312 380
#     4   9  20  40  58  91 118 156 216 253 308 383
#     4  10  23  39  61  93 120 161 214 247 315 370
#     4  11  23  42  63  90 124 165 207 261 314 372
#     4   9  18  37  64  83 120 160 199 262 306 360
#
# _framework density 18.643142999999998
#
# number of rings (size 3 to 8) (size 9 to 14) (size 15 to 20)
#    0.000    1.750    0.000    4.500    0.000    4.500 
#   22.500    0.000    0.000    0.000    0.000    0.000 
#    0.000    0.000    0.000    0.000    0.000    0.000 
#
# Total GULP energy -178690.803772 kJ/mol
# GULP energy per Si atom -5584.087618 kJ/mol
# Density = 1.860071 g / cm^3
# Si number density = 18.643143 Si / 1000 Ang^3
#
#
#
# Elastic Constant Matrix: (Units=GPa)
#
#
# Indices 1 2 3 4 5 6 
#
# 1 109.5446 41.6324 95.0515 0.0000 0.0000 0.0000
# 2 41.6324 83.5996 52.5276 0.0000 0.0000 0.0000
# 3 95.0515 52.5276 160.2201 0.0000 0.0000 0.0000
# 4 0.0000 0.0000 0.0000 0.0563 0.0000 0.0000
# 5 0.0000 0.0000 0.0000 0.0000 111.6197 0.0000
# 6 0.0000 0.0000 0.0000 0.0000 0.0000 5.0397
#
#
#
# Elastic Compliance Matrix: (Units=1/GPa)
#
#
# Indices 1 2 3 4 5 6 
#
# 1 0.019416 -0.003063 -0.010515 0.000000 0.000000 0.000000
# 2 -0.003063 0.015548 -0.003281 0.000000 0.000000 0.000000
# 3 -0.010515 -0.003281 0.013555 0.000000 0.000000 0.000000
# 4 0.000000 0.000000 0.000000 17.772258 0.000000 0.000000
# 5 0.000000 0.000000 0.000000 0.000000 0.008959 0.000000
# 6 0.000000 0.000000 0.000000 0.000000 0.000000 0.198424
#
#
# Mechanical properties :
#
#
# Convention : Reuss Voigt Hill
#
# Bulk Modulus (GPa) = 67.55123 81.30972 74.43048
# Shear Modulus (GPa) = 0.27675 34.28666 17.28171
#
# Velocity S-wave (km/s) = 0.38571 4.29313 3.04793
# Velocity P-wave (km/s) = 6.04242 8.26335 7.23857
#
# Compressibility (1/GPa) = 0.01480358
#
# Stress axis : x y z
#
# Youngs Moduli (GPa) = 51.50326 64.31631 73.77428
#
# Poissons Ratio (x) = 0.19697 0.77572
# Poissons Ratio (y) = 0.15773 0.24202
# Poissons Ratio (z) = 0.54154 0.21099
#
# Static dielectric constant tensor:
#      x y z
#    x 1.615380 0.000000 0.000000 
#    y 0.000000 1.639360 0.000000 
#    z 0.000000 0.000000 1.648320 
# 
# From -- ./inp_files/8948.got.cif
#   From: 2010.05.17/outbox.cif.g08.bks.cpg/sg74_5_cif.got.tgz:8948.got - 2010.06.03 17:57:02.
