data_PCOD9540397
_publ_section_title
;
Structure prediction by ZEFSAII (Michael W. Deem and Ramdas Pophale) SiO2 
 PCOD9540397
Probable space group: I M M A
;
_chemical_formula_sum "Si O2"
_cell_formula_units_Z 112
_cell_length_a 15.255506
_cell_length_b 13.913160
_cell_length_c 25.221083
_cell_angle_alpha 90.000000
_cell_angle_beta 90.000000
_cell_angle_gamma 90.000000
_cell_volume 5353.232771
_symmetry_space_group_name_H-M "I M M A"
_symmetry_group_IT_number 74
_symmetry_cell_setting 'orthorhombic'
loop_
_space_group_symop_operation_xyz
x,y,z
-x,1/2-y,z
x,-y,-z
-x,1/2+y,-z
-x,-y,-z
x,1/2+y,-z
-x,y,z
x,1/2-y,z
1/2+x,1/2+y,1/2+z
1/2-x,-y,1/2+z
1/2+x,1/2-y,1/2-z
1/2-x,y,1/2-z
1/2-x,1/2-y,1/2-z
1/2+x,y,1/2-z
1/2-x,1/2+y,1/2+z
1/2+x,-y,1/2+z
loop_
_atom_site_type_symbol
_atom_site_label
_atom_site_fract_x
_atom_site_fract_y
_atom_site_fract_z
Si Si1 0.897608 0.446817 0.400500
Si Si2 0.598910 0.862073 0.473039
Si Si3 0.398758 0.644809 0.149580
Si Si4 0.223458 0.863716 0.927894
Si Si5 0.897347 0.142952 0.284222
Si Si6 0.348321 0.441322 0.742016
Si Si7 0.100864 0.503878 0.128824
O O1 0.865330 0.553744 0.383640
O O2 0.822395 0.400883 0.436045
O O3 0.895501 0.384038 0.346416
O O4 0.000000 0.448525 0.418318
O O5 0.500000 0.877666 0.494265
O O6 0.606469 0.750000 0.458503
O O7 0.667132 0.882038 0.519366
O O8 0.609549 0.926816 0.421645
O O9 0.500000 0.651603 0.133558
O O10 0.357235 0.750000 0.142517
O O11 0.398845 0.613098 0.211196
O O12 0.223740 0.750000 0.917186
O O13 0.172903 0.920820 0.880977
O O14 0.862822 0.250000 0.275178
O O15 0.000000 0.140994 0.268516
O O16 0.852503 0.055043 0.254799
O O17 0.250000 0.406608 0.750000
O O18 0.381221 0.435963 0.682241
O O19 0.000000 0.467455 0.130971
#
# Coordination Sequence:
#
# PCOD9540397 Si02
#       7
#    16  16  16  16  16  16  16
#     4   9  18  34  57  87 119 152 193 234 281 349
#     4   9  20  40  64  88 114 149 196 248 300 350
#     4   9  18  35  57  78 108 150 189 229 279 336
#     4  11  22  36  57  86 119 154 194 243 299 351
#     4   9  17  31  50  72 106 150 189 226 269 322
#     4  11  22  34  50  79 117 150 186 231 281 341
#     4  11  22  37  59  85 116 155 199 246 292 342
#
# _framework density 20.921938000000001
#
# number of rings (size 3 to 8) (size 9 to 14) (size 15 to 20)
#    0.000    2.143    0.000    5.143    0.000    4.571 
#    0.000    3.571    0.000    2.571    0.000    0.000 
#    0.000    0.000    0.000    0.143    0.000    0.143 
#
# Total GULP energy -312561.760622 kJ/mol
# GULP energy per Si atom -5581.460011 kJ/mol
# Density = 2.087432 g / cm^3
# Si number density = 20.921938 Si / 1000 Ang^3
#
#
#
# Elastic Constant Matrix: (Units=GPa)
#
#
# Indices 1 2 3 4 5 6 
#
# 1 109.1302 28.9121 32.9693 0.0000 0.0000 0.0000
# 2 28.9121 69.0184 25.5520 0.0000 0.0000 0.0000
# 3 32.9693 25.5520 31.4989 0.0000 0.0000 0.0000
# 4 0.0000 0.0000 0.0000 6.4418 0.0000 0.0000
# 5 0.0000 0.0000 0.0000 0.0000 10.1248 0.0000
# 6 0.0000 0.0000 0.0000 0.0000 0.0000 20.1074
#
#
#
# Elastic Compliance Matrix: (Units=1/GPa)
#
#
# Indices 1 2 3 4 5 6 
#
# 1 0.013418 -0.000602 -0.013556 0.000000 0.000000 0.000000
# 2 -0.000602 0.020735 -0.016190 0.000000 0.000000 0.000000
# 3 -0.013556 -0.016190 0.059070 0.000000 0.000000 0.000000
# 4 0.000000 0.000000 0.000000 0.155236 0.000000 0.000000
# 5 0.000000 0.000000 0.000000 0.000000 0.098767 0.000000
# 6 0.000000 0.000000 0.000000 0.000000 0.000000 0.049733
#
#
# Mechanical properties :
#
#
# Convention : Reuss Voigt Hill
#
# Bulk Modulus (GPa) = 30.74457 42.72381 36.73419
# Shear Modulus (GPa) = 10.67240 15.48240 13.07740
#
# Velocity S-wave (km/s) = 2.26100 2.72326 2.50283
# Velocity P-wave (km/s) = 4.64144 5.50937 5.09392
#
# Compressibility (1/GPa) = 0.03252607
#
# Stress axis : x y z
#
# Youngs Moduli (GPa) = 74.52458 48.22755 16.92919
#
# Poissons Ratio (x) = 0.02904 0.22950
# Poissons Ratio (y) = 0.04488 0.27408
# Poissons Ratio (z) = 1.01027 0.78080
#
# Static dielectric constant tensor:
#      x y z
#    x 1.728340 0.000000 0.000000 
#    y 0.000000 1.785460 0.000000 
#    z 0.000000 0.000000 1.733680 
# 
# From -- ./inp_files/67234.got.cif
#   From: 2010.05.17/outbox.cif.g08.bks.cpg/sg74_34_cif.got.tgz:67234.got - 2010.06.03 17:57:02.
