data_PCOD9540562
_publ_section_title
;
Structure prediction by ZEFSAII (Michael W. Deem and Ramdas Pophale) SiO2 
 PCOD9540562
Probable space group: I M M A
;
_chemical_formula_sum "Si O2"
_cell_formula_units_Z 84
_cell_length_a 15.526348
_cell_length_b 24.589271
_cell_length_c 10.260290
_cell_angle_alpha 90.000000
_cell_angle_beta 90.000000
_cell_angle_gamma 90.000000
_cell_volume 3917.189713
_symmetry_space_group_name_H-M "I M M A"
_symmetry_group_IT_number 74
_symmetry_cell_setting 'orthorhombic'
loop_
_space_group_symop_operation_xyz
x,y,z
-x,1/2-y,z
x,-y,-z
-x,1/2+y,-z
-x,-y,-z
x,1/2+y,-z
-x,y,z
x,1/2-y,z
1/2+x,1/2+y,1/2+z
1/2-x,-y,1/2+z
1/2+x,1/2-y,1/2-z
1/2-x,y,1/2-z
1/2-x,1/2-y,1/2-z
1/2+x,y,1/2-z
1/2-x,1/2+y,1/2+z
1/2+x,-y,1/2+z
loop_
_atom_site_type_symbol
_atom_site_label
_atom_site_fract_x
_atom_site_fract_y
_atom_site_fract_z
Si Si1 0.658775 0.574070 0.539008
Si Si2 0.402931 0.477051 0.211478
Si Si3 0.000000 0.000000 0.000000
Si Si4 0.103920 0.310749 0.974941
Si Si5 0.347879 0.076906 0.947452
Si Si6 0.395964 0.689423 0.168960
O O1 0.659473 0.547360 0.681545
O O2 0.577190 0.545984 0.471554
O O3 0.643510 0.638468 0.549250
O O4 0.747677 0.564091 0.466400
O O5 0.500000 0.474174 0.272360
O O6 0.384521 0.537774 0.164526
O O7 0.395600 0.441017 0.080647
O O8 0.130462 0.250000 0.016632
O O9 0.126509 0.316911 0.821680
O O10 0.000000 0.313239 0.984692
O O11 0.359835 0.139461 0.912188
O O12 0.500000 0.687606 0.160776
O O13 0.367834 0.750000 0.127441
#
# Coordination Sequence:
#
# PCOD9540562 Si02
#       6
#    16  16   4  16  16  16
#     4  12  25  40  62  94 126 167 212 266 319 381
#     4  11  23  45  64  87 125 172 216 257 317 390
#     4  12  24  40  58  90 126 164 220 254 318 380
#     4   9  19  39  64  92 125 165 213 260 310 374
#     4  11  24  40  64  93 131 164 211 265 321 374
#     4   9  19  38  65  94 127 167 212 260 317 384
#
# _framework density 21.443944999999999
#
# number of rings (size 3 to 8) (size 9 to 14) (size 15 to 20)
#    0.000    1.524    1.905    5.143    2.667    1.524 
#    3.429    2.857    0.000    5.714    0.000    0.000 
#    0.000    0.000    0.000    0.000    0.000    0.000 
#
# Total GULP energy -234609.182821 kJ/mol
# GULP energy per Si atom -5585.932924 kJ/mol
# Density = 2.139514 g / cm^3
# Si number density = 21.443945 Si / 1000 Ang^3
#
#
#
# Elastic Constant Matrix: (Units=GPa)
#
#
# Indices 1 2 3 4 5 6 
#
# 1 95.4199 20.3681 9.6866 0.0001 0.0001 0.0000
# 2 20.3681 173.5901 39.5100 0.0001 0.0001 0.0000
# 3 9.6866 39.5100 57.0706 0.0007 0.0002 -0.0001
# 4 0.0001 0.0001 0.0007 27.9663 0.0000 0.0000
# 5 0.0001 0.0001 0.0002 0.0000 21.5816 0.0000
# 6 0.0000 0.0000 -0.0001 0.0000 0.0000 -3.4306
#
#
#
# Elastic Compliance Matrix: (Units=1/GPa)
#
#
# Indices 1 2 3 4 5 6 
#
# 1 0.010811 -0.001010 -0.001136 0.000000 0.000000 0.000000
# 2 -0.001010 0.006933 -0.004628 0.000000 0.000000 0.000000
# 3 -0.001136 -0.004628 0.020919 -0.000001 0.000000 0.000000
# 4 0.000000 0.000000 -0.000001 0.035757 0.000000 0.000000
# 5 0.000000 0.000000 0.000000 0.000000 0.046336 0.000000
# 6 0.000000 0.000000 0.000000 0.000000 0.000000 -0.291493
#
#
# Mechanical properties :
#
#
# Convention : Reuss Voigt Hill
#
# Bulk Modulus (GPa) = 39.81694 51.68997 45.75345
# Shear Modulus (GPa) = -33.59787 26.32453 -3.63667
#
# Velocity S-wave (km/s) = -3.96255 3.50751 -1.30368
# Velocity P-wave (km/s) = 1.52561 6.36871 4.37224
#
# Compressibility (1/GPa) = 0.02511494
#
# Stress axis : x y z
#
# Youngs Moduli (GPa) = 92.49940 144.24691 47.80369
#
# Poissons Ratio (x) = 0.14569 0.05429
# Poissons Ratio (y) = 0.09342 0.22123
# Poissons Ratio (z) = 0.10505 0.66757
#
# Static dielectric constant tensor:
#      x y z
#    x 1.782920 0.000000 0.000000 
#    y 0.000000 1.779570 0.000000 
#    z 0.000000 0.000000 1.603950 
# 
# From -- ./inp_files/20632.got.cif
#   From: 2010.05.17/outbox.cif.g08.bks.cpg/sg74_11_cif.got.tgz:20632.got - 2010.06.03 17:57:02.
