data_PCOD9540186
_publ_section_title
;
Structure prediction by ZEFSAII (Michael W. Deem and Ramdas Pophale) SiO2 
 PCOD9540186
Probable space group: I M M A
;
_chemical_formula_sum "Si O2"
_cell_formula_units_Z 80
_cell_length_a 24.716094
_cell_length_b 8.176199
_cell_length_c 27.096914
_cell_angle_alpha 90.000000
_cell_angle_beta 90.000000
_cell_angle_gamma 90.000000
_cell_volume 5475.844722
_symmetry_space_group_name_H-M "I M M A"
_symmetry_group_IT_number 74
_symmetry_cell_setting 'orthorhombic'
loop_
_space_group_symop_operation_xyz
x,y,z
-x,1/2-y,z
x,-y,-z
-x,1/2+y,-z
-x,-y,-z
x,1/2+y,-z
-x,y,z
x,1/2-y,z
1/2+x,1/2+y,1/2+z
1/2-x,-y,1/2+z
1/2+x,1/2-y,1/2-z
1/2-x,y,1/2-z
1/2-x,1/2-y,1/2-z
1/2+x,y,1/2-z
1/2-x,1/2+y,1/2+z
1/2+x,-y,1/2+z
loop_
_atom_site_type_symbol
_atom_site_label
_atom_site_fract_x
_atom_site_fract_y
_atom_site_fract_z
Si Si1 0.500000 0.554965 0.280660
Si Si2 0.611872 0.945096 0.444030
Si Si3 0.682823 0.947745 0.645098
Si Si4 0.715324 0.560315 0.801023
Si Si5 0.382842 0.052345 0.258212
Si Si6 0.500000 0.950028 0.394630
O O1 0.500000 0.750000 0.282258
O O2 0.555191 0.497766 0.255351
O O3 0.500000 0.494737 0.337698
O O4 0.610157 0.750000 0.442861
O O5 0.554252 0.005946 0.422332
O O6 0.619339 0.000000 0.500000
O O7 0.658629 0.002042 0.406958
O O8 0.684680 0.750000 0.647536
O O9 0.742954 0.010588 0.659042
O O10 0.642128 0.002868 0.688991
O O11 0.705910 0.750000 0.814896
O O12 0.750000 0.561494 0.750000
O O13 0.657550 0.489386 0.784692
O O14 0.379565 0.250000 0.257763
O O15 0.500000 0.750000 0.394553
#
# Coordination Sequence:
#
# PCOD9540186 Si02
#       6
#     8  16  16  16  16   8
#     4  11  19  28  40  58  85 112 137 173 211 240
#     4  11  21  33  44  57  77 105 140 180 217 250
#     4   9  16  28  45  62  78 101 132 169 210 248
#     4   7  12  24  42  61  80  99 126 164 202 242
#     4   9  16  27  43  62  80 104 137 167 198 244
#     4   9  19  32  42  52  75 107 139 176 216 244
#
# _framework density 14.609617999999999
#
# number of rings (size 3 to 8) (size 9 to 14) (size 15 to 20)
#    0.000    2.800    2.000    3.600    0.000    0.000 
#    0.000    2.500    0.000    3.600    0.000    0.000 
#    0.000    0.000    0.000    0.900    0.000   10.000 
#
# Total GULP energy -222735.554038 kJ/mol
# GULP energy per Si atom -5568.388851 kJ/mol
# Density = 1.457637 g / cm^3
# Si number density = 14.609618 Si / 1000 Ang^3
#
#
#
# Elastic Constant Matrix: (Units=GPa)
#
#
# Indices 1 2 3 4 5 6 
#
# 1 142.8713 13.9895 71.3841 0.0000 0.0000 0.0000
# 2 13.9895 13.1271 8.6450 0.0000 0.0000 0.0000
# 3 71.3841 8.6450 70.7422 0.0000 0.0000 0.0000
# 4 0.0000 0.0000 0.0000 11.0909 0.0000 0.0000
# 5 0.0000 0.0000 0.0000 0.0000 13.5157 0.0000
# 6 0.0000 0.0000 0.0000 0.0000 0.0000 6.9901
#
#
#
# Elastic Compliance Matrix: (Units=1/GPa)
#
#
# Indices 1 2 3 4 5 6 
#
# 1 0.014590 -0.006365 -0.013944 0.000000 0.000000 0.000000
# 2 -0.006365 0.085623 -0.004041 0.000000 0.000000 0.000000
# 3 -0.013944 -0.004041 0.028700 0.000000 0.000000 0.000000
# 4 0.000000 0.000000 0.000000 0.090164 0.000000 0.000000
# 5 0.000000 0.000000 0.000000 0.000000 0.073988 0.000000
# 6 0.000000 0.000000 0.000000 0.000000 0.000000 0.143059
#
#
# Mechanical properties :
#
#
# Convention : Reuss Voigt Hill
#
# Bulk Modulus (GPa) = 12.46684 46.08641 29.27662
# Shear Modulus (GPa) = 9.77401 15.16748 12.47074
#
# Velocity S-wave (km/s) = 2.58933 3.22558 2.92481
# Velocity P-wave (km/s) = 4.18227 6.74435 5.61149
#
# Compressibility (1/GPa) = 0.08021279
#
# Stress axis : x y z
#
# Youngs Moduli (GPa) = 68.54218 11.67917 34.84295
#
# Poissons Ratio (x) = 0.07434 0.48585
# Poissons Ratio (y) = 0.43627 0.14079
# Poissons Ratio (z) = 0.95576 0.04719
#
# Static dielectric constant tensor:
#      x y z
#    x 1.514170 0.000000 0.000000 
#    y 0.000000 1.512410 0.000000 
#    z 0.000000 0.000000 1.468650 
# 
# From -- ./inp_files/57171.got.cif
#   From: 2010.05.17/outbox.cif.g08.bks.cpg/sg74_29_cif.got.tgz:57171.got - 2010.06.03 17:57:02.
