data_PCOD9540305
_publ_section_title
;
Structure prediction by ZEFSAII (Michael W. Deem and Ramdas Pophale) SiO2 
 PCOD9540305
Probable space group: I M M A
;
_chemical_formula_sum "Si O2"
_cell_formula_units_Z 96
_cell_length_a 24.499861
_cell_length_b 8.890304
_cell_length_c 23.707184
_cell_angle_alpha 90.000000
_cell_angle_beta 90.000000
_cell_angle_gamma 90.000000
_cell_volume 5163.690486
_symmetry_space_group_name_H-M "I M M A"
_symmetry_group_IT_number 74
_symmetry_cell_setting 'orthorhombic'
loop_
_space_group_symop_operation_xyz
x,y,z
-x,1/2-y,z
x,-y,-z
-x,1/2+y,-z
-x,-y,-z
x,1/2+y,-z
-x,y,z
x,1/2-y,z
1/2+x,1/2+y,1/2+z
1/2-x,-y,1/2+z
1/2+x,1/2-y,1/2-z
1/2-x,y,1/2-z
1/2-x,1/2-y,1/2-z
1/2+x,y,1/2-z
1/2-x,1/2+y,1/2+z
1/2+x,-y,1/2+z
loop_
_atom_site_type_symbol
_atom_site_label
_atom_site_fract_x
_atom_site_fract_y
_atom_site_fract_z
Si Si1 0.671277 0.570785 0.562309
Si Si2 0.940002 0.069385 0.936924
Si Si3 0.737865 0.069437 0.657562
Si Si4 0.162425 0.070273 0.735699
Si Si5 0.566481 0.922180 0.942913
Si Si6 0.062533 0.068329 0.318520
O O1 0.677101 0.500000 0.500000
O O2 0.667626 0.750000 0.558344
O O3 0.614503 0.504133 0.587929
O O4 0.720368 0.517580 0.601950
O O5 0.933574 0.250000 0.939913
O O6 0.000000 0.037949 0.911012
O O7 0.942067 0.000000 0.000000
O O8 0.736735 0.250000 0.648097
O O9 0.796034 0.029583 0.684923
O O10 0.693604 0.034564 0.706430
O O11 0.155281 0.250000 0.734259
O O12 0.105246 0.990575 0.726474
O O13 0.500000 0.922575 0.944139
O O14 0.584675 0.750000 0.944422
O O15 0.579948 0.987379 0.881340
O O16 0.585867 0.000000 0.000000
O O17 0.063060 0.250000 0.320505
O O18 0.000000 0.021461 0.308129
#
# Coordination Sequence:
#
# PCOD9540305 Si02
#       6
#    16  16  16  16  16  16
#     4  11  21  33  53  80 108 139 173 213 262 310
#     4   9  16  27  45  69  99 136 173 208 250 302
#     4   9  19  38  58  77 103 133 171 217 262 308
#     4   9  19  36  59  80  99 131 173 217 260 305
#     4   8  14  25  41  63  93 130 167 200 239 289
#     4   9  18  32  50  75 109 141 168 209 262 310
#
# _framework density 18.591353999999999
#
# number of rings (size 3 to 8) (size 9 to 14) (size 15 to 20)
#    0.000    2.833    0.000    5.000    0.000    3.333 
#    0.000    5.000    0.000    3.000    0.000    0.000 
#    0.000    0.000    0.000    0.000    0.000    0.000 
#
# Total GULP energy -267428.042774 kJ/mol
# GULP energy per Si atom -5571.417558 kJ/mol
# Density = 1.854904 g / cm^3
# Si number density = 18.591354 Si / 1000 Ang^3
#
#
#
# Elastic Constant Matrix: (Units=GPa)
#
#
# Indices 1 2 3 4 5 6 
#
# 1 70.0047 27.1673 33.6100 0.0000 0.0000 0.0000
# 2 27.1673 55.9392 25.2200 0.0000 0.0000 0.0000
# 3 33.6100 25.2200 40.4694 0.0000 0.0000 0.0000
# 4 0.0000 0.0000 0.0000 25.2748 0.0000 0.0000
# 5 0.0000 0.0000 0.0000 0.0000 19.8978 0.0000
# 6 0.0000 0.0000 0.0000 0.0000 0.0000 16.9608
#
#
#
# Elastic Compliance Matrix: (Units=1/GPa)
#
#
# Indices 1 2 3 4 5 6 
#
# 1 0.024314 -0.003761 -0.017849 0.000000 0.000000 0.000000
# 2 -0.003761 0.025444 -0.012732 0.000000 0.000000 0.000000
# 3 -0.017849 -0.012732 0.047468 0.000000 0.000000 0.000000
# 4 0.000000 0.000000 0.000000 0.039565 0.000000 0.000000
# 5 0.000000 0.000000 0.000000 0.000000 0.050257 0.000000
# 6 0.000000 0.000000 0.000000 0.000000 0.000000 0.058960
#
#
# Mechanical properties :
#
#
# Convention : Reuss Voigt Hill
#
# Bulk Modulus (GPa) = 35.03757 37.60087 36.31922
# Shear Modulus (GPa) = 15.42232 17.78773 16.60503
#
# Velocity S-wave (km/s) = 2.88330 3.09653 2.99182
# Velocity P-wave (km/s) = 5.47464 5.74922 5.61361
#
# Compressibility (1/GPa) = 0.02854079
#
# Stress axis : x y z
#
# Youngs Moduli (GPa) = 41.12900 39.30264 21.06674
#
# Poissons Ratio (x) = 0.14782 0.37602
# Poissons Ratio (y) = 0.15469 0.26823
# Poissons Ratio (z) = 0.73410 0.50042
#
# Static dielectric constant tensor:
#      x y z
#    x 1.676180 0.000000 0.000000 
#    y 0.000000 1.624090 0.000000 
#    z 0.000000 0.000000 1.657730 
# 
# From -- ./inp_files/61910.got.cif
#   From: 2010.05.17/outbox.cif.g08.bks.cpg/sg74_31_cif.got.tgz:61910.got - 2010.06.03 17:57:02.
