data_PCOD9540251
_publ_section_title
;
Structure prediction by ZEFSAII (Michael W. Deem and Ramdas Pophale) SiO2 
 PCOD9540251
Probable space group: I M M A
;
_chemical_formula_sum "Si O2"
_cell_formula_units_Z 96
_cell_length_a 24.758779
_cell_length_b 25.764579
_cell_length_c 8.444744
_cell_angle_alpha 90.000000
_cell_angle_beta 90.000000
_cell_angle_gamma 90.000000
_cell_volume 5386.898123
_symmetry_space_group_name_H-M "I M M A"
_symmetry_group_IT_number 74
_symmetry_cell_setting 'orthorhombic'
loop_
_space_group_symop_operation_xyz
x,y,z
-x,1/2-y,z
x,-y,-z
-x,1/2+y,-z
-x,-y,-z
x,1/2+y,-z
-x,y,z
x,1/2-y,z
1/2+x,1/2+y,1/2+z
1/2-x,-y,1/2+z
1/2+x,1/2-y,1/2-z
1/2-x,y,1/2-z
1/2-x,1/2-y,1/2-z
1/2+x,y,1/2-z
1/2-x,1/2+y,1/2+z
1/2+x,-y,1/2+z
loop_
_atom_site_type_symbol
_atom_site_label
_atom_site_fract_x
_atom_site_fract_y
_atom_site_fract_z
Si Si1 0.500000 0.061194 0.320323
Si Si2 0.437539 0.689405 0.190684
Si Si3 0.614893 0.092866 0.690058
Si Si4 0.114893 0.907134 0.809942
Si Si5 0.310967 0.500000 0.188043
Si Si6 0.000000 0.438806 0.820323
Si Si7 0.562461 0.810595 0.809317
O O1 0.443438 0.074769 0.243188
O O2 0.500000 0.083622 0.500000
O O3 0.500000 1.000000 0.336493
O O4 0.500000 0.675988 0.241241
O O5 0.429929 0.750000 0.230132
O O6 0.390654 0.653284 0.263484
O O7 0.436206 0.684473 0.000000
O O8 0.616179 0.087802 0.500000
O O9 0.658728 0.052486 0.754134
O O10 0.556562 0.074769 0.756811
O O11 0.109346 0.846716 0.763484
O O12 0.158728 0.947514 0.745866
O O13 0.250000 0.500000 0.250000
O O14 0.311235 0.500000 0.000000
O O15 0.500000 0.824012 0.758759
O O16 0.570072 0.750000 0.769869
#
# Coordination Sequence:
#
# PCOD9540251 Si02
#       7
#     8  16  16  16  16   8  16
#     4   9  16  28  47  76 113 145 174 213 271 328
#     4   9  18  32  50  78 118 157 190 226 270 323
#     4  11  20  34  56  83 114 148 185 229 276 329
#     4  11  20  34  56  83 114 148 185 229 276 329
#     4  12  26  43  60  81 107 143 187 233 284 336
#     4   9  16  28  47  76 113 145 174 213 271 328
#     4   9  18  32  50  78 118 157 190 226 270 323
#
# _framework density 17.821017999999999
#
# number of rings (size 3 to 8) (size 9 to 14) (size 15 to 20)
#    0.000    1.833    3.333    3.500    0.000    0.667 
#    0.000    2.500    0.000    1.000    0.000    0.000 
#    0.000    0.000    0.000    0.000    0.000    0.000 
#
# Total GULP energy -267223.210647 kJ/mol
# GULP energy per Si atom -5567.150222 kJ/mol
# Density = 1.778046 g / cm^3
# Si number density = 17.821018 Si / 1000 Ang^3
#
#
#
# Elastic Constant Matrix: (Units=GPa)
#
#
# Indices 1 2 3 4 5 6 
#
# 1 120.9184 72.2501 38.0189 0.0000 0.0000 0.0000
# 2 72.2501 129.0979 48.0804 0.0000 0.0000 0.0000
# 3 38.0189 48.0804 72.9051 0.0000 0.0000 0.0000
# 4 0.0000 0.0000 0.0000 26.8401 0.0000 0.0000
# 5 0.0000 0.0000 0.0000 0.0000 -7.9542 0.0000
# 6 0.0000 0.0000 0.0000 0.0000 0.0000 14.4927
#
#
#
# Elastic Compliance Matrix: (Units=1/GPa)
#
#
# Indices 1 2 3 4 5 6 
#
# 1 0.012781 -0.006192 -0.002582 0.000000 0.000000 0.000000
# 2 -0.006192 0.013267 -0.005521 0.000000 0.000000 0.000000
# 3 -0.002582 -0.005521 0.018704 0.000000 0.000000 0.000000
# 4 0.000000 0.000000 0.000000 0.037258 0.000000 0.000000
# 5 0.000000 0.000000 0.000000 0.000000 -0.125719 0.000000
# 6 0.000000 0.000000 0.000000 0.000000 0.000000 0.069000
#
#
# Mechanical properties :
#
#
# Convention : Reuss Voigt Hill
#
# Bulk Modulus (GPa) = 61.86694 71.06889 66.46791
# Shear Modulus (GPa) = 84.36186 17.64718 51.00452
#
# Velocity S-wave (km/s) = 6.88776 3.15023 5.35561
# Velocity P-wave (km/s) = 9.90182 7.29368 8.69608
#
# Compressibility (1/GPa) = 0.01616372
#
# Stress axis : x y z
#
# Youngs Moduli (GPa) = 78.23886 75.37307 53.46462
#
# Poissons Ratio (x) = 0.46667 0.13805
# Poissons Ratio (y) = 0.48442 0.29517
# Poissons Ratio (z) = 0.20202 0.41613
#
# Static dielectric constant tensor:
#      x y z
#    x 1.612790 0.000000 0.000000 
#    y 0.000000 1.704600 0.000000 
#    z 0.000000 0.000000 1.635430 
# 
# From -- ./inp_files/14107.got.cif
#   From: 2010.05.17/outbox.cif.g08.bks.cpg/sg74_8_cif.got.tgz:14107.got - 2010.06.03 17:57:02.
