data_PCOD9540404
_publ_section_title
;
Structure prediction by ZEFSAII (Michael W. Deem and Ramdas Pophale) SiO2 
 PCOD9540404
Probable space group: I M M A
;
_chemical_formula_sum "Si O2"
_cell_formula_units_Z 80
_cell_length_a 28.071612
_cell_length_b 8.831454
_cell_length_c 18.428008
_cell_angle_alpha 90.000000
_cell_angle_beta 90.000000
_cell_angle_gamma 90.000000
_cell_volume 4568.545513
_symmetry_space_group_name_H-M "I M M A"
_symmetry_group_IT_number 74
_symmetry_cell_setting 'orthorhombic'
loop_
_space_group_symop_operation_xyz
x,y,z
-x,1/2-y,z
x,-y,-z
-x,1/2+y,-z
-x,-y,-z
x,1/2+y,-z
-x,y,z
x,1/2-y,z
1/2+x,1/2+y,1/2+z
1/2-x,-y,1/2+z
1/2+x,1/2-y,1/2-z
1/2-x,y,1/2-z
1/2-x,1/2-y,1/2-z
1/2+x,y,1/2-z
1/2-x,1/2+y,1/2+z
1/2+x,-y,1/2+z
loop_
_atom_site_type_symbol
_atom_site_label
_atom_site_fract_x
_atom_site_fract_y
_atom_site_fract_z
Si Si1 0.291453 0.568267 0.079455
Si Si2 0.053437 0.932588 0.233176
Si Si3 0.350619 0.430455 0.209012
Si Si4 0.911444 0.569322 0.075685
Si Si5 0.188473 0.067852 0.855401
O O1 0.294786 0.750000 0.077186
O O2 0.328725 0.502227 0.136861
O O3 0.238508 0.528078 0.108551
O O4 0.298342 0.500000 0.000000
O O5 0.059871 0.750000 0.237601
O O6 0.059938 0.974318 0.148139
O O7 0.000000 0.969819 0.257099
O O8 0.095732 0.012022 0.276432
O O9 0.349007 0.250000 0.205960
O O10 0.320254 0.489580 0.278155
O O11 0.914014 0.750000 0.069429
O O12 0.856486 0.527362 0.093727
O O13 0.927328 0.500000 0.000000
O O14 0.186959 0.250000 0.844193
#
# Coordination Sequence:
#
# PCOD9540404 Si02
#       5
#    16  16  16  16  16
#     4  11  22  36  55  79 109 142 176 215 260 309
#     4   9  19  37  57  74  97 134 177 219 267 319
#     4  11  22  35  54  80 108 137 174 218 260 309
#     4   9  17  29  46  72 105 138 172 210 253 300
#     4   9  19  35  53  74 105 145 182 214 252 300
#
# _framework density 17.511043999999998
#
# number of rings (size 3 to 8) (size 9 to 14) (size 15 to 20)
#    0.000    2.200    0.000    4.800    0.000    8.000 
#    0.000    0.000    0.000    0.600    0.000    0.000 
#    0.000    0.000    0.000    0.000    0.000    0.000 
#
# Total GULP energy -223348.523106 kJ/mol
# GULP energy per Si atom -5583.713078 kJ/mol
# Density = 1.747119 g / cm^3
# Si number density = 17.511044 Si / 1000 Ang^3
#
#
#
# Elastic Constant Matrix: (Units=GPa)
#
#
# Indices 1 2 3 4 5 6 
#
# 1 59.3634 17.1713 26.0178 0.0000 0.0000 0.0000
# 2 17.1713 34.2846 25.9873 0.0000 0.0000 0.0000
# 3 26.0178 25.9873 83.7270 0.0000 0.0000 0.0000
# 4 0.0000 0.0000 0.0000 33.3844 0.0000 0.0000
# 5 0.0000 0.0000 0.0000 0.0000 4.0922 0.0000
# 6 0.0000 0.0000 0.0000 0.0000 0.0000 16.5973
#
#
#
# Elastic Compliance Matrix: (Units=1/GPa)
#
#
# Indices 1 2 3 4 5 6 
#
# 1 0.020780 -0.007209 -0.004220 0.000000 0.000000 0.000000
# 2 -0.007209 0.040642 -0.010374 0.000000 0.000000 0.000000
# 3 -0.004220 -0.010374 0.016475 0.000000 0.000000 0.000000
# 4 0.000000 0.000000 0.000000 0.029954 0.000000 0.000000
# 5 0.000000 0.000000 0.000000 0.000000 0.244370 0.000000
# 6 0.000000 0.000000 0.000000 0.000000 0.000000 0.060251
#
#
# Mechanical properties :
#
#
# Convention : Reuss Voigt Hill
#
# Bulk Modulus (GPa) = 29.16256 35.08087 32.12171
# Shear Modulus (GPa) = 10.69499 18.02800 14.36150
#
# Velocity S-wave (km/s) = 2.47403 3.21210 2.86691
# Velocity P-wave (km/s) = 4.98508 5.81668 5.41687
#
# Compressibility (1/GPa) = 0.03429055
#
# Stress axis : x y z
#
# Youngs Moduli (GPa) = 48.12299 24.60514 60.69860
#
# Poissons Ratio (x) = 0.17738 0.25613
# Poissons Ratio (y) = 0.34692 0.62971
# Poissons Ratio (z) = 0.20307 0.25526
#
# Static dielectric constant tensor:
#      x y z
#    x 1.601720 0.000000 0.000000 
#    y 0.000000 1.585070 0.000000 
#    z 0.000000 0.000000 1.567660 
# 
# From -- ./inp_files/39675.got.cif
#   From: 2010.05.17/outbox.cif.g08.bks.cpg/sg74_20_cif.got.tgz:39675.got - 2010.06.03 17:57:02.
