data_PCOD9540166
_publ_section_title
;
Structure prediction by ZEFSAII (Michael W. Deem and Ramdas Pophale) SiO2 
 PCOD9540166
Probable space group: I M M A
;
_chemical_formula_sum "Si O2"
_cell_formula_units_Z 60
_cell_length_a 9.750015
_cell_length_b 11.320528
_cell_length_c 26.510706
_cell_angle_alpha 90.000000
_cell_angle_beta 90.000000
_cell_angle_gamma 90.000000
_cell_volume 2926.127600
_symmetry_space_group_name_H-M "I M M A"
_symmetry_group_IT_number 74
_symmetry_cell_setting 'orthorhombic'
loop_
_space_group_symop_operation_xyz
x,y,z
-x,1/2-y,z
x,-y,-z
-x,1/2+y,-z
-x,-y,-z
x,1/2+y,-z
-x,y,z
x,1/2-y,z
1/2+x,1/2+y,1/2+z
1/2-x,-y,1/2+z
1/2+x,1/2-y,1/2-z
1/2-x,y,1/2-z
1/2-x,1/2-y,1/2-z
1/2+x,y,1/2-z
1/2-x,1/2+y,1/2+z
1/2+x,-y,1/2+z
loop_
_atom_site_type_symbol
_atom_site_label
_atom_site_fract_x
_atom_site_fract_y
_atom_site_fract_z
Si Si1 0.239596 0.491386 0.190294
Si Si2 0.000000 0.572228 0.049362
Si Si3 0.500000 0.613304 0.865620
Si Si4 0.500000 0.250000 0.032398
Si Si5 0.500000 0.878290 0.635259
Si Si6 0.250888 0.750000 0.452219
Si Si7 0.834786 0.250000 0.847524
O O1 0.250000 0.476853 0.250000
O O2 0.371720 0.458267 0.156738
O O3 0.189719 0.626577 0.180848
O O4 0.129706 0.398481 0.170017
O O5 0.000000 0.484725 0.096061
O O6 0.857516 0.642156 0.045615
O O7 0.000000 0.500000 0.000000
O O8 0.500000 0.750000 0.845807
O O9 0.500000 0.639696 0.926888
O O10 0.632244 0.250000 0.994457
O O11 0.500000 0.750000 0.610235
O O12 0.220491 0.750000 0.392416
O O13 0.000000 0.250000 0.863496
#
# Coordination Sequence:
#
# PCOD9540166 Si02
#       7
#    16   8   8   4   8   8   8
#     4  12  25  46  75 104 145 193 238 299 364 424
#     4  11  25  41  74 103 134 176 248 291 342 425
#     4  10  27  48  65 105 157 182 241 292 351 447
#     4  10  28  46  72 108 152 190 226 292 364 442
#     4  12  26  45  74 104 140 188 238 299 354 422
#     4  11  22  48  73  99 141 191 224 297 364 410
#     4  12  23  49  73 109 143 178 255 311 345 428
#
# _framework density 20.504916000000001
#
# number of rings (size 3 to 8) (size 9 to 14) (size 15 to 20)
#    0.400    0.267    5.333    2.000    5.600    4.800 
#    0.000    2.000    0.000    0.000    0.000    0.000 
#    0.000    0.000    0.000    0.000    0.000    0.000 
#
# Total GULP energy -167116.807800 kJ/mol
# GULP energy per Si atom -5570.560260 kJ/mol
# Density = 2.045825 g / cm^3
# Si number density = 20.504916 Si / 1000 Ang^3
#
#
#
# Elastic Constant Matrix: (Units=GPa)
#
#
# Indices 1 2 3 4 5 6 
#
# 1 153.4881 41.1203 62.7656 0.0000 0.0000 0.0000
# 2 41.1203 123.3249 35.8065 0.0000 0.0000 0.0000
# 3 62.7656 35.8065 158.1687 0.0000 0.0000 0.0000
# 4 0.0000 0.0000 0.0000 32.2155 0.0000 0.0000
# 5 0.0000 0.0000 0.0000 0.0000 32.4112 0.0000
# 6 0.0000 0.0000 0.0000 0.0000 0.0000 20.0161
#
#
#
# Elastic Compliance Matrix: (Units=1/GPa)
#
#
# Indices 1 2 3 4 5 6 
#
# 1 0.008177 -0.001910 -0.002812 0.000000 0.000000 0.000000
# 2 -0.001910 0.009125 -0.001308 0.000000 0.000000 0.000000
# 3 -0.002812 -0.001308 0.007735 0.000000 0.000000 0.000000
# 4 0.000000 0.000000 0.000000 0.031041 0.000000 0.000000
# 5 0.000000 0.000000 0.000000 0.000000 0.030854 0.000000
# 6 0.000000 0.000000 0.000000 0.000000 0.000000 0.049960
#
#
# Mechanical properties :
#
#
# Convention : Reuss Voigt Hill
#
# Bulk Modulus (GPa) = 77.06418 79.37405 78.21911
# Shear Modulus (GPa) = 32.62073 36.61451 34.61762
#
# Velocity S-wave (km/s) = 3.99290 4.23027 4.11330
# Velocity P-wave (km/s) = 7.67610 7.91543 7.79669
#
# Compressibility (1/GPa) = 0.01297620
#
# Stress axis : x y z
#
# Youngs Moduli (GPa) = 122.29539 109.58656 129.29072
#
# Poissons Ratio (x) = 0.20929 0.36363
# Poissons Ratio (y) = 0.23357 0.16910
# Poissons Ratio (z) = 0.34395 0.14333
#
# Static dielectric constant tensor:
#      x y z
#    x 1.667570 0.000000 0.000000 
#    y 0.000000 1.728610 0.000000 
#    z 0.000000 0.000000 1.753430 
# 
# From -- ./inp_files/63371.got.cif
#   From: 2010.05.17/outbox.cif.g08.bks.cpg/sg74_32_cif.got.tgz:63371.got - 2010.06.03 17:57:02.
