data_PCOD9540927
_publ_section_title
;
Structure prediction by ZEFSAII (Michael W. Deem and Ramdas Pophale) SiO2 
 PCOD9540927
Probable space group: I M M A
;
_chemical_formula_sum "Si O2"
_cell_formula_units_Z 58
_cell_length_a 18.000000
_cell_length_b 24.000000
_cell_length_c 15.000000
_cell_angle_alpha 90.000000
_cell_angle_beta 90.000000
_cell_angle_gamma 90.000000
_cell_volume 6480.000000
_symmetry_space_group_name_H-M "I M M A"
_symmetry_group_IT_number 74
_symmetry_cell_setting 'orthorhombic'
loop_
_space_group_symop_operation_xyz
x,y,z
-x,1/2-y,z
x,-y,-z
-x,1/2+y,-z
-x,-y,-z
x,1/2+y,-z
-x,y,z
x,1/2-y,z
1/2+x,1/2+y,1/2+z
1/2-x,-y,1/2+z
1/2+x,1/2-y,1/2-z
1/2-x,y,1/2-z
1/2-x,1/2-y,1/2-z
1/2+x,y,1/2-z
1/2-x,1/2+y,1/2+z
1/2+x,-y,1/2+z
loop_
_atom_site_type_symbol
_atom_site_label
_atom_site_fract_x
_atom_site_fract_y
_atom_site_fract_z
Si Si1 0.868120 0.656697 0.038638
Si Si2 0.338781 0.609332 0.265014
Si Si3 0.713574 0.421869 0.152357
Si Si4 0.707142 0.686622 0.962283
Si Si5 0.134662 0.952568 0.927872
Si Si6 0.585971 0.316054 0.884451
Si Si7 0.913350 0.010446 0.264961
Si Si8 0.000000 0.250000 0.958038
O O1 0.856478 0.628169 0.134753
O O2 0.787693 0.681419 0.009870
O O3 0.884881 0.607318 0.968680
O O4 0.933850 0.701389 0.041770
O O5 0.250000 0.607833 0.250000
O O6 0.378035 0.652272 0.198313
O O7 0.374380 0.549490 0.244670
O O8 0.750000 0.418567 0.250000
O O9 0.703218 0.360611 0.112477
O O10 0.776235 0.452295 0.092300
O O11 0.636508 0.454338 0.165739
O O12 0.698990 0.750000 0.929242
O O13 0.640813 0.675159 0.032179
O O14 0.095096 0.962738 0.833615
O O15 0.116952 0.000000 0.000000
O O16 0.500000 0.333009 0.899674
O O17 0.585877 0.250000 0.865959
O O18 0.000000 0.006386 0.288686
#
# Coordination Sequence:
#
# PCOD9540927 Si02
#       8
#    16  16  16  16  16  16  16   4
#     4  11  24  38  61  92 123 172 199 262 315 375
#     4  12  23  38  61  88 124 167 207 248 309 376
#     4   9  21  39  62  88 120 157 199 264 313 369
#     4  10  20  41  64  89 118 159 215 255 318 378
#     4  10  20  39  64  89 118 162 216 250 313 378
#     4  10  23  38  58  87 122 161 206 256 300 364
#     4  11  24  39  59  90 127 159 205 260 314 378
#     4  12  28  40  56  92 140 152 220 254 314 376
#
# _framework density 8.9506169999999994
#
# number of rings (size 3 to 8) (size 9 to 14) (size 15 to 20)
#    0.000    1.517    3.448    1.655    3.862    1.379 
#    0.000    0.000    0.000    2.069    0.000    0.000 
#    0.000    0.000    0.000    0.000    0.000    0.000 
#
# Total GULP energy -323327.662165 kJ/mol
# GULP energy per Si atom -5574.614865 kJ/mol
# Density = 0.893025 g / cm^3
# Si number density = 8.950617 Si / 1000 Ang^3
#
#
#
# Elastic Constant Matrix: (Units=GPa)
#
#
# Indices 1 2 3 4 5 6 
#
# 1 157.0815 37.7024 19.8143 0.0000 0.0000 0.0000
# 2 37.7024 53.7784 23.8235 0.0000 0.0000 0.0000
# 3 19.8143 23.8235 27.5864 0.0000 0.0000 0.0000
# 4 0.0000 0.0000 0.0000 73.5096 0.0000 0.0000
# 5 0.0000 0.0000 0.0000 0.0000 15.3314 0.0000
# 6 0.0000 0.0000 0.0000 0.0000 0.0000 29.2696
#
#
#
# Elastic Compliance Matrix: (Units=1/GPa)
#
#
# Indices 1 2 3 4 5 6 
#
# 1 0.007688 -0.004767 -0.001405 0.000000 0.000000 0.000000
# 2 -0.004767 0.033073 -0.025137 0.000000 0.000000 0.000000
# 3 -0.001405 -0.025137 0.058967 0.000000 0.000000 0.000000
# 4 0.000000 0.000000 0.000000 0.013604 0.000000 0.000000
# 5 0.000000 0.000000 0.000000 0.000000 0.065226 0.000000
# 6 0.000000 0.000000 0.000000 0.000000 0.000000 0.034165
#
#
# Mechanical properties :
#
#
# Convention : Reuss Voigt Hill
#
# Bulk Modulus (GPa) = 26.94774 44.56964 35.75869
# Shear Modulus (GPa) = 17.37861 34.09585 25.73723
#
# Velocity S-wave (km/s) = 3.11915 4.36898 3.79586
# Velocity P-wave (km/s) = 5.29702 7.09945 6.26341
#
# Compressibility (1/GPa) = 0.03710886
#
# Stress axis : x y z
#
# Youngs Moduli (GPa) = 130.08080 30.23643 16.95857
#
# Poissons Ratio (x) = 0.14414 0.02382
# Poissons Ratio (y) = 0.62012 0.42629
# Poissons Ratio (z) = 0.18273 0.76006
#
# Static dielectric constant tensor:
#      x y z
#    x 1.607540 0.000000 0.000000 
#    y 0.000000 1.609430 0.000000 
#    z 0.000000 0.000000 1.599820 
# 
# From -- ./inp_files/34530.got.cif
#   From: 2010.05.17/outbox.ucp.g08.bks.cvg/sg74_18_cif.got.tgz:34530.got - 2010.06.11 16:37:44.
