data_PCOD9540684
_publ_section_title
;
Structure prediction by ZEFSAII (Michael W. Deem and Ramdas Pophale) SiO2 
 PCOD9540684
Probable space group: I M M A
;
_chemical_formula_sum "Si O2"
_cell_formula_units_Z 80
_cell_length_a 15.155567
_cell_length_b 7.301332
_cell_length_c 40.743100
_cell_angle_alpha 90.000000
_cell_angle_beta 90.000000
_cell_angle_gamma 90.000000
_cell_volume 4508.461397
_symmetry_space_group_name_H-M "I M M A"
_symmetry_group_IT_number 74
_symmetry_cell_setting 'orthorhombic'
loop_
_space_group_symop_operation_xyz
x,y,z
-x,1/2-y,z
x,-y,-z
-x,1/2+y,-z
-x,-y,-z
x,1/2+y,-z
-x,y,z
x,1/2-y,z
1/2+x,1/2+y,1/2+z
1/2-x,-y,1/2+z
1/2+x,1/2-y,1/2-z
1/2-x,y,1/2-z
1/2-x,1/2-y,1/2-z
1/2+x,y,1/2-z
1/2-x,1/2+y,1/2+z
1/2+x,-y,1/2+z
loop_
_atom_site_type_symbol
_atom_site_label
_atom_site_fract_x
_atom_site_fract_y
_atom_site_fract_z
Si Si1 0.599563 0.472968 0.304613
Si Si2 0.219054 0.526277 0.668706
Si Si3 0.600673 0.027565 0.229576
Si Si4 0.103026 0.473075 0.392658
Si Si5 0.899276 0.032079 0.464573
O O1 0.500000 0.532083 0.312777
O O2 0.598539 0.250000 0.304590
O O3 0.679342 0.530831 0.327862
O O4 0.619650 0.528664 0.266946
O O5 0.218036 0.750000 0.668433
O O6 0.167425 0.467893 0.701561
O O7 0.165538 0.465217 0.636747
O O8 0.500000 0.974519 0.221652
O O9 0.603119 0.250000 0.229691
O O10 0.103180 0.250000 0.391664
O O11 0.134729 0.531039 0.429104
O O12 0.000000 0.526706 0.388490
O O13 0.904693 0.250000 0.461866
O O14 0.000000 0.959773 0.466727
O O15 0.855449 0.000000 0.500000
#
# Coordination Sequence:
#
# PCOD9540684 Si02
#       5
#    16  16  16  16  16
#     4   8  13  18  21  27  41  62  90 121 147 173
#     4   9  13  16  23  32  44  64  89 118 150 176
#     4   8  12  16  21  29  41  59  86 118 147 174
#     4   8  13  19  26  38  54  70  91 119 147 174
#     4   8  13  21  32  45  62  83 104 125 149 179
#
# _framework density 17.744410999999999
#
# number of rings (size 3 to 8) (size 9 to 14) (size 15 to 20)
#    0.000    3.800    0.000    3.600    0.000    4.800 
#    0.000    0.000    0.000    0.000    0.000    0.000 
#    0.000    0.800    0.000    0.600    0.000    5.400 
#
# Total GULP energy -222783.540269 kJ/mol
# GULP energy per Si atom -5569.588507 kJ/mol
# Density = 1.770402 g / cm^3
# Si number density = 17.744411 Si / 1000 Ang^3
#
#
#
# Elastic Constant Matrix: (Units=GPa)
#
#
# Indices 1 2 3 4 5 6 
#
# 1 106.9607 3.1866 97.9889 0.0000 0.0000 0.0000
# 2 3.1866 71.8983 4.1939 0.0000 0.0000 0.0000
# 3 97.9889 4.1939 137.1916 0.0000 0.0000 0.0000
# 4 0.0000 0.0000 0.0000 -9.6173 0.0000 0.0000
# 5 0.0000 0.0000 0.0000 0.0000 14.6815 0.0000
# 6 0.0000 0.0000 0.0000 0.0000 0.0000 -17.4184
#
#
#
# Elastic Compliance Matrix: (Units=1/GPa)
#
#
# Indices 1 2 3 4 5 6 
#
# 1 0.027048 -0.000072 -0.019317 0.000000 0.000000 0.000000
# 2 -0.000072 0.013934 -0.000374 0.000000 0.000000 0.000000
# 3 -0.019317 -0.000374 0.021097 0.000000 0.000000 0.000000
# 4 0.000000 0.000000 0.000000 -0.103979 0.000000 0.000000
# 5 0.000000 0.000000 0.000000 0.000000 0.068113 0.000000
# 6 0.000000 0.000000 0.000000 0.000000 0.000000 -0.057410
#
#
# Mechanical properties :
#
#
# Convention : Reuss Voigt Hill
#
# Bulk Modulus (GPa) = 44.34114 58.53216 51.43665
# Shear Modulus (GPa) = 315.53564 11.57456 163.55510
#
# Velocity S-wave (km/s) = 13.34948 2.55677 9.61108
# Velocity P-wave (km/s) = 16.20662 6.46328 12.33751
#
# Compressibility (1/GPa) = 0.02255242
#
# Stress axis : x y z
#
# Youngs Moduli (GPa) = 36.97172 71.76913 47.39929
#
# Poissons Ratio (x) = 0.00517 0.91559
# Poissons Ratio (y) = 0.00266 0.01775
# Poissons Ratio (z) = 0.71417 0.02688
#
# Static dielectric constant tensor:
#      x y z
#    x 1.582040 0.000000 0.000000 
#    y 0.000000 1.496040 0.000000 
#    z 0.000000 0.000000 1.629940 
# 
# From -- ./inp_files/72339.got.cif
#   From: 2010.05.17/outbox.cif.g08.bks.cpg/sg74_37_cif.got.tgz:72339.got - 2010.06.03 17:57:02.
