data_PCOD9540711
_publ_section_title
;
Structure prediction by ZEFSAII (Michael W. Deem and Ramdas Pophale) SiO2 
 PCOD9540711
Probable space group: I M M A
;
_chemical_formula_sum "Si O2"
_cell_formula_units_Z 96
_cell_length_a 23.880516
_cell_length_b 14.472709
_cell_length_c 9.924394
_cell_angle_alpha 90.000000
_cell_angle_beta 90.000000
_cell_angle_gamma 90.000000
_cell_volume 3430.026963
_symmetry_space_group_name_H-M "I M M A"
_symmetry_group_IT_number 74
_symmetry_cell_setting 'orthorhombic'
loop_
_space_group_symop_operation_xyz
x,y,z
-x,1/2-y,z
x,-y,-z
-x,1/2+y,-z
-x,-y,-z
x,1/2+y,-z
-x,y,z
x,1/2-y,z
1/2+x,1/2+y,1/2+z
1/2-x,-y,1/2+z
1/2+x,1/2-y,1/2-z
1/2-x,y,1/2-z
1/2-x,1/2-y,1/2-z
1/2+x,y,1/2-z
1/2-x,1/2+y,1/2+z
1/2+x,-y,1/2+z
loop_
_atom_site_type_symbol
_atom_site_label
_atom_site_fract_x
_atom_site_fract_y
_atom_site_fract_z
Si Si1 0.673801 0.636471 0.139391
Si Si2 0.564922 0.645709 0.805054
Si Si3 0.184521 0.862699 0.768950
Si Si4 0.709495 0.138212 0.562423
Si Si5 0.939059 0.144146 0.700099
Si Si6 0.065989 0.395541 0.996426
O O1 0.672242 0.750000 0.139233
O O2 0.691358 0.604917 0.290360
O O3 0.725379 0.611148 0.045388
O O4 0.611081 0.603041 0.114075
O O5 0.500000 0.611442 0.838021
O O6 0.566741 0.750000 0.859866
O O7 0.629532 0.605591 0.816266
O O8 0.566202 0.650470 0.641587
O O9 0.184709 0.750000 0.754241
O O10 0.250000 0.890882 0.750000
O O11 0.175728 0.885716 0.928604
O O12 0.708151 0.250000 0.568972
O O13 0.945303 0.250000 0.661786
O O14 0.000000 0.099591 0.687216
O O15 0.916255 0.147619 0.854388
O O16 0.000000 0.400993 0.967975
O O17 0.085877 0.500000 0.000000
#
# Coordination Sequence:
#
# PCOD9540711 Si02
#       6
#    16  16  16  16  16  16
#     4   8  13  21  34  52  74 100 129 163 200 238
#     4   9  16  26  41  61  84 108 137 175 214 251
#     4   9  16  25  39  61  85 110 142 175 208 249
#     4   8  13  21  33  51  76 102 129 163 200 239
#     4   9  15  22  34  53  78 106 134 166 206 251
#     4   9  16  24  35  56  84 110 136 169 213 261
#
# _framework density 27.988118
#
# number of rings (size 3 to 8) (size 9 to 14) (size 15 to 20)
#    0.000    3.333    0.000    2.500    0.000    4.667 
#    0.000    0.000    0.000    1.000    8.667    7.000 
#    0.000    0.000    0.000    8.333    0.000    8.833 
#
# Total GULP energy -267495.802632 kJ/mol
# GULP energy per Si atom -5572.829222 kJ/mol
# Density = 2.792442 g / cm^3
# Si number density = 27.988118 Si / 1000 Ang^3
#
#
#
# Elastic Constant Matrix: (Units=GPa)
#
#
# Indices 1 2 3 4 5 6 
#
# 1 189.9643 -4.9689 -5.1608 0.0000 0.0000 0.0000
# 2 -4.9689 81.3255 7.8239 0.0000 0.0000 0.0000
# 3 -5.1608 7.8239 112.9137 0.0000 0.0000 0.0000
# 4 0.0000 0.0000 0.0000 2.0460 0.0000 0.0000
# 5 0.0000 0.0000 0.0000 0.0000 -9.1861 0.0000
# 6 0.0000 0.0000 0.0000 0.0000 0.0000 -1.1119
#
#
#
# Elastic Compliance Matrix: (Units=1/GPa)
#
#
# Indices 1 2 3 4 5 6 
#
# 1 0.005278 0.000301 0.000220 0.000000 0.000000 0.000000
# 2 0.000301 0.012396 -0.000845 0.000000 0.000000 0.000000
# 3 0.000220 -0.000845 0.008925 0.000000 0.000000 0.000000
# 4 0.000000 0.000000 0.000000 0.488748 0.000000 0.000000
# 5 0.000000 0.000000 0.000000 0.000000 -0.108861 0.000000
# 6 0.000000 0.000000 0.000000 0.000000 0.000000 -0.899397
#
#
# Mechanical properties :
#
#
# Convention : Reuss Voigt Hill
#
# Bulk Modulus (GPa) = 38.53280 42.17688 40.35484
# Shear Modulus (GPa) = -10.33885 24.11691 6.88903
#
# Velocity S-wave (km/s) = -1.92407 2.93863 1.57059
# Velocity P-wave (km/s) = 2.97681 5.15910 4.21175
#
# Compressibility (1/GPa) = 0.02595191
#
# Stress axis : x y z
#
# Youngs Moduli (GPa) = 189.46521 80.67135 112.04535
#
# Poissons Ratio (x) = -0.02430 -0.02469
# Poissons Ratio (y) = -0.05708 0.09470
# Poissons Ratio (z) = -0.04175 0.06818
#
# Static dielectric constant tensor:
#      x y z
#    x 2.369860 0.000000 0.000000 
#    y 0.000000 2.008080 0.000000 
#    z 0.000000 0.000000 2.202080 
# 
# From -- ./inp_files/35611.got.cif
#   From: 2010.05.17/outbox.cif.g08.bks.cpg/sg74_18_cif.got.tgz:35611.got - 2010.06.03 17:57:02.
