data_PCOD9540149
_publ_section_title
;
Structure prediction by ZEFSAII (Michael W. Deem and Ramdas Pophale) SiO2 
 PCOD9540149
Probable space group: I M M A
;
_chemical_formula_sum "Si O2"
_cell_formula_units_Z 40
_cell_length_a 10.335658
_cell_length_b 12.544543
_cell_length_c 14.217202
_cell_angle_alpha 90.000000
_cell_angle_beta 90.000000
_cell_angle_gamma 90.000000
_cell_volume 1843.347053
_symmetry_space_group_name_H-M "I M M A"
_symmetry_group_IT_number 74
_symmetry_cell_setting 'orthorhombic'
loop_
_space_group_symop_operation_xyz
x,y,z
-x,1/2-y,z
x,-y,-z
-x,1/2+y,-z
-x,-y,-z
x,1/2+y,-z
-x,y,z
x,1/2-y,z
1/2+x,1/2+y,1/2+z
1/2-x,-y,1/2+z
1/2+x,1/2-y,1/2-z
1/2-x,y,1/2-z
1/2-x,1/2-y,1/2-z
1/2+x,y,1/2-z
1/2-x,1/2+y,1/2+z
1/2+x,-y,1/2+z
loop_
_atom_site_type_symbol
_atom_site_label
_atom_site_fract_x
_atom_site_fract_y
_atom_site_fract_z
Si Si1 0.500000 0.875156 0.706754
Si Si2 0.707374 0.471498 0.609239
Si Si3 0.500000 0.003444 0.114098
Si Si4 0.366459 0.250000 0.680346
O O1 0.500000 0.750000 0.683140
O O2 0.500000 0.890556 0.820463
O O3 0.375393 0.938559 0.664256
O O4 0.707052 0.500000 0.500000
O O5 0.642226 0.357285 0.621342
O O6 0.858043 0.457838 0.639992
O O7 0.500000 0.000000 0.000000
O O8 0.500000 0.250000 0.735710
O O9 0.250000 0.250000 0.750000
#
# Coordination Sequence:
#
# PCOD9540149 Si02
#       4
#     8  16   8   8
#     4  12  25  44  77 103 141 184 237 292 357 420
#     4  11  26  45  72 106 144 184 238 294 354 424
#     4  10  24  48  66 100 146 180 232 291 351 427
#     4  12  26  44  76 102 143 193 242 290 361 423
#
# _framework density 21.699659
#
# number of rings (size 3 to 8) (size 9 to 14) (size 15 to 20)
#    0.000    0.800    2.000    4.200    5.600    3.200 
#   10.800    0.000    0.000    0.000    0.000    0.000 
#    0.000    0.000    0.000    0.000    0.000    0.000 
#
# Total GULP energy -111546.894821 kJ/mol
# GULP energy per Si atom -5577.344741 kJ/mol
# Density = 2.165027 g / cm^3
# Si number density = 21.699659 Si / 1000 Ang^3
#
#
#
# Elastic Constant Matrix: (Units=GPa)
#
#
# Indices 1 2 3 4 5 6 
#
# 1 223.0452 67.0285 28.9147 0.0000 0.0000 0.0000
# 2 67.0285 188.6913 44.8204 0.0000 0.0000 0.0000
# 3 28.9147 44.8204 102.9381 0.0000 0.0000 0.0000
# 4 0.0000 0.0000 0.0000 25.1176 0.0000 0.0000
# 5 0.0000 0.0000 0.0000 0.0000 20.4643 0.0000
# 6 0.0000 0.0000 0.0000 0.0000 0.0000 24.9204
#
#
#
# Elastic Compliance Matrix: (Units=1/GPa)
#
#
# Indices 1 2 3 4 5 6 
#
# 1 0.005066 -0.001630 -0.000713 0.000000 0.000000 0.000000
# 2 -0.001630 0.006436 -0.002344 0.000000 0.000000 0.000000
# 3 -0.000713 -0.002344 0.010936 0.000000 0.000000 0.000000
# 4 0.000000 0.000000 0.000000 0.039813 0.000000 0.000000
# 5 0.000000 0.000000 0.000000 0.000000 0.048866 0.000000
# 6 0.000000 0.000000 0.000000 0.000000 0.000000 0.040128
#
#
# Mechanical properties :
#
#
# Convention : Reuss Voigt Hill
#
# Bulk Modulus (GPa) = 76.55859 88.46689 82.51274
# Shear Modulus (GPa) = 30.30823 39.02788 34.66806
#
# Velocity S-wave (km/s) = 3.74132 4.24553 4.00137
# Velocity P-wave (km/s) = 7.34989 8.05543 7.71074
#
# Compressibility (1/GPa) = 0.01306189
#
# Stress axis : x y z
#
# Youngs Moduli (GPa) = 197.40556 155.38697 91.44443
#
# Poissons Ratio (x) = 0.25329 0.06522
# Poissons Ratio (y) = 0.32179 0.21437
# Poissons Ratio (z) = 0.14078 0.36426
#
# Static dielectric constant tensor:
#      x y z
#    x 1.853060 0.000000 0.000000 
#    y 0.000000 1.933250 0.000000 
#    z 0.000000 0.000000 1.790890 
# 
# From -- ./inp_files/29685.got.cif
#   From: 2010.05.17/outbox.cif.g08.bks.cpg/sg74_15_cif.got.tgz:29685.got - 2010.06.03 17:57:02.
