data_PCOD9540610
_publ_section_title
;
Structure prediction by ZEFSAII (Michael W. Deem and Ramdas Pophale) SiO2 
 PCOD9540610
Probable space group: I M M A
;
_chemical_formula_sum "Si O2"
_cell_formula_units_Z 60
_cell_length_a 16.519802
_cell_length_b 26.140159
_cell_length_c 5.138236
_cell_angle_alpha 90.000000
_cell_angle_beta 90.000000
_cell_angle_gamma 90.000000
_cell_volume 2218.845741
_symmetry_space_group_name_H-M "I M M A"
_symmetry_group_IT_number 74
_symmetry_cell_setting 'orthorhombic'
loop_
_space_group_symop_operation_xyz
x,y,z
-x,1/2-y,z
x,-y,-z
-x,1/2+y,-z
-x,-y,-z
x,1/2+y,-z
-x,y,z
x,1/2-y,z
1/2+x,1/2+y,1/2+z
1/2-x,-y,1/2+z
1/2+x,1/2-y,1/2-z
1/2-x,y,1/2-z
1/2-x,1/2-y,1/2-z
1/2+x,y,1/2-z
1/2-x,1/2+y,1/2+z
1/2+x,-y,1/2+z
loop_
_atom_site_type_symbol
_atom_site_label
_atom_site_fract_x
_atom_site_fract_y
_atom_site_fract_z
Si Si1 0.633766 0.898267 0.083800
Si Si2 0.500000 0.655900 0.847504
Si Si3 0.000000 0.438536 0.977033
Si Si4 0.250000 0.338470 0.250000
Si Si5 0.500000 0.750000 0.457163
Si Si6 0.326108 0.750000 0.441882
Si Si7 0.304239 0.000000 0.000000
O O1 0.578917 0.849055 0.020479
O O2 0.719263 0.873977 0.986475
O O3 0.583215 0.920454 0.329745
O O4 0.641840 0.951664 0.925606
O O5 0.500000 0.598926 0.722799
O O6 0.500000 0.700525 0.643198
O O7 0.000000 0.500000 0.000000
O O8 0.314986 0.300178 0.378697
O O9 0.414286 0.750000 0.314673
O O10 0.250000 0.750000 0.250000
O O11 0.250000 0.014683 0.750000
#
# Coordination Sequence:
#
# PCOD9540610 Si02
#       7
#    16   8   8   8   4   8   8
#     4  11  25  46  72 107 152 211 263 348 419 522
#     4  11  25  47  73 110 150 209 273 348 422 518
#     4  11  26  45  78 109 156 214 285 344 441 530
#     4  11  24  48  72 110 154 204 278 339 436 518
#     4  12  24  48  78 112 160 210 284 352 432 518
#     4  11  27  47  77 112 156 212 277 358 425 523
#     4  12  28  45  74 115 156 212 270 340 426 519
#
# _framework density 27.041087999999998
#
# number of rings (size 3 to 8) (size 9 to 14) (size 15 to 20)
#    0.000    0.800    4.000    1.600    9.333    3.200 
#    0.000    5.333    0.000    0.000    0.000    0.000 
#    0.000    0.000    0.000    0.000    0.000    0.000 
#
# Total GULP energy -167335.358859 kJ/mol
# GULP energy per Si atom -5577.845295 kJ/mol
# Density = 2.697954 g / cm^3
# Si number density = 27.041088 Si / 1000 Ang^3
#
#
#
# Elastic Constant Matrix: (Units=GPa)
#
#
# Indices 1 2 3 4 5 6 
#
# 1 127.6043 41.6686 37.9125 0.0001 0.0002 0.0002
# 2 41.6686 209.6242 49.2125 0.0000 0.0001 0.0001
# 3 37.9125 49.2125 100.7764 0.0004 0.0013 0.0009
# 4 0.0001 0.0000 0.0004 55.3395 0.0001 0.0000
# 5 0.0002 0.0001 0.0013 0.0001 26.7747 0.0002
# 6 0.0002 0.0001 0.0009 0.0000 0.0002 -9.7432
#
#
#
# Elastic Compliance Matrix: (Units=1/GPa)
#
#
# Indices 1 2 3 4 5 6 
#
# 1 0.009054 -0.001130 -0.002854 0.000000 0.000000 0.000000
# 2 -0.001130 0.005529 -0.002275 0.000000 0.000000 0.000000
# 3 -0.002854 -0.002275 0.012108 0.000000 -0.000001 0.000001
# 4 0.000000 0.000000 0.000000 0.018070 0.000000 0.000000
# 5 0.000000 0.000000 -0.000001 0.000000 0.037349 0.000001
# 6 0.000000 0.000000 0.000001 0.000000 0.000001 -0.102635
#
#
# Mechanical properties :
#
#
# Convention : Reuss Voigt Hill
#
# Bulk Modulus (GPa) = 70.55960 77.28799 73.92380
# Shear Modulus (GPa) = -1522.75400 35.08829 -743.83285
#
# Velocity S-wave (km/s) = -23.75602 3.60612 -16.60338
# Velocity P-wave (km/s) = 26.95022 6.78104 18.44359
#
# Compressibility (1/GPa) = 0.01417242
#
# Stress axis : x y z
#
# Youngs Moduli (GPa) = 110.45265 180.86180 82.59126
#
# Poissons Ratio (x) = 0.20429 0.23575
# Poissons Ratio (y) = 0.12476 0.18790
# Poissons Ratio (z) = 0.31528 0.41148
#
# Static dielectric constant tensor:
#      x y z
#    x 2.745170 0.000000 0.000000 
#    y 0.000000 1.745560 0.000000 
#    z 0.000000 0.000000 2.280990 
# 
# From -- ./inp_files/2228.got.cif
#   From: 2010.05.17/outbox.cif.g08.bks.cpg/sg74_2_cif.got.tgz:2228.got - 2010.06.03 17:57:02.
