data_PCOD9540935
_publ_section_title
;
Structure prediction by ZEFSAII (Michael W. Deem and Ramdas Pophale) SiO2 
 PCOD9540935
Probable space group: I M M A
;
_chemical_formula_sum "Si O2"
_cell_formula_units_Z 36
_cell_length_a 15.000000
_cell_length_b 9.000000
_cell_length_c 27.000000
_cell_angle_alpha 90.000000
_cell_angle_beta 90.000000
_cell_angle_gamma 90.000000
_cell_volume 3645.000000
_symmetry_space_group_name_H-M "I M M A"
_symmetry_group_IT_number 74
_symmetry_cell_setting 'orthorhombic'
loop_
_space_group_symop_operation_xyz
x,y,z
-x,1/2-y,z
x,-y,-z
-x,1/2+y,-z
-x,-y,-z
x,1/2+y,-z
-x,y,z
x,1/2-y,z
1/2+x,1/2+y,1/2+z
1/2-x,-y,1/2+z
1/2+x,1/2-y,1/2-z
1/2-x,y,1/2-z
1/2-x,1/2-y,1/2-z
1/2+x,y,1/2-z
1/2-x,1/2+y,1/2+z
1/2+x,-y,1/2+z
loop_
_atom_site_type_symbol
_atom_site_label
_atom_site_fract_x
_atom_site_fract_y
_atom_site_fract_z
Si Si1 0.826428 0.573411 0.210006
Si Si2 0.690061 0.071895 0.597395
Si Si3 0.000000 0.069875 0.368584
Si Si4 0.000000 0.427785 0.254812
Si Si5 0.143858 0.427620 0.448948
Si Si6 0.500000 0.927429 0.446379
O O1 0.846359 0.750000 0.209271
O O2 0.750000 0.545682 0.250000
O O3 0.795439 0.532975 0.154849
O O4 0.913585 0.487066 0.226779
O O5 0.702774 0.250000 0.591272
O O6 0.589058 0.033574 0.583241
O O7 0.757490 0.985132 0.562462
O O8 0.084547 0.025432 0.401761
O O9 0.000000 0.250000 0.366519
O O10 0.000000 0.016674 0.312107
O O11 0.000000 0.250000 0.255576
O O12 0.111644 0.500000 0.500000
O O13 0.140434 0.250000 0.453307
O O14 0.500000 0.750000 0.452450
O O15 0.500000 0.000000 0.500000
#
# Coordination Sequence:
#
# PCOD9540935 Si02
#       6
#    16  16   8   8  16   8
#     4  10  21  38  60  85 114 149 190 236 285 339
#     4  10  21  38  58  82 112 146 184 229 281 332
#     4   9  21  39  57  81 115 152 187 229 281 336
#     4  11  22  37  59  86 117 152 191 236 288 344
#     4  11  22  38  59  83 113 148 188 233 282 336
#     4  10  21  36  54  75 105 142 177 219 268 320
#
# _framework density 9.8765429999999999
#
# number of rings (size 3 to 8) (size 9 to 14) (size 15 to 20)
#    0.000    1.778    0.000    4.000    0.000    5.778 
#    0.000    6.111    0.000    0.000    0.000    0.000 
#    0.000    0.000    0.000    0.000    0.000    0.000 
#
# Total GULP energy -201157.842929 kJ/mol
# GULP energy per Si atom -5587.717859 kJ/mol
# Density = 0.985406 g / cm^3
# Si number density = 9.876543 Si / 1000 Ang^3
#
#
#
# Elastic Constant Matrix: (Units=GPa)
#
#
# Indices 1 2 3 4 5 6 
#
# 1 70.9759 32.3700 8.8844 0.0000 0.0000 0.0000
# 2 32.3700 21.8264 19.1261 0.0000 0.0000 0.0000
# 3 8.8844 19.1261 98.1275 0.0000 0.0000 0.0000
# 4 0.0000 0.0000 0.0000 32.2215 0.0000 0.0000
# 5 0.0000 0.0000 0.0000 0.0000 24.2156 0.0000
# 6 0.0000 0.0000 0.0000 0.0000 0.0000 91.8190
#
#
#
# Elastic Compliance Matrix: (Units=1/GPa)
#
#
# Indices 1 2 3 4 5 6 
#
# 1 0.054631 -0.092483 0.013080 0.000000 0.000000 0.000000
# 2 -0.092483 0.211814 -0.032912 0.000000 0.000000 0.000000
# 3 0.013080 -0.032912 0.015421 0.000000 0.000000 0.000000
# 4 0.000000 0.000000 0.000000 0.031035 0.000000 0.000000
# 5 0.000000 0.000000 0.000000 0.000000 0.041296 0.000000
# 6 0.000000 0.000000 0.000000 0.000000 0.000000 0.010891
#
#
# Mechanical properties :
#
#
# Convention : Reuss Voigt Hill
#
# Bulk Modulus (GPa) = 17.47112 34.63232 26.05172
# Shear Modulus (GPa) = 8.21293 38.35449 23.28371
#
# Velocity S-wave (km/s) = 2.04128 4.41125 3.43700
# Velocity P-wave (km/s) = 3.79733 6.59668 5.38219
#
# Compressibility (1/GPa) = 0.05723731
#
# Stress axis : x y z
#
# Youngs Moduli (GPa) = 18.30475 4.72112 64.84487
#
# Poissons Ratio (x) = 0.43662 -0.84815
# Poissons Ratio (y) = 1.69287 2.13415
# Poissons Ratio (z) = -0.23942 0.15538
#
# Static dielectric constant tensor:
#      x y z
#    x 1.672340 0.000000 0.000000 
#    y 0.000000 1.662880 0.000000 
#    z 0.000000 0.000000 1.697240 
# 
# From -- ./inp_files/63689.got.cif
#   From: 2010.05.17/outbox.ucp.g08.bks.cvg/sg74_32_cif.got.tgz:63689.got - 2010.06.11 16:37:44.
