data_PCOD9540591
_publ_section_title
;
Structure prediction by ZEFSAII (Michael W. Deem and Ramdas Pophale) SiO2 
 PCOD9540591
Probable space group: I M M A
;
_chemical_formula_sum "Si O2"
_cell_formula_units_Z 72
_cell_length_a 14.427650
_cell_length_b 25.691194
_cell_length_c 9.491516
_cell_angle_alpha 90.000000
_cell_angle_beta 90.000000
_cell_angle_gamma 90.000000
_cell_volume 3518.159064
_symmetry_space_group_name_H-M "I M M A"
_symmetry_group_IT_number 74
_symmetry_cell_setting 'orthorhombic'
loop_
_space_group_symop_operation_xyz
x,y,z
-x,1/2-y,z
x,-y,-z
-x,1/2+y,-z
-x,-y,-z
x,1/2+y,-z
-x,y,z
x,1/2-y,z
1/2+x,1/2+y,1/2+z
1/2-x,-y,1/2+z
1/2+x,1/2-y,1/2-z
1/2-x,y,1/2-z
1/2-x,1/2-y,1/2-z
1/2+x,y,1/2-z
1/2-x,1/2+y,1/2+z
1/2+x,-y,1/2+z
loop_
_atom_site_type_symbol
_atom_site_label
_atom_site_fract_x
_atom_site_fract_y
_atom_site_fract_z
Si Si1 0.157320 0.521657 0.342334
Si Si2 0.000000 0.028683 0.151807
Si Si3 0.296115 0.691554 0.597780
Si Si4 0.326399 0.359870 0.871141
Si Si5 0.500000 0.809148 0.249560
Si Si6 0.500000 0.351971 0.444312
O O1 0.169319 0.500000 0.500000
O O2 0.250000 0.521169 0.250000
O O3 0.131534 0.582297 0.362447
O O4 0.085602 0.489164 0.248727
O O5 0.000000 0.089538 0.114373
O O6 0.000000 0.000000 0.000000
O O7 0.291366 0.750000 0.534488
O O8 0.250000 0.693405 0.750000
O O9 0.232933 0.651984 0.509432
O O10 0.403612 0.674761 0.602150
O O11 0.250000 0.354565 0.750000
O O12 0.409215 0.320211 0.842269
O O13 0.500000 0.750000 0.302573
O O14 0.500000 0.847227 0.385135
#
# Coordination Sequence:
#
# PCOD9540591 Si02
#       6
#    16   8  16  16   8   8
#     4  11  26  44  71 100 140 182 233 290 352 422
#     4  12  27  44  68 100 142 182 236 290 346 419
#     4  11  26  46  70 103 143 182 231 289 355 426
#     4  11  24  42  71 101 136 180 232 287 348 419
#     4  12  24  42  71 104 141 181 236 294 351 421
#     4  12  26  42  74 100 137 185 231 285 354 415
#
# _framework density 20.465247999999999
#
# number of rings (size 3 to 8) (size 9 to 14) (size 15 to 20)
#    0.000    0.667    2.222    4.667    9.333    1.778 
#    0.000    1.111    0.000    0.000    0.000    0.000 
#    0.000    0.000    0.000    0.000    0.000    0.000 
#
# Total GULP energy -201246.469541 kJ/mol
# GULP energy per Si atom -5590.179709 kJ/mol
# Density = 2.041867 g / cm^3
# Si number density = 20.465248 Si / 1000 Ang^3
#
#
#
# Elastic Constant Matrix: (Units=GPa)
#
#
# Indices 1 2 3 4 5 6 
#
# 1 114.0450 37.5946 34.0835 -0.0008 -0.0003 0.0017
# 2 37.5946 109.9031 29.4522 -0.0001 0.0000 0.0010
# 3 34.0835 29.4522 117.3860 -0.0013 -0.0008 0.0101
# 4 -0.0008 -0.0001 -0.0013 49.9126 0.0004 0.0019
# 5 -0.0003 0.0000 -0.0008 0.0004 22.7748 -0.0001
# 6 0.0017 0.0010 0.0101 0.0019 -0.0001 23.6417
#
#
#
# Elastic Compliance Matrix: (Units=1/GPa)
#
#
# Indices 1 2 3 4 5 6 
#
# 1 0.010425 -0.002954 -0.002286 0.000000 0.000000 0.000000
# 2 -0.002954 0.010592 -0.001800 0.000000 0.000000 0.000001
# 3 -0.002286 -0.001800 0.009634 0.000000 0.000000 -0.000004
# 4 0.000000 0.000000 0.000000 0.020035 0.000000 -0.000002
# 5 0.000000 0.000000 0.000000 0.000000 0.043908 0.000000
# 6 0.000000 0.000001 -0.000004 -0.000002 0.000000 0.042298
#
#
# Mechanical properties :
#
#
# Convention : Reuss Voigt Hill
#
# Bulk Modulus (GPa) = 60.34164 60.39940 60.37052
# Shear Modulus (GPa) = 31.94982 35.27941 33.61461
#
# Velocity S-wave (km/s) = 3.95546 4.15645 4.05720
# Velocity P-wave (km/s) = 7.09998 7.25342 7.17711
#
# Compressibility (1/GPa) = 0.01657230
#
# Stress axis : x y z
#
# Youngs Moduli (GPa) = 95.92056 94.41453 103.79659
#
# Poissons Ratio (x) = 0.27886 0.23728
# Poissons Ratio (y) = 0.28331 0.18682
# Poissons Ratio (z) = 0.21927 0.16993
#
# Static dielectric constant tensor:
#      x y z
#    x 1.922430 0.000000 0.000000 
#    y 0.000000 1.746110 0.000000 
#    z 0.000000 0.000000 1.661750 
# 
# From -- ./inp_files/9188.got.cif
#   From: 2010.05.17/outbox.cif.g08.bks.cpg/sg74_5_cif.got.tgz:9188.got - 2010.06.03 17:57:02.
