data_PCOD9540002
_publ_section_title
;
Structure prediction by ZEFSAII (Michael W. Deem and Ramdas Pophale) SiO2 
 PCOD9540002
Probable space group: I M M A
;
_chemical_formula_sum "Si O2"
_cell_formula_units_Z 116
_cell_length_a 14.887148
_cell_length_b 24.265723
_cell_length_c 16.867387
_cell_angle_alpha 90.000000
_cell_angle_beta 90.000000
_cell_angle_gamma 90.000000
_cell_volume 6093.299861
_symmetry_space_group_name_H-M "I M M A"
_symmetry_group_IT_number 74
_symmetry_cell_setting 'orthorhombic'
loop_
_space_group_symop_operation_xyz
x,y,z
-x,1/2-y,z
x,-y,-z
-x,1/2+y,-z
-x,-y,-z
x,1/2+y,-z
-x,y,z
x,1/2-y,z
1/2+x,1/2+y,1/2+z
1/2-x,-y,1/2+z
1/2+x,1/2-y,1/2-z
1/2-x,y,1/2-z
1/2-x,1/2-y,1/2-z
1/2+x,y,1/2-z
1/2-x,1/2+y,1/2+z
1/2+x,-y,1/2+z
loop_
_atom_site_type_symbol
_atom_site_label
_atom_site_fract_x
_atom_site_fract_y
_atom_site_fract_z
Si Si1 0.391440 0.465799 0.418485
Si Si2 0.894669 0.384620 0.562439
Si Si3 0.262634 0.096731 0.155804
Si Si4 0.500000 0.250000 0.757958
Si Si5 0.396129 0.816117 0.900724
Si Si6 0.102905 0.501522 0.609921
Si Si7 0.397206 0.948375 0.285166
Si Si8 0.659646 0.836660 0.225014
O O1 0.375704 0.500000 0.500000
O O2 0.500000 0.454386 0.414043
O O3 0.329007 0.413147 0.395607
O O4 0.363874 0.508338 0.349005
O O5 0.888838 0.346498 0.485783
O O6 0.870070 0.449350 0.555229
O O7 0.842275 0.356942 0.634336
O O8 0.000000 0.386247 0.586591
O O9 0.250000 0.086417 0.250000
O O10 0.316508 0.154542 0.148093
O O11 0.330789 0.052115 0.118355
O O12 0.576853 0.202216 0.761207
O O13 0.500000 0.826488 0.872346
O O14 0.385788 0.750000 0.906753
O O15 0.102692 0.475319 0.698391
O O16 0.000000 0.518950 0.591595
O O17 0.500000 0.936044 0.306853
O O18 0.346603 0.891389 0.278996
O O19 0.750000 0.808483 0.250000
#
# Coordination Sequence:
#
# PCOD9540002 Si02
#       8
#    16  16  16   4  16  16  16  16
#     4  10  23  39  59  86 121 161 200 244 304 365
#     4   9  19  37  60  88 123 162 192 247 310 373
#     4  12  24  37  63  93 123 161 203 260 307 375
#     4  12  22  40  44  82 122 162 216 262 280 354
#     4  10  24  43  65  92 126 163 205 258 322 380
#     4   9  18  32  55  91 126 152 186 234 310 372
#     4   9  17  35  54  80 114 151 188 240 294 360
#     4  11  22  32  58  82 115 161 210 249 297 352
#
# _framework density 19.037303000000001
#
# number of rings (size 3 to 8) (size 9 to 14) (size 15 to 20)
#    0.000    1.931    2.759    1.448    6.759    0.828 
#    0.000    2.069    0.000    0.414    0.000    0.000 
#    0.000    0.000    0.000    0.000    0.000    0.000 
#
# Total GULP energy -322981.329442 kJ/mol
# GULP energy per Si atom -5568.643611 kJ/mol
# Density = 1.899397 g / cm^3
# Si number density = 19.037303 Si / 1000 Ang^3
#
#
#
# Elastic Constant Matrix: (Units=GPa)
#
#
# Indices 1 2 3 4 5 6 
#
# 1 108.8310 52.9977 30.1995 -0.0001 0.0000 0.0000
# 2 52.9977 104.9964 21.0107 0.0002 0.0000 0.0000
# 3 30.1995 21.0107 82.8468 0.0004 0.0000 -0.0001
# 4 -0.0001 0.0002 0.0004 -32.4697 0.0000 0.0000
# 5 0.0000 0.0000 0.0000 0.0000 22.1409 0.0000
# 6 0.0000 0.0000 -0.0001 0.0000 0.0000 47.0498
#
#
#
# Elastic Compliance Matrix: (Units=1/GPa)
#
#
# Indices 1 2 3 4 5 6 
#
# 1 0.012954 -0.005893 -0.003227 0.000000 0.000000 0.000000
# 2 -0.005893 0.012714 -0.001076 0.000000 0.000000 0.000000
# 3 -0.003227 -0.001076 0.013520 0.000000 0.000000 0.000000
# 4 0.000000 0.000000 0.000000 -0.030798 0.000000 0.000000
# 5 0.000000 0.000000 0.000000 0.000000 0.045165 0.000000
# 6 0.000000 0.000000 0.000000 0.000000 0.000000 0.021254
#
#
# Mechanical properties :
#
#
# Convention : Reuss Voigt Hill
#
# Bulk Modulus (GPa) = 53.20687 56.12110 54.66399
# Shear Modulus (GPa) = 49.27722 20.17528 34.72625
#
# Velocity S-wave (km/s) = 5.09321 3.25895 4.27560
# Velocity P-wave (km/s) = 7.91183 6.61094 7.29046
#
# Compressibility (1/GPa) = 0.01879456
#
# Stress axis : x y z
#
# Youngs Moduli (GPa) = 77.19807 78.65430 73.96487
#
# Poissons Ratio (x) = 0.46348 0.23872
# Poissons Ratio (y) = 0.45490 0.07961
# Poissons Ratio (z) = 0.24916 0.08466
#
# Static dielectric constant tensor:
#      x y z
#    x 1.654110 0.000000 0.000000 
#    y 0.000000 1.684220 0.000000 
#    z 0.000000 0.000000 1.681600 
# 
# From -- ./inp_files/43216.got.cif
#   From: 2010.05.17/outbox.cif.g08.bks.cpg/sg74_22_cif.got.tgz:43216.got - 2010.06.03 17:57:02.
