data_PCOD9540808
_publ_section_title
;
Structure prediction by ZEFSAII (Michael W. Deem and Ramdas Pophale) SiO2 
 PCOD9540808
Probable space group: I M M A
;
_chemical_formula_sum "Si O2"
_cell_formula_units_Z 52
_cell_length_a 9.000000
_cell_length_b 24.000000
_cell_length_c 27.000000
_cell_angle_alpha 90.000000
_cell_angle_beta 90.000000
_cell_angle_gamma 90.000000
_cell_volume 5832.000000
_symmetry_space_group_name_H-M "I M M A"
_symmetry_group_IT_number 74
_symmetry_cell_setting 'orthorhombic'
loop_
_space_group_symop_operation_xyz
x,y,z
-x,1/2-y,z
x,-y,-z
-x,1/2+y,-z
-x,-y,-z
x,1/2+y,-z
-x,y,z
x,1/2-y,z
1/2+x,1/2+y,1/2+z
1/2-x,-y,1/2+z
1/2+x,1/2-y,1/2-z
1/2-x,y,1/2-z
1/2-x,1/2-y,1/2-z
1/2+x,y,1/2-z
1/2-x,1/2+y,1/2+z
1/2+x,-y,1/2+z
loop_
_atom_site_type_symbol
_atom_site_label
_atom_site_fract_x
_atom_site_fract_y
_atom_site_fract_z
Si Si1 0.823733 0.811885 0.803576
Si Si2 0.674225 0.558794 0.543720
Si Si3 0.822752 0.938175 0.445013
Si Si4 0.824315 0.517719 0.300011
Si Si5 0.325154 0.591803 0.864187
Si Si6 0.818834 0.250000 0.695053
Si Si7 0.680101 0.130748 0.849249
O O1 0.811778 0.750000 0.826907
O O2 0.750000 0.807806 0.750000
O O3 0.726890 0.859172 0.829091
O O4 0.000000 0.825793 0.800945
O O5 0.500000 0.557030 0.532335
O O6 0.734354 0.496724 0.557356
O O7 0.773115 0.581304 0.498793
O O8 0.714472 0.595640 0.590121
O O9 0.782502 0.892669 0.403753
O O10 0.000000 0.949366 0.441394
O O11 0.750000 0.498722 0.250000
O O12 0.802212 0.469111 0.339716
O O13 0.767190 0.579148 0.315039
O O14 0.000000 0.523040 0.293043
O O15 0.500000 0.595495 0.877026
O O16 0.750000 0.250000 0.750000
O O17 0.772011 0.192447 0.667354
O O18 0.000000 0.250000 0.698121
O O19 0.500000 0.131695 0.846886
#
# Coordination Sequence:
#
# PCOD9540808 Si02
#       7
#    16  16  16  16  16   8  16
#     4  10  21  37  56  79 109 145 183 222 265 317
#     4  11  21  33  52  83 113 137 175 224 277 336
#     4  10  18  34  56  77 106 144 180 221 274 333
#     4  10  20  33  48  74 108 140 174 218 269 319
#     4  11  21  35  55  78 108 144 183 224 272 326
#     4  10  20  36  58  82 110 148 190 234 277 328
#     4   9  18  34  55  78 107 143 185 227 272 325
#
# _framework density 8.9163239999999995
#
# number of rings (size 3 to 8) (size 9 to 14) (size 15 to 20)
#    0.000    1.846    1.538    4.615    0.000    3.385 
#    0.000    1.538    1.692    0.000    0.000    0.000 
#    0.000    0.000    0.000    0.000    0.000    0.000 
#
# Total GULP energy -289600.936114 kJ/mol
# GULP energy per Si atom -5569.248771 kJ/mol
# Density = 0.889603 g / cm^3
# Si number density = 8.916324 Si / 1000 Ang^3
#
#
#
# Elastic Constant Matrix: (Units=GPa)
#
#
# Indices 1 2 3 4 5 6 
#
# 1 32.8425 11.6955 7.8289 0.0000 0.0000 0.0000
# 2 11.6955 46.0148 13.3860 0.0000 0.0000 0.0000
# 3 7.8289 13.3860 69.3997 0.0000 0.0000 0.0000
# 4 0.0000 0.0000 0.0000 15.2774 0.0000 0.0000
# 5 0.0000 0.0000 0.0000 0.0000 21.3218 0.0000
# 6 0.0000 0.0000 0.0000 0.0000 0.0000 23.6465
#
#
#
# Elastic Compliance Matrix: (Units=1/GPa)
#
#
# Indices 1 2 3 4 5 6 
#
# 1 0.033817 -0.007930 -0.002285 0.000000 0.000000 0.000000
# 2 -0.007930 0.024884 -0.003905 0.000000 0.000000 0.000000
# 3 -0.002285 -0.003905 0.015420 0.000000 0.000000 0.000000
# 4 0.000000 0.000000 0.000000 0.065456 0.000000 0.000000
# 5 0.000000 0.000000 0.000000 0.000000 0.046900 0.000000
# 6 0.000000 0.000000 0.000000 0.000000 0.000000 0.042290
#
#
# Mechanical properties :
#
#
# Convention : Reuss Voigt Hill
#
# Bulk Modulus (GPa) = 21.79606 23.78642 22.79124
# Shear Modulus (GPa) = 18.36195 19.73891 19.05043
#
# Velocity S-wave (km/s) = 3.21235 3.33062 3.27202
# Velocity P-wave (km/s) = 5.09980 5.30644 5.20415
#
# Compressibility (1/GPa) = 0.04587985
#
# Stress axis : x y z
#
# Youngs Moduli (GPa) = 29.57074 40.18679 64.84961
#
# Poissons Ratio (x) = 0.31870 0.14820
# Poissons Ratio (y) = 0.23451 0.25324
# Poissons Ratio (z) = 0.06758 0.15693
#
# Static dielectric constant tensor:
#      x y z
#    x 1.590810 0.000000 0.000000 
#    y 0.000000 1.626950 0.000000 
#    z 0.000000 0.000000 1.761930 
# 
# From -- ./inp_files/64760.got.cif
#   From: 2010.05.17/outbox.ucp.g08.bks.cvg/sg74_33_cif.got.tgz:64760.got - 2010.06.11 16:37:44.
