data_PCOD9540064
_publ_section_title
;
Structure prediction by ZEFSAII (Michael W. Deem and Ramdas Pophale) SiO2 
 PCOD9540064
Probable space group: I M M A
;
_chemical_formula_sum "Si O2"
_cell_formula_units_Z 100
_cell_length_a 25.319130
_cell_length_b 18.572758
_cell_length_c 9.463087
_cell_angle_alpha 90.000000
_cell_angle_beta 90.000000
_cell_angle_gamma 90.000000
_cell_volume 4449.979512
_symmetry_space_group_name_H-M "I M M A"
_symmetry_group_IT_number 74
_symmetry_cell_setting 'orthorhombic'
loop_
_space_group_symop_operation_xyz
x,y,z
-x,1/2-y,z
x,-y,-z
-x,1/2+y,-z
-x,-y,-z
x,1/2+y,-z
-x,y,z
x,1/2-y,z
1/2+x,1/2+y,1/2+z
1/2-x,-y,1/2+z
1/2+x,1/2-y,1/2-z
1/2-x,y,1/2-z
1/2-x,1/2-y,1/2-z
1/2+x,y,1/2-z
1/2-x,1/2+y,1/2+z
1/2+x,-y,1/2+z
loop_
_atom_site_type_symbol
_atom_site_label
_atom_site_fract_x
_atom_site_fract_y
_atom_site_fract_z
Si Si1 0.441279 0.041056 0.700750
Si Si2 0.602801 0.891867 0.800089
Si Si3 0.912315 0.170887 0.590314
Si Si4 0.896159 0.851929 0.013783
Si Si5 0.204963 0.481118 0.344142
Si Si6 0.688362 0.356585 0.745033
Si Si7 0.500000 0.750000 0.443545
O O1 0.500000 0.041326 0.648105
O O2 0.434325 0.103474 0.820622
O O3 0.405225 0.067869 0.573058
O O4 0.430464 0.963149 0.764634
O O5 0.611261 0.850404 0.653470
O O6 0.656605 0.927400 0.856123
O O7 0.579477 0.844326 0.925617
O O8 0.934010 0.250000 0.630760
O O9 0.850033 0.170900 0.630370
O O10 0.844003 0.832005 0.105083
O O11 0.951247 0.811084 0.049064
O O12 0.224708 0.500000 0.500000
O O13 0.250000 0.446696 0.250000
O O14 0.189053 0.556222 0.267748
O O15 0.750000 0.335288 0.750000
#
# Coordination Sequence:
#
# PCOD9540064 Si02
#       7
#    16  16  16  16  16  16   4
#     4  11  24  43  69  97 127 177 240 303 345 416
#     4  12  24  43  66 101 140 178 236 289 362 418
#     4  11  25  44  66  95 139 185 227 286 354 435
#     4  11  26  42  74  96 143 186 229 292 352 432
#     4  11  22  38  69 104 146 183 233 296 359 425
#     4  10  23  43  71 107 137 181 236 289 351 421
#     4  12  28  52  64 106 150 184 246 292 380 428
#
# _framework density 22.472013
#
# number of rings (size 3 to 8) (size 9 to 14) (size 15 to 20)
#    0.000    0.960    5.600    0.960   11.200    2.560 
#    0.000    0.000    0.000    1.440    0.000    0.000 
#    0.000    0.000    0.000    0.000    0.000    0.000 
#
# Total GULP energy -278624.463231 kJ/mol
# GULP energy per Si atom -5572.489265 kJ/mol
# Density = 2.242087 g / cm^3
# Si number density = 22.472013 Si / 1000 Ang^3
#
#
#
# Elastic Constant Matrix: (Units=GPa)
#
#
# Indices 1 2 3 4 5 6 
#
# 1 99.8064 8.1867 7.7217 0.0000 0.0000 0.0000
# 2 8.1867 101.5816 16.0353 0.0000 0.0000 0.0000
# 3 7.7217 16.0353 147.5001 0.0000 0.0000 0.0000
# 4 0.0000 0.0000 0.0000 5.4295 0.0000 0.0000
# 5 0.0000 0.0000 0.0000 0.0000 0.1433 0.0000
# 6 0.0000 0.0000 0.0000 0.0000 0.0000 -48.6444
#
#
#
# Elastic Compliance Matrix: (Units=1/GPa)
#
#
# Indices 1 2 3 4 5 6 
#
# 1 0.010115 -0.000744 -0.000449 0.000000 0.000000 0.000000
# 2 -0.000744 0.010071 -0.001056 0.000000 0.000000 0.000000
# 3 -0.000449 -0.001056 0.006918 0.000000 0.000000 0.000000
# 4 0.000000 0.000000 0.000000 0.184179 0.000000 0.000000
# 5 0.000000 0.000000 0.000000 0.000000 6.978536 0.000000
# 6 0.000000 0.000000 0.000000 0.000000 0.000000 -0.020557
#
#
# Mechanical properties :
#
#
# Convention : Reuss Voigt Hill
#
# Bulk Modulus (GPa) = 44.23544 45.86393 45.04969
# Shear Modulus (GPa) = 0.69625 12.51530 6.60578
#
# Velocity S-wave (km/s) = 0.55723 2.36249 1.71637
# Velocity P-wave (km/s) = 4.48792 5.28162 4.90086
#
# Compressibility (1/GPa) = 0.02260631
#
# Stress axis : x y z
#
# Youngs Moduli (GPa) = 98.86145 99.29525 144.55192
#
# Poissons Ratio (x) = 0.07391 0.06485
# Poissons Ratio (y) = 0.07359 0.15263
# Poissons Ratio (z) = 0.04435 0.10484
#
# Static dielectric constant tensor:
#      x y z
#    x 1.859640 0.000000 0.000000 
#    y 0.000000 1.878720 0.000000 
#    z 0.000000 0.000000 1.838690 
# 
# From -- ./inp_files/15221.got.cif
#   From: 2010.05.17/outbox.cif.g08.bks.cpg/sg74_8_cif.got.tgz:15221.got - 2010.06.03 17:57:02.
