data_PCOD9540443
_publ_section_title
;
Structure prediction by ZEFSAII (Michael W. Deem and Ramdas Pophale) SiO2 
 PCOD9540443
Probable space group: I M M A
;
_chemical_formula_sum "Si O2"
_cell_formula_units_Z 112
_cell_length_a 25.671272
_cell_length_b 15.147320
_cell_length_c 14.645957
_cell_angle_alpha 90.000000
_cell_angle_beta 90.000000
_cell_angle_gamma 90.000000
_cell_volume 5695.094612
_symmetry_space_group_name_H-M "I M M A"
_symmetry_group_IT_number 74
_symmetry_cell_setting 'orthorhombic'
loop_
_space_group_symop_operation_xyz
x,y,z
-x,1/2-y,z
x,-y,-z
-x,1/2+y,-z
-x,-y,-z
x,1/2+y,-z
-x,y,z
x,1/2-y,z
1/2+x,1/2+y,1/2+z
1/2-x,-y,1/2+z
1/2+x,1/2-y,1/2-z
1/2-x,y,1/2-z
1/2-x,1/2-y,1/2-z
1/2+x,y,1/2-z
1/2-x,1/2+y,1/2+z
1/2+x,-y,1/2+z
loop_
_atom_site_type_symbol
_atom_site_label
_atom_site_fract_x
_atom_site_fract_y
_atom_site_fract_z
Si Si1 0.062812 0.492575 0.234762
Si Si2 0.098002 0.647106 0.107266
Si Si3 0.731386 0.351162 0.150335
Si Si4 0.859368 0.990184 0.607750
Si Si5 0.792465 0.395159 0.983647
Si Si6 0.210407 0.148194 0.667600
Si Si7 0.438777 0.848628 0.590527
O O1 0.081017 0.584468 0.189150
O O2 0.090065 0.472009 0.330843
O O3 0.082254 0.419072 0.161757
O O4 0.000000 0.491977 0.241116
O O5 0.089277 0.750000 0.128216
O O6 0.157165 0.633454 0.073153
O O7 0.067110 0.623128 0.014499
O O8 0.712992 0.250000 0.153940
O O9 0.750000 0.379492 0.250000
O O10 0.685591 0.416037 0.118005
O O11 0.781023 0.356051 0.082957
O O12 0.869966 0.000000 0.500000
O O13 0.835405 0.078937 0.653096
O O14 0.744074 0.362970 0.923776
O O15 0.793346 0.500000 0.000000
O O16 0.193808 0.250000 0.680395
O O17 0.250000 0.125478 0.750000
O O18 0.500000 0.842498 0.609582
O O19 0.415703 0.750000 0.598757
#
# Coordination Sequence:
#
# PCOD9540443 Si02
#       7
#    16  16  16  16  16  16  16
#     4  11  25  43  65  91 124 167 219 275 326 379
#     4  11  23  37  62  99 134 169 205 252 318 390
#     4  11  24  40  62  93 129 168 206 252 313 379
#     4  12  25  43  64  88 120 167 218 270 321 368
#     4  12  22  37  60  92 132 168 200 249 303 377
#     4  11  22  38  61  88 122 163 208 255 311 378
#     4   9  19  38  63  92 126 161 202 256 320 386
#
# _framework density 19.666046999999999
#
# number of rings (size 3 to 8) (size 9 to 14) (size 15 to 20)
#    0.000    1.000    2.857    4.286    4.000    4.571 
#    0.000    0.000    0.000    0.000    0.000    4.000 
#    0.000    0.000    0.000    0.000    0.000    0.000 
#
# Total GULP energy -312895.062814 kJ/mol
# GULP energy per Si atom -5587.411836 kJ/mol
# Density = 1.962129 g / cm^3
# Si number density = 19.666047 Si / 1000 Ang^3
#
#
#
# Elastic Constant Matrix: (Units=GPa)
#
#
# Indices 1 2 3 4 5 6 
#
# 1 66.4723 17.5211 25.4345 0.0000 0.0000 0.0000
# 2 17.5211 82.1285 35.0009 0.0000 0.0000 0.0000
# 3 25.4345 35.0009 119.9143 0.0000 0.0000 0.0000
# 4 0.0000 0.0000 0.0000 138.1981 0.0000 0.0000
# 5 0.0000 0.0000 0.0000 0.0000 36.0007 0.0000
# 6 0.0000 0.0000 0.0000 0.0000 0.0000 14.3294
#
#
#
# Elastic Compliance Matrix: (Units=1/GPa)
#
#
# Indices 1 2 3 4 5 6 
#
# 1 0.016762 -0.002354 -0.002868 0.000000 0.000000 0.000000
# 2 -0.002354 0.014236 -0.003656 0.000000 0.000000 0.000000
# 3 -0.002868 -0.003656 0.010015 0.000000 0.000000 0.000000
# 4 0.000000 0.000000 0.000000 0.007236 0.000000 0.000000
# 5 0.000000 0.000000 0.000000 0.000000 0.027777 0.000000
# 6 0.000000 0.000000 0.000000 0.000000 0.000000 0.069787
#
#
# Mechanical properties :
#
#
# Convention : Reuss Voigt Hill
#
# Bulk Modulus (GPa) = 42.99794 47.15868 45.07831
# Shear Modulus (GPa) = 29.18501 50.40955 39.79728
#
# Velocity S-wave (km/s) = 3.85649 5.06838 4.50338
# Velocity P-wave (km/s) = 6.46077 7.63433 7.07194
#
# Compressibility (1/GPa) = 0.02325693
#
# Stress axis : x y z
#
# Youngs Moduli (GPa) = 59.65976 70.24313 99.85189
#
# Poissons Ratio (x) = 0.16532 0.28641
# Poissons Ratio (y) = 0.14041 0.36507
# Poissons Ratio (z) = 0.17112 0.25682
#
# Static dielectric constant tensor:
#      x y z
#    x 1.724620 0.000000 0.000000 
#    y 0.000000 1.722210 0.000000 
#    z 0.000000 0.000000 1.697300 
# 
# From -- ./inp_files/36519.got.cif
#   From: 2010.05.17/outbox.cif.g08.bks.cpg/sg74_19_cif.got.tgz:36519.got - 2010.06.03 17:57:02.
