data_PCOD9540143
_publ_section_title
;
Structure prediction by ZEFSAII (Michael W. Deem and Ramdas Pophale) SiO2 
 PCOD9540143
Probable space group: I M M A
;
_chemical_formula_sum "Si O2"
_cell_formula_units_Z 64
_cell_length_a 16.549026
_cell_length_b 14.641861
_cell_length_c 12.629370
_cell_angle_alpha 90.000000
_cell_angle_beta 90.000000
_cell_angle_gamma 90.000000
_cell_volume 3060.204185
_symmetry_space_group_name_H-M "I M M A"
_symmetry_group_IT_number 74
_symmetry_cell_setting 'orthorhombic'
loop_
_space_group_symop_operation_xyz
x,y,z
-x,1/2-y,z
x,-y,-z
-x,1/2+y,-z
-x,-y,-z
x,1/2+y,-z
-x,y,z
x,1/2-y,z
1/2+x,1/2+y,1/2+z
1/2-x,-y,1/2+z
1/2+x,1/2-y,1/2-z
1/2-x,y,1/2-z
1/2-x,1/2-y,1/2-z
1/2+x,y,1/2-z
1/2-x,1/2+y,1/2+z
1/2+x,-y,1/2+z
loop_
_atom_site_type_symbol
_atom_site_label
_atom_site_fract_x
_atom_site_fract_y
_atom_site_fract_z
Si Si1 0.592273 0.250000 0.378091
Si Si2 0.000000 0.142561 0.810225
Si Si3 0.827824 0.390857 0.514032
Si Si4 0.000000 0.085594 0.583714
Si Si5 0.151238 0.895609 0.036946
Si Si6 0.674120 0.250000 0.171876
O O1 0.500000 0.250000 0.412021
O O2 0.633721 0.336388 0.432443
O O3 0.599862 0.250000 0.252536
O O4 0.000000 0.073438 0.710456
O O5 0.080578 0.125388 0.879798
O O6 0.000000 0.250000 0.777960
O O7 0.828709 0.500000 0.500000
O O8 0.914218 0.365337 0.563491
O O9 0.742817 0.371402 0.572761
O O10 0.824514 0.337805 0.403212
O O11 0.000000 0.000000 0.500000
O O12 0.148096 0.000000 0.000000
O O13 0.750000 0.250000 0.250000
#
# Coordination Sequence:
#
# PCOD9540143 Si02
#       6
#     8   8  16   8  16   8
#     4  12  24  42  66 108 141 173 227 286 338 412
#     4  12  25  43  69  99 136 184 224 273 350 403
#     4  10  24  46  67  98 141 176 226 285 333 405
#     4  10  26  49  65  94 135 177 229 282 332 414
#     4  11  22  42  71 102 139 174 225 284 335 404
#     4  12  24  42  74 101 134 184 228 279 352 409
#
# _framework density 20.913637000000001
#
# number of rings (size 3 to 8) (size 9 to 14) (size 15 to 20)
#    0.000    1.000    5.000    0.375    3.500    5.000 
#    0.000    1.250    0.000    0.000    0.000    0.000 
#    0.000    0.000    0.000    0.000    0.000    0.000 
#
# Total GULP energy -178511.073504 kJ/mol
# GULP energy per Si atom -5578.471047 kJ/mol
# Density = 2.086604 g / cm^3
# Si number density = 20.913637 Si / 1000 Ang^3
#
#
#
# Elastic Constant Matrix: (Units=GPa)
#
#
# Indices 1 2 3 4 5 6 
#
# 1 219.6421 12.9535 50.1171 0.0000 0.0000 0.0000
# 2 12.9535 131.6247 37.2387 0.0000 0.0000 0.0000
# 3 50.1171 37.2387 116.7199 0.0000 0.0000 0.0000
# 4 0.0000 0.0000 0.0000 23.1719 0.0000 0.0000
# 5 0.0000 0.0000 0.0000 0.0000 36.6684 0.0000
# 6 0.0000 0.0000 0.0000 0.0000 0.0000 18.4006
#
#
#
# Elastic Compliance Matrix: (Units=1/GPa)
#
#
# Indices 1 2 3 4 5 6 
#
# 1 0.005049 0.000128 -0.002209 0.000000 0.000000 0.000000
# 2 0.000128 0.008354 -0.002720 0.000000 0.000000 0.000000
# 3 -0.002209 -0.002720 0.010384 0.000000 0.000000 0.000000
# 4 0.000000 0.000000 0.000000 0.043156 0.000000 0.000000
# 5 0.000000 0.000000 0.000000 0.000000 0.027271 0.000000
# 6 0.000000 0.000000 0.000000 0.000000 0.000000 0.054346
#
#
# Mechanical properties :
#
#
# Convention : Reuss Voigt Hill
#
# Bulk Modulus (GPa) = 70.49668 74.28948 72.39308
# Shear Modulus (GPa) = 30.69521 40.16000 35.42760
#
# Velocity S-wave (km/s) = 3.83523 4.38685 4.12028
# Velocity P-wave (km/s) = 7.30709 7.82678 7.57140
#
# Compressibility (1/GPa) = 0.01418507
#
# Stress axis : x y z
#
# Youngs Moduli (GPa) = 198.04595 119.69745 96.30288
#
# Poissons Ratio (x) = -0.01532 0.21273
# Poissons Ratio (y) = -0.02535 0.26198
# Poissons Ratio (z) = 0.43747 0.32562
#
# Static dielectric constant tensor:
#      x y z
#    x 1.824500 0.000000 0.000000 
#    y 0.000000 1.731670 0.000000 
#    z 0.000000 0.000000 1.717280 
# 
# From -- ./inp_files/21663.got.cif
#   From: 2010.05.17/outbox.cif.g08.bks.cpg/sg74_11_cif.got.tgz:21663.got - 2010.06.03 17:57:02.
