data_PCOD9540539
_publ_section_title
;
Structure prediction by ZEFSAII (Michael W. Deem and Ramdas Pophale) SiO2 
 PCOD9540539
Probable space group: I M M A
;
_chemical_formula_sum "Si O2"
_cell_formula_units_Z 60
_cell_length_a 21.075519
_cell_length_b 12.130478
_cell_length_c 12.357504
_cell_angle_alpha 90.000000
_cell_angle_beta 90.000000
_cell_angle_gamma 90.000000
_cell_volume 3159.271520
_symmetry_space_group_name_H-M "I M M A"
_symmetry_group_IT_number 74
_symmetry_cell_setting 'orthorhombic'
loop_
_space_group_symop_operation_xyz
x,y,z
-x,1/2-y,z
x,-y,-z
-x,1/2+y,-z
-x,-y,-z
x,1/2+y,-z
-x,y,z
x,1/2-y,z
1/2+x,1/2+y,1/2+z
1/2-x,-y,1/2+z
1/2+x,1/2-y,1/2-z
1/2-x,y,1/2-z
1/2-x,1/2-y,1/2-z
1/2+x,y,1/2-z
1/2-x,1/2+y,1/2+z
1/2+x,-y,1/2+z
loop_
_atom_site_type_symbol
_atom_site_label
_atom_site_fract_x
_atom_site_fract_y
_atom_site_fract_z
Si Si1 0.159967 0.000000 0.500000
Si Si2 0.408085 0.538987 0.380900
Si Si3 0.731705 0.873408 0.375627
Si Si4 0.500000 0.750000 0.348852
Si Si5 0.926290 0.620892 0.677915
O O1 0.207629 0.918510 0.438475
O O2 0.116999 0.936002 0.587001
O O3 0.428649 0.500000 0.500000
O O4 0.332602 0.558367 0.386444
O O5 0.444799 0.651436 0.350878
O O6 0.420400 0.446761 0.289661
O O7 0.717788 0.750000 0.413659
O O8 0.750000 0.872148 0.250000
O O9 0.909706 0.750000 0.692409
O O10 0.000000 0.615414 0.643671
#
# Coordination Sequence:
#
# PCOD9540539 Si02
#       5
#     8  16  16   4  16
#     4  12  23  46  70 101 134 184 228 284 346 415
#     4  12  25  43  70 102 136 182 233 285 348 411
#     4  11  23  41  66  96 135 177 226 281 338 408
#     4  12  26  44  68 102 136 182 236 282 338 414
#     4  11  26  46  69 101 140 181 229 286 346 411
#
# _framework density 18.991720000000001
#
# number of rings (size 3 to 8) (size 9 to 14) (size 15 to 20)
#    0.000    0.533    6.667    1.600    1.867    0.000 
#    2.400    1.333    0.000    0.000    0.000    0.000 
#    0.000    0.000    0.000    0.000    0.000    0.000 
#
# Total GULP energy -167078.742332 kJ/mol
# GULP energy per Si atom -5569.291411 kJ/mol
# Density = 1.894849 g / cm^3
# Si number density = 18.991720 Si / 1000 Ang^3
#
#
#
# Elastic Constant Matrix: (Units=GPa)
#
#
# Indices 1 2 3 4 5 6 
#
# 1 138.5753 52.1458 47.0967 0.0000 0.0000 0.0000
# 2 52.1458 123.9534 54.2669 0.0000 0.0000 0.0000
# 3 47.0967 54.2669 109.7886 0.0000 0.0000 0.0000
# 4 0.0000 0.0000 0.0000 -0.7621 0.0000 0.0000
# 5 0.0000 0.0000 0.0000 0.0000 24.1689 0.0000
# 6 0.0000 0.0000 0.0000 0.0000 0.0000 -39.4500
#
#
#
# Elastic Compliance Matrix: (Units=1/GPa)
#
#
# Indices 1 2 3 4 5 6 
#
# 1 0.009108 -0.002707 -0.002569 0.000000 0.000000 0.000000
# 2 -0.002707 0.011100 -0.004325 0.000000 0.000000 0.000000
# 3 -0.002569 -0.004325 0.012348 0.000000 0.000000 0.000000
# 4 0.000000 0.000000 0.000000 -1.312242 0.000000 0.000000
# 5 0.000000 0.000000 0.000000 0.000000 0.041375 0.000000
# 6 0.000000 0.000000 0.000000 0.000000 0.000000 -0.025349
#
#
# Mechanical properties :
#
#
# Convention : Reuss Voigt Hill
#
# Bulk Modulus (GPa) = 74.88568 75.48179 75.18374
# Shear Modulus (GPa) = -4.03224 11.37856 3.67316
#
# Velocity S-wave (km/s) = -1.45869 2.45037 1.39222
# Velocity P-wave (km/s) = 6.05634 6.91640 6.50061
#
# Compressibility (1/GPa) = 0.01335369
#
# Stress axis : x y z
#
# Youngs Moduli (GPa) = 109.79294 90.09049 80.98154
#
# Poissons Ratio (x) = 0.24386 0.20806
# Poissons Ratio (y) = 0.29720 0.35027
# Poissons Ratio (z) = 0.28208 0.38967
#
# Static dielectric constant tensor:
#      x y z
#    x 1.649730 0.000000 0.000000 
#    y 0.000000 1.653550 0.000000 
#    z 0.000000 0.000000 1.645870 
# 
# From -- ./inp_files/18449.got.cif
#   From: 2010.05.17/outbox.cif.g08.bks.cpg/sg74_10_cif.got.tgz:18449.got - 2010.06.03 17:57:02.
