data_PCOD9540471
_publ_section_title
;
Structure prediction by ZEFSAII (Michael W. Deem and Ramdas Pophale) SiO2 
 PCOD9540471
Probable space group: I M M A
;
_chemical_formula_sum "Si O2"
_cell_formula_units_Z 64
_cell_length_a 8.827224
_cell_length_b 12.054489
_cell_length_c 31.155036
_cell_angle_alpha 90.000000
_cell_angle_beta 90.000000
_cell_angle_gamma 90.000000
_cell_volume 3315.134933
_symmetry_space_group_name_H-M "I M M A"
_symmetry_group_IT_number 74
_symmetry_cell_setting 'orthorhombic'
loop_
_space_group_symop_operation_xyz
x,y,z
-x,1/2-y,z
x,-y,-z
-x,1/2+y,-z
-x,-y,-z
x,1/2+y,-z
-x,y,z
x,1/2-y,z
1/2+x,1/2+y,1/2+z
1/2-x,-y,1/2+z
1/2+x,1/2-y,1/2-z
1/2-x,y,1/2-z
1/2-x,1/2-y,1/2-z
1/2+x,y,1/2-z
1/2-x,1/2+y,1/2+z
1/2+x,-y,1/2+z
loop_
_atom_site_type_symbol
_atom_site_label
_atom_site_fract_x
_atom_site_fract_y
_atom_site_fract_z
Si Si1 0.320389 0.618185 0.625632
Si Si2 0.823279 0.750000 0.184136
Si Si3 0.180807 0.986500 0.294491
Si Si4 0.823536 0.750000 0.080773
Si Si5 0.318774 0.020676 0.950234
O O1 0.500000 0.594920 0.628184
O O2 0.296896 0.750000 0.627620
O O3 0.239089 0.556976 0.665094
O O4 0.256438 0.568314 0.581465
O O5 0.742125 0.638755 0.199787
O O6 0.817529 0.750000 0.132415
O O7 0.000000 0.750000 0.197442
O O8 0.250000 0.030750 0.250000
O O9 0.000000 0.986743 0.292848
O O10 0.742299 0.640528 0.063620
O O11 0.000000 0.750000 0.068068
O O12 0.500000 0.016350 0.945104
O O13 0.282014 0.000000 0.000000
#
# Coordination Sequence:
#
# PCOD9540471 Si02
#       5
#    16   8  16   8  16
#     4  11  25  45  67  94 128 168 215 266 318 379
#     4  11  22  40  65  97 133 167 210 263 319 379
#     4  12  25  42  67  96 129 169 212 262 319 380
#     4  11  23  40  68  97 130 171 213 264 319 378
#     4  11  25  43  66  97 132 170 214 265 319 380
#
# _framework density 19.305396999999999
#
# number of rings (size 3 to 8) (size 9 to 14) (size 15 to 20)
#    0.000    0.750    2.500    4.875    1.750    5.500 
#    0.000    0.000    0.000    0.000    0.000    0.000 
#    0.000    0.000    0.000    0.000    0.000    0.000 
#
# Total GULP energy -179142.372763 kJ/mol
# GULP energy per Si atom -5598.199149 kJ/mol
# Density = 1.926146 g / cm^3
# Si number density = 19.305397 Si / 1000 Ang^3
#
#
#
# Elastic Constant Matrix: (Units=GPa)
#
#
# Indices 1 2 3 4 5 6 
#
# 1 163.0432 75.6587 94.5349 0.0000 0.0000 0.0000
# 2 75.6587 90.2333 60.9063 0.0000 0.0000 0.0000
# 3 94.5349 60.9063 153.2899 0.0000 0.0000 0.0000
# 4 0.0000 0.0000 0.0000 23.5910 0.0000 0.0000
# 5 0.0000 0.0000 0.0000 0.0000 37.3511 0.0000
# 6 0.0000 0.0000 0.0000 0.0000 0.0000 -102.0418
#
#
#
# Elastic Compliance Matrix: (Units=1/GPa)
#
#
# Indices 1 2 3 4 5 6 
#
# 1 0.012083 -0.006971 -0.004682 0.000000 0.000000 0.000000
# 2 -0.006971 0.019166 -0.003316 0.000000 0.000000 0.000000
# 3 -0.004682 -0.003316 0.010728 0.000000 0.000000 0.000000
# 4 0.000000 0.000000 0.000000 0.042389 0.000000 0.000000
# 5 0.000000 0.000000 0.000000 0.000000 0.026773 0.000000
# 6 0.000000 0.000000 0.000000 0.000000 0.000000 -0.009800
#
#
# Mechanical properties :
#
#
# Convention : Reuss Voigt Hill
#
# Bulk Modulus (GPa) = 83.06106 96.52959 89.79532
# Shear Modulus (GPa) = 36.95784 3.47784 20.21784
#
# Velocity S-wave (km/s) = 4.38011 1.34365 3.23966
# Velocity P-wave (km/s) = 8.28846 7.24687 7.78511
#
# Compressibility (1/GPa) = 0.01203934
#
# Stress axis : x y z
#
# Youngs Moduli (GPa) = 82.76299 52.17662 93.21090
#
# Poissons Ratio (x) = 0.36372 0.43639
# Poissons Ratio (y) = 0.57694 0.30909
# Poissons Ratio (z) = 0.38747 0.17302
#
# Static dielectric constant tensor:
#      x y z
#    x 1.646820 0.000000 0.000000 
#    y 0.000000 1.634840 0.000000 
#    z 0.000000 0.000000 1.663670 
# 
# From -- ./inp_files/69741.got.cif
#   From: 2010.05.17/outbox.cif.g08.bks.cpg/sg74_35_cif.got.tgz:69741.got - 2010.06.03 17:57:02.
