data_PCOD9540495
_publ_section_title
;
Structure prediction by ZEFSAII (Michael W. Deem and Ramdas Pophale) SiO2 
 PCOD9540495
Probable space group: I M M A
;
_chemical_formula_sum "Si O2"
_cell_formula_units_Z 80
_cell_length_a 27.443825
_cell_length_b 25.590736
_cell_length_c 5.298921
_cell_angle_alpha 90.000000
_cell_angle_beta 90.000000
_cell_angle_gamma 90.000000
_cell_volume 3721.472916
_symmetry_space_group_name_H-M "I M M A"
_symmetry_group_IT_number 74
_symmetry_cell_setting 'orthorhombic'
loop_
_space_group_symop_operation_xyz
x,y,z
-x,1/2-y,z
x,-y,-z
-x,1/2+y,-z
-x,-y,-z
x,1/2+y,-z
-x,y,z
x,1/2-y,z
1/2+x,1/2+y,1/2+z
1/2-x,-y,1/2+z
1/2+x,1/2-y,1/2-z
1/2-x,y,1/2-z
1/2-x,1/2-y,1/2-z
1/2+x,y,1/2-z
1/2-x,1/2+y,1/2+z
1/2+x,-y,1/2+z
loop_
_atom_site_type_symbol
_atom_site_label
_atom_site_fract_x
_atom_site_fract_y
_atom_site_fract_z
Si Si1 0.584319 0.692840 0.850381
Si Si2 0.554617 0.416392 0.343097
Si Si3 0.893444 0.000000 0.500000
Si Si4 0.219055 0.500000 0.000000
Si Si5 0.649391 0.306074 0.652144
Si Si6 0.651476 0.917474 0.347988
O O1 0.559144 0.750000 0.821552
O O2 0.556469 0.638121 0.814412
O O3 0.624842 0.692470 0.625851
O O4 0.608946 0.693164 0.125396
O O5 0.500000 0.423314 0.441349
O O6 0.572014 0.467360 0.188743
O O7 0.596680 0.409525 0.549869
O O8 0.858435 0.043925 0.617896
O O9 0.250000 0.509460 0.250000
O O10 0.184044 0.549664 0.960557
O O11 0.675400 0.250000 0.675140
O O12 0.675336 0.361312 0.694732
#
# Coordination Sequence:
#
# PCOD9540495 Si02
#       6
#    16  16   8   8  16  16
#     4   9  18  34  54  83 120 165 216 255 291 350
#     4  11  23  36  57  88 128 173 209 254 311 369
#     4  12  20  38  57  86 124 169 202 261 301 374
#     4  12  27  44  70  96 123 163 210 263 328 390
#     4   9  18  35  62  88 117 162 205 252 312 363
#     4  11  23  41  64  90 131 161 214 263 315 377
#
# _framework density 21.496863999999999
#
# number of rings (size 3 to 8) (size 9 to 14) (size 15 to 20)
#    0.000    1.600    4.000    0.900    0.000    2.800 
#    0.000    0.000    0.000    4.800    0.000    0.000 
#    0.000    0.000    0.000    0.000    0.000    0.000 
#
# Total GULP energy -222889.634913 kJ/mol
# GULP energy per Si atom -5572.240873 kJ/mol
# Density = 2.144794 g / cm^3
# Si number density = 21.496864 Si / 1000 Ang^3
#
#
#
# Elastic Constant Matrix: (Units=GPa)
#
#
# Indices 1 2 3 4 5 6 
#
# 1 45.0842 13.7374 8.8210 0.0000 0.0000 0.0000
# 2 13.7374 204.0216 9.8375 0.0000 0.0000 0.0000
# 3 8.8210 9.8375 67.6582 0.0000 0.0000 0.0000
# 4 0.0000 0.0000 0.0000 33.2860 0.0000 0.0000
# 5 0.0000 0.0000 0.0000 0.0000 17.8901 0.0000
# 6 0.0000 0.0000 0.0000 0.0000 0.0000 -9.0942
#
#
#
# Elastic Compliance Matrix: (Units=1/GPa)
#
#
# Indices 1 2 3 4 5 6 
#
# 1 0.023165 -0.001424 -0.002813 0.000000 0.000000 0.000000
# 2 -0.001424 0.005024 -0.000545 0.000000 0.000000 0.000000
# 3 -0.002813 -0.000545 0.015226 0.000000 0.000000 0.000000
# 4 0.000000 0.000000 0.000000 0.030043 0.000000 0.000000
# 5 0.000000 0.000000 0.000000 0.000000 0.055897 0.000000
# 6 0.000000 0.000000 0.000000 0.000000 0.000000 -0.109961
#
#
# Mechanical properties :
#
#
# Convention : Reuss Voigt Hill
#
# Bulk Modulus (GPa) = 29.54137 42.39508 35.96823
# Shear Modulus (GPa) = 124.25110 27.37427 75.81269
#
# Velocity S-wave (km/s) = 7.61086 3.57236 5.94503
# Velocity P-wave (km/s) = 9.53968 6.06465 7.99329
#
# Compressibility (1/GPa) = 0.03385083
#
# Stress axis : x y z
#
# Youngs Moduli (GPa) = 43.16847 199.06039 65.67654
#
# Poissons Ratio (x) = 0.28349 0.18475
# Poissons Ratio (y) = 0.06148 0.03578
# Poissons Ratio (z) = 0.12144 0.10844
#
# Static dielectric constant tensor:
#      x y z
#    x 1.757680 0.000000 0.000000 
#    y 0.000000 1.905610 0.000000 
#    z 0.000000 0.000000 1.815130 
# 
# From -- ./inp_files/5207.got.cif
#   From: 2010.05.17/outbox.cif.g08.bks.cpg/sg74_3_cif.got.tgz:5207.got - 2010.06.03 17:57:02.
