data_PCOD9540402
_publ_section_title
;
Structure prediction by ZEFSAII (Michael W. Deem and Ramdas Pophale) SiO2 
 PCOD9540402
Probable space group: I M M A
;
_chemical_formula_sum "Si O2"
_cell_formula_units_Z 112
_cell_length_a 24.878552
_cell_length_b 14.186468
_cell_length_c 17.283451
_cell_angle_alpha 90.000000
_cell_angle_beta 90.000000
_cell_angle_gamma 90.000000
_cell_volume 6100.000142
_symmetry_space_group_name_H-M "I M M A"
_symmetry_group_IT_number 74
_symmetry_cell_setting 'orthorhombic'
loop_
_space_group_symop_operation_xyz
x,y,z
-x,1/2-y,z
x,-y,-z
-x,1/2+y,-z
-x,-y,-z
x,1/2+y,-z
-x,y,z
x,1/2-y,z
1/2+x,1/2+y,1/2+z
1/2-x,-y,1/2+z
1/2+x,1/2-y,1/2-z
1/2-x,y,1/2-z
1/2-x,1/2-y,1/2-z
1/2+x,y,1/2-z
1/2-x,1/2+y,1/2+z
1/2+x,-y,1/2+z
loop_
_atom_site_type_symbol
_atom_site_label
_atom_site_fract_x
_atom_site_fract_y
_atom_site_fract_z
Si Si1 0.837870 0.513911 0.909503
Si Si2 0.246610 0.640572 0.656959
Si Si3 0.708758 0.855199 0.312642
Si Si4 0.152581 0.013515 0.412403
Si Si5 0.608921 0.643893 0.198408
Si Si6 0.063354 0.140795 0.352099
Si Si7 0.439008 0.516485 0.705164
O O1 0.801055 0.602197 0.883543
O O2 0.802392 0.424255 0.882260
O O3 0.893239 0.514723 0.860274
O O4 0.848087 0.500000 0.000000
O O5 0.236777 0.750000 0.635765
O O6 0.250000 0.635748 0.750000
O O7 0.198213 0.572141 0.631882
O O8 0.727315 0.750000 0.334966
O O9 0.750000 0.895703 0.250000
O O10 0.653985 0.847378 0.264725
O O11 0.099231 0.077653 0.407922
O O12 0.170077 0.000000 0.500000
O O13 0.136632 0.915827 0.370299
O O14 0.591766 0.750000 0.176848
O O15 0.565716 0.576103 0.239708
O O16 0.078072 0.250000 0.357173
O O17 0.000000 0.130482 0.368058
O O18 0.072404 0.101539 0.265139
O O19 0.500000 0.524270 0.675483
#
# Coordination Sequence:
#
# PCOD9540402 Si02
#       7
#    16  16  16  16  16  16  16
#     4  11  22  35  53  81 115 143 176 227 287 339
#     4  11  23  39  59  80 106 145 189 231 274 326
#     4   9  17  32  54  74  97 136 182 222 262 315
#     4  11  22  35  54  83 119 148 178 222 279 339
#     4   9  18  32  52  77 104 139 183 225 263 310
#     4   9  18  35  59  83 109 147 192 232 269 316
#     4   9  19  36  57  80 108 145 191 234 271 324
#
# _framework density 18.360655999999999
#
# number of rings (size 3 to 8) (size 9 to 14) (size 15 to 20)
#    0.000    2.143    0.000    4.714    0.000    4.286 
#    0.000    1.429    0.000    0.000    0.000    4.000 
#    0.000    0.000    0.000    0.000    0.000    0.000 
#
# Total GULP energy -312302.132748 kJ/mol
# GULP energy per Si atom -5576.823799 kJ/mol
# Density = 1.831887 g / cm^3
# Si number density = 18.360656 Si / 1000 Ang^3
#
#
#
# Elastic Constant Matrix: (Units=GPa)
#
#
# Indices 1 2 3 4 5 6 
#
# 1 46.2883 8.8490 6.7045 0.0000 0.0000 0.0000
# 2 8.8490 109.3940 23.6515 0.0000 0.0000 0.0000
# 3 6.7045 23.6515 59.4912 0.0000 0.0000 0.0000
# 4 0.0000 0.0000 0.0000 1.0275 0.0000 0.0000
# 5 0.0000 0.0000 0.0000 0.0000 19.1913 0.0000
# 6 0.0000 0.0000 0.0000 0.0000 0.0000 19.3977
#
#
#
# Elastic Compliance Matrix: (Units=1/GPa)
#
#
# Indices 1 2 3 4 5 6 
#
# 1 0.022148 -0.001370 -0.001952 0.000000 0.000000 0.000000
# 2 -0.001370 0.010086 -0.003855 0.000000 0.000000 0.000000
# 3 -0.001952 -0.003855 0.018562 0.000000 0.000000 0.000000
# 4 0.000000 0.000000 0.000000 0.973211 0.000000 0.000000
# 5 0.000000 0.000000 0.000000 0.000000 0.052107 0.000000
# 6 0.000000 0.000000 0.000000 0.000000 0.000000 0.051552
#
#
# Mechanical properties :
#
#
# Convention : Reuss Voigt Hill
#
# Bulk Modulus (GPa) = 27.44031 32.62038 30.03034
# Shear Modulus (GPa) = 4.33213 19.65454 11.99333
#
# Velocity S-wave (km/s) = 1.53772 3.27535 2.55857
# Velocity P-wave (km/s) = 4.25798 5.66648 5.01195
#
# Compressibility (1/GPa) = 0.03644274
#
# Stress axis : x y z
#
# Youngs Moduli (GPa) = 45.15031 99.15133 53.87395
#
# Poissons Ratio (x) = 0.13580 0.10514
# Poissons Ratio (y) = 0.06184 0.20770
# Poissons Ratio (z) = 0.08811 0.38226
#
# Static dielectric constant tensor:
#      x y z
#    x 1.644060 0.000000 0.000000 
#    y 0.000000 1.675750 0.000000 
#    z 0.000000 0.000000 1.647270 
# 
# From -- ./inp_files/36503.got.cif
#   From: 2010.05.17/outbox.cif.g08.bks.cpg/sg74_19_cif.got.tgz:36503.got - 2010.06.03 17:57:02.
