data_PCOD9540439
_publ_section_title
;
Structure prediction by ZEFSAII (Michael W. Deem and Ramdas Pophale) SiO2 
 PCOD9540439
Probable space group: I M M A
;
_chemical_formula_sum "Si O2"
_cell_formula_units_Z 48
_cell_length_a 8.556610
_cell_length_b 13.172812
_cell_length_c 22.226725
_cell_angle_alpha 90.000000
_cell_angle_beta 90.000000
_cell_angle_gamma 90.000000
_cell_volume 2505.276749
_symmetry_space_group_name_H-M "I M M A"
_symmetry_group_IT_number 74
_symmetry_cell_setting 'orthorhombic'
loop_
_space_group_symop_operation_xyz
x,y,z
-x,1/2-y,z
x,-y,-z
-x,1/2+y,-z
-x,-y,-z
x,1/2+y,-z
-x,y,z
x,1/2-y,z
1/2+x,1/2+y,1/2+z
1/2-x,-y,1/2+z
1/2+x,1/2-y,1/2-z
1/2-x,y,1/2-z
1/2-x,1/2-y,1/2-z
1/2+x,y,1/2-z
1/2-x,1/2+y,1/2+z
1/2+x,-y,1/2+z
loop_
_atom_site_type_symbol
_atom_site_label
_atom_site_fract_x
_atom_site_fract_y
_atom_site_fract_z
Si Si1 0.315820 0.250000 0.600177
Si Si2 0.187579 0.921004 0.314207
Si Si3 0.814476 0.250000 0.468077
Si Si4 0.811263 0.858739 0.648813
O O1 0.500000 0.250000 0.609622
O O2 0.243581 0.152089 0.632948
O O3 0.276209 0.250000 0.529737
O O4 0.250000 0.884415 0.250000
O O5 0.000000 0.921666 0.313197
O O6 0.247914 0.036219 0.325074
O O7 0.780901 0.155646 0.422807
O O8 0.000000 0.250000 0.480787
O O9 0.754172 0.750000 0.674861
O O10 0.000000 0.859643 0.655375
#
# Coordination Sequence:
#
# PCOD9540439 Si02
#       4
#     8  16   8  16
#     4  12  25  39  54  79 114 150 188 232 279 324
#     4  11  22  38  59  83 112 148 187 227 272 327
#     4   8  16  37  62  85 109 142 184 224 271 330
#     4   7  15  34  60  87 111 140 181 222 270 333
#
# _framework density 19.159561
#
# number of rings (size 3 to 8) (size 9 to 14) (size 15 to 20)
#    1.000    1.667    0.000    3.000    0.000    2.000 
#    0.000   10.000    0.000    0.000    0.000    0.000 
#    0.000    0.000    0.000    0.000    0.000    0.000 
#
# Total GULP energy -133633.248205 kJ/mol
# GULP energy per Si atom -5568.052009 kJ/mol
# Density = 1.911595 g / cm^3
# Si number density = 19.159561 Si / 1000 Ang^3
#
#
#
# Elastic Constant Matrix: (Units=GPa)
#
#
# Indices 1 2 3 4 5 6 
#
# 1 52.7922 10.9403 14.3329 0.0000 0.0000 0.0000
# 2 10.9403 90.2722 15.5076 0.0000 0.0000 0.0000
# 3 14.3329 15.5076 75.6379 0.0000 0.0000 0.0000
# 4 0.0000 0.0000 0.0000 98.1569 0.0000 0.0000
# 5 0.0000 0.0000 0.0000 0.0000 26.5044 0.0000
# 6 0.0000 0.0000 0.0000 0.0000 0.0000 -23.5007
#
#
#
# Elastic Compliance Matrix: (Units=1/GPa)
#
#
# Indices 1 2 3 4 5 6 
#
# 1 0.020267 -0.001862 -0.003459 0.000000 0.000000 0.000000
# 2 -0.001862 0.011653 -0.002036 0.000000 0.000000 0.000000
# 3 -0.003459 -0.002036 0.014294 0.000000 0.000000 0.000000
# 4 0.000000 0.000000 0.000000 0.010188 0.000000 0.000000
# 5 0.000000 0.000000 0.000000 0.000000 0.037730 0.000000
# 6 0.000000 0.000000 0.000000 0.000000 0.000000 -0.042552
#
#
# Mechanical properties :
#
#
# Convention : Reuss Voigt Hill
#
# Bulk Modulus (GPa) = 31.74625 33.36266 32.55446
# Shear Modulus (GPa) = 65.10975 32.09357 48.60166
#
# Velocity S-wave (km/s) = 5.83581 4.09720 5.04201
# Velocity P-wave (km/s) = 7.87491 6.31139 7.13610
#
# Compressibility (1/GPa) = 0.03149978
#
# Stress axis : x y z
#
# Youngs Moduli (GPa) = 49.34105 85.81420 69.96052
#
# Poissons Ratio (x) = 0.15979 0.24197
# Poissons Ratio (y) = 0.09188 0.14246
# Poissons Ratio (z) = 0.17066 0.17474
#
# Static dielectric constant tensor:
#      x y z
#    x 1.640310 0.000000 0.000000 
#    y 0.000000 1.698740 0.000000 
#    z 0.000000 0.000000 1.642190 
# 
# From -- ./inp_files/56161.got.cif
#   From: 2010.05.17/outbox.cif.g08.bks.cpg/sg74_29_cif.got.tgz:56161.got - 2010.06.03 17:57:02.
