data_PCOD9540633
_publ_section_title
;
Structure prediction by ZEFSAII (Michael W. Deem and Ramdas Pophale) SiO2 
 PCOD9540633
Probable space group: I M M A
;
_chemical_formula_sum "Si O2"
_cell_formula_units_Z 64
_cell_length_a 10.161505
_cell_length_b 22.559112
_cell_length_c 13.539926
_cell_angle_alpha 90.000000
_cell_angle_beta 90.000000
_cell_angle_gamma 90.000000
_cell_volume 3103.818564
_symmetry_space_group_name_H-M "I M M A"
_symmetry_group_IT_number 74
_symmetry_cell_setting 'orthorhombic'
loop_
_space_group_symop_operation_xyz
x,y,z
-x,1/2-y,z
x,-y,-z
-x,1/2+y,-z
-x,-y,-z
x,1/2+y,-z
-x,y,z
x,1/2-y,z
1/2+x,1/2+y,1/2+z
1/2-x,-y,1/2+z
1/2+x,1/2-y,1/2-z
1/2-x,y,1/2-z
1/2-x,1/2-y,1/2-z
1/2+x,y,1/2-z
1/2-x,1/2+y,1/2+z
1/2+x,-y,1/2+z
loop_
_atom_site_type_symbol
_atom_site_label
_atom_site_fract_x
_atom_site_fract_y
_atom_site_fract_z
Si Si1 0.500000 0.250000 0.067964
Si Si2 0.723482 0.931855 0.967026
Si Si3 0.500000 0.750000 0.485944
Si Si4 0.711308 0.750000 0.104885
Si Si5 0.645842 0.122409 0.825947
Si Si6 0.500000 0.379722 0.167592
Si Si7 0.500000 0.876241 0.595670
O O1 0.500000 0.311406 0.128898
O O2 0.628021 0.250000 0.997166
O O3 0.626354 0.914025 0.877632
O O4 0.868925 0.908616 0.943029
O O5 0.667845 0.899158 0.063418
O O6 0.723506 0.000000 0.000000
O O7 0.366126 0.750000 0.421239
O O8 0.500000 0.809301 0.552698
O O9 0.667470 0.807557 0.164378
O O10 0.500000 0.108555 0.791425
O O11 0.750000 0.096327 0.750000
O O12 0.500000 0.377973 0.285617
#
# Coordination Sequence:
#
# PCOD9540633 Si02
#       7
#     4  16   4   8  16   8   8
#     4  12  19  44  73  98 138 182 223 290 363 424
#     4  12  26  49  69  98 145 187 230 289 347 415
#     4  12  23  40  73 104 142 178 225 296 371 416
#     4  12  21  42  68  94 143 181 220 285 360 408
#     4  12  26  44  71 102 136 183 235 288 352 416
#     4  12  24  45  77 102 139 182 234 286 358 420
#     4  12  26  45  73 110 137 180 234 294 352 426
#
# _framework density 20.619762999999999
#
# number of rings (size 3 to 8) (size 9 to 14) (size 15 to 20)
#    0.000    0.000    7.500    2.250    3.500    2.000 
#    0.000    3.750    0.000    0.000    0.000    0.000 
#    0.000    0.000    0.000    0.000    0.000    0.000 
#
# Total GULP energy -179097.833046 kJ/mol
# GULP energy per Si atom -5596.807283 kJ/mol
# Density = 2.057283 g / cm^3
# Si number density = 20.619763 Si / 1000 Ang^3
#
#
#
# Elastic Constant Matrix: (Units=GPa)
#
#
# Indices 1 2 3 4 5 6 
#
# 1 204.5561 27.4346 38.4970 0.0000 0.0000 0.0000
# 2 27.4346 103.6929 7.6623 0.0001 0.0000 -0.0001
# 3 38.4970 7.6623 70.1334 0.0000 0.0000 0.0000
# 4 0.0000 0.0001 0.0000 -0.4908 0.0000 0.0000
# 5 0.0000 0.0000 0.0000 0.0000 35.4932 0.0000
# 6 0.0000 -0.0001 0.0000 0.0000 0.0000 25.8882
#
#
#
# Elastic Compliance Matrix: (Units=1/GPa)
#
#
# Indices 1 2 3 4 5 6 
#
# 1 0.005612 -0.001267 -0.002942 0.000000 0.000000 0.000000
# 2 -0.001267 0.010009 -0.000398 0.000002 0.000000 0.000000
# 3 -0.002942 -0.000398 0.015917 0.000001 0.000000 0.000000
# 4 0.000000 0.000002 0.000001 -2.037519 0.000000 -0.000003
# 5 0.000000 0.000000 0.000000 0.000000 0.028174 0.000000
# 6 0.000000 0.000000 0.000000 -0.000003 0.000000 0.038628
#
#
# Mechanical properties :
#
#
# Convention : Reuss Voigt Hill
#
# Bulk Modulus (GPa) = 44.79663 58.39670 51.59666
# Shear Modulus (GPa) = -2.60075 32.49736 14.94831
#
# Velocity S-wave (km/s) = -1.12429 3.97423 2.69541
# Velocity P-wave (km/s) = 4.48184 7.03147 5.89612
#
# Compressibility (1/GPa) = 0.02232311
#
# Stress axis : x y z
#
# Youngs Moduli (GPa) = 178.17875 99.91416 62.82585
#
# Poissons Ratio (x) = 0.12664 0.18485
# Poissons Ratio (y) = 0.22584 0.02499
# Poissons Ratio (z) = 0.52424 0.03974
#
# Static dielectric constant tensor:
#      x y z
#    x 1.744430 0.000000 0.000000 
#    y 0.000000 1.557010 0.000000 
#    z 0.000000 0.000000 1.715330 
# 
# From -- ./inp_files/18707.got.cif
#   From: 2010.05.17/outbox.cif.g08.bks.cpg/sg74_10_cif.got.tgz:18707.got - 2010.06.03 17:57:02.
