data_PCOD9540135
_publ_section_title
;
Structure prediction by ZEFSAII (Michael W. Deem and Ramdas Pophale) SiO2 
 PCOD9540135
Probable space group: I M M A
;
_chemical_formula_sum "Si O2"
_cell_formula_units_Z 68
_cell_length_a 9.633565
_cell_length_b 20.665403
_cell_length_c 16.020943
_cell_angle_alpha 90.000000
_cell_angle_beta 90.000000
_cell_angle_gamma 90.000000
_cell_volume 3189.473413
_symmetry_space_group_name_H-M "I M M A"
_symmetry_group_IT_number 74
_symmetry_cell_setting 'orthorhombic'
loop_
_space_group_symop_operation_xyz
x,y,z
-x,1/2-y,z
x,-y,-z
-x,1/2+y,-z
-x,-y,-z
x,1/2+y,-z
-x,y,z
x,1/2-y,z
1/2+x,1/2+y,1/2+z
1/2-x,-y,1/2+z
1/2+x,1/2-y,1/2-z
1/2-x,y,1/2-z
1/2-x,1/2-y,1/2-z
1/2+x,y,1/2-z
1/2-x,1/2+y,1/2+z
1/2+x,-y,1/2+z
loop_
_atom_site_type_symbol
_atom_site_label
_atom_site_fract_x
_atom_site_fract_y
_atom_site_fract_z
Si Si1 0.645829 0.381887 0.619908
Si Si2 0.775072 0.107726 0.069740
Si Si3 0.666570 0.508712 0.168345
Si Si4 0.000000 0.673673 0.616053
Si Si5 0.000000 0.750000 0.151339
Si Si6 0.500000 0.171253 0.311203
O O1 0.500000 0.416746 0.646493
O O2 0.655283 0.386365 0.519900
O O3 0.779802 0.418228 0.654466
O O4 0.618946 0.308153 0.645939
O O5 0.633750 0.147557 0.070167
O O6 0.869887 0.140707 0.140573
O O7 0.729966 0.035538 0.094931
O O8 0.500000 0.503307 0.171936
O O9 0.750000 0.485456 0.250000
O O10 0.000000 0.652797 0.713654
O O11 0.000000 0.750000 0.617310
O O12 0.500000 0.250000 0.317880
#
# Coordination Sequence:
#
# PCOD9540135 Si02
#       6
#    16  16  16   8   4   8
#     4  10  24  44  73  98 136 175 232 283 345 413
#     4  12  24  39  68  97 136 182 231 282 341 404
#     4  12  27  46  71 101 140 180 230 290 351 413
#     4  11  24  37  56  94 142 183 229 276 334 402
#     4   8  22  48  70 104 132 180 228 290 344 430
#     4  11  23  39  60  92 134 187 235 274 330 403
#
# _framework density 21.320133999999999
#
# number of rings (size 3 to 8) (size 9 to 14) (size 15 to 20)
#    0.706    0.235    2.353    4.235    9.882    3.765 
#    0.000    1.176    0.000    0.000    0.000    0.000 
#    0.000    0.000    0.000    0.000    0.000    0.000 
#
# Total GULP energy -189371.310846 kJ/mol
# GULP energy per Si atom -5569.744437 kJ/mol
# Density = 2.127161 g / cm^3
# Si number density = 21.320134 Si / 1000 Ang^3
#
#
#
# Elastic Constant Matrix: (Units=GPa)
#
#
# Indices 1 2 3 4 5 6 
#
# 1 144.4110 36.4756 -4.0347 0.0000 0.0000 0.0000
# 2 36.4756 115.7346 -1.1861 0.0000 0.0000 0.0000
# 3 -4.0347 -1.1861 34.2839 0.0000 0.0000 0.0000
# 4 0.0000 0.0000 0.0000 15.5416 0.0000 0.0000
# 5 0.0000 0.0000 0.0000 0.0000 21.9403 0.0000
# 6 0.0000 0.0000 0.0000 0.0000 0.0000 54.4075
#
#
#
# Elastic Compliance Matrix: (Units=1/GPa)
#
#
# Indices 1 2 3 4 5 6 
#
# 1 0.007546 -0.002370 0.000806 0.000000 0.000000 0.000000
# 2 -0.002370 0.009388 0.000046 0.000000 0.000000 0.000000
# 3 0.000806 0.000046 0.029265 0.000000 0.000000 0.000000
# 4 0.000000 0.000000 0.000000 0.064344 0.000000 0.000000
# 5 0.000000 0.000000 0.000000 0.000000 0.045578 0.000000
# 6 0.000000 0.000000 0.000000 0.000000 0.000000 0.018380
#
#
# Mechanical properties :
#
#
# Convention : Reuss Voigt Hill
#
# Bulk Modulus (GPa) = 23.16835 39.65988 31.41412
# Shear Modulus (GPa) = 26.05205 35.92284 30.98745
#
# Velocity S-wave (km/s) = 3.49943 4.10924 3.81653
# Velocity P-wave (km/s) = 5.21713 6.41537 5.84702
#
# Compressibility (1/GPa) = 0.04316233
#
# Stress axis : x y z
#
# Youngs Moduli (GPa) = 132.52406 106.52072 34.17089
#
# Poissons Ratio (x) = 0.25245 -0.02754
# Poissons Ratio (y) = 0.31407 -0.00157
# Poissons Ratio (z) = -0.10682 -0.00489
#
# Static dielectric constant tensor:
#      x y z
#    x 1.958400 0.000000 0.000000 
#    y 0.000000 1.780680 0.000000 
#    z 0.000000 0.000000 1.802140 
# 
# From -- ./inp_files/39255.got.cif
#   From: 2010.05.17/outbox.cif.g08.bks.cpg/sg74_20_cif.got.tgz:39255.got - 2010.06.03 17:57:02.
