data_PCOD9540060
_publ_section_title
;
Structure prediction by ZEFSAII (Michael W. Deem and Ramdas Pophale) SiO2 
 PCOD9540060
Probable space group: I M M A
;
_chemical_formula_sum "Si O2"
_cell_formula_units_Z 48
_cell_length_a 15.833944
_cell_length_b 15.100664
_cell_length_c 8.640752
_cell_angle_alpha 90.000000
_cell_angle_beta 90.000000
_cell_angle_gamma 90.000000
_cell_volume 2066.030314
_symmetry_space_group_name_H-M "I M M A"
_symmetry_group_IT_number 74
_symmetry_cell_setting 'orthorhombic'
loop_
_space_group_symop_operation_xyz
x,y,z
-x,1/2-y,z
x,-y,-z
-x,1/2+y,-z
-x,-y,-z
x,1/2+y,-z
-x,y,z
x,1/2-y,z
1/2+x,1/2+y,1/2+z
1/2-x,-y,1/2+z
1/2+x,1/2-y,1/2-z
1/2-x,y,1/2-z
1/2-x,1/2-y,1/2-z
1/2+x,y,1/2-z
1/2-x,1/2+y,1/2+z
1/2+x,-y,1/2+z
loop_
_atom_site_type_symbol
_atom_site_label
_atom_site_fract_x
_atom_site_fract_y
_atom_site_fract_z
Si Si1 0.500000 0.395868 0.948457
Si Si2 0.172343 0.426508 0.132887
Si Si3 0.631317 0.250000 0.912214
Si Si4 0.331999 0.250000 0.549689
Si Si5 0.000000 0.499751 0.816430
O O1 0.581989 0.335496 0.979051
O O2 0.500000 0.405213 0.761898
O O3 0.500000 0.500000 0.000000
O O4 0.250000 0.415722 0.250000
O O5 0.089021 0.456562 0.224971
O O6 0.192806 0.500000 0.000000
O O7 0.145953 0.337987 0.043454
O O8 0.632982 0.250000 0.724166
O O9 0.729619 0.250000 0.950188
O O10 0.000000 0.500000 0.000000
#
# Coordination Sequence:
#
# PCOD9540060 Si02
#       5
#     8  16   8   8   8
#     4  11  25  44  70 102 139 180 240 292 360 421
#     4  11  26  44  71 106 144 189 242 298 362 433
#     4  10  24  44  69 101 139 189 228 296 361 430
#     4  11  25  44  71 101 142 184 241 284 360 430
#     4  10  23  43  67  98 137 189 231 281 356 429
#
# _framework density 23.232959000000001
#
# number of rings (size 3 to 8) (size 9 to 14) (size 15 to 20)
#    0.000    1.333    0.000    4.500   14.000    2.000 
#    0.000    0.000    0.000    0.000    0.000    0.000 
#    0.000    0.000    0.000    0.000    0.000    0.000 
#
# Total GULP energy -134087.237246 kJ/mol
# GULP energy per Si atom -5586.968219 kJ/mol
# Density = 2.318008 g / cm^3
# Si number density = 23.232959 Si / 1000 Ang^3
#
#
#
# Elastic Constant Matrix: (Units=GPa)
#
#
# Indices 1 2 3 4 5 6 
#
# 1 111.4898 0.6881 -0.1446 0.0000 0.0000 0.0000
# 2 0.6881 127.7650 17.6784 0.0000 0.0000 0.0000
# 3 -0.1446 17.6784 63.6703 0.0000 0.0000 0.0000
# 4 0.0000 0.0000 0.0000 53.1091 0.0000 0.0000
# 5 0.0000 0.0000 0.0000 0.0000 34.0171 0.0000
# 6 0.0000 0.0000 0.0000 0.0000 0.0000 20.7667
#
#
#
# Elastic Compliance Matrix: (Units=1/GPa)
#
#
# Indices 1 2 3 4 5 6 
#
# 1 0.008970 -0.000053 0.000035 0.000000 0.000000 0.000000
# 2 -0.000053 0.008140 -0.002260 0.000000 0.000000 0.000000
# 3 0.000035 -0.002260 0.016334 0.000000 0.000000 0.000000
# 4 0.000000 0.000000 0.000000 0.018829 0.000000 0.000000
# 5 0.000000 0.000000 0.000000 0.000000 0.029397 0.000000
# 6 0.000000 0.000000 0.000000 0.000000 0.000000 0.048154
#
#
# Mechanical properties :
#
#
# Convention : Reuss Voigt Hill
#
# Bulk Modulus (GPa) = 34.61793 37.70766 36.16280
# Shear Modulus (GPa) = 34.72008 40.55880 37.63944
#
# Velocity S-wave (km/s) = 3.86998 4.18274 4.02940
# Velocity P-wave (km/s) = 5.90777 6.29227 6.10305
#
# Compressibility (1/GPa) = 0.02888676
#
# Stress axis : x y z
#
# Youngs Moduli (GPa) = 111.48518 122.85174 61.22364
#
# Poissons Ratio (x) = 0.00653 -0.00215
# Poissons Ratio (y) = 0.00593 0.13838
# Poissons Ratio (z) = -0.00392 0.27767
#
# Static dielectric constant tensor:
#      x y z
#    x 1.863000 0.000000 0.000000 
#    y 0.000000 1.854910 0.000000 
#    z 0.000000 0.000000 1.989120 
# 
# From -- ./inp_files/9761.got.cif
#   From: 2010.05.17/outbox.cif.g08.bks.cpg/sg74_5_cif.got.tgz:9761.got - 2010.06.03 17:57:02.
