data_PCOD9540460
_publ_section_title
;
Structure prediction by ZEFSAII (Michael W. Deem and Ramdas Pophale) SiO2 
 PCOD9540460
Probable space group: I M M A
;
_chemical_formula_sum "Si O2"
_cell_formula_units_Z 56
_cell_length_a 14.601573
_cell_length_b 10.682899
_cell_length_c 19.388077
_cell_angle_alpha 90.000000
_cell_angle_beta 90.000000
_cell_angle_gamma 90.000000
_cell_volume 3024.290480
_symmetry_space_group_name_H-M "I M M A"
_symmetry_group_IT_number 74
_symmetry_cell_setting 'orthorhombic'
loop_
_space_group_symop_operation_xyz
x,y,z
-x,1/2-y,z
x,-y,-z
-x,1/2+y,-z
-x,-y,-z
x,1/2+y,-z
-x,y,z
x,1/2-y,z
1/2+x,1/2+y,1/2+z
1/2-x,-y,1/2+z
1/2+x,1/2-y,1/2-z
1/2-x,y,1/2-z
1/2-x,1/2-y,1/2-z
1/2+x,y,1/2-z
1/2-x,1/2+y,1/2+z
1/2+x,-y,1/2+z
loop_
_atom_site_type_symbol
_atom_site_label
_atom_site_fract_x
_atom_site_fract_y
_atom_site_fract_z
Si Si1 0.264271 0.603804 0.137801
Si Si2 0.891141 0.250000 0.053739
Si Si3 0.801466 0.500000 0.000000
Si Si4 0.847533 0.250000 0.211671
Si Si5 0.603691 0.528740 0.259498
O O1 0.272127 0.750000 0.122235
O O2 0.258038 0.526085 0.067866
O O3 0.346200 0.564368 0.188456
O O4 0.170269 0.580146 0.180494
O O5 0.861472 0.124234 0.013953
O O6 0.842539 0.250000 0.128628
O O7 0.000000 0.250000 0.065367
O O8 0.750000 0.250000 0.250000
O O9 0.895361 0.378744 0.232820
O O10 0.500000 0.575390 0.264208
#
# Coordination Sequence:
#
# PCOD9540460 Si02
#       5
#    16   8   8   8  16
#     4  11  24  41  61  89 122 164 205 249 314 371
#     4  12  24  38  60  91 125 163 208 256 308 377
#     4  12  23  42  61  86 128 168 202 252 320 368
#     4  12  20  38  62  91 124 160 198 250 311 372
#     4  11  22  39  64  91 120 158 207 258 304 362
#
# _framework density 18.516739000000001
#
# number of rings (size 3 to 8) (size 9 to 14) (size 15 to 20)
#    0.000    0.571    7.143    3.429    0.000    3.429 
#    0.000    0.714    0.000    0.000    0.000    0.000 
#    0.000    0.000    0.000    0.000    0.000    0.000 
#
# Total GULP energy -156489.778140 kJ/mol
# GULP energy per Si atom -5588.920648 kJ/mol
# Density = 1.847459 g / cm^3
# Si number density = 18.516739 Si / 1000 Ang^3
#
#
#
# Elastic Constant Matrix: (Units=GPa)
#
#
# Indices 1 2 3 4 5 6 
#
# 1 83.5899 -3.2721 24.9029 0.0000 0.0000 0.0000
# 2 -3.2721 111.7107 11.6236 0.0000 0.0000 0.0000
# 3 24.9029 11.6236 114.9746 0.0000 0.0000 0.0000
# 4 0.0000 0.0000 0.0000 37.0272 0.0000 0.0000
# 5 0.0000 0.0000 0.0000 0.0000 -10.4620 0.0000
# 6 0.0000 0.0000 0.0000 0.0000 0.0000 5.2555
#
#
#
# Elastic Compliance Matrix: (Units=1/GPa)
#
#
# Indices 1 2 3 4 5 6 
#
# 1 0.012838 0.000672 -0.002849 0.000000 0.000000 0.000000
# 2 0.000672 0.009082 -0.001064 0.000000 0.000000 0.000000
# 3 -0.002849 -0.001064 0.009422 0.000000 0.000000 0.000000
# 4 0.000000 0.000000 0.000000 0.027007 0.000000 0.000000
# 5 0.000000 0.000000 0.000000 0.000000 -0.095584 0.000000
# 6 0.000000 0.000000 0.000000 0.000000 0.000000 0.190277
#
#
# Mechanical properties :
#
#
# Convention : Reuss Voigt Hill
#
# Bulk Modulus (GPa) = 40.22155 41.86489 41.04322
# Shear Modulus (GPa) = 29.79558 24.83217 27.31388
#
# Velocity S-wave (km/s) = 4.01573 3.66603 3.84486
# Velocity P-wave (km/s) = 6.57802 6.37009 6.47489
#
# Compressibility (1/GPa) = 0.02486229
#
# Stress axis : x y z
#
# Youngs Moduli (GPa) = 77.89281 110.10690 106.13311
#
# Poissons Ratio (x) = -0.07404 0.30234
# Poissons Ratio (y) = -0.05238 0.11291
# Poissons Ratio (z) = 0.22189 0.11713
#
# Static dielectric constant tensor:
#      x y z
#    x 1.622770 0.000000 0.000000 
#    y 0.000000 1.655590 0.000000 
#    z 0.000000 0.000000 1.630350 
# 
# From -- ./inp_files/42206.got.cif
#   From: 2010.05.17/outbox.cif.g08.bks.cpg/sg74_22_cif.got.tgz:42206.got - 2010.06.03 17:57:02.
