data_PCOD9540690
_publ_section_title
;
Structure prediction by ZEFSAII (Michael W. Deem and Ramdas Pophale) SiO2 
 PCOD9540690
Probable space group: I M M A
;
_chemical_formula_sum "Si O2"
_cell_formula_units_Z 96
_cell_length_a 11.500815
_cell_length_b 14.704771
_cell_length_c 21.671292
_cell_angle_alpha 90.000000
_cell_angle_beta 90.000000
_cell_angle_gamma 90.000000
_cell_volume 3664.980658
_symmetry_space_group_name_H-M "I M M A"
_symmetry_group_IT_number 74
_symmetry_cell_setting 'orthorhombic'
loop_
_space_group_symop_operation_xyz
x,y,z
-x,1/2-y,z
x,-y,-z
-x,1/2+y,-z
-x,-y,-z
x,1/2+y,-z
-x,y,z
x,1/2-y,z
1/2+x,1/2+y,1/2+z
1/2-x,-y,1/2+z
1/2+x,1/2-y,1/2-z
1/2-x,y,1/2-z
1/2-x,1/2-y,1/2-z
1/2+x,y,1/2-z
1/2-x,1/2+y,1/2+z
1/2+x,-y,1/2+z
loop_
_atom_site_type_symbol
_atom_site_label
_atom_site_fract_x
_atom_site_fract_y
_atom_site_fract_z
Si Si1 0.125582 0.096700 0.155533
Si Si2 0.374129 0.386224 0.827272
Si Si3 0.124515 0.356488 0.014722
Si Si4 0.124314 0.883299 0.181381
Si Si5 0.875939 0.107772 0.491392
Si Si6 0.125563 0.106214 0.345363
O O1 0.130484 0.093442 0.080789
O O2 0.248023 0.138241 0.177418
O O3 0.000000 0.138397 0.171405
O O4 0.124012 0.992990 0.177953
O O5 0.500000 0.355107 0.851393
O O6 0.246627 0.352851 0.847207
O O7 0.375336 0.364313 0.754391
O O8 0.373432 0.495999 0.837763
O O9 0.118522 0.250000 0.029375
O O10 0.249023 0.368496 0.982931
O O11 0.000000 0.383161 0.985309
O O12 0.000000 0.851247 0.155905
O O13 0.874748 0.128725 0.418302
O O14 0.000000 0.855662 0.485227
O O15 0.881365 0.000000 0.500000
O O16 0.000000 0.136912 0.319903
#
# Coordination Sequence:
#
# PCOD9540690 Si02
#       6
#    16  16  16  16  16  16
#     4   8  13  21  32  46  64  85 110 141 174 207
#     4   8  12  17  26  41  59  79 105 136 170 208
#     4   9  17  28  41  57  76  98 125 156 190 229
#     4   8  12  17  26  41  59  79 105 137 170 203
#     4   9  17  28  41  57  75  94 119 153 192 232
#     4   8  13  21  32  46  64  85 109 140 178 217
#
# _framework density 26.193861999999999
#
# number of rings (size 3 to 8) (size 9 to 14) (size 15 to 20)
#    0.000    3.667    0.000    0.000    0.000    0.667 
#    0.000    0.000    0.000    0.000    0.000   21.000 
#    0.000   46.667    0.000    0.000    0.000    0.000 
#
# Total GULP energy -267463.267816 kJ/mol
# GULP energy per Si atom -5572.151413 kJ/mol
# Density = 2.613424 g / cm^3
# Si number density = 26.193862 Si / 1000 Ang^3
#
#
#
# Elastic Constant Matrix: (Units=GPa)
#
#
# Indices 1 2 3 4 5 6 
#
# 1 437.6922 9.9501 20.1605 0.0000 0.0000 0.0000
# 2 9.9501 77.3084 -1.2052 0.0000 0.0000 0.0000
# 3 20.1605 -1.2052 123.7617 0.0000 0.0000 0.0000
# 4 0.0000 0.0000 0.0000 336.5964 0.0000 0.0000
# 5 0.0000 0.0000 0.0000 0.0000 13.9486 0.0000
# 6 0.0000 0.0000 0.0000 0.0000 0.0000 -47.0016
#
#
#
# Elastic Compliance Matrix: (Units=1/GPa)
#
#
# Indices 1 2 3 4 5 6 
#
# 1 0.002309 -0.000303 -0.000379 0.000000 0.000000 0.000000
# 2 -0.000303 0.012977 0.000176 0.000000 0.000000 0.000000
# 3 -0.000379 0.000176 0.008144 0.000000 0.000000 0.000000
# 4 0.000000 0.000000 0.000000 0.002971 0.000000 0.000000
# 5 0.000000 0.000000 0.000000 0.000000 0.071692 0.000000
# 6 0.000000 0.000000 0.000000 0.000000 0.000000 -0.021276
#
#
# Mechanical properties :
#
#
# Convention : Reuss Voigt Hill
#
# Bulk Modulus (GPa) = 44.60972 77.39700 61.00336
# Shear Modulus (GPa) = 58.61569 101.36582 79.99076
#
# Velocity S-wave (km/s) = 4.73563 6.22755 5.53211
# Velocity P-wave (km/s) = 6.85341 9.01785 8.00908
#
# Compressibility (1/GPa) = 0.02241664
#
# Stress axis : x y z
#
# Youngs Moduli (GPa) = 433.07624 77.05964 122.79723
#
# Poissons Ratio (x) = 0.02336 0.04655
# Poissons Ratio (y) = 0.13127 -0.02158
# Poissons Ratio (z) = 0.16418 -0.01354
#
# Static dielectric constant tensor:
#      x y z
#    x 2.188660 0.000000 0.000000 
#    y 0.000000 1.952270 0.000000 
#    z 0.000000 0.000000 1.963250 
# 
# From -- ./inp_files/66126.got.cif
#   From: 2010.05.17/outbox.cif.g08.bks.cpg/sg74_34_cif.got.tgz:66126.got - 2010.06.03 17:57:02.
