data_PCOD9540336
_publ_section_title
;
Structure prediction by ZEFSAII (Michael W. Deem and Ramdas Pophale) SiO2 
 PCOD9540336
Probable space group: I M M A
;
_chemical_formula_sum "Si O2"
_cell_formula_units_Z 92
_cell_length_a 7.669682
_cell_length_b 29.440801
_cell_length_c 24.005203
_cell_angle_alpha 90.000000
_cell_angle_beta 90.000000
_cell_angle_gamma 90.000000
_cell_volume 5420.412802
_symmetry_space_group_name_H-M "I M M A"
_symmetry_group_IT_number 74
_symmetry_cell_setting 'orthorhombic'
loop_
_space_group_symop_operation_xyz
x,y,z
-x,1/2-y,z
x,-y,-z
-x,1/2+y,-z
-x,-y,-z
x,1/2+y,-z
-x,y,z
x,1/2-y,z
1/2+x,1/2+y,1/2+z
1/2-x,-y,1/2+z
1/2+x,1/2-y,1/2-z
1/2-x,y,1/2-z
1/2-x,1/2-y,1/2-z
1/2+x,y,1/2-z
1/2-x,1/2+y,1/2+z
1/2+x,-y,1/2+z
loop_
_atom_site_type_symbol
_atom_site_label
_atom_site_fract_x
_atom_site_fract_y
_atom_site_fract_z
Si Si1 0.292770 0.750000 0.184910
Si Si2 0.297071 0.575384 0.314370
Si Si3 0.000000 0.250000 0.027498
Si Si4 0.788111 0.428757 0.480239
Si Si5 0.702020 0.326401 0.008321
Si Si6 0.790013 0.014979 0.587125
Si Si7 0.295520 0.160752 0.617625
O O1 0.500000 0.750000 0.177469
O O2 0.250000 0.750000 0.250000
O O3 0.218645 0.794680 0.155500
O O4 0.500000 0.585139 0.314184
O O5 0.250000 0.571039 0.250000
O O6 0.263886 0.531410 0.352170
O O7 0.218190 0.618364 0.347732
O O8 0.844685 0.289443 0.024923
O O9 0.741794 0.376696 0.471162
O O10 0.731141 0.465630 0.434369
O O11 0.729826 0.448569 0.540297
O O12 0.000000 0.429697 0.481556
O O13 0.500000 0.317037 0.025409
O O14 0.703760 0.330526 0.940986
O O15 0.000000 0.014900 0.585772
O O16 0.500000 0.153139 0.604357
#
# Coordination Sequence:
#
# PCOD9540336 Si02
#       7
#     8  16   4  16  16  16  16
#     4  12  25  38  50  64  81 116 169 223 278 317
#     4  11  23  35  50  72 100 136 175 217 267 317
#     4  12  24  36  48  76 108 136 180 224 268 312
#     4   8  16  31  55  79  99 129 169 209 260 318
#     4  11  21  36  55  76 103 138 175 216 268 319
#     4   9  16  32  54  76 101 128 166 215 258 313
#     4  11  22  37  51  68  94 125 174 230 269 313
#
# _framework density 16.972878000000001
#
# number of rings (size 3 to 8) (size 9 to 14) (size 15 to 20)
#    0.000    1.739    2.609    4.174    0.000    3.478 
#    1.565    0.870    0.000    0.000    0.000    0.000 
#    0.000    0.000    0.000    0.783    6.261    2.609 
#
# Total GULP energy -256166.101392 kJ/mol
# GULP energy per Si atom -5568.828291 kJ/mol
# Density = 1.693425 g / cm^3
# Si number density = 16.972878 Si / 1000 Ang^3
#
#
#
# Elastic Constant Matrix: (Units=GPa)
#
#
# Indices 1 2 3 4 5 6 
#
# 1 74.6625 21.5626 -5.1730 0.0000 0.0000 0.0000
# 2 21.5626 125.5323 20.6166 0.0000 0.0000 0.0000
# 3 -5.1730 20.6166 26.6231 0.0000 0.0000 0.0000
# 4 0.0000 0.0000 0.0000 0.1422 0.0000 0.0000
# 5 0.0000 0.0000 0.0000 0.0000 10.5736 0.0000
# 6 0.0000 0.0000 0.0000 0.0000 0.0000 18.3371
#
#
#
# Elastic Compliance Matrix: (Units=1/GPa)
#
#
# Indices 1 2 3 4 5 6 
#
# 1 0.014773 -0.003447 0.005540 0.000000 0.000000 0.000000
# 2 -0.003447 0.009931 -0.008361 0.000000 0.000000 0.000000
# 3 0.005540 -0.008361 0.045112 -0.000001 0.000000 0.000000
# 4 0.000000 0.000000 -0.000001 7.029994 0.000000 0.000000
# 5 0.000000 0.000000 0.000000 0.000000 0.094575 0.000000
# 6 0.000000 0.000000 0.000000 0.000000 0.000000 0.054534
#
#
# Mechanical properties :
#
#
# Convention : Reuss Voigt Hill
#
# Bulk Modulus (GPa) = 17.45783 33.42559 25.44171
# Shear Modulus (GPa) = 0.68676 18.46469 9.57573
#
# Velocity S-wave (km/s) = 0.63679 3.30190 2.37782
# Velocity P-wave (km/s) = 3.29374 5.85432 4.74983
#
# Compressibility (1/GPa) = 0.05728087
#
# Stress axis : x y z
#
# Youngs Moduli (GPa) = 67.69071 100.69150 22.16696
#
# Poissons Ratio (x) = 0.34713 -0.12281
# Poissons Ratio (y) = 0.23336 0.18533
# Poissons Ratio (z) = -0.37502 0.84184
#
# Static dielectric constant tensor:
#      x y z
#    x 1.635260 0.000000 0.000000 
#    y 0.000000 1.606820 0.000000 
#    z 0.000000 0.000000 1.571810 
# 
# From -- ./inp_files/49184.got.cif
#   From: 2010.05.17/outbox.cif.g08.bks.cpg/sg74_25_cif.got.tgz:49184.got - 2010.06.03 17:57:02.
