data_PCOD9540923
_publ_section_title
;
Structure prediction by ZEFSAII (Michael W. Deem and Ramdas Pophale) SiO2 
 PCOD9540923
Probable space group: I M M A
;
_chemical_formula_sum "Si O2"
_cell_formula_units_Z 48
_cell_length_a 21.000000
_cell_length_b 15.000000
_cell_length_c 15.000000
_cell_angle_alpha 90.000000
_cell_angle_beta 90.000000
_cell_angle_gamma 90.000000
_cell_volume 4725.000000
_symmetry_space_group_name_H-M "I M M A"
_symmetry_group_IT_number 74
_symmetry_cell_setting 'orthorhombic'
loop_
_space_group_symop_operation_xyz
x,y,z
-x,1/2-y,z
x,-y,-z
-x,1/2+y,-z
-x,-y,-z
x,1/2+y,-z
-x,y,z
x,1/2-y,z
1/2+x,1/2+y,1/2+z
1/2-x,-y,1/2+z
1/2+x,1/2-y,1/2-z
1/2-x,y,1/2-z
1/2-x,1/2-y,1/2-z
1/2+x,y,1/2-z
1/2-x,1/2+y,1/2+z
1/2+x,-y,1/2+z
loop_
_atom_site_type_symbol
_atom_site_label
_atom_site_fract_x
_atom_site_fract_y
_atom_site_fract_z
Si Si1 0.880076 0.147688 0.789592
Si Si2 0.805845 0.353920 0.178286
Si Si3 0.927047 0.546458 0.747070
Si Si4 0.071160 0.401675 0.460175
Si Si5 0.192922 0.594484 0.027690
Si Si6 0.681993 0.848928 0.095291
O O1 0.906743 0.250000 0.788894
O O2 0.846701 0.134741 0.887543
O O3 0.835986 0.144266 0.699717
O O4 0.922687 0.060123 0.767626
O O5 0.816735 0.250000 0.198809
O O6 0.750000 0.382825 0.250000
O O7 0.869866 0.409009 0.198288
O O8 0.795335 0.360548 0.070343
O O9 0.914297 0.579128 0.644389
O O10 0.000000 0.574215 0.767441
O O11 0.066699 0.500000 0.500000
O O12 0.123382 0.356589 0.525084
O O13 0.000000 0.360361 0.465926
O O14 0.263434 0.581949 0.069249
O O15 0.163332 0.500000 0.000000
O O16 0.710635 0.750000 0.082982
#
# Coordination Sequence:
#
# PCOD9540923 Si02
#       6
#    16  16  16  16  16  16
#     4  11  24  42  64  96 135 172 217 270 328 395
#     4  11  25  45  69  99 133 170 220 275 331 395
#     4  11  24  43  68  98 133 176 222 270 333 393
#     4  10  20  37  61  89 125 166 211 261 318 389
#     4  12  24  40  67  94 126 171 218 272 331 395
#     4  11  23  38  62  96 132 170 213 264 331 401
#
# _framework density 10.15873
#
# number of rings (size 3 to 8) (size 9 to 14) (size 15 to 20)
#    0.000    1.000    3.333    3.500    2.333    4.333 
#    0.000    5.000    0.000    2.000    0.000    0.000 
#    0.000    0.000    0.000    0.000    0.000    0.000 
#
# Total GULP energy -267386.534487 kJ/mol
# GULP energy per Si atom -5570.552802 kJ/mol
# Density = 1.013561 g / cm^3
# Si number density = 10.158730 Si / 1000 Ang^3
#
#
#
# Elastic Constant Matrix: (Units=GPa)
#
#
# Indices 1 2 3 4 5 6 
#
# 1 81.6260 14.4201 40.5913 0.0000 0.0000 0.0000
# 2 14.4201 81.7744 13.1360 0.0000 0.0000 0.0000
# 3 40.5913 13.1360 154.1051 0.0000 0.0000 0.0000
# 4 0.0000 0.0000 0.0000 34.4280 0.0000 0.0000
# 5 0.0000 0.0000 0.0000 0.0000 29.3037 0.0000
# 6 0.0000 0.0000 0.0000 0.0000 0.0000 4.7193
#
#
#
# Elastic Compliance Matrix: (Units=1/GPa)
#
#
# Indices 1 2 3 4 5 6 
#
# 1 0.014400 -0.001957 -0.003626 0.000000 0.000000 0.000000
# 2 -0.001957 0.012664 -0.000564 0.000000 0.000000 0.000000
# 3 -0.003626 -0.000564 0.007492 0.000000 0.000000 0.000000
# 4 0.000000 0.000000 0.000000 0.029046 0.000000 0.000000
# 5 0.000000 0.000000 0.000000 0.000000 0.034125 0.000000
# 6 0.000000 0.000000 0.000000 0.000000 0.000000 0.211894
#
#
# Mechanical properties :
#
#
# Convention : Reuss Voigt Hill
#
# Bulk Modulus (GPa) = 44.91843 50.42224 47.67034
# Shear Modulus (GPa) = 15.18203 30.31408 22.74805
#
# Velocity S-wave (km/s) = 2.73654 3.86686 3.34972
# Velocity P-wave (km/s) = 5.66931 6.69387 6.20278
#
# Compressibility (1/GPa) = 0.02226257
#
# Stress axis : x y z
#
# Youngs Moduli (GPa) = 69.44486 78.96124 133.47057
#
# Poissons Ratio (x) = 0.15451 0.48398
# Poissons Ratio (y) = 0.13589 0.07529
# Poissons Ratio (z) = 0.25182 0.04454
#
# Static dielectric constant tensor:
#      x y z
#    x 1.735890 0.000000 0.000000 
#    y 0.000000 1.787430 0.000000 
#    z 0.000000 0.000000 1.745710 
# 
# From -- ./inp_files/35277.got.cif
#   From: 2010.05.17/outbox.ucp.g08.bks.cvg/sg74_18_cif.got.tgz:35277.got - 2010.06.11 16:37:44.
