data_PCOD9540159
_publ_section_title
;
Structure prediction by ZEFSAII (Michael W. Deem and Ramdas Pophale) SiO2 
 PCOD9540159
Probable space group: I M M A
;
_chemical_formula_sum "Si O2"
_cell_formula_units_Z 88
_cell_length_a 14.185662
_cell_length_b 18.330053
_cell_length_c 17.139271
_cell_angle_alpha 90.000000
_cell_angle_beta 90.000000
_cell_angle_gamma 90.000000
_cell_volume 4456.620711
_symmetry_space_group_name_H-M "I M M A"
_symmetry_group_IT_number 74
_symmetry_cell_setting 'orthorhombic'
loop_
_space_group_symop_operation_xyz
x,y,z
-x,1/2-y,z
x,-y,-z
-x,1/2+y,-z
-x,-y,-z
x,1/2+y,-z
-x,y,z
x,1/2-y,z
1/2+x,1/2+y,1/2+z
1/2-x,-y,1/2+z
1/2+x,1/2-y,1/2-z
1/2-x,y,1/2-z
1/2-x,1/2-y,1/2-z
1/2+x,y,1/2-z
1/2-x,1/2+y,1/2+z
1/2+x,-y,1/2+z
loop_
_atom_site_type_symbol
_atom_site_label
_atom_site_fract_x
_atom_site_fract_y
_atom_site_fract_z
Si Si1 0.500000 0.329894 0.754235
Si Si2 0.000000 0.551094 0.846493
Si Si3 0.301316 0.165661 0.956412
Si Si4 0.500000 0.832617 0.964907
Si Si5 0.500000 0.456713 0.165913
Si Si6 0.168332 0.931205 0.312471
Si Si7 0.844930 0.081972 0.029479
Si Si8 0.500000 0.385687 0.594701
O O1 0.500000 0.250000 0.790705
O O2 0.594326 0.373133 0.776807
O O3 0.500000 0.326855 0.661076
O O4 0.907417 0.577664 0.892817
O O5 0.000000 0.463583 0.860022
O O6 0.000000 0.569217 0.756019
O O7 0.277698 0.250000 0.939671
O O8 0.283954 0.111107 0.884461
O O9 0.409976 0.160313 0.979568
O O10 0.244540 0.133511 0.029996
O O11 0.500000 0.750000 0.931937
O O12 0.500000 0.893444 0.897969
O O13 0.596802 0.504767 0.159735
O O14 0.250000 0.952261 0.250000
O O15 0.911728 0.115158 0.962439
O O16 0.822729 0.000000 0.000000
#
# Coordination Sequence:
#
# PCOD9540159 Si02
#       8
#     8   8  16   8   8  16  16   8
#     4  11  21  35  54  82 127 172 202 231 286 360
#     4   9  18  39  60  87 117 148 189 257 310 345
#     4  11  24  41  60  86 123 162 201 247 296 354
#     4  10  25  47  63  82 116 161 214 264 300 338
#     4  11  24  41  65  91 117 156 208 250 301 364
#     4  11  24  37  59  93 128 159 199 241 296 361
#     4   9  20  34  61  87 115 153 197 241 297 359
#     4   9  16  34  53  85 121 155 193 237 293 354
#
# _framework density 19.745903999999999
#
# number of rings (size 3 to 8) (size 9 to 14) (size 15 to 20)
#    0.000    1.818    1.818    3.818    5.091    5.091 
#    0.000    2.273    0.000    2.727    0.000    0.000 
#    0.000    0.000    0.000    0.000    0.000    0.000 
#
# Total GULP energy -245627.354261 kJ/mol
# GULP energy per Si atom -5582.439870 kJ/mol
# Density = 1.970096 g / cm^3
# Si number density = 19.745904 Si / 1000 Ang^3
#
#
#
# Elastic Constant Matrix: (Units=GPa)
#
#
# Indices 1 2 3 4 5 6 
#
# 1 82.9371 27.3713 -9.6346 0.0000 0.0000 0.0000
# 2 27.3713 73.5556 30.1002 0.0000 0.0000 0.0000
# 3 -9.6346 30.1002 67.1791 0.0000 0.0000 0.0000
# 4 0.0000 0.0000 0.0000 -13.2632 0.0000 0.0000
# 5 0.0000 0.0000 0.0000 0.0000 10.1043 0.0000
# 6 0.0000 0.0000 0.0000 0.0000 0.0000 -42.6026
#
#
#
# Elastic Compliance Matrix: (Units=1/GPa)
#
#
# Indices 1 2 3 4 5 6 
#
# 1 0.015423 -0.008136 0.005857 0.000000 0.000000 0.000000
# 2 -0.008136 0.020939 -0.010549 0.000000 0.000000 0.000000
# 3 0.005857 -0.010549 0.020452 0.000000 0.000000 0.000000
# 4 0.000000 0.000000 0.000000 -0.075397 0.000000 0.000000
# 5 0.000000 0.000000 0.000000 0.000000 0.098968 0.000000
# 6 0.000000 0.000000 0.000000 0.000000 0.000000 -0.023473
#
#
# Mechanical properties :
#
#
# Convention : Reuss Voigt Hill
#
# Bulk Modulus (GPa) = 32.09326 35.48283 33.78804
# Shear Modulus (GPa) = 53.78982 2.57004 28.17993
#
# Velocity S-wave (km/s) = 5.22495 1.14209 3.78183
# Velocity P-wave (km/s) = 7.25869 4.44386 6.01816
#
# Compressibility (1/GPa) = 0.03115919
#
# Stress axis : x y z
#
# Youngs Moduli (GPa) = 64.83891 47.75665 48.89455
#
# Poissons Ratio (x) = 0.38855 -0.28639
# Poissons Ratio (y) = 0.52753 0.51579
# Poissons Ratio (z) = -0.37978 0.50378
#
# Static dielectric constant tensor:
#      x y z
#    x 1.780800 0.000000 0.000000 
#    y 0.000000 1.697920 0.000000 
#    z 0.000000 0.000000 1.695590 
# 
# From -- ./inp_files/42864.got.cif
#   From: 2010.05.17/outbox.cif.g08.bks.cpg/sg74_22_cif.got.tgz:42864.got - 2010.06.03 17:57:02.
