data_PCOD9540033
_publ_section_title
;
Structure prediction by ZEFSAII (Michael W. Deem and Ramdas Pophale) SiO2 
 PCOD9540033
Probable space group: I M M A
;
_chemical_formula_sum "Si O2"
_cell_formula_units_Z 40
_cell_length_a 31.087509
_cell_length_b 11.777407
_cell_length_c 5.245332
_cell_angle_alpha 90.000000
_cell_angle_beta 90.000000
_cell_angle_gamma 90.000000
_cell_volume 1920.474696
_symmetry_space_group_name_H-M "I M M A"
_symmetry_group_IT_number 74
_symmetry_cell_setting 'orthorhombic'
loop_
_space_group_symop_operation_xyz
x,y,z
-x,1/2-y,z
x,-y,-z
-x,1/2+y,-z
-x,-y,-z
x,1/2+y,-z
-x,y,z
x,1/2-y,z
1/2+x,1/2+y,1/2+z
1/2-x,-y,1/2+z
1/2+x,1/2-y,1/2-z
1/2-x,y,1/2-z
1/2-x,1/2-y,1/2-z
1/2+x,y,1/2-z
1/2-x,1/2+y,1/2+z
1/2+x,-y,1/2+z
loop_
_atom_site_type_symbol
_atom_site_label
_atom_site_fract_x
_atom_site_fract_y
_atom_site_fract_z
Si Si1 0.000000 0.573866 0.252506
Si Si2 0.868797 0.750000 0.850578
Si Si3 0.575088 0.750000 0.160414
Si Si4 0.203555 0.875407 0.617692
O O1 0.000000 0.500000 0.500000
O O2 0.043367 0.646409 0.277608
O O3 0.000000 0.500000 0.000000
O O4 0.904799 0.750000 0.624345
O O5 0.836699 0.644225 0.805531
O O6 0.888041 0.750000 0.129104
O O7 0.202799 0.750000 0.472555
O O8 0.250000 0.877511 0.750000
O O9 0.198300 0.000000 0.500000
#
# Coordination Sequence:
#
# PCOD9540033 Si02
#       4
#     8   8   8  16
#     4  11  24  43  68  96 132 177 214 271 338 408
#     4  10  23  41  66  98 132 178 222 283 335 396
#     4  11  24  44  67  98 134 168 225 272 338 407
#     4   9  21  41  62  96 136 183 231 276 339 399
#
# _framework density 20.828182000000002
#
# number of rings (size 3 to 8) (size 9 to 14) (size 15 to 20)
#    1.200    0.800    0.000    2.400    0.000   12.000 
#    0.000    0.000    0.000    0.000    0.000    0.000 
#    0.000    0.000    0.000    0.000    0.000    0.000 
#
# Total GULP energy -111340.765100 kJ/mol
# GULP energy per Si atom -5567.038255 kJ/mol
# Density = 2.078078 g / cm^3
# Si number density = 20.828182 Si / 1000 Ang^3
#
#
#
# Elastic Constant Matrix: (Units=GPa)
#
#
# Indices 1 2 3 4 5 6 
#
# 1 101.7067 24.3472 14.7385 -0.0007 0.0000 -0.0004
# 2 24.3472 166.1800 37.4084 -0.0007 0.0000 -0.0006
# 3 14.7385 37.4084 80.2241 -0.0012 -0.0001 -0.0001
# 4 -0.0007 -0.0007 -0.0012 25.2857 0.0000 0.0000
# 5 0.0000 0.0000 -0.0001 0.0000 39.6140 -0.0001
# 6 -0.0004 -0.0006 -0.0001 0.0000 -0.0001 -106.4089
#
#
#
# Elastic Compliance Matrix: (Units=1/GPa)
#
#
# Indices 1 2 3 4 5 6 
#
# 1 0.010315 -0.001212 -0.001330 0.000000 0.000000 0.000000
# 2 -0.001212 0.006866 -0.002979 0.000000 0.000000 0.000000
# 3 -0.001330 -0.002979 0.014098 0.000001 0.000000 0.000000
# 4 0.000000 0.000000 0.000001 0.039548 0.000000 0.000000
# 5 0.000000 0.000000 0.000000 0.000000 0.025244 0.000000
# 6 0.000000 0.000000 0.000000 0.000000 0.000000 -0.009398
#
#
# Mechanical properties :
#
#
# Convention : Reuss Voigt Hill
#
# Bulk Modulus (GPa) = 49.41236 55.67766 52.54501
# Shear Modulus (GPa) = 47.86507 9.80593 28.83550
#
# Velocity S-wave (km/s) = 4.79904 2.17215 3.72485
# Velocity P-wave (km/s) = 7.38126 5.75160 6.61679
#
# Compressibility (1/GPa) = 0.02023785
#
# Stress axis : x y z
#
# Youngs Moduli (GPa) = 96.94589 145.65201 70.92992
#
# Poissons Ratio (x) = 0.17651 0.09433
# Poissons Ratio (y) = 0.11749 0.21129
# Poissons Ratio (z) = 0.12893 0.43387
#
# Static dielectric constant tensor:
#      x y z
#    x 1.723270 0.000000 0.000000 
#    y 0.000000 1.829980 0.000000 
#    z 0.000000 0.000000 1.760240 
# 
# From -- ./inp_files/4058.got.cif
#   From: 2010.05.17/outbox.cif.g08.bks.cpg/sg74_3_cif.got.tgz:4058.got - 2010.06.03 17:57:02.
