data_PCOD9540239
_publ_section_title
;
Structure prediction by ZEFSAII (Michael W. Deem and Ramdas Pophale) SiO2 
 PCOD9540239
Probable space group: I M M A
;
_chemical_formula_sum "Si O2"
_cell_formula_units_Z 80
_cell_length_a 9.981655
_cell_length_b 23.451091
_cell_length_c 21.778280
_cell_angle_alpha 90.000000
_cell_angle_beta 90.000000
_cell_angle_gamma 90.000000
_cell_volume 5097.875021
_symmetry_space_group_name_H-M "I M M A"
_symmetry_group_IT_number 74
_symmetry_cell_setting 'orthorhombic'
loop_
_space_group_symop_operation_xyz
x,y,z
-x,1/2-y,z
x,-y,-z
-x,1/2+y,-z
-x,-y,-z
x,1/2+y,-z
-x,y,z
x,1/2-y,z
1/2+x,1/2+y,1/2+z
1/2-x,-y,1/2+z
1/2+x,1/2-y,1/2-z
1/2-x,y,1/2-z
1/2-x,1/2-y,1/2-z
1/2+x,y,1/2-z
1/2-x,1/2+y,1/2+z
1/2+x,-y,1/2+z
loop_
_atom_site_type_symbol
_atom_site_label
_atom_site_fract_x
_atom_site_fract_y
_atom_site_fract_z
Si Si1 0.500000 0.868756 0.654239
Si Si2 0.000000 0.750000 0.636225
Si Si3 0.000000 0.126238 0.300486
Si Si4 0.348499 0.624834 0.014496
Si Si5 0.224827 0.073641 0.382725
Si Si6 0.000000 0.750000 0.912188
Si Si7 0.155764 0.533992 0.065304
Si Si8 0.286668 0.250000 0.027638
O O1 0.500000 0.873540 0.727397
O O2 0.368752 0.897842 0.626727
O O3 0.500000 0.804454 0.631357
O O4 0.000000 0.808331 0.675072
O O5 0.127500 0.750000 0.590775
O O6 0.128046 0.093505 0.328417
O O7 0.500000 0.614297 0.036744
O O8 0.235321 0.592311 0.053277
O O9 0.337056 0.598362 0.945762
O O10 0.323126 0.692134 0.007741
O O11 0.257339 0.006918 0.390612
O O12 0.131882 0.750000 0.953831
O O13 0.000000 0.541029 0.083913
O O14 0.153396 0.500000 0.000000
#
# Coordination Sequence:
#
# PCOD9540239 Si02
#       8
#     8   4   8  16  16   4  16   8
#     4  12  23  36  48  73  95 135 181 224 257 284
#     4  12  19  40  46  64 100 138 170 228 253 270
#     4  12  23  34  54  69  95 135 185 218 255 296
#     4  11  20  33  52  73  96 129 167 203 255 311
#     4  11  20  36  50  68  99 127 164 220 260 298
#     4  12  23  32  50  68  96 142 182 220 253 286
#     4   9  20  32  51  73  94 120 159 208 258 311
#     4  12  20  32  51  70 104 134 167 210 254 293
#
# _framework density 15.692812999999999
#
# number of rings (size 3 to 8) (size 9 to 14) (size 15 to 20)
#    0.000    1.000    7.000    0.900    4.200    1.200 
#    0.000    3.000    0.000    0.000    0.000    0.000 
#    0.000    0.000    0.000    5.400    0.000    0.100 
#
# Total GULP energy -223287.803772 kJ/mol
# GULP energy per Si atom -5582.195094 kJ/mol
# Density = 1.565710 g / cm^3
# Si number density = 15.692813 Si / 1000 Ang^3
#
#
#
# Elastic Constant Matrix: (Units=GPa)
#
#
# Indices 1 2 3 4 5 6 
#
# 1 109.1478 25.7589 7.7331 0.0000 0.0000 0.0000
# 2 25.7589 96.9545 22.5273 0.0000 0.0000 0.0000
# 3 7.7331 22.5273 19.6507 0.0000 0.0000 0.0000
# 4 0.0000 0.0000 0.0000 -4.5019 0.0000 0.0000
# 5 0.0000 0.0000 0.0000 0.0000 0.3261 0.0000
# 6 0.0000 0.0000 0.0000 0.0000 0.0000 19.8660
#
#
#
# Elastic Compliance Matrix: (Units=1/GPa)
#
#
# Indices 1 2 3 4 5 6 
#
# 1 0.009795 -0.002326 -0.001188 0.000000 0.000000 0.000000
# 2 -0.002326 0.014611 -0.015835 0.000000 0.000000 0.000000
# 3 -0.001188 -0.015835 0.069509 0.000000 0.000000 0.000000
# 4 0.000000 0.000000 0.000000 -0.222130 -0.000001 0.000000
# 5 0.000000 0.000000 0.000000 -0.000001 3.066743 0.000000
# 6 0.000000 0.000000 0.000000 0.000000 0.000000 0.050337
#
#
# Mechanical properties :
#
#
# Convention : Reuss Voigt Hill
#
# Bulk Modulus (GPa) = 18.11013 37.53240 27.82127
# Shear Modulus (GPa) = 1.64151 14.45363 8.04757
#
# Velocity S-wave (km/s) = 1.02386 3.03815 2.26701
# Velocity P-wave (km/s) = 3.60044 6.02295 4.96181
#
# Compressibility (1/GPa) = 0.05521773
#
# Stress axis : x y z
#
# Youngs Moduli (GPa) = 102.09228 68.43957 14.38660
#
# Poissons Ratio (x) = 0.15922 0.01709
# Poissons Ratio (y) = 0.23751 0.22781
# Poissons Ratio (z) = 0.12125 1.08373
#
# Static dielectric constant tensor:
#      x y z
#    x 1.538710 0.000000 0.000000 
#    y 0.000000 1.540620 0.000000 
#    z 0.000000 0.000000 1.490880 
# 
# From -- ./inp_files/48682.got.cif
#   From: 2010.05.17/outbox.cif.g08.bks.cpg/sg74_25_cif.got.tgz:48682.got - 2010.06.03 17:57:02.
