data_PCOD9540829
_publ_section_title
;
Structure prediction by ZEFSAII (Michael W. Deem and Ramdas Pophale) SiO2 
 PCOD9540829
Probable space group: I M M A
;
_chemical_formula_sum "Si O2"
_cell_formula_units_Z 48
_cell_length_a 15.000000
_cell_length_b 15.000000
_cell_length_c 21.000000
_cell_angle_alpha 90.000000
_cell_angle_beta 90.000000
_cell_angle_gamma 90.000000
_cell_volume 4725.000000
_symmetry_space_group_name_H-M "I M M A"
_symmetry_group_IT_number 74
_symmetry_cell_setting 'orthorhombic'
loop_
_space_group_symop_operation_xyz
x,y,z
-x,1/2-y,z
x,-y,-z
-x,1/2+y,-z
-x,-y,-z
x,1/2+y,-z
-x,y,z
x,1/2-y,z
1/2+x,1/2+y,1/2+z
1/2-x,-y,1/2+z
1/2+x,1/2-y,1/2-z
1/2-x,y,1/2-z
1/2-x,1/2-y,1/2-z
1/2+x,y,1/2-z
1/2-x,1/2+y,1/2+z
1/2+x,-y,1/2+z
loop_
_atom_site_type_symbol
_atom_site_label
_atom_site_fract_x
_atom_site_fract_y
_atom_site_fract_z
Si Si1 0.606231 0.153590 0.834401
Si Si2 0.102847 0.896596 0.480200
Si Si3 0.891577 0.026925 0.279264
Si Si4 0.295798 0.971891 0.652396
Si Si5 0.392093 0.144983 0.602814
Si Si6 0.705909 0.650705 0.532685
O O1 0.500000 0.163900 0.833618
O O2 0.648946 0.250000 0.825825
O O3 0.623209 0.116205 0.905287
O O4 0.622007 0.080014 0.781494
O O5 0.188614 0.855016 0.514574
O O6 0.000000 0.863379 0.491665
O O7 0.102180 0.000000 0.500000
O O8 0.808556 0.049153 0.327985
O O9 0.858561 0.060747 0.210807
O O10 0.000000 0.043969 0.292311
O O11 0.312922 0.921496 0.586546
O O12 0.329012 0.074236 0.640291
O O13 0.500000 0.124995 0.607305
O O14 0.381340 0.250000 0.621579
O O15 0.354602 0.137983 0.530265
O O16 0.688105 0.750000 0.557356
#
# Coordination Sequence:
#
# PCOD9540829 Si02
#       6
#    16  16  16  16  16  16
#     4   9  17  30  50  78 112 147 181 221 277 347
#     4  10  19  32  55  88 125 161 195 237 295 363
#     4  10  22  39  58  82 113 151 197 246 296 353
#     4  11  23  39  61  86 115 155 198 244 298 350
#     4  10  22  40  63  92 123 154 190 234 289 356
#     4  11  23  38  58  86 119 156 202 250 296 349
#
# _framework density 10.15873
#
# number of rings (size 3 to 8) (size 9 to 14) (size 15 to 20)
#    0.000    1.833    0.000    4.500    0.000    7.667 
#    0.000    5.000    0.000    1.000    0.000    0.000 
#    0.000    0.000    0.000    0.000    0.000    0.000 
#
# Total GULP energy -267387.342534 kJ/mol
# GULP energy per Si atom -5570.569636 kJ/mol
# Density = 1.013561 g / cm^3
# Si number density = 10.158730 Si / 1000 Ang^3
#
#
#
# Elastic Constant Matrix: (Units=GPa)
#
#
# Indices 1 2 3 4 5 6 
#
# 1 115.0549 7.0772 10.7138 0.0000 0.0000 0.0000
# 2 7.0772 46.4769 13.4675 0.0000 0.0000 0.0000
# 3 10.7138 13.4675 58.4347 0.0000 0.0000 0.0000
# 4 0.0000 0.0000 0.0000 -57.0978 0.0000 0.0000
# 5 0.0000 0.0000 0.0000 0.0000 23.1569 0.0000
# 6 0.0000 0.0000 0.0000 0.0000 0.0000 20.5044
#
#
#
# Elastic Compliance Matrix: (Units=1/GPa)
#
#
# Indices 1 2 3 4 5 6 
#
# 1 0.008881 -0.000944 -0.001411 0.000000 0.000000 0.000000
# 2 -0.000944 0.023156 -0.005164 0.000000 0.000000 0.000000
# 3 -0.001411 -0.005164 0.018562 0.000000 0.000000 0.000000
# 4 0.000000 0.000000 0.000000 -0.017514 0.000000 0.000000
# 5 0.000000 0.000000 0.000000 0.000000 0.043184 0.000000
# 6 0.000000 0.000000 0.000000 0.000000 0.000000 0.048770
#
#
# Mechanical properties :
#
#
# Convention : Reuss Voigt Hill
#
# Bulk Modulus (GPa) = 28.11947 31.38705 29.75326
# Shear Modulus (GPa) = 32.91006 9.89323 21.40165
#
# Velocity S-wave (km/s) = 4.02903 2.20905 3.24908
# Velocity P-wave (km/s) = 5.95938 4.68918 5.36202
#
# Compressibility (1/GPa) = 0.03556255
#
# Stress axis : x y z
#
# Youngs Moduli (GPa) = 112.60096 43.18529 53.87379
#
# Poissons Ratio (x) = 0.04075 0.07601
# Poissons Ratio (y) = 0.10624 0.27819
# Poissons Ratio (z) = 0.15886 0.22300
#
# Static dielectric constant tensor:
#      x y z
#    x 1.750880 0.000000 0.000000 
#    y 0.000000 1.680070 0.000000 
#    z 0.000000 0.000000 1.729200 
# 
# From -- ./inp_files/51881.got.cif
#   From: 2010.05.17/outbox.ucp.g08.bks.cvg/sg74_26_cif.got.tgz:51881.got - 2010.06.11 16:37:44.
