data_PCOD9540563
_publ_section_title
;
Structure prediction by ZEFSAII (Michael W. Deem and Ramdas Pophale) SiO2 
 PCOD9540563
Probable space group: I M M A
;
_chemical_formula_sum "Si O2"
_cell_formula_units_Z 104
_cell_length_a 20.976042
_cell_length_b 25.416241
_cell_length_c 10.047117
_cell_angle_alpha 90.000000
_cell_angle_beta 90.000000
_cell_angle_gamma 90.000000
_cell_volume 5356.440974
_symmetry_space_group_name_H-M "I M M A"
_symmetry_group_IT_number 74
_symmetry_cell_setting 'orthorhombic'
loop_
_space_group_symop_operation_xyz
x,y,z
-x,1/2-y,z
x,-y,-z
-x,1/2+y,-z
-x,-y,-z
x,1/2+y,-z
-x,y,z
x,1/2-y,z
1/2+x,1/2+y,1/2+z
1/2-x,-y,1/2+z
1/2+x,1/2-y,1/2-z
1/2-x,y,1/2-z
1/2-x,1/2-y,1/2-z
1/2+x,y,1/2-z
1/2-x,1/2+y,1/2+z
1/2+x,-y,1/2+z
loop_
_atom_site_type_symbol
_atom_site_label
_atom_site_fract_x
_atom_site_fract_y
_atom_site_fract_z
Si Si1 0.362915 0.610380 0.998464
Si Si2 0.676884 0.448231 0.755504
Si Si3 0.000000 0.877833 0.384109
Si Si4 0.124657 0.943272 0.773346
Si Si5 0.753353 0.310982 0.588859
Si Si6 0.500000 0.812651 0.378927
Si Si7 0.374701 0.372576 0.533992
Si Si8 0.500000 0.002359 0.838664
O O1 0.347371 0.560861 0.094827
O O2 0.436099 0.624931 0.028259
O O3 0.314663 0.655987 0.042466
O O4 0.353653 0.593616 0.847347
O O5 0.750000 0.431146 0.750000
O O6 0.672097 0.507899 0.707225
O O7 0.635658 0.410759 0.660715
O O8 0.000000 0.832957 0.273171
O O9 0.000000 0.935164 0.311688
O O10 0.117527 0.909253 0.905400
O O11 0.060540 0.972624 0.723101
O O12 0.757807 0.250000 0.549071
O O13 0.750000 0.312289 0.750000
O O14 0.689436 0.337616 0.530829
O O15 0.500000 0.750000 0.386273
O O16 0.563414 0.836881 0.444640
O O17 0.500000 0.000000 0.000000
#
# Coordination Sequence:
#
# PCOD9540563 Si02
#       8
#    16  16   8  16  16   8  16   8
#     4  12  22  42  64  98 129 169 220 265 320 398
#     4  12  23  41  63  97 139 177 219 263 319 397
#     4  12  22  39  69  97 128 158 233 270 305 393
#     4  12  26  36  66  97 138 177 207 263 333 400
#     4  11  23  45  70  89 121 173 224 277 339 392
#     4  12  25  44  72  95 122 169 229 289 327 373
#     4  12  24  44  63 101 132 168 223 276 330 396
#     4  12  19  43  64  92 136 193 207 247 332 417
#
# _framework density 19.415876000000001
#
# number of rings (size 3 to 8) (size 9 to 14) (size 15 to 20)
#    0.000    0.154    7.692    1.846    2.154    3.077 
#    0.000    4.615    0.000    0.923    0.000    0.000 
#    0.000    0.000    0.000    0.000    0.000    0.000 
#
# Total GULP energy -290915.669436 kJ/mol
# GULP energy per Si atom -5594.532105 kJ/mol
# Density = 1.937168 g / cm^3
# Si number density = 19.415876 Si / 1000 Ang^3
#
#
#
# Elastic Constant Matrix: (Units=GPa)
#
#
# Indices 1 2 3 4 5 6 
#
# 1 134.9930 60.0546 21.0420 0.0000 0.0000 0.0000
# 2 60.0546 145.1747 39.0256 0.0000 0.0000 0.0000
# 3 21.0420 39.0256 77.7956 0.0000 0.0000 0.0000
# 4 0.0000 0.0000 0.0000 -5.3734 0.0000 0.0000
# 5 0.0000 0.0000 0.0000 0.0000 15.5362 0.0000
# 6 0.0000 0.0000 0.0000 0.0000 0.0000 26.5006
#
#
#
# Elastic Compliance Matrix: (Units=1/GPa)
#
#
# Indices 1 2 3 4 5 6 
#
# 1 0.009108 -0.003590 -0.000663 0.000000 0.000000 0.000000
# 2 -0.003590 0.009377 -0.003733 0.000000 0.000000 0.000000
# 3 -0.000663 -0.003733 0.014906 0.000000 0.000000 0.000000
# 4 0.000000 0.000000 0.000000 -0.186102 0.000000 0.000000
# 5 0.000000 0.000000 0.000000 0.000000 0.064366 0.000000
# 6 0.000000 0.000000 0.000000 0.000000 0.000000 0.037735
#
#
# Mechanical properties :
#
#
# Convention : Reuss Voigt Hill
#
# Bulk Modulus (GPa) = 57.40451 66.46749 61.93600
# Shear Modulus (GPa) = -173.40840 23.18875 -75.10982
#
# Velocity S-wave (km/s) = -9.46079 3.45964 -6.22645
# Velocity P-wave (km/s) = 9.47165 7.08990 4.44103
#
# Compressibility (1/GPa) = 0.01742023
#
# Stress axis : x y z
#
# Youngs Moduli (GPa) = 109.79366 106.64865 67.08697
#
# Poissons Ratio (x) = 0.38282 0.04447
# Poissons Ratio (y) = 0.39411 0.25042
# Poissons Ratio (z) = 0.07278 0.39810
#
# Static dielectric constant tensor:
#      x y z
#    x 1.704980 0.000000 0.000000 
#    y 0.000000 1.667330 0.000000 
#    z 0.000000 0.000000 1.650240 
# 
# From -- ./inp_files/12830.got.cif
#   From: 2010.05.17/outbox.cif.g08.bks.cpg/sg74_7_cif.got.tgz:12830.got - 2010.06.03 17:57:02.
