data_PCOD9540831
_publ_section_title
;
Structure prediction by ZEFSAII (Michael W. Deem and Ramdas Pophale) SiO2 
 PCOD9540831
Probable space group: I M M A
;
_chemical_formula_sum "Si O2"
_cell_formula_units_Z 44
_cell_length_a 30.000000
_cell_length_b 9.000000
_cell_length_c 18.000000
_cell_angle_alpha 90.000000
_cell_angle_beta 90.000000
_cell_angle_gamma 90.000000
_cell_volume 4860.000000
_symmetry_space_group_name_H-M "I M M A"
_symmetry_group_IT_number 74
_symmetry_cell_setting 'orthorhombic'
loop_
_space_group_symop_operation_xyz
x,y,z
-x,1/2-y,z
x,-y,-z
-x,1/2+y,-z
-x,-y,-z
x,1/2+y,-z
-x,y,z
x,1/2-y,z
1/2+x,1/2+y,1/2+z
1/2-x,-y,1/2+z
1/2+x,1/2-y,1/2-z
1/2-x,y,1/2-z
1/2-x,1/2-y,1/2-z
1/2+x,y,1/2-z
1/2-x,1/2+y,1/2+z
1/2+x,-y,1/2+z
loop_
_atom_site_type_symbol
_atom_site_label
_atom_site_fract_x
_atom_site_fract_y
_atom_site_fract_z
Si Si1 0.925304 0.574975 0.674527
Si Si2 0.052662 0.070821 0.832789
Si Si3 0.676587 0.926236 0.803339
Si Si4 0.744307 0.570537 0.578940
Si Si5 0.155597 0.571891 0.144111
Si Si6 0.000000 0.425621 0.578889
O O1 0.935304 0.750000 0.670139
O O2 0.939319 0.514847 0.755750
O O3 0.872401 0.557015 0.659553
O O4 0.956075 0.482872 0.620135
O O5 0.053013 0.250000 0.822782
O O6 0.102117 0.037618 0.871688
O O7 0.000000 0.036831 0.858322
O O8 0.681727 0.750000 0.784088
O O9 0.718693 0.965830 0.856314
O O10 0.669586 0.019087 0.727547
O O11 0.758451 0.500000 0.500000
O O12 0.742628 0.750000 0.574363
O O13 0.694541 0.507580 0.596323
O O14 0.159984 0.750000 0.137674
O O15 0.000000 0.500000 0.500000
O O16 0.000000 0.250000 0.575395
#
# Coordination Sequence:
#
# PCOD9540831 Si02
#       6
#    16  16  16  16  16   8
#     4  10  19  33  52  76 103 133 173 220 265 314
#     4   9  17  31  53  80 110 140 172 215 265 314
#     4   9  20  37  57  81 110 143 181 226 275 323
#     4  11  23  39  57  78 109 147 184 228 279 333
#     4  10  20  34  56  86 114 144 183 226 271 324
#     4  12  24  36  48  66  98 140 181 220 267 320
#
# _framework density 9.0534979999999994
#
# number of rings (size 3 to 8) (size 9 to 14) (size 15 to 20)
#    0.000    2.000    0.909    3.000    0.000    5.818 
#    0.000    1.818    0.000    0.545    0.000    0.000 
#    0.000    0.000    0.000    0.000    0.000    0.000 
#
# Total GULP energy -244986.749788 kJ/mol
# GULP energy per Si atom -5567.880677 kJ/mol
# Density = 0.903289 g / cm^3
# Si number density = 9.053498 Si / 1000 Ang^3
#
#
#
# Elastic Constant Matrix: (Units=GPa)
#
#
# Indices 1 2 3 4 5 6 
#
# 1 135.7447 31.0518 10.0907 0.0000 0.0000 0.0000
# 2 31.0518 62.7693 11.3807 0.0000 0.0000 0.0000
# 3 10.0907 11.3807 26.7415 0.0000 0.0000 0.0000
# 4 0.0000 0.0000 0.0000 26.7794 0.0000 0.0000
# 5 0.0000 0.0000 0.0000 0.0000 12.6629 0.0000
# 6 0.0000 0.0000 0.0000 0.0000 0.0000 34.4472
#
#
#
# Elastic Compliance Matrix: (Units=1/GPa)
#
#
# Indices 1 2 3 4 5 6 
#
# 1 0.008363 -0.003863 -0.001512 0.000000 0.000000 0.000000
# 2 -0.003863 0.019048 -0.006649 0.000000 0.000000 0.000000
# 3 -0.001512 -0.006649 0.040795 0.000000 0.000000 0.000000
# 4 0.000000 0.000000 0.000000 0.037342 0.000000 0.000000
# 5 0.000000 0.000000 0.000000 0.000000 0.078971 0.000000
# 6 0.000000 0.000000 0.000000 0.000000 0.000000 0.029030
#
#
# Mechanical properties :
#
#
# Convention : Reuss Voigt Hill
#
# Bulk Modulus (GPa) = 22.64544 36.70021 29.67282
# Shear Modulus (GPa) = 19.81649 26.29339 23.05494
#
# Velocity S-wave (km/s) = 3.31178 3.81479 3.57215
# Velocity P-wave (km/s) = 5.21128 6.30207 5.78245
#
# Compressibility (1/GPa) = 0.04415901
#
# Stress axis : x y z
#
# Youngs Moduli (GPa) = 119.57712 52.49935 24.51274
#
# Poissons Ratio (x) = 0.20280 0.03705
# Poissons Ratio (y) = 0.46193 0.16298
# Poissons Ratio (z) = 0.18075 0.34906
#
# Static dielectric constant tensor:
#      x y z
#    x 1.487130 0.000000 0.000000 
#    y 0.000000 1.592220 0.000000 
#    z 0.000000 0.000000 1.616370 
# 
# From -- ./inp_files/47050.got.cif
#   From: 2010.05.17/outbox.ucp.g08.bks.cvg/sg74_24_cif.got.tgz:47050.got - 2010.06.11 16:37:44.
