data_PCOD9540018
_publ_section_title
;
Structure prediction by ZEFSAII (Michael W. Deem and Ramdas Pophale) SiO2 
 PCOD9540018
Probable space group: I M M A
;
_chemical_formula_sum "Si O2"
_cell_formula_units_Z 96
_cell_length_a 20.773574
_cell_length_b 16.262973
_cell_length_c 14.329616
_cell_angle_alpha 90.000000
_cell_angle_beta 90.000000
_cell_angle_gamma 90.000000
_cell_volume 4841.118517
_symmetry_space_group_name_H-M "I M M A"
_symmetry_group_IT_number 74
_symmetry_cell_setting 'orthorhombic'
loop_
_space_group_symop_operation_xyz
x,y,z
-x,1/2-y,z
x,-y,-z
-x,1/2+y,-z
-x,-y,-z
x,1/2+y,-z
-x,y,z
x,1/2-y,z
1/2+x,1/2+y,1/2+z
1/2-x,-y,1/2+z
1/2+x,1/2-y,1/2-z
1/2-x,y,1/2-z
1/2-x,1/2-y,1/2-z
1/2+x,y,1/2-z
1/2-x,1/2+y,1/2+z
1/2+x,-y,1/2+z
loop_
_atom_site_type_symbol
_atom_site_label
_atom_site_fract_x
_atom_site_fract_y
_atom_site_fract_z
Si Si1 0.070287 0.563043 0.413405
Si Si2 0.142230 0.750000 0.796785
Si Si3 0.572648 0.949296 0.295081
Si Si4 0.337671 0.652605 0.405071
Si Si5 0.294871 0.596824 0.028434
Si Si6 0.783825 0.250000 0.389516
Si Si7 0.076066 0.111618 0.086610
O O1 0.068988 0.500000 0.500000
O O2 0.076351 0.520634 0.311793
O O3 0.135568 0.613286 0.426161
O O4 0.000000 0.605627 0.413502
O O5 0.160542 0.750000 0.688534
O O6 0.212308 0.750000 0.845837
O O7 0.101931 0.827135 0.833960
O O8 0.500000 0.918544 0.309836
O O9 0.623288 0.878802 0.316200
O O10 0.583639 0.021508 0.369480
O O11 0.330495 0.750000 0.407718
O O12 0.267772 0.611698 0.409002
O O13 0.380246 0.626707 0.495732
O O14 0.293466 0.500000 0.000000
O O15 0.288478 0.665249 0.947478
O O16 0.000000 0.124983 0.066719
#
# Coordination Sequence:
#
# PCOD9540018 Si02
#       7
#    16   8  16  16  16   8  16
#     4   9  21  43  66  90 121 162 212 271 325 378
#     4  11  23  38  64  91 138 168 206 267 325 381
#     4  10  23  40  63  93 125 166 218 264 320 388
#     4  12  23  41  61  91 135 169 211 264 317 392
#     4  11  22  41  68  93 127 170 212 266 327 385
#     4  11  24  44  60  98 134 166 218 270 318 383
#     4  11  21  38  64  96 130 168 212 262 319 388
#
# _framework density 19.830127999999998
#
# number of rings (size 3 to 8) (size 9 to 14) (size 15 to 20)
#    0.000    1.333    3.333    2.250    4.667    3.000 
#    1.500    2.083    0.000    0.000    0.000    0.000 
#    0.000    0.000    0.000    0.000    0.000    0.000 
#
# Total GULP energy -267766.155347 kJ/mol
# GULP energy per Si atom -5578.461570 kJ/mol
# Density = 1.978499 g / cm^3
# Si number density = 19.830128 Si / 1000 Ang^3
#
#
#
# Elastic Constant Matrix: (Units=GPa)
#
#
# Indices 1 2 3 4 5 6 
#
# 1 136.9569 45.4503 13.3464 0.0000 0.0000 0.0000
# 2 45.4503 80.6549 25.8848 0.0000 0.0000 0.0000
# 3 13.3464 25.8848 57.6803 0.0000 0.0000 0.0000
# 4 0.0000 0.0000 0.0000 13.2997 0.0000 0.0000
# 5 0.0000 0.0000 0.0000 0.0000 26.1253 0.0000
# 6 0.0000 0.0000 0.0000 0.0000 0.0000 31.9670
#
#
#
# Elastic Compliance Matrix: (Units=1/GPa)
#
#
# Indices 1 2 3 4 5 6 
#
# 1 0.008984 -0.005135 0.000226 0.000000 0.000000 0.000000
# 2 -0.005135 0.017420 -0.006629 0.000000 0.000000 0.000000
# 3 0.000226 -0.006629 0.020260 0.000000 0.000000 0.000000
# 4 0.000000 0.000000 0.000000 0.075190 0.000000 0.000000
# 5 0.000000 0.000000 0.000000 0.000000 0.038277 0.000000
# 6 0.000000 0.000000 0.000000 0.000000 0.000000 0.031282
#
#
# Mechanical properties :
#
#
# Convention : Reuss Voigt Hill
#
# Bulk Modulus (GPa) = 42.39769 49.40612 45.90190
# Shear Modulus (GPa) = 22.48699 26.98575 24.73637
#
# Velocity S-wave (km/s) = 3.37112 3.69297 3.53571
# Velocity P-wave (km/s) = 6.04809 6.56908 6.31396
#
# Compressibility (1/GPa) = 0.02358619
#
# Stress axis : x y z
#
# Youngs Moduli (GPa) = 111.31384 57.40678 49.35921
#
# Poissons Ratio (x) = 0.29477 -0.01114
# Poissons Ratio (y) = 0.57158 0.32721
# Poissons Ratio (z) = -0.02512 0.38056
#
# Static dielectric constant tensor:
#      x y z
#    x 1.709900 0.000000 0.000000 
#    y 0.000000 1.700810 0.000000 
#    z 0.000000 0.000000 1.725230 
# 
# From -- ./inp_files/35322.got.cif
#   From: 2010.05.17/outbox.cif.g08.bks.cpg/sg74_18_cif.got.tgz:35322.got - 2010.06.03 17:57:02.
