data_PCOD9540635
_publ_section_title
;
Structure prediction by ZEFSAII (Michael W. Deem and Ramdas Pophale) SiO2 
 PCOD9540635
Probable space group: I M M A
;
_chemical_formula_sum "Si O2"
_cell_formula_units_Z 96
_cell_length_a 14.272379
_cell_length_b 16.089475
_cell_length_c 24.576798
_cell_angle_alpha 90.000000
_cell_angle_beta 90.000000
_cell_angle_gamma 90.000000
_cell_volume 5643.695100
_symmetry_space_group_name_H-M "I M M A"
_symmetry_group_IT_number 74
_symmetry_cell_setting 'orthorhombic'
loop_
_space_group_symop_operation_xyz
x,y,z
-x,1/2-y,z
x,-y,-z
-x,1/2+y,-z
-x,-y,-z
x,1/2+y,-z
-x,y,z
x,1/2-y,z
1/2+x,1/2+y,1/2+z
1/2-x,-y,1/2+z
1/2+x,1/2-y,1/2-z
1/2-x,y,1/2-z
1/2-x,1/2-y,1/2-z
1/2+x,y,1/2-z
1/2-x,1/2+y,1/2+z
1/2+x,-y,1/2+z
loop_
_atom_site_type_symbol
_atom_site_label
_atom_site_fract_x
_atom_site_fract_y
_atom_site_fract_z
Si Si1 0.885554 0.750000 0.220410
Si Si2 0.390112 0.933394 0.150454
Si Si3 0.389152 0.566581 0.281607
Si Si4 0.613651 0.250000 0.845564
Si Si5 0.611044 0.655900 0.430601
Si Si6 0.390355 0.155296 0.438500
Si Si7 0.206833 0.494268 0.121555
O O1 0.858554 0.840477 0.199153
O O2 0.853333 0.750000 0.283161
O O3 0.000000 0.750000 0.220070
O O4 0.500000 0.946621 0.139427
O O5 0.378039 0.936257 0.216342
O O6 0.362255 0.839868 0.131141
O O7 0.318360 0.996573 0.123844
O O8 0.500000 0.557631 0.292341
O O9 0.332341 0.500896 0.316750
O O10 0.500000 0.250000 0.842623
O O11 0.500000 0.650016 0.417044
O O12 0.641257 0.750000 0.414007
O O13 0.619207 0.651291 0.496138
O O14 0.663345 0.576258 0.406970
O O15 0.500000 0.139231 0.426254
O O16 0.368373 0.250000 0.421985
O O17 0.328928 0.086702 0.408914
#
# Coordination Sequence:
#
# PCOD9540635 Si02
#       7
#     8  16  16   8  16  16  16
#     4   7  12  23  37  55  90 133 155 176 219 277
#     4   9  19  32  44  64 102 141 167 198 234 274
#     4   9  17  28  42  67 102 132 159 193 237 283
#     4   7  12  27  43  53  82 137 175 182 213 273
#     4   9  19  33  49  75 107 126 143 187 250 305
#     4   9  19  37  55  71  96 126 154 194 252 306
#     4  12  20  27  51  78  94 125 172 203 229 283
#
# _framework density 17.010133
#
# number of rings (size 3 to 8) (size 9 to 14) (size 15 to 20)
#    0.000    2.833    0.000    5.500    2.333    1.333 
#    0.000    2.500    0.000    4.500    0.000    4.667 
#    0.000    0.000    0.000    0.000    0.000    0.000 
#
# Total GULP energy -267649.042341 kJ/mol
# GULP energy per Si atom -5576.021715 kJ/mol
# Density = 1.697142 g / cm^3
# Si number density = 17.010133 Si / 1000 Ang^3
#
#
#
# Elastic Constant Matrix: (Units=GPa)
#
#
# Indices 1 2 3 4 5 6 
#
# 1 85.9086 58.3466 29.7642 0.0000 0.0000 0.0000
# 2 58.3466 91.4929 38.5734 0.0000 0.0000 0.0000
# 3 29.7642 38.5734 26.9829 0.0000 0.0000 0.0000
# 4 0.0000 0.0000 0.0000 23.3598 0.0000 0.0000
# 5 0.0000 0.0000 0.0000 0.0000 14.7381 0.0000
# 6 0.0000 0.0000 0.0000 0.0000 0.0000 23.7645
#
#
#
# Elastic Compliance Matrix: (Units=1/GPa)
#
#
# Indices 1 2 3 4 5 6 
#
# 1 0.021640 -0.009404 -0.010426 0.000000 0.000000 0.000000
# 2 -0.009404 0.031597 -0.034796 0.000000 0.000000 0.000000
# 3 -0.010426 -0.034796 0.098304 0.000000 0.000000 0.000000
# 4 0.000000 0.000000 0.000000 0.042809 0.000000 0.000000
# 5 0.000000 0.000000 0.000000 0.000000 0.067851 0.000000
# 6 0.000000 0.000000 0.000000 0.000000 0.000000 0.042080
#
#
# Mechanical properties :
#
#
# Convention : Reuss Voigt Hill
#
# Bulk Modulus (GPa) = 23.64752 50.86143 37.25447
# Shear Modulus (GPa) = 11.69236 17.55251 14.62244
#
# Velocity S-wave (km/s) = 2.62463 3.21578 2.93513
# Velocity P-wave (km/s) = 4.80803 6.61467 5.78235
#
# Compressibility (1/GPa) = 0.04228773
#
# Stress axis : x y z
#
# Youngs Moduli (GPa) = 46.21130 31.64853 10.17250
#
# Poissons Ratio (x) = 0.29763 0.10606
# Poissons Ratio (y) = 0.43458 0.35396
# Poissons Ratio (z) = 0.48182 1.10124
#
# Static dielectric constant tensor:
#      x y z
#    x 1.605850 0.000000 0.000000 
#    y 0.000000 1.568600 0.000000 
#    z 0.000000 0.000000 1.592770 
# 
# From -- ./inp_files/60026.got.cif
#   From: 2010.05.17/outbox.cif.g08.bks.cpg/sg74_31_cif.got.tgz:60026.got - 2010.06.03 17:57:02.
