data_PCOD9540381
_publ_section_title
;
Structure prediction by ZEFSAII (Michael W. Deem and Ramdas Pophale) SiO2 
 PCOD9540381
Probable space group: I M M A
;
_chemical_formula_sum "Si O2"
_cell_formula_units_Z 68
_cell_length_a 21.141145
_cell_length_b 13.959470
_cell_length_c 9.074705
_cell_angle_alpha 90.000000
_cell_angle_beta 90.000000
_cell_angle_gamma 90.000000
_cell_volume 2678.119493
_symmetry_space_group_name_H-M "I M M A"
_symmetry_group_IT_number 74
_symmetry_cell_setting 'orthorhombic'
loop_
_space_group_symop_operation_xyz
x,y,z
-x,1/2-y,z
x,-y,-z
-x,1/2+y,-z
-x,-y,-z
x,1/2+y,-z
-x,y,z
x,1/2-y,z
1/2+x,1/2+y,1/2+z
1/2-x,-y,1/2+z
1/2+x,1/2-y,1/2-z
1/2-x,y,1/2-z
1/2-x,1/2-y,1/2-z
1/2+x,y,1/2-z
1/2-x,1/2+y,1/2+z
1/2+x,-y,1/2+z
loop_
_atom_site_type_symbol
_atom_site_label
_atom_site_fract_x
_atom_site_fract_y
_atom_site_fract_z
Si Si1 0.253289 0.105638 0.430257
Si Si2 0.071143 0.042936 0.308674
Si Si3 0.000000 0.750000 0.093397
Si Si4 0.623202 0.642182 0.085549
Si Si5 0.392934 0.114268 0.483188
O O1 0.250000 0.108078 0.250000
O O2 0.190883 0.148225 0.504998
O O3 0.320132 0.145662 0.487945
O O4 0.253030 0.000000 0.500000
O O5 0.076685 0.100501 0.461069
O O6 0.086915 0.122145 0.187332
O O7 0.000000 0.007866 0.286870
O O8 0.119449 0.951313 0.306957
O O9 0.055845 0.831910 0.078272
O O10 0.606174 0.750000 0.134831
O O11 0.397475 0.000000 0.500000
#
# Coordination Sequence:
#
# PCOD9540381 Si02
#       5
#    16  16   4  16  16
#     4  11  21  41  70  97 137 179 224 281 347 398
#     4  11  23  43  65  94 135 177 223 276 346 396
#     4  12  26  44  66 100 132 174 238 270 334 392
#     4  11  23  39  64  97 133 166 223 277 335 405
#     4  11  25  43  69  97 136 177 224 280 332 406
#
# _framework density 25.390951000000001
#
# number of rings (size 3 to 8) (size 9 to 14) (size 15 to 20)
#    0.000    0.941    5.882    1.765    3.294    2.353 
#    2.118    0.000    0.000    3.529    0.000    0.000 
#    0.000    0.000    0.000    0.000    0.000    0.000 
#
# Total GULP energy -189466.814971 kJ/mol
# GULP energy per Si atom -5572.553382 kJ/mol
# Density = 2.533316 g / cm^3
# Si number density = 25.390951 Si / 1000 Ang^3
#
#
#
# Elastic Constant Matrix: (Units=GPa)
#
#
# Indices 1 2 3 4 5 6 
#
# 1 206.7450 53.5561 17.6247 0.0000 0.0000 0.0000
# 2 53.5561 174.4044 21.9855 0.0000 0.0000 0.0000
# 3 17.6247 21.9855 65.5402 0.0000 0.0000 0.0000
# 4 0.0000 0.0000 0.0000 3.8966 0.0000 0.0000
# 5 0.0000 0.0000 0.0000 0.0000 3.2277 0.0000
# 6 0.0000 0.0000 0.0000 0.0000 0.0000 292.8326
#
#
#
# Elastic Compliance Matrix: (Units=1/GPa)
#
#
# Indices 1 2 3 4 5 6 
#
# 1 0.005307 -0.001514 -0.000919 0.000000 0.000000 0.000000
# 2 -0.001514 0.006419 -0.001746 0.000000 0.000000 0.000000
# 3 -0.000919 -0.001746 0.016091 0.000000 0.000000 0.000000
# 4 0.000000 0.000000 0.000000 0.256637 0.000000 0.000000
# 5 0.000000 0.000000 0.000000 0.000000 0.309820 0.000000
# 6 0.000000 0.000000 0.000000 0.000000 0.000000 0.003415
#
#
# Mechanical properties :
#
#
# Convention : Reuss Voigt Hill
#
# Bulk Modulus (GPa) = 51.39213 70.33579 60.86396
# Shear Modulus (GPa) = 8.16282 83.55958 45.86120
#
# Velocity S-wave (km/s) = 1.79495 5.74288 4.25455
# Velocity P-wave (km/s) = 4.95783 8.46968 6.93958
#
# Compressibility (1/GPa) = 0.01945823
#
# Stress axis : x y z
#
# Youngs Moduli (GPa) = 188.41536 155.79239 62.14736
#
# Poissons Ratio (x) = 0.23585 0.05714
# Poissons Ratio (y) = 0.28524 0.10851
# Poissons Ratio (z) = 0.17323 0.27203
#
# Static dielectric constant tensor:
#      x y z
#    x 1.956610 0.000000 0.000000 
#    y 0.000000 1.990080 0.000000 
#    z 0.000000 0.000000 2.216410 
# 
# From -- ./inp_files/23398.got.cif
#   From: 2010.05.17/outbox.cif.g08.bks.cpg/sg74_12_cif.got.tgz:23398.got - 2010.06.03 17:57:02.
