data_PCOD9540820
_publ_section_title
;
Structure prediction by ZEFSAII (Michael W. Deem and Ramdas Pophale) SiO2 
 PCOD9540820
Probable space group: I M M A
;
_chemical_formula_sum "Si O2"
_cell_formula_units_Z 60
_cell_length_a 9.000000
_cell_length_b 27.000000
_cell_length_c 27.000000
_cell_angle_alpha 90.000000
_cell_angle_beta 90.000000
_cell_angle_gamma 90.000000
_cell_volume 6561.000000
_symmetry_space_group_name_H-M "I M M A"
_symmetry_group_IT_number 74
_symmetry_cell_setting 'orthorhombic'
loop_
_space_group_symop_operation_xyz
x,y,z
-x,1/2-y,z
x,-y,-z
-x,1/2+y,-z
-x,-y,-z
x,1/2+y,-z
-x,y,z
x,1/2-y,z
1/2+x,1/2+y,1/2+z
1/2-x,-y,1/2+z
1/2+x,1/2-y,1/2-z
1/2-x,y,1/2-z
1/2-x,1/2-y,1/2-z
1/2+x,y,1/2-z
1/2-x,1/2+y,1/2+z
1/2+x,-y,1/2+z
loop_
_atom_site_type_symbol
_atom_site_label
_atom_site_fract_x
_atom_site_fract_y
_atom_site_fract_z
Si Si1 0.321591 0.575409 0.698129
Si Si2 0.821289 0.152754 0.022557
Si Si3 0.178035 0.195767 0.918172
Si Si4 0.171603 0.029405 0.702288
Si Si5 0.821013 0.250000 0.197468
Si Si6 0.831014 0.104358 0.613209
Si Si7 0.180546 0.161492 0.129190
Si Si8 0.822722 0.056087 0.508363
O O1 0.500000 0.576382 0.702426
O O2 0.250000 0.593387 0.750000
O O3 0.261050 0.520362 0.690611
O O4 0.275322 0.609005 0.651857
O O5 0.768951 0.174595 0.074299
O O6 0.000000 0.153639 0.020710
O O7 0.767912 0.180388 0.973307
O O8 0.765721 0.096408 0.022724
O O9 0.233367 0.250000 0.904769
O O10 0.228490 0.151844 0.883140
O O11 0.000000 0.197018 0.919806
O O12 0.250000 0.051801 0.750000
O O13 0.177525 0.067981 0.658643
O O14 0.000000 0.016411 0.712504
O O15 0.750000 0.250000 0.250000
O O16 0.771575 0.297774 0.167665
O O17 0.000000 0.250000 0.200443
O O18 0.793980 0.072576 0.564609
O O19 0.000000 0.122065 0.606985
O O20 0.000000 0.161867 0.127633
O O21 0.000000 0.059627 0.498772
O O22 0.776201 0.000000 0.500000
#
# Coordination Sequence:
#
# PCOD9540820 Si02
#       8
#    16  16  16  16   8  16  16  16
#     4  10  19  32  48  70  97 128 167 208 252 298
#     4   9  18  32  48  72 100 128 165 204 245 293
#     4   9  18  32  53  78 102 129 164 206 248 294
#     4  10  20  34  53  77 103 133 168 203 245 294
#     4  10  20  36  54  70  94 130 170 216 267 308
#     4   9  19  34  51  74 102 134 168 200 244 301
#     4   9  19  32  50  73  96 127 167 212 258 302
#     4   9  18  32  49  70 100 134 165 198 241 292
#
# _framework density 9.1449470000000002
#
# number of rings (size 3 to 8) (size 9 to 14) (size 15 to 20)
#    0.000    2.667    0.000    2.000    2.800    1.600 
#    0.000    2.000    0.000    0.400    0.000    0.000 
#    0.000    0.000    0.000    0.000    0.000    0.000 
#
# Total GULP energy -334096.396714 kJ/mol
# GULP energy per Si atom -5568.273279 kJ/mol
# Density = 0.912413 g / cm^3
# Si number density = 9.144947 Si / 1000 Ang^3
#
#
#
# Elastic Constant Matrix: (Units=GPa)
#
#
# Indices 1 2 3 4 5 6 
#
# 1 23.5074 19.1462 14.7098 0.0000 0.0000 0.0000
# 2 19.1462 35.2115 13.8216 0.0000 0.0000 0.0000
# 3 14.7098 13.8216 43.4684 0.0000 0.0000 0.0000
# 4 0.0000 0.0000 0.0000 1.9353 0.0000 0.0000
# 5 0.0000 0.0000 0.0000 0.0000 17.2949 0.0000
# 6 0.0000 0.0000 0.0000 0.0000 0.0000 18.6317
#
#
#
# Elastic Compliance Matrix: (Units=1/GPa)
#
#
# Indices 1 2 3 4 5 6 
#
# 1 0.085207 -0.040006 -0.016113 0.000000 0.000000 0.000000
# 2 -0.040006 0.051234 -0.002752 0.000000 0.000000 0.000000
# 3 -0.016113 -0.002752 0.029333 0.000000 0.000000 0.000000
# 4 0.000000 0.000000 0.000000 0.516704 0.000000 0.000000
# 5 0.000000 0.000000 0.000000 0.000000 0.057820 0.000000
# 6 0.000000 0.000000 0.000000 0.000000 0.000000 0.053672
#
#
# Mechanical properties :
#
#
# Convention : Reuss Voigt Hill
#
# Bulk Modulus (GPa) = 20.82054 21.94915 21.38485
# Shear Modulus (GPa) = 5.38954 11.20637 8.29795
#
# Velocity S-wave (km/s) = 1.71847 2.47798 2.13231
# Velocity P-wave (km/s) = 3.91738 4.49599 4.21662
#
# Compressibility (1/GPa) = 0.04802949
#
# Stress axis : x y z
#
# Youngs Moduli (GPa) = 11.73614 19.51848 34.09101
#
# Poissons Ratio (x) = 0.78086 0.54932
# Poissons Ratio (y) = 0.46952 0.09384
# Poissons Ratio (z) = 0.18911 0.05372
#
# Static dielectric constant tensor:
#      x y z
#    x 1.640930 0.000000 0.000000 
#    y 0.000000 1.636520 0.000000 
#    z 0.000000 0.000000 1.651650 
# 
# From -- ./inp_files/65149.got.cif
#   From: 2010.05.17/outbox.ucp.g08.bks.cvg/sg74_33_cif.got.tgz:65149.got - 2010.06.11 16:37:44.
