data_PCOD9540502
_publ_section_title
;
Structure prediction by ZEFSAII (Michael W. Deem and Ramdas Pophale) SiO2 
 PCOD9540502
Probable space group: I M M A
;
_chemical_formula_sum "Si O2"
_cell_formula_units_Z 64
_cell_length_a 24.931839
_cell_length_b 9.397728
_cell_length_c 13.950422
_cell_angle_alpha 90.000000
_cell_angle_beta 90.000000
_cell_angle_gamma 90.000000
_cell_volume 3268.620724
_symmetry_space_group_name_H-M "I M M A"
_symmetry_group_IT_number 74
_symmetry_cell_setting 'orthorhombic'
loop_
_space_group_symop_operation_xyz
x,y,z
-x,1/2-y,z
x,-y,-z
-x,1/2+y,-z
-x,-y,-z
x,1/2+y,-z
-x,y,z
x,1/2-y,z
1/2+x,1/2+y,1/2+z
1/2-x,-y,1/2+z
1/2+x,1/2-y,1/2-z
1/2-x,y,1/2-z
1/2-x,1/2-y,1/2-z
1/2+x,y,1/2-z
1/2-x,1/2+y,1/2+z
1/2+x,-y,1/2+z
loop_
_atom_site_type_symbol
_atom_site_label
_atom_site_fract_x
_atom_site_fract_y
_atom_site_fract_z
Si Si1 0.062938 0.750000 0.151526
Si Si2 0.164655 0.415428 0.407778
Si Si3 0.276588 0.422707 0.598379
Si Si4 0.379622 0.978995 0.708559
Si Si5 0.065646 0.250000 0.072168
O O1 0.083857 0.616257 0.208498
O O2 0.000000 0.750000 0.144250
O O3 0.082266 0.750000 0.039955
O O4 0.142048 0.500000 0.500000
O O5 0.177555 0.250000 0.431379
O O6 0.218827 0.504589 0.383566
O O7 0.127654 0.416062 0.314063
O O8 0.294110 0.500000 0.500000
O O9 0.273863 0.250000 0.593171
O O10 0.320978 0.471174 0.673773
O O11 0.407884 0.880334 0.629253
O O12 0.000000 0.250000 0.077953
#
# Coordination Sequence:
#
# PCOD9540502 Si02
#       5
#     8  16  16  16   8
#     4  11  24  42  66  97 129 163 202 258 316 377
#     4  11  25  42  64  92 128 167 211 260 307 365
#     4  11  23  37  62  96 133 168 207 253 306 375
#     4  12  24  39  67  95 126 170 210 252 312 374
#     4  11  24  44  66  95 129 161 206 260 318 375
#
# _framework density 19.580124999999999
#
# number of rings (size 3 to 8) (size 9 to 14) (size 15 to 20)
#    0.000    0.750    2.500    6.750    7.000    4.000 
#    0.000    0.000    0.000    4.500    0.000    0.000 
#    0.000    0.000    0.000    0.000    0.000    0.000 
#
# Total GULP energy -178654.153788 kJ/mol
# GULP energy per Si atom -5582.942306 kJ/mol
# Density = 1.953556 g / cm^3
# Si number density = 19.580125 Si / 1000 Ang^3
#
#
#
# Elastic Constant Matrix: (Units=GPa)
#
#
# Indices 1 2 3 4 5 6 
#
# 1 32.4312 22.3374 43.5695 0.0000 0.0000 0.0000
# 2 22.3374 162.3029 33.8731 0.0000 0.0000 0.0000
# 3 43.5695 33.8731 104.6828 0.0000 0.0000 0.0000
# 4 0.0000 0.0000 0.0000 45.1977 0.0000 0.0000
# 5 0.0000 0.0000 0.0000 0.0000 25.0847 0.0000
# 6 0.0000 0.0000 0.0000 0.0000 0.0000 53.4769
#
#
#
# Elastic Compliance Matrix: (Units=1/GPa)
#
#
# Indices 1 2 3 4 5 6 
#
# 1 0.072208 -0.003931 -0.028781 0.000000 0.000000 0.000000
# 2 -0.003931 0.006822 -0.000571 0.000000 0.000000 0.000000
# 3 -0.028781 -0.000571 0.021716 0.000000 0.000000 0.000000
# 4 0.000000 0.000000 0.000000 0.022125 0.000000 0.000000
# 5 0.000000 0.000000 0.000000 0.000000 0.039865 0.000000
# 6 0.000000 0.000000 0.000000 0.000000 0.000000 0.018700
#
#
# Mechanical properties :
#
#
# Convention : Reuss Voigt Hill
#
# Bulk Modulus (GPa) = 29.25776 55.44185 42.34981
# Shear Modulus (GPa) = 19.27550 38.06098 28.66824
#
# Velocity S-wave (km/s) = 3.14099 4.41370 3.83057
# Velocity P-wave (km/s) = 5.30372 7.37233 6.42186
#
# Compressibility (1/GPa) = 0.03417897
#
# Stress axis : x y z
#
# Youngs Moduli (GPa) = 13.84880 146.59423 46.04798
#
# Poissons Ratio (x) = 0.57628 1.32533
# Poissons Ratio (y) = 0.05444 0.02630
# Poissons Ratio (z) = 0.39859 0.08373
#
# Static dielectric constant tensor:
#      x y z
#    x 1.672820 0.000000 0.000000 
#    y 0.000000 1.795350 0.000000 
#    z 0.000000 0.000000 1.709800 
# 
# From -- ./inp_files/28845.got.cif
#   From: 2010.05.17/outbox.cif.g08.bks.cpg/sg74_15_cif.got.tgz:28845.got - 2010.06.03 17:57:02.
