data_PCOD9540024
_publ_section_title
;
Structure prediction by ZEFSAII (Michael W. Deem and Ramdas Pophale) SiO2 
 PCOD9540024
Probable space group: I M M A
;
_chemical_formula_sum "Si O2"
_cell_formula_units_Z 116
_cell_length_a 8.602257
_cell_length_b 27.588754
_cell_length_c 25.884735
_cell_angle_alpha 90.000000
_cell_angle_beta 90.000000
_cell_angle_gamma 90.000000
_cell_volume 6143.109028
_symmetry_space_group_name_H-M "I M M A"
_symmetry_group_IT_number 74
_symmetry_cell_setting 'orthorhombic'
loop_
_space_group_symop_operation_xyz
x,y,z
-x,1/2-y,z
x,-y,-z
-x,1/2+y,-z
-x,-y,-z
x,1/2+y,-z
-x,y,z
x,1/2-y,z
1/2+x,1/2+y,1/2+z
1/2-x,-y,1/2+z
1/2+x,1/2-y,1/2-z
1/2-x,y,1/2-z
1/2-x,1/2-y,1/2-z
1/2+x,y,1/2-z
1/2-x,1/2+y,1/2+z
1/2+x,-y,1/2+z
loop_
_atom_site_type_symbol
_atom_site_label
_atom_site_fract_x
_atom_site_fract_y
_atom_site_fract_z
Si Si1 0.827615 0.847966 0.100265
Si Si2 0.000000 0.250000 0.878955
Si Si3 0.312875 0.804083 0.608021
Si Si4 0.186976 0.620289 0.804679
Si Si5 0.685062 0.644310 0.988517
Si Si6 0.186445 0.413801 0.805109
Si Si7 0.812984 0.017082 0.338685
Si Si8 0.689191 0.536870 0.956170
O O1 0.730873 0.848521 0.047867
O O2 0.761590 0.880169 0.146909
O O3 0.000000 0.868954 0.087058
O O4 0.866874 0.793472 0.118354
O O5 0.500000 0.804540 0.608969
O O6 0.259843 0.750000 0.622232
O O7 0.259481 0.844928 0.648544
O O8 0.259260 0.817287 0.550491
O O9 0.250000 0.638809 0.750000
O O10 0.251569 0.566264 0.813116
O O11 0.000000 0.618899 0.804096
O O12 0.500000 0.646419 0.983202
O O13 0.739656 0.591238 0.969403
O O14 0.500000 0.412613 0.696406
O O15 0.250000 0.396498 0.750000
O O16 0.244216 0.468466 0.814466
O O17 0.765909 0.020405 0.399000
O O18 0.000000 0.015705 0.334992
O O19 0.500000 0.536905 0.957249
O O20 0.743944 0.500000 0.000000
#
# Coordination Sequence:
#
# PCOD9540024 Si02
#       8
#    16   4  16  16  16  16  16  16
#     4   9  21  40  64  86 120 160 201 242 303 366
#     4   8  20  44  68  84 118 168 206 236 310 378
#     4  10  23  41  61  84 116 161 205 248 304 362
#     4  11  23  40  61  85 118 157 205 254 301 358
#     4  11  21  35  59  93 125 156 199 251 300 355
#     4  11  23  40  62  91 121 156 203 254 303 362
#     4  11  21  37  60  87 124 164 200 242 301 364
#     4   9  18  32  52  81 121 158 189 232 292 349
#
# _framework density 18.882947000000001
#
# number of rings (size 3 to 8) (size 9 to 14) (size 15 to 20)
#    0.414    1.379    1.379    2.897    0.966    3.310 
#    0.000    0.345    0.000    3.310    0.000    0.000 
#    0.000    0.000    0.000    0.000    0.000    0.000 
#
# Total GULP energy -323193.382300 kJ/mol
# GULP energy per Si atom -5572.299695 kJ/mol
# Density = 1.883997 g / cm^3
# Si number density = 18.882947 Si / 1000 Ang^3
#
#
#
# Elastic Constant Matrix: (Units=GPa)
#
#
# Indices 1 2 3 4 5 6 
#
# 1 27.3232 10.0179 21.0075 0.0000 0.0000 0.0000
# 2 10.0179 87.9274 52.3775 0.0000 0.0000 0.0000
# 3 21.0075 52.3775 123.5523 0.0000 0.0000 0.0000
# 4 0.0000 0.0000 0.0000 0.3335 0.0000 0.0000
# 5 0.0000 0.0000 0.0000 0.0000 24.0955 0.0000
# 6 0.0000 0.0000 0.0000 0.0000 0.0000 14.1880
#
#
#
# Elastic Compliance Matrix: (Units=1/GPa)
#
#
# Indices 1 2 3 4 5 6 
#
# 1 0.042136 -0.000713 -0.006862 0.000000 0.000000 0.000000
# 2 -0.000713 0.015227 -0.006334 0.000000 0.000000 0.000000
# 3 -0.006862 -0.006334 0.011946 0.000000 0.000000 0.000000
# 4 0.000000 0.000000 0.000000 2.998939 0.000000 0.000000
# 5 0.000000 0.000000 0.000000 0.000000 0.041501 0.000000
# 6 0.000000 0.000000 0.000000 0.000000 0.000000 0.070482
#
#
# Mechanical properties :
#
#
# Convention : Reuss Voigt Hill
#
# Bulk Modulus (GPa) = 24.10166 45.06764 34.58465
# Shear Modulus (GPa) = 1.55189 18.08339 9.81764
#
# Velocity S-wave (km/s) = 0.90754 3.09796 2.28265
# Velocity P-wave (km/s) = 3.72688 6.05930 5.03015
#
# Compressibility (1/GPa) = 0.04149092
#
# Stress axis : x y z
#
# Youngs Moduli (GPa) = 23.73246 65.67092 83.71190
#
# Poissons Ratio (x) = 0.04683 0.57444
# Poissons Ratio (y) = 0.01692 0.53024
# Poissons Ratio (z) = 0.16286 0.41597
#
# Static dielectric constant tensor:
#      x y z
#    x 1.646400 0.000000 0.000000 
#    y 0.000000 1.640200 0.000000 
#    z 0.000000 0.000000 1.653060 
# 
# From -- ./inp_files/57697.got.cif
#   From: 2010.05.17/outbox.cif.g08.bks.cpg/sg74_29_cif.got.tgz:57697.got - 2010.06.03 17:57:02.
