data_PCOD9540438
_publ_section_title
;
Structure prediction by ZEFSAII (Michael W. Deem and Ramdas Pophale) SiO2 
 PCOD9540438
Probable space group: I M M A
;
_chemical_formula_sum "Si O2"
_cell_formula_units_Z 104
_cell_length_a 25.305230
_cell_length_b 21.318966
_cell_length_c 9.867785
_cell_angle_alpha 90.000000
_cell_angle_beta 90.000000
_cell_angle_gamma 90.000000
_cell_volume 5323.485855
_symmetry_space_group_name_H-M "I M M A"
_symmetry_group_IT_number 74
_symmetry_cell_setting 'orthorhombic'
loop_
_space_group_symop_operation_xyz
x,y,z
-x,1/2-y,z
x,-y,-z
-x,1/2+y,-z
-x,-y,-z
x,1/2+y,-z
-x,y,z
x,1/2-y,z
1/2+x,1/2+y,1/2+z
1/2-x,-y,1/2+z
1/2+x,1/2-y,1/2-z
1/2-x,y,1/2-z
1/2-x,1/2-y,1/2-z
1/2+x,y,1/2-z
1/2-x,1/2+y,1/2+z
1/2+x,-y,1/2+z
loop_
_atom_site_type_symbol
_atom_site_label
_atom_site_fract_x
_atom_site_fract_y
_atom_site_fract_z
Si Si1 0.184268 0.181076 0.972676
Si Si2 0.800265 0.318982 0.399897
Si Si3 0.941843 0.091169 0.616294
Si Si4 0.171067 0.629761 0.316981
Si Si5 0.333417 0.580165 0.673997
Si Si6 0.250000 0.978666 0.250000
Si Si7 0.941907 0.444569 0.314385
O O1 0.159490 0.250000 0.990116
O O2 0.158428 0.119910 0.037898
O O3 0.239252 0.181842 0.054935
O O4 0.190952 0.167569 0.813766
O O5 0.814325 0.250000 0.345844
O O6 0.826722 0.332401 0.543878
O O7 0.813398 0.372871 0.293291
O O8 0.890886 0.114421 0.697019
O O9 0.933416 0.094786 0.453353
O O10 0.000000 0.118307 0.648662
O O11 0.944655 0.017162 0.644402
O O12 0.209128 0.567994 0.328221
O O13 0.289713 0.524663 0.667053
O O14 0.391251 0.559603 0.720249
O O15 0.000000 0.426982 0.258653
#
# Coordination Sequence:
#
# PCOD9540438 Si02
#       7
#    16  16  16  16  16   8  16
#     4  11  24  40  55  80 117 163 196 225 282 348
#     4  11  22  38  59  82 111 159 202 231 274 332
#     4   9  18  34  58  87 117 150 186 230 289 349
#     4  12  22  37  59  86 124 146 186 245 282 347
#     4  12  22  37  59  86 124 146 186 245 282 347
#     4  12  24  34  56  96 122 150 176 230 312 336
#     4   9  18  34  58  87 117 150 186 230 289 349
#
# _framework density 19.536071
#
# number of rings (size 3 to 8) (size 9 to 14) (size 15 to 20)
#    0.000    1.231    6.154    1.846    0.000    4.923 
#    0.000    0.769    0.000    7.385    0.000    0.000 
#    0.000    0.000    0.000    0.000    0.000    0.000 
#
# Total GULP energy -289862.354709 kJ/mol
# GULP energy per Si atom -5574.276052 kJ/mol
# Density = 1.949161 g / cm^3
# Si number density = 19.536071 Si / 1000 Ang^3
#
#
#
# Elastic Constant Matrix: (Units=GPa)
#
#
# Indices 1 2 3 4 5 6 
#
# 1 123.6684 21.0051 10.3125 0.0000 0.0000 0.0000
# 2 21.0051 57.3617 5.2275 0.0000 0.0000 0.0000
# 3 10.3125 5.2275 53.0786 0.0000 0.0000 0.0000
# 4 0.0000 0.0000 0.0000 14.0597 0.0000 0.0000
# 5 0.0000 0.0000 0.0000 0.0000 21.7074 0.0000
# 6 0.0000 0.0000 0.0000 0.0000 0.0000 5.9864
#
#
#
# Elastic Compliance Matrix: (Units=1/GPa)
#
#
# Indices 1 2 3 4 5 6 
#
# 1 0.008723 -0.003067 -0.001393 0.000000 0.000000 0.000000
# 2 -0.003067 0.018670 -0.001243 0.000000 0.000000 0.000000
# 3 -0.001393 -0.001243 0.019233 0.000000 0.000000 0.000000
# 4 0.000000 0.000000 0.000000 0.071125 0.000000 0.000000
# 5 0.000000 0.000000 0.000000 0.000000 0.046067 0.000000
# 6 0.000000 0.000000 0.000000 0.000000 0.000000 0.167045
#
#
# Mechanical properties :
#
#
# Convention : Reuss Voigt Hill
#
# Bulk Modulus (GPa) = 28.39281 34.13320 31.26301
# Shear Modulus (GPa) = 14.12394 21.52162 17.82278
#
# Velocity S-wave (km/s) = 2.69172 3.32269 3.02371
# Velocity P-wave (km/s) = 4.92195 5.67716 5.31299
#
# Compressibility (1/GPa) = 0.03522019
#
# Stress axis : x y z
#
# Youngs Moduli (GPa) = 114.63576 53.56263 51.99401
#
# Poissons Ratio (x) = 0.16430 0.07241
# Poissons Ratio (y) = 0.35164 0.06462
# Poissons Ratio (z) = 0.15966 0.06657
#
# Static dielectric constant tensor:
#      x y z
#    x 1.739350 0.000000 0.000000 
#    y 0.000000 1.724660 0.000000 
#    z 0.000000 0.000000 1.718410 
# 
# From -- ./inp_files/15368.got.cif
#   From: 2010.05.17/outbox.cif.g08.bks.cpg/sg74_8_cif.got.tgz:15368.got - 2010.06.03 17:57:02.
