data_PCOD9540162
_publ_section_title
;
Structure prediction by ZEFSAII (Michael W. Deem and Ramdas Pophale) SiO2 
 PCOD9540162
Probable space group: I M M A
;
_chemical_formula_sum "Si O2"
_cell_formula_units_Z 104
_cell_length_a 27.316959
_cell_length_b 18.449892
_cell_length_c 9.339536
_cell_angle_alpha 90.000000
_cell_angle_beta 90.000000
_cell_angle_gamma 90.000000
_cell_volume 4707.078917
_symmetry_space_group_name_H-M "I M M A"
_symmetry_group_IT_number 74
_symmetry_cell_setting 'orthorhombic'
loop_
_space_group_symop_operation_xyz
x,y,z
-x,1/2-y,z
x,-y,-z
-x,1/2+y,-z
-x,-y,-z
x,1/2+y,-z
-x,y,z
x,1/2-y,z
1/2+x,1/2+y,1/2+z
1/2-x,-y,1/2+z
1/2+x,1/2-y,1/2-z
1/2-x,y,1/2-z
1/2-x,1/2-y,1/2-z
1/2+x,y,1/2-z
1/2-x,1/2+y,1/2+z
1/2+x,-y,1/2+z
loop_
_atom_site_type_symbol
_atom_site_label
_atom_site_fract_x
_atom_site_fract_y
_atom_site_fract_z
Si Si1 0.791271 0.490969 0.662013
Si Si2 0.696694 0.750000 0.177227
Si Si3 0.829708 0.877942 0.849076
Si Si4 0.123513 0.881305 0.327240
Si Si5 0.500000 0.873895 0.671853
Si Si6 0.913619 0.833546 0.635025
Si Si7 0.419953 0.418687 0.533886
Si Si8 0.237780 0.250000 0.083808
O O1 0.773404 0.500000 0.500000
O O2 0.750000 0.447960 0.750000
O O3 0.800946 0.562807 0.755816
O O4 0.842952 0.451507 0.651434
O O5 0.750000 0.750000 0.250000
O O6 0.662454 0.681704 0.210822
O O7 0.713482 0.750000 0.010760
O O8 0.865094 0.839281 0.733266
O O9 0.866400 0.914026 0.962337
O O10 0.794910 0.822037 0.932339
O O11 0.098653 0.858418 0.475290
O O12 0.086500 0.898578 0.198858
O O13 0.543516 0.879707 0.793193
O O14 0.543001 0.866684 0.548218
O O15 0.930578 0.750000 0.636668
O O16 0.439072 0.500000 0.500000
O O17 0.250000 0.250000 0.250000
#
# Coordination Sequence:
#
# PCOD9540162 Si02
#       8
#    16   8  16  16   8  16  16   8
#     4  12  27  41  66 103 146 195 250 295 348 414
#     4  12  26  44  66 103 147 190 245 287 348 416
#     4  11  23  43  69  96 141 197 238 298 358 414
#     4  12  25  45  71 101 147 190 229 298 364 419
#     4  10  26  46  77 104 132 182 232 292 363 446
#     4  11  22  47  71 103 139 177 240 299 361 437
#     4  11  24  46  72 104 144 180 232 294 365 444
#     4  12  24  40  68  99 137 194 253 293 344 414
#
# _framework density 22.094380999999998
#
# number of rings (size 3 to 8) (size 9 to 14) (size 15 to 20)
#    0.000    0.615    4.615    3.231    4.308    0.615 
#    2.769    0.769    0.000    0.000    0.000    0.000 
#    0.000    0.000    0.000    0.000    0.000    0.000 
#
# Total GULP energy -289834.255509 kJ/mol
# GULP energy per Si atom -5573.735683 kJ/mol
# Density = 2.204409 g / cm^3
# Si number density = 22.094381 Si / 1000 Ang^3
#
#
#
# Elastic Constant Matrix: (Units=GPa)
#
#
# Indices 1 2 3 4 5 6 
#
# 1 74.4230 -3.9595 9.0120 0.0000 0.0000 0.0000
# 2 -3.9595 50.4037 -8.6061 0.0000 0.0000 0.0000
# 3 9.0120 -8.6061 112.6509 0.0000 0.0000 0.0000
# 4 0.0000 0.0000 0.0000 16.5895 0.0000 0.0000
# 5 0.0000 0.0000 0.0000 0.0000 30.0312 0.0000
# 6 0.0000 0.0000 0.0000 0.0000 0.0000 -55.7742
#
#
#
# Elastic Compliance Matrix: (Units=1/GPa)
#
#
# Indices 1 2 3 4 5 6 
#
# 1 0.013608 0.000895 -0.001020 0.000000 0.000000 0.000000
# 2 0.000895 0.020161 0.001469 0.000000 0.000000 0.000000
# 3 -0.001020 0.001469 0.009071 0.000000 0.000000 0.000000
# 4 0.000000 0.000000 0.000000 0.060279 0.000000 0.000000
# 5 0.000000 0.000000 0.000000 0.000000 0.033299 0.000000
# 6 0.000000 0.000000 0.000000 0.000000 0.000000 -0.017929
#
#
# Mechanical properties :
#
#
# Convention : Reuss Voigt Hill
#
# Bulk Modulus (GPa) = 21.96556 25.59670 23.78113
# Shear Modulus (GPa) = 38.17468 14.23805 26.20636
#
# Velocity S-wave (km/s) = 4.16119 2.54130 3.44773
# Velocity P-wave (km/s) = 5.74897 4.49680 5.16100
#
# Compressibility (1/GPa) = 0.04552582
#
# Stress axis : x y z
#
# Youngs Moduli (GPa) = 73.48695 49.60105 110.24384
#
# Poissons Ratio (x) = -0.04438 0.11248
# Poissons Ratio (y) = -0.06575 -0.16191
# Poissons Ratio (z) = 0.07498 -0.07285
#
# Static dielectric constant tensor:
#      x y z
#    x 2.116590 0.000000 0.000000 
#    y 0.000000 1.962930 0.000000 
#    z 0.000000 0.000000 1.934830 
# 
# From -- ./inp_files/15245.got.cif
#   From: 2010.05.17/outbox.cif.g08.bks.cpg/sg74_8_cif.got.tgz:15245.got - 2010.06.03 17:57:02.
