data_PCOD9540298
_publ_section_title
;
Structure prediction by ZEFSAII (Michael W. Deem and Ramdas Pophale) SiO2 
 PCOD9540298
Probable space group: I M M A
;
_chemical_formula_sum "Si O2"
_cell_formula_units_Z 80
_cell_length_a 25.190874
_cell_length_b 8.562229
_cell_length_c 24.417569
_cell_angle_alpha 90.000000
_cell_angle_beta 90.000000
_cell_angle_gamma 90.000000
_cell_volume 5266.626236
_symmetry_space_group_name_H-M "I M M A"
_symmetry_group_IT_number 74
_symmetry_cell_setting 'orthorhombic'
loop_
_space_group_symop_operation_xyz
x,y,z
-x,1/2-y,z
x,-y,-z
-x,1/2+y,-z
-x,-y,-z
x,1/2+y,-z
-x,y,z
x,1/2-y,z
1/2+x,1/2+y,1/2+z
1/2-x,-y,1/2+z
1/2+x,1/2-y,1/2-z
1/2-x,y,1/2-z
1/2-x,1/2-y,1/2-z
1/2+x,y,1/2-z
1/2-x,1/2+y,1/2+z
1/2+x,-y,1/2+z
loop_
_atom_site_type_symbol
_atom_site_label
_atom_site_fract_x
_atom_site_fract_y
_atom_site_fract_z
Si Si1 0.559205 0.937907 0.260252
Si Si2 0.060007 0.438501 0.888079
Si Si3 0.667432 0.938062 0.773563
Si Si4 0.165975 0.563213 0.940370
Si Si5 0.731060 0.559843 0.664255
O O1 0.500000 0.989716 0.243523
O O2 0.559888 0.750000 0.259353
O O3 0.566749 0.984884 0.324127
O O4 0.607978 0.999820 0.225095
O O5 0.063359 0.250000 0.890671
O O6 0.106829 0.510503 0.923446
O O7 0.000000 0.483298 0.904739
O O8 0.665965 0.750000 0.773917
O O9 0.693793 0.986720 0.715441
O O10 0.709176 0.989247 0.820168
O O11 0.167613 0.750000 0.941170
O O12 0.205719 0.505869 0.892501
O O13 0.179606 0.500000 0.000000
O O14 0.730961 0.750000 0.663674
#
# Coordination Sequence:
#
# PCOD9540298 Si02
#       5
#    16  16  16  16  16
#     4   9  17  28  42  64  94 119 139 173 219 257
#     4   9  18  32  46  60  83 115 150 186 219 251
#     4   9  15  28  48  66  84 110 144 178 211 259
#     4  11  21  33  47  63  84 113 147 185 222 257
#     4   8  16  29  45  64  86 110 140 179 221 255
#
# _framework density 15.18999
#
# number of rings (size 3 to 8) (size 9 to 14) (size 15 to 20)
#    0.000    2.800    2.000    3.000    0.000    1.200 
#    0.000    6.000    0.000    0.000    0.000    0.000 
#    0.000    0.800    0.000    1.800    0.000    3.200 
#
# Total GULP energy -222848.443948 kJ/mol
# GULP energy per Si atom -5571.211099 kJ/mol
# Density = 1.515542 g / cm^3
# Si number density = 15.189990 Si / 1000 Ang^3
#
#
#
# Elastic Constant Matrix: (Units=GPa)
#
#
# Indices 1 2 3 4 5 6 
#
# 1 127.0641 19.7844 67.3741 0.0000 0.0000 0.0000
# 2 19.7844 11.6018 17.6852 0.0000 0.0000 0.0000
# 3 67.3741 17.6852 86.7189 0.0000 0.0000 0.0000
# 4 0.0000 0.0000 0.0000 14.9012 0.0000 0.0000
# 5 0.0000 0.0000 0.0000 0.0000 19.6897 0.0000
# 6 0.0000 0.0000 0.0000 0.0000 0.0000 -1.5686
#
#
#
# Elastic Compliance Matrix: (Units=1/GPa)
#
#
# Indices 1 2 3 4 5 6 
#
# 1 0.014255 -0.010777 -0.008877 0.000000 0.000000 0.000000
# 2 -0.010777 0.133224 -0.018796 0.000000 0.000000 0.000000
# 3 -0.008877 -0.018796 0.022262 0.000000 0.000000 0.000000
# 4 0.000000 0.000000 0.000000 0.067109 0.000000 0.000000
# 5 0.000000 0.000000 0.000000 0.000000 0.050788 0.000000
# 6 0.000000 0.000000 0.000000 0.000000 0.000000 -0.637502
#
#
# Mechanical properties :
#
#
# Convention : Reuss Voigt Hill
#
# Bulk Modulus (GPa) = 10.77130 48.34135 29.55632
# Shear Modulus (GPa) = -20.65973 14.64053 -3.00960
#
# Velocity S-wave (km/s) = -3.69194 3.10792 -1.40912
# Velocity P-wave (km/s) = 3.32678 6.69123 4.10518
#
# Compressibility (1/GPa) = 0.09283935
#
# Stress axis : x y z
#
# Youngs Moduli (GPa) = 70.14991 7.50618 44.91993
#
# Poissons Ratio (x) = 0.08089 0.39877
# Poissons Ratio (y) = 0.75600 0.84433
# Poissons Ratio (z) = 0.62275 0.14109
#
# Static dielectric constant tensor:
#      x y z
#    x 1.519280 0.000000 0.000000 
#    y 0.000000 1.519130 0.000000 
#    z 0.000000 0.000000 1.492490 
# 
# From -- ./inp_files/46939.got.cif
#   From: 2010.05.17/outbox.cif.g08.bks.cpg/sg74_24_cif.got.tgz:46939.got - 2010.06.03 17:57:02.
