data_PCOD9540656
_publ_section_title
;
Structure prediction by ZEFSAII (Michael W. Deem and Ramdas Pophale) SiO2 
 PCOD9540656
Probable space group: I M M A
;
_chemical_formula_sum "Si O2"
_cell_formula_units_Z 104
_cell_length_a 9.445360
_cell_length_b 20.588967
_cell_length_c 32.217942
_cell_angle_alpha 90.000000
_cell_angle_beta 90.000000
_cell_angle_gamma 90.000000
_cell_volume 6265.429796
_symmetry_space_group_name_H-M "I M M A"
_symmetry_group_IT_number 74
_symmetry_cell_setting 'orthorhombic'
loop_
_space_group_symop_operation_xyz
x,y,z
-x,1/2-y,z
x,-y,-z
-x,1/2+y,-z
-x,-y,-z
x,1/2+y,-z
-x,y,z
x,1/2-y,z
1/2+x,1/2+y,1/2+z
1/2-x,-y,1/2+z
1/2+x,1/2-y,1/2-z
1/2-x,y,1/2-z
1/2-x,1/2-y,1/2-z
1/2+x,y,1/2-z
1/2-x,1/2+y,1/2+z
1/2+x,-y,1/2+z
loop_
_atom_site_type_symbol
_atom_site_label
_atom_site_fract_x
_atom_site_fract_y
_atom_site_fract_z
Si Si1 0.831498 0.675391 0.575283
Si Si2 0.171282 0.941163 0.882192
Si Si3 0.167458 0.990732 0.791277
Si Si4 0.838816 0.132711 0.826697
Si Si5 0.163710 0.077377 0.919753
Si Si6 0.830799 0.323861 0.523180
Si Si7 0.167947 0.750000 0.293493
O O1 0.797941 0.750000 0.586632
O O2 0.743253 0.623059 0.600586
O O3 0.803697 0.668483 0.525963
O O4 0.000000 0.665828 0.581383
O O5 0.211014 0.956032 0.834310
O O6 0.000000 0.937497 0.883490
O O7 0.212060 0.003627 0.910458
O O8 0.250000 0.971330 0.750000
O O9 0.000000 0.979765 0.785734
O O10 0.186444 0.067691 0.800034
O O11 0.834123 0.111303 0.874581
O O12 0.723864 0.186677 0.817253
O O13 0.000000 0.155889 0.817767
O O14 0.254312 0.120450 0.950917
O O15 0.000000 0.075288 0.933752
O O16 0.786114 0.250000 0.535094
O O17 0.000000 0.327630 0.529291
O O18 0.250000 0.750000 0.250000
O O19 0.000000 0.750000 0.288413
#
# Coordination Sequence:
#
# PCOD9540656 Si02
#       7
#    16  16  16  16  16  16   8
#     4   9  19  36  55  76 103 135 168 205 252 302
#     4   9  19  35  53  77 106 132 164 208 254 300
#     4   9  18  33  53  75 100 129 162 203 250 300
#     4   9  19  35  50  67  96 131 166 209 256 299
#     4   9  19  34  51  73 102 135 170 210 256 301
#     4   9  19  34  50  71 103 138 174 216 254 294
#     4  12  24  34  46  66  92 126 170 216 260 304
#
# _framework density 16.599019999999999
#
# number of rings (size 3 to 8) (size 9 to 14) (size 15 to 20)
#    0.000    2.769    0.000    3.923    1.077    5.538 
#    0.000    7.692    0.000    0.462    0.000    0.000 
#    0.000    0.000    0.000    0.000    0.000    0.000 
#
# Total GULP energy -289926.918911 kJ/mol
# GULP energy per Si atom -5575.517671 kJ/mol
# Density = 1.656124 g / cm^3
# Si number density = 16.599020 Si / 1000 Ang^3
#
#
#
# Elastic Constant Matrix: (Units=GPa)
#
#
# Indices 1 2 3 4 5 6 
#
# 1 60.8506 63.7022 46.3195 0.0000 0.0000 0.0000
# 2 63.7022 121.8372 70.8899 0.0000 0.0000 0.0000
# 3 46.3195 70.8899 72.2012 0.0000 0.0000 0.0000
# 4 0.0000 0.0000 0.0000 7.4595 0.0000 0.0000
# 5 0.0000 0.0000 0.0000 0.0000 31.7934 0.0000
# 6 0.0000 0.0000 0.0000 0.0000 0.0000 27.2728
#
#
#
# Elastic Compliance Matrix: (Units=1/GPa)
#
#
# Indices 1 2 3 4 5 6 
#
# 1 0.040360 -0.014081 -0.012067 0.000000 0.000000 0.000000
# 2 -0.014081 0.024057 -0.014587 0.000000 0.000000 0.000000
# 3 -0.012067 -0.014587 0.035913 0.000000 0.000000 0.000000
# 4 0.000000 0.000000 0.000000 0.134058 0.000000 0.000000
# 5 0.000000 0.000000 0.000000 0.000000 0.031453 0.000000
# 6 0.000000 0.000000 0.000000 0.000000 0.000000 0.036667
#
#
# Mechanical properties :
#
#
# Convention : Reuss Voigt Hill
#
# Bulk Modulus (GPa) = 53.01960 68.52356 60.77158
# Shear Modulus (GPa) = 12.81185 18.23697 15.52441
#
# Velocity S-wave (km/s) = 2.78122 3.31823 3.06152
# Velocity P-wave (km/s) = 6.50572 7.48680 7.01343
#
# Compressibility (1/GPa) = 0.01886095
#
# Stress axis : x y z
#
# Youngs Moduli (GPa) = 24.77709 41.56799 27.84492
#
# Poissons Ratio (x) = 0.58532 0.33600
# Poissons Ratio (y) = 0.34889 0.40616
# Poissons Ratio (z) = 0.29898 0.60634
#
# Static dielectric constant tensor:
#      x y z
#    x 1.550090 0.000000 0.000000 
#    y 0.000000 1.546400 0.000000 
#    z 0.000000 0.000000 1.552430 
# 
# From -- ./inp_files/70625.got.cif
#   From: 2010.05.17/outbox.cif.g08.bks.cpg/sg74_36_cif.got.tgz:70625.got - 2010.06.03 17:57:02.
