data_PCOD9540499
_publ_section_title
;
Structure prediction by ZEFSAII (Michael W. Deem and Ramdas Pophale) SiO2 
 PCOD9540499
Probable space group: I M M A
;
_chemical_formula_sum "Si O2"
_cell_formula_units_Z 64
_cell_length_a 27.656243
_cell_length_b 9.817619
_cell_length_c 11.165523
_cell_angle_alpha 90.000000
_cell_angle_beta 90.000000
_cell_angle_gamma 90.000000
_cell_volume 3031.645574
_symmetry_space_group_name_H-M "I M M A"
_symmetry_group_IT_number 74
_symmetry_cell_setting 'orthorhombic'
loop_
_space_group_symop_operation_xyz
x,y,z
-x,1/2-y,z
x,-y,-z
-x,1/2+y,-z
-x,-y,-z
x,1/2+y,-z
-x,y,z
x,1/2-y,z
1/2+x,1/2+y,1/2+z
1/2-x,-y,1/2+z
1/2+x,1/2-y,1/2-z
1/2-x,y,1/2-z
1/2-x,1/2-y,1/2-z
1/2+x,y,1/2-z
1/2-x,1/2+y,1/2+z
1/2+x,-y,1/2+z
loop_
_atom_site_type_symbol
_atom_site_label
_atom_site_fract_x
_atom_site_fract_y
_atom_site_fract_z
Si Si1 0.293047 0.604421 0.587210
Si Si2 0.680139 0.403534 0.142738
Si Si3 0.090783 0.913756 0.386001
Si Si4 0.441623 0.593480 0.386165
O O1 0.316246 0.500000 0.500000
O O2 0.295687 0.750000 0.527964
O O3 0.317942 0.604898 0.714201
O O4 0.236026 0.576548 0.607551
O O5 0.664788 0.250000 0.100901
O O6 0.646060 0.530790 0.114935
O O7 0.085540 0.750000 0.401378
O O8 0.072244 0.948169 0.251038
O O9 0.069226 0.000000 0.500000
O O10 0.427082 0.500000 0.500000
O O11 0.500000 0.595165 0.387484
O O12 0.424375 0.750000 0.402864
#
# Coordination Sequence:
#
# PCOD9540499 Si02
#       4
#    16  16  16  16
#     4   9  18  32  50  71  98 136 181 227 273 322
#     4   9  19  35  51  71 103 141 180 223 272 323
#     4  11  23  37  56  84 115 147 184 226 274 328
#     4   9  20  40  63  86 113 145 182 224 271 326
#
# _framework density 21.110647
#
# number of rings (size 3 to 8) (size 9 to 14) (size 15 to 20)
#    0.000    2.500    0.000    3.000    0.000    7.500 
#    0.000    7.500    0.000    0.000    0.000    0.000 
#    0.000    0.000    0.000    0.000    0.000    0.000 
#
# Total GULP energy -178164.952446 kJ/mol
# GULP energy per Si atom -5567.654764 kJ/mol
# Density = 2.106260 g / cm^3
# Si number density = 21.110647 Si / 1000 Ang^3
#
#
#
# Elastic Constant Matrix: (Units=GPa)
#
#
# Indices 1 2 3 4 5 6 
#
# 1 44.3721 19.4589 14.9257 0.0000 0.0000 0.0000
# 2 19.4589 110.5962 93.0040 0.0000 0.0000 0.0000
# 3 14.9257 93.0040 169.5601 0.0000 0.0000 0.0000
# 4 0.0000 0.0000 0.0000 43.5430 0.0000 0.0000
# 5 0.0000 0.0000 0.0000 0.0000 -36.0573 0.0000
# 6 0.0000 0.0000 0.0000 0.0000 0.0000 15.8710
#
#
#
# Elastic Compliance Matrix: (Units=1/GPa)
#
#
# Indices 1 2 3 4 5 6 
#
# 1 0.024435 -0.004623 0.000385 0.000000 0.000000 0.000000
# 2 -0.004623 0.017658 -0.009278 0.000000 0.000000 0.000000
# 3 0.000385 -0.009278 0.010953 0.000000 0.000000 0.000000
# 4 0.000000 0.000000 0.000000 0.022966 0.000000 0.000000
# 5 0.000000 0.000000 0.000000 0.000000 -0.027734 0.000000
# 6 0.000000 0.000000 0.000000 0.000000 0.000000 0.063008
#
#
# Mechanical properties :
#
#
# Convention : Reuss Voigt Hill
#
# Bulk Modulus (GPa) = 38.44304 64.36728 51.40516
# Shear Modulus (GPa) = 34.01620 17.81400 25.91510
#
# Velocity S-wave (km/s) = 4.01849 2.90804 3.50749
# Velocity P-wave (km/s) = 6.30720 6.46779 6.38800
#
# Compressibility (1/GPa) = 0.02601251
#
# Stress axis : x y z
#
# Youngs Moduli (GPa) = 40.92570 56.63245 91.29955
#
# Poissons Ratio (x) = 0.26179 -0.03512
# Poissons Ratio (y) = 0.18918 0.84711
# Poissons Ratio (z) = -0.01574 0.52546
#
# Static dielectric constant tensor:
#      x y z
#    x 1.775970 0.000000 0.000000 
#    y 0.000000 1.795430 0.000000 
#    z 0.000000 0.000000 1.826430 
# 
# From -- ./inp_files/17564.got.cif
#   From: 2010.05.17/outbox.cif.g08.bks.cpg/sg74_9_cif.got.tgz:17564.got - 2010.06.03 17:57:02.
