data_PCOD9540490
_publ_section_title
;
Structure prediction by ZEFSAII (Michael W. Deem and Ramdas Pophale) SiO2 
 PCOD9540490
Probable space group: I M M A
;
_chemical_formula_sum "Si O2"
_cell_formula_units_Z 84
_cell_length_a 17.870380
_cell_length_b 23.103522
_cell_length_c 9.761290
_cell_angle_alpha 90.000000
_cell_angle_beta 90.000000
_cell_angle_gamma 90.000000
_cell_volume 4030.131283
_symmetry_space_group_name_H-M "I M M A"
_symmetry_group_IT_number 74
_symmetry_cell_setting 'orthorhombic'
loop_
_space_group_symop_operation_xyz
x,y,z
-x,1/2-y,z
x,-y,-z
-x,1/2+y,-z
-x,-y,-z
x,1/2+y,-z
-x,y,z
x,1/2-y,z
1/2+x,1/2+y,1/2+z
1/2-x,-y,1/2+z
1/2+x,1/2-y,1/2-z
1/2-x,y,1/2-z
1/2-x,1/2-y,1/2-z
1/2+x,y,1/2-z
1/2-x,1/2+y,1/2+z
1/2+x,-y,1/2+z
loop_
_atom_site_type_symbol
_atom_site_label
_atom_site_fract_x
_atom_site_fract_y
_atom_site_fract_z
Si Si1 0.500000 0.680403 0.644936
Si Si2 0.750000 0.880624 0.750000
Si Si3 0.081243 0.959116 0.132099
Si Si4 0.375282 0.041294 0.117751
Si Si5 0.837881 0.250000 0.796498
Si Si6 0.651694 0.644466 0.500140
Si Si7 0.000000 0.633208 0.548387
Si Si8 0.500000 0.250000 0.864764
O O1 0.500000 0.750000 0.624696
O O2 0.573417 0.652253 0.579548
O O3 0.500000 0.664264 0.803933
O O4 0.685320 0.921122 0.805936
O O5 0.715337 0.849552 0.616726
O O6 0.000000 0.928846 0.148549
O O7 0.091127 0.999046 0.265610
O O8 0.145789 0.914303 0.088909
O O9 0.077112 0.000000 0.000000
O O10 0.431040 0.087885 0.048148
O O11 0.344017 0.000000 0.000000
O O12 0.750000 0.250000 0.750000
O O13 0.916557 0.250000 0.708182
O O14 0.843176 0.305673 0.891031
O O15 0.000000 0.687610 0.444942
#
# Coordination Sequence:
#
# PCOD9540490 Si02
#       8
#     8   8  16  16   8  16   8   4
#     4  12  21  46  74 108 129 186 256 305 358 432
#     4  12  28  45  70 108 146 193 244 304 376 442
#     4  11  22  43  74 106 141 189 246 305 363 446
#     4  12  28  44  69 111 149 193 245 301 377 445
#     4  12  32  52  74 110 148 198 252 306 384 454
#     4  12  26  46  76 103 149 189 248 310 368 449
#     4  12  25  50  73 104 147 191 243 313 370 449
#     4  12  32  52  78 112 152 200 250 310 396 456
#
# _framework density 20.842991999999999
#
# number of rings (size 3 to 8) (size 9 to 14) (size 15 to 20)
#    0.000    0.190    7.143    0.857    8.000    0.381 
#    0.000    0.000    0.000    0.000    0.000    0.000 
#    0.000    0.000    0.000    0.000    0.000    0.000 
#
# Total GULP energy -234313.577118 kJ/mol
# GULP energy per Si atom -5578.894693 kJ/mol
# Density = 2.079555 g / cm^3
# Si number density = 20.842992 Si / 1000 Ang^3
#
#
#
# Elastic Constant Matrix: (Units=GPa)
#
#
# Indices 1 2 3 4 5 6 
#
# 1 86.1258 17.4062 28.9118 0.0000 0.0000 0.0000
# 2 17.4062 107.7477 44.2952 0.0000 0.0000 0.0000
# 3 28.9118 44.2952 108.4247 0.0000 0.0000 0.0000
# 4 0.0000 0.0000 0.0000 57.4518 0.0000 0.0000
# 5 0.0000 0.0000 0.0000 0.0000 15.5182 0.0000
# 6 0.0000 0.0000 0.0000 0.0000 0.0000 -16.3215
#
#
#
# Elastic Compliance Matrix: (Units=1/GPa)
#
#
# Indices 1 2 3 4 5 6 
#
# 1 0.012809 -0.000799 -0.003089 0.000000 0.000000 0.000000
# 2 -0.000799 0.011204 -0.004364 0.000000 0.000000 0.000000
# 3 -0.003089 -0.004364 0.011830 0.000000 0.000000 0.000000
# 4 0.000000 0.000000 0.000000 0.017406 0.000000 0.000000
# 5 0.000000 0.000000 0.000000 0.000000 0.064440 0.000000
# 6 0.000000 0.000000 0.000000 0.000000 0.000000 -0.061269
#
#
# Mechanical properties :
#
#
# Convention : Reuss Voigt Hill
#
# Bulk Modulus (GPa) = 51.71166 53.72498 52.71832
# Shear Modulus (GPa) = 62.99475 25.44205 44.21840
#
# Velocity S-wave (km/s) = 5.50355 3.49757 4.61097
# Velocity P-wave (km/s) = 8.07771 6.49174 7.32776
#
# Compressibility (1/GPa) = 0.01933800
#
# Stress axis : x y z
#
# Youngs Moduli (GPa) = 78.06724 89.25244 84.53363
#
# Poissons Ratio (x) = 0.07135 0.26113
# Poissons Ratio (y) = 0.06241 0.36892
# Poissons Ratio (z) = 0.24116 0.38951
#
# Static dielectric constant tensor:
#      x y z
#    x 1.851100 0.000000 0.000000 
#    y 0.000000 1.754120 0.000000 
#    z 0.000000 0.000000 1.746600 
# 
# From -- ./inp_files/12406.got.cif
#   From: 2010.05.17/outbox.cif.g08.bks.cpg/sg74_7_cif.got.tgz:12406.got - 2010.06.03 17:57:02.
