data_PCOD9540421
_publ_section_title
;
Structure prediction by ZEFSAII (Michael W. Deem and Ramdas Pophale) SiO2 
 PCOD9540421
Probable space group: I M M A
;
_chemical_formula_sum "Si O2"
_cell_formula_units_Z 112
_cell_length_a 15.450225
_cell_length_b 27.854251
_cell_length_c 12.565478
_cell_angle_alpha 90.000000
_cell_angle_beta 90.000000
_cell_angle_gamma 90.000000
_cell_volume 5407.609313
_symmetry_space_group_name_H-M "I M M A"
_symmetry_group_IT_number 74
_symmetry_cell_setting 'orthorhombic'
loop_
_space_group_symop_operation_xyz
x,y,z
-x,1/2-y,z
x,-y,-z
-x,1/2+y,-z
-x,-y,-z
x,1/2+y,-z
-x,y,z
x,1/2-y,z
1/2+x,1/2+y,1/2+z
1/2-x,-y,1/2+z
1/2+x,1/2-y,1/2-z
1/2-x,y,1/2-z
1/2-x,1/2-y,1/2-z
1/2+x,y,1/2-z
1/2-x,1/2+y,1/2+z
1/2+x,-y,1/2+z
loop_
_atom_site_type_symbol
_atom_site_label
_atom_site_fract_x
_atom_site_fract_y
_atom_site_fract_z
Si Si1 0.353232 0.885658 0.750173
Si Si2 0.169780 0.543001 0.064859
Si Si3 0.401080 0.140991 0.494670
Si Si4 0.403038 0.003767 0.253384
Si Si5 0.904611 0.654442 0.527997
Si Si6 0.871182 0.449557 0.549215
Si Si7 0.250660 0.807378 0.124120
O O1 0.250000 0.888355 0.750000
O O2 0.382106 0.868691 0.631597
O O3 0.386934 0.940138 0.773685
O O4 0.380189 0.849977 0.846444
O O5 0.174240 0.514782 0.173939
O O6 0.267533 0.554848 0.031144
O O7 0.127926 0.500000 0.000000
O O8 0.113439 0.589904 0.052882
O O9 0.500000 0.157329 0.505391
O O10 0.331937 0.174290 0.555874
O O11 0.500000 0.002460 0.299823
O O12 0.398876 0.961368 0.167467
O O13 0.909100 0.598789 0.494226
O O14 0.833562 0.676394 0.447238
O O15 0.000000 0.676675 0.516566
O O16 0.898569 0.500000 0.500000
O O17 0.249816 0.750000 0.128433
O O18 0.250000 0.824630 0.250000
#
# Coordination Sequence:
#
# PCOD9540421 Si02
#       7
#    16  16  16  16  16  16  16
#     4  12  22  42  66 100 148 194 233 277 339 407
#     4  11  22  37  57  89 136 189 234 273 324 391
#     4  12  25  44  72 107 142 184 234 286 345 412
#     4  12  24  34  54  92 137 191 240 284 330 390
#     4  12  25  44  72 107 142 184 234 286 345 412
#     4  11  22  37  57  89 136 189 234 273 324 391
#     4  11  28  55  80 103 133 171 222 291 364 426
#
# _framework density 20.711555000000001
#
# number of rings (size 3 to 8) (size 9 to 14) (size 15 to 20)
#    0.000    0.429    5.714    3.429    2.000    2.286 
#    0.000    2.857    0.000    1.714    0.000    0.000 
#    0.000    0.000    0.000    0.000    0.000    0.000 
#
# Total GULP energy -312066.135322 kJ/mol
# GULP energy per Si atom -5572.609559 kJ/mol
# Density = 2.066441 g / cm^3
# Si number density = 20.711555 Si / 1000 Ang^3
#
#
#
# Elastic Constant Matrix: (Units=GPa)
#
#
# Indices 1 2 3 4 5 6 
#
# 1 127.3510 31.2536 44.9191 0.0000 0.0000 0.0000
# 2 31.2536 64.4869 33.8571 0.0000 0.0000 0.0000
# 3 44.9191 33.8571 114.0527 0.0002 0.0000 0.0001
# 4 0.0000 0.0000 0.0002 29.8896 0.0000 0.0000
# 5 0.0000 0.0000 0.0000 0.0000 13.6770 0.0000
# 6 0.0000 0.0000 0.0001 0.0000 0.0000 -21.9377
#
#
#
# Elastic Compliance Matrix: (Units=1/GPa)
#
#
# Indices 1 2 3 4 5 6 
#
# 1 0.009638 -0.003172 -0.002854 0.000000 0.000000 0.000000
# 2 -0.003172 0.019414 -0.004514 0.000000 0.000000 0.000000
# 3 -0.002854 -0.004514 0.011232 0.000000 0.000000 0.000000
# 4 0.000000 0.000000 0.000000 0.033456 0.000000 0.000000
# 5 0.000000 0.000000 0.000000 0.000000 0.073116 0.000000
# 6 0.000000 0.000000 0.000000 0.000000 0.000000 -0.045584
#
#
# Mechanical properties :
#
#
# Convention : Reuss Voigt Hill
#
# Bulk Modulus (GPa) = 52.07418 58.43891 55.25654
# Shear Modulus (GPa) = 38.83389 17.38317 28.10853
#
# Velocity S-wave (km/s) = 4.33481 2.90021 3.68794
# Velocity P-wave (km/s) = 7.08881 6.28425 6.69862
#
# Compressibility (1/GPa) = 0.01920337
#
# Stress axis : x y z
#
# Youngs Moduli (GPa) = 103.76129 51.50814 89.03269
#
# Poissons Ratio (x) = 0.16341 0.25409
# Poissons Ratio (y) = 0.32918 0.40188
# Poissons Ratio (z) = 0.29613 0.23250
#
# Static dielectric constant tensor:
#      x y z
#    x 1.793300 0.000000 0.000000 
#    y 0.000000 1.682360 0.000000 
#    z 0.000000 0.000000 1.667550 
# 
# From -- ./inp_files/21192.got.cif
#   From: 2010.05.17/outbox.cif.g08.bks.cpg/sg74_11_cif.got.tgz:21192.got - 2010.06.03 17:57:02.
