data_PCOD9540155
_publ_section_title
;
Structure prediction by ZEFSAII (Michael W. Deem and Ramdas Pophale) SiO2 
 PCOD9540155
Probable space group: I M M A
;
_chemical_formula_sum "Si O2"
_cell_formula_units_Z 72
_cell_length_a 14.329705
_cell_length_b 25.904754
_cell_length_c 9.190663
_cell_angle_alpha 90.000000
_cell_angle_beta 90.000000
_cell_angle_gamma 90.000000
_cell_volume 3411.642879
_symmetry_space_group_name_H-M "I M M A"
_symmetry_group_IT_number 74
_symmetry_cell_setting 'orthorhombic'
loop_
_space_group_symop_operation_xyz
x,y,z
-x,1/2-y,z
x,-y,-z
-x,1/2+y,-z
-x,-y,-z
x,1/2+y,-z
-x,y,z
x,1/2-y,z
1/2+x,1/2+y,1/2+z
1/2-x,-y,1/2+z
1/2+x,1/2-y,1/2-z
1/2-x,y,1/2-z
1/2-x,1/2-y,1/2-z
1/2+x,y,1/2-z
1/2-x,1/2+y,1/2+z
1/2+x,-y,1/2+z
loop_
_atom_site_type_symbol
_atom_site_label
_atom_site_fract_x
_atom_site_fract_y
_atom_site_fract_z
Si Si1 0.350883 0.000000 0.500000
Si Si2 0.500000 0.068263 0.679363
Si Si3 0.250000 0.936721 0.750000
Si Si4 0.887983 0.750000 0.835221
Si Si5 0.652327 0.750000 0.336478
Si Si6 0.645292 0.146805 0.805407
Si Si7 0.388235 0.650119 0.859608
O O1 0.418028 0.040326 0.581397
O O2 0.287072 0.028962 0.382224
O O3 0.580622 0.098474 0.774902
O O4 0.333965 0.899561 0.801098
O O5 0.866842 0.800866 0.742181
O O6 0.000000 0.750000 0.864380
O O7 0.838595 0.750000 0.990692
O O8 0.750000 0.750000 0.250000
O O9 0.607764 0.803650 0.284975
O O10 0.750000 0.136772 0.750000
O O11 0.643434 0.160296 0.975488
O O12 0.500000 0.642417 0.857462
#
# Coordination Sequence:
#
# PCOD9540155 Si02
#       7
#     8   8   8   8   8  16  16
#     4  11  30  50  73 108 138 189 244 324 361 434
#     4  11  26  47  79 101 144 186 246 306 365 425
#     4  12  30  49  78 102 146 183 252 302 382 424
#     4  10  25  43  71 109 153 186 238 290 357 431
#     4  10  25  40  68 108 148 192 232 285 349 431
#     4  11  24  45  73 108 147 192 241 287 356 437
#     4  11  26  47  73 111 147 192 235 297 360 438
#
# _framework density 21.104202000000001
#
# number of rings (size 3 to 8) (size 9 to 14) (size 15 to 20)
#    0.000    1.111    1.111    2.000   18.667    0.444 
#    0.000    1.667    0.000    0.000    0.000    0.000 
#    0.000    0.000    0.000    0.000    0.000    0.000 
#
# Total GULP energy -200404.188748 kJ/mol
# GULP energy per Si atom -5566.783021 kJ/mol
# Density = 2.105617 g / cm^3
# Si number density = 21.104202 Si / 1000 Ang^3
#
#
#
# Elastic Constant Matrix: (Units=GPa)
#
#
# Indices 1 2 3 4 5 6 
#
# 1 158.9748 52.0794 72.9899 0.0003 -0.0001 -0.0001
# 2 52.0794 68.5876 95.1158 -0.0005 0.0003 0.0000
# 3 72.9899 95.1158 213.0662 -0.0016 0.0009 0.0006
# 4 0.0003 -0.0005 -0.0016 33.3694 0.0007 0.0004
# 5 -0.0001 0.0003 0.0009 0.0007 32.4884 0.0001
# 6 -0.0001 0.0000 0.0006 0.0004 0.0001 8.2609
#
#
#
# Elastic Compliance Matrix: (Units=1/GPa)
#
#
# Indices 1 2 3 4 5 6 
#
# 1 0.008374 -0.006248 -0.000079 0.000000 0.000000 0.000000
# 2 -0.006248 0.042938 -0.017028 0.000000 0.000000 0.000001
# 3 -0.000079 -0.017028 0.012322 0.000000 0.000000 -0.000001
# 4 0.000000 0.000000 0.000000 0.029968 -0.000001 -0.000001
# 5 0.000000 0.000000 0.000000 -0.000001 0.030780 0.000000
# 6 0.000000 0.000001 -0.000001 -0.000001 0.000000 0.121052
#
#
# Mechanical properties :
#
#
# Convention : Reuss Voigt Hill
#
# Bulk Modulus (GPa) = 59.09103 97.88875 78.48989
# Shear Modulus (GPa) = 16.79068 29.51997 23.15533
#
# Velocity S-wave (km/s) = 2.82371 3.74407 3.31598
# Velocity P-wave (km/s) = 6.22026 8.07310 7.20648
#
# Compressibility (1/GPa) = 0.01692304
#
# Stress axis : x y z
#
# Youngs Moduli (GPa) = 119.42304 23.28949 81.15669
#
# Poissons Ratio (x) = 0.14552 0.00642
# Poissons Ratio (y) = 0.74620 1.38190
# Poissons Ratio (z) = 0.00945 0.39656
#
# Static dielectric constant tensor:
#      x y z
#    x 1.764120 0.000000 0.000000 
#    y 0.000000 1.771310 0.000000 
#    z 0.000000 0.000000 1.714950 
# 
# From -- ./inp_files/9254.got.cif
#   From: 2010.05.17/outbox.cif.g08.bks.cpg/sg74_5_cif.got.tgz:9254.got - 2010.06.03 17:57:02.
