data_PCOD9540016
_publ_section_title
;
Structure prediction by ZEFSAII (Michael W. Deem and Ramdas Pophale) SiO2 
 PCOD9540016
Probable space group: I M M A
;
_chemical_formula_sum "Si O2"
_cell_formula_units_Z 72
_cell_length_a 16.370395
_cell_length_b 15.082503
_cell_length_c 14.308274
_cell_angle_alpha 90.000000
_cell_angle_beta 90.000000
_cell_angle_gamma 90.000000
_cell_volume 3532.806308
_symmetry_space_group_name_H-M "I M M A"
_symmetry_group_IT_number 74
_symmetry_cell_setting 'orthorhombic'
loop_
_space_group_symop_operation_xyz
x,y,z
-x,1/2-y,z
x,-y,-z
-x,1/2+y,-z
-x,-y,-z
x,1/2+y,-z
-x,y,z
x,1/2-y,z
1/2+x,1/2+y,1/2+z
1/2-x,-y,1/2+z
1/2+x,1/2-y,1/2-z
1/2-x,y,1/2-z
1/2-x,1/2-y,1/2-z
1/2+x,y,1/2-z
1/2-x,1/2+y,1/2+z
1/2+x,-y,1/2+z
loop_
_atom_site_type_symbol
_atom_site_label
_atom_site_fract_x
_atom_site_fract_y
_atom_site_fract_z
Si Si1 0.833634 0.572725 0.692098
Si Si2 0.269935 0.750000 0.860957
Si Si3 0.097187 0.750000 0.222183
Si Si4 0.000000 0.645799 0.723896
Si Si5 0.153386 0.121345 0.620463
Si Si6 0.708584 0.250000 0.552234
Si Si7 0.500000 0.107623 0.003901
O O1 0.750000 0.561390 0.750000
O O2 0.819567 0.659580 0.628918
O O3 0.843893 0.483700 0.634050
O O4 0.915406 0.596387 0.751139
O O5 0.250000 0.750000 0.750000
O O6 0.200683 0.750000 0.939992
O O7 0.132916 0.833591 0.279775
O O8 0.129466 0.750000 0.116659
O O9 0.000000 0.750000 0.227089
O O10 0.000000 0.750000 0.749462
O O11 0.000000 0.636620 0.611064
O O12 0.235626 0.165946 0.582443
O O13 0.078571 0.141407 0.552032
O O14 0.500000 0.000000 0.000000
#
# Coordination Sequence:
#
# PCOD9540016 Si02
#       7
#    16   8   8   8  16   8   8
#     4  11  22  40  61  89 129 164 208 260 313 377
#     4  10  23  40  62  91 119 156 213 261 314 372
#     4  11  23  42  61  92 130 170 213 258 310 379
#     4  12  24  34  56  93 125 163 206 253 322 382
#     4  11  22  39  61  96 131 162 208 258 321 383
#     4  11  24  38  65  90 124 170 211 255 319 382
#     4  12  22  34  58  98 128 160 201 259 332 384
#
# _framework density 20.380398
#
# number of rings (size 3 to 8) (size 9 to 14) (size 15 to 20)
#    0.000    0.889    4.444    4.000    3.111    0.000 
#    0.000    0.000    9.778    0.000    0.000    7.778 
#    0.000    0.000    0.000    0.000    0.000    0.000 
#
# Total GULP energy -201086.307632 kJ/mol
# GULP energy per Si atom -5585.730768 kJ/mol
# Density = 2.033401 g / cm^3
# Si number density = 20.380398 Si / 1000 Ang^3
#
#
#
# Elastic Constant Matrix: (Units=GPa)
#
#
# Indices 1 2 3 4 5 6 
#
# 1 97.8024 6.8223 32.3541 0.0000 0.0000 0.0000
# 2 6.8223 141.2531 7.3986 0.0000 0.0000 0.0000
# 3 32.3541 7.3986 101.8973 0.0000 0.0000 0.0000
# 4 0.0000 0.0000 0.0000 -52.4673 0.0000 0.0000
# 5 0.0000 0.0000 0.0000 0.0000 43.8603 0.0000
# 6 0.0000 0.0000 0.0000 0.0000 0.0000 16.6798
#
#
#
# Elastic Compliance Matrix: (Units=1/GPa)
#
#
# Indices 1 2 3 4 5 6 
#
# 1 0.011443 -0.000364 -0.003607 0.000000 0.000000 0.000000
# 2 -0.000364 0.007118 -0.000401 0.000000 0.000000 0.000000
# 3 -0.003607 -0.000401 0.010988 0.000000 0.000000 0.000000
# 4 0.000000 0.000000 0.000000 -0.019059 0.000000 0.000000
# 5 0.000000 0.000000 0.000000 0.000000 0.022800 0.000000
# 6 0.000000 0.000000 0.000000 0.000000 0.000000 0.059953
#
#
# Mechanical properties :
#
#
# Convention : Reuss Voigt Hill
#
# Bulk Modulus (GPa) = 48.06451 48.23366 48.14908
# Shear Modulus (GPa) = 45.90445 21.23975 33.57210
#
# Velocity S-wave (km/s) = 4.75108 3.23176 4.06307
# Velocity P-wave (km/s) = 7.33020 6.13545 6.75928
#
# Compressibility (1/GPa) = 0.02080537
#
# Stress axis : x y z
#
# Youngs Moduli (GPa) = 87.38727 140.48727 91.00645
#
# Poissons Ratio (x) = 0.05110 0.32826
# Poissons Ratio (y) = 0.03179 0.03652
# Poissons Ratio (z) = 0.31521 0.05638
#
# Static dielectric constant tensor:
#      x y z
#    x 1.779410 0.000000 0.000000 
#    y 0.000000 1.748470 0.000000 
#    z 0.000000 0.000000 1.761240 
# 
# From -- ./inp_files/32004.got.cif
#   From: 2010.05.17/outbox.cif.g08.bks.cpg/sg74_17_cif.got.tgz:32004.got - 2010.06.03 17:57:02.
