data_PCOD9540053
_publ_section_title
;
Structure prediction by ZEFSAII (Michael W. Deem and Ramdas Pophale) SiO2 
 PCOD9540053
Probable space group: I M M A
;
_chemical_formula_sum "Si O2"
_cell_formula_units_Z 104
_cell_length_a 27.336659
_cell_length_b 21.899607
_cell_length_c 9.175929
_cell_angle_alpha 90.000000
_cell_angle_beta 90.000000
_cell_angle_gamma 90.000000
_cell_volume 5493.280822
_symmetry_space_group_name_H-M "I M M A"
_symmetry_group_IT_number 74
_symmetry_cell_setting 'orthorhombic'
loop_
_space_group_symop_operation_xyz
x,y,z
-x,1/2-y,z
x,-y,-z
-x,1/2+y,-z
-x,-y,-z
x,1/2+y,-z
-x,y,z
x,1/2-y,z
1/2+x,1/2+y,1/2+z
1/2-x,-y,1/2+z
1/2+x,1/2-y,1/2-z
1/2-x,y,1/2-z
1/2-x,1/2-y,1/2-z
1/2+x,y,1/2-z
1/2-x,1/2+y,1/2+z
1/2+x,-y,1/2+z
loop_
_atom_site_type_symbol
_atom_site_label
_atom_site_fract_x
_atom_site_fract_y
_atom_site_fract_z
Si Si1 0.692505 0.152095 0.284827
Si Si2 0.558998 0.867777 0.319595
Si Si3 0.321692 0.250000 0.049888
Si Si4 0.895631 0.983006 0.330812
Si Si5 0.704965 0.750000 0.478759
Si Si6 0.944348 0.938510 0.901430
Si Si7 0.376992 0.750000 0.243289
Si Si8 0.802333 0.988740 0.826673
O O1 0.750000 0.154228 0.250000
O O2 0.687018 0.190923 0.431125
O O3 0.681370 0.081440 0.302564
O O4 0.670379 0.190654 0.152039
O O5 0.500000 0.858702 0.318725
O O6 0.571903 0.924064 0.211020
O O7 0.574092 0.888337 0.484388
O O8 0.590134 0.808905 0.278493
O O9 0.360233 0.250000 0.922568
O O10 0.264816 0.250000 0.989209
O O11 0.891877 0.000000 0.500000
O O12 0.917774 0.041015 0.244215
O O13 0.842796 0.971464 0.256510
O O14 0.674652 0.750000 0.330770
O O15 0.000000 0.923066 0.865244
O O16 0.943972 0.000000 0.000000
O O17 0.750000 0.997701 0.750000
O O18 0.800395 0.000000 0.000000
#
# Coordination Sequence:
#
# PCOD9540053 Si02
#       8
#    16  16   8  16   8  16   8  16
#     4   8  18  38  62  80 121 170 201 243 301 354
#     4  10  23  43  60  86 123 163 205 256 319 376
#     4   9  19  40  60  90 124 159 208 251 303 357
#     4  11  23  37  64  92 121 158 212 252 309 371
#     4   9  19  36  60  92 114 157 209 248 285 357
#     4   8  16  35  61  83 111 149 195 251 301 358
#     4  12  24  34  64  94 122 160 205 261 312 366
#     4  11  23  39  59  91 133 170 201 246 306 366
#
# _framework density 18.932220000000001
#
# number of rings (size 3 to 8) (size 9 to 14) (size 15 to 20)
#    0.000    2.308    0.000    4.615    6.462    1.231 
#    2.769    0.000    0.000    0.000    0.000    6.462 
#    0.000    0.000    0.000    0.000    0.000    0.000 
#
# Total GULP energy -289875.277565 kJ/mol
# GULP energy per Si atom -5574.524569 kJ/mol
# Density = 1.888913 g / cm^3
# Si number density = 18.932220 Si / 1000 Ang^3
#
#
#
# Elastic Constant Matrix: (Units=GPa)
#
#
# Indices 1 2 3 4 5 6 
#
# 1 76.4526 37.8148 52.9707 0.0000 0.0000 0.0000
# 2 37.8148 81.2247 44.2766 0.0000 0.0000 0.0000
# 3 52.9707 44.2766 155.2518 0.0000 0.0000 0.0000
# 4 0.0000 0.0000 0.0000 3.5127 0.0000 0.0000
# 5 0.0000 0.0000 0.0000 0.0000 27.1818 0.0000
# 6 0.0000 0.0000 0.0000 0.0000 0.0000 50.2980
#
#
#
# Elastic Compliance Matrix: (Units=1/GPa)
#
#
# Indices 1 2 3 4 5 6 
#
# 1 0.019661 -0.006508 -0.004852 0.000000 0.000000 0.000000
# 2 -0.006508 0.016732 -0.002551 0.000000 0.000000 0.000000
# 3 -0.004852 -0.002551 0.008824 0.000000 0.000000 0.000000
# 4 0.000000 0.000000 0.000000 0.284679 0.000000 0.000000
# 5 0.000000 0.000000 0.000000 0.000000 0.036789 0.000000
# 6 0.000000 0.000000 0.000000 0.000000 0.000000 0.019882
#
#
# Mechanical properties :
#
#
# Convention : Reuss Voigt Hill
#
# Bulk Modulus (GPa) = 57.49100 64.78370 61.13735
# Shear Modulus (GPa) = 11.89942 28.05628 19.97785
#
# Velocity S-wave (km/s) = 2.50977 3.85376 3.25196
# Velocity P-wave (km/s) = 6.23147 7.35493 6.81639
#
# Compressibility (1/GPa) = 0.01739403
#
# Stress axis : x y z
#
# Youngs Moduli (GPa) = 50.86229 59.76453 113.32431
#
# Poissons Ratio (x) = 0.38897 0.54985
# Poissons Ratio (y) = 0.33103 0.28913
# Poissons Ratio (z) = 0.24678 0.15248
#
# Static dielectric constant tensor:
#      x y z
#    x 1.671340 0.000000 0.000000 
#    y 0.000000 1.689040 0.000000 
#    z 0.000000 0.000000 1.647690 
# 
# From -- ./inp_files/15282.got.cif
#   From: 2010.05.17/outbox.cif.g08.bks.cpg/sg74_8_cif.got.tgz:15282.got - 2010.06.03 17:57:02.
