data_PCOD9540090
_publ_section_title
;
Structure prediction by ZEFSAII (Michael W. Deem and Ramdas Pophale) SiO2 
 PCOD9540090
Probable space group: I M M A
;
_chemical_formula_sum "Si O2"
_cell_formula_units_Z 88
_cell_length_a 15.475002
_cell_length_b 11.164060
_cell_length_c 25.429744
_cell_angle_alpha 90.000000
_cell_angle_beta 90.000000
_cell_angle_gamma 90.000000
_cell_volume 4393.340499
_symmetry_space_group_name_H-M "I M M A"
_symmetry_group_IT_number 74
_symmetry_cell_setting 'orthorhombic'
loop_
_space_group_symop_operation_xyz
x,y,z
-x,1/2-y,z
x,-y,-z
-x,1/2+y,-z
-x,-y,-z
x,1/2+y,-z
-x,y,z
x,1/2-y,z
1/2+x,1/2+y,1/2+z
1/2-x,-y,1/2+z
1/2+x,1/2-y,1/2-z
1/2-x,y,1/2-z
1/2-x,1/2-y,1/2-z
1/2+x,y,1/2-z
1/2-x,1/2+y,1/2+z
1/2+x,-y,1/2+z
loop_
_atom_site_type_symbol
_atom_site_label
_atom_site_fract_x
_atom_site_fract_y
_atom_site_fract_z
Si Si1 0.605333 0.750000 0.385144
Si Si2 0.150986 0.996892 0.060223
Si Si3 0.670545 0.499371 0.786289
Si Si4 0.681604 0.391267 0.101525
Si Si5 0.104613 0.250000 0.759017
Si Si6 0.000000 0.608924 0.873420
Si Si7 0.000000 0.890584 0.757170
Si Si8 0.500000 0.389613 0.041273
O O1 0.500000 0.750000 0.391575
O O2 0.645106 0.634591 0.414092
O O3 0.622498 0.750000 0.322085
O O4 0.244563 0.058390 0.063260
O O5 0.084581 0.070910 0.095622
O O6 0.121518 0.000000 0.000000
O O7 0.750000 0.538724 0.750000
O O8 0.690510 0.527587 0.846505
O O9 0.646032 0.364972 0.769194
O O10 0.585113 0.572734 0.772922
O O11 0.696465 0.250000 0.113385
O O12 0.586582 0.401267 0.076291
O O13 0.000000 0.250000 0.752632
O O14 0.000000 0.750000 0.868558
O O15 0.000000 0.551168 0.815290
O O16 0.000000 0.750000 0.762817
O O17 0.500000 0.250000 0.020228
O O18 0.500000 0.500000 0.000000
#
# Coordination Sequence:
#
# PCOD9540090 Si02
#       8
#     8  16  16  16   8   8   8   8
#     4  11  24  43  69  98 140 189 222 273 339 392
#     4  12  26  42  67  97 135 178 233 278 331 399
#     4  12  24  41  69  97 136 177 222 270 336 405
#     4  11  25  45  69  98 137 175 223 282 345 401
#     4  11  23  43  69  98 141 175 222 276 332 409
#     4  11  23  39  64  95 137 174 216 275 327 392
#     4  11  23  40  63  97 133 172 221 271 329 399
#     4  10  23  49  73  98 133 180 231 299 356 411
#
# _framework density 20.030317
#
# number of rings (size 3 to 8) (size 9 to 14) (size 15 to 20)
#    0.000    0.727    1.818    6.000    2.545    4.364 
#    3.273    0.000    0.000    0.000    0.000    0.000 
#    0.000    0.000    0.000    0.000    0.000    0.000 
#
# Total GULP energy -246027.724436 kJ/mol
# GULP energy per Si atom -5591.539192 kJ/mol
# Density = 1.998473 g / cm^3
# Si number density = 20.030317 Si / 1000 Ang^3
#
#
#
# Elastic Constant Matrix: (Units=GPa)
#
#
# Indices 1 2 3 4 5 6 
#
# 1 74.2947 3.4617 -32.8653 0.0000 0.0000 0.0000
# 2 3.4617 116.6515 16.8917 0.0000 0.0000 0.0000
# 3 -32.8653 16.8917 58.0588 0.0000 0.0000 0.0000
# 4 0.0000 0.0000 0.0000 44.0064 0.0000 0.0000
# 5 0.0000 0.0000 0.0000 0.0000 34.3669 0.0000
# 6 0.0000 0.0000 0.0000 0.0000 0.0000 74.6105
#
#
#
# Elastic Compliance Matrix: (Units=1/GPa)
#
#
# Indices 1 2 3 4 5 6 
#
# 1 0.018459 -0.002152 0.011075 0.000000 0.000000 0.000000
# 2 -0.002152 0.009200 -0.003895 0.000000 0.000000 0.000000
# 3 0.011075 -0.003895 0.024626 0.000000 0.000000 0.000000
# 4 0.000000 0.000000 0.000000 0.022724 0.000000 0.000000
# 5 0.000000 0.000000 0.000000 0.000000 0.029098 0.000000
# 6 0.000000 0.000000 0.000000 0.000000 0.000000 0.013403
#
#
# Mechanical properties :
#
#
# Convention : Reuss Voigt Hill
#
# Bulk Modulus (GPa) = 16.03996 24.88682 20.46339
# Shear Modulus (GPa) = 38.99114 48.03122 43.51118
#
# Velocity S-wave (km/s) = 4.41682 4.90217 4.66581
# Velocity P-wave (km/s) = 5.83407 6.67033 6.26616
#
# Compressibility (1/GPa) = 0.06234431
#
# Stress axis : x y z
#
# Youngs Moduli (GPa) = 54.17276 108.69130 40.60681
#
# Poissons Ratio (x) = 0.23386 -0.44973
# Poissons Ratio (y) = 0.11656 0.15815
# Poissons Ratio (z) = -0.59998 0.42332
#
# Static dielectric constant tensor:
#      x y z
#    x 1.684370 0.000000 0.000000 
#    y 0.000000 1.730160 0.000000 
#    z 0.000000 0.000000 1.658360 
# 
# From -- ./inp_files/59879.got.cif
#   From: 2010.05.17/outbox.cif.g08.bks.cpg/sg74_30_cif.got.tgz:59879.got - 2010.06.03 17:57:02.
