data_PCOD9540266
_publ_section_title
;
Structure prediction by ZEFSAII (Michael W. Deem and Ramdas Pophale) SiO2 
 PCOD9540266
Probable space group: I M M A
;
_chemical_formula_sum "Si O2"
_cell_formula_units_Z 96
_cell_length_a 25.609499
_cell_length_b 18.757310
_cell_length_c 11.268206
_cell_angle_alpha 90.000000
_cell_angle_beta 90.000000
_cell_angle_gamma 90.000000
_cell_volume 5412.855287
_symmetry_space_group_name_H-M "I M M A"
_symmetry_group_IT_number 74
_symmetry_cell_setting 'orthorhombic'
loop_
_space_group_symop_operation_xyz
x,y,z
-x,1/2-y,z
x,-y,-z
-x,1/2+y,-z
-x,-y,-z
x,1/2+y,-z
-x,y,z
x,1/2-y,z
1/2+x,1/2+y,1/2+z
1/2-x,-y,1/2+z
1/2+x,1/2-y,1/2-z
1/2-x,y,1/2-z
1/2-x,1/2-y,1/2-z
1/2+x,y,1/2-z
1/2-x,1/2+y,1/2+z
1/2+x,-y,1/2+z
loop_
_atom_site_type_symbol
_atom_site_label
_atom_site_fract_x
_atom_site_fract_y
_atom_site_fract_z
Si Si1 0.713812 0.933231 0.929596
Si Si2 0.387121 0.908024 0.282736
Si Si3 0.500000 0.543125 0.308675
Si Si4 0.826460 0.945876 0.823168
Si Si5 0.500000 0.607832 0.577017
Si Si6 0.706126 0.164558 0.850351
Si Si7 0.890435 0.668475 0.968169
O O1 0.769710 0.958657 0.879396
O O2 0.680638 0.919055 0.811821
O O3 0.720549 0.869465 0.022755
O O4 0.690074 0.000000 0.000000
O O5 0.446507 0.929103 0.249496
O O6 0.348610 0.870989 0.189110
O O7 0.390272 0.854920 0.394548
O O8 0.359566 0.981618 0.323463
O O9 0.500000 0.573867 0.443931
O O10 0.500000 0.457857 0.330430
O O11 0.853319 0.885486 0.900055
O O12 0.551903 0.654406 0.583235
O O13 0.702400 0.250000 0.855979
O O14 0.750000 0.146522 0.750000
O O15 0.874567 0.750000 0.956222
#
# Coordination Sequence:
#
# PCOD9540266 Si02
#       7
#    16  16   8  16   8  16  16
#     4  11  22  37  56  84 111 149 191 237 284 341
#     4  11  20  37  59  87 115 152 196 243 287 348
#     4   9  18  32  58  84 112 145 192 242 290 332
#     4  11  22  35  59  81 113 150 193 234 282 345
#     4   9  17  32  50  81 113 146 177 231 284 338
#     4  11  23  39  60  86 119 154 190 239 294 344
#     4  11  21  33  53  83 117 149 183 227 289 344
#
# _framework density 17.735555999999999
#
# number of rings (size 3 to 8) (size 9 to 14) (size 15 to 20)
#    0.000    1.333    3.333    4.250    0.000    2.667 
#    0.000    2.917    0.000    3.000    0.000    0.000 
#    0.000    0.000    0.000    0.000    0.000    0.000 
#
# Total GULP energy -267961.667038 kJ/mol
# GULP energy per Si atom -5582.534730 kJ/mol
# Density = 1.769519 g / cm^3
# Si number density = 17.735556 Si / 1000 Ang^3
#
#
#
# Elastic Constant Matrix: (Units=GPa)
#
#
# Indices 1 2 3 4 5 6 
#
# 1 70.8759 1.1383 2.5717 0.0000 0.0000 0.0000
# 2 1.1383 84.3006 5.2768 0.0000 0.0000 0.0000
# 3 2.5717 5.2768 56.3828 0.0000 0.0000 0.0000
# 4 0.0000 0.0000 0.0000 21.6189 0.0000 0.0000
# 5 0.0000 0.0000 0.0000 0.0000 21.4841 0.0000
# 6 0.0000 0.0000 0.0000 0.0000 0.0000 22.9963
#
#
#
# Elastic Compliance Matrix: (Units=1/GPa)
#
#
# Indices 1 2 3 4 5 6 
#
# 1 0.014134 -0.000151 -0.000631 0.000000 0.000000 0.000000
# 2 -0.000151 0.011934 -0.001110 0.000000 0.000000 0.000000
# 3 -0.000631 -0.001110 0.017869 0.000000 0.000000 0.000000
# 4 0.000000 0.000000 0.000000 0.046256 0.000000 0.000000
# 5 0.000000 0.000000 0.000000 0.000000 0.046546 0.000000
# 6 0.000000 0.000000 0.000000 0.000000 0.000000 0.043485
#
#
# Mechanical properties :
#
#
# Convention : Reuss Voigt Hill
#
# Bulk Modulus (GPa) = 24.90470 25.50368 25.20419
# Shear Modulus (GPa) = 25.33027 26.72467 26.02747
#
# Velocity S-wave (km/s) = 3.78328 3.88602 3.83499
# Velocity P-wave (km/s) = 5.75821 5.87759 5.81821
#
# Compressibility (1/GPa) = 0.04015306
#
# Stress axis : x y z
#
# Youngs Moduli (GPa) = 70.74897 83.79536 55.96427
#
# Poissons Ratio (x) = 0.01269 0.03529
# Poissons Ratio (y) = 0.01071 0.06212
# Poissons Ratio (z) = 0.04461 0.09301
#
# Static dielectric constant tensor:
#      x y z
#    x 1.642930 0.000000 0.000000 
#    y 0.000000 1.587290 0.000000 
#    z 0.000000 0.000000 1.608430 
# 
# From -- ./inp_files/22501.got.cif
#   From: 2010.05.17/outbox.cif.g08.bks.cpg/sg74_12_cif.got.tgz:22501.got - 2010.06.03 17:57:02.
