data_PCOD9540173
_publ_section_title
;
Structure prediction by ZEFSAII (Michael W. Deem and Ramdas Pophale) SiO2 
 PCOD9540173
Probable space group: I M M A
;
_chemical_formula_sum "Si O2"
_cell_formula_units_Z 96
_cell_length_a 19.942088
_cell_length_b 22.811557
_cell_length_c 12.753081
_cell_angle_alpha 90.000000
_cell_angle_beta 90.000000
_cell_angle_gamma 90.000000
_cell_volume 5801.505061
_symmetry_space_group_name_H-M "I M M A"
_symmetry_group_IT_number 74
_symmetry_cell_setting 'orthorhombic'
loop_
_space_group_symop_operation_xyz
x,y,z
-x,1/2-y,z
x,-y,-z
-x,1/2+y,-z
-x,-y,-z
x,1/2+y,-z
-x,y,z
x,1/2-y,z
1/2+x,1/2+y,1/2+z
1/2-x,-y,1/2+z
1/2+x,1/2-y,1/2-z
1/2-x,y,1/2-z
1/2-x,1/2-y,1/2-z
1/2+x,y,1/2-z
1/2-x,1/2+y,1/2+z
1/2+x,-y,1/2+z
loop_
_atom_site_type_symbol
_atom_site_label
_atom_site_fract_x
_atom_site_fract_y
_atom_site_fract_z
Si Si1 0.215444 0.750000 0.079507
Si Si2 0.653175 0.067305 0.042004
Si Si3 0.198441 0.123730 0.014605
Si Si4 0.822268 0.064718 0.799857
Si Si5 0.920956 0.873997 0.357877
Si Si6 0.674619 0.572657 0.722163
Si Si7 0.142461 0.750000 0.300232
O O1 0.163609 0.750000 0.177602
O O2 0.288467 0.750000 0.133807
O O3 0.207560 0.808092 0.010312
O O4 0.728538 0.092269 0.024688
O O5 0.637490 0.072276 0.166001
O O6 0.603586 0.106240 0.972636
O O7 0.651720 0.000000 0.000000
O O8 0.156618 0.110078 0.119880
O O9 0.167420 0.095284 0.910683
O O10 0.750000 0.082925 0.750000
O O11 0.879481 0.084241 0.720314
O O12 0.820730 0.995017 0.812604
O O13 0.897818 0.808299 0.330198
O O14 0.000000 0.880511 0.346642
O O15 0.750000 0.592773 0.750000
#
# Coordination Sequence:
#
# PCOD9540173 Si02
#       7
#     8  16  16  16  16  16   8
#     4  11  20  32  62  86 112 147 192 248 277 342
#     4  11  19  36  55  82 119 150 188 234 288 338
#     4  11  19  32  56  88 114 144 191 238 292 332
#     4  11  17  34  58  83 115 149 185 238 289 341
#     4  12  24  36  58  88 117 150 192 236 286 346
#     4   9  19  31  53  84 116 148 181 232 286 340
#     4  11  21  40  55  83 119 150 187 235 298 333
#
# _framework density 16.547429999999999
#
# number of rings (size 3 to 8) (size 9 to 14) (size 15 to 20)
#    0.000    1.167    6.667    2.750    0.000    0.333 
#    0.000    4.583    0.000    3.000    0.000    0.000 
#    0.000    0.000    0.000    0.000    0.000    0.000 
#
# Total GULP energy -267739.574434 kJ/mol
# GULP energy per Si atom -5577.907801 kJ/mol
# Density = 1.650977 g / cm^3
# Si number density = 16.547430 Si / 1000 Ang^3
#
#
#
# Elastic Constant Matrix: (Units=GPa)
#
#
# Indices 1 2 3 4 5 6 
#
# 1 74.4166 16.9304 31.6176 0.0000 0.0000 0.0000
# 2 16.9304 73.8275 48.6366 0.0000 0.0000 0.0000
# 3 31.6176 48.6366 140.8339 0.0000 0.0000 0.0000
# 4 0.0000 0.0000 0.0000 28.7381 0.0000 0.0000
# 5 0.0000 0.0000 0.0000 0.0000 10.8243 0.0000
# 6 0.0000 0.0000 0.0000 0.0000 0.0000 -4.4415
#
#
#
# Elastic Compliance Matrix: (Units=1/GPa)
#
#
# Indices 1 2 3 4 5 6 
#
# 1 0.014996 -0.001581 -0.002821 0.000000 0.000000 0.000000
# 2 -0.001581 0.017701 -0.005758 0.000000 0.000000 0.000000
# 3 -0.002821 -0.005758 0.009722 0.000000 0.000000 0.000000
# 4 0.000000 0.000000 0.000000 0.034797 0.000000 0.000000
# 5 0.000000 0.000000 0.000000 0.000000 0.092385 0.000000
# 6 0.000000 0.000000 0.000000 0.000000 0.000000 -0.225149
#
#
# Mechanical properties :
#
#
# Convention : Reuss Voigt Hill
#
# Bulk Modulus (GPa) = 45.24842 53.71636 49.48239
# Shear Modulus (GPa) = -179.45266 19.81707 -79.81779
#
# Velocity S-wave (km/s) = -10.42511 3.46438 -6.95273
# Velocity P-wave (km/s) = 10.84004 6.96671 5.87245
#
# Compressibility (1/GPa) = 0.02210022
#
# Stress axis : x y z
#
# Youngs Moduli (GPa) = 66.68467 56.49423 102.85546
#
# Poissons Ratio (x) = 0.08930 0.29013
# Poissons Ratio (y) = 0.10541 0.59225
# Poissons Ratio (z) = 0.18810 0.32530
#
# Static dielectric constant tensor:
#      x y z
#    x 1.532680 0.000000 0.000000 
#    y 0.000000 1.551630 0.000000 
#    z 0.000000 0.000000 1.610900 
# 
# From -- ./inp_files/23974.got.cif
#   From: 2010.05.17/outbox.cif.g08.bks.cpg/sg74_12_cif.got.tgz:23974.got - 2010.06.03 17:57:02.
