data_PCOD9540278
_publ_section_title
;
Structure prediction by ZEFSAII (Michael W. Deem and Ramdas Pophale) SiO2 
 PCOD9540278
Probable space group: I M M A
;
_chemical_formula_sum "Si O2"
_cell_formula_units_Z 64
_cell_length_a 15.249760
_cell_length_b 18.173534
_cell_length_c 11.454264
_cell_angle_alpha 90.000000
_cell_angle_beta 90.000000
_cell_angle_gamma 90.000000
_cell_volume 3174.457998
_symmetry_space_group_name_H-M "I M M A"
_symmetry_group_IT_number 74
_symmetry_cell_setting 'orthorhombic'
loop_
_space_group_symop_operation_xyz
x,y,z
-x,1/2-y,z
x,-y,-z
-x,1/2+y,-z
-x,-y,-z
x,1/2+y,-z
-x,y,z
x,1/2-y,z
1/2+x,1/2+y,1/2+z
1/2-x,-y,1/2+z
1/2+x,1/2-y,1/2-z
1/2-x,y,1/2-z
1/2-x,1/2-y,1/2-z
1/2+x,y,1/2-z
1/2-x,1/2+y,1/2+z
1/2+x,-y,1/2+z
loop_
_atom_site_type_symbol
_atom_site_label
_atom_site_fract_x
_atom_site_fract_y
_atom_site_fract_z
Si Si1 0.800413 0.125250 0.073326
Si Si2 0.599682 0.092856 0.655485
Si Si3 0.331868 0.250000 0.013009
Si Si4 0.250000 0.505764 0.750000
Si Si5 0.603082 0.250000 0.276668
Si Si6 0.856861 0.250000 0.742490
O O1 0.730555 0.178492 0.011783
O O2 0.851056 0.178575 0.164848
O O3 0.751447 0.060028 0.139694
O O4 0.865736 0.092918 0.977294
O O5 0.500000 0.067317 0.663421
O O6 0.665055 0.044931 0.734508
O O7 0.608062 0.177189 0.696091
O O8 0.380068 0.250000 0.137758
O O9 0.384154 0.250000 0.893179
O O10 0.500000 0.250000 0.302005
O O11 0.750000 0.250000 0.750000
#
# Coordination Sequence:
#
# PCOD9540278 Si02
#       6
#    16  16   8   8   8   8
#     4  11  21  42  67  93 131 175 219 272 330 390
#     4  12  26  43  70 102 128 171 230 281 327 389
#     4  11  20  40  67  92 126 177 216 259 340 398
#     4  12  24  42  64  96 140 178 206 270 338 398
#     4  11  22  37  64 100 129 169 222 278 329 390
#     4  12  21  43  72  95 128 171 220 280 340 389
#
# _framework density 20.160920999999998
#
# number of rings (size 3 to 8) (size 9 to 14) (size 15 to 20)
#    0.000    0.500    6.250    3.375    0.000    4.000 
#    0.000    0.000    0.000    4.500    0.000    0.000 
#    0.000    0.000    0.000    0.000    0.000    0.000 
#
# Total GULP energy -179028.451979 kJ/mol
# GULP energy per Si atom -5594.639124 kJ/mol
# Density = 2.011503 g / cm^3
# Si number density = 20.160921 Si / 1000 Ang^3
#
#
#
# Elastic Constant Matrix: (Units=GPa)
#
#
# Indices 1 2 3 4 5 6 
#
# 1 110.9569 46.7042 38.2294 0.0000 0.0000 0.0000
# 2 46.7042 119.1605 35.5063 0.0000 0.0000 0.0000
# 3 38.2294 35.5063 128.8496 0.0000 0.0000 0.0000
# 4 0.0000 0.0000 0.0000 9.2988 0.0000 0.0000
# 5 0.0000 0.0000 0.0000 0.0000 29.7616 0.0000
# 6 0.0000 0.0000 0.0000 0.0000 0.0000 -3.4728
#
#
#
# Elastic Compliance Matrix: (Units=1/GPa)
#
#
# Indices 1 2 3 4 5 6 
#
# 1 0.011409 -0.003773 -0.002345 0.000000 0.000000 0.000000
# 2 -0.003773 0.010390 -0.001744 0.000000 0.000000 0.000000
# 3 -0.002345 -0.001744 0.008937 0.000000 0.000000 0.000000
# 4 0.000000 0.000000 0.000000 0.107541 0.000000 0.000000
# 5 0.000000 0.000000 0.000000 0.000000 0.033600 0.000000
# 6 0.000000 0.000000 0.000000 0.000000 0.000000 -0.287951
#
#
# Mechanical properties :
#
#
# Convention : Reuss Voigt Hill
#
# Bulk Modulus (GPa) = 66.61057 66.64962 66.63009
# Shear Modulus (GPa) = -52.44031 23.01934 -14.71048
#
# Velocity S-wave (km/s) = -5.10562 3.38269 -2.70414
# Velocity P-wave (km/s) = 1.28268 6.95610 4.83436
#
# Compressibility (1/GPa) = 0.01501263
#
# Stress axis : x y z
#
# Youngs Moduli (GPa) = 87.65345 96.24319 111.88977
#
# Poissons Ratio (x) = 0.36310 0.26241
# Poissons Ratio (y) = 0.33069 0.19512
# Poissons Ratio (z) = 0.20557 0.16783
#
# Static dielectric constant tensor:
#      x y z
#    x 1.698210 0.000000 0.000000 
#    y 0.000000 1.703250 0.000000 
#    z 0.000000 0.000000 1.720730 
# 
# From -- ./inp_files/20024.got.cif
#   From: 2010.05.17/outbox.cif.g08.bks.cpg/sg74_11_cif.got.tgz:20024.got - 2010.06.03 17:57:02.
