data_PCOD9540035
_publ_section_title
;
Structure prediction by ZEFSAII (Michael W. Deem and Ramdas Pophale) SiO2 
 PCOD9540035
Probable space group: I M M A
;
_chemical_formula_sum "Si O2"
_cell_formula_units_Z 116
_cell_length_a 9.004288
_cell_length_b 26.700722
_cell_length_c 25.717175
_cell_angle_alpha 90.000000
_cell_angle_beta 90.000000
_cell_angle_gamma 90.000000
_cell_volume 6182.948691
_symmetry_space_group_name_H-M "I M M A"
_symmetry_group_IT_number 74
_symmetry_cell_setting 'orthorhombic'
loop_
_space_group_symop_operation_xyz
x,y,z
-x,1/2-y,z
x,-y,-z
-x,1/2+y,-z
-x,-y,-z
x,1/2+y,-z
-x,y,z
x,1/2-y,z
1/2+x,1/2+y,1/2+z
1/2-x,-y,1/2+z
1/2+x,1/2-y,1/2-z
1/2-x,y,1/2-z
1/2-x,1/2-y,1/2-z
1/2+x,y,1/2-z
1/2-x,1/2+y,1/2+z
1/2+x,-y,1/2+z
loop_
_atom_site_type_symbol
_atom_site_label
_atom_site_fract_x
_atom_site_fract_y
_atom_site_fract_z
Si Si1 0.325656 0.594759 0.697574
Si Si2 0.336851 0.851143 0.303837
Si Si3 0.827906 0.193462 0.449576
Si Si4 0.177244 0.963929 0.603416
Si Si5 0.324397 0.905185 0.511525
Si Si6 0.821070 0.071275 0.891603
Si Si7 0.831138 0.692554 0.675971
Si Si8 0.500000 0.750000 0.327132
O O1 0.500000 0.584928 0.696498
O O2 0.250000 0.574536 0.750000
O O3 0.245709 0.571954 0.647368
O O4 0.290148 0.653947 0.695697
O O5 0.500000 0.872686 0.290700
O O6 0.250000 0.849151 0.250000
O O7 0.275814 0.886780 0.349382
O O8 0.372596 0.795104 0.324255
O O9 0.786033 0.250000 0.465544
O O10 0.725118 0.150214 0.471547
O O11 0.824663 0.191807 0.386891
O O12 0.000000 0.184637 0.464838
O O13 0.237811 0.944320 0.548000
O O14 0.000000 0.961408 0.604081
O O15 0.236740 0.019223 0.615510
O O16 0.500000 0.912306 0.519996
O O17 0.291949 0.911740 0.450713
O O18 0.000000 0.063719 0.887611
O O19 0.809604 0.750000 0.692015
O O20 0.000000 0.676697 0.690617
#
# Coordination Sequence:
#
# PCOD9540035 Si02
#       8
#    16  16  16  16  16  16  16   4
#     4  12  25  41  62  89 119 156 205 257 311 369
#     4   9  19  37  64  93 127 163 201 244 295 359
#     4   9  18  34  57  84 120 161 201 248 304 363
#     4  12  25  42  64  86 118 163 208 258 315 374
#     4  11  22  38  61  90 121 161 209 258 312 376
#     4  10  23  42  60  91 126 162 202 254 308 361
#     4   9  18  35  59  85 117 157 197 247 303 360
#     4   8  18  36  70  96 124 172 204 236 302 366
#
# _framework density 18.761275000000001
#
# number of rings (size 3 to 8) (size 9 to 14) (size 15 to 20)
#    0.414    1.379    1.379    4.345    0.000    4.690 
#    1.241    2.759    0.000    0.000    0.000    0.000 
#    0.000    0.000    0.000    0.000    0.000    0.000 
#
# Total GULP energy -323144.582917 kJ/mol
# GULP energy per Si atom -5571.458326 kJ/mol
# Density = 1.871857 g / cm^3
# Si number density = 18.761275 Si / 1000 Ang^3
#
#
#
# Elastic Constant Matrix: (Units=GPa)
#
#
# Indices 1 2 3 4 5 6 
#
# 1 70.3365 45.6226 43.6123 0.0000 0.0000 0.0000
# 2 45.6226 117.2014 50.0141 0.0000 0.0000 0.0000
# 3 43.6123 50.0141 69.5347 0.0000 0.0000 0.0000
# 4 0.0000 0.0000 0.0000 0.6177 0.0000 0.0000
# 5 0.0000 0.0000 0.0000 0.0000 17.4688 0.0000
# 6 0.0000 0.0000 0.0000 0.0000 0.0000 28.8700
#
#
#
# Elastic Compliance Matrix: (Units=1/GPa)
#
#
# Indices 1 2 3 4 5 6 
#
# 1 0.024703 -0.004335 -0.012376 0.000000 0.000000 0.000000
# 2 -0.004335 0.013072 -0.006683 0.000000 0.000000 0.000000
# 3 -0.012376 -0.006683 0.026950 -0.000001 0.000000 0.000000
# 4 0.000000 0.000000 -0.000001 1.618952 0.000000 0.000000
# 5 0.000000 0.000000 0.000000 0.000000 0.057245 0.000000
# 6 0.000000 0.000000 0.000000 0.000000 0.000000 0.034638
#
#
# Mechanical properties :
#
#
# Convention : Reuss Voigt Hill
#
# Bulk Modulus (GPa) = 55.74972 59.50783 57.62878
# Shear Modulus (GPa) = 2.73474 17.24620 9.99047
#
# Velocity S-wave (km/s) = 1.20864 3.03519 2.31011
# Velocity P-wave (km/s) = 5.63272 6.63856 6.15622
#
# Compressibility (1/GPa) = 0.01793731
#
# Stress axis : x y z
#
# Youngs Moduli (GPa) = 40.48158 76.50106 37.10515
#
# Poissons Ratio (x) = 0.33161 0.45920
# Poissons Ratio (y) = 0.17548 0.24799
# Poissons Ratio (z) = 0.50099 0.51128
#
# Static dielectric constant tensor:
#      x y z
#    x 1.643920 0.000000 0.000000 
#    y 0.000000 1.651100 0.000000 
#    z 0.000000 0.000000 1.658730 
# 
# From -- ./inp_files/57709.got.cif
#   From: 2010.05.17/outbox.cif.g08.bks.cpg/sg74_29_cif.got.tgz:57709.got - 2010.06.03 17:57:02.
