data_PCOD9540458
_publ_section_title
;
Structure prediction by ZEFSAII (Michael W. Deem and Ramdas Pophale) SiO2 
 PCOD9540458
Probable space group: I M M A
;
_chemical_formula_sum "Si O2"
_cell_formula_units_Z 64
_cell_length_a 21.456328
_cell_length_b 16.027958
_cell_length_c 8.759218
_cell_angle_alpha 90.000000
_cell_angle_beta 90.000000
_cell_angle_gamma 90.000000
_cell_volume 3012.304916
_symmetry_space_group_name_H-M "I M M A"
_symmetry_group_IT_number 74
_symmetry_cell_setting 'orthorhombic'
loop_
_space_group_symop_operation_xyz
x,y,z
-x,1/2-y,z
x,-y,-z
-x,1/2+y,-z
-x,-y,-z
x,1/2+y,-z
-x,y,z
x,1/2-y,z
1/2+x,1/2+y,1/2+z
1/2-x,-y,1/2+z
1/2+x,1/2-y,1/2-z
1/2-x,y,1/2-z
1/2-x,1/2-y,1/2-z
1/2+x,y,1/2-z
1/2-x,1/2+y,1/2+z
1/2+x,-y,1/2+z
loop_
_atom_site_type_symbol
_atom_site_label
_atom_site_fract_x
_atom_site_fract_y
_atom_site_fract_z
Si Si1 0.000000 0.651909 0.572405
Si Si2 0.245256 0.593741 0.931827
Si Si3 0.875705 0.152099 0.904329
Si Si4 0.000000 0.851836 0.916615
Si Si5 0.371788 0.092495 0.930988
O O1 0.937393 0.629617 0.483180
O O2 0.000000 0.750000 0.592092
O O3 0.000000 0.614611 0.743633
O O4 0.250000 0.590184 0.750000
O O5 0.239910 0.500000 0.000000
O O6 0.184282 0.641510 0.988807
O O7 0.309150 0.632444 0.998739
O O8 0.882776 0.250000 0.861889
O O9 0.867051 0.099056 0.750791
O O10 0.937571 0.124256 0.993852
O O11 0.000000 0.750000 0.912310
O O12 0.371890 0.000000 0.000000
#
# Coordination Sequence:
#
# PCOD9540458 Si02
#       5
#     8  16  16   8  16
#     4  11  22  39  63  90 123 161 207 260 309 364
#     4  11  23  41  63  90 126 165 207 256 310 370
#     4  11  23  41  65  92 125 165 210 258 310 368
#     4   9  21  39  58  86 120 155 198 252 311 364
#     4  11  23  40  61  89 124 163 207 253 309 375
#
# _framework density 21.246189000000001
#
# number of rings (size 3 to 8) (size 9 to 14) (size 15 to 20)
#    0.000    1.250    0.000    7.125    0.000    4.500 
#    0.000    1.875    0.000    0.000    0.000    0.000 
#    0.000    0.000    0.000    0.000    0.000    0.000 
#
# Total GULP energy -178965.342630 kJ/mol
# GULP energy per Si atom -5592.666957 kJ/mol
# Density = 2.119783 g / cm^3
# Si number density = 21.246189 Si / 1000 Ang^3
#
#
#
# Elastic Constant Matrix: (Units=GPa)
#
#
# Indices 1 2 3 4 5 6 
#
# 1 206.3400 6.7632 76.1441 0.0000 0.0000 0.0000
# 2 6.7632 35.2366 8.0191 0.0000 0.0000 0.0000
# 3 76.1441 8.0191 188.8374 0.0000 0.0000 0.0000
# 4 0.0000 0.0000 0.0000 26.5567 0.0000 0.0000
# 5 0.0000 0.0000 0.0000 0.0000 42.6535 0.0000
# 6 0.0000 0.0000 0.0000 0.0000 0.0000 17.0285
#
#
#
# Elastic Compliance Matrix: (Units=1/GPa)
#
#
# Indices 1 2 3 4 5 6 
#
# 1 0.005705 -0.000577 -0.002276 0.000000 0.000000 0.000000
# 2 -0.000577 0.028715 -0.000987 0.000000 0.000000 0.000000
# 3 -0.002276 -0.000987 0.006255 0.000000 0.000000 0.000000
# 4 0.000000 0.000000 0.000000 0.037655 0.000000 0.000000
# 5 0.000000 0.000000 0.000000 0.000000 0.023445 0.000000
# 6 0.000000 0.000000 0.000000 0.000000 0.000000 0.058725
#
#
# Mechanical properties :
#
#
# Convention : Reuss Voigt Hill
#
# Bulk Modulus (GPa) = 30.30692 68.02963 49.16827
# Shear Modulus (GPa) = 27.90516 39.88025 33.89271
#
# Velocity S-wave (km/s) = 3.62804 4.33720 3.99837
# Velocity P-wave (km/s) = 5.64322 7.56115 6.67146
#
# Compressibility (1/GPa) = 0.03299577
#
# Stress axis : x y z
#
# Youngs Moduli (GPa) = 175.27973 34.82513 159.86723
#
# Poissons Ratio (x) = 0.02010 0.36385
# Poissons Ratio (y) = 0.10115 0.15774
# Poissons Ratio (z) = 0.39893 0.03436
#
# Static dielectric constant tensor:
#      x y z
#    x 1.800890 0.000000 0.000000 
#    y 0.000000 1.799700 0.000000 
#    z 0.000000 0.000000 1.740050 
# 
# From -- ./inp_files/11817.got.cif
#   From: 2010.05.17/outbox.cif.g08.bks.cpg/sg74_6_cif.got.tgz:11817.got - 2010.06.03 17:57:02.
