data_PCOD9540446
_publ_section_title
;
Structure prediction by ZEFSAII (Michael W. Deem and Ramdas Pophale) SiO2 
 PCOD9540446
Probable space group: I M M A
;
_chemical_formula_sum "Si O2"
_cell_formula_units_Z 96
_cell_length_a 25.496437
_cell_length_b 18.003689
_cell_length_c 10.813389
_cell_angle_alpha 90.000000
_cell_angle_beta 90.000000
_cell_angle_gamma 90.000000
_cell_volume 4963.669113
_symmetry_space_group_name_H-M "I M M A"
_symmetry_group_IT_number 74
_symmetry_cell_setting 'orthorhombic'
loop_
_space_group_symop_operation_xyz
x,y,z
-x,1/2-y,z
x,-y,-z
-x,1/2+y,-z
-x,-y,-z
x,1/2+y,-z
-x,y,z
x,1/2-y,z
1/2+x,1/2+y,1/2+z
1/2-x,-y,1/2+z
1/2+x,1/2-y,1/2-z
1/2-x,y,1/2-z
1/2-x,1/2-y,1/2-z
1/2+x,y,1/2-z
1/2-x,1/2+y,1/2+z
1/2+x,-y,1/2+z
loop_
_atom_site_type_symbol
_atom_site_label
_atom_site_fract_x
_atom_site_fract_y
_atom_site_fract_z
Si Si1 0.000000 0.066866 0.895357
Si Si2 0.605468 0.415220 0.259165
Si Si3 0.902845 0.161799 0.983417
Si Si4 0.706098 0.662110 0.849769
Si Si5 0.830689 0.939930 0.168358
Si Si6 0.000000 0.974580 0.644509
Si Si7 0.283827 0.567826 0.076253
O O1 0.049540 0.119121 0.918394
O O2 0.000000 0.036038 0.755508
O O3 0.000000 0.000000 0.000000
O O4 0.593613 0.360559 0.372957
O O5 0.652219 0.378868 0.181952
O O6 0.629400 0.490901 0.320123
O O7 0.553803 0.430963 0.178148
O O8 0.903526 0.250000 0.967827
O O9 0.852447 0.123164 0.921492
O O10 0.699483 0.750000 0.841957
O O11 0.750000 0.639380 0.750000
O O12 0.723606 0.635962 0.984513
O O13 0.772809 0.961495 0.121404
O O14 0.819605 0.912455 0.307403
O O15 0.000000 0.000000 0.500000
O O16 0.308685 0.500000 0.000000
#
# Coordination Sequence:
#
# PCOD9540446 Si02
#       7
#     8  16  16  16  16   8  16
#     4  12  21  46  69  98 127 168 223 284 333 396
#     4  12  23  44  69  98 135 179 235 280 341 408
#     4  12  24  40  67 100 131 169 220 282 343 405
#     4  11  24  41  65  99 141 182 223 282 350 412
#     4  11  23  38  66  96 130 172 230 281 339 405
#     4  12  28  44  72 104 136 174 229 295 346 401
#     4  11  22  38  61  94 130 178 226 280 334 412
#
# _framework density 19.340530999999999
#
# number of rings (size 3 to 8) (size 9 to 14) (size 15 to 20)
#    0.000    0.500    5.000    4.250    2.333    2.667 
#    0.000    2.917    0.000    3.000    0.000    0.000 
#    0.000    0.000    0.000    0.000    0.000    0.000 
#
# Total GULP energy -268183.834851 kJ/mol
# GULP energy per Si atom -5587.163226 kJ/mol
# Density = 1.929651 g / cm^3
# Si number density = 19.340531 Si / 1000 Ang^3
#
#
#
# Elastic Constant Matrix: (Units=GPa)
#
#
# Indices 1 2 3 4 5 6 
#
# 1 99.4492 39.6709 31.8747 0.0000 0.0000 0.0000
# 2 39.6709 110.2179 40.7255 0.0000 0.0000 0.0000
# 3 31.8747 40.7255 131.9465 0.0000 0.0000 0.0000
# 4 0.0000 0.0000 0.0000 21.0073 0.0000 0.0000
# 5 0.0000 0.0000 0.0000 0.0000 31.8457 0.0000
# 6 0.0000 0.0000 0.0000 0.0000 0.0000 22.3125
#
#
#
# Elastic Compliance Matrix: (Units=1/GPa)
#
#
# Indices 1 2 3 4 5 6 
#
# 1 0.012101 -0.003697 -0.001782 0.000000 0.000000 0.000000
# 2 -0.003697 0.011370 -0.002616 0.000000 0.000000 0.000000
# 3 -0.001782 -0.002616 0.008817 0.000000 0.000000 0.000000
# 4 0.000000 0.000000 0.000000 0.047603 0.000000 0.000000
# 5 0.000000 0.000000 0.000000 0.000000 0.031401 0.000000
# 6 0.000000 0.000000 0.000000 0.000000 0.000000 0.044818
#
#
# Mechanical properties :
#
#
# Convention : Reuss Voigt Hill
#
# Bulk Modulus (GPa) = 62.12245 62.90619 62.51432
# Shear Modulus (GPa) = 28.14238 30.32259 29.23248
#
# Velocity S-wave (km/s) = 3.81871 3.96387 3.89197
# Velocity P-wave (km/s) = 7.18565 7.31751 7.25188
#
# Compressibility (1/GPa) = 0.01609724
#
# Stress axis : x y z
#
# Youngs Moduli (GPa) = 82.63486 87.94764 113.41830
#
# Poissons Ratio (x) = 0.32515 0.20214
# Poissons Ratio (y) = 0.30551 0.29674
# Poissons Ratio (z) = 0.14728 0.23010
#
# Static dielectric constant tensor:
#      x y z
#    x 1.704950 0.000000 0.000000 
#    y 0.000000 1.656450 0.000000 
#    z 0.000000 0.000000 1.718800 
# 
# From -- ./inp_files/25232.got.cif
#   From: 2010.05.17/outbox.cif.g08.bks.cpg/sg74_13_cif.got.tgz:25232.got - 2010.06.03 17:57:02.
