data_PCOD9540057
_publ_section_title
;
Structure prediction by ZEFSAII (Michael W. Deem and Ramdas Pophale) SiO2 
 PCOD9540057
Probable space group: I M M A
;
_chemical_formula_sum "Si O2"
_cell_formula_units_Z 64
_cell_length_a 11.477863
_cell_length_b 18.639737
_cell_length_c 13.204450
_cell_angle_alpha 90.000000
_cell_angle_beta 90.000000
_cell_angle_gamma 90.000000
_cell_volume 2825.017441
_symmetry_space_group_name_H-M "I M M A"
_symmetry_group_IT_number 74
_symmetry_cell_setting 'orthorhombic'
loop_
_space_group_symop_operation_xyz
x,y,z
-x,1/2-y,z
x,-y,-z
-x,1/2+y,-z
-x,-y,-z
x,1/2+y,-z
-x,y,z
x,1/2-y,z
1/2+x,1/2+y,1/2+z
1/2-x,-y,1/2+z
1/2+x,1/2-y,1/2-z
1/2-x,y,1/2-z
1/2-x,1/2-y,1/2-z
1/2+x,y,1/2-z
1/2-x,1/2+y,1/2+z
1/2+x,-y,1/2+z
loop_
_atom_site_type_symbol
_atom_site_label
_atom_site_fract_x
_atom_site_fract_y
_atom_site_fract_z
Si Si1 0.369091 0.829641 0.877491
Si Si2 0.631828 0.667195 0.317201
Si Si3 0.298191 0.922443 0.504484
Si Si4 0.374493 0.960009 0.721702
O O1 0.500000 0.827797 0.916750
O O2 0.336534 0.750000 0.844367
O O3 0.287312 0.859449 0.964032
O O4 0.368016 0.886832 0.786977
O O5 0.500000 0.661490 0.270564
O O6 0.636759 0.750000 0.357198
O O7 0.750000 0.659918 0.250000
O O8 0.639397 0.606379 0.404675
O O9 0.374903 0.938230 0.604016
O O10 0.234467 0.000000 0.500000
O O11 0.500000 0.994101 0.747636
O O12 0.250000 0.996367 0.750000
#
# Coordination Sequence:
#
# PCOD9540057 Si02
#       4
#    16  16  16  16
#     4   9  19  37  62  92 124 158 198 247 306 369
#     4  10  23  43  65  89 118 159 213 264 306 353
#     4  11  23  37  58  90 125 161 201 247 304 368
#     4   9  19  35  56  85 120 155 192 237 293 357
#
# _framework density 22.654727000000001
#
# number of rings (size 3 to 8) (size 9 to 14) (size 15 to 20)
#    0.000    2.250    0.000    1.500    0.000   12.000 
#    0.000    7.500    0.000    0.000    0.000    0.000 
#    0.000    0.000    0.000    0.000    0.000    0.000 
#
# Total GULP energy -178242.243204 kJ/mol
# GULP energy per Si atom -5570.070100 kJ/mol
# Density = 2.260316 g / cm^3
# Si number density = 22.654727 Si / 1000 Ang^3
#
#
#
# Elastic Constant Matrix: (Units=GPa)
#
#
# Indices 1 2 3 4 5 6 
#
# 1 186.3239 18.1522 42.7065 0.0000 0.0000 0.0000
# 2 18.1522 119.0135 5.2998 0.0001 -0.0001 0.0000
# 3 42.7065 5.2998 64.4204 0.0003 -0.0001 0.0000
# 4 0.0000 0.0001 0.0003 27.6697 -0.0001 0.0000
# 5 0.0000 -0.0001 -0.0001 -0.0001 -17.0954 0.0000
# 6 0.0000 0.0000 0.0000 0.0000 0.0000 14.1961
#
#
#
# Elastic Compliance Matrix: (Units=1/GPa)
#
#
# Indices 1 2 3 4 5 6 
#
# 1 0.006402 -0.000790 -0.004179 0.000000 0.000000 0.000000
# 2 -0.000790 0.008531 -0.000178 0.000000 0.000000 0.000000
# 3 -0.004179 -0.000178 0.018308 0.000000 0.000000 0.000000
# 4 0.000000 0.000000 0.000000 0.036141 0.000000 0.000000
# 5 0.000000 0.000000 0.000000 0.000000 -0.058495 0.000000
# 6 0.000000 0.000000 0.000000 0.000000 0.000000 0.070442
#
#
# Mechanical properties :
#
#
# Convention : Reuss Voigt Hill
#
# Bulk Modulus (GPa) = 43.57988 55.78609 49.68298
# Shear Modulus (GPa) = 50.36687 25.19401 37.78044
#
# Velocity S-wave (km/s) = 4.72024 3.33841 4.08813
# Velocity P-wave (km/s) = 6.99899 6.28792 6.65296
#
# Compressibility (1/GPa) = 0.02294637
#
# Stress axis : x y z
#
# Youngs Moduli (GPa) = 156.20510 117.22134 54.62073
#
# Poissons Ratio (x) = 0.09264 0.22826
# Poissons Ratio (y) = 0.12345 0.00972
# Poissons Ratio (z) = 0.65278 0.02085
#
# Static dielectric constant tensor:
#      x y z
#    x 1.899200 0.000000 0.000000 
#    y 0.000000 1.849180 0.000000 
#    z 0.000000 0.000000 1.853360 
# 
# From -- ./inp_files/18425.got.cif
#   From: 2010.05.17/outbox.cif.g08.bks.cpg/sg74_10_cif.got.tgz:18425.got - 2010.06.03 17:57:02.
