data_PCOD9540344
_publ_section_title
;
Structure prediction by ZEFSAII (Michael W. Deem and Ramdas Pophale) SiO2 
 PCOD9540344
Probable space group: I M M A
;
_chemical_formula_sum "Si O2"
_cell_formula_units_Z 112
_cell_length_a 19.739712
_cell_length_b 17.752609
_cell_length_c 16.767998
_cell_angle_alpha 90.000000
_cell_angle_beta 90.000000
_cell_angle_gamma 90.000000
_cell_volume 5876.032828
_symmetry_space_group_name_H-M "I M M A"
_symmetry_group_IT_number 74
_symmetry_cell_setting 'orthorhombic'
loop_
_space_group_symop_operation_xyz
x,y,z
-x,1/2-y,z
x,-y,-z
-x,1/2+y,-z
-x,-y,-z
x,1/2+y,-z
-x,y,z
x,1/2-y,z
1/2+x,1/2+y,1/2+z
1/2-x,-y,1/2+z
1/2+x,1/2-y,1/2-z
1/2-x,y,1/2-z
1/2-x,1/2-y,1/2-z
1/2+x,y,1/2-z
1/2-x,1/2+y,1/2+z
1/2+x,-y,1/2+z
loop_
_atom_site_type_symbol
_atom_site_label
_atom_site_fract_x
_atom_site_fract_y
_atom_site_fract_z
Si Si1 0.376131 0.573303 0.545854
Si Si2 0.225579 0.840282 0.364452
Si Si3 0.077969 0.832997 0.094915
Si Si4 0.352657 0.587786 0.270874
Si Si5 0.920933 0.929499 0.776998
Si Si6 0.780995 0.579507 0.531822
Si Si7 0.313970 0.161107 0.192459
O O1 0.403182 0.500000 0.500000
O O2 0.382859 0.639862 0.482697
O O3 0.414311 0.582272 0.628102
O O4 0.296311 0.562496 0.559362
O O5 0.235366 0.750000 0.355355
O O6 0.287628 0.889456 0.326344
O O7 0.162132 0.867797 0.310619
O O8 0.218798 0.864500 0.456111
O O9 0.101135 0.750000 0.117803
O O10 0.087590 0.883623 0.172292
O O11 0.000000 0.832557 0.072001
O O12 0.372068 0.501178 0.256693
O O13 0.883786 0.859378 0.736134
O O14 0.000000 0.940188 0.755619
O O15 0.809733 0.500000 0.500000
O O16 0.813388 0.616189 0.609445
O O17 0.307465 0.250000 0.177107
O O18 0.250000 0.139931 0.250000
#
# Coordination Sequence:
#
# PCOD9540344 Si02
#       7
#    16  16  16  16  16  16  16
#     4  11  21  36  58  88 125 164 206 249 306 377
#     4  11  22  36  62  93 128 168 208 261 322 381
#     4  11  22  34  51  79 123 169 204 248 306 371
#     4  11  21  36  58  89 124 162 208 257 304 372
#     4  12  25  41  65  91 126 172 217 262 314 382
#     4  11  21  39  65  96 126 164 206 269 321 378
#     4  11  25  43  66  94 130 170 215 269 324 380
#
# _framework density 19.060479000000001
#
# number of rings (size 3 to 8) (size 9 to 14) (size 15 to 20)
#    0.000    0.857    4.286    4.714    2.000    2.000 
#    0.000    0.000    0.000    4.714    0.000    0.000 
#    0.000    0.000    0.000    0.000    0.000    0.000 
#
# Total GULP energy -312520.053838 kJ/mol
# GULP energy per Si atom -5580.715247 kJ/mol
# Density = 1.901710 g / cm^3
# Si number density = 19.060479 Si / 1000 Ang^3
#
#
#
# Elastic Constant Matrix: (Units=GPa)
#
#
# Indices 1 2 3 4 5 6 
#
# 1 59.1023 13.9539 31.0812 0.0000 0.0000 0.0000
# 2 13.9539 61.8118 24.4763 0.0000 0.0000 0.0000
# 3 31.0812 24.4763 118.4697 0.0000 0.0000 0.0000
# 4 0.0000 0.0000 0.0000 30.2731 0.0000 0.0000
# 5 0.0000 0.0000 0.0000 0.0000 -140.6541 0.0000
# 6 0.0000 0.0000 0.0000 0.0000 0.0000 16.4848
#
#
#
# Elastic Compliance Matrix: (Units=1/GPa)
#
#
# Indices 1 2 3 4 5 6 
#
# 1 0.020021 -0.002657 -0.004704 0.000000 0.000000 0.000000
# 2 -0.002657 0.017972 -0.003016 0.000000 0.000000 0.000000
# 3 -0.004704 -0.003016 0.010298 0.000000 0.000000 0.000000
# 4 0.000000 0.000000 0.000000 0.033033 0.000000 0.000000
# 5 0.000000 0.000000 0.000000 0.000000 -0.007110 0.000000
# 6 0.000000 0.000000 0.000000 0.000000 0.000000 0.060662
#
#
# Mechanical properties :
#
#
# Convention : Reuss Voigt Hill
#
# Bulk Modulus (GPa) = 36.31390 42.04518 39.17954
# Shear Modulus (GPa) = 30.33819 -7.45440 11.44190
#
# Velocity S-wave (km/s) = 3.99392 -1.97975 2.45275
# Velocity P-wave (km/s) = 6.35309 4.10863 5.34989
#
# Compressibility (1/GPa) = 0.02753766
#
# Stress axis : x y z
#
# Youngs Moduli (GPa) = 49.94827 55.64130 97.10517
#
# Poissons Ratio (x) = 0.14784 0.45674
# Poissons Ratio (y) = 0.13272 0.29287
# Poissons Ratio (z) = 0.23494 0.16782
#
# Static dielectric constant tensor:
#      x y z
#    x 1.695770 0.000000 0.000000 
#    y 0.000000 1.773480 0.000000 
#    z 0.000000 0.000000 1.659890 
# 
# From -- ./inp_files/45457.got.cif
#   From: 2010.05.17/outbox.cif.g08.bks.cpg/sg74_23_cif.got.tgz:45457.got - 2010.06.03 17:57:02.
