data_PCOD9540973
_publ_section_title
;
Structure prediction by ZEFSAII (Michael W. Deem and Ramdas Pophale) SiO2 
 PCOD9540973
Probable space group: I M M A
;
_chemical_formula_sum "Si O2"
_cell_formula_units_Z 58
_cell_length_a 27.000000
_cell_length_b 9.000000
_cell_length_c 24.000000
_cell_angle_alpha 90.000000
_cell_angle_beta 90.000000
_cell_angle_gamma 90.000000
_cell_volume 5832.000000
_symmetry_space_group_name_H-M "I M M A"
_symmetry_group_IT_number 74
_symmetry_cell_setting 'orthorhombic'
loop_
_space_group_symop_operation_xyz
x,y,z
-x,1/2-y,z
x,-y,-z
-x,1/2+y,-z
-x,-y,-z
x,1/2+y,-z
-x,y,z
x,1/2-y,z
1/2+x,1/2+y,1/2+z
1/2-x,-y,1/2+z
1/2+x,1/2-y,1/2-z
1/2-x,y,1/2-z
1/2-x,1/2-y,1/2-z
1/2+x,y,1/2-z
1/2-x,1/2+y,1/2+z
1/2+x,-y,1/2+z
loop_
_atom_site_type_symbol
_atom_site_label
_atom_site_fract_x
_atom_site_fract_y
_atom_site_fract_z
Si Si1 0.878864 0.927212 0.555399
Si Si2 0.601041 0.573556 0.275358
Si Si3 0.442211 0.574290 0.834375
Si Si4 0.500000 0.750000 0.569836
Si Si5 0.314757 0.427533 0.560071
Si Si6 0.908399 0.585153 0.885796
Si Si7 0.306394 0.077573 0.230439
Si Si8 0.290083 0.427567 0.887499
O O1 0.874355 0.750000 0.549540
O O2 0.911661 0.959316 0.609939
O O3 0.900806 0.000000 0.500000
O O4 0.825673 0.001880 0.566279
O O5 0.600610 0.750000 0.279988
O O6 0.575862 0.519014 0.218424
O O7 0.576643 0.497890 0.329154
O O8 0.657091 0.511620 0.270807
O O9 0.500000 0.547952 0.844119
O O10 0.435523 0.750000 0.821895
O O11 0.455840 0.877686 0.576321
O O12 0.306027 0.500000 0.500000
O O13 0.318997 0.250000 0.554801
O O14 0.365162 0.493986 0.584844
O O15 0.267131 0.460007 0.598619
O O16 0.888576 0.750000 0.870106
O O17 0.321970 0.250000 0.226609
O O18 0.250000 0.072445 0.250000
O O19 0.306824 0.001422 0.170178
O O20 0.296488 0.250000 0.885233
#
# Coordination Sequence:
#
# PCOD9540973 Si02
#       8
#    16  16  16   4  16  16  16  16
#     4  11  23  40  63  89 125 167 215 266 319 379
#     4  12  24  38  62  96 131 168 210 265 321 380
#     4  10  23  42  64  89 121 168 219 266 319 378
#     4   8  24  44  72  96 124 172 216 260 336 390
#     4  11  24  42  67  98 132 170 216 266 322 388
#     4  10  22  43  68  93 128 164 214 260 323 384
#     4  11  23  38  59  89 128 171 213 252 312 382
#     4  11  23  39  61  93 130 168 212 261 317 379
#
# _framework density 9.9451300000000007
#
# number of rings (size 3 to 8) (size 9 to 14) (size 15 to 20)
#    0.414    0.828    1.379    4.552    0.966    7.724 
#    0.000    1.379    0.000    0.000    0.000    0.000 
#    0.000    0.000    0.000    0.000    0.000    0.000 
#
# Total GULP energy -323587.212252 kJ/mol
# GULP energy per Si atom -5579.089866 kJ/mol
# Density = 0.992249 g / cm^3
# Si number density = 9.945130 Si / 1000 Ang^3
#
#
#
# Elastic Constant Matrix: (Units=GPa)
#
#
# Indices 1 2 3 4 5 6 
#
# 1 90.9183 16.7491 -13.9671 0.0000 0.0000 0.0000
# 2 16.7491 77.2175 4.2863 0.0000 0.0000 0.0000
# 3 -13.9671 4.2863 27.1623 0.0000 0.0000 0.0000
# 4 0.0000 0.0000 0.0000 28.9051 0.0000 0.0000
# 5 0.0000 0.0000 0.0000 0.0000 4.0913 0.0000
# 6 0.0000 0.0000 0.0000 0.0000 0.0000 25.6520
#
#
#
# Elastic Compliance Matrix: (Units=1/GPa)
#
#
# Indices 1 2 3 4 5 6 
#
# 1 0.012651 -0.003133 0.007000 0.000000 0.000000 0.000000
# 2 -0.003133 0.013841 -0.003795 0.000000 0.000000 0.000000
# 3 0.007000 -0.003795 0.041014 0.000000 0.000000 0.000000
# 4 0.000000 0.000000 0.000000 0.034596 0.000000 0.000000
# 5 0.000000 0.000000 0.000000 0.000000 0.244418 0.000000
# 6 0.000000 0.000000 0.000000 0.000000 0.000000 0.038983
#
#
# Mechanical properties :
#
#
# Convention : Reuss Voigt Hill
#
# Bulk Modulus (GPa) = 14.78196 23.27053 19.02624
# Shear Modulus (GPa) = 12.25763 24.27833 18.26798
#
# Velocity S-wave (km/s) = 2.48516 3.49752 3.03386
# Velocity P-wave (km/s) = 3.96012 5.29481 4.67534
#
# Compressibility (1/GPa) = 0.06765005
#
# Stress axis : x y z
#
# Youngs Moduli (GPa) = 79.04311 72.25121 24.38192
#
# Poissons Ratio (x) = 0.22634 -0.17067
# Poissons Ratio (y) = 0.24762 0.09253
# Poissons Ratio (z) = -0.55328 0.27419
#
# Static dielectric constant tensor:
#      x y z
#    x 1.707220 0.000000 0.000000 
#    y 0.000000 1.671170 0.000000 
#    z 0.000000 0.000000 1.719160 
# 
# From -- ./inp_files/62431.got.cif
#   From: 2010.05.17/outbox.ucp.g08.bks.cvg/sg74_32_cif.got.tgz:62431.got - 2010.06.11 16:37:44.
