data_PCOD9540778
_publ_section_title
;
Structure prediction by ZEFSAII (Michael W. Deem and Ramdas Pophale) SiO2 
 PCOD9540778
Probable space group: I M M A
;
_chemical_formula_sum "Si O2"
_cell_formula_units_Z 64
_cell_length_a 11.368998
_cell_length_b 32.724557
_cell_length_c 7.172234
_cell_angle_alpha 90.000000
_cell_angle_beta 90.000000
_cell_angle_gamma 90.000000
_cell_volume 2668.396833
_symmetry_space_group_name_H-M "I M M A"
_symmetry_group_IT_number 74
_symmetry_cell_setting 'orthorhombic'
loop_
_space_group_symop_operation_xyz
x,y,z
-x,1/2-y,z
x,-y,-z
-x,1/2+y,-z
-x,-y,-z
x,1/2+y,-z
-x,y,z
x,1/2-y,z
1/2+x,1/2+y,1/2+z
1/2-x,-y,1/2+z
1/2+x,1/2-y,1/2-z
1/2-x,y,1/2-z
1/2-x,1/2-y,1/2-z
1/2+x,y,1/2-z
1/2-x,1/2+y,1/2+z
1/2+x,-y,1/2+z
loop_
_atom_site_type_symbol
_atom_site_label
_atom_site_fract_x
_atom_site_fract_y
_atom_site_fract_z
Si Si1 0.626343 0.548480 0.027309
Si Si2 0.126507 0.701761 0.564361
Si Si3 0.626966 0.673649 0.512629
Si Si4 0.126395 0.077676 0.956018
O O1 0.500000 0.564921 0.955664
O O2 0.750942 0.564428 0.953554
O O3 0.626818 0.560083 0.246291
O O4 0.626527 0.500000 0.000000
O O5 0.128222 0.750000 0.607705
O O6 0.246975 0.692141 0.458721
O O7 0.126933 0.678226 0.761754
O O8 0.000000 0.692097 0.473155
O O9 0.500000 0.692132 0.454636
O O10 0.627487 0.626625 0.453493
O O11 0.000000 0.064201 0.038467
#
# Coordination Sequence:
#
# PCOD9540778 Si02
#       4
#    16  16  16  16
#     4   9  18  34  54  73  95 126 163 204 253 307
#     4   9  17  29  46  71 103 137 171 207 248 292
#     4   9  16  27  45  70 100 132 166 206 250 294
#     4   9  18  32  50  73  98 126 164 208 253 301
#
# _framework density 23.984441
#
# number of rings (size 3 to 8) (size 9 to 14) (size 15 to 20)
#    0.000    3.000    0.000    1.500    0.000    3.000 
#    0.000    5.000    0.000   27.000    0.000   14.000 
#    0.000   24.000    0.000    0.000    0.000    0.000 
#
# Total GULP energy -178386.563501 kJ/mol
# GULP energy per Si atom -5574.580109 kJ/mol
# Density = 2.392985 g / cm^3
# Si number density = 23.984441 Si / 1000 Ang^3
#
#
#
# Elastic Constant Matrix: (Units=GPa)
#
#
# Indices 1 2 3 4 5 6 
#
# 1 349.3214 37.2253 13.9995 -0.0003 -0.0029 -0.0052
# 2 37.2253 89.4677 26.9399 0.0004 -0.0012 -0.0009
# 3 13.9995 26.9399 129.4628 -0.0088 -0.0092 -0.0104
# 4 -0.0003 0.0004 -0.0088 34.4782 -0.0002 -0.0003
# 5 -0.0029 -0.0012 -0.0092 -0.0002 -46.9647 -0.0015
# 6 -0.0052 -0.0009 -0.0104 -0.0003 -0.0015 33.5441
#
#
#
# Elastic Compliance Matrix: (Units=1/GPa)
#
#
# Indices 1 2 3 4 5 6 
#
# 1 0.002996 -0.001226 -0.000069 0.000000 0.000000 0.000000
# 2 -0.001226 0.012426 -0.002453 -0.000001 0.000000 -0.000001
# 3 -0.000069 -0.002453 0.008242 0.000002 -0.000002 0.000002
# 4 0.000000 -0.000001 0.000002 0.029004 0.000000 0.000000
# 5 0.000000 0.000000 -0.000002 0.000000 -0.021293 -0.000001
# 6 0.000000 -0.000001 0.000002 0.000000 -0.000001 0.029811
#
#
# Mechanical properties :
#
#
# Convention : Reuss Voigt Hill
#
# Bulk Modulus (GPa) = 61.84914 80.50905 71.17910
# Shear Modulus (GPa) = 67.50177 36.88401 52.19289
#
# Velocity S-wave (km/s) = 5.31085 3.92577 4.66995
# Velocity P-wave (km/s) = 7.96555 7.36132 7.66939
#
# Compressibility (1/GPa) = 0.01616837
#
# Stress axis : x y z
#
# Youngs Moduli (GPa) = 333.76864 80.47679 121.32748
#
# Poissons Ratio (x) = 0.09865 0.00836
# Poissons Ratio (y) = 0.40915 0.29764
# Poissons Ratio (z) = 0.02299 0.19742
#
# Static dielectric constant tensor:
#      x y z
#    x 2.055800 0.000000 0.000000 
#    y 0.000000 1.831100 0.000000 
#    z 0.000000 0.000000 1.846400 
# 
# From -- ./inp_files/7327.got.cif
#   From: 2010.05.17/outbox.cif.g08.bks.cpg/sg74_4_cif.got.tgz:7327.got - 2010.06.03 17:57:02.
