data_PCOD9540001
_publ_section_title
;
Structure prediction by ZEFSAII (Michael W. Deem and Ramdas Pophale) SiO2 
 PCOD9540001
Probable space group: I M M A
;
_chemical_formula_sum "Si O2"
_cell_formula_units_Z 112
_cell_length_a 15.515519
_cell_length_b 28.820598
_cell_length_c 13.344127
_cell_angle_alpha 90.000000
_cell_angle_beta 90.000000
_cell_angle_gamma 90.000000
_cell_volume 5967.047045
_symmetry_space_group_name_H-M "I M M A"
_symmetry_group_IT_number 74
_symmetry_cell_setting 'orthorhombic'
loop_
_space_group_symop_operation_xyz
x,y,z
-x,1/2-y,z
x,-y,-z
-x,1/2+y,-z
-x,-y,-z
x,1/2+y,-z
-x,y,z
x,1/2-y,z
1/2+x,1/2+y,1/2+z
1/2-x,-y,1/2+z
1/2+x,1/2-y,1/2-z
1/2-x,y,1/2-z
1/2-x,1/2-y,1/2-z
1/2+x,y,1/2-z
1/2-x,1/2+y,1/2+z
1/2+x,-y,1/2+z
loop_
_atom_site_type_symbol
_atom_site_label
_atom_site_fract_x
_atom_site_fract_y
_atom_site_fract_z
Si Si1 0.165352 0.952485 0.542001
Si Si2 0.402005 0.523812 0.747773
Si Si3 0.396223 0.143672 0.531442
Si Si4 0.344313 0.922014 0.296520
Si Si5 0.301991 0.610396 0.656370
Si Si6 0.095125 0.376508 0.605085
Si Si7 0.255208 0.802890 0.129314
O O1 0.105996 0.970414 0.632650
O O2 0.232766 0.916662 0.588572
O O3 0.116089 0.922538 0.459094
O O4 0.206184 0.000000 0.500000
O O5 0.500000 0.520732 0.716159
O O6 0.356770 0.476821 0.712267
O O7 0.358644 0.569289 0.703151
O O8 0.500000 0.148621 0.536684
O O9 0.365410 0.097819 0.594040
O O10 0.361529 0.140047 0.417591
O O11 0.337789 0.182725 0.585203
O O12 0.250000 0.912231 0.250000
O O13 0.404281 0.894033 0.219591
O O14 0.250000 0.633051 0.750000
O O15 0.170737 0.338579 0.593148
O O16 0.000000 0.358729 0.578617
O O17 0.276263 0.750000 0.101994
O O18 0.250000 0.805743 0.250000
#
# Coordination Sequence:
#
# PCOD9540001 Si02
#       7
#    16  16  16  16  16  16  16
#     4  11  21  35  57  83 121 168 212 247 300 360
#     4  11  23  35  51  87 122 162 220 263 301 361
#     4  12  23  40  65  92 123 165 213 263 322 380
#     4  12  21  36  55  84 130 175 212 256 307 367
#     4  10  23  39  58  82 118 166 208 260 317 367
#     4  12  22  37  61  90 124 167 213 257 304 360
#     4  11  24  43  66  94 130 164 199 252 315 378
#
# _framework density 18.769753000000001
#
# number of rings (size 3 to 8) (size 9 to 14) (size 15 to 20)
#    0.000    0.714    5.714    3.429    2.000    1.143 
#    0.000    2.857    0.000    0.429    0.000    0.000 
#    0.000    0.000    0.000    0.000    0.000    0.000 
#
# Total GULP energy -312589.039535 kJ/mol
# GULP energy per Si atom -5581.947135 kJ/mol
# Density = 1.872703 g / cm^3
# Si number density = 18.769753 Si / 1000 Ang^3
#
#
#
# Elastic Constant Matrix: (Units=GPa)
#
#
# Indices 1 2 3 4 5 6 
#
# 1 127.5995 18.0491 31.7834 0.0000 0.0000 0.0000
# 2 18.0491 78.3080 27.2347 0.0000 0.0000 0.0000
# 3 31.7834 27.2347 90.3591 -0.0001 0.0000 -0.0001
# 4 0.0000 0.0000 -0.0001 12.1979 0.0000 0.0000
# 5 0.0000 0.0000 0.0000 0.0000 21.0552 0.0000
# 6 0.0000 0.0000 -0.0001 0.0000 0.0000 1.8684
#
#
#
# Elastic Compliance Matrix: (Units=1/GPa)
#
#
# Indices 1 2 3 4 5 6 
#
# 1 0.008666 -0.001047 -0.002733 0.000000 0.000000 0.000000
# 2 -0.001047 0.014392 -0.003970 0.000000 0.000000 0.000000
# 3 -0.002733 -0.003970 0.013225 0.000000 0.000000 0.000000
# 4 0.000000 0.000000 0.000000 0.081981 0.000000 0.000001
# 5 0.000000 0.000000 0.000000 0.000000 0.047494 0.000000
# 6 0.000000 0.000000 0.000000 0.000001 0.000000 0.535223
#
#
# Mechanical properties :
#
#
# Convention : Reuss Voigt Hill
#
# Bulk Modulus (GPa) = 48.11376 50.04458 49.07917
# Shear Modulus (GPa) = 6.91174 21.63760 14.27467
#
# Velocity S-wave (km/s) = 1.92104 3.39896 2.76073
# Velocity P-wave (km/s) = 5.53261 6.49031 6.03050
#
# Compressibility (1/GPa) = 0.02078407
#
# Stress axis : x y z
#
# Youngs Moduli (GPa) = 115.39658 69.48320 75.61686
#
# Poissons Ratio (x) = 0.07275 0.20663
# Poissons Ratio (y) = 0.12082 0.30016
# Poissons Ratio (z) = 0.31533 0.27582
#
# Static dielectric constant tensor:
#      x y z
#    x 1.689210 0.000000 0.000000 
#    y 0.000000 1.924210 0.000000 
#    z 0.000000 0.000000 1.679340 
# 
# From -- ./inp_files/21167.got.cif
#   From: 2010.05.17/outbox.cif.g08.bks.cpg/sg74_11_cif.got.tgz:21167.got - 2010.06.03 17:57:02.
