data_PCOD9540295
_publ_section_title
;
Structure prediction by ZEFSAII (Michael W. Deem and Ramdas Pophale) SiO2 
 PCOD9540295
Probable space group: I M M A
;
_chemical_formula_sum "Si O2"
_cell_formula_units_Z 112
_cell_length_a 15.640423
_cell_length_b 26.975405
_cell_length_c 13.815622
_cell_angle_alpha 90.000000
_cell_angle_beta 90.000000
_cell_angle_gamma 90.000000
_cell_volume 5828.904105
_symmetry_space_group_name_H-M "I M M A"
_symmetry_group_IT_number 74
_symmetry_cell_setting 'orthorhombic'
loop_
_space_group_symop_operation_xyz
x,y,z
-x,1/2-y,z
x,-y,-z
-x,1/2+y,-z
-x,-y,-z
x,1/2+y,-z
-x,y,z
x,1/2-y,z
1/2+x,1/2+y,1/2+z
1/2-x,-y,1/2+z
1/2+x,1/2-y,1/2-z
1/2-x,y,1/2-z
1/2-x,1/2-y,1/2-z
1/2+x,y,1/2-z
1/2-x,1/2+y,1/2+z
1/2+x,-y,1/2+z
loop_
_atom_site_type_symbol
_atom_site_label
_atom_site_fract_x
_atom_site_fract_y
_atom_site_fract_z
Si Si1 0.600932 0.847572 0.622787
Si Si2 0.593955 0.469461 0.686074
Si Si3 0.715995 0.438224 0.351825
Si Si4 0.597156 0.809500 0.841540
Si Si5 0.230500 0.394381 0.863461
Si Si6 0.249040 0.306343 0.012009
Si Si7 0.642413 0.483998 0.902775
O O1 0.500000 0.850490 0.597240
O O2 0.657771 0.896478 0.599981
O O3 0.604643 0.836100 0.737758
O O4 0.658221 0.807211 0.567829
O O5 0.500000 0.475527 0.647348
O O6 0.652619 0.515856 0.662001
O O7 0.638123 0.420745 0.642382
O O8 0.593710 0.471782 0.803518
O O9 0.750000 0.417338 0.250000
O O10 0.798658 0.466724 0.391485
O O11 0.500000 0.819578 0.878695
O O12 0.603334 0.750000 0.825286
O O13 0.674047 0.822602 0.914790
O O14 0.250000 0.386445 0.750000
O O15 0.294065 0.436430 0.906583
O O16 0.241038 0.344742 0.924217
O O17 0.268463 0.250000 0.981552
O O18 0.594067 0.500000 0.000000
#
# Coordination Sequence:
#
# PCOD9540295 Si02
#       7
#    16  16  16  16  16  16  16
#     4  11  21  32  51  82 118 150 179 217 271 338
#     4   9  18  33  52  75 105 141 177 215 265 325
#     4   9  17  30  49  72 102 138 173 209 251 311
#     4   9  19  36  56  80 112 145 176 220 284 350
#     4   9  20  38  55  74 105 144 185 227 276 327
#     4  11  22  36  57  80 104 141 190 239 282 327
#     4   9  17  31  52  75 101 133 169 216 271 324
#
# _framework density 19.214587999999999
#
# number of rings (size 3 to 8) (size 9 to 14) (size 15 to 20)
#    0.000    2.429    0.000    4.714    0.000    4.286 
#    0.000    2.857    0.000    4.714    0.000    2.000 
#    0.000    0.000    0.000    0.000    0.000    0.000 
#
# Total GULP energy -311789.152471 kJ/mol
# GULP energy per Si atom -5567.663437 kJ/mol
# Density = 1.917086 g / cm^3
# Si number density = 19.214588 Si / 1000 Ang^3
#
#
#
# Elastic Constant Matrix: (Units=GPa)
#
#
# Indices 1 2 3 4 5 6 
#
# 1 105.0690 12.6522 15.4910 0.0000 0.0000 0.0001
# 2 12.6522 58.9148 34.5033 0.0000 0.0000 0.0000
# 3 15.4910 34.5033 69.7398 -0.0002 0.0000 0.0002
# 4 0.0000 0.0000 -0.0002 43.5715 0.0000 0.0001
# 5 0.0000 0.0000 0.0000 0.0000 2.5984 0.0000
# 6 0.0001 0.0000 0.0002 0.0001 0.0000 48.0896
#
#
#
# Elastic Compliance Matrix: (Units=1/GPa)
#
#
# Indices 1 2 3 4 5 6 
#
# 1 0.009898 -0.001180 -0.001615 0.000000 0.000000 0.000000
# 2 -0.001180 0.024039 -0.011631 0.000000 0.000000 0.000000
# 3 -0.001615 -0.011631 0.020452 0.000000 0.000000 0.000000
# 4 0.000000 0.000000 0.000000 0.022951 0.000000 0.000000
# 5 0.000000 0.000000 0.000000 0.000000 0.384855 0.000000
# 6 0.000000 0.000000 0.000000 0.000000 0.000000 0.020795
#
#
# Mechanical properties :
#
#
# Convention : Reuss Voigt Hill
#
# Bulk Modulus (GPa) = 39.15848 39.89074 39.52461
# Shear Modulus (GPa) = 9.60888 30.25703 19.93295
#
# Velocity S-wave (km/s) = 2.23868 3.97254 3.22434
# Velocity P-wave (km/s) = 5.20635 6.46894 5.87168
#
# Compressibility (1/GPa) = 0.02553725
#
# Stress axis : x y z
#
# Youngs Moduli (GPa) = 101.03344 41.59966 48.89494
#
# Poissons Ratio (x) = 0.04908 0.07896
# Poissons Ratio (y) = 0.11921 0.56869
# Poissons Ratio (z) = 0.16315 0.48384
#
# Static dielectric constant tensor:
#      x y z
#    x 1.723680 0.000000 0.000000 
#    y 0.000000 1.675810 0.000000 
#    z 0.000000 0.000000 1.728580 
# 
# From -- ./inp_files/32767.got.cif
#   From: 2010.05.17/outbox.cif.g08.bks.cpg/sg74_17_cif.got.tgz:32767.got - 2010.06.03 17:57:02.
