data_PCOD9540914
_publ_section_title
;
Structure prediction by ZEFSAII (Michael W. Deem and Ramdas Pophale) SiO2 
 PCOD9540914
Probable space group: I M M A
;
_chemical_formula_sum "Si O2"
_cell_formula_units_Z 48
_cell_length_a 24.000000
_cell_length_b 9.000000
_cell_length_c 24.000000
_cell_angle_alpha 90.000000
_cell_angle_beta 90.000000
_cell_angle_gamma 90.000000
_cell_volume 5184.000000
_symmetry_space_group_name_H-M "I M M A"
_symmetry_group_IT_number 74
_symmetry_cell_setting 'orthorhombic'
loop_
_space_group_symop_operation_xyz
x,y,z
-x,1/2-y,z
x,-y,-z
-x,1/2+y,-z
-x,-y,-z
x,1/2+y,-z
-x,y,z
x,1/2-y,z
1/2+x,1/2+y,1/2+z
1/2-x,-y,1/2+z
1/2+x,1/2-y,1/2-z
1/2-x,y,1/2-z
1/2-x,1/2-y,1/2-z
1/2+x,y,1/2-z
1/2-x,1/2+y,1/2+z
1/2+x,-y,1/2+z
loop_
_atom_site_type_symbol
_atom_site_label
_atom_site_fract_x
_atom_site_fract_y
_atom_site_fract_z
Si Si1 0.869706 0.575516 0.822433
Si Si2 0.276517 0.427010 0.617764
Si Si3 0.434244 0.920872 0.223719
Si Si4 0.063790 0.573278 0.605765
Si Si5 0.870219 0.925740 0.946142
Si Si6 0.669361 0.073513 0.943562
O O1 0.868847 0.750000 0.809939
O O2 0.807356 0.512236 0.832298
O O3 0.900599 0.484711 0.775424
O O4 0.897156 0.556765 0.884436
O O5 0.283521 0.250000 0.623245
O O6 0.312338 0.486678 0.565030
O O7 0.212425 0.461505 0.606225
O O8 0.500000 0.924596 0.236811
O O9 0.418687 0.750000 0.211562
O O10 0.426138 0.019906 0.168970
O O11 0.069971 0.750000 0.601292
O O12 0.108949 0.491195 0.568786
O O13 0.000000 0.533487 0.591492
O O14 0.861671 0.750000 0.954680
O O15 0.897732 0.000000 0.000000
O O16 0.667537 0.250000 0.949774
O O17 0.690701 0.000000 0.000000
#
# Coordination Sequence:
#
# PCOD9540914 Si02
#       6
#    16  16  16  16  16  16
#     4   9  19  32  51  80 111 145 184 226 273 325
#     4   9  18  32  51  77 109 143 180 222 267 320
#     4  10  20  36  60  85 109 141 183 230 278 330
#     4  10  22  40  61  83 109 143 182 228 280 330
#     4   9  17  27  45  72 103 140 178 217 263 315
#     4  11  23  37  57  84 114 148 185 226 273 328
#
# _framework density 9.2592590000000001
#
# number of rings (size 3 to 8) (size 9 to 14) (size 15 to 20)
#    1.000    1.333    0.000    3.000    0.000    6.333 
#    0.000    0.833    0.000    5.500    0.000    0.000 
#    0.000    0.000    0.000    0.000    0.000    0.000 
#
# Total GULP energy -267239.370264 kJ/mol
# GULP energy per Si atom -5567.486881 kJ/mol
# Density = 0.923818 g / cm^3
# Si number density = 9.259259 Si / 1000 Ang^3
#
#
#
# Elastic Constant Matrix: (Units=GPa)
#
#
# Indices 1 2 3 4 5 6 
#
# 1 29.4012 14.4199 26.5789 0.0000 0.0000 0.0000
# 2 14.4199 41.2133 1.4822 0.0000 0.0000 0.0000
# 3 26.5789 1.4822 13.7246 0.0000 0.0000 0.0000
# 4 0.0000 0.0000 0.0000 31.0618 0.0000 0.0000
# 5 0.0000 0.0000 0.0000 0.0000 27.4516 0.0000
# 6 0.0000 0.0000 0.0000 0.0000 0.0000 19.1648
#
#
#
# Elastic Compliance Matrix: (Units=1/GPa)
#
#
# Indices 1 2 3 4 5 6 
#
# 1 -0.039493 0.011111 0.075283 0.000000 0.000000 0.000000
# 2 0.011111 0.021233 -0.023810 0.000000 0.000000 0.000000
# 3 0.075283 -0.023810 -0.070359 0.000000 0.000000 0.000000
# 4 0.000000 0.000000 0.000000 0.032194 0.000000 0.000000
# 5 0.000000 0.000000 0.000000 0.000000 0.036428 0.000000
# 6 0.000000 0.000000 0.000000 0.000000 0.000000 0.052179
#
#
# Mechanical properties :
#
#
# Convention : Reuss Voigt Hill
#
# Bulk Modulus (GPa) = 27.36159 18.81124 23.08642
# Shear Modulus (GPa) = -61.87838 18.32617 -21.77610
#
# Velocity S-wave (km/s) = -5.78678 3.14922 -3.43287
# Velocity P-wave (km/s) = 5.46277 4.83773 1.79419
#
# Compressibility (1/GPa) = 0.03654758
#
# Stress axis : x y z
#
# Youngs Moduli (GPa) = -25.32062 47.09696 -14.21283
#
# Poissons Ratio (x) = -0.52328 1.06998
# Poissons Ratio (y) = 0.28133 -0.33841
# Poissons Ratio (z) = 1.90621 1.12138
#
# Static dielectric constant tensor:
#      x y z
#    x 1.647620 0.000000 0.000000 
#    y 0.000000 1.607280 0.000000 
#    z 0.000000 0.000000 1.690220 
# 
# From -- ./inp_files/61918.got.cif
#   From: 2010.05.17/outbox.ucp.g08.bks.cvg/sg74_31_cif.got.tgz:61918.got - 2010.06.11 16:37:44.
