data_PCOD9540782
_publ_section_title
;
Structure prediction by ZEFSAII (Michael W. Deem and Ramdas Pophale) SiO2 
 PCOD9540782
Probable space group: I M M A
;
_chemical_formula_sum "Si O2"
_cell_formula_units_Z 64
_cell_length_a 8.570741
_cell_length_b 14.406718
_cell_length_c 20.269478
_cell_angle_alpha 90.000000
_cell_angle_beta 90.000000
_cell_angle_gamma 90.000000
_cell_volume 2502.799105
_symmetry_space_group_name_H-M "I M M A"
_symmetry_group_IT_number 74
_symmetry_cell_setting 'orthorhombic'
loop_
_space_group_symop_operation_xyz
x,y,z
-x,1/2-y,z
x,-y,-z
-x,1/2+y,-z
-x,-y,-z
x,1/2+y,-z
-x,y,z
x,1/2-y,z
1/2+x,1/2+y,1/2+z
1/2-x,-y,1/2+z
1/2+x,1/2-y,1/2-z
1/2-x,y,1/2-z
1/2-x,1/2-y,1/2-z
1/2+x,y,1/2-z
1/2-x,1/2+y,1/2+z
1/2+x,-y,1/2+z
loop_
_atom_site_type_symbol
_atom_site_label
_atom_site_fract_x
_atom_site_fract_y
_atom_site_fract_z
Si Si1 0.685848 0.851957 0.824290
Si Si2 0.820914 0.936444 0.345645
Si Si3 0.165570 0.890700 0.493392
Si Si4 0.500000 0.145496 0.516412
Si Si5 0.500000 0.861787 0.336026
O O1 0.500000 0.845903 0.820780
O O2 0.741781 0.750000 0.850079
O O3 0.750000 0.860326 0.750000
O O4 0.712051 0.953126 0.856989
O O5 0.827712 0.877320 0.414219
O O6 0.665852 0.898761 0.310215
O O7 0.000000 0.930505 0.319632
O O8 0.336172 0.866450 0.519723
O O9 0.000000 0.851947 0.519254
O O10 0.154600 0.000000 0.500000
O O11 0.500000 0.250000 0.538544
O O12 0.500000 0.095527 0.587683
O O13 0.500000 0.750000 0.329405
#
# Coordination Sequence:
#
# PCOD9540782 Si02
#       5
#    16  16  16   8   8
#     4   9  18  32  51  76 102 130 165 205 249 300
#     4   9  18  32  50  74 100 131 166 205 252 298
#     4   9  17  30  48  68  94 128 163 198 243 297
#     4   9  17  29  45  66  93 121 159 205 241 281
#     4   9  18  31  50  74  96 127 166 205 245 289
#
# _framework density 25.571369000000001
#
# number of rings (size 3 to 8) (size 9 to 14) (size 15 to 20)
#    0.000    3.000    0.000    0.375    1.750    1.000 
#    0.000    6.250    0.000    5.250    0.000    0.000 
#    0.000    0.000    0.000    0.000    0.000    0.000 
#
# Total GULP energy -178161.962109 kJ/mol
# GULP energy per Si atom -5567.561316 kJ/mol
# Density = 2.551317 g / cm^3
# Si number density = 25.571369 Si / 1000 Ang^3
#
#
#
# Elastic Constant Matrix: (Units=GPa)
#
#
# Indices 1 2 3 4 5 6 
#
# 1 279.6973 75.3965 45.2339 0.0000 0.0000 0.0000
# 2 75.3965 135.5998 2.8523 0.0000 0.0000 0.0000
# 3 45.2339 2.8523 74.9708 0.0000 0.0000 0.0000
# 4 0.0000 0.0000 0.0000 63.1527 0.0000 0.0000
# 5 0.0000 0.0000 0.0000 0.0000 -238.7746 0.0000
# 6 0.0000 0.0000 0.0000 0.0000 0.0000 62.9199
#
#
#
# Elastic Compliance Matrix: (Units=1/GPa)
#
#
# Indices 1 2 3 4 5 6 
#
# 1 0.004709 -0.002561 -0.002744 0.000000 0.000000 0.000000
# 2 -0.002561 0.008773 0.001211 0.000000 0.000000 0.000000
# 3 -0.002744 0.001211 0.014948 0.000000 0.000000 0.000000
# 4 0.000000 0.000000 0.000000 0.015835 0.000000 0.000000
# 5 0.000000 0.000000 0.000000 0.000000 -0.004188 0.000000
# 6 0.000000 0.000000 0.000000 0.000000 0.000000 0.015893
#
#
# Mechanical properties :
#
#
# Convention : Reuss Voigt Hill
#
# Bulk Modulus (GPa) = 49.39873 81.91482 65.65678
# Shear Modulus (GPa) = 70.51690 1.91194 36.21442
#
# Velocity S-wave (km/s) = 5.25703 0.86563 3.76734
# Velocity P-wave (km/s) = 7.49723 5.75347 6.68247
#
# Compressibility (1/GPa) = 0.02024343
#
# Stress axis : x y z
#
# Youngs Moduli (GPa) = 212.34304 113.98586 66.89846
#
# Poissons Ratio (x) = 0.29189 0.18357
# Poissons Ratio (y) = 0.54377 -0.08103
# Poissons Ratio (z) = 0.58267 -0.13807
#
# Static dielectric constant tensor:
#      x y z
#    x 2.399360 0.000000 0.000000 
#    y 0.000000 1.970440 0.000000 
#    z 0.000000 0.000000 2.132330 
# 
# From -- ./inp_files/56454.got.cif
#   From: 2010.05.17/outbox.cif.g08.bks.cpg/sg74_29_cif.got.tgz:56454.got - 2010.06.03 17:57:02.
