data_PCOD9540078
_publ_section_title
;
Structure prediction by ZEFSAII (Michael W. Deem and Ramdas Pophale) SiO2 
 PCOD9540078
Probable space group: I M M A
;
_chemical_formula_sum "Si O2"
_cell_formula_units_Z 88
_cell_length_a 24.523886
_cell_length_b 19.976259
_cell_length_c 8.965015
_cell_angle_alpha 90.000000
_cell_angle_beta 90.000000
_cell_angle_gamma 90.000000
_cell_volume 4391.920492
_symmetry_space_group_name_H-M "I M M A"
_symmetry_group_IT_number 74
_symmetry_cell_setting 'orthorhombic'
loop_
_space_group_symop_operation_xyz
x,y,z
-x,1/2-y,z
x,-y,-z
-x,1/2+y,-z
-x,-y,-z
x,1/2+y,-z
-x,y,z
x,1/2-y,z
1/2+x,1/2+y,1/2+z
1/2-x,-y,1/2+z
1/2+x,1/2-y,1/2-z
1/2-x,y,1/2-z
1/2-x,1/2-y,1/2-z
1/2+x,y,1/2-z
1/2-x,1/2+y,1/2+z
1/2+x,-y,1/2+z
loop_
_atom_site_type_symbol
_atom_site_label
_atom_site_fract_x
_atom_site_fract_y
_atom_site_fract_z
Si Si1 0.209023 0.058093 0.879068
Si Si2 0.564021 0.410259 0.081093
Si Si3 0.586996 0.672844 0.654254
Si Si4 0.283981 0.328675 0.398819
Si Si5 0.000000 0.915631 0.034106
Si Si6 0.593631 0.544677 0.236198
O O1 0.250000 0.037395 0.750000
O O2 0.150068 0.067549 0.806057
O O3 0.230557 0.123874 0.963623
O O4 0.204102 0.000000 0.000000
O O5 0.500000 0.427104 0.092460
O O6 0.575631 0.343556 0.172616
O O7 0.595629 0.469859 0.167115
O O8 0.578661 0.410180 0.907486
O O9 0.574773 0.750000 0.618441
O O10 0.651199 0.661356 0.626608
O O11 0.548002 0.624577 0.559653
O O12 0.274515 0.250000 0.428746
O O13 0.250000 0.346191 0.250000
O O14 0.953028 0.951862 0.139685
#
# Coordination Sequence:
#
# PCOD9540078 Si02
#       6
#    16  16  16  16   8  16
#     4  12  27  43  65  98 130 167 214 272 332 378
#     4  11  22  40  63  93 129 166 213 255 318 389
#     4  11  24  40  63  93 129 172 213 261 319 384
#     4  10  23  45  68  91 127 175 222 263 319 391
#     4  12  21  40  64  97 127 165 209 263 315 376
#     4  11  24  41  64  95 128 167 210 268 322 383
#
# _framework density 20.036794
#
# number of rings (size 3 to 8) (size 9 to 14) (size 15 to 20)
#    0.000    0.909    4.545    2.455    5.091    1.091 
#    0.000    2.727    0.000    0.000    0.000    0.000 
#    0.000    0.000    0.000    0.000    0.000    0.000 
#
# Total GULP energy -244995.860287 kJ/mol
# GULP energy per Si atom -5568.087734 kJ/mol
# Density = 1.999119 g / cm^3
# Si number density = 20.036794 Si / 1000 Ang^3
#
#
#
# Elastic Constant Matrix: (Units=GPa)
#
#
# Indices 1 2 3 4 5 6 
#
# 1 57.7529 2.0918 11.5570 0.0000 0.0000 0.0000
# 2 2.0918 41.1344 30.3697 0.0000 0.0000 0.0000
# 3 11.5570 30.3697 85.8778 0.0000 0.0000 0.0000
# 4 0.0000 0.0000 0.0000 22.2905 0.0000 0.0000
# 5 0.0000 0.0000 0.0000 0.0000 46.3383 0.0000
# 6 0.0000 0.0000 0.0000 0.0000 0.0000 26.3313
#
#
#
# Elastic Compliance Matrix: (Units=1/GPa)
#
#
# Indices 1 2 3 4 5 6 
#
# 1 0.017836 0.001171 -0.002814 0.000000 0.000000 0.000000
# 2 0.001171 0.032978 -0.011820 0.000000 0.000000 0.000000
# 3 -0.002814 -0.011820 0.016203 0.000000 0.000000 0.000000
# 4 0.000000 0.000000 0.000000 0.044862 0.000000 0.000000
# 5 0.000000 0.000000 0.000000 0.000000 0.021580 0.000000
# 6 0.000000 0.000000 0.000000 0.000000 0.000000 0.037978
#
#
# Mechanical properties :
#
#
# Convention : Reuss Voigt Hill
#
# Bulk Modulus (GPa) = 24.94376 30.31133 27.62754
# Shear Modulus (GPa) = 23.61535 28.37511 25.99523
#
# Velocity S-wave (km/s) = 3.43680 3.76726 3.60582
# Velocity P-wave (km/s) = 5.31270 5.83812 5.58160
#
# Compressibility (1/GPa) = 0.04009019
#
# Stress axis : x y z
#
# Youngs Moduli (GPa) = 56.06661 30.32362 61.71656
#
# Poissons Ratio (x) = -0.03550 0.17369
# Poissons Ratio (y) = -0.06564 0.72947
# Poissons Ratio (z) = 0.15779 0.35842
#
# Static dielectric constant tensor:
#      x y z
#    x 1.689840 0.000000 0.000000 
#    y 0.000000 1.736720 0.000000 
#    z 0.000000 0.000000 1.700100 
# 
# From -- ./inp_files/13765.got.cif
#   From: 2010.05.17/outbox.cif.g08.bks.cpg/sg74_7_cif.got.tgz:13765.got - 2010.06.03 17:57:02.
