data_PCOD9540749
_publ_section_title
;
Structure prediction by ZEFSAII (Michael W. Deem and Ramdas Pophale) SiO2 
 PCOD9540749
Probable space group: I M M A
;
_chemical_formula_sum "Si O2"
_cell_formula_units_Z 80
_cell_length_a 18.585675
_cell_length_b 25.627533
_cell_length_c 7.845355
_cell_angle_alpha 90.000000
_cell_angle_beta 90.000000
_cell_angle_gamma 90.000000
_cell_volume 3736.781808
_symmetry_space_group_name_H-M "I M M A"
_symmetry_group_IT_number 74
_symmetry_cell_setting 'orthorhombic'
loop_
_space_group_symop_operation_xyz
x,y,z
-x,1/2-y,z
x,-y,-z
-x,1/2+y,-z
-x,-y,-z
x,1/2+y,-z
-x,y,z
x,1/2-y,z
1/2+x,1/2+y,1/2+z
1/2-x,-y,1/2+z
1/2+x,1/2-y,1/2-z
1/2-x,y,1/2-z
1/2-x,1/2-y,1/2-z
1/2+x,y,1/2-z
1/2-x,1/2+y,1/2+z
1/2+x,-y,1/2+z
loop_
_atom_site_type_symbol
_atom_site_label
_atom_site_fract_x
_atom_site_fract_y
_atom_site_fract_z
Si Si1 0.702063 0.610210 0.074038
Si Si2 0.584034 0.192660 0.474398
Si Si3 0.845431 0.084860 0.091458
Si Si4 0.081286 0.189497 0.612308
Si Si5 0.837157 0.982990 0.247704
O O1 0.750000 0.620318 0.250000
O O2 0.761475 0.598820 0.933436
O O3 0.647201 0.656481 0.040988
O O4 0.654664 0.558027 0.101734
O O5 0.500000 0.193897 0.431388
O O6 0.615162 0.250000 0.428945
O O7 0.616596 0.140261 0.397849
O O8 0.588929 0.187503 0.680827
O O9 0.860048 0.052014 0.915929
O O10 0.865808 0.041125 0.228987
O O11 0.086156 0.250000 0.561964
O O12 0.000000 0.171111 0.570958
O O13 0.750000 0.990142 0.250000
#
# Coordination Sequence:
#
# PCOD9540749 Si02
#       5
#    16  16  16  16  16
#     4   9  15  25  38  59  77 102 133 157 185 226
#     4   9  16  25  37  56  83 108 126 151 194 239
#     4   9  15  26  41  58  78 103 133 159 190 228
#     4   9  16  25  36  54  84 111 125 150 194 235
#     4   8  15  26  39  57  78 101 128 159 195 225
#
# _framework density 21.408795000000001
#
# number of rings (size 3 to 8) (size 9 to 14) (size 15 to 20)
#    0.000    3.600    4.000    1.200    0.000    1.200 
#    0.000    3.000    0.000    0.600    0.000   32.200 
#    0.000    3.200    0.000    0.000    0.000    0.000 
#
# Total GULP energy -222696.581591 kJ/mol
# GULP energy per Si atom -5567.414540 kJ/mol
# Density = 2.136007 g / cm^3
# Si number density = 21.408795 Si / 1000 Ang^3
#
#
#
# Elastic Constant Matrix: (Units=GPa)
#
#
# Indices 1 2 3 4 5 6 
#
# 1 55.2657 67.5394 11.2865 0.0000 0.0000 0.0000
# 2 67.5394 196.5372 17.7732 0.0000 0.0000 0.0000
# 3 11.2865 17.7732 65.1530 0.0000 0.0000 0.0000
# 4 0.0000 0.0000 0.0000 -0.8366 0.0000 0.0000
# 5 0.0000 0.0000 0.0000 0.0000 -3.3473 0.0000
# 6 0.0000 0.0000 0.0000 0.0000 0.0000 -64.3951
#
#
#
# Elastic Compliance Matrix: (Units=1/GPa)
#
#
# Indices 1 2 3 4 5 6 
#
# 1 0.031612 -0.010630 -0.002576 0.000000 0.000000 0.000000
# 2 -0.010630 0.008792 -0.000557 0.000000 0.000000 0.000000
# 3 -0.002576 -0.000557 0.015947 0.000000 0.000000 0.000000
# 4 0.000000 0.000000 0.000000 -1.195336 0.000000 0.000000
# 5 0.000000 0.000000 0.000000 0.000000 -0.298748 0.000000
# 6 0.000000 0.000000 0.000000 0.000000 0.000000 -0.015529
#
#
# Mechanical properties :
#
#
# Convention : Reuss Voigt Hill
#
# Bulk Modulus (GPa) = 34.69420 56.68379 45.68900
# Shear Modulus (GPa) = -3.53075 0.97466 -1.27805
#
# Velocity S-wave (km/s) = -1.28561 0.67546 -0.77348
# Velocity P-wave (km/s) = 3.74661 5.20986 4.53761
#
# Compressibility (1/GPa) = 0.02882326
#
# Stress axis : x y z
#
# Youngs Moduli (GPa) = 31.63388 113.74611 62.70906
#
# Poissons Ratio (x) = 1.20915 0.16155
# Poissons Ratio (y) = 0.33628 0.03491
# Poissons Ratio (z) = 0.08150 0.06333
#
# Static dielectric constant tensor:
#      x y z
#    x 1.746440 0.000000 0.000000 
#    y 0.000000 1.797920 0.000000 
#    z 0.000000 0.000000 1.911480 
# 
# From -- ./inp_files/35562.got.cif
#   From: 2010.05.17/outbox.cif.g08.bks.cpg/sg74_18_cif.got.tgz:35562.got - 2010.06.03 17:57:02.
