data_PCOD9540769
_publ_section_title
;
Structure prediction by ZEFSAII (Michael W. Deem and Ramdas Pophale) SiO2 
 PCOD9540769
Probable space group: I M M A
;
_chemical_formula_sum "Si O2"
_cell_formula_units_Z 96
_cell_length_a 27.170160
_cell_length_b 9.450927
_cell_length_c 29.253462
_cell_angle_alpha 90.000000
_cell_angle_beta 90.000000
_cell_angle_gamma 90.000000
_cell_volume 7511.797547
_symmetry_space_group_name_H-M "I M M A"
_symmetry_group_IT_number 74
_symmetry_cell_setting 'orthorhombic'
loop_
_space_group_symop_operation_xyz
x,y,z
-x,1/2-y,z
x,-y,-z
-x,1/2+y,-z
-x,-y,-z
x,1/2+y,-z
-x,y,z
x,1/2-y,z
1/2+x,1/2+y,1/2+z
1/2-x,-y,1/2+z
1/2+x,1/2-y,1/2-z
1/2-x,y,1/2-z
1/2-x,1/2-y,1/2-z
1/2+x,y,1/2-z
1/2-x,1/2+y,1/2+z
1/2+x,-y,1/2+z
loop_
_atom_site_type_symbol
_atom_site_label
_atom_site_fract_x
_atom_site_fract_y
_atom_site_fract_z
Si Si1 0.711755 0.582002 0.045364
Si Si2 0.647063 0.918019 0.204705
Si Si3 0.905778 0.918362 0.454462
Si Si4 0.055148 0.422278 0.644052
Si Si5 0.699972 0.412951 0.280568
Si Si6 0.245883 0.582392 0.355383
O O1 0.718420 0.750000 0.039281
O O2 0.652984 0.558735 0.051563
O O3 0.738912 0.539501 0.091996
O O4 0.727404 0.500000 0.000000
O O5 0.643659 0.750000 0.214686
O O6 0.597697 0.966567 0.179043
O O7 0.692936 0.935060 0.169697
O O8 0.660319 0.003994 0.250128
O O9 0.913660 0.750000 0.460194
O O10 0.931882 0.965449 0.407799
O O11 0.921673 0.000000 0.500000
O O12 0.056647 0.250000 0.643774
O O13 0.000000 0.466759 0.656348
O O14 0.686537 0.250000 0.288327
O O15 0.750000 0.414850 0.250000
O O16 0.714697 0.493667 0.326807
O O17 0.257269 0.750000 0.353258
#
# Coordination Sequence:
#
# PCOD9540769 Si02
#       6
#    16  16  16  16  16  16
#     4   9  16  25  37  53  73  97 125 154 186 223
#     4   9  15  26  41  54  70  93 121 152 186 225
#     4   9  16  27  39  52  69  92 123 159 197 231
#     4   9  16  26  41  57  71  92 125 162 195 227
#     4   9  17  26  37  56  76  91 111 144 188 228
#     4   9  15  25  40  55  71  94 123 151 180 221
#
# _framework density 12.779897
#
# number of rings (size 3 to 8) (size 9 to 14) (size 15 to 20)
#    0.000    3.000    1.667    0.500    0.000    3.000 
#    0.000    0.833    0.000    1.500    0.000    0.000 
#    0.000    0.000    0.000    0.000    0.000    0.833 
#
# Total GULP energy -267248.896451 kJ/mol
# GULP energy per Si atom -5567.685343 kJ/mol
# Density = 1.275081 g / cm^3
# Si number density = 12.779897 Si / 1000 Ang^3
#
#
#
# Elastic Constant Matrix: (Units=GPa)
#
#
# Indices 1 2 3 4 5 6 
#
# 1 57.2599 30.3800 51.9067 0.0000 0.0000 0.0000
# 2 30.3800 38.3863 48.3596 0.0000 0.0000 0.0000
# 3 51.9067 48.3596 97.6480 0.0000 0.0000 0.0000
# 4 0.0000 0.0000 0.0000 21.4637 0.0000 0.0000
# 5 0.0000 0.0000 0.0000 0.0000 15.3815 0.0000
# 6 0.0000 0.0000 0.0000 0.0000 0.0000 6.9566
#
#
#
# Elastic Compliance Matrix: (Units=1/GPa)
#
#
# Indices 1 2 3 4 5 6 
#
# 1 0.035518 -0.011498 -0.013186 0.000000 0.000000 0.000000
# 2 -0.011498 0.072991 -0.030037 0.000000 0.000000 0.000000
# 3 -0.013186 -0.030037 0.032125 0.000000 0.000000 0.000000
# 4 0.000000 0.000000 0.000000 0.046590 0.000000 0.000000
# 5 0.000000 0.000000 0.000000 0.000000 0.065013 0.000000
# 6 0.000000 0.000000 0.000000 0.000000 0.000000 0.143748
#
#
# Mechanical properties :
#
#
# Convention : Reuss Voigt Hill
#
# Bulk Modulus (GPa) = 32.05772 50.50964 41.28368
# Shear Modulus (GPa) = 9.69323 12.93690 11.31506
#
# Velocity S-wave (km/s) = 2.75703 3.18509 2.97876
# Velocity P-wave (km/s) = 5.93918 7.28937 6.64864
#
# Compressibility (1/GPa) = 0.03119374
#
# Stress axis : x y z
#
# Youngs Moduli (GPa) = 28.15497 13.70027 31.12799
#
# Poissons Ratio (x) = 0.15753 0.41045
# Poissons Ratio (y) = 0.32373 0.93498
# Poissons Ratio (z) = 0.37124 0.41151
#
# Static dielectric constant tensor:
#      x y z
#    x 1.400270 0.000000 0.000000 
#    y 0.000000 1.423020 0.000000 
#    z 0.000000 0.000000 1.408990 
# 
# From -- ./inp_files/55345.got.cif
#   From: 2010.05.17/outbox.cif.g08.bks.cpg/sg74_28_cif.got.tgz:55345.got - 2010.06.03 17:57:02.
