data_PCOD9540264
_publ_section_title
;
Structure prediction by ZEFSAII (Michael W. Deem and Ramdas Pophale) SiO2 
 PCOD9540264
Probable space group: I M M A
;
_chemical_formula_sum "Si O2"
_cell_formula_units_Z 112
_cell_length_a 26.256351
_cell_length_b 15.263701
_cell_length_c 15.435496
_cell_angle_alpha 90.000000
_cell_angle_beta 90.000000
_cell_angle_gamma 90.000000
_cell_volume 6186.069701
_symmetry_space_group_name_H-M "I M M A"
_symmetry_group_IT_number 74
_symmetry_cell_setting 'orthorhombic'
loop_
_space_group_symop_operation_xyz
x,y,z
-x,1/2-y,z
x,-y,-z
-x,1/2+y,-z
-x,-y,-z
x,1/2+y,-z
-x,y,z
x,1/2-y,z
1/2+x,1/2+y,1/2+z
1/2-x,-y,1/2+z
1/2+x,1/2-y,1/2-z
1/2-x,y,1/2-z
1/2-x,1/2-y,1/2-z
1/2+x,y,1/2-z
1/2-x,1/2+y,1/2+z
1/2+x,-y,1/2+z
loop_
_atom_site_type_symbol
_atom_site_label
_atom_site_fract_x
_atom_site_fract_y
_atom_site_fract_z
Si Si1 0.439003 0.750000 0.232678
Si Si2 0.314818 0.923375 0.657841
Si Si3 0.631727 0.601044 0.992237
Si Si4 0.442606 0.250000 0.975890
Si Si5 0.192966 0.849571 0.028894
Si Si6 0.788387 0.852649 0.362601
Si Si7 0.204137 0.148368 0.334188
Si Si8 0.356384 0.111345 0.700116
O O1 0.500000 0.750000 0.258653
O O2 0.438663 0.750000 0.128459
O O3 0.405555 0.836197 0.262233
O O4 0.324616 0.896584 0.558517
O O5 0.252269 0.918093 0.659158
O O6 0.322518 0.860126 0.740698
O O7 0.348908 0.007749 0.681790
O O8 0.666822 0.620349 0.909945
O O9 0.618641 0.500000 0.000000
O O10 0.584340 0.664284 0.988482
O O11 0.663590 0.628808 0.076654
O O12 0.500000 0.250000 0.002296
O O13 0.206105 0.750000 0.003175
O O14 0.241292 0.891340 0.081028
O O15 0.152148 0.848257 0.105322
O O16 0.776491 0.750000 0.358493
O O17 0.808541 0.874461 0.266499
O O18 0.220232 0.250000 0.345510
#
# Coordination Sequence:
#
# PCOD9540264 Si02
#       8
#     8  16  16   8  16  16  16  16
#     4  11  24  46  70  87 116 163 211 274 349 385
#     4  11  24  34  55  88 127 165 214 247 286 366
#     4  12  22  36  63  93 127 168 212 261 312 376
#     4  11  24  46  69  91 123 165 221 281 330 378
#     4  11  22  35  55  85 128 172 197 244 299 382
#     4  11  20  36  57  87 130 167 203 241 314 382
#     4  11  22  39  56  82 131 185 208 234 293 377
#     4  12  22  39  58  93 121 157 207 265 317 373
#
# _framework density 18.105194999999998
#
# number of rings (size 3 to 8) (size 9 to 14) (size 15 to 20)
#    0.000    0.714    5.714    3.429    6.000    1.429 
#    0.000    0.000    0.000    1.714    0.000    1.000 
#    0.000    0.000    0.000    0.000    0.000    0.000 
#
# Total GULP energy -311890.088559 kJ/mol
# GULP energy per Si atom -5569.465867 kJ/mol
# Density = 1.806399 g / cm^3
# Si number density = 18.105195 Si / 1000 Ang^3
#
#
#
# Elastic Constant Matrix: (Units=GPa)
#
#
# Indices 1 2 3 4 5 6 
#
# 1 79.5265 34.5388 12.0781 0.0000 0.0000 0.0000
# 2 34.5388 96.7116 36.0066 0.0000 0.0000 0.0000
# 3 12.0781 36.0066 119.6908 0.0000 0.0000 0.0000
# 4 0.0000 0.0000 0.0000 30.0823 0.0000 0.0000
# 5 0.0000 0.0000 0.0000 0.0000 19.6697 0.0000
# 6 0.0000 0.0000 0.0000 0.0000 0.0000 -54.8978
#
#
#
# Elastic Compliance Matrix: (Units=1/GPa)
#
#
# Indices 1 2 3 4 5 6 
#
# 1 0.014884 -0.005356 0.000109 0.000000 0.000000 0.000000
# 2 -0.005356 0.013572 -0.003542 0.000000 0.000000 0.000000
# 3 0.000109 -0.003542 0.009409 0.000000 0.000000 0.000000
# 4 0.000000 0.000000 0.000000 0.033242 0.000000 0.000000
# 5 0.000000 0.000000 0.000000 0.000000 0.050840 0.000000
# 6 0.000000 0.000000 0.000000 0.000000 0.000000 -0.018216
#
#
# Mechanical properties :
#
#
# Convention : Reuss Voigt Hill
#
# Bulk Modulus (GPa) = 49.29300 51.24177 50.26738
# Shear Modulus (GPa) = 39.04053 13.19121 26.11587
#
# Velocity S-wave (km/s) = 4.64865 2.70216 3.80208
# Velocity P-wave (km/s) = 7.48988 6.17246 6.86286
#
# Compressibility (1/GPa) = 0.02028686
#
# Stress axis : x y z
#
# Youngs Moduli (GPa) = 67.18587 73.68245 106.27617
#
# Poissons Ratio (x) = 0.39467 -0.01162
# Poissons Ratio (y) = 0.35987 0.37646
# Poissons Ratio (z) = -0.00735 0.26100
#
# Static dielectric constant tensor:
#      x y z
#    x 1.619980 0.000000 0.000000 
#    y 0.000000 1.687350 0.000000 
#    z 0.000000 0.000000 1.640020 
# 
# From -- ./inp_files/37438.got.cif
#   From: 2010.05.17/outbox.cif.g08.bks.cpg/sg74_19_cif.got.tgz:37438.got - 2010.06.03 17:57:02.
