data_PCOD9540990
_publ_section_title
;
Structure prediction by ZEFSAII (Michael W. Deem and Ramdas Pophale) SiO2 
 PCOD9540990
Probable space group: P 4
;
_chemical_formula_sum "Si O2"
_cell_formula_units_Z 28
_cell_length_a 11.486035
_cell_length_b 11.486035
_cell_length_c 12.707929
_cell_angle_alpha 90.000000
_cell_angle_beta 90.000000
_cell_angle_gamma 90.000000
_cell_volume 1676.544365
_symmetry_space_group_name_H-M "P 4"
_symmetry_group_IT_number 75
_symmetry_cell_setting 'tetragonal'
loop_
_space_group_symop_operation_xyz
x,y,z
-y,x,z
-x,-y,z
y,-x,z
loop_
_atom_site_type_symbol
_atom_site_label
_atom_site_fract_x
_atom_site_fract_y
_atom_site_fract_z
Si Si1 0.927936 0.819192 0.436780
Si Si2 0.812265 0.948127 0.960253
Si Si3 0.410921 0.164148 0.323066
Si Si4 0.035447 0.629387 0.545410
Si Si5 0.628539 0.003683 0.125794
Si Si6 0.198481 0.322079 0.267133
Si Si7 0.940911 0.188136 0.718630
O O1 0.885633 0.770715 0.325657
O O2 0.061985 0.857850 0.451710
O O3 0.922275 0.705190 0.509472
O O4 0.771904 0.933172 0.839781
O O5 0.921721 0.863361 0.971855
O O6 0.717108 0.938214 0.050244
O O7 0.384785 0.115166 0.440132
O O8 0.384020 0.063559 0.237304
O O9 0.325827 0.268587 0.287340
O O10 0.547407 0.193366 0.313983
O O11 0.087156 0.707623 0.639073
O O12 0.000000 0.500000 0.578573
O O13 0.500000 0.000000 0.077548
O O14 0.664483 0.136486 0.153634
O O15 0.073267 0.139196 0.703030
#
# Coordination Sequence:
#
# PCOD9540990 Si02
#       7
#     4   4   4   4   4   4   4
#     4  11  20  30  50  75 100 131 165 203 252 307
#     4   9  18  34  52  73 101 130 163 204 256 314
#     4  11  22  34  52  73 105 139 174 215 261 302
#     4  12  20  32  48  73 105 133 167 209 255 295
#     4  10  19  32  52  75 101 132 167 212 259 301
#     4  11  20  36  49  73 106 137 175 214 254 308
#     4   9  20  35  52  73  99 133 168 207 254 311
#
# _framework density 16.701018999999999
#
# number of rings (size 3 to 8) (size 9 to 14) (size 15 to 20)
#    0.000    1.571    4.286    3.000    0.000    2.000 
#    0.000    1.429    0.000    0.000    0.000    0.000 
#    0.000    0.000    0.000   27.714    0.000    0.000 
#
# Total GULP energy -155895.235199 kJ/mol
# GULP energy per Si atom -5567.686971 kJ/mol
# Density = 1.666301 g / cm^3
# Si number density = 16.701019 Si / 1000 Ang^3
#
#
#
# Elastic Constant Matrix: (Units=GPa)
#
#
# Indices 1 2 3 4 5 6 
#
# 1 86.2781 21.8814 28.0050 0.0000 0.0000 0.2838
# 2 21.8814 86.2781 28.0050 0.0000 0.0000 -0.2838
# 3 28.0050 28.0050 71.4661 0.0000 0.0000 0.0000
# 4 0.0000 0.0000 0.0000 20.1205 0.0000 0.0000
# 5 0.0000 0.0000 0.0000 0.0000 20.1205 0.0000
# 6 0.2838 -0.2838 0.0000 0.0000 0.0000 25.4425
#
#
#
# Elastic Compliance Matrix: (Units=1/GPa)
#
#
# Indices 1 2 3 4 5 6 
#
# 1 0.013565 -0.001965 -0.004545 0.000000 0.000000 -0.000173
# 2 -0.001965 0.013565 -0.004545 0.000000 0.000000 0.000173
# 3 -0.004545 -0.004545 0.017555 0.000000 0.000000 0.000000
# 4 0.000000 0.000000 0.000000 0.049700 0.000000 0.000000
# 5 0.000000 0.000000 0.000000 0.000000 0.049700 0.000000
# 6 -0.000173 0.000173 0.000000 0.000000 0.000000 0.039308
#
#
# Mechanical properties :
#
#
# Convention : Reuss Voigt Hill
#
# Bulk Modulus (GPa) = 44.30216 44.42278 44.36247
# Shear Modulus (GPa) = 23.47082 24.21209 23.84146
#
# Velocity S-wave (km/s) = 3.75287 3.81167 3.78239
# Velocity P-wave (km/s) = 6.73520 6.78442 6.75986
#
# Compressibility (1/GPa) = 0.02257226
#
# Stress axis : x y z
#
# Youngs Moduli (GPa) = 73.71990 73.71990 56.96371
#
# Poissons Ratio (x) = 0.14489 0.25892
# Poissons Ratio (y) = 0.14489 0.25892
# Poissons Ratio (z) = 0.33509 0.33509
#
# Static dielectric constant tensor:
#      x y z
#    x 1.591790 0.000000 0.000000 
#    y 0.000000 1.591790 0.000000 
#    z 0.000000 0.000000 1.603870 
# 
# From -- ./inp_files/563.got.cif
#   From: 2010.05.17/outbox.cif.g08.bks.cpg/sg75_cif.got.tgz:563.got - 2010.06.03 18:42:43.
