data_PCOD9540104
_publ_section_title
;
Structure prediction by ZEFSAII (Michael W. Deem and Ramdas Pophale) SiO2 
 PCOD9540104
Probable space group: I M M A
;
_chemical_formula_sum "Si O2"
_cell_formula_units_Z 96
_cell_length_a 26.286187
_cell_length_b 8.655613
_cell_length_c 24.165445
_cell_angle_alpha 90.000000
_cell_angle_beta 90.000000
_cell_angle_gamma 90.000000
_cell_volume 5498.196039
_symmetry_space_group_name_H-M "I M M A"
_symmetry_group_IT_number 74
_symmetry_cell_setting 'orthorhombic'
loop_
_space_group_symop_operation_xyz
x,y,z
-x,1/2-y,z
x,-y,-z
-x,1/2+y,-z
-x,-y,-z
x,1/2+y,-z
-x,y,z
x,1/2-y,z
1/2+x,1/2+y,1/2+z
1/2-x,-y,1/2+z
1/2+x,1/2-y,1/2-z
1/2-x,y,1/2-z
1/2-x,1/2-y,1/2-z
1/2+x,y,1/2-z
1/2-x,1/2+y,1/2+z
1/2+x,-y,1/2+z
loop_
_atom_site_type_symbol
_atom_site_label
_atom_site_fract_x
_atom_site_fract_y
_atom_site_fract_z
Si Si1 0.154345 0.930686 0.363330
Si Si2 0.190106 0.077068 0.253610
Si Si3 0.155867 0.934919 0.138332
Si Si4 0.559224 0.564231 0.682630
Si Si5 0.749245 0.062983 0.938164
Si Si6 0.442418 0.564321 0.811532
O O1 0.147371 0.750000 0.373912
O O2 0.198024 0.989704 0.405470
O O3 0.177445 0.961803 0.302806
O O4 0.099064 0.007936 0.355794
O O5 0.168985 0.250000 0.264971
O O6 0.250000 0.090186 0.250000
O O7 0.172880 0.013723 0.195189
O O8 0.157754 0.750000 0.142047
O O9 0.198106 0.982740 0.092931
O O10 0.097087 0.988528 0.138074
O O11 0.500000 0.526807 0.672934
O O12 0.564778 0.750000 0.680034
O O13 0.570189 0.518191 0.747347
O O14 0.748144 0.250000 0.938360
O O15 0.748867 0.000000 0.000000
O O16 0.500000 0.509224 0.822855
O O17 0.443492 0.750000 0.811976
#
# Coordination Sequence:
#
# PCOD9540104 Si02
#       6
#    16  16  16  16  16  16
#     4  11  21  34  53  79 111 140 173 221 269 315
#     4  11  21  31  48  77 108 143 179 207 255 326
#     4  11  21  34  53  79 111 140 173 221 269 315
#     4   9  18  32  50  77 113 147 180 214 252 310
#     4  10  24  41  56  77 105 138 178 226 273 316
#     4   9  18  32  50  77 113 147 180 214 252 310
#
# _framework density 17.460272
#
# number of rings (size 3 to 8) (size 9 to 14) (size 15 to 20)
#    0.000    1.833    3.333    2.500    0.000    4.000 
#    0.000    1.667    0.000    1.000    0.000    0.000 
#    0.000    0.000    0.000    0.000    0.000    0.000 
#
# Total GULP energy -267414.731965 kJ/mol
# GULP energy per Si atom -5571.140249 kJ/mol
# Density = 1.742053 g / cm^3
# Si number density = 17.460272 Si / 1000 Ang^3
#
#
#
# Elastic Constant Matrix: (Units=GPa)
#
#
# Indices 1 2 3 4 5 6 
#
# 1 153.1577 24.7034 50.0374 0.0000 0.0000 0.0000
# 2 24.7034 20.1228 6.3054 0.0000 0.0000 0.0000
# 3 50.0374 6.3054 77.7382 0.0000 0.0000 0.0000
# 4 0.0000 0.0000 0.0000 20.7956 0.0000 0.0000
# 5 0.0000 0.0000 0.0000 0.0000 12.9169 0.0000
# 6 0.0000 0.0000 0.0000 0.0000 0.0000 35.3074
#
#
#
# Elastic Compliance Matrix: (Units=1/GPa)
#
#
# Indices 1 2 3 4 5 6 
#
# 1 0.010079 -0.010610 -0.005627 0.000000 0.000000 0.000000
# 2 -0.010610 0.062160 0.001787 0.000000 0.000000 0.000000
# 3 -0.005627 0.001787 0.016341 0.000000 0.000000 0.000000
# 4 0.000000 0.000000 0.000000 0.048087 0.000000 0.000000
# 5 0.000000 0.000000 0.000000 0.000000 0.077418 0.000000
# 6 0.000000 0.000000 0.000000 0.000000 0.000000 0.028323
#
#
# Mechanical properties :
#
#
# Convention : Reuss Voigt Hill
#
# Bulk Modulus (GPa) = 16.75587 45.90124 31.32856
# Shear Modulus (GPa) = 17.17038 25.13548 21.15293
#
# Velocity S-wave (km/s) = 3.13932 3.79830 3.48442
# Velocity P-wave (km/s) = 4.77052 6.75145 5.84551
#
# Compressibility (1/GPa) = 0.05968058
#
# Stress axis : x y z
#
# Youngs Moduli (GPa) = 99.21759 16.08751 61.19760
#
# Poissons Ratio (x) = 0.17069 0.34435
# Poissons Ratio (y) = 1.05270 -0.10939
# Poissons Ratio (z) = 0.55828 -0.02875
#
# Static dielectric constant tensor:
#      x y z
#    x 1.703910 0.000000 0.000000 
#    y 0.000000 1.601420 0.000000 
#    z 0.000000 0.000000 1.553340 
# 
# From -- ./inp_files/55041.got.cif
#   From: 2010.05.17/outbox.cif.g08.bks.cpg/sg74_28_cif.got.tgz:55041.got - 2010.06.03 17:57:02.
