data_PCOD9540686
_publ_section_title
;
Structure prediction by ZEFSAII (Michael W. Deem and Ramdas Pophale) SiO2 
 PCOD9540686
Probable space group: I M M A
;
_chemical_formula_sum "Si O2"
_cell_formula_units_Z 96
_cell_length_a 7.283111
_cell_length_b 19.575151
_cell_length_c 33.814643
_cell_angle_alpha 90.000000
_cell_angle_beta 90.000000
_cell_angle_gamma 90.000000
_cell_volume 4820.885941
_symmetry_space_group_name_H-M "I M M A"
_symmetry_group_IT_number 74
_symmetry_cell_setting 'orthorhombic'
loop_
_space_group_symop_operation_xyz
x,y,z
-x,1/2-y,z
x,-y,-z
-x,1/2+y,-z
-x,-y,-z
x,1/2+y,-z
-x,y,z
x,1/2-y,z
1/2+x,1/2+y,1/2+z
1/2-x,-y,1/2+z
1/2+x,1/2-y,1/2-z
1/2-x,y,1/2-z
1/2-x,1/2-y,1/2-z
1/2+x,y,1/2-z
1/2-x,1/2+y,1/2+z
1/2+x,-y,1/2+z
loop_
_atom_site_type_symbol
_atom_site_label
_atom_site_fract_x
_atom_site_fract_y
_atom_site_fract_z
Si Si1 0.218163 0.962559 0.795331
Si Si2 0.223438 0.173340 0.163537
Si Si3 0.223833 0.459434 0.871809
Si Si4 0.776998 0.095610 0.084398
Si Si5 0.276770 0.171544 0.492824
Si Si6 0.776321 0.672362 0.082747
O O1 0.250000 0.980140 0.750000
O O2 0.285419 0.886474 0.806769
O O3 0.000000 0.959824 0.800817
O O4 0.284898 0.015920 0.828393
O O5 0.286769 0.250000 0.171865
O O6 0.274919 0.147594 0.119608
O O7 0.000000 0.174881 0.164501
O O8 0.278483 0.520120 0.901830
O O9 0.285065 0.386055 0.887260
O O10 0.000000 0.457942 0.871692
O O11 0.000000 0.095330 0.083646
O O12 0.714001 0.121704 0.041880
O O13 0.500000 0.170032 0.492660
O O14 0.224060 0.250000 0.484217
O O15 0.220562 0.155339 0.537643
O O16 0.718672 0.750000 0.091645
O O17 0.000000 0.672643 0.082970
#
# Coordination Sequence:
#
# PCOD9540686 Si02
#       6
#    16  16  16  16  16  16
#     4   9  17  28  41  56  73  94 121 152 185 221
#     4   8  13  21  33  49  70  97 126 151 176 210
#     4   8  14  23  33  46  64  88 118 147 178 218
#     4   8  12  17  26  41  63  92 123 150 172 200
#     4   8  12  16  23  38  61  90 122 149 171 200
#     4   8  13  20  29  42  62  89 119 147 175 212
#
# _framework density 19.913352
#
# number of rings (size 3 to 8) (size 9 to 14) (size 15 to 20)
#    0.000    3.833    0.000    3.500    0.000    3.000 
#    0.000    3.333    0.000    0.500    0.000    0.000 
#    0.000    0.000    0.000   12.000    0.000   34.167 
#
# Total GULP energy -267613.526720 kJ/mol
# GULP energy per Si atom -5575.281807 kJ/mol
# Density = 1.986803 g / cm^3
# Si number density = 19.913352 Si / 1000 Ang^3
#
#
#
# Elastic Constant Matrix: (Units=GPa)
#
#
# Indices 1 2 3 4 5 6 
#
# 1 83.3942 4.0705 3.5308 0.0000 0.0000 0.0000
# 2 4.0705 147.4511 128.4181 0.0000 0.0000 0.0000
# 3 3.5308 128.4181 158.3353 0.0000 0.0000 0.0000
# 4 0.0000 0.0000 0.0000 13.2208 0.0000 0.0000
# 5 0.0000 0.0000 0.0000 0.0000 -3.8902 0.0000
# 6 0.0000 0.0000 0.0000 0.0000 0.0000 -20.9845
#
#
#
# Elastic Compliance Matrix: (Units=1/GPa)
#
#
# Indices 1 2 3 4 5 6 
#
# 1 0.012007 -0.000335 0.000004 0.000000 0.000000 0.000000
# 2 -0.000335 0.023105 -0.018732 0.000000 0.000000 0.000000
# 3 0.000004 -0.018732 0.021508 0.000000 0.000000 0.000000
# 4 0.000000 0.000000 0.000000 0.075639 0.000000 0.000000
# 5 0.000000 0.000000 0.000000 0.000000 -0.257059 0.000000
# 6 0.000000 0.000000 0.000000 0.000000 0.000000 -0.047654
#
#
# Mechanical properties :
#
#
# Convention : Reuss Voigt Hill
#
# Bulk Modulus (GPa) = 54.06916 73.46882 63.76899
# Shear Modulus (GPa) = -39.01321 14.54664 -12.23328
#
# Velocity S-wave (km/s) = -4.43103 2.70570 -2.48125
# Velocity P-wave (km/s) = 1.01611 6.83633 4.88712
#
# Compressibility (1/GPa) = 0.01849483
#
# Stress axis : x y z
#
# Youngs Moduli (GPa) = 83.28182 43.27990 46.49339
#
# Poissons Ratio (x) = 0.01448 -0.00017
# Poissons Ratio (y) = 0.02787 0.87092
# Poissons Ratio (z) = -0.00031 0.81073
#
# Static dielectric constant tensor:
#      x y z
#    x 2.017330 0.000000 0.000000 
#    y 0.000000 1.676650 0.000000 
#    z 0.000000 0.000000 1.683840 
# 
# From -- ./inp_files/58975.got.cif
#   From: 2010.05.17/outbox.cif.g08.bks.cpg/sg74_30_cif.got.tgz:58975.got - 2010.06.03 17:57:02.
