data_PCOD9540050
_publ_section_title
;
Structure prediction by ZEFSAII (Michael W. Deem and Ramdas Pophale) SiO2 
 PCOD9540050
Probable space group: I M M A
;
_chemical_formula_sum "Si O2"
_cell_formula_units_Z 56
_cell_length_a 14.720220
_cell_length_b 29.353473
_cell_length_c 5.603893
_cell_angle_alpha 90.000000
_cell_angle_beta 90.000000
_cell_angle_gamma 90.000000
_cell_volume 2421.383775
_symmetry_space_group_name_H-M "I M M A"
_symmetry_group_IT_number 74
_symmetry_cell_setting 'orthorhombic'
loop_
_space_group_symop_operation_xyz
x,y,z
-x,1/2-y,z
x,-y,-z
-x,1/2+y,-z
-x,-y,-z
x,1/2+y,-z
-x,y,z
x,1/2-y,z
1/2+x,1/2+y,1/2+z
1/2-x,-y,1/2+z
1/2+x,1/2-y,1/2-z
1/2-x,y,1/2-z
1/2-x,1/2-y,1/2-z
1/2+x,y,1/2-z
1/2-x,1/2+y,1/2+z
1/2+x,-y,1/2+z
loop_
_atom_site_type_symbol
_atom_site_label
_atom_site_fract_x
_atom_site_fract_y
_atom_site_fract_z
Si Si1 0.901700 0.116443 0.069188
Si Si2 0.750000 0.354047 0.750000
Si Si3 0.896706 0.802871 0.567923
Si Si4 0.359591 0.976949 0.753029
O O1 0.895226 0.164862 0.201241
O O2 0.893259 0.075024 0.251669
O O3 0.000000 0.113270 0.947980
O O4 0.815093 0.113908 0.902521
O O5 0.818906 0.322435 0.601965
O O6 0.880600 0.750000 0.624359
O O7 0.000000 0.806368 0.467391
O O8 0.250000 0.977529 0.750000
O O9 0.389086 0.000000 0.500000
O O10 0.389386 0.000000 0.000000
#
# Coordination Sequence:
#
# PCOD9540050 Si02
#       4
#    16   8  16  16
#     4  11  26  44  67  99 137 182 234 291 352 424
#     4  12  23  40  70 100 134 182 230 288 351 422
#     4  10  23  43  67  98 137 179 228 286 351 424
#     4  10  23  42  71 105 139 186 236 290 356 425
#
# _framework density 23.127268999999998
#
# number of rings (size 3 to 8) (size 9 to 14) (size 15 to 20)
#    0.000    1.429    0.000    3.857   10.000    4.571 
#    0.000    2.857    0.000    0.000    0.000    0.000 
#    0.000    0.000    0.000    0.000    0.000    0.000 
#
# Total GULP energy -156673.354791 kJ/mol
# GULP energy per Si atom -5595.476957 kJ/mol
# Density = 2.307463 g / cm^3
# Si number density = 23.127269 Si / 1000 Ang^3
#
#
#
# Elastic Constant Matrix: (Units=GPa)
#
#
# Indices 1 2 3 4 5 6 
#
# 1 167.8130 25.3491 58.0835 0.0161 -0.0116 -0.0106
# 2 25.3491 108.5559 46.0777 0.0265 -0.0522 0.0242
# 3 58.0835 46.0777 95.0176 0.0169 0.0269 -0.0494
# 4 0.0161 0.0265 0.0169 31.1073 -0.0010 -0.0830
# 5 -0.0116 -0.0522 0.0269 -0.0010 26.2910 0.1293
# 6 -0.0106 0.0242 -0.0494 -0.0830 0.1293 -3.3281
#
#
#
# Elastic Compliance Matrix: (Units=1/GPa)
#
#
# Indices 1 2 3 4 5 6 
#
# 1 0.007563 0.000247 -0.004743 -0.000001 0.000008 0.000048
# 2 0.000247 0.011607 -0.005780 -0.000006 0.000028 0.000171
# 3 -0.004743 -0.005780 0.016227 -0.000002 -0.000029 -0.000269
# 4 -0.000001 -0.000006 -0.000002 0.032145 0.000005 -0.000801
# 5 0.000008 0.000028 -0.000029 0.000005 0.038029 0.001478
# 6 0.000048 0.000171 -0.000269 -0.000801 0.001478 -0.300390
#
#
# Mechanical properties :
#
#
# Convention : Reuss Voigt Hill
#
# Bulk Modulus (GPa) = 67.36059 70.04525 68.70292
# Shear Modulus (GPa) = -29.53022 26.93912 -1.29555
#
# Velocity S-wave (km/s) = -3.57719 3.41665 -0.74927
# Velocity P-wave (km/s) = 3.48246 6.77623 5.38725
#
# Compressibility (1/GPa) = 0.01484548
#
# Stress axis : x y z
#
# Youngs Moduli (GPa) = 132.21506 86.15156 61.62682
#
# Poissons Ratio (x) = -0.02130 0.29232
# Poissons Ratio (y) = -0.03268 0.35620
# Poissons Ratio (z) = 0.62714 0.49795
#
# Static dielectric constant tensor:
#      x y z
#    x 1.862210 0.000010 0.000030 
#    y 0.000010 1.818910 -0.000020 
#    z 0.000030 -0.000020 1.900810 
# 
# From -- ./inp_files/1465.got.cif
#   From: 2010.05.17/outbox.cif.g08.bks.cpg/sg74_1_cif.got.tgz:1465.got - 2010.06.03 17:57:02.
