data_PCOD9540339
_publ_section_title
;
Structure prediction by ZEFSAII (Michael W. Deem and Ramdas Pophale) SiO2 
 PCOD9540339
Probable space group: I M M A
;
_chemical_formula_sum "Si O2"
_cell_formula_units_Z 52
_cell_length_a 14.010704
_cell_length_b 23.615397
_cell_length_c 8.945788
_cell_angle_alpha 90.000000
_cell_angle_beta 90.000000
_cell_angle_gamma 90.000000
_cell_volume 2959.878001
_symmetry_space_group_name_H-M "I M M A"
_symmetry_group_IT_number 74
_symmetry_cell_setting 'orthorhombic'
loop_
_space_group_symop_operation_xyz
x,y,z
-x,1/2-y,z
x,-y,-z
-x,1/2+y,-z
-x,-y,-z
x,1/2+y,-z
-x,y,z
x,1/2-y,z
1/2+x,1/2+y,1/2+z
1/2-x,-y,1/2+z
1/2+x,1/2-y,1/2-z
1/2-x,y,1/2-z
1/2-x,1/2-y,1/2-z
1/2+x,y,1/2-z
1/2-x,1/2+y,1/2+z
1/2+x,-y,1/2+z
loop_
_atom_site_type_symbol
_atom_site_label
_atom_site_fract_x
_atom_site_fract_y
_atom_site_fract_z
Si Si1 0.157222 0.532269 0.653806
Si Si2 0.500000 0.375594 0.073000
Si Si3 0.000000 0.530687 0.156456
Si Si4 0.000000 0.250000 0.450332
Si Si5 0.000000 0.346514 0.779694
Si Si6 0.362087 0.250000 0.768809
O O1 0.182111 0.500000 0.500000
O O2 0.250000 0.546532 0.750000
O O3 0.091159 0.489179 0.748200
O O4 0.091532 0.587038 0.619295
O O5 0.500000 0.310606 0.131603
O O6 0.500000 0.367761 0.893069
O O7 0.000000 0.597192 0.126361
O O8 0.000000 0.500000 0.000000
O O9 0.907779 0.250000 0.563021
O O10 0.090827 0.306054 0.801653
O O11 0.250000 0.250000 0.750000
#
# Coordination Sequence:
#
# PCOD9540339 Si02
#       6
#    16   8   8   4   8   8
#     4  11  21  36  57  83 114 149 188 234 286 344
#     4   9  17  39  58  75 113 150 190 231 288 335
#     4  11  21  37  53  83 115 153 188 230 284 342
#     4   8  18  34  58  80 102 154 194 224 288 340
#     4   9  17  34  56  77 115 155 182 236 288 332
#     4   8  16  30  52  85 105 142 199 233 276 328
#
# _framework density 17.568292
#
# number of rings (size 3 to 8) (size 9 to 14) (size 15 to 20)
#    0.000    2.769    3.077    1.846    0.000    1.231 
#   11.077    0.769    0.000    7.385    0.000    0.000 
#    0.000    0.000    0.000    0.000    0.000    0.000 
#
# Total GULP energy -144880.330080 kJ/mol
# GULP energy per Si atom -5572.320388 kJ/mol
# Density = 1.752831 g / cm^3
# Si number density = 17.568292 Si / 1000 Ang^3
#
#
#
# Elastic Constant Matrix: (Units=GPa)
#
#
# Indices 1 2 3 4 5 6 
#
# 1 159.7565 66.7373 39.4547 0.0000 0.0000 0.0000
# 2 66.7373 187.8812 37.4094 0.0001 0.0000 0.0000
# 3 39.4547 37.4094 73.5911 0.0008 0.0000 0.0000
# 4 0.0000 0.0001 0.0008 27.3938 0.0000 0.0000
# 5 0.0000 0.0000 0.0000 0.0000 16.2934 0.0000
# 6 0.0000 0.0000 0.0000 0.0000 0.0000 1.1235
#
#
#
# Elastic Compliance Matrix: (Units=1/GPa)
#
#
# Indices 1 2 3 4 5 6 
#
# 1 0.007956 -0.002199 -0.003147 0.000000 0.000000 0.000000
# 2 -0.002199 0.006530 -0.002140 0.000000 0.000000 0.000000
# 3 -0.003147 -0.002140 0.016364 0.000000 0.000000 0.000000
# 4 0.000000 0.000000 0.000000 0.036505 0.000000 0.000000
# 5 0.000000 0.000000 0.000000 0.000000 0.061375 0.000000
# 6 0.000000 0.000000 0.000000 0.000000 0.000000 0.890091
#
#
# Mechanical properties :
#
#
# Convention : Reuss Voigt Hill
#
# Bulk Modulus (GPa) = 62.98922 78.71462 70.85192
# Shear Modulus (GPa) = 4.81193 27.47063 16.14128
#
# Velocity S-wave (km/s) = 1.65678 3.95859 3.03442
# Velocity P-wave (km/s) = 6.29219 8.11148 7.25906
#
# Compressibility (1/GPa) = 0.01587573
#
# Stress axis : x y z
#
# Youngs Moduli (GPa) = 125.69913 153.14267 61.10983
#
# Poissons Ratio (x) = 0.33679 0.19233
# Poissons Ratio (y) = 0.27644 0.13079
# Poissons Ratio (z) = 0.39561 0.32778
#
# Static dielectric constant tensor:
#      x y z
#    x 1.584600 0.000000 0.000000 
#    y 0.000000 1.628730 0.000000 
#    z 0.000000 0.000000 1.599270 
# 
# From -- ./inp_files/8635.got.cif
#   From: 2010.05.17/outbox.cif.g08.bks.cpg/sg74_5_cif.got.tgz:8635.got - 2010.06.03 17:57:02.
