data_PCOD9540100
_publ_section_title
;
Structure prediction by ZEFSAII (Michael W. Deem and Ramdas Pophale) SiO2 
 PCOD9540100
Probable space group: I M M A
;
_chemical_formula_sum "Si O2"
_cell_formula_units_Z 40
_cell_length_a 9.308532
_cell_length_b 24.161612
_cell_length_c 7.472022
_cell_angle_alpha 90.000000
_cell_angle_beta 90.000000
_cell_angle_gamma 90.000000
_cell_volume 1680.526031
_symmetry_space_group_name_H-M "I M M A"
_symmetry_group_IT_number 74
_symmetry_cell_setting 'orthorhombic'
loop_
_space_group_symop_operation_xyz
x,y,z
-x,1/2-y,z
x,-y,-z
-x,1/2+y,-z
-x,-y,-z
x,1/2+y,-z
-x,y,z
x,1/2-y,z
1/2+x,1/2+y,1/2+z
1/2-x,-y,1/2+z
1/2+x,1/2-y,1/2-z
1/2-x,y,1/2-z
1/2-x,1/2-y,1/2-z
1/2+x,y,1/2-z
1/2-x,1/2+y,1/2+z
1/2+x,-y,1/2+z
loop_
_atom_site_type_symbol
_atom_site_label
_atom_site_fract_x
_atom_site_fract_y
_atom_site_fract_z
Si Si1 0.000000 0.909979 0.064631
Si Si2 0.250000 0.481429 0.750000
Si Si3 0.154818 0.250000 0.422526
Si Si4 0.500000 0.063079 0.160576
Si Si5 0.500000 0.838927 0.115680
O O1 0.000000 0.853602 0.177092
O O2 0.857040 0.943718 0.128922
O O3 0.000000 0.905108 0.851351
O O4 0.362493 0.523845 0.837599
O O5 0.250000 0.250000 0.250000
O O6 0.138462 0.303475 0.550533
O O7 0.000000 0.250000 0.329487
O O8 0.500000 0.104216 0.994595
#
# Coordination Sequence:
#
# PCOD9540100 Si02
#       5
#     8   8   8   8   8
#     4  11  25  41  60  97 136 173 225 267 314 395
#     4  10  24  40  58  94 136 176 222 262 314 394
#     4   8  20  42  68 101 121 163 224 270 325 397
#     4  11  25  39  64  93 133 179 218 267 326 384
#     4   9  24  39  70  88 135 169 211 267 341 368
#
# _framework density 23.802070000000001
#
# number of rings (size 3 to 8) (size 9 to 14) (size 15 to 20)
#    1.200    0.800    0.000    2.400   14.000    1.600 
#    0.000    4.000    0.000    7.200    0.000    0.000 
#    0.000    0.000    0.000    0.000    0.000    0.000 
#
# Total GULP energy -111635.456846 kJ/mol
# GULP energy per Si atom -5581.772842 kJ/mol
# Density = 2.374790 g / cm^3
# Si number density = 23.802070 Si / 1000 Ang^3
#
#
#
# Elastic Constant Matrix: (Units=GPa)
#
#
# Indices 1 2 3 4 5 6 
#
# 1 137.3892 8.6310 19.3781 -0.0006 0.0028 -0.0002
# 2 8.6310 66.1125 19.7368 -0.0001 0.0013 -0.0001
# 3 19.3781 19.7368 150.9738 -0.0001 0.0099 0.0002
# 4 -0.0006 -0.0001 -0.0001 17.6287 0.0004 -0.0003
# 5 0.0028 0.0013 0.0099 0.0004 19.4959 0.0003
# 6 -0.0002 -0.0001 0.0002 -0.0003 0.0003 9.5268
#
#
#
# Elastic Compliance Matrix: (Units=1/GPa)
#
#
# Indices 1 2 3 4 5 6 
#
# 1 0.007445 -0.000715 -0.000862 0.000000 -0.000001 0.000000
# 2 -0.000715 0.015809 -0.001975 0.000000 0.000000 0.000000
# 3 -0.000862 -0.001975 0.006993 0.000000 -0.000003 0.000000
# 4 0.000000 0.000000 0.000000 0.056726 -0.000001 0.000002
# 5 -0.000001 0.000000 -0.000003 -0.000001 0.051293 -0.000002
# 6 0.000000 0.000000 0.000000 0.000002 -0.000002 0.104967
#
#
# Mechanical properties :
#
#
# Convention : Reuss Voigt Hill
#
# Bulk Modulus (GPa) = 43.20995 49.99636 46.60315
# Shear Modulus (GPa) = 19.37615 29.77893 24.57754
#
# Velocity S-wave (km/s) = 2.85626 3.54094 3.21686
# Velocity P-wave (km/s) = 5.39174 6.14559 5.78097
#
# Compressibility (1/GPa) = 0.02314282
#
# Stress axis : x y z
#
# Youngs Moduli (GPa) = 134.31666 63.25666 143.00999
#
# Poissons Ratio (x) = 0.04520 0.12330
# Poissons Ratio (y) = 0.09598 0.28244
# Poissons Ratio (z) = 0.11581 0.12493
#
# Static dielectric constant tensor:
#      x y z
#    x 1.914760 0.000000 0.000000 
#    y 0.000000 1.957480 0.000000 
#    z 0.000000 0.000000 1.945030 
# 
# From -- ./inp_files/5997.got.cif
#   From: 2010.05.17/outbox.cif.g08.bks.cpg/sg74_3_cif.got.tgz:5997.got - 2010.06.03 17:57:02.
