data_PCOD9540740
_publ_section_title
;
Structure prediction by ZEFSAII (Michael W. Deem and Ramdas Pophale) SiO2 
 PCOD9540740
Probable space group: I M M A
;
_chemical_formula_sum "Si O2"
_cell_formula_units_Z 72
_cell_length_a 18.093799
_cell_length_b 8.148469
_cell_length_c 21.288797
_cell_angle_alpha 90.000000
_cell_angle_beta 90.000000
_cell_angle_gamma 90.000000
_cell_volume 3138.751259
_symmetry_space_group_name_H-M "I M M A"
_symmetry_group_IT_number 74
_symmetry_cell_setting 'orthorhombic'
loop_
_space_group_symop_operation_xyz
x,y,z
-x,1/2-y,z
x,-y,-z
-x,1/2+y,-z
-x,-y,-z
x,1/2+y,-z
-x,y,z
x,1/2-y,z
1/2+x,1/2+y,1/2+z
1/2-x,-y,1/2+z
1/2+x,1/2-y,1/2-z
1/2-x,y,1/2-z
1/2-x,1/2-y,1/2-z
1/2+x,y,1/2-z
1/2-x,1/2+y,1/2+z
1/2+x,-y,1/2+z
loop_
_atom_site_type_symbol
_atom_site_label
_atom_site_fract_x
_atom_site_fract_y
_atom_site_fract_z
Si Si1 0.674851 0.436379 0.901436
Si Si2 0.914958 0.250000 0.255168
Si Si3 0.340013 0.446964 0.572526
Si Si4 0.162051 0.924513 0.255726
Si Si5 0.500000 0.948440 0.426683
Si Si6 0.913979 0.250000 0.409355
O O1 0.671348 0.250000 0.928664
O O2 0.760937 0.491931 0.898049
O O3 0.646714 0.419664 0.830073
O O4 0.627733 0.584115 0.930649
O O5 0.875126 0.412727 0.231556
O O6 0.910606 0.250000 0.332247
O O7 0.000000 0.250000 0.237997
O O8 0.334861 0.500000 0.500000
O O9 0.342133 0.250000 0.575168
O O10 0.419810 0.507656 0.597320
O O11 0.137442 0.750000 0.227135
O O12 0.250000 0.932986 0.250000
O O13 0.500000 0.750000 0.422389
O O14 0.500000 0.000000 0.500000
O O15 0.000000 0.250000 0.427381
#
# Coordination Sequence:
#
# PCOD9540740 Si02
#       6
#    16   8  16  16   8   8
#     4   9  18  31  48  73  96 121 161 197 234 282
#     4   9  17  29  47  71  94 122 156 198 240 277
#     4   9  17  28  46  70  93 124 156 193 232 275
#     4   9  17  30  49  70  94 125 158 194 235 284
#     4   8  14  26  42  64  92 118 152 186 226 266
#     4   9  18  31  49  72  94 121 157 196 244 284
#
# _framework density 22.939060000000001
#
# number of rings (size 3 to 8) (size 9 to 14) (size 15 to 20)
#    0.000    3.111    0.000    0.333    1.556    0.889 
#    0.000    4.444    2.444    0.667    0.000    0.000 
#    0.000    0.000    0.000    0.000    0.000    0.000 
#
# Total GULP energy -200761.782273 kJ/mol
# GULP energy per Si atom -5576.716174 kJ/mol
# Density = 2.288685 g / cm^3
# Si number density = 22.939060 Si / 1000 Ang^3
#
#
#
# Elastic Constant Matrix: (Units=GPa)
#
#
# Indices 1 2 3 4 5 6 
#
# 1 162.8988 113.8121 -1.1950 0.0000 0.0000 0.0000
# 2 113.8121 176.1014 14.5928 0.0000 0.0000 0.0000
# 3 -1.1950 14.5928 64.5324 0.0000 0.0000 0.0000
# 4 0.0000 0.0000 0.0000 24.6198 0.0000 0.0000
# 5 0.0000 0.0000 0.0000 0.0000 29.6749 0.0000
# 6 0.0000 0.0000 0.0000 0.0000 0.0000 64.1858
#
#
#
# Elastic Compliance Matrix: (Units=1/GPa)
#
#
# Indices 1 2 3 4 5 6 
#
# 1 0.011421 -0.007540 0.001916 0.000000 0.000000 0.000000
# 2 -0.007540 0.010765 -0.002574 0.000000 0.000000 0.000000
# 3 0.001916 -0.002574 0.016114 0.000000 0.000000 0.000000
# 4 0.000000 0.000000 0.000000 0.040618 0.000000 0.000000
# 5 0.000000 0.000000 0.000000 0.000000 0.033698 0.000000
# 6 0.000000 0.000000 0.000000 0.000000 0.000000 0.015580
#
#
# Mechanical properties :
#
#
# Convention : Reuss Voigt Hill
#
# Bulk Modulus (GPa) = 45.65257 73.10582 59.37919
# Shear Modulus (GPa) = 32.91832 42.11760 37.51796
#
# Velocity S-wave (km/s) = 3.79229 4.28958 4.04858
# Velocity P-wave (km/s) = 6.25461 7.51484 6.91350
#
# Compressibility (1/GPa) = 0.02190457
#
# Stress axis : x y z
#
# Youngs Moduli (GPa) = 87.56032 92.89581 62.05930
#
# Poissons Ratio (x) = 0.70042 -0.11894
# Poissons Ratio (y) = 0.66019 0.15973
# Poissons Ratio (z) = -0.16781 0.23910
#
# Static dielectric constant tensor:
#      x y z
#    x 1.840080 0.000000 0.000000 
#    y 0.000000 1.867680 0.000000 
#    z 0.000000 0.000000 1.886080 
# 
# From -- ./inp_files/66772.got.cif
#   From: 2010.05.17/outbox.cif.g08.bks.cpg/sg74_34_cif.got.tgz:66772.got - 2010.06.03 17:57:02.
