data_PCOD9540476
_publ_section_title
;
Structure prediction by ZEFSAII (Michael W. Deem and Ramdas Pophale) SiO2 
 PCOD9540476
Probable space group: I M M A
;
_chemical_formula_sum "Si O2"
_cell_formula_units_Z 48
_cell_length_a 17.900235
_cell_length_b 18.737220
_cell_length_c 6.772023
_cell_angle_alpha 90.000000
_cell_angle_beta 90.000000
_cell_angle_gamma 90.000000
_cell_volume 2271.340857
_symmetry_space_group_name_H-M "I M M A"
_symmetry_group_IT_number 74
_symmetry_cell_setting 'orthorhombic'
loop_
_space_group_symop_operation_xyz
x,y,z
-x,1/2-y,z
x,-y,-z
-x,1/2+y,-z
-x,-y,-z
x,1/2+y,-z
-x,y,z
x,1/2-y,z
1/2+x,1/2+y,1/2+z
1/2-x,-y,1/2+z
1/2+x,1/2-y,1/2-z
1/2-x,y,1/2-z
1/2-x,1/2-y,1/2-z
1/2+x,y,1/2-z
1/2-x,1/2+y,1/2+z
1/2+x,-y,1/2+z
loop_
_atom_site_type_symbol
_atom_site_label
_atom_site_fract_x
_atom_site_fract_y
_atom_site_fract_z
Si Si1 0.817965 0.168739 0.404249
Si Si2 0.413333 0.413684 0.353188
Si Si3 0.666480 0.551107 0.244528
O O1 0.811204 0.250000 0.473669
O O2 0.750000 0.154928 0.250000
O O3 0.824883 0.113310 0.583860
O O4 0.891643 0.154641 0.274033
O O5 0.500000 0.417376 0.403730
O O6 0.362621 0.416214 0.549492
O O7 0.388901 0.483585 0.226094
O O8 0.750000 0.519281 0.250000
#
# Coordination Sequence:
#
# PCOD9540476 Si02
#       3
#    16  16  16
#     4  11  24  42  66  98 133 176 224 270 323 396
#     4  11  25  43  65 100 135 167 217 284 337 384
#     4  11  22  40  70  95 125 171 224 274 327 389
#
# _framework density 21.132892999999999
#
# number of rings (size 3 to 8) (size 9 to 14) (size 15 to 20)
#    0.000    1.000    3.333    4.000    4.667    6.667 
#    0.000    0.000    0.000    0.000    0.000    0.000 
#    0.000    0.000    0.000    0.000    0.000    0.000 
#
# Total GULP energy -133946.477395 kJ/mol
# GULP energy per Si atom -5581.103225 kJ/mol
# Density = 2.108479 g / cm^3
# Si number density = 21.132893 Si / 1000 Ang^3
#
#
#
# Elastic Constant Matrix: (Units=GPa)
#
#
# Indices 1 2 3 4 5 6 
#
# 1 135.7572 13.1230 36.9692 0.0000 0.0000 0.0000
# 2 13.1230 109.3558 64.7586 0.0000 0.0000 0.0000
# 3 36.9692 64.7586 113.0096 0.0000 0.0000 0.0000
# 4 0.0000 0.0000 0.0000 31.1168 0.0000 0.0000
# 5 0.0000 0.0000 0.0000 0.0000 27.4114 0.0000
# 6 0.0000 0.0000 0.0000 0.0000 0.0000 53.2530
#
#
#
# Elastic Compliance Matrix: (Units=1/GPa)
#
#
# Indices 1 2 3 4 5 6 
#
# 1 0.008146 0.000909 -0.003186 0.000000 0.000000 0.000000
# 2 0.000909 0.013943 -0.008287 0.000000 0.000000 0.000000
# 3 -0.003186 -0.008287 0.014640 0.000000 0.000000 0.000000
# 4 0.000000 0.000000 0.000000 0.032137 0.000000 0.000000
# 5 0.000000 0.000000 0.000000 0.000000 0.036481 0.000000
# 6 0.000000 0.000000 0.000000 0.000000 0.000000 0.018778
#
#
# Mechanical properties :
#
#
# Convention : Reuss Voigt Hill
#
# Bulk Modulus (GPa) = 64.09931 65.31383 64.70657
# Shear Modulus (GPa) = 33.23305 38.57435 35.90370
#
# Velocity S-wave (km/s) = 3.96987 4.27701 4.12630
# Velocity P-wave (km/s) = 7.17012 7.44069 7.30665
#
# Compressibility (1/GPa) = 0.01560079
#
# Stress axis : x y z
#
# Youngs Moduli (GPa) = 122.76374 71.72123 68.30717
#
# Poissons Ratio (x) = -0.06519 0.21760
# Poissons Ratio (y) = -0.11159 0.56607
# Poissons Ratio (z) = 0.39108 0.59436
#
# Static dielectric constant tensor:
#      x y z
#    x 1.746410 0.000000 0.000000 
#    y 0.000000 1.766540 0.000000 
#    z 0.000000 0.000000 1.843970 
# 
# From -- ./inp_files/8073.got.cif
#   From: 2010.05.17/outbox.cif.g08.bks.cpg/sg74_5_cif.got.tgz:8073.got - 2010.06.03 17:57:02.
