data_PCOD9540552
_publ_section_title
;
Structure prediction by ZEFSAII (Michael W. Deem and Ramdas Pophale) SiO2 
 PCOD9540552
Probable space group: I M M A
;
_chemical_formula_sum "Si O2"
_cell_formula_units_Z 72
_cell_length_a 26.230173
_cell_length_b 10.468699
_cell_length_c 14.769138
_cell_angle_alpha 90.000000
_cell_angle_beta 90.000000
_cell_angle_gamma 90.000000
_cell_volume 4055.543056
_symmetry_space_group_name_H-M "I M M A"
_symmetry_group_IT_number 74
_symmetry_cell_setting 'orthorhombic'
loop_
_space_group_symop_operation_xyz
x,y,z
-x,1/2-y,z
x,-y,-z
-x,1/2+y,-z
-x,-y,-z
x,1/2+y,-z
-x,y,z
x,1/2-y,z
1/2+x,1/2+y,1/2+z
1/2-x,-y,1/2+z
1/2+x,1/2-y,1/2-z
1/2-x,y,1/2-z
1/2-x,1/2-y,1/2-z
1/2+x,y,1/2-z
1/2-x,1/2+y,1/2+z
1/2+x,-y,1/2+z
loop_
_atom_site_type_symbol
_atom_site_label
_atom_site_fract_x
_atom_site_fract_y
_atom_site_fract_z
Si Si1 0.500000 0.900969 0.082831
Si Si2 0.800497 0.096725 0.801679
Si Si3 0.060047 0.250000 0.219656
Si Si4 0.944720 0.750000 0.138461
Si Si5 0.587606 0.032129 0.773365
Si Si6 0.819938 0.500000 0.000000
Si Si7 0.118271 0.750000 0.962313
O O1 0.500000 0.750000 0.058291
O O2 0.552470 0.927413 0.140319
O O3 0.500000 0.000000 0.000000
O O4 0.801549 0.250000 0.801521
O O5 0.750000 0.051010 0.750000
O O6 0.852037 0.056910 0.746499
O O7 0.795678 0.054587 0.907175
O O8 0.080322 0.381344 0.261420
O O9 0.076174 0.250000 0.114940
O O10 0.000000 0.250000 0.229940
O O11 0.937864 0.877239 0.197189
O O12 0.000000 0.750000 0.095502
O O13 0.903434 0.750000 0.062211
O O14 0.850892 0.618907 0.957963
#
# Coordination Sequence:
#
# PCOD9540552 Si02
#       7
#     8  16   8   8  16   8   8
#     4  12  26  44  70  91 127 170 214 275 327 387
#     4  11  23  42  71  92 124 173 214 264 327 390
#     4  12  23  34  58  98 138 170 196 255 308 378
#     4  12  19  36  62  90 128 176 206 249 306 382
#     4  12  21  42  64  92 128 165 218 258 322 376
#     4  12  20  40  61  94 126 165 212 266 318 370
#     4  12  21  34  60  94 136 164 208 251 306 378
#
# _framework density 17.753478000000001
#
# number of rings (size 3 to 8) (size 9 to 14) (size 15 to 20)
#    0.000    0.222   10.000    0.333    1.556    0.000 
#    2.000    5.556    0.000    0.000    0.000    0.000 
#    0.000    0.000    0.000    0.000    0.000    0.000 
#
# Total GULP energy -200437.834559 kJ/mol
# GULP energy per Si atom -5567.717627 kJ/mol
# Density = 1.771307 g / cm^3
# Si number density = 17.753478 Si / 1000 Ang^3
#
#
#
# Elastic Constant Matrix: (Units=GPa)
#
#
# Indices 1 2 3 4 5 6 
#
# 1 113.0244 22.2880 40.5301 0.0000 0.0000 0.0000
# 2 22.2880 139.2783 27.9342 0.0000 0.0000 0.0000
# 3 40.5301 27.9342 90.3779 0.0000 0.0000 0.0000
# 4 0.0000 0.0000 0.0000 28.7454 0.0000 0.0000
# 5 0.0000 0.0000 0.0000 0.0000 19.1824 0.0000
# 6 0.0000 0.0000 0.0000 0.0000 0.0000 27.2427
#
#
#
# Elastic Compliance Matrix: (Units=1/GPa)
#
#
# Indices 1 2 3 4 5 6 
#
# 1 0.010625 -0.000794 -0.004519 0.000000 0.000000 0.000000
# 2 -0.000794 0.007714 -0.002028 0.000000 0.000000 0.000000
# 3 -0.004519 -0.002028 0.013718 0.000000 0.000000 0.000000
# 4 0.000000 0.000000 0.000000 0.034788 0.000000 0.000000
# 5 0.000000 0.000000 0.000000 0.000000 0.052131 0.000000
# 6 0.000000 0.000000 0.000000 0.000000 0.000000 0.036707
#
#
# Mechanical properties :
#
#
# Convention : Reuss Voigt Hill
#
# Bulk Modulus (GPa) = 57.55717 58.24282 57.89999
# Shear Modulus (GPa) = 28.38375 31.82931 30.10653
#
# Velocity S-wave (km/s) = 4.00280 4.23880 4.12249
# Velocity P-wave (km/s) = 7.33852 7.53885 7.43936
#
# Compressibility (1/GPa) = 0.01737403
#
# Stress axis : x y z
#
# Youngs Moduli (GPa) = 94.11937 129.63982 72.89560
#
# Poissons Ratio (x) = 0.10291 0.32944
# Poissons Ratio (y) = 0.07471 0.14785
# Poissons Ratio (z) = 0.42536 0.26293
#
# Static dielectric constant tensor:
#      x y z
#    x 1.622070 0.000000 0.000000 
#    y 0.000000 1.568730 0.000000 
#    z 0.000000 0.000000 1.604560 
# 
# From -- ./inp_files/29259.got.cif
#   From: 2010.05.17/outbox.cif.g08.bks.cpg/sg74_15_cif.got.tgz:29259.got - 2010.06.03 17:57:02.
