data_PCOD9540448
_publ_section_title
;
Structure prediction by ZEFSAII (Michael W. Deem and Ramdas Pophale) SiO2 
 PCOD9540448
Probable space group: I M M A
;
_chemical_formula_sum "Si O2"
_cell_formula_units_Z 68
_cell_length_a 7.903306
_cell_length_b 17.014078
_cell_length_c 23.671999
_cell_angle_alpha 90.000000
_cell_angle_beta 90.000000
_cell_angle_gamma 90.000000
_cell_volume 3183.113691
_symmetry_space_group_name_H-M "I M M A"
_symmetry_group_IT_number 74
_symmetry_cell_setting 'orthorhombic'
loop_
_space_group_symop_operation_xyz
x,y,z
-x,1/2-y,z
x,-y,-z
-x,1/2+y,-z
-x,-y,-z
x,1/2+y,-z
-x,y,z
x,1/2-y,z
1/2+x,1/2+y,1/2+z
1/2-x,-y,1/2+z
1/2+x,1/2-y,1/2-z
1/2-x,y,1/2-z
1/2-x,1/2-y,1/2-z
1/2+x,y,1/2-z
1/2-x,1/2+y,1/2+z
1/2+x,-y,1/2+z
loop_
_atom_site_type_symbol
_atom_site_label
_atom_site_fract_x
_atom_site_fract_y
_atom_site_fract_z
Si Si1 0.302820 0.550843 0.690023
Si Si2 0.198022 0.879917 0.339106
Si Si3 0.199653 0.655163 0.462185
Si Si4 0.794664 0.658744 0.585710
Si Si5 0.250000 0.750000 0.250000
O O1 0.500000 0.532372 0.691761
O O2 0.250000 0.587294 0.750000
O O3 0.207128 0.468510 0.682330
O O4 0.265666 0.606665 0.637340
O O5 0.267600 0.876903 0.403096
O O6 0.285393 0.819000 0.297454
O O7 0.000000 0.853283 0.339602
O O8 0.211299 0.750000 0.460149
O O9 0.267091 0.630771 0.523649
O O10 0.000000 0.634245 0.462289
O O11 0.744719 0.750000 0.592665
O O12 0.000000 0.656694 0.584549
#
# Coordination Sequence:
#
# PCOD9540448 Si02
#       5
#    16  16  16  16   4
#     4  12  26  42  60  85 121 159 201 249 302 358
#     4  11  22  38  62  91 126 162 204 247 292 350
#     4   8  15  32  60  91 118 154 200 245 289 349
#     4   9  19  39  67  93 118 151 198 248 300 357
#     4  12  22  32  64  98 128 164 204 244 290 336
#
# _framework density 21.362729999999999
#
# number of rings (size 3 to 8) (size 9 to 14) (size 15 to 20)
#    0.000    1.882    2.353    3.882    0.000    2.824 
#    0.000    5.882    0.000    1.412    0.000    0.000 
#    0.000    0.000    0.000    0.000    0.000    0.000 
#
# Total GULP energy -189355.511606 kJ/mol
# GULP energy per Si atom -5569.279753 kJ/mol
# Density = 2.131411 g / cm^3
# Si number density = 21.362730 Si / 1000 Ang^3
#
#
#
# Elastic Constant Matrix: (Units=GPa)
#
#
# Indices 1 2 3 4 5 6 
#
# 1 36.6933 6.3448 10.1772 0.0000 0.0000 0.0000
# 2 6.3448 55.2379 52.0349 0.0000 0.0000 0.0000
# 3 10.1772 52.0349 213.7009 0.0000 0.0000 0.0000
# 4 0.0000 0.0000 0.0000 42.2391 0.0000 0.0000
# 5 0.0000 0.0000 0.0000 0.0000 11.1564 0.0000
# 6 0.0000 0.0000 0.0000 0.0000 0.0000 -27.2072
#
#
#
# Elastic Compliance Matrix: (Units=1/GPa)
#
#
# Indices 1 2 3 4 5 6 
#
# 1 0.027888 -0.002533 -0.000711 0.000000 0.000000 0.000000
# 2 -0.002533 0.023722 -0.005656 0.000000 0.000000 0.000000
# 3 -0.000711 -0.005656 0.006090 0.000000 0.000000 0.000000
# 4 0.000000 0.000000 0.000000 0.023675 0.000000 0.000000
# 5 0.000000 0.000000 0.000000 0.000000 0.089635 0.000000
# 6 0.000000 0.000000 0.000000 0.000000 0.000000 -0.036755
#
#
# Mechanical properties :
#
#
# Convention : Reuss Voigt Hill
#
# Bulk Modulus (GPa) = 25.06234 49.19400 37.12817
# Shear Modulus (GPa) = 30.23784 21.04268 25.64026
#
# Velocity S-wave (km/s) = 3.76633 3.14190 3.46820
# Velocity P-wave (km/s) = 5.53813 6.01997 5.78407
#
# Compressibility (1/GPa) = 0.03990050
#
# Stress axis : x y z
#
# Youngs Moduli (GPa) = 35.85735 42.15480 164.19277
#
# Poissons Ratio (x) = 0.10679 0.11679
# Poissons Ratio (y) = 0.09084 0.92860
# Poissons Ratio (z) = 0.02551 0.23841
#
# Static dielectric constant tensor:
#      x y z
#    x 1.827320 0.000000 0.000000 
#    y 0.000000 1.717580 0.000000 
#    z 0.000000 0.000000 1.804240 
# 
# From -- ./inp_files/48136.got.cif
#   From: 2010.05.17/outbox.cif.g08.bks.cpg/sg74_25_cif.got.tgz:48136.got - 2010.06.03 17:57:02.
