data_PCOD9540172
_publ_section_title
;
Structure prediction by ZEFSAII (Michael W. Deem and Ramdas Pophale) SiO2 
 PCOD9540172
Probable space group: I M M A
;
_chemical_formula_sum "Si O2"
_cell_formula_units_Z 96
_cell_length_a 12.602101
_cell_length_b 22.232402
_cell_length_c 22.715305
_cell_angle_alpha 90.000000
_cell_angle_beta 90.000000
_cell_angle_gamma 90.000000
_cell_volume 6364.260021
_symmetry_space_group_name_H-M "I M M A"
_symmetry_group_IT_number 74
_symmetry_cell_setting 'orthorhombic'
loop_
_space_group_symop_operation_xyz
x,y,z
-x,1/2-y,z
x,-y,-z
-x,1/2+y,-z
-x,-y,-z
x,1/2+y,-z
-x,y,z
x,1/2-y,z
1/2+x,1/2+y,1/2+z
1/2-x,-y,1/2+z
1/2+x,1/2-y,1/2-z
1/2-x,y,1/2-z
1/2-x,1/2-y,1/2-z
1/2+x,y,1/2-z
1/2-x,1/2+y,1/2+z
1/2+x,-y,1/2+z
loop_
_atom_site_type_symbol
_atom_site_label
_atom_site_fract_x
_atom_site_fract_y
_atom_site_fract_z
Si Si1 0.126267 0.483139 0.586180
Si Si2 0.500000 0.179061 0.974384
Si Si3 0.622279 0.681495 0.513480
Si Si4 0.622167 0.681348 0.371146
Si Si5 0.298089 0.401199 0.812218
Si Si6 0.500000 0.321485 0.831784
Si Si7 0.187377 0.597875 0.521449
O O1 0.160509 0.456533 0.648560
O O2 0.151238 0.552538 0.572692
O O3 0.188004 0.443866 0.537056
O O4 0.000000 0.473948 0.576655
O O5 0.500000 0.250000 0.983620
O O6 0.500000 0.169455 0.903318
O O7 0.601574 0.148206 0.003927
O O8 0.500000 0.670639 0.530229
O O9 0.650785 0.750000 0.531079
O O10 0.627331 0.680020 0.442141
O O11 0.703418 0.631314 0.534906
O O12 0.500000 0.668934 0.354085
O O13 0.648008 0.750000 0.352755
O O14 0.705349 0.634859 0.345694
O O15 0.250000 0.419688 0.750000
O O16 0.396167 0.354591 0.806953
O O17 0.500000 0.250000 0.820572
#
# Coordination Sequence:
#
# PCOD9540172 Si02
#       7
#    16   8  16  16  16   8  16
#     4  11  20  35  51  69  96 134 169 205 262 299
#     4  11  18  28  54  84 106 126 159 206 258 310
#     4   9  17  30  48  70 102 135 158 191 241 292
#     4   9  18  32  47  65  93 130 169 207 243 277
#     4  12  23  35  50  66  92 131 177 219 249 289
#     4  11  22  35  49  71 103 135 173 216 254 292
#     4  11  17  31  52  74  99 131 166 202 248 315
#
# _framework density 15.084236000000001
#
# number of rings (size 3 to 8) (size 9 to 14) (size 15 to 20)
#    0.000    1.500    5.833    2.500    1.167    4.000 
#    0.000    2.500    0.000    0.000    0.000    0.000 
#    0.000    2.667    1.000    0.000    0.000    0.000 
#
# Total GULP energy -267775.908733 kJ/mol
# GULP energy per Si atom -5578.664765 kJ/mol
# Density = 1.504990 g / cm^3
# Si number density = 15.084236 Si / 1000 Ang^3
#
#
#
# Elastic Constant Matrix: (Units=GPa)
#
#
# Indices 1 2 3 4 5 6 
#
# 1 69.5880 43.3033 18.2512 0.0000 0.0000 0.0000
# 2 43.3033 85.4306 28.8594 0.0000 0.0000 0.0000
# 3 18.2512 28.8594 44.0406 0.0000 0.0000 0.0000
# 4 0.0000 0.0000 0.0000 14.0580 0.0000 0.0000
# 5 0.0000 0.0000 0.0000 0.0000 16.9837 0.0000
# 6 0.0000 0.0000 0.0000 0.0000 0.0000 30.4773
#
#
#
# Elastic Compliance Matrix: (Units=1/GPa)
#
#
# Indices 1 2 3 4 5 6 
#
# 1 0.021162 -0.009971 -0.002236 0.000000 0.000000 0.000000
# 2 -0.009971 0.019732 -0.008798 0.000000 0.000000 0.000000
# 3 -0.002236 -0.008798 0.029398 0.000000 0.000000 0.000000
# 4 0.000000 0.000000 0.000000 0.071134 0.000000 0.000000
# 5 0.000000 0.000000 0.000000 0.000000 0.058880 0.000000
# 6 0.000000 0.000000 0.000000 0.000000 0.000000 0.032811
#
#
# Mechanical properties :
#
#
# Convention : Reuss Voigt Hill
#
# Bulk Modulus (GPa) = 35.35834 42.20966 38.78400
# Shear Modulus (GPa) = 17.57145 19.54683 18.55914
#
# Velocity S-wave (km/s) = 3.41675 3.60369 3.51146
# Velocity P-wave (km/s) = 6.24956 6.73490 6.49676
#
# Compressibility (1/GPa) = 0.02828187
#
# Stress axis : x y z
#
# Youngs Moduli (GPa) = 47.25562 50.68022 34.01611
#
# Poissons Ratio (x) = 0.50534 0.07605
# Poissons Ratio (y) = 0.47119 0.29926
# Poissons Ratio (z) = 0.10565 0.44587
#
# Static dielectric constant tensor:
#      x y z
#    x 1.518660 0.000000 0.000000 
#    y 0.000000 1.500180 0.000000 
#    z 0.000000 0.000000 1.493810 
# 
# From -- ./inp_files/59014.got.cif
#   From: 2010.05.17/outbox.cif.g08.bks.cpg/sg74_30_cif.got.tgz:59014.got - 2010.06.03 17:57:02.
