data_PCOD9540654
_publ_section_title
;
Structure prediction by ZEFSAII (Michael W. Deem and Ramdas Pophale) SiO2 
 PCOD9540654
Probable space group: I M M A
;
_chemical_formula_sum "Si O2"
_cell_formula_units_Z 76
_cell_length_a 24.112786
_cell_length_b 10.190777
_cell_length_c 8.723941
_cell_angle_alpha 90.000000
_cell_angle_beta 90.000000
_cell_angle_gamma 90.000000
_cell_volume 2143.716792
_symmetry_space_group_name_H-M "I M M A"
_symmetry_group_IT_number 74
_symmetry_cell_setting 'orthorhombic'
loop_
_space_group_symop_operation_xyz
x,y,z
-x,1/2-y,z
x,-y,-z
-x,1/2+y,-z
-x,-y,-z
x,1/2+y,-z
-x,y,z
x,1/2-y,z
1/2+x,1/2+y,1/2+z
1/2-x,-y,1/2+z
1/2+x,1/2-y,1/2-z
1/2-x,y,1/2-z
1/2-x,1/2-y,1/2-z
1/2+x,y,1/2-z
1/2-x,1/2+y,1/2+z
1/2+x,-y,1/2+z
loop_
_atom_site_type_symbol
_atom_site_label
_atom_site_fract_x
_atom_site_fract_y
_atom_site_fract_z
Si Si1 0.571374 0.402734 0.140953
Si Si2 0.500000 0.078564 0.376544
Si Si3 0.855248 0.417997 0.122222
Si Si4 0.706741 0.250000 0.890189
Si Si5 0.000000 0.250000 0.896533
Si Si6 0.628450 0.250000 0.625059
Si Si7 0.713320 0.579737 0.871940
O O1 0.500000 0.423109 0.182606
O O2 0.570047 0.250000 0.097577
O O3 0.643453 0.416243 0.178059
O O4 0.572175 0.500000 0.000000
O O5 0.500000 0.250000 0.405869
O O6 0.427458 0.081077 0.339467
O O7 0.500000 0.916440 0.423514
O O8 0.857706 0.250000 0.080195
O O9 0.855881 0.586835 0.081391
O O10 0.784456 0.419545 0.164232
O O11 0.750000 0.250000 0.750000
O O12 0.649649 0.250000 0.799823
O O13 0.712434 0.415374 0.924598
O O14 0.936850 0.250000 0.843301
O O15 0.713206 0.750000 0.912478
#
# Coordination Sequence:
#
# PCOD9540654 Si02
#       7
#    16   8  16   8   4   8  16
#     4  12  26  50  78 115 168 217 287 375 447 528
#     4  12  23  49  75 113 154 223 291 365 432 526
#     4  12  24  47  74 111 154 216 277 351 434 525
#     4  12  26  47  77 119 154 210 272 349 448 534
#     4  12  24  48  76 110 160 224 296 360 446 512
#     4  12  25  46  80 110 161 215 288 358 433 539
#     4  12  25  46  73 111 160 205 268 349 437 531
#
# _framework density 35.452441999999998
#
# number of rings (size 3 to 8) (size 9 to 14) (size 15 to 20)
#    0.000    0.000    4.211    6.316    0.000    0.000 
#    3.789    0.000    0.000    2.526    0.000    0.737 
#    0.000    0.000    0.000    0.000    0.000    0.000 
#
# Total GULP energy -213706.042134 kJ/mol
# GULP energy per Si atom -5623.843214 kJ/mol
# Density = 3.537175 g / cm^3
# Si number density = 35.452442 Si / 1000 Ang^3
#
#
#
# Elastic Constant Matrix: (Units=GPa)
#
#
# Indices 1 2 3 4 5 6 
#
# 1 489.9544 163.7611 210.7834 0.0000 0.0000 0.0000
# 2 163.7611 505.2239 238.8296 0.0000 0.0000 0.0000
# 3 210.7834 238.8296 363.2984 0.0000 0.0000 0.0000
# 4 0.0000 0.0000 0.0000 149.8032 0.0000 0.0000
# 5 0.0000 0.0000 0.0000 0.0000 137.3214 0.0000
# 6 0.0000 0.0000 0.0000 0.0000 0.0000 131.5526
#
#
#
# Elastic Compliance Matrix: (Units=1/GPa)
#
#
# Indices 1 2 3 4 5 6 
#
# 1 0.002733 -0.000198 -0.001456 0.000000 0.000000 0.000000
# 2 -0.000198 0.002886 -0.001783 0.000000 0.000000 0.000000
# 3 -0.001456 -0.001783 0.004769 0.000000 0.000000 0.000000
# 4 0.000000 0.000000 0.000000 0.006675 0.000000 0.000000
# 5 0.000000 0.000000 0.000000 0.000000 0.007282 0.000000
# 6 0.000000 0.000000 0.000000 0.000000 0.000000 0.007602
#
#
# Mechanical properties :
#
#
# Convention : Reuss Voigt Hill
#
# Bulk Modulus (GPa) = 284.40008 287.24722 285.82365
# Shear Modulus (GPa) = 125.02416 133.40895 129.21655
#
# Velocity S-wave (km/s) = 5.94490 6.14102 6.04376
# Velocity P-wave (km/s) = 11.29233 11.46656 11.37978
#
# Compressibility (1/GPa) = 0.00351617
#
# Stress axis : x y z
#
# Youngs Moduli (GPa) = 365.83644 346.49274 209.68311
#
# Poissons Ratio (x) = 0.06852 0.30528
# Poissons Ratio (y) = 0.07235 0.37377
# Poissons Ratio (z) = 0.53263 0.61763
#
# Static dielectric constant tensor:
#      x y z
#    x 5.764330 0.000000 0.000000 
#    y 0.000000 2.550850 0.000000 
#    z 0.000000 0.000000 2.591190 
# 
# From -- ./inp_files/46552.got.cif
#   From: 2010.05.17/outbox.cif.g08.bks.cpg/sg74_24_cif.got.tgz:46552.got - 2010.06.03 17:57:02.
