data_PCOD9540177
_publ_section_title
;
Structure prediction by ZEFSAII (Michael W. Deem and Ramdas Pophale) SiO2 
 PCOD9540177
Probable space group: I M M A
;
_chemical_formula_sum "Si O2"
_cell_formula_units_Z 80
_cell_length_a 10.276615
_cell_length_b 21.591846
_cell_length_c 23.517412
_cell_angle_alpha 90.000000
_cell_angle_beta 90.000000
_cell_angle_gamma 90.000000
_cell_volume 5218.304147
_symmetry_space_group_name_H-M "I M M A"
_symmetry_group_IT_number 74
_symmetry_cell_setting 'orthorhombic'
loop_
_space_group_symop_operation_xyz
x,y,z
-x,1/2-y,z
x,-y,-z
-x,1/2+y,-z
-x,-y,-z
x,1/2+y,-z
-x,y,z
x,1/2-y,z
1/2+x,1/2+y,1/2+z
1/2-x,-y,1/2+z
1/2+x,1/2-y,1/2-z
1/2-x,y,1/2-z
1/2-x,1/2-y,1/2-z
1/2+x,y,1/2-z
1/2-x,1/2+y,1/2+z
1/2+x,-y,1/2+z
loop_
_atom_site_type_symbol
_atom_site_label
_atom_site_fract_x
_atom_site_fract_y
_atom_site_fract_z
Si Si1 0.500000 0.323387 0.857603
Si Si2 0.659197 0.514763 0.413972
Si Si3 0.259433 0.399118 0.479398
Si Si4 0.000000 0.823610 0.495335
Si Si5 0.745466 0.602732 0.315922
Si Si6 0.000000 0.823270 0.143964
Si Si7 0.500000 0.822934 0.489489
O O1 0.500000 0.250000 0.841133
O O2 0.500000 0.325255 0.926364
O O3 0.625568 0.360456 0.835078
O O4 0.500000 0.512107 0.416133
O O5 0.712647 0.559860 0.463887
O O6 0.718771 0.447666 0.428506
O O7 0.711610 0.544402 0.355951
O O8 0.125400 0.361952 0.483465
O O9 0.374103 0.349542 0.480383
O O10 0.000000 0.750000 0.511045
O O11 0.750000 0.585676 0.250000
O O12 0.626399 0.649384 0.326656
O O13 0.000000 0.750000 0.146722
O O14 0.000000 0.841941 0.077298
O O15 0.500000 0.750000 0.489942
#
# Coordination Sequence:
#
# PCOD9540177 Si02
#       7
#     8  16  16   8  16   8   8
#     4  11  23  37  49  71 107 144 186 221 255 299
#     4  11  20  36  56  75 101 133 182 222 258 302
#     4  11  19  34  55  76 102 137 171 211 265 318
#     4  11  22  35  51  79 115 138 165 214 264 314
#     4  12  23  36  52  72 102 139 186 227 257 292
#     4  11  21  35  51  69 101 144 186 221 253 289
#     4  11  18  31  55  79 101 136 179 214 254 302
#
# _framework density 15.330652000000001
#
# number of rings (size 3 to 8) (size 9 to 14) (size 15 to 20)
#    0.000    0.800    7.000    2.400    0.000    8.000 
#    0.000    0.000    0.000    0.000    0.000    0.000 
#    0.000    4.800    0.000    0.000    0.000    0.000 
#
# Total GULP energy -223244.192358 kJ/mol
# GULP energy per Si atom -5581.104809 kJ/mol
# Density = 1.529576 g / cm^3
# Si number density = 15.330652 Si / 1000 Ang^3
#
#
#
# Elastic Constant Matrix: (Units=GPa)
#
#
# Indices 1 2 3 4 5 6 
#
# 1 163.7554 65.5886 43.0121 0.0000 0.0000 0.0000
# 2 65.5886 104.2072 59.8280 0.0000 0.0000 0.0000
# 3 43.0121 59.8280 88.0787 0.0000 0.0000 0.0000
# 4 0.0000 0.0000 0.0000 21.0429 0.0000 0.0000
# 5 0.0000 0.0000 0.0000 0.0000 32.2897 0.0000
# 6 0.0000 0.0000 0.0000 0.0000 0.0000 43.6621
#
#
#
# Elastic Compliance Matrix: (Units=1/GPa)
#
#
# Indices 1 2 3 4 5 6 
#
# 1 0.008201 -0.004692 -0.000817 0.000000 0.000000 0.000000
# 2 -0.004692 0.018416 -0.010218 0.000000 0.000000 0.000000
# 3 -0.000817 -0.010218 0.018693 0.000000 0.000000 0.000000
# 4 0.000000 0.000000 0.000000 0.047522 0.000000 0.000000
# 5 0.000000 0.000000 0.000000 0.000000 0.030970 0.000000
# 6 0.000000 0.000000 0.000000 0.000000 0.000000 0.022903
#
#
# Mechanical properties :
#
#
# Convention : Reuss Voigt Hill
#
# Bulk Modulus (GPa) = 72.17678 76.98873 74.58276
# Shear Modulus (GPa) = 27.35567 31.90645 29.63106
#
# Velocity S-wave (km/s) = 4.22877 4.56699 4.40113
# Velocity P-wave (km/s) = 8.42767 8.83955 8.63607
#
# Compressibility (1/GPa) = 0.01385487
#
# Stress axis : x y z
#
# Youngs Moduli (GPa) = 121.93970 54.30115 53.49573
#
# Poissons Ratio (x) = 0.25480 0.04373
# Poissons Ratio (y) = 0.57217 0.54660
# Poissons Ratio (z) = 0.09968 0.55483
#
# Static dielectric constant tensor:
#      x y z
#    x 1.756620 0.000000 0.000000 
#    y 0.000000 1.508430 0.000000 
#    z 0.000000 0.000000 1.514750 
# 
# From -- ./inp_files/56918.got.cif
#   From: 2010.05.17/outbox.cif.g08.bks.cpg/sg74_29_cif.got.tgz:56918.got - 2010.06.03 17:57:02.
