data_PCOD9540230
_publ_section_title
;
Structure prediction by ZEFSAII (Michael W. Deem and Ramdas Pophale) SiO2 
 PCOD9540230
Probable space group: I M M A
;
_chemical_formula_sum "Si O2"
_cell_formula_units_Z 80
_cell_length_a 8.510179
_cell_length_b 26.000390
_cell_length_c 21.180355
_cell_angle_alpha 90.000000
_cell_angle_beta 90.000000
_cell_angle_gamma 90.000000
_cell_volume 4686.534218
_symmetry_space_group_name_H-M "I M M A"
_symmetry_group_IT_number 74
_symmetry_cell_setting 'orthorhombic'
loop_
_space_group_symop_operation_xyz
x,y,z
-x,1/2-y,z
x,-y,-z
-x,1/2+y,-z
-x,-y,-z
x,1/2+y,-z
-x,y,z
x,1/2-y,z
1/2+x,1/2+y,1/2+z
1/2-x,-y,1/2+z
1/2+x,1/2-y,1/2-z
1/2-x,y,1/2-z
1/2-x,1/2-y,1/2-z
1/2+x,y,1/2-z
1/2-x,1/2+y,1/2+z
1/2+x,-y,1/2+z
loop_
_atom_site_type_symbol
_atom_site_label
_atom_site_fract_x
_atom_site_fract_y
_atom_site_fract_z
Si Si1 0.181564 0.250000 0.362893
Si Si2 0.688323 0.965672 0.817191
Si Si3 0.808602 0.139081 0.511790
Si Si4 0.686818 0.359984 0.368265
Si Si5 0.182873 0.250000 0.516671
Si Si6 0.808543 0.031051 0.562420
O O1 0.500000 0.250000 0.156033
O O2 0.259724 0.196177 0.343865
O O3 0.187511 0.250000 0.439956
O O4 0.500000 0.965187 0.817496
O O5 0.750000 0.984213 0.750000
O O6 0.747380 0.907743 0.829083
O O7 0.744107 0.001732 0.874868
O O8 0.752013 0.133086 0.439684
O O9 0.750030 0.194724 0.535843
O O10 0.760005 0.090118 0.552866
O O11 0.000000 0.140393 0.509566
O O12 0.500000 0.361722 0.369572
O O13 0.000000 0.250000 0.535866
O O14 0.000000 0.030406 0.563047
O O15 0.758794 0.000000 0.500000
#
# Coordination Sequence:
#
# PCOD9540230 Si02
#       6
#     8  16  16  16   8  16
#     4   9  17  31  50  70  95 134 174 210 246 290
#     4  11  22  37  53  71  98 133 171 211 258 308
#     4   9  15  28  48  72  99 132 169 206 253 300
#     4  11  20  31  48  74 103 132 166 209 255 299
#     4   7  12  21  41  70  97 120 154 202 244 288
#     4   9  16  29  52  75  96 129 171 212 251 302
#
# _framework density 17.070184999999999
#
# number of rings (size 3 to 8) (size 9 to 14) (size 15 to 20)
#    0.000    2.400    2.000    3.900    0.000    0.000 
#    0.000    3.500    0.000    0.000    0.000    0.700 
#    0.000    0.000    0.000    0.000    0.000    0.000 
#
# Total GULP energy -222987.832771 kJ/mol
# GULP energy per Si atom -5574.695819 kJ/mol
# Density = 1.703133 g / cm^3
# Si number density = 17.070185 Si / 1000 Ang^3
#
#
#
# Elastic Constant Matrix: (Units=GPa)
#
#
# Indices 1 2 3 4 5 6 
#
# 1 43.3117 20.9286 14.4843 0.0000 0.0000 0.0000
# 2 20.9286 143.6840 60.5485 0.0000 0.0000 0.0000
# 3 14.4843 60.5485 88.6111 0.0001 0.0000 0.0000
# 4 0.0000 0.0000 0.0001 19.2304 0.0000 0.0000
# 5 0.0000 0.0000 0.0000 0.0000 15.2507 0.0000
# 6 0.0000 0.0000 0.0000 0.0000 0.0000 6.3936
#
#
#
# Elastic Compliance Matrix: (Units=1/GPa)
#
#
# Indices 1 2 3 4 5 6 
#
# 1 0.025154 -0.002712 -0.002258 0.000000 0.000000 0.000000
# 2 -0.002712 0.010067 -0.006435 0.000000 0.000000 0.000000
# 3 -0.002258 -0.006435 0.016052 0.000000 0.000000 0.000000
# 4 0.000000 0.000000 0.000000 0.052001 0.000000 0.000000
# 5 0.000000 0.000000 0.000000 0.000000 0.065571 0.000000
# 6 0.000000 0.000000 0.000000 0.000000 0.000000 0.156406
#
#
# Mechanical properties :
#
#
# Convention : Reuss Voigt Hill
#
# Bulk Modulus (GPa) = 35.13605 51.94774 43.54190
# Shear Modulus (GPa) = 13.98408 20.15130 17.06769
#
# Velocity S-wave (km/s) = 2.86529 3.43956 3.16548
# Velocity P-wave (km/s) = 5.61912 6.80236 6.23885
#
# Compressibility (1/GPa) = 0.02846079
#
# Stress axis : x y z
#
# Youngs Moduli (GPa) = 39.75473 99.33863 62.29886
#
# Poissons Ratio (x) = 0.26943 0.14070
# Poissons Ratio (y) = 0.10782 0.40091
# Poissons Ratio (z) = 0.08978 0.63927
#
# Static dielectric constant tensor:
#      x y z
#    x 1.577200 0.000000 0.000000 
#    y 0.000000 1.623300 0.000000 
#    z 0.000000 0.000000 1.565650 
# 
# From -- ./inp_files/39822.got.cif
#   From: 2010.05.17/outbox.cif.g08.bks.cpg/sg74_20_cif.got.tgz:39822.got - 2010.06.03 17:57:02.
