data_PCOD9540766
_publ_section_title
;
Structure prediction by ZEFSAII (Michael W. Deem and Ramdas Pophale) SiO2 
 PCOD9540766
Probable space group: I M M A
;
_chemical_formula_sum "Si O2"
_cell_formula_units_Z 112
_cell_length_a 29.407993
_cell_length_b 14.575392
_cell_length_c 10.119950
_cell_angle_alpha 90.000000
_cell_angle_beta 90.000000
_cell_angle_gamma 90.000000
_cell_volume 4337.744791
_symmetry_space_group_name_H-M "I M M A"
_symmetry_group_IT_number 74
_symmetry_cell_setting 'orthorhombic'
loop_
_space_group_symop_operation_xyz
x,y,z
-x,1/2-y,z
x,-y,-z
-x,1/2+y,-z
-x,-y,-z
x,1/2+y,-z
-x,y,z
x,1/2-y,z
1/2+x,1/2+y,1/2+z
1/2-x,-y,1/2+z
1/2+x,1/2-y,1/2-z
1/2-x,y,1/2-z
1/2-x,1/2-y,1/2-z
1/2+x,y,1/2-z
1/2-x,1/2+y,1/2+z
1/2+x,-y,1/2+z
loop_
_atom_site_type_symbol
_atom_site_label
_atom_site_fract_x
_atom_site_fract_y
_atom_site_fract_z
Si Si1 0.718308 0.861710 0.042338
Si Si2 0.647343 0.362630 0.182766
Si Si3 0.946396 0.102381 0.002383
Si Si4 0.680100 0.138323 0.470948
Si Si5 0.448967 0.645992 0.794034
Si Si6 0.853773 0.637917 0.250872
Si Si7 0.449419 0.646033 0.200071
O O1 0.720534 0.750000 0.047830
O O2 0.769132 0.891712 0.009558
O O3 0.692432 0.890594 0.175622
O O4 0.684922 0.888173 0.923672
O O5 0.645777 0.250000 0.183391
O O6 0.663572 0.394038 0.327984
O O7 0.596543 0.395276 0.144971
O O8 0.945172 0.149102 0.860386
O O9 0.000000 0.092319 0.024797
O O10 0.933784 0.150024 0.139036
O O11 0.927469 0.000000 0.000000
O O12 0.680238 0.250000 0.464296
O O13 0.648876 0.113762 0.596164
O O14 0.500000 0.605517 0.809171
O O15 0.452920 0.750000 0.840596
O O16 0.855233 0.750000 0.256914
O O17 0.899465 0.605247 0.325917
O O18 0.500000 0.606519 0.169592
O O19 0.450175 0.750000 0.149223
#
# Coordination Sequence:
#
# PCOD9540766 Si02
#       7
#    16  16  16  16  16  16  16
#     4   9  16  25  36  54  83 114 143 179 218 252
#     4   9  16  25  38  57  82 113 146 176 210 256
#     4   9  16  25  39  61  87 113 144 183 217 243
#     4   9  15  23  36  54  79 112 144 175 218 264
#     4   9  16  26  40  59  86 118 144 168 207 258
#     4   9  16  25  38  57  82 113 146 176 210 256
#     4   9  16  26  40  59  86 118 144 168 207 258
#
# _framework density 25.819869000000001
#
# number of rings (size 3 to 8) (size 9 to 14) (size 15 to 20)
#    0.000    3.000    0.000    2.143    0.000    7.429 
#    0.000    0.714    0.000    4.286    0.000    1.000 
#    0.000   22.857    0.000    0.000    0.000    0.000 
#
# Total GULP energy -312511.373595 kJ/mol
# GULP energy per Si atom -5580.560243 kJ/mol
# Density = 2.576110 g / cm^3
# Si number density = 25.819869 Si / 1000 Ang^3
#
#
#
# Elastic Constant Matrix: (Units=GPa)
#
#
# Indices 1 2 3 4 5 6 
#
# 1 158.2544 -12.8420 5.4445 0.0000 0.0000 0.0000
# 2 -12.8420 90.5259 0.2626 0.0000 0.0000 0.0000
# 3 5.4445 0.2626 108.9459 0.0000 0.0000 0.0000
# 4 0.0000 0.0000 0.0000 0.8585 0.0000 0.0000
# 5 0.0000 0.0000 0.0000 0.0000 219.8443 0.0000
# 6 0.0000 0.0000 0.0000 0.0000 0.0000 -9.8676
#
#
#
# Elastic Compliance Matrix: (Units=1/GPa)
#
#
# Indices 1 2 3 4 5 6 
#
# 1 0.006404 0.000909 -0.000322 0.000000 0.000000 0.000000
# 2 0.000909 0.011176 -0.000072 0.000000 0.000000 0.000000
# 3 -0.000322 -0.000072 0.009195 0.000000 0.000000 0.000000
# 4 0.000000 0.000000 0.000000 1.164779 0.000000 0.000000
# 5 0.000000 0.000000 0.000000 0.000000 0.004549 0.000000
# 6 0.000000 0.000000 0.000000 0.000000 0.000000 -0.101342
#
#
# Mechanical properties :
#
#
# Convention : Reuss Voigt Hill
#
# Bulk Modulus (GPa) = 35.96566 38.16182 37.06374
# Shear Modulus (GPa) = 4.53310 66.49113 35.51211
#
# Velocity S-wave (km/s) = 1.32645 5.08014 3.71263
# Velocity P-wave (km/s) = 4.03803 7.01588 5.72399
#
# Compressibility (1/GPa) = 0.02780430
#
# Stress axis : x y z
#
# Youngs Moduli (GPa) = 156.15677 89.47924 108.75305
#
# Poissons Ratio (x) = -0.08137 0.03504
# Poissons Ratio (y) = -0.14201 0.00787
# Poissons Ratio (z) = 0.05032 0.00648
#
# Static dielectric constant tensor:
#      x y z
#    x 2.077770 0.000000 0.000000 
#    y 0.000000 2.037640 0.000000 
#    z 0.000000 0.000000 2.026560 
# 
# From -- ./inp_files/26571.got.cif
#   From: 2010.05.17/outbox.cif.g08.bks.cpg/sg74_14_cif.got.tgz:26571.got - 2010.06.03 17:57:02.
