data_PCOD9540313
_publ_section_title
;
Structure prediction by ZEFSAII (Michael W. Deem and Ramdas Pophale) SiO2 
 PCOD9540313
Probable space group: I M M A
;
_chemical_formula_sum "Si O2"
_cell_formula_units_Z 64
_cell_length_a 17.198219
_cell_length_b 21.813966
_cell_length_c 8.987476
_cell_angle_alpha 90.000000
_cell_angle_beta 90.000000
_cell_angle_gamma 90.000000
_cell_volume 3371.753760
_symmetry_space_group_name_H-M "I M M A"
_symmetry_group_IT_number 74
_symmetry_cell_setting 'orthorhombic'
loop_
_space_group_symop_operation_xyz
x,y,z
-x,1/2-y,z
x,-y,-z
-x,1/2+y,-z
-x,-y,-z
x,1/2+y,-z
-x,y,z
x,1/2-y,z
1/2+x,1/2+y,1/2+z
1/2-x,-y,1/2+z
1/2+x,1/2-y,1/2-z
1/2-x,y,1/2-z
1/2-x,1/2-y,1/2-z
1/2+x,y,1/2-z
1/2-x,1/2+y,1/2+z
1/2+x,-y,1/2+z
loop_
_atom_site_type_symbol
_atom_site_label
_atom_site_fract_x
_atom_site_fract_y
_atom_site_fract_z
Si Si1 0.337837 0.630007 0.196140
Si Si2 0.094991 0.870242 0.634202
Si Si3 0.594178 0.750000 0.681460
Si Si4 0.590041 0.502501 0.181157
Si Si5 0.407495 0.250000 0.653251
O O1 0.250000 0.636870 0.250000
O O2 0.364922 0.561292 0.240779
O O3 0.382274 0.687649 0.266454
O O4 0.358511 0.632426 0.020559
O O5 0.115168 0.811039 0.729843
O O6 0.113692 0.933316 0.721522
O O7 0.000000 0.871185 0.604905
O O8 0.500000 0.750000 0.674140
O O9 0.624994 0.750000 0.514392
O O10 0.500000 0.511392 0.220288
O O11 0.594805 0.500000 0.000000
O O12 0.500000 0.250000 0.647424
#
# Coordination Sequence:
#
# PCOD9540313 Si02
#       5
#    16  16   8  16   8
#     4  11  21  34  53  82 112 139 174 220 272 324
#     4   9  17  35  61  81 102 141 189 224 256 316
#     4   9  19  35  56  80 102 133 182 231 268 308
#     4   8  15  31  56  80 100 132 180 223 255 302
#     4  11  22  37  55  78 109 141 178 227 276 316
#
# _framework density 18.981218999999999
#
# number of rings (size 3 to 8) (size 9 to 14) (size 15 to 20)
#    0.000    2.500    0.000    4.875    0.000    1.000 
#    0.000   11.250    0.000    6.000    0.000    0.000 
#    0.000    0.000    0.000    0.000    0.000    0.000 
#
# Total GULP energy -178322.498291 kJ/mol
# GULP energy per Si atom -5572.578072 kJ/mol
# Density = 1.893802 g / cm^3
# Si number density = 18.981219 Si / 1000 Ang^3
#
#
#
# Elastic Constant Matrix: (Units=GPa)
#
#
# Indices 1 2 3 4 5 6 
#
# 1 65.7901 48.8167 28.1692 0.0000 0.0000 0.0000
# 2 48.8167 203.3071 58.5719 0.0000 0.0000 0.0000
# 3 28.1692 58.5719 60.3191 0.0000 0.0000 0.0000
# 4 0.0000 0.0000 0.0000 125.9064 0.0000 0.0000
# 5 0.0000 0.0000 0.0000 0.0000 -1.5687 0.0000
# 6 0.0000 0.0000 0.0000 0.0000 0.0000 7.7853
#
#
#
# Elastic Compliance Matrix: (Units=1/GPa)
#
#
# Indices 1 2 3 4 5 6 
#
# 1 0.020207 -0.002962 -0.006561 0.000000 0.000000 0.000000
# 2 -0.002962 0.007263 -0.005670 0.000000 0.000000 0.000000
# 3 -0.006561 -0.005670 0.025148 0.000000 0.000000 0.000000
# 4 0.000000 0.000000 0.000000 0.007942 0.000000 0.000000
# 5 0.000000 0.000000 0.000000 0.000000 -0.637455 0.000000
# 6 0.000000 0.000000 0.000000 0.000000 0.000000 0.128447
#
#
# Mechanical properties :
#
#
# Convention : Reuss Voigt Hill
#
# Bulk Modulus (GPa) = 44.97714 66.72576 55.85145
# Shear Modulus (GPa) = -12.17575 39.34848 13.58636
#
# Velocity S-wave (km/s) = -2.53546 4.55798 2.67831
# Velocity P-wave (km/s) = 3.89559 7.93285 6.24923
#
# Compressibility (1/GPa) = 0.02223352
#
# Stress axis : x y z
#
# Youngs Moduli (GPa) = 49.48891 137.67952 39.76497
#
# Poissons Ratio (x) = 0.40778 0.26088
# Poissons Ratio (y) = 0.14658 0.22546
# Poissons Ratio (z) = 0.32467 0.78060
#
# Static dielectric constant tensor:
#      x y z
#    x 1.652330 0.000000 0.000000 
#    y 0.000000 1.693110 0.000000 
#    z 0.000000 0.000000 1.651490 
# 
# From -- ./inp_files/10308.got.cif
#   From: 2010.05.17/outbox.cif.g08.bks.cpg/sg74_6_cif.got.tgz:10308.got - 2010.06.03 17:57:02.
