data_PCOD9540734
_publ_section_title
;
Structure prediction by ZEFSAII (Michael W. Deem and Ramdas Pophale) SiO2 
 PCOD9540734
Probable space group: I M M A
;
_chemical_formula_sum "Si O2"
_cell_formula_units_Z 80
_cell_length_a 32.712157
_cell_length_b 7.646132
_cell_length_c 13.573645
_cell_angle_alpha 90.000000
_cell_angle_beta 90.000000
_cell_angle_gamma 90.000000
_cell_volume 3395.060046
_symmetry_space_group_name_H-M "I M M A"
_symmetry_group_IT_number 74
_symmetry_cell_setting 'orthorhombic'
loop_
_space_group_symop_operation_xyz
x,y,z
-x,1/2-y,z
x,-y,-z
-x,1/2+y,-z
-x,-y,-z
x,1/2+y,-z
-x,y,z
x,1/2-y,z
1/2+x,1/2+y,1/2+z
1/2-x,-y,1/2+z
1/2+x,1/2-y,1/2-z
1/2-x,y,1/2-z
1/2-x,1/2-y,1/2-z
1/2+x,y,1/2-z
1/2-x,1/2+y,1/2+z
1/2+x,-y,1/2+z
loop_
_atom_site_type_symbol
_atom_site_label
_atom_site_fract_x
_atom_site_fract_y
_atom_site_fract_z
Si Si1 0.803101 0.750000 0.872323
Si Si2 0.710855 0.750000 0.867225
Si Si3 0.650645 0.948621 0.131227
Si Si4 0.955743 0.536661 0.172493
Si Si5 0.561427 0.040139 0.894601
Si Si6 0.134906 0.449145 0.866130
O O1 0.756638 0.750000 0.908497
O O2 0.794744 0.750000 0.753139
O O3 0.830604 0.583306 0.900237
O O4 0.687144 0.574836 0.895651
O O5 0.656099 0.750000 0.096441
O O6 0.607571 0.029127 0.099047
O O7 0.644040 0.938789 0.249079
O O8 0.954772 0.750000 0.170572
O O9 0.955121 0.481900 0.288356
O O10 0.912213 0.483940 0.125084
O O11 0.000000 0.480841 0.130752
O O12 0.563129 0.250000 0.886716
O O13 0.541985 0.000000 0.000000
O O14 0.137369 0.250000 0.903757
#
# Coordination Sequence:
#
# PCOD9540734 Si02
#       6
#     8   8  16  16  16  16
#     4   9  16  24  35  56  70  80 109 134 166 223
#     4   9  16  24  38  52  68  88 102 134 174 211
#     4   8  15  26  36  49  67  87 111 135 171 218
#     4   8  14  26  40  50  65  92 121 148 184 223
#     4   9  17  26  37  51  66  88 117 152 188 224
#     4   8  14  25  38  49  67  90 108 136 174 209
#
# _framework density 23.563647
#
# number of rings (size 3 to 8) (size 9 to 14) (size 15 to 20)
#    0.000    3.600    0.000    2.400    1.400    1.200 
#    1.800    4.500    0.000    0.000    0.000    0.000 
#    0.000    0.000    0.000    0.000    0.000    0.000 
#
# Total GULP energy -223057.015686 kJ/mol
# GULP energy per Si atom -5576.425392 kJ/mol
# Density = 2.351002 g / cm^3
# Si number density = 23.563647 Si / 1000 Ang^3
#
#
#
# Elastic Constant Matrix: (Units=GPa)
#
#
# Indices 1 2 3 4 5 6 
#
# 1 262.0179 87.7907 4.0778 0.0000 0.0000 0.0000
# 2 87.7907 90.3075 3.7022 0.0000 0.0000 0.0000
# 3 4.0778 3.7022 71.6593 0.0000 0.0000 0.0000
# 4 0.0000 0.0000 0.0000 14.8094 0.0000 0.0000
# 5 0.0000 0.0000 0.0000 0.0000 -34.2124 0.0000
# 6 0.0000 0.0000 0.0000 0.0000 0.0000 85.1577
#
#
#
# Elastic Compliance Matrix: (Units=1/GPa)
#
#
# Indices 1 2 3 4 5 6 
#
# 1 0.005660 -0.005501 -0.000038 0.000000 0.000000 0.000000
# 2 -0.005501 0.016443 -0.000536 0.000000 0.000000 0.000000
# 3 -0.000038 -0.000536 0.013985 0.000000 0.000000 0.000000
# 4 0.000000 0.000000 0.000000 0.067525 0.000000 0.000000
# 5 0.000000 0.000000 0.000000 0.000000 -0.029229 0.000000
# 6 0.000000 0.000000 0.000000 0.000000 0.000000 0.011743
#
#
# Mechanical properties :
#
#
# Convention : Reuss Voigt Hill
#
# Bulk Modulus (GPa) = 41.77577 68.34733 55.06155
# Shear Modulus (GPa) = 47.05610 35.04520 41.05065
#
# Velocity S-wave (km/s) = 4.47360 3.86068 4.17840
# Velocity P-wave (km/s) = 6.66720 6.99582 6.83349
#
# Compressibility (1/GPa) = 0.02393732
#
# Stress axis : x y z
#
# Youngs Moduli (GPa) = 176.67079 60.81655 71.50624
#
# Poissons Ratio (x) = 0.33455 0.00271
# Poissons Ratio (y) = 0.97186 0.03836
# Poissons Ratio (z) = 0.00670 0.03263
#
# Static dielectric constant tensor:
#      x y z
#    x 1.891590 0.000000 0.000000 
#    y 0.000000 1.858140 0.000000 
#    z 0.000000 0.000000 1.935140 
# 
# From -- ./inp_files/49006.got.cif
#   From: 2010.05.17/outbox.cif.g08.bks.cpg/sg74_25_cif.got.tgz:49006.got - 2010.06.03 17:57:02.
