data_PCOD9540534
_publ_section_title
;
Structure prediction by ZEFSAII (Michael W. Deem and Ramdas Pophale) SiO2 
 PCOD9540534
Probable space group: I M M A
;
_chemical_formula_sum "Si O2"
_cell_formula_units_Z 64
_cell_length_a 23.635205
_cell_length_b 24.476723
_cell_length_c 4.978553
_cell_angle_alpha 90.000000
_cell_angle_beta 90.000000
_cell_angle_gamma 90.000000
_cell_volume 2880.154474
_symmetry_space_group_name_H-M "I M M A"
_symmetry_group_IT_number 74
_symmetry_cell_setting 'orthorhombic'
loop_
_space_group_symop_operation_xyz
x,y,z
-x,1/2-y,z
x,-y,-z
-x,1/2+y,-z
-x,-y,-z
x,1/2+y,-z
-x,y,z
x,1/2-y,z
1/2+x,1/2+y,1/2+z
1/2-x,-y,1/2+z
1/2+x,1/2-y,1/2-z
1/2-x,y,1/2-z
1/2-x,1/2-y,1/2-z
1/2+x,y,1/2-z
1/2-x,1/2+y,1/2+z
1/2+x,-y,1/2+z
loop_
_atom_site_type_symbol
_atom_site_label
_atom_site_fract_x
_atom_site_fract_y
_atom_site_fract_z
Si Si1 0.064500 0.656096 0.633192
Si Si2 0.136660 0.188339 0.868480
Si Si3 0.712822 0.911070 0.488106
Si Si4 0.399460 0.464363 0.267171
O O1 0.089348 0.669404 0.342733
O O2 0.068989 0.591214 0.687734
O O3 0.000000 0.674193 0.662188
O O4 0.106484 0.684304 0.843579
O O5 0.155009 0.250000 0.812558
O O6 0.186748 0.144367 0.865071
O O7 0.750000 0.899487 0.750000
O O8 0.659313 0.944820 0.596341
O O9 0.750000 0.937800 0.250000
O O10 0.428689 0.500000 0.500000
O O11 0.390483 0.500000 0.000000
#
# Coordination Sequence:
#
# PCOD9540534 Si02
#       4
#    16  16  16  16
#     4  11  24  42  64  92 125 160 203 253 303 362
#     4  11  24  42  64  92 125 160 203 253 303 362
#     4  11  23  41  63  90 123 160 204 252 302 360
#     4  11  23  41  63  90 123 160 204 252 302 360
#
# _framework density 22.221031
#
# number of rings (size 3 to 8) (size 9 to 14) (size 15 to 20)
#    0.000    1.000    0.000    9.000    0.000    7.000 
#    0.000    2.500    0.000    0.000    0.000    0.000 
#    0.000    0.000    0.000    0.000    0.000    0.000 
#
# Total GULP energy -179143.336327 kJ/mol
# GULP energy per Si atom -5598.229260 kJ/mol
# Density = 2.217045 g / cm^3
# Si number density = 22.221031 Si / 1000 Ang^3
#
#
#
# Elastic Constant Matrix: (Units=GPa)
#
#
# Indices 1 2 3 4 5 6 
#
# 1 68.0057 -15.5081 -2.9232 0.0000 0.0000 0.0000
# 2 -15.5081 106.9163 7.5205 0.0000 0.0000 0.0000
# 3 -2.9232 7.5205 73.4403 0.0000 0.0000 0.0000
# 4 0.0000 0.0000 0.0000 27.7988 0.0000 0.0000
# 5 0.0000 0.0000 0.0000 0.0000 -31.8512 0.0000
# 6 0.0000 0.0000 0.0000 0.0000 0.0000 -8.6966
#
#
#
# Elastic Compliance Matrix: (Units=1/GPa)
#
#
# Indices 1 2 3 4 5 6 
#
# 1 0.015218 0.002180 0.000382 0.000000 0.000000 0.000000
# 2 0.002180 0.009733 -0.000910 0.000000 0.000000 0.000000
# 3 0.000382 -0.000910 0.013725 0.000000 0.000000 0.000000
# 4 0.000000 0.000000 0.000000 0.035973 0.000000 0.000000
# 5 0.000000 0.000000 0.000000 0.000000 -0.031396 0.000000
# 6 0.000000 0.000000 0.000000 0.000000 0.000000 -0.114987
#
#
# Mechanical properties :
#
#
# Convention : Reuss Voigt Hill
#
# Bulk Modulus (GPa) = 23.81937 25.17121 24.49529
# Shear Modulus (GPa) = -81.90650 14.73506 -33.58572
#
# Velocity S-wave (km/s) = -6.07782 2.57789 -3.89194
# Velocity P-wave (km/s) = 6.20570 4.49588 3.02471
#
# Compressibility (1/GPa) = 0.04198264
#
# Stress axis : x y z
#
# Youngs Moduli (GPa) = 65.71027 102.73909 72.86024
#
# Poissons Ratio (x) = -0.22402 -0.02787
# Poissons Ratio (y) = -0.14328 0.06630
# Poissons Ratio (z) = -0.02513 0.09349
#
# Static dielectric constant tensor:
#      x y z
#    x 1.770030 0.000000 0.000000 
#    y 0.000000 1.847880 0.000000 
#    z 0.000000 0.000000 1.764690 
# 
# From -- ./inp_files/3628.got.cif
#   From: 2010.05.17/outbox.cif.g08.bks.cpg/sg74_2_cif.got.tgz:3628.got - 2010.06.03 17:57:02.
