data_PCOD9540687
_publ_section_title
;
Structure prediction by ZEFSAII (Michael W. Deem and Ramdas Pophale) SiO2 
 PCOD9540687
Probable space group: I M M A
;
_chemical_formula_sum "Si O2"
_cell_formula_units_Z 88
_cell_length_a 7.250994
_cell_length_b 19.304012
_cell_length_c 30.276337
_cell_angle_alpha 90.000000
_cell_angle_beta 90.000000
_cell_angle_gamma 90.000000
_cell_volume 4237.878051
_symmetry_space_group_name_H-M "I M M A"
_symmetry_group_IT_number 74
_symmetry_cell_setting 'orthorhombic'
loop_
_space_group_symop_operation_xyz
x,y,z
-x,1/2-y,z
x,-y,-z
-x,1/2+y,-z
-x,-y,-z
x,1/2+y,-z
-x,y,z
x,1/2-y,z
1/2+x,1/2+y,1/2+z
1/2-x,-y,1/2+z
1/2+x,1/2-y,1/2-z
1/2-x,y,1/2-z
1/2-x,1/2-y,1/2-z
1/2+x,y,1/2-z
1/2-x,1/2+y,1/2+z
1/2+x,-y,1/2+z
loop_
_atom_site_type_symbol
_atom_site_label
_atom_site_fract_x
_atom_site_fract_y
_atom_site_fract_z
Si Si1 0.275900 0.827447 0.496458
Si Si2 0.219611 0.097946 0.197585
Si Si3 0.275023 0.525701 0.363965
Si Si4 0.280571 0.750000 0.696996
Si Si5 0.724175 0.828801 0.394676
Si Si6 0.723944 0.040767 0.456169
O O1 0.500000 0.828842 0.495866
O O2 0.216483 0.750000 0.506002
O O3 0.222390 0.844026 0.445784
O O4 0.217212 0.881418 0.533320
O O5 0.250000 0.092655 0.250000
O O6 0.287477 0.029092 0.172892
O O7 0.289486 0.174137 0.182051
O O8 0.000000 0.099819 0.190146
O O9 0.500000 0.527135 0.362589
O O10 0.217066 0.606390 0.364588
O O11 0.216900 0.493211 0.410846
O O12 0.500000 0.750000 0.688795
O O13 0.250000 0.750000 0.750000
O O14 0.500000 0.827700 0.394145
O O15 0.783403 0.750000 0.383806
O O16 0.500000 0.038736 0.454833
O O17 0.779834 0.000000 0.500000
#
# Coordination Sequence:
#
# PCOD9540687 Si02
#       6
#    16  16  16   8  16  16
#     4   8  12  17  24  36  58  91 125 150 176 217
#     4   9  17  29  44  60  79 102 130 163 196 231
#     4   9  15  22  33  50  71  97 127 157 191 230
#     4   8  14  26  42  58  76 100 128 158 192 230
#     4   8  12  18  29  44  64  93 128 157 181 222
#     4   9  13  18  27  41  65  95 122 149 183 224
#
# _framework density 20.76511
#
# number of rings (size 3 to 8) (size 9 to 14) (size 15 to 20)
#    0.000    3.455    1.818    1.091    0.000    0.000 
#    1.636    0.000    0.000    0.545    0.000    0.000 
#    0.000    0.727    0.000    0.000    0.000    4.182 
#
# Total GULP energy -245148.686935 kJ/mol
# GULP energy per Si atom -5571.561067 kJ/mol
# Density = 2.071785 g / cm^3
# Si number density = 20.765110 Si / 1000 Ang^3
#
#
#
# Elastic Constant Matrix: (Units=GPa)
#
#
# Indices 1 2 3 4 5 6 
#
# 1 94.1278 5.3166 -1.9199 0.0000 0.0000 0.0000
# 2 5.3166 223.1361 73.7059 0.0000 0.0000 0.0000
# 3 -1.9199 73.7059 62.2822 0.0000 0.0000 0.0000
# 4 0.0000 0.0000 0.0000 19.1217 0.0000 0.0000
# 5 0.0000 0.0000 0.0000 0.0000 -89.4554 0.0000
# 6 0.0000 0.0000 0.0000 0.0000 0.0000 -12.7984
#
#
#
# Elastic Compliance Matrix: (Units=1/GPa)
#
#
# Indices 1 2 3 4 5 6 
#
# 1 0.010679 -0.000596 0.001035 0.000000 0.000000 0.000000
# 2 -0.000596 0.007391 -0.008765 0.000000 0.000000 0.000000
# 3 0.001035 -0.008765 0.026461 0.000000 0.000000 0.000000
# 4 0.000000 0.000000 0.000000 0.052297 0.000000 0.000000
# 5 0.000000 0.000000 0.000000 0.000000 -0.011179 0.000000
# 6 0.000000 0.000000 0.000000 0.000000 0.000000 -0.078134
#
#
# Mechanical properties :
#
#
# Convention : Reuss Voigt Hill
#
# Bulk Modulus (GPa) = 35.87163 59.30569 47.58866
# Shear Modulus (GPa) = 149.43666 3.53647 76.48656
#
# Velocity S-wave (km/s) = 8.49244 1.30644 6.07570
# Velocity P-wave (km/s) = 10.65244 5.55859 8.49625
#
# Compressibility (1/GPa) = 0.02787718
#
# Stress axis : x y z
#
# Youngs Moduli (GPa) = 93.64490 135.29905 37.79209
#
# Poissons Ratio (x) = 0.08067 -0.03911
# Poissons Ratio (y) = 0.05583 0.33125
# Poissons Ratio (z) = -0.09690 1.18590
#
# Static dielectric constant tensor:
#      x y z
#    x 1.918590 0.000000 0.000000 
#    y 0.000000 1.804720 0.000000 
#    z 0.000000 0.000000 1.679290 
# 
# From -- ./inp_files/71965.got.cif
#   From: 2010.05.17/outbox.cif.g08.bks.cpg/sg74_36_cif.got.tgz:71965.got - 2010.06.03 17:57:02.
