data_PCOD9540824
_publ_section_title
;
Structure prediction by ZEFSAII (Michael W. Deem and Ramdas Pophale) SiO2 
 PCOD9540824
Probable space group: I M M A
;
_chemical_formula_sum "Si O2"
_cell_formula_units_Z 44
_cell_length_a 9.000000
_cell_length_b 30.000000
_cell_length_c 18.000000
_cell_angle_alpha 90.000000
_cell_angle_beta 90.000000
_cell_angle_gamma 90.000000
_cell_volume 4860.000000
_symmetry_space_group_name_H-M "I M M A"
_symmetry_group_IT_number 74
_symmetry_cell_setting 'orthorhombic'
loop_
_space_group_symop_operation_xyz
x,y,z
-x,1/2-y,z
x,-y,-z
-x,1/2+y,-z
-x,-y,-z
x,1/2+y,-z
-x,y,z
x,1/2-y,z
1/2+x,1/2+y,1/2+z
1/2-x,-y,1/2+z
1/2+x,1/2-y,1/2-z
1/2-x,y,1/2-z
1/2-x,1/2-y,1/2-z
1/2+x,y,1/2-z
1/2-x,1/2+y,1/2+z
1/2+x,-y,1/2+z
loop_
_atom_site_type_symbol
_atom_site_label
_atom_site_fract_x
_atom_site_fract_y
_atom_site_fract_z
Si Si1 0.323409 0.250000 0.170614
Si Si2 0.173914 0.371452 0.558200
Si Si3 0.825753 0.655748 0.613440
Si Si4 0.322067 0.698777 0.331261
Si Si5 0.829948 0.947987 0.987180
Si Si6 0.324352 0.425267 0.324079
O O1 0.500000 0.250000 0.180742
O O2 0.250000 0.250000 0.250000
O O3 0.284191 0.206308 0.125910
O O4 0.191279 0.354839 0.473264
O O5 0.257369 0.338061 0.613125
O O6 0.241919 0.420844 0.549655
O O7 0.000000 0.372631 0.576938
O O8 0.722756 0.625971 0.665602
O O9 0.000000 0.647952 0.632733
O O10 0.500000 0.694712 0.326250
O O11 0.287433 0.750000 0.355217
O O12 0.250000 0.692827 0.250000
O O13 0.768160 0.943352 0.903432
O O14 0.000000 0.930316 0.986474
O O15 0.833749 0.000000 0.000000
O O16 0.500000 0.431197 0.319277
O O17 0.250000 0.443741 0.250000
#
# Coordination Sequence:
#
# PCOD9540824 Si02
#       6
#     8  16  16  16  16  16
#     4  10  20  32  44  64  95 132 169 206 245 288
#     4  10  20  34  56  82 108 140 177 223 274 327
#     4   9  19  33  49  70  99 135 174 210 251 299
#     4  10  21  37  57  82 112 147 187 231 277 332
#     4   9  19  37  58  78 105 142 181 225 277 330
#     4  10  19  32  52  75 100 130 169 212 259 312
#
# _framework density 9.0534979999999994
#
# number of rings (size 3 to 8) (size 9 to 14) (size 15 to 20)
#    0.000    2.364    0.000    2.182    1.273    5.091 
#    0.000    0.909    0.000    2.182    0.000    0.000 
#    0.000    0.000    0.000    0.000    0.000    0.000 
#
# Total GULP energy -245088.993801 kJ/mol
# GULP energy per Si atom -5570.204405 kJ/mol
# Density = 0.903289 g / cm^3
# Si number density = 9.053498 Si / 1000 Ang^3
#
#
#
# Elastic Constant Matrix: (Units=GPa)
#
#
# Indices 1 2 3 4 5 6 
#
# 1 51.5579 27.5958 35.2465 0.0000 0.0000 0.0000
# 2 27.5958 71.2158 32.9356 0.0000 0.0000 0.0000
# 3 35.2465 32.9356 67.7016 0.0003 0.0001 0.0000
# 4 0.0000 0.0000 0.0003 6.3541 0.0000 0.0000
# 5 0.0000 0.0000 0.0001 0.0000 31.5493 0.0000
# 6 0.0000 0.0000 0.0000 0.0000 0.0000 18.6647
#
#
#
# Elastic Compliance Matrix: (Units=1/GPa)
#
#
# Indices 1 2 3 4 5 6 
#
# 1 0.032021 -0.006062 -0.013721 0.000001 0.000000 0.000000
# 2 -0.006062 0.019266 -0.006216 0.000000 0.000000 0.000000
# 3 -0.013721 -0.006216 0.024938 -0.000001 0.000000 0.000000
# 4 0.000001 0.000000 -0.000001 0.157378 0.000000 0.000000
# 5 0.000000 0.000000 0.000000 0.000000 0.031696 0.000000
# 6 0.000000 0.000000 0.000000 0.000000 0.000000 0.053577
#
#
# Mechanical properties :
#
#
# Convention : Reuss Voigt Hill
#
# Bulk Modulus (GPa) = 41.27944 42.44790 41.86367
# Shear Modulus (GPa) = 13.19430 17.62678 15.41054
#
# Velocity S-wave (km/s) = 2.70235 3.12345 2.92050
# Velocity P-wave (km/s) = 5.70823 6.04166 5.87731
#
# Compressibility (1/GPa) = 0.02422514
#
# Stress axis : x y z
#
# Youngs Moduli (GPa) = 31.22982 51.90540 40.09871
#
# Poissons Ratio (x) = 0.31465 0.55021
# Poissons Ratio (y) = 0.18932 0.24927
# Poissons Ratio (z) = 0.42852 0.32267
#
# Static dielectric constant tensor:
#      x y z
#    x 1.696870 0.000000 0.000000 
#    y 0.000000 1.663230 0.000000 
#    z 0.000000 0.000000 1.602900 
# 
# From -- ./inp_files/40059.got.cif
#   From: 2010.05.17/outbox.ucp.g08.bks.cvg/sg74_21_cif.got.tgz:40059.got - 2010.06.11 16:37:44.
