data_PCOD9540713
_publ_section_title
;
Structure prediction by ZEFSAII (Michael W. Deem and Ramdas Pophale) SiO2 
 PCOD9540713
Probable space group: I M M A
;
_chemical_formula_sum "Si O2"
_cell_formula_units_Z 80
_cell_length_a 28.772608
_cell_length_b 14.779839
_cell_length_c 7.139695
_cell_angle_alpha 90.000000
_cell_angle_beta 90.000000
_cell_angle_gamma 90.000000
_cell_volume 3036.187526
_symmetry_space_group_name_H-M "I M M A"
_symmetry_group_IT_number 74
_symmetry_cell_setting 'orthorhombic'
loop_
_space_group_symop_operation_xyz
x,y,z
-x,1/2-y,z
x,-y,-z
-x,1/2+y,-z
-x,-y,-z
x,1/2+y,-z
-x,y,z
x,1/2-y,z
1/2+x,1/2+y,1/2+z
1/2-x,-y,1/2+z
1/2+x,1/2-y,1/2-z
1/2-x,y,1/2-z
1/2-x,1/2-y,1/2-z
1/2+x,y,1/2-z
1/2-x,1/2+y,1/2+z
1/2+x,-y,1/2+z
loop_
_atom_site_type_symbol
_atom_site_label
_atom_site_fract_x
_atom_site_fract_y
_atom_site_fract_z
Si Si1 0.647770 0.608868 0.542942
Si Si2 0.347604 0.607048 0.986929
Si Si3 0.747822 0.609188 0.527347
Si Si4 0.549226 0.896841 0.567216
Si Si5 0.449772 0.357476 0.996209
O O1 0.646837 0.500000 0.500000
O O2 0.649520 0.628147 0.765885
O O3 0.696997 0.642087 0.464429
O O4 0.596878 0.644616 0.490820
O O5 0.297158 0.642783 0.051835
O O6 0.397661 0.625724 0.079624
O O7 0.343191 0.500000 0.000000
O O8 0.746535 0.500000 0.500000
O O9 0.750000 0.625629 0.750000
O O10 0.500000 0.853357 0.515795
O O11 0.551282 0.897525 0.793325
O O12 0.548350 0.000000 0.500000
O O13 0.500000 0.388273 0.911754
O O14 0.452370 0.250000 0.014464
#
# Coordination Sequence:
#
# PCOD9540713 Si02
#       5
#    16  16  16  16  16
#     4   8  13  22  37  57  82 107 132 165 208 250
#     4   9  16  25  39  60  82 103 138 179 206 235
#     4   8  13  21  34  53  79 105 131 165 205 245
#     4   8  13  22  38  59  79 101 134 172 200 231
#     4   9  17  28  41  59  85 114 139 167 211 261
#
# _framework density 26.348832000000002
#
# number of rings (size 3 to 8) (size 9 to 14) (size 15 to 20)
#    0.000    3.600    0.000    0.000    0.000    0.400 
#    0.000    0.000    0.000   15.000    0.000   22.400 
#    0.000  124.800    0.000    0.000    0.000   10.000 
#
# Total GULP energy -222872.341327 kJ/mol
# GULP energy per Si atom -5571.808533 kJ/mol
# Density = 2.628886 g / cm^3
# Si number density = 26.348832 Si / 1000 Ang^3
#
#
#
# Elastic Constant Matrix: (Units=GPa)
#
#
# Indices 1 2 3 4 5 6 
#
# 1 436.2273 16.4033 12.4799 0.0000 0.0000 0.0000
# 2 16.4033 80.7762 -25.1670 0.0000 0.0000 0.0000
# 3 12.4799 -25.1670 116.7388 0.0000 0.0000 0.0000
# 4 0.0000 0.0000 0.0000 1114.1185 0.0000 0.0000
# 5 0.0000 0.0000 0.0000 0.0000 -12.1963 0.0000
# 6 0.0000 0.0000 0.0000 0.0000 0.0000 40.2102
#
#
#
# Elastic Compliance Matrix: (Units=1/GPa)
#
#
# Indices 1 2 3 4 5 6 
#
# 1 0.002325 -0.000589 -0.000376 0.000000 0.000000 0.000000
# 2 -0.000589 0.013421 0.002956 0.000000 0.000000 0.000000
# 3 -0.000376 0.002956 0.009244 0.000000 0.000000 0.000000
# 4 0.000000 0.000000 0.000000 0.000898 0.000000 0.000000
# 5 0.000000 0.000000 0.000000 0.000000 -0.081992 0.000000
# 6 0.000000 0.000000 0.000000 0.000000 0.000000 0.024869
#
#
# Mechanical properties :
#
#
# Convention : Reuss Voigt Hill
#
# Bulk Modulus (GPa) = 34.51569 71.24162 52.87866
# Shear Modulus (GPa) = -195.60798 270.42822 37.41012
#
# Velocity S-wave (km/s) = -8.62548 10.14183 3.77211
# Velocity P-wave (km/s) = 9.27743 12.81557 6.25172
#
# Compressibility (1/GPa) = 0.02897233
#
# Stress axis : x y z
#
# Youngs Moduli (GPa) = 430.05481 74.51231 108.18290
#
# Poissons Ratio (x) = 0.04390 0.04063
# Poissons Ratio (y) = 0.25340 -0.31982
# Poissons Ratio (z) = 0.16153 -0.22028
#
# Static dielectric constant tensor:
#      x y z
#    x 2.219150 0.000000 0.000000 
#    y 0.000000 1.944850 0.000000 
#    z 0.000000 0.000000 1.950960 
# 
# From -- ./inp_files/16033.got.cif
#   From: 2010.05.17/outbox.cif.g08.bks.cpg/sg74_9_cif.got.tgz:16033.got - 2010.06.03 17:57:02.
