data_PCOD9540325
_publ_section_title
;
Structure prediction by ZEFSAII (Michael W. Deem and Ramdas Pophale) SiO2 
 PCOD9540325
Probable space group: I M M A
;
_chemical_formula_sum "Si O2"
_cell_formula_units_Z 64
_cell_length_a 8.561162
_cell_length_b 21.680034
_cell_length_c 18.768800
_cell_angle_alpha 90.000000
_cell_angle_beta 90.000000
_cell_angle_gamma 90.000000
_cell_volume 3483.607209
_symmetry_space_group_name_H-M "I M M A"
_symmetry_group_IT_number 74
_symmetry_cell_setting 'orthorhombic'
loop_
_space_group_symop_operation_xyz
x,y,z
-x,1/2-y,z
x,-y,-z
-x,1/2+y,-z
-x,-y,-z
x,1/2+y,-z
-x,y,z
x,1/2-y,z
1/2+x,1/2+y,1/2+z
1/2-x,-y,1/2+z
1/2+x,1/2-y,1/2-z
1/2-x,y,1/2-z
1/2-x,1/2-y,1/2-z
1/2+x,y,1/2-z
1/2-x,1/2+y,1/2+z
1/2+x,-y,1/2+z
loop_
_atom_site_type_symbol
_atom_site_label
_atom_site_fract_x
_atom_site_fract_y
_atom_site_fract_z
Si Si1 0.311389 0.631971 0.669361
Si Si2 0.812183 0.250000 0.915029
Si Si3 0.814018 0.367725 0.669054
Si Si4 0.187401 0.503786 0.168921
Si Si5 0.309325 0.750000 0.579474
O O1 0.500000 0.633542 0.672605
O O2 0.250000 0.638399 0.750000
O O3 0.268475 0.563868 0.639881
O O4 0.257301 0.688652 0.621043
O O5 0.750048 0.310644 0.875605
O O6 0.000000 0.250000 0.912155
O O7 0.761534 0.250000 0.997403
O O8 0.750000 0.363030 0.750000
O O9 0.757892 0.433591 0.637682
O O10 0.000000 0.366426 0.671841
O O11 0.250000 0.502338 0.250000
O O12 0.000000 0.509125 0.169144
O O13 0.500000 0.750000 0.580536
#
# Coordination Sequence:
#
# PCOD9540325 Si02
#       5
#    16   8  16  16   8
#     4   9  17  31  53  80 106 134 170 210 251 297
#     4  11  22  37  54  72 100 137 174 211 252 298
#     4  11  21  35  55  78 103 130 166 209 254 305
#     4   9  16  28  49  77 105 131 164 206 251 297
#     4   9  19  35  53  74 103 139 176 211 248 296
#
# _framework density 18.371762
#
# number of rings (size 3 to 8) (size 9 to 14) (size 15 to 20)
#    0.000    2.250    0.000    5.625    0.000    1.000 
#    0.000    3.750    0.000    7.500    0.000    0.000 
#    0.000    0.000    0.000    0.000    0.000    0.000 
#
# Total GULP energy -178462.596365 kJ/mol
# GULP energy per Si atom -5576.956136 kJ/mol
# Density = 1.832995 g / cm^3
# Si number density = 18.371762 Si / 1000 Ang^3
#
#
#
# Elastic Constant Matrix: (Units=GPa)
#
#
# Indices 1 2 3 4 5 6 
#
# 1 78.3739 57.0655 27.3617 0.0000 0.0000 0.0000
# 2 57.0655 238.2715 88.2655 0.0000 0.0000 0.0000
# 3 27.3617 88.2655 81.1314 0.0000 0.0000 0.0000
# 4 0.0000 0.0000 0.0000 -2.6297 0.0000 0.0000
# 5 0.0000 0.0000 0.0000 0.0000 16.5942 0.0000
# 6 0.0000 0.0000 0.0000 0.0000 0.0000 6.1781
#
#
#
# Elastic Compliance Matrix: (Units=1/GPa)
#
#
# Indices 1 2 3 4 5 6 
#
# 1 0.015648 -0.003003 -0.002010 0.000000 0.000000 0.000000
# 2 -0.003003 0.007606 -0.007263 0.000000 0.000000 0.000000
# 3 -0.002010 -0.007263 0.020905 0.000000 0.000000 0.000000
# 4 0.000000 0.000000 0.000000 -0.380278 0.000000 0.000000
# 5 0.000000 0.000000 0.000000 0.000000 0.060262 0.000000
# 6 0.000000 0.000000 0.000000 0.000000 0.000000 0.161861
#
#
# Mechanical properties :
#
#
# Convention : Reuss Voigt Hill
#
# Bulk Modulus (GPa) = 51.00093 82.57357 66.78725
# Shear Modulus (GPa) = -60.30707 19.03414 -20.63647
#
# Velocity S-wave (km/s) = -5.73561 3.22227 -3.35516
# Velocity P-wave (km/s) = 4.00527 7.67382 4.62846
#
# Compressibility (1/GPa) = 0.01960749
#
# Stress axis : x y z
#
# Youngs Moduli (GPa) = 63.90747 131.46788 47.83597
#
# Poissons Ratio (x) = 0.39479 0.09616
# Poissons Ratio (y) = 0.19191 0.34741
# Poissons Ratio (z) = 0.12847 0.95479
#
# Static dielectric constant tensor:
#      x y z
#    x 1.620810 0.000000 0.000000 
#    y 0.000000 1.679500 0.000000 
#    z 0.000000 0.000000 1.575310 
# 
# From -- ./inp_files/39135.got.cif
#   From: 2010.05.17/outbox.cif.g08.bks.cpg/sg74_20_cif.got.tgz:39135.got - 2010.06.03 17:57:02.
