data_PCOD9540920
_publ_section_title
;
Structure prediction by ZEFSAII (Michael W. Deem and Ramdas Pophale) SiO2 
 PCOD9540920
Probable space group: I M M A
;
_chemical_formula_sum "Si O2"
_cell_formula_units_Z 52
_cell_length_a 21.000000
_cell_length_b 27.000000
_cell_length_c 9.000000
_cell_angle_alpha 90.000000
_cell_angle_beta 90.000000
_cell_angle_gamma 90.000000
_cell_volume 5103.000000
_symmetry_space_group_name_H-M "I M M A"
_symmetry_group_IT_number 74
_symmetry_cell_setting 'orthorhombic'
loop_
_space_group_symop_operation_xyz
x,y,z
-x,1/2-y,z
x,-y,-z
-x,1/2+y,-z
-x,-y,-z
x,1/2+y,-z
-x,y,z
x,1/2-y,z
1/2+x,1/2+y,1/2+z
1/2-x,-y,1/2+z
1/2+x,1/2-y,1/2-z
1/2-x,y,1/2-z
1/2-x,1/2-y,1/2-z
1/2+x,y,1/2-z
1/2-x,1/2+y,1/2+z
1/2+x,-y,1/2+z
loop_
_atom_site_type_symbol
_atom_site_label
_atom_site_fract_x
_atom_site_fract_y
_atom_site_fract_z
Si Si1 0.740624 0.552513 0.424305
Si Si2 0.122718 0.806679 0.962438
Si Si3 0.105740 0.195258 0.392537
Si Si4 0.738578 0.651264 0.923656
Si Si5 0.500000 0.050316 0.796986
Si Si6 0.500000 0.878234 0.946381
Si Si7 0.096256 0.087510 0.936622
Si Si8 0.000000 0.943148 0.823332
O O1 0.754910 0.500000 0.500000
O O2 0.750000 0.547789 0.250000
O O3 0.776520 0.600061 0.492159
O O4 0.667827 0.569109 0.447211
O O5 0.110623 0.750000 0.011620
O O6 0.104592 0.809328 0.787459
O O7 0.197757 0.820449 0.974914
O O8 0.090055 0.853243 0.042610
O O9 0.083694 0.250000 0.430937
O O10 0.178556 0.186814 0.435578
O O11 0.061874 0.154858 0.468662
O O12 0.750000 0.638763 0.750000
O O13 0.438296 0.071313 0.712478
O O14 0.500000 0.992195 0.772837
O O15 0.500000 0.072720 0.958003
O O16 0.500000 0.895131 0.777069
O O17 0.059987 0.059987 0.069368
#
# Coordination Sequence:
#
# PCOD9540920 Si02
#       8
#    16  16  16  16   8   8  16   8
#     4  11  23  39  61  91 125 161 199 246 304 354
#     4   9  17  34  64  92 113 149 203 250 291 352
#     4  10  20  37  60  87 121 156 195 250 307 352
#     4   9  19  36  60  88 120 154 199 246 298 364
#     4  11  25  40  60  83 124 157 202 246 313 347
#     4  12  24  38  59  92 119 153 204 256 298 358
#     4  10  21  42  64  87 119 157 204 248 294 362
#     4  11  21  44  65  87 109 166 208 251 288 351
#
# _framework density 10.190084000000001
#
# number of rings (size 3 to 8) (size 9 to 14) (size 15 to 20)
#    0.000    1.846    1.538    3.231    2.154    1.846 
#    2.769    3.077    0.000    2.308    0.000    0.000 
#    0.000    0.000    0.000    0.000    0.000    0.000 
#
# Total GULP energy -290143.651794 kJ/mol
# GULP energy per Si atom -5579.685611 kJ/mol
# Density = 1.016689 g / cm^3
# Si number density = 10.190084 Si / 1000 Ang^3
#
#
#
# Elastic Constant Matrix: (Units=GPa)
#
#
# Indices 1 2 3 4 5 6 
#
# 1 43.2775 23.0669 14.1592 0.0000 0.0000 0.0000
# 2 23.0669 149.2807 34.6119 0.0000 0.0000 0.0000
# 3 14.1592 34.6119 48.8335 0.0000 0.0000 0.0000
# 4 0.0000 0.0000 0.0000 124.0354 0.0000 0.0000
# 5 0.0000 0.0000 0.0000 0.0000 -6.2420 0.0000
# 6 0.0000 0.0000 0.0000 0.0000 0.0000 6.7624
#
#
#
# Elastic Compliance Matrix: (Units=1/GPa)
#
#
# Indices 1 2 3 4 5 6 
#
# 1 0.026447 -0.002763 -0.005710 0.000000 0.000000 0.000000
# 2 -0.002763 0.008305 -0.005085 0.000000 0.000000 0.000000
# 3 -0.005710 -0.005085 0.025738 0.000000 0.000000 0.000000
# 4 0.000000 0.000000 0.000000 0.008062 0.000000 0.000000
# 5 0.000000 0.000000 0.000000 0.000000 -0.160205 0.000000
# 6 0.000000 0.000000 0.000000 0.000000 0.000000 0.147875
#
#
# Mechanical properties :
#
#
# Convention : Reuss Voigt Hill
#
# Bulk Modulus (GPa) = 29.96378 42.78529 36.37453
# Shear Modulus (GPa) = 52.93076 36.21474 44.57275
#
# Velocity S-wave (km/s) = 5.10177 4.21997 4.68168
# Velocity P-wave (km/s) = 7.03125 6.69204 6.86374
#
# Compressibility (1/GPa) = 0.03337363
#
# Stress axis : x y z
#
# Youngs Moduli (GPa) = 37.81079 120.41356 38.85357
#
# Poissons Ratio (x) = 0.33267 0.22186
# Poissons Ratio (y) = 0.10446 0.19758
# Poissons Ratio (z) = 0.21591 0.61232
#
# Static dielectric constant tensor:
#      x y z
#    x 1.733800 0.000000 0.000000 
#    y 0.000000 1.706130 0.000000 
#    z 0.000000 0.000000 1.708640 
# 
# From -- ./inp_files/12825.got.cif
#   From: 2010.05.17/outbox.ucp.g08.bks.cvg/sg74_7_cif.got.tgz:12825.got - 2010.06.11 16:37:44.
