data_PCOD9540730
_publ_section_title
;
Structure prediction by ZEFSAII (Michael W. Deem and Ramdas Pophale) SiO2 
 PCOD9540730
Probable space group: I M M A
;
_chemical_formula_sum "Si O2"
_cell_formula_units_Z 88
_cell_length_a 7.309341
_cell_length_b 19.662618
_cell_length_c 25.155424
_cell_angle_alpha 90.000000
_cell_angle_beta 90.000000
_cell_angle_gamma 90.000000
_cell_volume 3615.357156
_symmetry_space_group_name_H-M "I M M A"
_symmetry_group_IT_number 74
_symmetry_cell_setting 'orthorhombic'
loop_
_space_group_symop_operation_xyz
x,y,z
-x,1/2-y,z
x,-y,-z
-x,1/2+y,-z
-x,-y,-z
x,1/2+y,-z
-x,y,z
x,1/2-y,z
1/2+x,1/2+y,1/2+z
1/2-x,-y,1/2+z
1/2+x,1/2-y,1/2-z
1/2-x,y,1/2-z
1/2-x,1/2-y,1/2-z
1/2+x,y,1/2-z
1/2-x,1/2+y,1/2+z
1/2+x,-y,1/2+z
loop_
_atom_site_type_symbol
_atom_site_label
_atom_site_fract_x
_atom_site_fract_y
_atom_site_fract_z
Si Si1 0.782436 0.750000 0.686425
Si Si2 0.782106 0.101337 0.312050
Si Si3 0.777054 0.112406 0.580338
Si Si4 0.781801 0.672156 0.308815
Si Si5 0.222646 0.037437 0.415866
Si Si6 0.722613 0.324295 0.027227
O O1 0.750000 0.750000 0.750000
O O2 0.710309 0.823964 0.670602
O O3 0.000000 0.750000 0.674870
O O4 0.750000 0.088714 0.250000
O O5 0.723349 0.045302 0.353998
O O6 0.000000 0.105926 0.317422
O O7 0.714566 0.132812 0.639211
O O8 0.727126 0.165290 0.534500
O O9 0.000000 0.111322 0.581106
O O10 0.717653 0.036279 0.564575
O O11 0.711500 0.750000 0.308807
O O12 0.750000 0.642331 0.250000
O O13 0.000000 0.675719 0.314642
O O14 0.283714 0.106831 0.443831
O O15 0.000000 0.037214 0.420317
O O16 0.500000 0.324022 0.031184
O O17 0.782945 0.250000 0.047096
#
# Coordination Sequence:
#
# PCOD9540730 Si02
#       6
#     8  16  16  16  16  16
#     4   8  14  24  38  54  76 106 140 174 207 244
#     4   9  17  28  42  61  86 116 147 179 217 258
#     4   9  16  27  41  60  88 119 147 180 225 271
#     4   9  17  29  46  68  94 122 153 187 222 264
#     4   9  17  26  39  60  87 116 147 185 225 267
#     4   9  16  25  40  61  85 114 147 184 227 271
#
# _framework density 24.340610000000002
#
# number of rings (size 3 to 8) (size 9 to 14) (size 15 to 20)
#    0.000    3.091    0.000    1.091    1.273    5.091 
#    0.000    0.000    0.000    0.000    0.000    1.273 
#    0.000    4.364    0.000    0.000    0.000    0.000 
#
# Total GULP energy -245589.809249 kJ/mol
# GULP energy per Si atom -5581.586574 kJ/mol
# Density = 2.428521 g / cm^3
# Si number density = 24.340610 Si / 1000 Ang^3
#
#
#
# Elastic Constant Matrix: (Units=GPa)
#
#
# Indices 1 2 3 4 5 6 
#
# 1 97.2681 0.0954 -7.2890 0.0000 0.0000 0.0000
# 2 0.0954 120.4472 43.9364 0.0000 0.0000 0.0000
# 3 -7.2890 43.9364 103.3699 0.0000 0.0000 0.0000
# 4 0.0000 0.0000 0.0000 38.6088 0.0000 0.0000
# 5 0.0000 0.0000 0.0000 0.0000 7.0766 0.0000
# 6 0.0000 0.0000 0.0000 0.0000 0.0000 -5.5968
#
#
#
# Elastic Compliance Matrix: (Units=1/GPa)
#
#
# Indices 1 2 3 4 5 6 
#
# 1 0.010346 -0.000325 0.000868 0.000000 0.000000 0.000000
# 2 -0.000325 0.009836 -0.004204 0.000000 0.000000 0.000000
# 3 0.000868 -0.004204 0.011522 0.000000 0.000000 0.000000
# 4 0.000000 0.000000 0.000000 0.025901 0.000000 0.000000
# 5 0.000000 0.000000 0.000000 0.000000 0.141311 0.000000
# 6 0.000000 0.000000 0.000000 0.000000 0.000000 -0.178674
#
#
# Mechanical properties :
#
#
# Convention : Reuss Voigt Hill
#
# Bulk Modulus (GPa) = 41.01274 43.84119 42.42697
# Shear Modulus (GPa) = 140.08911 26.97388 83.53149
#
# Velocity S-wave (km/s) = 7.59464 3.33255 5.86449
# Velocity P-wave (km/s) = 9.68457 5.73223 7.95768
#
# Compressibility (1/GPa) = 0.02438266
#
# Stress axis : x y z
#
# Youngs Moduli (GPa) = 96.65392 101.66703 86.79144
#
# Poissons Ratio (x) = 0.03301 -0.07530
# Poissons Ratio (y) = 0.03138 0.36484
# Poissons Ratio (z) = -0.08385 0.42737
#
# Static dielectric constant tensor:
#      x y z
#    x 1.968990 0.000000 0.000000 
#    y 0.000000 1.909200 0.000000 
#    z 0.000000 0.000000 1.933230 
# 
# From -- ./inp_files/41299.got.cif
#   From: 2010.05.17/outbox.cif.g08.bks.cpg/sg74_21_cif.got.tgz:41299.got - 2010.06.03 17:57:02.
