data_PCOD9540106
_publ_section_title
;
Structure prediction by ZEFSAII (Michael W. Deem and Ramdas Pophale) SiO2 
 PCOD9540106
Probable space group: I M M A
;
_chemical_formula_sum "Si O2"
_cell_formula_units_Z 104
_cell_length_a 9.513630
_cell_length_b 20.763043
_cell_length_c 26.476603
_cell_angle_alpha 90.000000
_cell_angle_beta 90.000000
_cell_angle_gamma 90.000000
_cell_volume 5229.973928
_symmetry_space_group_name_H-M "I M M A"
_symmetry_group_IT_number 74
_symmetry_cell_setting 'orthorhombic'
loop_
_space_group_symop_operation_xyz
x,y,z
-x,1/2-y,z
x,-y,-z
-x,1/2+y,-z
-x,-y,-z
x,1/2+y,-z
-x,y,z
x,1/2-y,z
1/2+x,1/2+y,1/2+z
1/2-x,-y,1/2+z
1/2+x,1/2-y,1/2-z
1/2-x,y,1/2-z
1/2-x,1/2-y,1/2-z
1/2+x,y,1/2-z
1/2-x,1/2+y,1/2+z
1/2+x,-y,1/2+z
loop_
_atom_site_type_symbol
_atom_site_label
_atom_site_fract_x
_atom_site_fract_y
_atom_site_fract_z
Si Si1 0.665362 0.750000 0.330806
Si Si2 0.832767 0.325203 0.300344
Si Si3 0.163619 0.583160 0.605542
Si Si4 0.773775 0.606638 0.181233
Si Si5 0.335301 0.872738 0.008035
Si Si6 0.665478 0.750000 0.452201
Si Si7 0.500000 0.573315 0.232840
Si Si8 0.662503 0.959223 0.420578
O O1 0.500000 0.750000 0.315969
O O2 0.734227 0.684021 0.311841
O O3 0.673205 0.750000 0.391467
O O4 0.799409 0.250000 0.310961
O O5 0.750000 0.344799 0.250000
O O6 0.800883 0.370423 0.347746
O O7 0.000000 0.329364 0.290906
O O8 0.170943 0.620410 0.552293
O O9 0.270456 0.524294 0.601198
O O10 0.000000 0.562142 0.611535
O O11 0.623708 0.575196 0.189915
O O12 0.880219 0.579562 0.222507
O O13 0.828961 0.592024 0.125201
O O14 0.500000 0.868648 0.022710
O O15 0.246864 0.811690 0.026448
O O16 0.260117 0.933371 0.034430
O O17 0.500000 0.750000 0.465956
O O18 0.500000 0.966802 0.435770
#
# Coordination Sequence:
#
# PCOD9540106 Si02
#       8
#     8  16  16  16  16   8   8  16
#     4  11  20  37  62  82 119 160 208 260 315 369
#     4   9  19  40  68  96 129 164 201 253 318 381
#     4  10  24  43  66  96 126 167 211 259 311 379
#     4  11  23  41  60  87 121 163 211 267 319 370
#     4  11  24  42  67  95 127 168 217 265 311 381
#     4  11  23  39  64  97 130 167 206 259 328 375
#     4  10  24  41  60  88 118 160 215 268 316 368
#     4  12  24  42  63  90 130 171 213 264 327 379
#
# _framework density 19.885376999999998
#
# number of rings (size 3 to 8) (size 9 to 14) (size 15 to 20)
#    0.000    1.385    3.077    1.615    3.231    5.846 
#    4.154    0.000    0.000    0.000    0.000    0.000 
#    0.000    0.000    0.000    0.000    0.000    0.000 
#
# Total GULP energy -289564.102141 kJ/mol
# GULP energy per Si atom -5568.540426 kJ/mol
# Density = 1.984012 g / cm^3
# Si number density = 19.885377 Si / 1000 Ang^3
#
#
#
# Elastic Constant Matrix: (Units=GPa)
#
#
# Indices 1 2 3 4 5 6 
#
# 1 164.4049 46.6426 52.2329 0.0000 0.0000 0.0000
# 2 46.6426 71.1052 41.3078 0.0000 0.0000 0.0000
# 3 52.2329 41.3078 110.5325 0.0000 0.0000 0.0000
# 4 0.0000 0.0000 0.0000 65.5240 0.0000 0.0000
# 5 0.0000 0.0000 0.0000 0.0000 34.7838 0.0000
# 6 0.0000 0.0000 0.0000 0.0000 0.0000 -1.4679
#
#
#
# Elastic Compliance Matrix: (Units=1/GPa)
#
#
# Indices 1 2 3 4 5 6 
#
# 1 0.007905 -0.003851 -0.002296 0.000000 0.000000 0.000000
# 2 -0.003851 0.019840 -0.005595 0.000000 0.000000 0.000000
# 3 -0.002296 -0.005595 0.012223 0.000000 0.000000 0.000000
# 4 0.000000 0.000000 0.000000 0.015262 0.000000 0.000000
# 5 0.000000 0.000000 0.000000 0.000000 0.028749 0.000000
# 6 0.000000 0.000000 0.000000 0.000000 0.000000 -0.681241
#
#
# Mechanical properties :
#
#
# Convention : Reuss Voigt Hill
#
# Bulk Modulus (GPa) = 60.66598 69.60098 65.13348
# Shear Modulus (GPa) = -8.79842 33.49194 12.34676
#
# Velocity S-wave (km/s) = -2.10575 4.10841 2.49448
# Velocity P-wave (km/s) = 4.96607 7.58831 6.41266
#
# Compressibility (1/GPa) = 0.01648370
#
# Stress axis : x y z
#
# Youngs Moduli (GPa) = 126.50741 50.40289 81.81322
#
# Poissons Ratio (x) = 0.19412 0.18785
# Poissons Ratio (y) = 0.48722 0.45771
# Poissons Ratio (z) = 0.29048 0.28199
#
# Static dielectric constant tensor:
#      x y z
#    x 1.529490 0.000000 0.000000 
#    y 0.000000 1.737900 0.000000 
#    z 0.000000 0.000000 1.704080 
# 
# From -- ./inp_files/64567.got.cif
#   From: 2010.05.17/outbox.cif.g08.bks.cpg/sg74_33_cif.got.tgz:64567.got - 2010.06.03 17:57:02.
