data_PCOD9540651
_publ_section_title
;
Structure prediction by ZEFSAII (Michael W. Deem and Ramdas Pophale) SiO2 
 PCOD9540651
Probable space group: I M M A
;
_chemical_formula_sum "Si O2"
_cell_formula_units_Z 72
_cell_length_a 10.157031
_cell_length_b 17.009366
_cell_length_c 20.720180
_cell_angle_alpha 90.000000
_cell_angle_beta 90.000000
_cell_angle_gamma 90.000000
_cell_volume 3579.714806
_symmetry_space_group_name_H-M "I M M A"
_symmetry_group_IT_number 74
_symmetry_cell_setting 'orthorhombic'
loop_
_space_group_symop_operation_xyz
x,y,z
-x,1/2-y,z
x,-y,-z
-x,1/2+y,-z
-x,-y,-z
x,1/2+y,-z
-x,y,z
x,1/2-y,z
1/2+x,1/2+y,1/2+z
1/2-x,-y,1/2+z
1/2+x,1/2-y,1/2-z
1/2-x,y,1/2-z
1/2-x,1/2-y,1/2-z
1/2+x,y,1/2-z
1/2-x,1/2+y,1/2+z
1/2+x,-y,1/2+z
loop_
_atom_site_type_symbol
_atom_site_label
_atom_site_fract_x
_atom_site_fract_y
_atom_site_fract_z
Si Si1 0.356156 0.750000 0.804454
Si Si2 0.000000 0.564092 0.058141
Si Si3 0.000000 0.519483 0.341165
Si Si4 0.000000 0.978993 0.803718
Si Si5 0.248549 0.092654 0.357687
Si Si6 0.218960 0.343593 0.007922
Si Si7 0.000000 0.409664 0.528364
O O1 0.500000 0.750000 0.775815
O O2 0.250000 0.750000 0.750000
O O3 0.330621 0.827818 0.844417
O O4 0.000000 0.528768 0.130046
O O5 0.000000 0.500000 0.000000
O O6 0.127641 0.618420 0.046694
O O7 0.000000 0.526773 0.263423
O O8 0.864362 0.473044 0.357456
O O9 0.000000 0.588241 0.393696
O O10 0.133876 0.927363 0.808027
O O11 0.315980 0.110133 0.426193
O O12 0.199276 0.250000 0.013935
O O13 0.370099 0.365699 0.995378
O O14 0.000000 0.500000 0.500000
#
# Coordination Sequence:
#
# PCOD9540651 Si02
#       7
#     8   8   8   8  16  16   8
#     4  12  26  40  56  86 136 186 217 247 310 400
#     4  12  23  44  69  91 127 175 217 268 321 385
#     4  12  24  41  62  95 124 164 214 268 320 376
#     4  12  26  41  64  93 128 162 218 270 320 380
#     4  12  23  39  62  89 130 170 206 258 322 384
#     4  12  24  42  65  98 131 167 215 269 327 385
#     4  12  23  40  71  91 129 171 215 268 323 377
#
# _framework density 20.113333000000001
#
# number of rings (size 3 to 8) (size 9 to 14) (size 15 to 20)
#    0.000    0.000    6.667    4.667    1.556    0.000 
#    0.000    0.000    0.000    4.000    0.000    0.000 
#    0.000    0.000    0.000    0.000    0.000    0.000 
#
# Total GULP energy -201247.542691 kJ/mol
# GULP energy per Si atom -5590.209519 kJ/mol
# Density = 2.006755 g / cm^3
# Si number density = 20.113333 Si / 1000 Ang^3
#
#
#
# Elastic Constant Matrix: (Units=GPa)
#
#
# Indices 1 2 3 4 5 6 
#
# 1 114.5917 18.3192 0.5021 0.0000 0.0000 0.0000
# 2 18.3192 39.9757 26.9936 0.0000 0.0000 0.0000
# 3 0.5021 26.9936 120.8666 0.0000 0.0000 0.0000
# 4 0.0000 0.0000 0.0000 21.3518 0.0000 0.0000
# 5 0.0000 0.0000 0.0000 0.0000 32.7574 0.0000
# 6 0.0000 0.0000 0.0000 0.0000 0.0000 74.3691
#
#
#
# Elastic Compliance Matrix: (Units=1/GPa)
#
#
# Indices 1 2 3 4 5 6 
#
# 1 0.009540 -0.005116 0.001103 0.000000 0.000000 0.000000
# 2 -0.005116 0.032202 -0.007170 0.000000 0.000000 0.000000
# 3 0.001103 -0.007170 0.009870 0.000000 0.000000 0.000000
# 4 0.000000 0.000000 0.000000 0.046835 0.000000 0.000000
# 5 0.000000 0.000000 0.000000 0.000000 0.030527 0.000000
# 6 0.000000 0.000000 0.000000 0.000000 0.000000 0.013446
#
#
# Mechanical properties :
#
#
# Convention : Reuss Voigt Hill
#
# Bulk Modulus (GPa) = 34.19500 40.78485 37.48992
# Shear Modulus (GPa) = 28.64737 41.00360 34.82548
#
# Velocity S-wave (km/s) = 3.77808 4.52001 4.16560
# Velocity P-wave (km/s) = 6.00582 6.89654 6.46654
#
# Compressibility (1/GPa) = 0.02924404
#
# Stress axis : x y z
#
# Youngs Moduli (GPa) = 104.82456 31.05426 101.31293
#
# Poissons Ratio (x) = 0.15889 -0.11175
# Poissons Ratio (y) = 0.53633 0.72646
# Poissons Ratio (z) = -0.11563 0.22267
#
# Static dielectric constant tensor:
#      x y z
#    x 1.697600 0.000000 0.000000 
#    y 0.000000 1.791070 0.000000 
#    z 0.000000 0.000000 1.779640 
# 
# From -- ./inp_files/56751.got.cif
#   From: 2010.05.17/outbox.cif.g08.bks.cpg/sg74_29_cif.got.tgz:56751.got - 2010.06.03 17:57:02.
