data_PCOD9540513
_publ_section_title
;
Structure prediction by ZEFSAII (Michael W. Deem and Ramdas Pophale) SiO2 
 PCOD9540513
Probable space group: I M M A
;
_chemical_formula_sum "Si O2"
_cell_formula_units_Z 80
_cell_length_a 23.375314
_cell_length_b 15.183126
_cell_length_c 11.020551
_cell_angle_alpha 90.000000
_cell_angle_beta 90.000000
_cell_angle_gamma 90.000000
_cell_volume 3911.307478
_symmetry_space_group_name_H-M "I M M A"
_symmetry_group_IT_number 74
_symmetry_cell_setting 'orthorhombic'
loop_
_space_group_symop_operation_xyz
x,y,z
-x,1/2-y,z
x,-y,-z
-x,1/2+y,-z
-x,-y,-z
x,1/2+y,-z
-x,y,z
x,1/2-y,z
1/2+x,1/2+y,1/2+z
1/2-x,-y,1/2+z
1/2+x,1/2-y,1/2-z
1/2-x,y,1/2-z
1/2-x,1/2-y,1/2-z
1/2+x,y,1/2-z
1/2-x,1/2+y,1/2+z
1/2+x,-y,1/2+z
loop_
_atom_site_type_symbol
_atom_site_label
_atom_site_fract_x
_atom_site_fract_y
_atom_site_fract_z
Si Si1 0.792697 0.060640 0.884198
Si Si2 0.670128 0.644576 0.045731
Si Si3 0.294466 0.750000 0.367493
Si Si4 0.563274 0.458763 0.865214
Si Si5 0.850066 0.581689 0.730164
Si Si6 0.802948 0.250000 0.153927
O O1 0.728745 0.099389 0.907558
O O2 0.824396 0.154122 0.859426
O O3 0.692362 0.993116 0.721817
O O4 0.807431 0.000000 0.000000
O O5 0.670719 0.750000 0.052436
O O6 0.614135 0.610908 0.116228
O O7 0.664941 0.613242 0.905855
O O8 0.250000 0.750000 0.250000
O O9 0.281812 0.750000 0.515286
O O10 0.500000 0.427474 0.830117
O O11 0.588250 0.535412 0.778710
O O12 0.558826 0.500000 0.000000
O O13 0.840436 0.664519 0.816579
O O14 0.750000 0.250000 0.250000
#
# Coordination Sequence:
#
# PCOD9540513 Si02
#       6
#    16  16   8  16  16   8
#     4  12  25  38  59  93 138 180 219 278 348 422
#     4  11  23  38  63  94 133 177 228 283 341 422
#     4  12  28  40  58  97 140 179 231 277 339 425
#     4   9  21  41  64  93 128 170 222 284 350 402
#     4  11  24  39  66  93 132 182 227 277 346 423
#     4  12  24  40  65  99 139 181 233 276 337 420
#
# _framework density 20.453517999999999
#
# number of rings (size 3 to 8) (size 9 to 14) (size 15 to 20)
#    0.000    1.000    4.000    3.000    8.400    0.400 
#    0.000    0.500    0.000    0.600    0.000    0.000 
#    0.000    0.000    0.000    0.000    0.000    0.000 
#
# Total GULP energy -222988.110034 kJ/mol
# GULP energy per Si atom -5574.702751 kJ/mol
# Density = 2.040697 g / cm^3
# Si number density = 20.453518 Si / 1000 Ang^3
#
#
#
# Elastic Constant Matrix: (Units=GPa)
#
#
# Indices 1 2 3 4 5 6 
#
# 1 108.3093 47.6859 34.0058 0.0000 0.0000 0.0000
# 2 47.6859 201.9830 54.7793 0.0000 0.0000 0.0000
# 3 34.0058 54.7793 118.8604 0.0000 0.0000 0.0000
# 4 0.0000 0.0000 0.0000 55.5855 0.0000 0.0000
# 5 0.0000 0.0000 0.0000 0.0000 13.2785 0.0000
# 6 0.0000 0.0000 0.0000 0.0000 0.0000 12.0341
#
#
#
# Elastic Compliance Matrix: (Units=1/GPa)
#
#
# Indices 1 2 3 4 5 6 
#
# 1 0.010778 -0.001952 -0.002184 0.000000 0.000000 0.000000
# 2 -0.001952 0.006012 -0.002212 0.000000 0.000000 0.000000
# 3 -0.002184 -0.002212 0.010058 0.000000 0.000000 0.000000
# 4 0.000000 0.000000 0.000000 0.017990 0.000000 0.000000
# 5 0.000000 0.000000 0.000000 0.000000 0.075310 0.000000
# 6 0.000000 0.000000 0.000000 0.000000 0.000000 0.083098
#
#
# Mechanical properties :
#
#
# Convention : Reuss Voigt Hill
#
# Bulk Modulus (GPa) = 70.66711 78.01055 74.33883
# Shear Modulus (GPa) = 22.65945 35.69171 29.17558
#
# Velocity S-wave (km/s) = 3.33205 4.18187 3.78091
# Velocity P-wave (km/s) = 7.03054 7.84478 7.44880
#
# Compressibility (1/GPa) = 0.01415086
#
# Stress axis : x y z
#
# Youngs Moduli (GPa) = 92.78142 166.34042 99.42819
#
# Poissons Ratio (x) = 0.32475 0.21713
# Poissons Ratio (y) = 0.18114 0.21994
# Poissons Ratio (z) = 0.20262 0.36796
#
# Static dielectric constant tensor:
#      x y z
#    x 1.786920 0.000000 0.000000 
#    y 0.000000 1.808870 0.000000 
#    z 0.000000 0.000000 1.801690 
# 
# From -- ./inp_files/26117.got.cif
#   From: 2010.05.17/outbox.cif.g08.bks.cpg/sg74_14_cif.got.tgz:26117.got - 2010.06.03 17:57:02.
