data_PCOD9540533
_publ_section_title
;
Structure prediction by ZEFSAII (Michael W. Deem and Ramdas Pophale) SiO2 
 PCOD9540533
Probable space group: I M M A
;
_chemical_formula_sum "Si O2"
_cell_formula_units_Z 88
_cell_length_a 24.451470
_cell_length_b 16.142552
_cell_length_c 11.288782
_cell_angle_alpha 90.000000
_cell_angle_beta 90.000000
_cell_angle_gamma 90.000000
_cell_volume 4455.785276
_symmetry_space_group_name_H-M "I M M A"
_symmetry_group_IT_number 74
_symmetry_cell_setting 'orthorhombic'
loop_
_space_group_symop_operation_xyz
x,y,z
-x,1/2-y,z
x,-y,-z
-x,1/2+y,-z
-x,-y,-z
x,1/2+y,-z
-x,y,z
x,1/2-y,z
1/2+x,1/2+y,1/2+z
1/2-x,-y,1/2+z
1/2+x,1/2-y,1/2-z
1/2-x,y,1/2-z
1/2-x,1/2-y,1/2-z
1/2+x,y,1/2-z
1/2-x,1/2+y,1/2+z
1/2+x,-y,1/2+z
loop_
_atom_site_type_symbol
_atom_site_label
_atom_site_fract_x
_atom_site_fract_y
_atom_site_fract_z
Si Si1 0.661413 0.250000 0.229248
Si Si2 0.190095 0.500000 0.000000
Si Si3 0.754135 0.750000 0.943216
Si Si4 0.387903 0.579077 0.689427
Si Si5 0.000000 0.150262 0.519283
Si Si6 0.000000 0.850275 0.767790
Si Si7 0.390292 0.939100 0.111003
Si Si8 0.732875 0.114034 0.876262
O O1 0.693605 0.250000 0.108314
O O2 0.703624 0.250000 0.337706
O O3 0.632486 0.161192 0.239877
O O4 0.149111 0.440595 0.074931
O O5 0.233027 0.530107 0.101258
O O6 0.758373 0.829840 0.022678
O O7 0.448961 0.608875 0.666586
O O8 0.391040 0.497494 0.772377
O O9 0.000000 0.129494 0.375996
O O10 0.054588 0.113354 0.582933
O O11 0.000000 0.250000 0.526888
O O12 0.000000 0.750000 0.775508
O O13 0.332401 0.891297 0.115638
O O14 0.385629 0.000000 0.000000
O O15 0.750000 0.147596 0.750000
#
# Coordination Sequence:
#
# PCOD9540533 Si02
#       8
#     8   8   8  16   8   8  16  16
#     4  11  24  41  68 102 136 177 222 298 333 407
#     4  12  26  43  66 101 140 174 226 278 346 414
#     4  11  25  40  64 100 139 177 234 275 351 406
#     4  12  24  44  69  99 137 178 227 285 343 401
#     4  11  26  44  66 104 139 180 226 287 345 407
#     4  11  23  40  73 101 128 176 238 278 334 401
#     4  12  23  40  69 100 140 175 225 284 350 402
#     4  12  25  42  66  99 136 185 226 284 338 417
#
# _framework density 19.749604000000001
#
# number of rings (size 3 to 8) (size 9 to 14) (size 15 to 20)
#    0.000    0.364    7.273    2.182    1.273    0.364 
#    0.000    0.000    2.000    1.091    0.000    0.000 
#    0.000    0.000    0.000    0.000    0.000    0.000 
#
# Total GULP energy -245312.612782 kJ/mol
# GULP energy per Si atom -5575.286654 kJ/mol
# Density = 1.970465 g / cm^3
# Si number density = 19.749604 Si / 1000 Ang^3
#
#
#
# Elastic Constant Matrix: (Units=GPa)
#
#
# Indices 1 2 3 4 5 6 
#
# 1 145.4391 27.4768 28.3076 0.0000 0.0000 0.0000
# 2 27.4768 48.4455 10.5724 0.0000 0.0000 0.0000
# 3 28.3076 10.5724 61.7075 0.0000 0.0000 0.0000
# 4 0.0000 0.0000 0.0000 32.1441 0.0000 0.0000
# 5 0.0000 0.0000 0.0000 0.0000 32.9261 0.0000
# 6 0.0000 0.0000 0.0000 0.0000 0.0000 -8.9817
#
#
#
# Elastic Compliance Matrix: (Units=1/GPa)
#
#
# Indices 1 2 3 4 5 6 
#
# 1 0.008232 -0.003994 -0.003092 0.000000 0.000000 0.000000
# 2 -0.003994 0.023382 -0.002174 0.000000 0.000000 0.000000
# 3 -0.003092 -0.002174 0.017996 0.000000 0.000000 0.000000
# 4 0.000000 0.000000 0.000000 0.031110 0.000000 0.000000
# 5 0.000000 0.000000 0.000000 0.000000 0.030371 0.000000
# 6 0.000000 0.000000 0.000000 0.000000 0.000000 -0.111338
#
#
# Mechanical properties :
#
#
# Convention : Reuss Voigt Hill
#
# Bulk Modulus (GPa) = 32.16460 43.14508 37.65484
# Shear Modulus (GPa) = 174.60135 23.83338 99.21737
#
# Velocity S-wave (km/s) = 9.41273 3.47764 7.09554
# Velocity P-wave (km/s) = 11.59544 6.16594 9.28636
#
# Compressibility (1/GPa) = 0.03109008
#
# Stress axis : x y z
#
# Youngs Moduli (GPa) = 121.47479 42.76875 55.56682
#
# Poissons Ratio (x) = 0.17083 0.17182
# Poissons Ratio (y) = 0.48520 0.12078
# Poissons Ratio (z) = 0.37561 0.09297
#
# Static dielectric constant tensor:
#      x y z
#    x 1.763300 0.000000 0.000000 
#    y 0.000000 1.770040 0.000000 
#    z 0.000000 0.000000 1.681610 
# 
# From -- ./inp_files/20724.got.cif
#   From: 2010.05.17/outbox.cif.g08.bks.cpg/sg74_11_cif.got.tgz:20724.got - 2010.06.03 17:57:02.
