data_PCOD9540459
_publ_section_title
;
Structure prediction by ZEFSAII (Michael W. Deem and Ramdas Pophale) SiO2 
 PCOD9540459
Probable space group: I M M A
;
_chemical_formula_sum "Si O2"
_cell_formula_units_Z 96
_cell_length_a 19.128046
_cell_length_b 25.699836
_cell_length_c 9.943700
_cell_angle_alpha 90.000000
_cell_angle_beta 90.000000
_cell_angle_gamma 90.000000
_cell_volume 4888.200068
_symmetry_space_group_name_H-M "I M M A"
_symmetry_group_IT_number 74
_symmetry_cell_setting 'orthorhombic'
loop_
_space_group_symop_operation_xyz
x,y,z
-x,1/2-y,z
x,-y,-z
-x,1/2+y,-z
-x,-y,-z
x,1/2+y,-z
-x,y,z
x,1/2-y,z
1/2+x,1/2+y,1/2+z
1/2-x,-y,1/2+z
1/2+x,1/2-y,1/2-z
1/2-x,y,1/2-z
1/2-x,1/2-y,1/2-z
1/2+x,y,1/2-z
1/2-x,1/2+y,1/2+z
1/2+x,-y,1/2+z
loop_
_atom_site_type_symbol
_atom_site_label
_atom_site_fract_x
_atom_site_fract_y
_atom_site_fract_z
Si Si1 0.675545 0.859708 0.810378
Si Si2 0.849827 0.352358 0.860130
Si Si3 0.696273 0.811735 0.082088
Si Si4 0.582059 0.192881 0.393338
Si Si5 0.416057 0.466391 0.635917
Si Si6 0.816165 0.982403 0.654972
O O1 0.750000 0.842981 0.750000
O O2 0.619021 0.850185 0.696059
O O3 0.680034 0.920067 0.846611
O O4 0.661021 0.825822 0.941794
O O5 0.770760 0.341930 0.912377
O O6 0.847717 0.333284 0.707029
O O7 0.876225 0.411227 0.873964
O O8 0.899170 0.317569 0.952772
O O9 0.708528 0.750000 0.096221
O O10 0.500000 0.191330 0.373599
O O11 0.609325 0.250000 0.354154
O O12 0.402963 0.500000 0.500000
O O13 0.500000 0.459147 0.647542
O O14 0.383199 0.494836 0.766144
O O15 0.750000 0.997529 0.750000
O O16 0.809282 0.000000 0.500000
#
# Coordination Sequence:
#
# PCOD9540459 Si02
#       6
#    16  16  16  16  16  16
#     4  11  23  40  63  97 125 168 214 269 324 380
#     4  11  22  39  63  95 128 168 216 263 315 384
#     4  11  23  39  64  97 133 169 212 270 328 380
#     4  11  23  40  64  92 128 172 215 264 321 384
#     4  11  25  43  66  95 133 177 217 266 325 390
#     4  11  25  41  65  96 128 168 216 273 326 382
#
# _framework density 19.639132
#
# number of rings (size 3 to 8) (size 9 to 14) (size 15 to 20)
#    0.000    1.000    1.667    5.500    7.000    3.000 
#    0.000    3.333    0.000    4.000    0.000    0.000 
#    0.000    0.000    0.000    0.000    0.000    0.000 
#
# Total GULP energy -268324.285557 kJ/mol
# GULP energy per Si atom -5590.089282 kJ/mol
# Density = 1.959443 g / cm^3
# Si number density = 19.639132 Si / 1000 Ang^3
#
#
#
# Elastic Constant Matrix: (Units=GPa)
#
#
# Indices 1 2 3 4 5 6 
#
# 1 76.5811 49.8428 45.6889 0.0000 0.0000 0.0000
# 2 49.8428 98.3054 54.7902 0.0000 0.0000 0.0000
# 3 45.6889 54.7902 138.2799 0.0000 0.0000 0.0000
# 4 0.0000 0.0000 0.0000 38.1502 0.0000 0.0000
# 5 0.0000 0.0000 0.0000 0.0000 26.4688 0.0000
# 6 0.0000 0.0000 0.0000 0.0000 0.0000 30.1275
#
#
#
# Elastic Compliance Matrix: (Units=1/GPa)
#
#
# Indices 1 2 3 4 5 6 
#
# 1 0.020690 -0.008573 -0.003439 0.000000 0.000000 0.000000
# 2 -0.008573 0.016608 -0.003748 0.000000 0.000000 0.000000
# 3 -0.003439 -0.003748 0.009853 0.000000 0.000000 0.000000
# 4 0.000000 0.000000 0.000000 0.026212 0.000000 0.000000
# 5 0.000000 0.000000 0.000000 0.000000 0.037780 0.000000
# 6 0.000000 0.000000 0.000000 0.000000 0.000000 0.033192
#
#
# Mechanical properties :
#
#
# Convention : Reuss Voigt Hill
#
# Bulk Modulus (GPa) = 63.97837 68.20112 66.08975
# Shear Modulus (GPa) = 27.61417 29.80561 28.70989
#
# Velocity S-wave (km/s) = 3.75384 3.89995 3.82759
# Velocity P-wave (km/s) = 7.17190 7.42172 7.29788
#
# Compressibility (1/GPa) = 0.01563028
#
# Stress axis : x y z
#
# Youngs Moduli (GPa) = 48.33294 60.21159 101.49173
#
# Poissons Ratio (x) = 0.51622 0.34904
# Poissons Ratio (y) = 0.41438 0.38038
# Poissons Ratio (z) = 0.16622 0.22566
#
# Static dielectric constant tensor:
#      x y z
#    x 1.655020 0.000000 0.000000 
#    y 0.000000 1.692030 0.000000 
#    z 0.000000 0.000000 1.676650 
# 
# From -- ./inp_files/12699.got.cif
#   From: 2010.05.17/outbox.cif.g08.bks.cpg/sg74_7_cif.got.tgz:12699.got - 2010.06.03 17:57:02.
