data_PCOD9540481
_publ_section_title
;
Structure prediction by ZEFSAII (Michael W. Deem and Ramdas Pophale) SiO2 
 PCOD9540481
Probable space group: I M M A
;
_chemical_formula_sum "Si O2"
_cell_formula_units_Z 68
_cell_length_a 17.859914
_cell_length_b 19.157095
_cell_length_c 9.535271
_cell_angle_alpha 90.000000
_cell_angle_beta 90.000000
_cell_angle_gamma 90.000000
_cell_volume 3262.436421
_symmetry_space_group_name_H-M "I M M A"
_symmetry_group_IT_number 74
_symmetry_cell_setting 'orthorhombic'
loop_
_space_group_symop_operation_xyz
x,y,z
-x,1/2-y,z
x,-y,-z
-x,1/2+y,-z
-x,-y,-z
x,1/2+y,-z
-x,y,z
x,1/2-y,z
1/2+x,1/2+y,1/2+z
1/2-x,-y,1/2+z
1/2+x,1/2-y,1/2-z
1/2-x,y,1/2-z
1/2-x,1/2-y,1/2-z
1/2+x,y,1/2-z
1/2-x,1/2+y,1/2+z
1/2+x,-y,1/2+z
loop_
_atom_site_type_symbol
_atom_site_label
_atom_site_fract_x
_atom_site_fract_y
_atom_site_fract_z
Si Si1 0.174695 0.508230 0.294438
Si Si2 0.500000 0.750000 0.274527
Si Si3 0.824488 0.250000 0.646854
Si Si4 0.111584 0.000000 0.000000
Si Si5 0.000000 0.333450 0.315311
Si Si6 0.000000 0.122929 0.988175
Si Si7 0.859111 0.888287 0.509620
O O1 0.250000 0.548277 0.250000
O O2 0.121388 0.561474 0.377435
O O3 0.188606 0.441720 0.394683
O O4 0.148035 0.481355 0.146477
O O5 0.415032 0.750000 0.200054
O O6 0.500000 0.683624 0.376053
O O7 0.750000 0.250000 0.750000
O O8 0.820516 0.180347 0.551850
O O9 0.068043 0.070523 0.964576
O O10 0.071370 0.365425 0.395344
O O11 0.000000 0.250000 0.332433
O O12 0.000000 0.351223 0.149876
#
# Coordination Sequence:
#
# PCOD9540481 Si02
#       7
#    16   4   8   8   8   8  16
#     4  11  24  42  68  97 139 180 234 295 359 427
#     4  12  26  46  70 102 138 190 230 294 368 416
#     4  12  26  47  72 105 144 187 242 298 356 442
#     4  11  22  42  62  98 132 173 234 287 356 420
#     4  12  22  45  70  99 141 180 244 296 351 429
#     4  11  24  39  67  95 137 179 226 295 357 422
#     4  11  24  43  69 101 134 190 231 289 358 425
#
# _framework density 20.843318
#
# number of rings (size 3 to 8) (size 9 to 14) (size 15 to 20)
#    0.000    0.706    4.118    4.235    0.000    5.647 
#    0.000    0.588    0.000    0.000    0.000    0.000 
#    0.000    0.000    0.000    0.000    0.000    0.000 
#
# Total GULP energy -189297.913383 kJ/mol
# GULP energy per Si atom -5567.585688 kJ/mol
# Density = 2.079588 g / cm^3
# Si number density = 20.843318 Si / 1000 Ang^3
#
#
#
# Elastic Constant Matrix: (Units=GPa)
#
#
# Indices 1 2 3 4 5 6 
#
# 1 62.8169 25.8020 33.2794 0.0000 0.0000 0.0000
# 2 25.8020 147.6411 51.8832 0.0000 0.0000 0.0000
# 3 33.2794 51.8832 129.5528 0.0000 0.0000 0.0000
# 4 0.0000 0.0000 0.0000 46.2566 0.0000 0.0000
# 5 0.0000 0.0000 0.0000 0.0000 -33.1442 0.0000
# 6 0.0000 0.0000 0.0000 0.0000 0.0000 -10.9789
#
#
#
# Elastic Compliance Matrix: (Units=1/GPa)
#
#
# Indices 1 2 3 4 5 6 
#
# 1 0.018853 -0.001854 -0.004101 0.000000 0.000000 0.000000
# 2 -0.001854 0.008065 -0.002754 0.000000 0.000000 0.000000
# 3 -0.004101 -0.002754 0.009875 0.000000 0.000000 0.000000
# 4 0.000000 0.000000 0.000000 0.021619 0.000000 0.000000
# 5 0.000000 0.000000 0.000000 0.000000 -0.030171 0.000000
# 6 0.000000 0.000000 0.000000 0.000000 0.000000 -0.091083
#
#
# Mechanical properties :
#
#
# Convention : Reuss Voigt Hill
#
# Bulk Modulus (GPa) = 51.60756 62.43776 57.02266
# Shear Modulus (GPa) = -128.30951 15.69644 -56.30654
#
# Velocity S-wave (km/s) = -7.85447 2.74719 -5.20316
# Velocity P-wave (km/s) = 7.57914 6.33115 2.94618
#
# Compressibility (1/GPa) = 0.01937701
#
# Stress axis : x y z
#
# Youngs Moduli (GPa) = 53.04151 123.99552 101.26615
#
# Poissons Ratio (x) = 0.22986 0.41525
# Poissons Ratio (y) = 0.09833 0.27884
# Poissons Ratio (z) = 0.21750 0.34143
#
# Static dielectric constant tensor:
#      x y z
#    x 1.913030 0.000000 0.000000 
#    y 0.000000 1.712070 0.000000 
#    z 0.000000 0.000000 1.797510 
# 
# From -- ./inp_files/11994.got.cif
#   From: 2010.05.17/outbox.cif.g08.bks.cpg/sg74_6_cif.got.tgz:11994.got - 2010.06.03 17:57:02.
