data_PCOD9540288
_publ_section_title
;
Structure prediction by ZEFSAII (Michael W. Deem and Ramdas Pophale) SiO2 
 PCOD9540288
Probable space group: I M M A
;
_chemical_formula_sum "Si O2"
_cell_formula_units_Z 112
_cell_length_a 15.009301
_cell_length_b 26.633833
_cell_length_c 15.441428
_cell_angle_alpha 90.000000
_cell_angle_beta 90.000000
_cell_angle_gamma 90.000000
_cell_volume 6172.791390
_symmetry_space_group_name_H-M "I M M A"
_symmetry_group_IT_number 74
_symmetry_cell_setting 'orthorhombic'
loop_
_space_group_symop_operation_xyz
x,y,z
-x,1/2-y,z
x,-y,-z
-x,1/2+y,-z
-x,-y,-z
x,1/2+y,-z
-x,y,z
x,1/2-y,z
1/2+x,1/2+y,1/2+z
1/2-x,-y,1/2+z
1/2+x,1/2-y,1/2-z
1/2-x,y,1/2-z
1/2-x,1/2-y,1/2-z
1/2+x,y,1/2-z
1/2-x,1/2+y,1/2+z
1/2+x,-y,1/2+z
loop_
_atom_site_type_symbol
_atom_site_label
_atom_site_fract_x
_atom_site_fract_y
_atom_site_fract_z
Si Si1 0.810395 0.597917 0.832145
Si Si2 0.903075 0.537776 0.419168
Si Si3 0.106331 0.305741 0.217575
Si Si4 0.143564 0.498580 0.766918
Si Si5 0.896605 0.051075 0.945005
Si Si6 0.233206 0.391219 0.502466
Si Si7 0.894952 0.809707 0.576837
O O1 0.750000 0.605790 0.750000
O O2 0.856221 0.651399 0.844683
O O3 0.876714 0.553512 0.806595
O O4 0.744602 0.582304 0.908776
O O5 0.894490 0.500000 0.500000
O O6 0.898154 0.511403 0.326242
O O7 0.825546 0.577760 0.430527
O O8 0.000000 0.562361 0.427669
O O9 0.142418 0.250000 0.198930
O O10 0.122821 0.317015 0.319850
O O11 0.000000 0.304505 0.209140
O O12 0.250000 0.496310 0.750000
O O13 0.115711 0.461440 0.843576
O O14 0.000000 0.060232 0.965077
O O15 0.834769 0.099167 0.966472
O O16 0.870265 0.000000 0.000000
O O17 0.177422 0.341235 0.478182
O O18 0.887873 0.750000 0.560564
O O19 0.000000 0.823976 0.561914
#
# Coordination Sequence:
#
# PCOD9540288 Si02
#       7
#    16  16  16  16  16  16  16
#     4  11  21  31  51  78 107 153 196 230 275 335
#     4  11  23  36  55  84 114 146 187 239 296 346
#     4   9  19  34  50  74 109 147 194 243 278 328
#     4  11  21  38  57  78 115 155 193 236 286 342
#     4  11  23  39  57  79 114 160 205 240 276 337
#     4  12  21  37  56  80 114 149 191 242 283 333
#     4   9  19  36  58  84 115 151 190 236 295 355
#
# _framework density 18.144141000000001
#
# number of rings (size 3 to 8) (size 9 to 14) (size 15 to 20)
#    0.000    1.429    4.286    3.857    0.000    2.571 
#    0.000    0.000    0.000    0.429    0.000    2.000 
#    0.000    2.286    0.000    0.143    0.000    0.000 
#
# Total GULP energy -311941.070800 kJ/mol
# GULP energy per Si atom -5570.376264 kJ/mol
# Density = 1.810284 g / cm^3
# Si number density = 18.144141 Si / 1000 Ang^3
#
#
#
# Elastic Constant Matrix: (Units=GPa)
#
#
# Indices 1 2 3 4 5 6 
#
# 1 92.4039 41.3327 11.8113 0.0000 0.0000 0.0001
# 2 41.3327 72.5435 26.5736 -0.0002 0.0001 0.0013
# 3 11.8113 26.5736 81.7859 -0.0001 0.0001 0.0007
# 4 0.0000 -0.0002 -0.0001 18.7706 0.0001 0.0007
# 5 0.0000 0.0001 0.0001 0.0001 15.6090 -0.0004
# 6 0.0001 0.0013 0.0007 0.0007 -0.0004 -127.4960
#
#
#
# Elastic Compliance Matrix: (Units=1/GPa)
#
#
# Indices 1 2 3 4 5 6 
#
# 1 0.014556 -0.008540 0.000673 0.000000 0.000000 0.000000
# 2 -0.008540 0.020657 -0.005479 0.000000 0.000000 0.000000
# 3 0.000673 -0.005479 0.013910 0.000000 0.000000 0.000000
# 4 0.000000 0.000000 0.000000 0.053275 0.000000 0.000000
# 5 0.000000 0.000000 0.000000 0.000000 0.064065 0.000000
# 6 0.000000 0.000000 0.000000 0.000000 0.000000 -0.007843
#
#
# Mechanical properties :
#
#
# Convention : Reuss Voigt Hill
#
# Bulk Modulus (GPa) = 44.57989 45.12984 44.85486
# Shear Modulus (GPa) = 25.93505 -7.48888 9.22309
#
# Velocity S-wave (km/s) = 3.78483 -2.03381 2.25705
# Velocity P-wave (km/s) = 6.61234 4.40588 5.61849
#
# Compressibility (1/GPa) = 0.02243164
#
# Stress axis : x y z
#
# Youngs Moduli (GPa) = 68.70013 48.40870 71.89072
#
# Poissons Ratio (x) = 0.41340 -0.04835
# Poissons Ratio (y) = 0.58669 0.39386
# Poissons Ratio (z) = -0.04621 0.26521
#
# Static dielectric constant tensor:
#      x y z
#    x 1.684350 0.000000 0.000000 
#    y 0.000000 1.675700 0.000000 
#    z 0.000000 0.000000 1.652140 
# 
# From -- ./inp_files/32927.got.cif
#   From: 2010.05.17/outbox.cif.g08.bks.cpg/sg74_17_cif.got.tgz:32927.got - 2010.06.03 17:57:02.
