data_PCOD9540348
_publ_section_title
;
Structure prediction by ZEFSAII (Michael W. Deem and Ramdas Pophale) SiO2 
 PCOD9540348
Probable space group: I M M A
;
_chemical_formula_sum "Si O2"
_cell_formula_units_Z 104
_cell_length_a 9.442110
_cell_length_b 27.367145
_cell_length_c 22.056368
_cell_angle_alpha 90.000000
_cell_angle_beta 90.000000
_cell_angle_gamma 90.000000
_cell_volume 5699.444750
_symmetry_space_group_name_H-M "I M M A"
_symmetry_group_IT_number 74
_symmetry_cell_setting 'orthorhombic'
loop_
_space_group_symop_operation_xyz
x,y,z
-x,1/2-y,z
x,-y,-z
-x,1/2+y,-z
-x,-y,-z
x,1/2+y,-z
-x,y,z
x,1/2-y,z
1/2+x,1/2+y,1/2+z
1/2-x,-y,1/2+z
1/2+x,1/2-y,1/2-z
1/2-x,y,1/2-z
1/2-x,1/2-y,1/2-z
1/2+x,y,1/2-z
1/2-x,1/2+y,1/2+z
1/2+x,-y,1/2+z
loop_
_atom_site_type_symbol
_atom_site_label
_atom_site_fract_x
_atom_site_fract_y
_atom_site_fract_z
Si Si1 0.170696 0.330469 0.897490
Si Si2 0.152927 0.304497 0.490778
Si Si3 0.170464 0.063578 0.938786
Si Si4 0.671760 0.545958 0.580061
Si Si5 0.716788 0.360339 0.125331
Si Si6 0.825608 0.250000 0.684267
Si Si7 0.500000 0.694247 0.646926
Si Si8 0.000000 0.807150 0.707892
O O1 0.213040 0.387967 0.902169
O O2 0.261167 0.297312 0.851294
O O3 0.000000 0.325843 0.887948
O O4 0.217798 0.311779 0.963871
O O5 0.161909 0.250000 0.463861
O O6 0.148818 0.343298 0.437472
O O7 0.000000 0.307156 0.524145
O O8 0.000000 0.063768 0.937356
O O9 0.214689 0.010653 0.913842
O O10 0.204961 0.062943 0.010729
O O11 0.500000 0.549633 0.587495
O O12 0.754047 0.582199 0.624578
O O13 0.866081 0.333974 0.123502
O O14 0.631775 0.336537 0.180349
O O15 0.750000 0.250000 0.750000
O O16 0.000000 0.250000 0.686350
O O17 0.500000 0.750000 0.627159
O O18 0.500000 0.692884 0.719948
O O19 0.000000 0.750000 0.688170
#
# Coordination Sequence:
#
# PCOD9540348 Si02
#       8
#    16  16  16  16  16   8   8   8
#     4  11  21  36  61  94 121 155 199 243 284 353
#     4  11  22  34  50  79 125 159 184 233 309 355
#     4   8  16  30  53  84 123 152 184 237 297 355
#     4   9  16  31  53  84 115 151 193 240 298 353
#     4  12  21  35  57  80 111 148 200 251 294 355
#     4  12  26  46  68  92 128 168 201 238 293 360
#     4  11  24  38  56  79 104 146 204 252 293 347
#     4  11  24  42  54  71 110 160 194 242 309 365
#
# _framework density 18.247392000000001
#
# number of rings (size 3 to 8) (size 9 to 14) (size 15 to 20)
#    0.000    1.538    3.846    3.923    1.077    1.231 
#    0.000    0.000    3.385    3.692    0.000    0.000 
#    0.000    0.000    0.000    0.000    0.000    0.000 
#
# Total GULP energy -289781.485977 kJ/mol
# GULP energy per Si atom -5572.720884 kJ/mol
# Density = 1.820586 g / cm^3
# Si number density = 18.247392 Si / 1000 Ang^3
#
#
#
# Elastic Constant Matrix: (Units=GPa)
#
#
# Indices 1 2 3 4 5 6 
#
# 1 99.2917 39.1091 19.2954 0.0000 0.0000 0.0000
# 2 39.1091 162.4317 28.2499 0.0000 0.0000 0.0000
# 3 19.2954 28.2499 47.0935 -0.0001 0.0000 0.0000
# 4 0.0000 0.0000 -0.0001 -12.6155 0.0000 0.0000
# 5 0.0000 0.0000 0.0000 0.0000 25.0486 0.0000
# 6 0.0000 0.0000 0.0000 0.0000 0.0000 14.7700
#
#
#
# Elastic Compliance Matrix: (Units=1/GPa)
#
#
# Indices 1 2 3 4 5 6 
#
# 1 0.011604 -0.002196 -0.003437 0.000000 0.000000 0.000000
# 2 -0.002196 0.007289 -0.003473 0.000000 0.000000 0.000000
# 3 -0.003437 -0.003473 0.024726 0.000000 0.000000 0.000000
# 4 0.000000 0.000000 0.000000 -0.079267 0.000000 0.000000
# 5 0.000000 0.000000 0.000000 0.000000 0.039922 0.000000
# 6 0.000000 0.000000 0.000000 0.000000 0.000000 0.067705
#
#
# Mechanical properties :
#
#
# Convention : Reuss Voigt Hill
#
# Bulk Modulus (GPa) = 39.35894 53.56953 46.46423
# Shear Modulus (GPa) = 50.67893 20.25144 35.46518
#
# Velocity S-wave (km/s) = 5.27575 3.33502 4.41338
# Velocity P-wave (km/s) = 7.66341 6.65214 7.17561
#
# Compressibility (1/GPa) = 0.02540719
#
# Stress axis : x y z
#
# Youngs Moduli (GPa) = 86.17475 137.18937 40.44354
#
# Poissons Ratio (x) = 0.30130 0.13901
# Poissons Ratio (y) = 0.18926 0.14045
# Poissons Ratio (z) = 0.29620 0.47642
#
# Static dielectric constant tensor:
#      x y z
#    x 1.647000 0.000000 0.000000 
#    y 0.000000 1.675660 0.000000 
#    z 0.000000 0.000000 1.612370 
# 
# From -- ./inp_files/57664.got.cif
#   From: 2010.05.17/outbox.cif.g08.bks.cpg/sg74_29_cif.got.tgz:57664.got - 2010.06.03 17:57:02.
