data_PCOD9540932
_publ_section_title
;
Structure prediction by ZEFSAII (Michael W. Deem and Ramdas Pophale) SiO2 
 PCOD9540932
Probable space group: I M M A
;
_chemical_formula_sum "Si O2"
_cell_formula_units_Z 56
_cell_length_a 15.000000
_cell_length_b 27.000000
_cell_length_c 15.000000
_cell_angle_alpha 90.000000
_cell_angle_beta 90.000000
_cell_angle_gamma 90.000000
_cell_volume 6075.000000
_symmetry_space_group_name_H-M "I M M A"
_symmetry_group_IT_number 74
_symmetry_cell_setting 'orthorhombic'
loop_
_space_group_symop_operation_xyz
x,y,z
-x,1/2-y,z
x,-y,-z
-x,1/2+y,-z
-x,-y,-z
x,1/2+y,-z
-x,y,z
x,1/2-y,z
1/2+x,1/2+y,1/2+z
1/2-x,-y,1/2+z
1/2+x,1/2-y,1/2-z
1/2-x,y,1/2-z
1/2-x,1/2-y,1/2-z
1/2+x,y,1/2-z
1/2-x,1/2+y,1/2+z
1/2+x,-y,1/2+z
loop_
_atom_site_type_symbol
_atom_site_label
_atom_site_fract_x
_atom_site_fract_y
_atom_site_fract_z
Si Si1 0.225346 0.553738 0.483683
Si Si2 0.395111 0.140113 0.909077
Si Si3 0.603839 0.480189 0.634174
Si Si4 0.813748 0.912024 0.835706
Si Si5 0.393331 0.307086 0.391623
Si Si6 0.718259 0.693687 0.424882
Si Si7 0.600469 0.374501 0.701761
O O1 0.182875 0.500000 0.500000
O O2 0.154780 0.588772 0.434439
O O3 0.318707 0.539264 0.433343
O O4 0.255284 0.580778 0.574468
O O5 0.500000 0.142878 0.938033
O O6 0.322031 0.180271 0.942134
O O7 0.395256 0.144485 0.802144
O O8 0.500000 0.480132 0.601994
O O9 0.627754 0.536408 0.664291
O O10 0.609495 0.434488 0.704118
O O11 0.750000 0.912671 0.750000
O O12 0.863224 0.858266 0.841435
O O13 0.500000 0.310372 0.405567
O O14 0.376813 0.250000 0.354852
O O15 0.339099 0.308848 0.484454
O O16 0.711138 0.750000 0.389773
O O17 0.673714 0.653437 0.358164
O O18 0.500000 0.364503 0.665485
#
# Coordination Sequence:
#
# PCOD9540932 Si02
#       7
#    16  16  16  16  16  16  16
#     4  10  22  38  60  88 118 162 199 239 297 359
#     4  11  23  39  57  81 120 167 209 241 284 357
#     4  10  21  37  63  95 127 155 190 244 304 363
#     4  11  23  37  61  93 125 155 194 246 297 361
#     4  10  21  40  66  92 119 153 198 254 315 368
#     4  11  22  38  62  89 119 155 198 253 308 362
#     4  10  21  35  58  90 123 157 192 239 296 360
#
# _framework density 9.2181069999999998
#
# number of rings (size 3 to 8) (size 9 to 14) (size 15 to 20)
#    0.000    1.571    2.857    1.286    4.000    7.143 
#    0.000    2.857    0.000    0.000    0.000    0.000 
#    0.000    0.000    0.000    0.000    0.000    0.000 
#
# Total GULP energy -311949.025746 kJ/mol
# GULP energy per Si atom -5570.518317 kJ/mol
# Density = 0.919713 g / cm^3
# Si number density = 9.218107 Si / 1000 Ang^3
#
#
#
# Elastic Constant Matrix: (Units=GPa)
#
#
# Indices 1 2 3 4 5 6 
#
# 1 144.8308 51.2302 36.4222 0.0000 0.0000 0.0000
# 2 51.2302 153.4454 22.4949 0.0001 0.0000 -0.0001
# 3 36.4222 22.4949 42.0706 0.0001 0.0000 -0.0001
# 4 0.0000 0.0001 0.0001 16.1795 0.0000 -0.0001
# 5 0.0000 0.0000 0.0000 0.0000 22.9400 0.0000
# 6 0.0000 -0.0001 -0.0001 -0.0001 0.0000 33.9193
#
#
#
# Elastic Compliance Matrix: (Units=1/GPa)
#
#
# Indices 1 2 3 4 5 6 
#
# 1 0.009419 -0.002115 -0.007024 0.000000 0.000000 0.000000
# 2 -0.002115 0.007546 -0.002204 0.000000 0.000000 0.000000
# 3 -0.007024 -0.002204 0.031028 0.000000 0.000000 0.000000
# 4 0.000000 0.000000 0.000000 0.061806 0.000000 0.000000
# 5 0.000000 0.000000 0.000000 0.000000 0.043592 0.000000
# 6 0.000000 0.000000 0.000000 0.000000 0.000000 0.029482
#
#
# Mechanical properties :
#
#
# Convention : Reuss Voigt Hill
#
# Bulk Modulus (GPa) = 39.51178 62.29348 50.90263
# Shear Modulus (GPa) = 23.36504 29.95441 26.65973
#
# Velocity S-wave (km/s) = 3.56384 4.03520 3.80682
# Velocity P-wave (km/s) = 6.19780 7.45470 6.85512
#
# Compressibility (1/GPa) = 0.02530891
#
# Stress axis : x y z
#
# Youngs Moduli (GPa) = 106.16798 132.51708 32.22848
#
# Poissons Ratio (x) = 0.28028 0.22636
# Poissons Ratio (y) = 0.22455 0.07103
# Poissons Ratio (z) = 0.74567 0.29204
#
# Static dielectric constant tensor:
#      x y z
#    x 1.642100 0.000000 0.000000 
#    y 0.000000 1.682790 0.000000 
#    z 0.000000 0.000000 1.641900 
# 
# From -- ./inp_files/32910.got.cif
#   From: 2010.05.17/outbox.ucp.g08.bks.cvg/sg74_17_cif.got.tgz:32910.got - 2010.06.11 16:37:44.
