data_PCOD9540366
_publ_section_title
;
Structure prediction by ZEFSAII (Michael W. Deem and Ramdas Pophale) SiO2 
 PCOD9540366
Probable space group: I M M A
;
_chemical_formula_sum "Si O2"
_cell_formula_units_Z 68
_cell_length_a 22.325213
_cell_length_b 7.739681
_cell_length_c 17.076990
_cell_angle_alpha 90.000000
_cell_angle_beta 90.000000
_cell_angle_gamma 90.000000
_cell_volume 2950.733561
_symmetry_space_group_name_H-M "I M M A"
_symmetry_group_IT_number 74
_symmetry_cell_setting 'orthorhombic'
loop_
_space_group_symop_operation_xyz
x,y,z
-x,1/2-y,z
x,-y,-z
-x,1/2+y,-z
-x,-y,-z
x,1/2+y,-z
-x,y,z
x,1/2-y,z
1/2+x,1/2+y,1/2+z
1/2-x,-y,1/2+z
1/2+x,1/2-y,1/2-z
1/2-x,y,1/2-z
1/2-x,1/2-y,1/2-z
1/2+x,y,1/2-z
1/2-x,1/2+y,1/2+z
1/2+x,-y,1/2+z
loop_
_atom_site_type_symbol
_atom_site_label
_atom_site_fract_x
_atom_site_fract_y
_atom_site_fract_z
Si Si1 0.217739 0.553760 0.829229
Si Si2 0.170080 0.950422 0.414425
Si Si3 0.587531 0.942297 0.376174
Si Si4 0.500000 0.750000 0.571312
Si Si5 0.435602 0.043833 0.201374
O O1 0.199357 0.750000 0.808458
O O2 0.250000 0.479919 0.750000
O O3 0.270346 0.552917 0.892404
O O4 0.159260 0.465972 0.865984
O O5 0.185696 0.750000 0.411712
O O6 0.147933 0.000000 0.500000
O O7 0.119243 0.988681 0.351351
O O8 0.573327 0.750000 0.407202
O O9 0.552547 0.095953 0.419234
O O10 0.567095 0.956566 0.285719
O O11 0.500000 0.003834 0.164094
O O12 0.432742 0.250000 0.214483
#
# Coordination Sequence:
#
# PCOD9540366 Si02
#       5
#    16  16  16   4  16
#     4  11  22  39  64  92 126 164 209 267 323 374
#     4  12  26  42  61  88 124 169 218 265 319 379
#     4  12  22  36  61  93 127 167 209 260 319 379
#     4  12  22  40  54  94 136 160 204 264 322 378
#     4  11  21  38  59  86 125 167 211 261 314 370
#
# _framework density 23.045117000000001
#
# number of rings (size 3 to 8) (size 9 to 14) (size 15 to 20)
#    0.000    0.471    5.882    3.882    0.000    2.824 
#    0.000    0.000    0.000    0.000    0.000    0.824 
#    0.000    0.000    0.000    0.000    0.000    0.000 
#
# Total GULP energy -189772.467625 kJ/mol
# GULP energy per Si atom -5581.543165 kJ/mol
# Density = 2.299267 g / cm^3
# Si number density = 23.045117 Si / 1000 Ang^3
#
#
#
# Elastic Constant Matrix: (Units=GPa)
#
#
# Indices 1 2 3 4 5 6 
#
# 1 160.1433 30.8601 11.4116 0.0000 0.0000 0.0000
# 2 30.8601 164.2583 17.6392 0.0000 0.0000 0.0000
# 3 11.4116 17.6392 70.4893 0.0000 0.0000 0.0000
# 4 0.0000 0.0000 0.0000 27.5418 0.0000 0.0000
# 5 0.0000 0.0000 0.0000 0.0000 -22.0160 0.0000
# 6 0.0000 0.0000 0.0000 0.0000 0.0000 37.6008
#
#
#
# Elastic Compliance Matrix: (Units=1/GPa)
#
#
# Indices 1 2 3 4 5 6 
#
# 1 0.006519 -0.001142 -0.000770 0.000000 0.000000 0.000000
# 2 -0.001142 0.006456 -0.001431 0.000000 0.000000 0.000000
# 3 -0.000770 -0.001431 0.014669 0.000000 0.000000 0.000000
# 4 0.000000 0.000000 0.000000 0.036309 0.000000 0.000000
# 5 0.000000 0.000000 0.000000 0.000000 -0.045422 0.000000
# 6 0.000000 0.000000 0.000000 0.000000 0.000000 0.026595
#
#
# Mechanical properties :
#
#
# Convention : Reuss Voigt Hill
#
# Bulk Modulus (GPa) = 47.71048 57.19029 52.45038
# Shear Modulus (GPa) = 85.03641 30.95732 57.99687
#
# Velocity S-wave (km/s) = 6.08112 3.66913 5.02208
# Velocity P-wave (km/s) = 8.36987 6.54374 7.51250
#
# Compressibility (1/GPa) = 0.02095976
#
# Stress axis : x y z
#
# Youngs Moduli (GPa) = 153.38953 154.88993 68.17026
#
# Poissons Ratio (x) = 0.17691 0.05246
# Poissons Ratio (y) = 0.17520 0.09753
# Poissons Ratio (z) = 0.11805 0.22160
#
# Static dielectric constant tensor:
#      x y z
#    x 1.816300 0.000000 0.000000 
#    y 0.000000 1.888580 0.000000 
#    z 0.000000 0.000000 1.858630 
# 
# From -- ./inp_files/44864.got.cif
#   From: 2010.05.17/outbox.cif.g08.bks.cpg/sg74_23_cif.got.tgz:44864.got - 2010.06.03 17:57:02.
