data_PCOD9540037
_publ_section_title
;
Structure prediction by ZEFSAII (Michael W. Deem and Ramdas Pophale) SiO2 
 PCOD9540037
Probable space group: I M M A
;
_chemical_formula_sum "Si O2"
_cell_formula_units_Z 56
_cell_length_a 9.652687
_cell_length_b 21.839862
_cell_length_c 12.842648
_cell_angle_alpha 90.000000
_cell_angle_beta 90.000000
_cell_angle_gamma 90.000000
_cell_volume 2707.401674
_symmetry_space_group_name_H-M "I M M A"
_symmetry_group_IT_number 74
_symmetry_cell_setting 'orthorhombic'
loop_
_space_group_symop_operation_xyz
x,y,z
-x,1/2-y,z
x,-y,-z
-x,1/2+y,-z
-x,-y,-z
x,1/2+y,-z
-x,y,z
x,1/2-y,z
1/2+x,1/2+y,1/2+z
1/2-x,-y,1/2+z
1/2+x,1/2-y,1/2-z
1/2-x,y,1/2-z
1/2-x,1/2-y,1/2-z
1/2+x,y,1/2-z
1/2-x,1/2+y,1/2+z
1/2+x,-y,1/2+z
loop_
_atom_site_type_symbol
_atom_site_label
_atom_site_fract_x
_atom_site_fract_y
_atom_site_fract_z
Si Si1 0.166703 0.861951 0.650764
Si Si2 0.849909 0.522823 0.881812
Si Si3 0.834184 0.317040 0.578094
Si Si4 0.750000 0.415422 0.750000
O O1 0.250000 0.836023 0.750000
O O2 0.206958 0.831358 0.540827
O O3 0.000000 0.858901 0.662455
O O4 0.223233 0.931616 0.640332
O O5 0.849076 0.463674 0.807957
O O6 0.000000 0.554818 0.869955
O O7 0.837808 0.500000 0.000000
O O8 0.779085 0.250000 0.609636
O O9 0.798240 0.370596 0.658117
O O10 0.000000 0.314149 0.576988
#
# Coordination Sequence:
#
# PCOD9540037 Si02
#       4
#    16  16  16   8
#     4  11  23  40  64  93 126 168 216 267 325 381
#     4  11  23  38  59  93 133 166 204 259 319 385
#     4  10  23  42  62  89 127 171 219 266 316 381
#     4  12  21  38  66  96 125 170 208 260 322 384
#
# _framework density 20.684037
#
# number of rings (size 3 to 8) (size 9 to 14) (size 15 to 20)
#    0.000    1.143    4.286    2.143    0.000    2.286 
#    0.000    0.000    0.000    7.714    0.000    0.000 
#    0.000    0.000    0.000    0.000    0.000    0.000 
#
# Total GULP energy -156160.340457 kJ/mol
# GULP energy per Si atom -5577.155016 kJ/mol
# Density = 2.063696 g / cm^3
# Si number density = 20.684037 Si / 1000 Ang^3
#
#
#
# Elastic Constant Matrix: (Units=GPa)
#
#
# Indices 1 2 3 4 5 6 
#
# 1 76.0307 14.9626 32.0079 0.0000 0.0000 0.0000
# 2 14.9626 76.2331 10.8840 0.0000 0.0001 0.0000
# 3 32.0079 10.8840 125.2759 -0.0001 -0.0002 0.0000
# 4 0.0000 0.0000 -0.0001 -6.6093 0.0000 0.0000
# 5 0.0000 0.0001 -0.0002 0.0000 -178.5695 0.0000
# 6 0.0000 0.0000 0.0000 0.0000 0.0000 8.7191
#
#
#
# Elastic Compliance Matrix: (Units=1/GPa)
#
#
# Indices 1 2 3 4 5 6 
#
# 1 0.015179 -0.002456 -0.003665 0.000000 0.000000 0.000000
# 2 -0.002456 0.013680 -0.000561 0.000000 0.000000 0.000000
# 3 -0.003665 -0.000561 0.008967 0.000000 0.000000 0.000000
# 4 0.000000 0.000000 0.000000 -0.151302 0.000000 0.000000
# 5 0.000000 0.000000 0.000000 0.000000 -0.005600 0.000000
# 6 0.000000 0.000000 0.000000 0.000000 0.000000 0.114690
#
#
# Mechanical properties :
#
#
# Convention : Reuss Voigt Hill
#
# Bulk Modulus (GPa) = 40.87888 43.69428 42.28658
# Shear Modulus (GPa) = 291.84170 -20.64626 135.59772
#
# Velocity S-wave (km/s) = 11.89123 -3.16282 8.10549
# Velocity P-wave (km/s) = 14.43404 2.79868 10.39650
#
# Compressibility (1/GPa) = 0.02446251
#
# Stress axis : x y z
#
# Youngs Moduli (GPa) = 65.88162 73.10052 111.51411
#
# Poissons Ratio (x) = 0.17953 0.40868
# Poissons Ratio (y) = 0.16180 0.06256
# Poissons Ratio (z) = 0.24144 0.04101
#
# Static dielectric constant tensor:
#      x y z
#    x 1.733900 0.000000 0.000000 
#    y 0.000000 1.750910 0.000000 
#    z 0.000000 0.000000 1.779130 
# 
# From -- ./inp_files/23143.got.cif
#   From: 2010.05.17/outbox.cif.g08.bks.cpg/sg74_12_cif.got.tgz:23143.got - 2010.06.03 17:57:02.
