data_PCOD9540930
_publ_section_title
;
Structure prediction by ZEFSAII (Michael W. Deem and Ramdas Pophale) SiO2 
 PCOD9540930
Probable space group: I M M A
;
_chemical_formula_sum "Si O2"
_cell_formula_units_Z 48
_cell_length_a 9.000000
_cell_length_b 24.000000
_cell_length_c 24.000000
_cell_angle_alpha 90.000000
_cell_angle_beta 90.000000
_cell_angle_gamma 90.000000
_cell_volume 5184.000000
_symmetry_space_group_name_H-M "I M M A"
_symmetry_group_IT_number 74
_symmetry_cell_setting 'orthorhombic'
loop_
_space_group_symop_operation_xyz
x,y,z
-x,1/2-y,z
x,-y,-z
-x,1/2+y,-z
-x,-y,-z
x,1/2+y,-z
-x,y,z
x,1/2-y,z
1/2+x,1/2+y,1/2+z
1/2-x,-y,1/2+z
1/2+x,1/2-y,1/2-z
1/2-x,y,1/2-z
1/2-x,1/2-y,1/2-z
1/2+x,y,1/2-z
1/2-x,1/2+y,1/2+z
1/2+x,-y,1/2+z
loop_
_atom_site_type_symbol
_atom_site_label
_atom_site_fract_x
_atom_site_fract_y
_atom_site_fract_z
Si Si1 0.668434 0.624707 0.902548
Si Si2 0.671443 0.185622 0.981522
Si Si3 0.172542 0.513199 0.934498
Si Si4 0.323733 0.892154 0.394920
Si Si5 0.823646 0.811201 0.310235
Si Si6 0.175232 0.686500 0.806751
O O1 0.500000 0.623123 0.881409
O O2 0.721496 0.564259 0.921619
O O3 0.777299 0.647400 0.856280
O O4 0.672967 0.666498 0.954743
O O5 0.500000 0.180085 0.961011
O O6 0.715016 0.250000 0.975938
O O7 0.775237 0.143436 0.948538
O O8 0.216293 0.456559 0.903095
O O9 0.000000 0.526731 0.920951
O O10 0.177887 0.500000 0.000000
O O11 0.500000 0.888966 0.387732
O O12 0.241396 0.861335 0.345275
O O13 0.789823 0.750000 0.336272
O O14 0.750000 0.811589 0.250000
O O15 0.000000 0.815464 0.305410
O O16 0.227404 0.750000 0.817997
O O17 0.250000 0.667514 0.750000
O O18 0.000000 0.687489 0.799969
#
# Coordination Sequence:
#
# PCOD9540930 Si02
#       6
#    16  16  16  16  16  16
#     4  11  22  36  58  85 115 150 193 239 285 340
#     4  10  21  35  52  79 115 149 182 228 283 338
#     4  10  21  39  58  79 113 154 195 239 285 336
#     4  11  22  36  57  83 112 148 190 235 282 334
#     4  10  21  38  60  85 115 149 185 229 281 338
#     4  10  21  38  61  87 117 153 191 234 287 344
#
# _framework density 9.2592590000000001
#
# number of rings (size 3 to 8) (size 9 to 14) (size 15 to 20)
#    0.000    1.667    1.667    3.000    0.000    7.333 
#    0.000    0.833    0.000    4.000    0.000    0.000 
#    0.000    0.000    0.000    0.000    0.000    0.000 
#
# Total GULP energy -267953.081930 kJ/mol
# GULP energy per Si atom -5582.355874 kJ/mol
# Density = 0.923818 g / cm^3
# Si number density = 9.259259 Si / 1000 Ang^3
#
#
#
# Elastic Constant Matrix: (Units=GPa)
#
#
# Indices 1 2 3 4 5 6 
#
# 1 22.4984 -5.8036 24.8253 0.0000 0.0000 0.0000
# 2 -5.8036 10.7710 22.3899 0.0000 0.0000 0.0000
# 3 24.8253 22.3899 57.1877 0.0000 0.0000 0.0000
# 4 0.0000 0.0000 0.0000 34.7258 0.0000 0.0000
# 5 0.0000 0.0000 0.0000 0.0000 20.2942 0.0000
# 6 0.0000 0.0000 0.0000 0.0000 0.0000 32.2931
#
#
#
# Elastic Compliance Matrix: (Units=1/GPa)
#
#
# Indices 1 2 3 4 5 6 
#
# 1 -0.009220 -0.071382 0.031949 0.000000 0.000000 0.000000
# 2 -0.071382 -0.053901 0.052090 0.000000 0.000000 0.000000
# 3 0.031949 0.052090 -0.016777 0.000000 0.000000 0.000000
# 4 0.000000 0.000000 0.000000 0.028797 0.000000 0.000000
# 5 0.000000 0.000000 0.000000 0.000000 0.049275 0.000000
# 6 0.000000 0.000000 0.000000 0.000000 0.000000 0.030966
#
#
# Mechanical properties :
#
#
# Convention : Reuss Voigt Hill
#
# Bulk Modulus (GPa) = -18.32083 19.25337 0.46627
# Shear Modulus (GPa) = -347.95324 20.73230 -163.61047
#
# Velocity S-wave (km/s) = -13.72234 3.34959 -9.40965
# Velocity P-wave (km/s) = 16.15503 5.03776 10.85371
#
# Compressibility (1/GPa) = -0.05458269
#
# Stress axis : x y z
#
# Youngs Moduli (GPa) = -108.46341 -18.55236 -59.60445
#
# Poissons Ratio (x) = -1.32430 1.90433
# Poissons Ratio (y) = -7.74233 3.10482
# Poissons Ratio (z) = 3.46535 0.96640
#
# Static dielectric constant tensor:
#      x y z
#    x 1.621130 0.000000 0.000000 
#    y 0.000000 1.612050 0.000000 
#    z 0.000000 0.000000 1.631190 
# 
# From -- ./inp_files/57250.got.cif
#   From: 2010.05.17/outbox.ucp.g08.bks.cvg/sg74_29_cif.got.tgz:57250.got - 2010.06.11 16:37:44.
