data_PCOD9540627
_publ_section_title
;
Structure prediction by ZEFSAII (Michael W. Deem and Ramdas Pophale) SiO2 
 PCOD9540627
Probable space group: I M M A
;
_chemical_formula_sum "Si O2"
_cell_formula_units_Z 72
_cell_length_a 13.898053
_cell_length_b 25.352048
_cell_length_c 9.500918
_cell_angle_alpha 90.000000
_cell_angle_beta 90.000000
_cell_angle_gamma 90.000000
_cell_volume 3347.592466
_symmetry_space_group_name_H-M "I M M A"
_symmetry_group_IT_number 74
_symmetry_cell_setting 'orthorhombic'
loop_
_space_group_symop_operation_xyz
x,y,z
-x,1/2-y,z
x,-y,-z
-x,1/2+y,-z
-x,-y,-z
x,1/2+y,-z
-x,y,z
x,1/2-y,z
1/2+x,1/2+y,1/2+z
1/2-x,-y,1/2+z
1/2+x,1/2-y,1/2-z
1/2-x,y,1/2-z
1/2-x,1/2-y,1/2-z
1/2+x,y,1/2-z
1/2-x,1/2+y,1/2+z
1/2+x,-y,1/2+z
loop_
_atom_site_type_symbol
_atom_site_label
_atom_site_fract_x
_atom_site_fract_y
_atom_site_fract_z
Si Si1 0.296480 0.125235 0.402326
Si Si2 0.500000 0.039635 0.757355
Si Si3 0.308006 0.956973 0.384726
Si Si4 0.000000 0.411763 0.206849
Si Si5 0.500000 0.374783 0.974707
Si Si6 0.306231 0.311819 0.892428
O O1 0.250000 0.120175 0.250000
O O2 0.253746 0.085716 0.521201
O O3 0.405917 0.107305 0.377797
O O4 0.267436 0.179548 0.476374
O O5 0.406722 0.062302 0.680653
O O6 0.500000 0.065808 0.910355
O O7 0.500000 0.975576 0.737438
O O8 0.250000 0.977634 0.250000
O O9 0.331941 0.000000 0.500000
O O10 0.000000 0.382425 0.357308
O O11 0.405371 0.342861 0.924174
O O12 0.328535 0.250000 0.876904
O O13 0.250000 0.329185 0.750000
#
# Coordination Sequence:
#
# PCOD9540627 Si02
#       6
#    16   8  16   8   8  16
#     4  12  24  45  68 102 145 184 238 297 355 429
#     4  12  25  43  66  97 150 187 239 283 349 420
#     4  12  25  41  65  97 141 193 237 284 351 424
#     4  12  26  43  66 108 151 189 240 288 353 443
#     4  12  24  47  73 108 142 193 235 300 368 432
#     4  11  26  50  77 106 139 185 245 307 366 431
#
# _framework density 21.507994
#
# number of rings (size 3 to 8) (size 9 to 14) (size 15 to 20)
#    0.000    0.222    4.444    5.667    0.000    1.333 
#    0.000    1.667    0.000    0.000    0.000    0.000 
#    0.000    0.000    0.000    0.000    0.000    0.000 
#
# Total GULP energy -201025.998028 kJ/mol
# GULP energy per Si atom -5584.055501 kJ/mol
# Density = 2.145904 g / cm^3
# Si number density = 21.507994 Si / 1000 Ang^3
#
#
#
# Elastic Constant Matrix: (Units=GPa)
#
#
# Indices 1 2 3 4 5 6 
#
# 1 119.7995 38.6300 57.8231 0.0001 0.0000 0.0006
# 2 38.6300 70.8687 27.9691 -0.0008 0.0000 0.0005
# 3 57.8231 27.9691 143.3309 -0.0013 -0.0001 0.0018
# 4 0.0001 -0.0008 -0.0013 29.1219 0.0000 0.0007
# 5 0.0000 0.0000 -0.0001 0.0000 36.1575 0.0000
# 6 0.0006 0.0005 0.0018 0.0007 0.0000 67.2848
#
#
#
# Elastic Compliance Matrix: (Units=1/GPa)
#
#
# Indices 1 2 3 4 5 6 
#
# 1 0.011759 -0.004916 -0.003785 0.000000 0.000000 0.000000
# 2 -0.004916 0.017343 -0.001401 0.000000 0.000000 0.000000
# 3 -0.003785 -0.001401 0.008777 0.000000 0.000000 0.000000
# 4 0.000000 0.000000 0.000000 0.034338 0.000000 0.000000
# 5 0.000000 0.000000 0.000000 0.000000 0.027657 0.000000
# 6 0.000000 0.000000 0.000000 0.000000 0.000000 0.014862
#
#
# Mechanical properties :
#
#
# Convention : Reuss Voigt Hill
#
# Bulk Modulus (GPa) = 56.57409 64.76037 60.66723
# Shear Modulus (GPa) = 35.50311 40.48464 37.99388
#
# Velocity S-wave (km/s) = 4.06728 4.34326 4.20754
# Velocity P-wave (km/s) = 6.95830 7.43822 7.20226
#
# Compressibility (1/GPa) = 0.01767594
#
# Stress axis : x y z
#
# Youngs Moduli (GPa) = 85.03938 57.65906 113.93342
#
# Poissons Ratio (x) = 0.28347 0.43120
# Poissons Ratio (y) = 0.41807 0.15962
# Poissons Ratio (z) = 0.32184 0.08078
#
# Static dielectric constant tensor:
#      x y z
#    x 1.689610 0.000000 0.000000 
#    y 0.000000 1.885210 0.000000 
#    z 0.000000 0.000000 1.762850 
# 
# From -- ./inp_files/9217.got.cif
#   From: 2010.05.17/outbox.cif.g08.bks.cpg/sg74_5_cif.got.tgz:9217.got - 2010.06.03 17:57:02.
