data_PCOD9540250
_publ_section_title
;
Structure prediction by ZEFSAII (Michael W. Deem and Ramdas Pophale) SiO2 
 PCOD9540250
Probable space group: I M M A
;
_chemical_formula_sum "Si O2"
_cell_formula_units_Z 96
_cell_length_a 15.149136
_cell_length_b 24.356708
_cell_length_c 11.609872
_cell_angle_alpha 90.000000
_cell_angle_beta 90.000000
_cell_angle_gamma 90.000000
_cell_volume 4283.846352
_symmetry_space_group_name_H-M "I M M A"
_symmetry_group_IT_number 74
_symmetry_cell_setting 'orthorhombic'
loop_
_space_group_symop_operation_xyz
x,y,z
-x,1/2-y,z
x,-y,-z
-x,1/2+y,-z
-x,-y,-z
x,1/2+y,-z
-x,y,z
x,1/2-y,z
1/2+x,1/2+y,1/2+z
1/2-x,-y,1/2+z
1/2+x,1/2-y,1/2-z
1/2-x,y,1/2-z
1/2-x,1/2-y,1/2-z
1/2+x,y,1/2-z
1/2-x,1/2+y,1/2+z
1/2+x,-y,1/2+z
loop_
_atom_site_type_symbol
_atom_site_label
_atom_site_fract_x
_atom_site_fract_y
_atom_site_fract_z
Si Si1 0.602058 0.188674 0.129034
Si Si2 0.142513 0.311775 0.768171
Si Si3 0.145465 0.606896 0.428982
Si Si4 0.355757 0.402952 0.563549
Si Si5 0.648001 0.396916 0.292689
Si Si6 0.141492 0.514665 0.263259
O O1 0.500000 0.194561 0.101822
O O2 0.643164 0.250000 0.115852
O O3 0.611452 0.162054 0.254896
O O4 0.633292 0.138420 0.048444
O O5 0.111033 0.250000 0.765896
O O6 0.250000 0.310442 0.750000
O O7 0.111255 0.348571 0.662511
O O8 0.116363 0.344856 0.882143
O O9 0.250202 0.598472 0.420774
O O10 0.113885 0.548718 0.377056
O O11 0.368509 0.407244 0.427935
O O12 0.387871 0.451328 0.649094
O O13 0.750000 0.394556 0.250000
O O14 0.610347 0.452162 0.234229
O O15 0.250000 0.512206 0.250000
#
# Coordination Sequence:
#
# PCOD9540250 Si02
#       6
#    16  16  16  16  16  16
#     4  11  25  41  54  73 110 154 189 228 276 323
#     4   8  14  24  44  73 103 132 167 219 273 314
#     4   9  16  33  52  77 105 139 178 223 278 330
#     4   9  16  29  50  82 111 136 172 224 277 320
#     4  11  20  34  54  82 110 147 185 223 265 331
#     4   8  17  30  55  84 114 135 168 222 282 328
#
# _framework density 22.409766999999999
#
# number of rings (size 3 to 8) (size 9 to 14) (size 15 to 20)
#    0.000    2.667    1.667    3.000    0.000    2.333 
#    0.000    1.667    0.000    6.000    0.000    9.333 
#    0.000    0.000    0.000    0.000    0.000    0.000 
#
# Total GULP energy -267233.090207 kJ/mol
# GULP energy per Si atom -5567.356046 kJ/mol
# Density = 2.235876 g / cm^3
# Si number density = 22.409767 Si / 1000 Ang^3
#
#
#
# Elastic Constant Matrix: (Units=GPa)
#
#
# Indices 1 2 3 4 5 6 
#
# 1 37.3636 4.7646 -11.3732 0.0000 0.0000 0.0000
# 2 4.7646 154.8202 55.7249 0.0000 0.0000 0.0000
# 3 -11.3732 55.7249 94.0572 0.0003 0.0000 0.0000
# 4 0.0000 0.0000 0.0003 -2.8178 0.0000 0.0000
# 5 0.0000 0.0000 0.0000 0.0000 -16.0098 0.0000
# 6 0.0000 0.0000 0.0000 0.0000 0.0000 -23.1836
#
#
#
# Elastic Compliance Matrix: (Units=1/GPa)
#
#
# Indices 1 2 3 4 5 6 
#
# 1 0.028652 -0.002706 0.005068 0.000000 0.000000 0.000000
# 2 -0.002706 0.008465 -0.005343 0.000000 0.000000 0.000000
# 3 0.005068 -0.005343 0.014410 0.000001 0.000000 0.000000
# 4 0.000000 0.000000 0.000001 -0.354882 0.000000 0.000000
# 5 0.000000 0.000000 0.000000 0.000000 -0.062462 0.000000
# 6 0.000000 0.000000 0.000000 0.000000 0.000000 -0.043134
#
#
# Mechanical properties :
#
#
# Convention : Reuss Voigt Hill
#
# Bulk Modulus (GPa) = 21.94657 42.71928 32.33292
# Shear Modulus (GPa) = -12.89321 7.40608 -2.74357
#
# Velocity S-wave (km/s) = -2.40122 1.81990 -1.10767
# Velocity P-wave (km/s) = 1.45833 4.84976 3.58099
#
# Compressibility (1/GPa) = 0.04556522
#
# Stress axis : x y z
#
# Youngs Moduli (GPa) = 34.90214 118.12910 69.39733
#
# Poissons Ratio (x) = 0.31962 -0.35167
# Poissons Ratio (y) = 0.09444 0.37076
# Poissons Ratio (z) = -0.17687 0.63110
#
# Static dielectric constant tensor:
#      x y z
#    x 2.614520 0.000000 0.000000 
#    y 0.000000 1.851020 0.000000 
#    z 0.000000 0.000000 1.922370 
# 
# From -- ./inp_files/22495.got.cif
#   From: 2010.05.17/outbox.cif.g08.bks.cpg/sg74_12_cif.got.tgz:22495.got - 2010.06.03 17:57:02.
