data_PCOD9540312
_publ_section_title
;
Structure prediction by ZEFSAII (Michael W. Deem and Ramdas Pophale) SiO2 
 PCOD9540312
Probable space group: I M M A
;
_chemical_formula_sum "Si O2"
_cell_formula_units_Z 96
_cell_length_a 25.442258
_cell_length_b 18.294095
_cell_length_c 11.946232
_cell_angle_alpha 90.000000
_cell_angle_beta 90.000000
_cell_angle_gamma 90.000000
_cell_volume 5560.291075
_symmetry_space_group_name_H-M "I M M A"
_symmetry_group_IT_number 74
_symmetry_cell_setting 'orthorhombic'
loop_
_space_group_symop_operation_xyz
x,y,z
-x,1/2-y,z
x,-y,-z
-x,1/2+y,-z
-x,-y,-z
x,1/2+y,-z
-x,y,z
x,1/2-y,z
1/2+x,1/2+y,1/2+z
1/2-x,-y,1/2+z
1/2+x,1/2-y,1/2-z
1/2-x,y,1/2-z
1/2-x,1/2-y,1/2-z
1/2+x,y,1/2-z
1/2-x,1/2+y,1/2+z
1/2+x,-y,1/2+z
loop_
_atom_site_type_symbol
_atom_site_label
_atom_site_fract_x
_atom_site_fract_y
_atom_site_fract_z
Si Si1 0.866928 0.333403 0.913659
Si Si2 0.827455 0.664897 0.510001
Si Si3 0.062162 0.162729 0.112955
Si Si4 0.687103 0.575015 0.218490
Si Si5 0.786470 0.830377 0.880826
Si Si6 0.641704 0.585521 0.779980
O O1 0.872886 0.250000 0.872275
O O2 0.844584 0.384500 0.817486
O O3 0.918379 0.354245 0.986036
O O4 0.823034 0.334096 0.010488
O O5 0.841101 0.750000 0.492339
O O6 0.819626 0.622716 0.393892
O O7 0.771440 0.661687 0.572850
O O8 0.864439 0.625258 0.600478
O O9 0.075072 0.250000 0.131327
O O10 0.093812 0.111554 0.199843
O O11 0.000000 0.154156 0.124001
O O12 0.750000 0.568061 0.250000
O O13 0.656903 0.498467 0.201380
O O14 0.793772 0.750000 0.830105
O O15 0.808108 0.886135 0.791286
#
# Coordination Sequence:
#
# PCOD9540312 Si02
#       6
#    16  16  16  16  16  16
#     4   9  18  34  54  80 109 144 193 233 270 329
#     4  11  21  34  53  74 106 152 196 229 266 329
#     4   9  19  39  66  88 107 140 190 246 295 332
#     4  12  23  34  50  77 119 161 186 219 275 345
#     4   9  17  31  51  73 102 141 183 226 267 323
#     4  11  22  34  51  82 113 140 180 237 291 336
#
# _framework density 17.265284000000001
#
# number of rings (size 3 to 8) (size 9 to 14) (size 15 to 20)
#    0.000    1.833    1.667    5.000    0.000    4.667 
#    0.000    1.667    0.000    3.000    0.000    2.333 
#    0.000    0.000    0.000    0.000    0.000    0.000 
#
# Total GULP energy -267477.143288 kJ/mol
# GULP energy per Si atom -5572.440485 kJ/mol
# Density = 1.722599 g / cm^3
# Si number density = 17.265284 Si / 1000 Ang^3
#
#
#
# Elastic Constant Matrix: (Units=GPa)
#
#
# Indices 1 2 3 4 5 6 
#
# 1 88.2160 39.1906 37.4013 0.0000 0.0000 0.0000
# 2 39.1906 127.4777 71.2122 0.0000 0.0000 0.0000
# 3 37.4013 71.2122 102.8915 0.0000 0.0000 0.0000
# 4 0.0000 0.0000 0.0000 26.2034 0.0000 0.0000
# 5 0.0000 0.0000 0.0000 0.0000 17.2901 0.0000
# 6 0.0000 0.0000 0.0000 0.0000 0.0000 24.7446
#
#
#
# Elastic Compliance Matrix: (Units=1/GPa)
#
#
# Indices 1 2 3 4 5 6 
#
# 1 0.013820 -0.002352 -0.003396 0.000000 0.000000 0.000000
# 2 -0.002352 0.013189 -0.008274 0.000000 0.000000 0.000000
# 3 -0.003396 -0.008274 0.016680 0.000000 0.000000 0.000000
# 4 0.000000 0.000000 0.000000 0.038163 0.000000 0.000000
# 5 0.000000 0.000000 0.000000 0.000000 0.057837 0.000000
# 6 0.000000 0.000000 0.000000 0.000000 0.000000 0.040413
#
#
# Mechanical properties :
#
#
# Convention : Reuss Voigt Hill
#
# Bulk Modulus (GPa) = 63.91151 68.24370 66.07761
# Shear Modulus (GPa) = 23.43453 25.03303 24.23378
#
# Velocity S-wave (km/s) = 3.68818 3.81189 3.75055
# Velocity P-wave (km/s) = 7.43200 7.68026 7.55715
#
# Compressibility (1/GPa) = 0.01564663
#
# Stress axis : x y z
#
# Youngs Moduli (GPa) = 72.35661 75.81882 59.95294
#
# Poissons Ratio (x) = 0.17830 0.20361
# Poissons Ratio (y) = 0.17016 0.49603
# Poissons Ratio (z) = 0.24573 0.62730
#
# Static dielectric constant tensor:
#      x y z
#    x 1.598180 0.000000 0.000000 
#    y 0.000000 1.621550 0.000000 
#    z 0.000000 0.000000 1.588090 
# 
# From -- ./inp_files/22682.got.cif
#   From: 2010.05.17/outbox.cif.g08.bks.cpg/sg74_12_cif.got.tgz:22682.got - 2010.06.03 17:57:02.
