data_PCOD9540599
_publ_section_title
;
Structure prediction by ZEFSAII (Michael W. Deem and Ramdas Pophale) SiO2 
 PCOD9540599
Probable space group: I M M A
;
_chemical_formula_sum "Si O2"
_cell_formula_units_Z 48
_cell_length_a 22.349253
_cell_length_b 21.588891
_cell_length_c 5.089923
_cell_angle_alpha 90.000000
_cell_angle_beta 90.000000
_cell_angle_gamma 90.000000
_cell_volume 2455.865385
_symmetry_space_group_name_H-M "I M M A"
_symmetry_group_IT_number 74
_symmetry_cell_setting 'orthorhombic'
loop_
_space_group_symop_operation_xyz
x,y,z
-x,1/2-y,z
x,-y,-z
-x,1/2+y,-z
-x,-y,-z
x,1/2+y,-z
-x,y,z
x,1/2-y,z
1/2+x,1/2+y,1/2+z
1/2-x,-y,1/2+z
1/2+x,1/2-y,1/2-z
1/2-x,y,1/2-z
1/2-x,1/2-y,1/2-z
1/2+x,y,1/2-z
1/2-x,1/2+y,1/2+z
1/2+x,-y,1/2+z
loop_
_atom_site_type_symbol
_atom_site_label
_atom_site_fract_x
_atom_site_fract_y
_atom_site_fract_z
Si Si1 0.361346 0.378708 0.939266
Si Si2 0.794166 0.250000 0.500542
Si Si3 0.929673 0.926522 0.949221
Si Si4 0.750000 0.040042 0.750000
O O1 0.336314 0.310229 0.990115
O O2 0.407650 0.387556 0.700509
O O3 0.304081 0.418804 0.854267
O O4 0.391157 0.406160 0.199637
O O5 0.750000 0.250000 0.750000
O O6 0.750000 0.250000 0.250000
O O7 0.000000 0.916370 0.900237
O O8 0.921459 0.000000 0.000000
O O9 0.729683 0.000000 0.500000
#
# Coordination Sequence:
#
# PCOD9540599 Si02
#       4
#    16   8  16   8
#     4  12  24  43  66  96 130 175 220 262 328 388
#     4  12  26  46  65  92 135 180 212 263 325 390
#     4  11  24  44  68  97 133 172 215 270 330 384
#     4  12  24  37  64  99 132 162 212 278 328 390
#
# _framework density 19.545044000000001
#
# number of rings (size 3 to 8) (size 9 to 14) (size 15 to 20)
#    0.000    0.333    1.667    9.000    2.333    2.667 
#    0.000    5.000    0.000    0.000    0.000    0.000 
#    0.000    0.000    0.000    0.000    0.000    0.000 
#
# Total GULP energy -134401.967121 kJ/mol
# GULP energy per Si atom -5600.081963 kJ/mol
# Density = 1.950056 g / cm^3
# Si number density = 19.545044 Si / 1000 Ang^3
#
#
#
# Elastic Constant Matrix: (Units=GPa)
#
#
# Indices 1 2 3 4 5 6 
#
# 1 144.7594 102.5058 72.8841 0.0000 0.0000 0.0000
# 2 102.5058 169.7623 87.9620 0.0000 0.0000 0.0000
# 3 72.8841 87.9620 183.9765 0.0000 0.0000 0.0000
# 4 0.0000 0.0000 0.0000 20.5715 0.0000 0.0000
# 5 0.0000 0.0000 0.0000 0.0000 31.2544 0.0000
# 6 0.0000 0.0000 0.0000 0.0000 0.0000 141.7493
#
#
#
# Elastic Compliance Matrix: (Units=1/GPa)
#
#
# Indices 1 2 3 4 5 6 
#
# 1 0.012494 -0.006619 -0.001785 0.000000 0.000000 0.000000
# 2 -0.006619 0.011337 -0.002798 0.000000 0.000000 0.000000
# 3 -0.001785 -0.002798 0.007480 0.000000 0.000000 0.000000
# 4 0.000000 0.000000 0.000000 0.048611 0.000000 0.000000
# 5 0.000000 0.000000 0.000000 0.000000 0.031996 0.000000
# 6 0.000000 0.000000 0.000000 0.000000 0.000000 0.007055
#
#
# Mechanical properties :
#
#
# Convention : Reuss Voigt Hill
#
# Bulk Modulus (GPa) = 112.27151 113.91135 113.09143
# Shear Modulus (GPa) = 34.63895 54.39145 44.51520
#
# Velocity S-wave (km/s) = 4.21439 5.28102 4.77757
# Velocity P-wave (km/s) = 9.01380 9.77720 9.40325
#
# Compressibility (1/GPa) = 0.00890698
#
# Stress axis : x y z
#
# Youngs Moduli (GPa) = 80.04010 88.20442 133.68191
#
# Poissons Ratio (x) = 0.58384 0.23859
# Poissons Ratio (y) = 0.52980 0.37408
# Poissons Ratio (z) = 0.14285 0.24682
#
# Static dielectric constant tensor:
#      x y z
#    x 1.666450 0.000000 0.000000 
#    y 0.000000 1.677100 0.000000 
#    z 0.000000 0.000000 1.678910 
# 
# From -- ./inp_files/2698.got.cif
#   From: 2010.05.17/outbox.cif.g08.bks.cpg/sg74_2_cif.got.tgz:2698.got - 2010.06.03 17:57:02.
