data_PCOD9540045
_publ_section_title
;
Structure prediction by ZEFSAII (Michael W. Deem and Ramdas Pophale) SiO2 
 PCOD9540045
Probable space group: I M M A
;
_chemical_formula_sum "Si O2"
_cell_formula_units_Z 48
_cell_length_a 14.498272
_cell_length_b 9.999305
_cell_length_c 14.815684
_cell_angle_alpha 90.000000
_cell_angle_beta 90.000000
_cell_angle_gamma 90.000000
_cell_volume 2147.868878
_symmetry_space_group_name_H-M "I M M A"
_symmetry_group_IT_number 74
_symmetry_cell_setting 'orthorhombic'
loop_
_space_group_symop_operation_xyz
x,y,z
-x,1/2-y,z
x,-y,-z
-x,1/2+y,-z
-x,-y,-z
x,1/2+y,-z
-x,y,z
x,1/2-y,z
1/2+x,1/2+y,1/2+z
1/2-x,-y,1/2+z
1/2+x,1/2-y,1/2-z
1/2-x,y,1/2-z
1/2-x,1/2-y,1/2-z
1/2+x,y,1/2-z
1/2-x,1/2+y,1/2+z
1/2+x,-y,1/2+z
loop_
_atom_site_type_symbol
_atom_site_label
_atom_site_fract_x
_atom_site_fract_y
_atom_site_fract_z
Si Si1 0.000000 0.597782 0.282245
Si Si2 0.845065 0.911348 0.416420
Si Si3 0.794677 0.393727 0.149964
Si Si4 0.000000 0.033920 0.105962
O O1 0.908614 0.546009 0.331280
O O2 0.000000 0.589259 0.175507
O O3 0.000000 0.750000 0.309451
O O4 0.844926 0.750000 0.427385
O O5 0.880965 0.000000 0.500000
O O6 0.744802 0.973474 0.396924
O O7 0.762553 0.250000 0.109787
O O8 0.750000 0.394788 0.250000
O O9 0.904769 0.395868 0.136441
O O10 0.000000 0.000000 0.000000
#
# Coordination Sequence:
#
# PCOD9540045 Si02
#       4
#     8  16  16   8
#     4  10  23  42  66 100 142 186 232 292 359 428
#     4  11  23  43  70 102 139 182 236 293 359 429
#     4  11  24  44  70 102 142 186 238 296 359 428
#     4  12  25  44  70 104 143 191 240 293 354 434
#
# _framework density 22.347732000000001
#
# number of rings (size 3 to 8) (size 9 to 14) (size 15 to 20)
#    0.000    1.000    3.333    3.000    0.000    3.333 
#    0.000    2.500    0.000    0.000    0.000    0.000 
#    0.000    0.000    0.000    0.000    0.000    0.000 
#
# Total GULP energy -133602.723159 kJ/mol
# GULP energy per Si atom -5566.780132 kJ/mol
# Density = 2.229687 g / cm^3
# Si number density = 22.347732 Si / 1000 Ang^3
#
#
#
# Elastic Constant Matrix: (Units=GPa)
#
#
# Indices 1 2 3 4 5 6 
#
# 1 148.1665 44.0021 60.0780 0.0000 0.0000 0.0000
# 2 44.0021 153.1803 42.6157 0.0000 0.0000 0.0000
# 3 60.0780 42.6157 151.2845 0.0000 0.0000 0.0000
# 4 0.0000 0.0000 0.0000 17.6143 0.0000 0.0000
# 5 0.0000 0.0000 0.0000 0.0000 31.3733 0.0000
# 6 0.0000 0.0000 0.0000 0.0000 0.0000 -7.5128
#
#
#
# Elastic Compliance Matrix: (Units=1/GPa)
#
#
# Indices 1 2 3 4 5 6 
#
# 1 0.008395 -0.001610 -0.002880 0.000000 0.000000 0.000000
# 2 -0.001610 0.007392 -0.001443 0.000000 0.000000 0.000000
# 3 -0.002880 -0.001443 0.008160 0.000000 0.000000 0.000000
# 4 0.000000 0.000000 0.000000 0.056772 0.000000 0.000000
# 5 0.000000 0.000000 0.000000 0.000000 0.031874 0.000000
# 6 0.000000 0.000000 0.000000 0.000000 0.000000 -0.133107
#
#
# Mechanical properties :
#
#
# Convention : Reuss Voigt Hill
#
# Bulk Modulus (GPa) = 82.77515 82.89142 82.83329
# Shear Modulus (GPa) = -1082.53828 28.69067 -526.92381
#
# Velocity S-wave (km/s) = -22.03311 3.58694 -15.37192
# Velocity P-wave (km/s) = 24.70136 7.37069 16.67079
#
# Compressibility (1/GPa) = 0.01208092
#
# Stress axis : x y z
#
# Youngs Moduli (GPa) = 119.11446 135.27716 122.54395
#
# Poissons Ratio (x) = 0.21783 0.35297
# Poissons Ratio (y) = 0.19181 0.17681
# Poissons Ratio (z) = 0.34309 0.19519
#
# Static dielectric constant tensor:
#      x y z
#    x 1.934550 0.000000 0.000000 
#    y 0.000000 1.808370 0.000000 
#    z 0.000000 0.000000 1.852890 
# 
# From -- ./inp_files/31458.got.cif
#   From: 2010.05.17/outbox.cif.g08.bks.cpg/sg74_16_cif.got.tgz:31458.got - 2010.06.03 17:57:02.
