data_PCOD9540558
_publ_section_title
;
Structure prediction by ZEFSAII (Michael W. Deem and Ramdas Pophale) SiO2 
 PCOD9540558
Probable space group: I M M A
;
_chemical_formula_sum "Si O2"
_cell_formula_units_Z 64
_cell_length_a 34.475065
_cell_length_b 15.523749
_cell_length_c 5.091229
_cell_angle_alpha 90.000000
_cell_angle_beta 90.000000
_cell_angle_gamma 90.000000
_cell_volume 2724.735421
_symmetry_space_group_name_H-M "I M M A"
_symmetry_group_IT_number 74
_symmetry_cell_setting 'orthorhombic'
loop_
_space_group_symop_operation_xyz
x,y,z
-x,1/2-y,z
x,-y,-z
-x,1/2+y,-z
-x,-y,-z
x,1/2+y,-z
-x,y,z
x,1/2-y,z
1/2+x,1/2+y,1/2+z
1/2-x,-y,1/2+z
1/2+x,1/2-y,1/2-z
1/2-x,y,1/2-z
1/2-x,1/2-y,1/2-z
1/2+x,y,1/2-z
1/2-x,1/2+y,1/2+z
1/2+x,-y,1/2+z
loop_
_atom_site_type_symbol
_atom_site_label
_atom_site_fract_x
_atom_site_fract_y
_atom_site_fract_z
Si Si1 0.955142 0.147662 0.178342
Si Si2 0.793769 0.591014 0.654450
Si Si3 0.850879 0.000000 0.000000
Si Si4 0.340546 0.250000 0.947914
Si Si5 0.094064 0.395516 0.660427
O O1 0.953650 0.250000 0.239860
O O2 0.935341 0.097785 0.418409
O O3 0.000000 0.123249 0.143892
O O4 0.931094 0.132114 0.913965
O O5 0.795429 0.500000 0.500000
O O6 0.750000 0.602526 0.750000
O O7 0.823296 0.576762 0.899239
O O8 0.808296 0.673184 0.496495
O O9 0.879012 0.972167 0.233104
O O10 0.374600 0.323709 0.916222
#
# Coordination Sequence:
#
# PCOD9540558 Si02
#       5
#    16  16   8   8  16
#     4  11  23  43  73 110 153 200 255 322 388 464
#     4  12  26  51  75 115 158 208 263 330 404 477
#     4  12  28  46  77 104 164 202 264 328 405 464
#     4  12  25  46  80 113 151 200 268 322 389 468
#     4  12  25  45  74 115 149 203 262 318 386 467
#
# _framework density 23.488520999999999
#
# number of rings (size 3 to 8) (size 9 to 14) (size 15 to 20)
#    0.000    0.250    6.250    2.625    0.000    3.000 
#    0.000    5.625    0.000    0.000    0.000    0.000 
#    0.000    0.000    0.000    0.000    0.000    0.000 
#
# Total GULP energy -178229.470298 kJ/mol
# GULP energy per Si atom -5569.670947 kJ/mol
# Density = 2.343506 g / cm^3
# Si number density = 23.488521 Si / 1000 Ang^3
#
#
#
# Elastic Constant Matrix: (Units=GPa)
#
#
# Indices 1 2 3 4 5 6 
#
# 1 232.5472 69.8589 68.8892 0.0001 -0.0002 -0.0002
# 2 69.8589 111.4062 26.0618 0.0001 -0.0008 -0.0003
# 3 68.8892 26.0618 95.3261 0.0030 -0.0033 -0.0031
# 4 0.0001 0.0001 0.0030 7.2373 -0.0004 -0.0002
# 5 -0.0002 -0.0008 -0.0033 -0.0004 21.4719 0.0006
# 6 -0.0002 -0.0003 -0.0031 -0.0002 0.0006 37.1020
#
#
#
# Elastic Compliance Matrix: (Units=1/GPa)
#
#
# Indices 1 2 3 4 5 6 
#
# 1 0.006337 -0.003101 -0.003732 0.000001 -0.000001 0.000000
# 2 -0.003101 0.011107 -0.000796 0.000000 0.000000 0.000000
# 3 -0.003732 -0.000796 0.013405 -0.000005 0.000002 0.000001
# 4 0.000001 0.000000 -0.000005 0.138173 0.000002 0.000001
# 5 -0.000001 0.000000 0.000002 0.000002 0.046572 -0.000001
# 6 0.000000 0.000000 0.000001 0.000001 -0.000001 0.026953
#
#
# Mechanical properties :
#
#
# Convention : Reuss Voigt Hill
#
# Bulk Modulus (GPa) = 64.13608 85.43326 74.78467
# Shear Modulus (GPa) = 19.01133 31.46021 25.23577
#
# Velocity S-wave (km/s) = 2.84806 3.66373 3.28134
# Velocity P-wave (km/s) = 6.17898 7.37215 6.80178
#
# Compressibility (1/GPa) = 0.01559185
#
# Stress axis : x y z
#
# Youngs Moduli (GPa) = 157.79660 90.03556 74.59995
#
# Poissons Ratio (x) = 0.27919 0.27841
# Poissons Ratio (y) = 0.48930 0.05936
# Poissons Ratio (z) = 0.58890 0.07164
#
# Static dielectric constant tensor:
#      x y z
#    x 1.811250 0.000000 0.000000 
#    y 0.000000 1.898250 0.000000 
#    z 0.000000 0.000000 1.956170 
# 
# From -- ./inp_files/4939.got.cif
#   From: 2010.05.17/outbox.cif.g08.bks.cpg/sg74_3_cif.got.tgz:4939.got - 2010.06.03 17:57:02.
