data_PCOD9540905
_publ_section_title
;
Structure prediction by ZEFSAII (Michael W. Deem and Ramdas Pophale) SiO2 
 PCOD9540905
Probable space group: I M M A
;
_chemical_formula_sum "Si O2"
_cell_formula_units_Z 48
_cell_length_a 9.000000
_cell_length_b 24.000000
_cell_length_c 24.000000
_cell_angle_alpha 90.000000
_cell_angle_beta 90.000000
_cell_angle_gamma 90.000000
_cell_volume 5184.000000
_symmetry_space_group_name_H-M "I M M A"
_symmetry_group_IT_number 74
_symmetry_cell_setting 'orthorhombic'
loop_
_space_group_symop_operation_xyz
x,y,z
-x,1/2-y,z
x,-y,-z
-x,1/2+y,-z
-x,-y,-z
x,1/2+y,-z
-x,y,z
x,1/2-y,z
1/2+x,1/2+y,1/2+z
1/2-x,-y,1/2+z
1/2+x,1/2-y,1/2-z
1/2-x,y,1/2-z
1/2-x,1/2-y,1/2-z
1/2+x,y,1/2-z
1/2-x,1/2+y,1/2+z
1/2+x,-y,1/2+z
loop_
_atom_site_type_symbol
_atom_site_label
_atom_site_fract_x
_atom_site_fract_y
_atom_site_fract_z
Si Si1 0.332635 0.183406 0.694047
Si Si2 0.174022 0.934089 0.008365
Si Si3 0.177996 0.501370 0.690875
Si Si4 0.821914 0.902118 0.603754
Si Si5 0.176427 0.895441 0.379183
Si Si6 0.322294 0.314033 0.194282
O O1 0.500000 0.161646 0.693667
O O2 0.336905 0.250000 0.694768
O O3 0.250000 0.164969 0.750000
O O4 0.244963 0.161994 0.640957
O O5 0.262123 0.914381 0.062025
O O6 0.000000 0.923589 0.015871
O O7 0.236246 0.905029 0.953525
O O8 0.196620 0.000000 0.000000
O O9 0.250000 0.513078 0.750000
O O10 0.218016 0.546054 0.643537
O O11 0.221906 0.441382 0.666786
O O12 0.000000 0.503241 0.696904
O O13 0.784407 0.848015 0.639614
O O14 0.000000 0.904212 0.594054
O O15 0.000000 0.893206 0.380554
O O16 0.500000 0.316094 0.200821
O O17 0.274791 0.250000 0.189397
O O18 0.250000 0.338367 0.250000
#
# Coordination Sequence:
#
# PCOD9540905 Si02
#       6
#    16  16  16  16  16  16
#     4  10  21  38  60  86 117 151 188 231 279 333
#     4  11  23  38  57  81 108 145 189 235 283 337
#     4  10  21  33  50  78 109 141 176 221 277 332
#     4  10  20  36  55  77 109 146 185 228 276 332
#     4  11  22  37  58  82 111 148 188 231 280 339
#     4   9  18  33  55  82 111 145 183 223 270 323
#
# _framework density 9.2592590000000001
#
# number of rings (size 3 to 8) (size 9 to 14) (size 15 to 20)
#    0.000    1.833    1.667    2.500    0.000    5.667 
#    0.000    0.833    0.000    3.000    0.000    0.000 
#    0.000    0.000    0.000    0.000    0.000    0.000 
#
# Total GULP energy -267925.840080 kJ/mol
# GULP energy per Si atom -5581.788335 kJ/mol
# Density = 0.923818 g / cm^3
# Si number density = 9.259259 Si / 1000 Ang^3
#
#
#
# Elastic Constant Matrix: (Units=GPa)
#
#
# Indices 1 2 3 4 5 6 
#
# 1 51.7987 39.2445 68.3016 0.0000 0.0000 0.0000
# 2 39.2445 35.5937 10.2857 0.0000 0.0000 0.0000
# 3 68.3016 10.2857 -34.0345 0.0000 0.0000 0.0000
# 4 0.0000 0.0000 0.0000 -24.4912 0.0000 0.0000
# 5 0.0000 0.0000 0.0000 0.0000 35.6518 0.0000
# 6 0.0000 0.0000 0.0000 0.0000 0.0000 -9.0120
#
#
#
# Elastic Compliance Matrix: (Units=1/GPa)
#
#
# Indices 1 2 3 4 5 6 
#
# 1 0.010395 -0.016084 0.015999 0.000000 0.000000 0.000000
# 2 -0.016084 0.050726 -0.016948 0.000000 0.000000 0.000000
# 3 0.015999 -0.016948 -0.002396 0.000000 0.000000 0.000000
# 4 0.000000 0.000000 0.000000 -0.040831 0.000000 0.000000
# 5 0.000000 0.000000 0.000000 0.000000 0.028049 0.000000
# 6 0.000000 0.000000 0.000000 0.000000 0.000000 -0.110963
#
#
# Mechanical properties :
#
#
# Convention : Reuss Voigt Hill
#
# Bulk Modulus (GPa) = 40.55248 32.11351 36.33299
# Shear Modulus (GPa) = -219.93851 -3.86855 -111.90353
#
# Velocity S-wave (km/s) = -10.90984 -1.44691 -7.78197
# Velocity P-wave (km/s) = 11.69417 3.81936 7.81556
#
# Compressibility (1/GPa) = 0.02465940
#
# Stress axis : x y z
#
# Youngs Moduli (GPa) = 96.20323 19.71358 -417.42762
#
# Poissons Ratio (x) = 0.31708 6.67862
# Poissons Ratio (y) = 1.54736 -7.07467
# Poissons Ratio (z) = -1.53920 0.33411
#
# Static dielectric constant tensor:
#      x y z
#    x 1.616210 0.000000 0.000000 
#    y 0.000000 1.678610 0.000000 
#    z 0.000000 0.000000 1.576660 
# 
# From -- ./inp_files/49063.got.cif
#   From: 2010.05.17/outbox.ucp.g08.bks.cvg/sg74_25_cif.got.tgz:49063.got - 2010.06.11 16:37:44.
