data_PCOD9540392
_publ_section_title
;
Structure prediction by ZEFSAII (Michael W. Deem and Ramdas Pophale) SiO2 
 PCOD9540392
Probable space group: I M M A
;
_chemical_formula_sum "Si O2"
_cell_formula_units_Z 100
_cell_length_a 14.523548
_cell_length_b 15.382809
_cell_length_c 17.742000
_cell_angle_alpha 90.000000
_cell_angle_beta 90.000000
_cell_angle_gamma 90.000000
_cell_volume 3963.792823
_symmetry_space_group_name_H-M "I M M A"
_symmetry_group_IT_number 74
_symmetry_cell_setting 'orthorhombic'
loop_
_space_group_symop_operation_xyz
x,y,z
-x,1/2-y,z
x,-y,-z
-x,1/2+y,-z
-x,-y,-z
x,1/2+y,-z
-x,y,z
x,1/2-y,z
1/2+x,1/2+y,1/2+z
1/2-x,-y,1/2+z
1/2+x,1/2-y,1/2-z
1/2-x,y,1/2-z
1/2-x,1/2-y,1/2-z
1/2+x,y,1/2-z
1/2-x,1/2+y,1/2+z
1/2+x,-y,1/2+z
loop_
_atom_site_type_symbol
_atom_site_label
_atom_site_fract_x
_atom_site_fract_y
_atom_site_fract_z
Si Si1 0.320602 0.648781 0.551541
Si Si2 0.642083 0.658104 0.128769
Si Si3 0.357525 0.657319 0.725008
Si Si4 0.379225 0.098297 0.031160
Si Si5 0.362941 0.970460 0.252848
Si Si6 0.636240 0.349668 0.610167
Si Si7 0.500000 0.750000 0.902068
O O1 0.293338 0.750000 0.537814
O O2 0.363657 0.647926 0.634134
O O3 0.228253 0.591963 0.553157
O O4 0.379558 0.625749 0.477363
O O5 0.620559 0.750000 0.165712
O O6 0.605771 0.651958 0.045428
O O7 0.607565 0.582278 0.180475
O O8 0.752544 0.652169 0.119664
O O9 0.398597 0.750000 0.747817
O O10 0.250000 0.660077 0.750000
O O11 0.396032 0.567966 0.754257
O O12 0.422123 0.168244 0.090056
O O13 0.403714 0.000000 0.000000
O O14 0.250000 0.971478 0.250000
O O15 0.393134 0.919647 0.327957
O O16 0.604954 0.250000 0.623473
#
# Coordination Sequence:
#
# PCOD9540392 Si02
#       7
#    16  16  16  16  16  16   4
#     4   9  17  30  43  62  87 120 157 191 231 267
#     4   9  16  30  44  64  85 108 140 183 235 270
#     4   9  18  27  36  54  86 117 151 191 212 254
#     4  11  22  32  54  66  84 117 153 202 240 287
#     4   9  16  23  39  60  82 110 138 181 214 261
#     4   8  14  23  37  59  83 107 141 181 214 258
#     4  12  22  44  44  70  88 108 158 208 258 262
#
# _framework density 25.228363000000002
#
# number of rings (size 3 to 8) (size 9 to 14) (size 15 to 20)
#    0.000    2.720    1.600    1.680    8.960    1.920 
#    0.000    0.000    0.000    0.000    0.000    0.000 
#    0.000    0.000    0.000    0.000    0.000    6.400 
#
# Total GULP energy -278569.193058 kJ/mol
# GULP energy per Si atom -5571.383861 kJ/mol
# Density = 2.517094 g / cm^3
# Si number density = 25.228363 Si / 1000 Ang^3
#
#
#
# Elastic Constant Matrix: (Units=GPa)
#
#
# Indices 1 2 3 4 5 6 
#
# 1 81.8952 6.2696 -11.7592 0.0000 0.0000 0.0000
# 2 6.2696 197.0631 50.9350 0.0000 0.0000 0.0000
# 3 -11.7592 50.9350 118.0816 0.0000 0.0000 0.0000
# 4 0.0000 0.0000 0.0000 90.3663 0.0000 0.0000
# 5 0.0000 0.0000 0.0000 0.0000 -563.2853 0.0000
# 6 0.0000 0.0000 0.0000 0.0000 0.0000 -18.3183
#
#
#
# Elastic Compliance Matrix: (Units=1/GPa)
#
#
# Indices 1 2 3 4 5 6 
#
# 1 0.012502 -0.000810 0.001594 0.000000 0.000000 0.000000
# 2 -0.000810 0.005764 -0.002567 0.000000 0.000000 0.000000
# 3 0.001594 -0.002567 0.009735 0.000000 0.000000 0.000000
# 4 0.000000 0.000000 0.000000 0.011066 0.000000 0.000000
# 5 0.000000 0.000000 0.000000 0.000000 -0.001775 0.000000
# 6 0.000000 0.000000 0.000000 0.000000 0.000000 -0.054590
#
#
# Mechanical properties :
#
#
# Convention : Reuss Voigt Hill
#
# Bulk Modulus (GPa) = 40.92434 54.21452 47.56943
# Shear Modulus (GPa) = -894.54040 -74.80783 -484.67412
#
# Velocity S-wave (km/s) = -18.85065 -5.45130 -13.87558
# Velocity P-wave (km/s) = 21.39017 4.25277 15.42118
#
# Compressibility (1/GPa) = 0.02443534
#
# Stress axis : x y z
#
# Youngs Moduli (GPa) = 79.98944 173.49851 102.72516
#
# Poissons Ratio (x) = 0.14050 -0.16377
# Poissons Ratio (y) = 0.06478 0.26368
# Poissons Ratio (z) = -0.12753 0.44535
#
# Static dielectric constant tensor:
#      x y z
#    x 2.111870 0.000000 0.000000 
#    y 0.000000 1.979470 0.000000 
#    z 0.000000 0.000000 1.991980 
# 
# From -- ./inp_files/46800.got.cif
#   From: 2010.05.17/outbox.cif.g08.bks.cpg/sg74_24_cif.got.tgz:46800.got - 2010.06.03 17:57:02.
