data_PCOD9540844
_publ_section_title
;
Structure prediction by ZEFSAII (Michael W. Deem and Ramdas Pophale) SiO2 
 PCOD9540844
Probable space group: I M M A
;
_chemical_formula_sum "Si O2"
_cell_formula_units_Z 48
_cell_length_a 24.000000
_cell_length_b 18.000000
_cell_length_c 12.000000
_cell_angle_alpha 90.000000
_cell_angle_beta 90.000000
_cell_angle_gamma 90.000000
_cell_volume 5184.000000
_symmetry_space_group_name_H-M "I M M A"
_symmetry_group_IT_number 74
_symmetry_cell_setting 'orthorhombic'
loop_
_space_group_symop_operation_xyz
x,y,z
-x,1/2-y,z
x,-y,-z
-x,1/2+y,-z
-x,-y,-z
x,1/2+y,-z
-x,y,z
x,1/2-y,z
1/2+x,1/2+y,1/2+z
1/2-x,-y,1/2+z
1/2+x,1/2-y,1/2-z
1/2-x,y,1/2-z
1/2-x,1/2-y,1/2-z
1/2+x,y,1/2-z
1/2-x,1/2+y,1/2+z
1/2+x,-y,1/2+z
loop_
_atom_site_type_symbol
_atom_site_label
_atom_site_fract_x
_atom_site_fract_y
_atom_site_fract_z
Si Si1 0.562081 0.567173 0.887850
Si Si2 0.320596 0.087583 0.472862
Si Si3 0.879472 0.663619 0.780630
Si Si4 0.376604 0.914286 0.093266
Si Si5 0.207125 0.661802 0.578558
Si Si6 0.313510 0.838919 0.287250
O O1 0.500000 0.536307 0.880558
O O2 0.572045 0.627305 0.792907
O O3 0.608359 0.500749 0.880072
O O4 0.572524 0.604175 0.009222
O O5 0.368507 0.112948 0.388003
O O6 0.265469 0.120289 0.413358
O O7 0.323201 0.130744 0.589450
O O8 0.318274 0.000000 0.500000
O O9 0.887732 0.750000 0.810022
O O10 0.827668 0.660820 0.692815
O O11 0.360311 0.873875 0.206708
O O12 0.325707 0.886352 0.014433
O O13 0.213084 0.750000 0.546255
O O14 0.316473 0.750000 0.283018
O O15 0.250000 0.860201 0.250000
#
# Coordination Sequence:
#
# PCOD9540844 Si02
#       6
#    16  16  16  16  16  16
#     4  10  22  40  63  90 116 148 198 262 316 346
#     4  12  24  34  55  84 122 163 200 237 282 351
#     4  10  22  39  59  83 114 153 203 254 301 347
#     4  10  19  34  59  87 121 157 195 234 290 352
#     4  10  20  35  56  83 121 162 198 238 281 343
#     4  11  22  36  55  82 125 169 197 226 276 354
#
# _framework density 9.2592590000000001
#
# number of rings (size 3 to 8) (size 9 to 14) (size 15 to 20)
#    0.000    1.500    1.667    4.500    4.667    3.667 
#    0.000    0.000    0.000   11.500    0.000    0.000 
#    0.000    0.000    0.000    0.000    0.000    0.000 
#
# Total GULP energy -267423.274588 kJ/mol
# GULP energy per Si atom -5571.318221 kJ/mol
# Density = 0.923818 g / cm^3
# Si number density = 9.259259 Si / 1000 Ang^3
#
#
#
# Elastic Constant Matrix: (Units=GPa)
#
#
# Indices 1 2 3 4 5 6 
#
# 1 47.5717 41.3025 22.1207 0.0000 0.0000 0.0000
# 2 41.3025 111.4808 28.7459 0.0000 0.0000 0.0000
# 3 22.1207 28.7459 88.7673 0.0000 0.0000 0.0000
# 4 0.0000 0.0000 0.0000 30.1299 0.0000 0.0000
# 5 0.0000 0.0000 0.0000 0.0000 5.0203 0.0000
# 6 0.0000 0.0000 0.0000 0.0000 0.0000 14.8533
#
#
#
# Elastic Compliance Matrix: (Units=1/GPa)
#
#
# Indices 1 2 3 4 5 6 
#
# 1 0.032624 -0.010901 -0.004600 0.000000 0.000000 0.000000
# 2 -0.010901 0.013430 -0.001633 0.000000 0.000000 0.000000
# 3 -0.004600 -0.001633 0.012940 0.000000 0.000000 0.000000
# 4 0.000000 0.000000 0.000000 0.033190 0.000000 0.000000
# 5 0.000000 0.000000 0.000000 0.000000 0.199191 0.000000
# 6 0.000000 0.000000 0.000000 0.000000 0.000000 0.067325
#
#
# Mechanical properties :
#
#
# Convention : Reuss Voigt Hill
#
# Bulk Modulus (GPa) = 40.44030 48.01758 44.22894
# Shear Modulus (GPa) = 12.46235 20.37742 16.41989
#
# Velocity S-wave (km/s) = 2.59697 3.32080 2.98094
# Velocity P-wave (km/s) = 5.55676 6.37882 5.98193
#
# Compressibility (1/GPa) = 0.02472781
#
# Stress axis : x y z
#
# Youngs Moduli (GPa) = 30.65224 74.46151 77.27763
#
# Poissons Ratio (x) = 0.81169 0.35546
# Poissons Ratio (y) = 0.33413 0.12616
# Poissons Ratio (z) = 0.14100 0.12156
#
# Static dielectric constant tensor:
#      x y z
#    x 1.659170 0.000000 0.000000 
#    y 0.000000 1.645850 0.000000 
#    z 0.000000 0.000000 1.671410 
# 
# From -- ./inp_files/25156.got.cif
#   From: 2010.05.17/outbox.ucp.g08.bks.cvg/sg74_13_cif.got.tgz:25156.got - 2010.06.11 16:37:44.
