data_PCOD9540816
_publ_section_title
;
Structure prediction by ZEFSAII (Michael W. Deem and Ramdas Pophale) SiO2 
 PCOD9540816
Probable space group: I M M A
;
_chemical_formula_sum "Si O2"
_cell_formula_units_Z 40
_cell_length_a 9.000000
_cell_length_b 27.000000
_cell_length_c 18.000000
_cell_angle_alpha 90.000000
_cell_angle_beta 90.000000
_cell_angle_gamma 90.000000
_cell_volume 4374.000000
_symmetry_space_group_name_H-M "I M M A"
_symmetry_group_IT_number 74
_symmetry_cell_setting 'orthorhombic'
loop_
_space_group_symop_operation_xyz
x,y,z
-x,1/2-y,z
x,-y,-z
-x,1/2+y,-z
-x,-y,-z
x,1/2+y,-z
-x,y,z
x,1/2-y,z
1/2+x,1/2+y,1/2+z
1/2-x,-y,1/2+z
1/2+x,1/2-y,1/2-z
1/2-x,y,1/2-z
1/2-x,1/2-y,1/2-z
1/2+x,y,1/2-z
1/2-x,1/2+y,1/2+z
1/2+x,-y,1/2+z
loop_
_atom_site_type_symbol
_atom_site_label
_atom_site_fract_x
_atom_site_fract_y
_atom_site_fract_z
Si Si1 0.177050 0.936832 0.372655
Si Si2 0.174879 0.963658 0.820747
Si Si3 0.323249 0.334454 0.676669
Si Si4 0.823246 0.410629 0.022704
Si Si5 0.178678 0.697887 0.011686
O O1 0.250839 0.888204 0.337051
O O2 0.233333 0.937823 0.457982
O O3 0.000000 0.934136 0.368389
O O4 0.240214 0.984928 0.332874
O O5 0.250000 0.938133 0.750000
O O6 0.192611 0.933888 0.896954
O O7 0.000000 0.971914 0.808339
O O8 0.500000 0.338901 0.686108
O O9 0.250000 0.312352 0.750000
O O10 0.294854 0.305934 0.599991
O O11 0.000000 0.412180 0.002259
O O12 0.770446 0.353664 0.022627
O O13 0.239383 0.750000 0.983028
O O14 0.000000 0.698398 0.001830
#
# Coordination Sequence:
#
# PCOD9540816 Si02
#       5
#    16  16  16  16  16
#     4  11  21  33  51  74 101 134 169 202 238 286
#     4  11  22  35  51  73 102 133 165 202 244 290
#     4  10  19  31  47  70 102 136 168 203 242 285
#     4   9  19  35  54  75 100 130 163 202 245 289
#     4   8  15  30  52  74  94 122 163 206 247 292
#
# _framework density 9.1449470000000002
#
# number of rings (size 3 to 8) (size 9 to 14) (size 15 to 20)
#    0.000    2.200    0.000    5.400    0.000    4.400 
#    0.000    0.000    0.000   15.000    0.000    0.000 
#    0.000    0.000    0.000    0.000    0.000    0.200 
#
# Total GULP energy -223159.311226 kJ/mol
# GULP energy per Si atom -5578.982781 kJ/mol
# Density = 0.912413 g / cm^3
# Si number density = 9.144947 Si / 1000 Ang^3
#
#
#
# Elastic Constant Matrix: (Units=GPa)
#
#
# Indices 1 2 3 4 5 6 
#
# 1 70.8447 33.3674 40.5776 0.0000 0.0000 0.0000
# 2 33.3674 73.6666 25.5645 0.0000 0.0000 0.0000
# 3 40.5776 25.5645 69.0048 0.0000 0.0000 -0.0001
# 4 0.0000 0.0000 0.0000 -7.2123 0.0000 0.0000
# 5 0.0000 0.0000 0.0000 0.0000 28.1623 0.0000
# 6 0.0000 0.0000 -0.0001 0.0000 0.0000 -2.9166
#
#
#
# Elastic Compliance Matrix: (Units=1/GPa)
#
#
# Indices 1 2 3 4 5 6 
#
# 1 0.023954 -0.006841 -0.011551 0.000000 0.000000 0.000000
# 2 -0.006841 0.017531 -0.002472 0.000000 0.000000 0.000000
# 3 -0.011551 -0.002472 0.022200 0.000000 0.000000 -0.000001
# 4 0.000000 0.000000 0.000000 -0.138652 0.000000 0.000001
# 5 0.000000 0.000000 0.000000 0.000000 0.035508 0.000000
# 6 0.000000 0.000000 -0.000001 0.000001 0.000000 -0.342862
#
#
# Mechanical properties :
#
#
# Convention : Reuss Voigt Hill
#
# Bulk Modulus (GPa) = 45.54514 45.83722 45.69118
# Shear Modulus (GPa) = -15.00272 11.20712 -1.89780
#
# Velocity S-wave (km/s) = -2.86715 2.47806 -1.01974
# Velocity P-wave (km/s) = 3.74101 5.77093 4.86306
#
# Compressibility (1/GPa) = 0.02195624
#
# Stress axis : x y z
#
# Youngs Moduli (GPa) = 41.74713 57.04090 45.04476
#
# Poissons Ratio (x) = 0.39023 0.52032
# Poissons Ratio (y) = 0.28560 0.11135
# Poissons Ratio (z) = 0.48223 0.14100
#
# Static dielectric constant tensor:
#      x y z
#    x 1.607930 0.000000 0.000000 
#    y 0.000000 1.669600 0.000000 
#    z 0.000000 0.000000 1.644780 
# 
# From -- ./inp_files/39692.got.cif
#   From: 2010.05.17/outbox.ucp.g08.bks.cvg/sg74_20_cif.got.tgz:39692.got - 2010.06.11 16:37:44.
