data_PCOD9540171
_publ_section_title
;
Structure prediction by ZEFSAII (Michael W. Deem and Ramdas Pophale) SiO2 
 PCOD9540171
Probable space group: I M M A
;
_chemical_formula_sum "Si O2"
_cell_formula_units_Z 112
_cell_length_a 20.170123
_cell_length_b 28.402064
_cell_length_c 12.815669
_cell_angle_alpha 90.000000
_cell_angle_beta 90.000000
_cell_angle_gamma 90.000000
_cell_volume 7341.752340
_symmetry_space_group_name_H-M "I M M A"
_symmetry_group_IT_number 74
_symmetry_cell_setting 'orthorhombic'
loop_
_space_group_symop_operation_xyz
x,y,z
-x,1/2-y,z
x,-y,-z
-x,1/2+y,-z
-x,-y,-z
x,1/2+y,-z
-x,y,z
x,1/2-y,z
1/2+x,1/2+y,1/2+z
1/2-x,-y,1/2+z
1/2+x,1/2-y,1/2-z
1/2-x,y,1/2-z
1/2-x,1/2-y,1/2-z
1/2+x,y,1/2-z
1/2-x,1/2+y,1/2+z
1/2+x,-y,1/2+z
loop_
_atom_site_type_symbol
_atom_site_label
_atom_site_fract_x
_atom_site_fract_y
_atom_site_fract_z
Si Si1 0.577322 0.601759 0.362011
Si Si2 0.198863 0.399502 0.479625
Si Si3 0.674262 0.553850 0.777114
Si Si4 0.713749 0.303978 0.916333
Si Si5 0.643797 0.303974 0.696619
Si Si6 0.654764 0.946046 0.542462
Si Si7 0.678029 0.556673 0.199435
O O1 0.500000 0.592534 0.349706
O O2 0.594156 0.656545 0.343421
O O3 0.603792 0.583323 0.472941
O O4 0.621987 0.574218 0.277791
O O5 0.157883 0.414685 0.377411
O O6 0.204239 0.343736 0.497274
O O7 0.272211 0.423186 0.472599
O O8 0.170398 0.420067 0.587120
O O9 0.750000 0.567141 0.750000
O O10 0.637996 0.555957 0.665601
O O11 0.675582 0.499475 0.811241
O O12 0.705627 0.250000 0.951611
O O13 0.664774 0.311693 0.817486
O O14 0.787591 0.308786 0.868111
O O15 0.620907 0.250000 0.685969
O O16 0.657207 0.000000 0.500000
O O17 0.750000 0.569150 0.250000
#
# Coordination Sequence:
#
# PCOD9540171 Si02
#       7
#    16  16  16  16  16  16  16
#     4  12  23  32  51  79 107 138 170 213 260 306
#     4  11  17  28  55  78 101 130 167 222 252 300
#     4   9  19  29  47  77  99 129 179 211 242 297
#     4   9  16  27  51  80 103 130 163 208 269 309
#     4   9  17  32  50  74 105 135 167 205 255 318
#     4  11  19  34  49  71 104 138 174 212 254 302
#     4  11  17  32  52  73 104 137 169 207 262 306
#
# _framework density 15.255212999999999
#
# number of rings (size 3 to 8) (size 9 to 14) (size 15 to 20)
#    0.000    1.714    5.714    3.000    0.000    0.571 
#    0.000    0.000    0.000    7.286    0.000    0.000 
#    0.000    0.000    0.000    0.000    0.000    0.000 
#
# Total GULP energy -312115.934289 kJ/mol
# GULP energy per Si atom -5573.498827 kJ/mol
# Density = 1.522049 g / cm^3
# Si number density = 15.255213 Si / 1000 Ang^3
#
#
#
# Elastic Constant Matrix: (Units=GPa)
#
#
# Indices 1 2 3 4 5 6 
#
# 1 60.8379 19.3653 27.4770 0.0000 0.0000 0.0000
# 2 19.3653 81.8914 58.9547 0.0000 0.0000 0.0000
# 3 27.4770 58.9547 114.5989 0.0000 0.0000 0.0000
# 4 0.0000 0.0000 0.0000 25.6310 0.0000 0.0000
# 5 0.0000 0.0000 0.0000 0.0000 8.7443 0.0000
# 6 0.0000 0.0000 0.0000 0.0000 0.0000 4.9180
#
#
#
# Elastic Compliance Matrix: (Units=1/GPa)
#
#
# Indices 1 2 3 4 5 6 
#
# 1 0.018615 -0.001888 -0.003492 0.000000 0.000000 0.000000
# 2 -0.001888 0.019585 -0.009623 0.000000 0.000000 0.000000
# 3 -0.003492 -0.009623 0.014514 0.000000 0.000000 0.000000
# 4 0.000000 0.000000 0.000000 0.039015 0.000000 0.000000
# 5 0.000000 0.000000 0.000000 0.000000 0.114360 0.000000
# 6 0.000000 0.000000 0.000000 0.000000 0.000000 0.203333
#
#
# Mechanical properties :
#
#
# Convention : Reuss Voigt Hill
#
# Bulk Modulus (GPa) = 44.03642 52.10247 48.06944
# Shear Modulus (GPa) = 11.18572 17.96074 14.57323
#
# Velocity S-wave (km/s) = 2.71078 3.43498 3.09414
# Velocity P-wave (km/s) = 6.22309 7.06825 6.65909
#
# Compressibility (1/GPa) = 0.02270848
#
# Stress axis : x y z
#
# Youngs Moduli (GPa) = 53.71938 51.05829 68.89987
#
# Poissons Ratio (x) = 0.09640 0.24060
# Poissons Ratio (y) = 0.10143 0.66302
# Poissons Ratio (z) = 0.18759 0.49133
#
# Static dielectric constant tensor:
#      x y z
#    x 1.485130 0.000000 0.000000 
#    y 0.000000 1.525900 0.000000 
#    z 0.000000 0.000000 1.533350 
# 
# From -- ./inp_files/24322.got.cif
#   From: 2010.05.17/outbox.cif.g08.bks.cpg/sg74_13_cif.got.tgz:24322.got - 2010.06.03 17:57:02.
