data_PCOD9540526
_publ_section_title
;
Structure prediction by ZEFSAII (Michael W. Deem and Ramdas Pophale) SiO2 
 PCOD9540526
Probable space group: I M M A
;
_chemical_formula_sum "Si O2"
_cell_formula_units_Z 88
_cell_length_a 29.700883
_cell_length_b 12.914220
_cell_length_c 12.744453
_cell_angle_alpha 90.000000
_cell_angle_beta 90.000000
_cell_angle_gamma 90.000000
_cell_volume 4888.310022
_symmetry_space_group_name_H-M "I M M A"
_symmetry_group_IT_number 74
_symmetry_cell_setting 'orthorhombic'
loop_
_space_group_symop_operation_xyz
x,y,z
-x,1/2-y,z
x,-y,-z
-x,1/2+y,-z
-x,-y,-z
x,1/2+y,-z
-x,y,z
x,1/2-y,z
1/2+x,1/2+y,1/2+z
1/2-x,-y,1/2+z
1/2+x,1/2-y,1/2-z
1/2-x,y,1/2-z
1/2-x,1/2-y,1/2-z
1/2+x,y,1/2-z
1/2-x,1/2+y,1/2+z
1/2+x,-y,1/2+z
loop_
_atom_site_type_symbol
_atom_site_label
_atom_site_fract_x
_atom_site_fract_y
_atom_site_fract_z
Si Si1 0.361644 0.526220 0.121354
Si Si2 0.359212 0.629655 0.681917
Si Si3 0.949905 0.370613 0.712431
Si Si4 0.806326 0.500000 0.000000
Si Si5 0.235186 0.633226 0.370767
Si Si6 0.550279 0.453261 0.387319
O O1 0.356704 0.432569 0.206905
O O2 0.405182 0.594931 0.151472
O O3 0.314028 0.584114 0.125000
O O4 0.368534 0.500000 0.000000
O O5 0.344247 0.750000 0.688536
O O6 0.334236 0.564842 0.588384
O O7 0.411705 0.624335 0.650594
O O8 0.946148 0.250000 0.741768
O O9 0.949995 0.447920 0.810488
O O10 0.000000 0.383164 0.660971
O O11 0.773109 0.424941 0.936547
O O12 0.232365 0.750000 0.409857
O O13 0.250000 0.632455 0.250000
O O14 0.561435 0.500000 0.500000
O O15 0.500000 0.408479 0.389839
#
# Coordination Sequence:
#
# PCOD9540526 Si02
#       6
#    16  16  16   8  16  16
#     4  11  23  42  62  86 121 157 205 257 298 354
#     4  11  24  40  61  90 125 164 201 245 308 366
#     4   9  19  36  59  87 117 152 195 244 300 355
#     4  12  22  44  61  92 125 158 194 256 304 368
#     4  11  23  40  63  89 120 160 201 243 298 357
#     4   9  18  35  57  87 124 157 196 243 292 356
#
# _framework density 18.002130999999999
#
# number of rings (size 3 to 8) (size 9 to 14) (size 15 to 20)
#    0.000    1.636    3.636    1.091    0.000    2.909 
#    0.000    2.727    0.000    0.000    0.000    0.000 
#    0.000    0.000    0.000    0.000    0.000    0.000 
#
# Total GULP energy -245143.390143 kJ/mol
# GULP energy per Si atom -5571.440685 kJ/mol
# Density = 1.796116 g / cm^3
# Si number density = 18.002131 Si / 1000 Ang^3
#
#
#
# Elastic Constant Matrix: (Units=GPa)
#
#
# Indices 1 2 3 4 5 6 
#
# 1 95.5762 45.2326 31.9275 0.0000 0.0000 0.0000
# 2 45.2326 108.6399 34.5855 0.0000 0.0000 0.0000
# 3 31.9275 34.5855 84.4761 0.0000 0.0000 0.0000
# 4 0.0000 0.0000 0.0000 10.9684 0.0000 0.0000
# 5 0.0000 0.0000 0.0000 0.0000 24.1437 0.0000
# 6 0.0000 0.0000 0.0000 0.0000 0.0000 31.4988
#
#
#
# Elastic Compliance Matrix: (Units=1/GPa)
#
#
# Indices 1 2 3 4 5 6 
#
# 1 0.013781 -0.004691 -0.003288 0.000000 0.000000 0.000000
# 2 -0.004691 0.012181 -0.003214 0.000000 0.000000 0.000000
# 3 -0.003288 -0.003214 0.014396 0.000000 0.000000 0.000000
# 4 0.000000 0.000000 0.000000 0.091171 0.000000 0.000000
# 5 0.000000 0.000000 0.000000 0.000000 0.041419 0.000000
# 6 0.000000 0.000000 0.000000 0.000000 0.000000 0.031747
#
#
# Mechanical properties :
#
#
# Convention : Reuss Voigt Hill
#
# Bulk Modulus (GPa) = 55.64147 56.90926 56.27536
# Shear Modulus (GPa) = 21.45252 25.11864 23.28558
#
# Velocity S-wave (km/s) = 3.45580 3.73944 3.60041
# Velocity P-wave (km/s) = 6.84827 7.09406 6.97225
#
# Compressibility (1/GPa) = 0.01797221
#
# Stress axis : x y z
#
# Youngs Moduli (GPa) = 72.56163 82.09434 69.46264
#
# Poissons Ratio (x) = 0.38512 0.22839
# Poissons Ratio (y) = 0.34040 0.22326
# Poissons Ratio (z) = 0.23858 0.26386
#
# Static dielectric constant tensor:
#      x y z
#    x 1.729040 0.000000 0.000000 
#    y 0.000000 1.607050 0.000000 
#    z 0.000000 0.000000 1.624050 
# 
# From -- ./inp_files/27001.got.cif
#   From: 2010.05.17/outbox.cif.g08.bks.cpg/sg74_14_cif.got.tgz:27001.got - 2010.06.03 17:57:02.
