data_PCOD9540324
_publ_section_title
;
Structure prediction by ZEFSAII (Michael W. Deem and Ramdas Pophale) SiO2 
 PCOD9540324
Probable space group: I M M A
;
_chemical_formula_sum "Si O2"
_cell_formula_units_Z 96
_cell_length_a 14.658288
_cell_length_b 25.076440
_cell_length_c 14.978981
_cell_angle_alpha 90.000000
_cell_angle_beta 90.000000
_cell_angle_gamma 90.000000
_cell_volume 5505.939078
_symmetry_space_group_name_H-M "I M M A"
_symmetry_group_IT_number 74
_symmetry_cell_setting 'orthorhombic'
loop_
_space_group_symop_operation_xyz
x,y,z
-x,1/2-y,z
x,-y,-z
-x,1/2+y,-z
-x,-y,-z
x,1/2+y,-z
-x,y,z
x,1/2-y,z
1/2+x,1/2+y,1/2+z
1/2-x,-y,1/2+z
1/2+x,1/2-y,1/2-z
1/2-x,y,1/2-z
1/2-x,1/2-y,1/2-z
1/2+x,y,1/2-z
1/2-x,1/2+y,1/2+z
1/2+x,-y,1/2+z
loop_
_atom_site_type_symbol
_atom_site_label
_atom_site_fract_x
_atom_site_fract_y
_atom_site_fract_z
Si Si1 0.316699 0.126295 0.472541
Si Si2 0.761060 0.570091 0.154744
Si Si3 0.895255 0.490783 0.393251
Si Si4 0.000000 0.312265 0.052716
Si Si5 0.179324 0.375066 0.332375
Si Si6 0.897238 0.520023 0.897467
Si Si7 0.000000 0.813212 0.732797
O O1 0.282764 0.105506 0.568320
O O2 0.407772 0.160689 0.482796
O O3 0.234454 0.150875 0.415418
O O4 0.347188 0.076032 0.410246
O O5 0.750000 0.598286 0.250000
O O6 0.668111 0.537635 0.141959
O O7 0.839181 0.523869 0.154758
O O8 0.892038 0.500000 0.500000
O O9 0.854476 0.433794 0.363507
O O10 0.000000 0.493891 0.364289
O O11 0.000000 0.319366 0.159881
O O12 0.000000 0.250000 0.032448
O O13 0.250000 0.377898 0.250000
O O14 0.090565 0.341547 0.304687
O O15 0.000000 0.526659 0.862934
O O16 0.902794 0.500000 0.000000
O O17 0.000000 0.750000 0.713148
#
# Coordination Sequence:
#
# PCOD9540324 Si02
#       7
#    16  16  16   8  16  16   8
#     4  11  21  38  59  84 123 154 195 240 298 357
#     4  11  22  35  52  85 121 157 200 238 278 348
#     4  11  21  35  53  78 119 165 202 232 273 349
#     4  11  24  42  65  91 113 145 197 253 312 367
#     4  12  22  37  60  84 120 165 191 239 302 352
#     4   9  17  30  52  79 113 152 183 228 285 343
#     4  11  26  42  59  89 117 149 204 253 301 363
#
# _framework density 17.435718999999999
#
# number of rings (size 3 to 8) (size 9 to 14) (size 15 to 20)
#    0.000    1.167    6.667    1.000    1.167    1.667 
#    0.000    0.000    0.000    0.500    0.000    1.167 
#    0.000    0.000    0.000    0.000    0.000    0.000 
#
# Total GULP energy -267965.744330 kJ/mol
# GULP energy per Si atom -5582.619674 kJ/mol
# Density = 1.739603 g / cm^3
# Si number density = 17.435719 Si / 1000 Ang^3
#
#
#
# Elastic Constant Matrix: (Units=GPa)
#
#
# Indices 1 2 3 4 5 6 
#
# 1 156.7118 47.3461 61.5500 0.0000 0.0000 0.0000
# 2 47.3461 73.0763 41.4920 0.0000 0.0000 0.0000
# 3 61.5500 41.4920 113.7589 0.0000 0.0000 0.0000
# 4 0.0000 0.0000 0.0000 17.3605 0.0000 0.0000
# 5 0.0000 0.0000 0.0000 0.0000 9.8966 0.0000
# 6 0.0000 0.0000 0.0000 0.0000 0.0000 3.6772
#
#
#
# Elastic Compliance Matrix: (Units=1/GPa)
#
#
# Indices 1 2 3 4 5 6 
#
# 1 0.008872 -0.003812 -0.003410 0.000000 0.000000 0.000000
# 2 -0.003812 0.018896 -0.004830 0.000000 0.000000 0.000000
# 3 -0.003410 -0.004830 0.012397 0.000000 0.000000 0.000000
# 4 0.000000 0.000000 0.000000 0.057602 0.000000 0.000000
# 5 0.000000 0.000000 0.000000 0.000000 0.101045 0.000000
# 6 0.000000 0.000000 0.000000 0.000000 0.000000 0.271947
#
#
# Mechanical properties :
#
#
# Convention : Reuss Voigt Hill
#
# Bulk Modulus (GPa) = 62.25785 71.59147 66.92466
# Shear Modulus (GPa) = 9.99566 19.06411 14.52988
#
# Velocity S-wave (km/s) = 2.39694 3.31024 2.88989
# Velocity P-wave (km/s) = 6.59128 7.46724 7.04289
#
# Compressibility (1/GPa) = 0.01606223
#
# Stress axis : x y z
#
# Youngs Moduli (GPa) = 112.71226 52.92003 80.66458
#
# Poissons Ratio (x) = 0.20174 0.27506
# Poissons Ratio (y) = 0.42968 0.38958
# Poissons Ratio (z) = 0.38434 0.25558
#
# Static dielectric constant tensor:
#      x y z
#    x 1.625810 0.000000 0.000000 
#    y 0.000000 1.575170 0.000000 
#    z 0.000000 0.000000 1.617540 
# 
# From -- ./inp_files/32847.got.cif
#   From: 2010.05.17/outbox.cif.g08.bks.cpg/sg74_17_cif.got.tgz:32847.got - 2010.06.03 17:57:02.
