data_PCOD9540741
_publ_section_title
;
Structure prediction by ZEFSAII (Michael W. Deem and Ramdas Pophale) SiO2 
 PCOD9540741
Probable space group: I M M A
;
_chemical_formula_sum "Si O2"
_cell_formula_units_Z 72
_cell_length_a 16.213289
_cell_length_b 9.704796
_cell_length_c 22.464493
_cell_angle_alpha 90.000000
_cell_angle_beta 90.000000
_cell_angle_gamma 90.000000
_cell_volume 3534.712992
_symmetry_space_group_name_H-M "I M M A"
_symmetry_group_IT_number 74
_symmetry_cell_setting 'orthorhombic'
loop_
_space_group_symop_operation_xyz
x,y,z
-x,1/2-y,z
x,-y,-z
-x,1/2+y,-z
-x,-y,-z
x,1/2+y,-z
-x,y,z
x,1/2-y,z
1/2+x,1/2+y,1/2+z
1/2-x,-y,1/2+z
1/2+x,1/2-y,1/2-z
1/2-x,y,1/2-z
1/2-x,1/2-y,1/2-z
1/2+x,y,1/2-z
1/2-x,1/2+y,1/2+z
1/2+x,-y,1/2+z
loop_
_atom_site_type_symbol
_atom_site_label
_atom_site_fract_x
_atom_site_fract_y
_atom_site_fract_z
Si Si1 0.500000 0.908760 0.249848
Si Si2 0.177084 0.914138 0.560616
Si Si3 0.500000 0.093864 0.604022
Si Si4 0.000000 0.085995 0.438648
Si Si5 0.653856 0.406085 0.252078
Si Si6 0.146865 0.596222 0.892814
O O1 0.500000 0.750000 0.229604
O O2 0.500000 0.904255 0.322924
O O3 0.417397 0.990937 0.230434
O O4 0.179315 0.750000 0.548464
O O5 0.088405 0.944079 0.590566
O O6 0.258810 0.946769 0.597081
O O7 0.180855 0.000000 0.500000
O O8 0.500000 0.250000 0.583374
O O9 0.580897 0.011759 0.583916
O O10 0.000000 0.250000 0.451492
O O11 0.000000 0.000000 0.500000
O O12 0.649148 0.250000 0.225514
O O13 0.750000 0.450797 0.250000
O O14 0.634862 0.393395 0.322186
O O15 0.134239 0.750000 0.918075
#
# Coordination Sequence:
#
# PCOD9540741 Si02
#       6
#     8  16   8   8  16  16
#     4   9  17  29  46  67  91 121 154 186 223 268
#     4   9  17  29  46  67  90 117 148 182 221 263
#     4   9  17  29  46  67  88 116 153 186 219 265
#     4   8  14  26  43  62  84 111 143 174 207 255
#     4   9  17  30  48  69  92 119 152 188 225 267
#     4   9  17  30  47  67  91 118 148 184 225 265
#
# _framework density 20.369405
#
# number of rings (size 3 to 8) (size 9 to 14) (size 15 to 20)
#    0.000    3.111    0.000    0.667    0.000    4.000 
#    0.000    1.667    0.000    5.333    0.000    6.222 
#    0.000    0.000    0.000    0.000    0.000    0.000 
#
# Total GULP energy -200496.697879 kJ/mol
# GULP energy per Si atom -5569.352719 kJ/mol
# Density = 2.032304 g / cm^3
# Si number density = 20.369405 Si / 1000 Ang^3
#
#
#
# Elastic Constant Matrix: (Units=GPa)
#
#
# Indices 1 2 3 4 5 6 
#
# 1 206.2118 114.9974 4.5589 0.0000 0.0000 0.0000
# 2 114.9974 99.2318 14.3101 0.0000 0.0000 0.0000
# 3 4.5589 14.3101 26.3803 0.0000 0.0000 0.0000
# 4 0.0000 0.0000 0.0000 10.2611 0.0000 0.0000
# 5 0.0000 0.0000 0.0000 0.0000 22.2510 0.0000
# 6 0.0000 0.0000 0.0000 0.0000 0.0000 113.5043
#
#
#
# Elastic Compliance Matrix: (Units=1/GPa)
#
#
# Indices 1 2 3 4 5 6 
#
# 1 0.014926 -0.018362 0.007381 0.000000 0.000000 0.000000
# 2 -0.018362 0.033521 -0.015010 0.000000 0.000000 0.000000
# 3 0.007381 -0.015010 0.044774 0.000000 0.000000 0.000000
# 4 0.000000 0.000000 0.000000 0.097456 0.000000 0.000000
# 5 0.000000 0.000000 0.000000 0.000000 0.044942 0.000000
# 6 0.000000 0.000000 0.000000 0.000000 0.000000 0.008810
#
#
# Mechanical properties :
#
#
# Convention : Reuss Voigt Hill
#
# Bulk Modulus (GPa) = 24.24910 66.61741 45.43325
# Shear Modulus (GPa) = 16.12086 42.40044 29.26065
#
# Velocity S-wave (km/s) = 2.81628 4.56738 3.79423
# Velocity P-wave (km/s) = 4.74402 7.78397 6.44577
#
# Compressibility (1/GPa) = 0.04123865
#
# Stress axis : x y z
#
# Youngs Moduli (GPa) = 66.99776 29.83212 22.33433
#
# Poissons Ratio (x) = 0.54777 -0.16485
# Poissons Ratio (y) = 1.23019 0.33525
# Poissons Ratio (z) = -0.49451 0.44779
#
# Static dielectric constant tensor:
#      x y z
#    x 1.760480 0.000000 0.000000 
#    y 0.000000 1.710210 0.000000 
#    z 0.000000 0.000000 1.739670 
# 
# From -- ./inp_files/70006.got.cif
#   From: 2010.05.17/outbox.cif.g08.bks.cpg/sg74_36_cif.got.tgz:70006.got - 2010.06.03 17:57:02.
