data_PCOD9540855
_publ_section_title
;
Structure prediction by ZEFSAII (Michael W. Deem and Ramdas Pophale) SiO2 
 PCOD9540855
Probable space group: I M M A
;
_chemical_formula_sum "Si O2"
_cell_formula_units_Z 40
_cell_length_a 18.000000
_cell_length_b 27.000000
_cell_length_c 9.000000
_cell_angle_alpha 90.000000
_cell_angle_beta 90.000000
_cell_angle_gamma 90.000000
_cell_volume 4374.000000
_symmetry_space_group_name_H-M "I M M A"
_symmetry_group_IT_number 74
_symmetry_cell_setting 'orthorhombic'
loop_
_space_group_symop_operation_xyz
x,y,z
-x,1/2-y,z
x,-y,-z
-x,1/2+y,-z
-x,-y,-z
x,1/2+y,-z
-x,y,z
x,1/2-y,z
1/2+x,1/2+y,1/2+z
1/2-x,-y,1/2+z
1/2+x,1/2-y,1/2-z
1/2-x,y,1/2-z
1/2-x,1/2-y,1/2-z
1/2+x,y,1/2-z
1/2-x,1/2+y,1/2+z
1/2+x,-y,1/2+z
loop_
_atom_site_type_symbol
_atom_site_label
_atom_site_fract_x
_atom_site_fract_y
_atom_site_fract_z
Si Si1 0.675760 0.250000 0.562085
Si Si2 0.351529 0.250000 0.891291
Si Si3 0.184171 0.541773 0.871697
Si Si4 0.912197 0.345331 0.435890
Si Si5 0.588826 0.545763 0.904655
Si Si6 0.176859 0.844056 0.853412
O O1 0.630988 0.250000 0.716217
O O2 0.763273 0.250000 0.594845
O O3 0.664653 0.300381 0.469836
O O4 0.379471 0.200172 0.971775
O O5 0.250000 0.535276 0.750000
O O6 0.112084 0.538402 0.765777
O O7 0.185640 0.600155 0.919152
O O8 0.186434 0.500000 0.000000
O O9 0.883489 0.401306 0.468294
O O10 0.890452 0.340746 0.263352
O O11 0.000000 0.344371 0.456565
O O12 0.500000 0.546694 0.914952
O O13 0.618118 0.500000 0.000000
O O14 0.250000 0.834982 0.750000
#
# Coordination Sequence:
#
# PCOD9540855 Si02
#       6
#     8   8  16  16  16  16
#     4  11  22  36  54  81 108 140 183 223 275 326
#     4  11  22  35  53  82 111 138 176 228 278 320
#     4  10  21  35  53  83 112 143 180 228 275 319
#     4  10  20  36  58  81 107 144 186 222 267 324
#     4   9  19  36  58  80 107 145 185 221 267 329
#     4  10  19  37  59  78 106 146 185 225 264 327
#
# _framework density 9.1449470000000002
#
# number of rings (size 3 to 8) (size 9 to 14) (size 15 to 20)
#    0.000    2.000    2.000    1.800    0.000    2.000 
#    3.600    2.000    0.000    0.000    0.000    0.000 
#    0.000    0.000    0.000    0.000    0.000    0.000 
#
# Total GULP energy -222851.060638 kJ/mol
# GULP energy per Si atom -5571.276516 kJ/mol
# Density = 0.912413 g / cm^3
# Si number density = 9.144947 Si / 1000 Ang^3
#
#
#
# Elastic Constant Matrix: (Units=GPa)
#
#
# Indices 1 2 3 4 5 6 
#
# 1 26.4999 28.4044 12.6358 0.0000 0.0000 0.0000
# 2 28.4044 220.0452 115.9165 0.0000 0.0000 0.0000
# 3 12.6358 115.9165 101.1902 0.0000 0.0000 -0.0001
# 4 0.0000 0.0000 0.0000 54.3441 0.0000 0.0000
# 5 0.0000 0.0000 0.0000 0.0000 19.9200 0.0000
# 6 0.0000 0.0000 -0.0001 0.0000 0.0000 6.3239
#
#
#
# Elastic Compliance Matrix: (Units=1/GPa)
#
#
# Indices 1 2 3 4 5 6 
#
# 1 0.044056 -0.007033 0.002555 0.000000 0.000000 0.000000
# 2 -0.007033 0.012583 -0.013536 0.000000 0.000000 0.000000
# 3 0.002555 -0.013536 0.025069 0.000000 0.000000 0.000000
# 4 0.000000 0.000000 0.000000 0.018401 0.000000 0.000000
# 5 0.000000 0.000000 0.000000 0.000000 0.050201 0.000000
# 6 0.000000 0.000000 0.000000 0.000000 0.000000 0.158131
#
#
# Mechanical properties :
#
#
# Convention : Reuss Voigt Hill
#
# Bulk Modulus (GPa) = 21.89117 73.51652 47.70385
# Shear Modulus (GPa) = 13.90068 28.83617 21.36843
#
# Velocity S-wave (km/s) = 2.75984 3.97497 3.42178
# Velocity P-wave (km/s) = 4.70644 7.83260 6.46143
#
# Compressibility (1/GPa) = 0.04568051
#
# Stress axis : x y z
#
# Youngs Moduli (GPa) = 22.69839 79.47365 39.88997
#
# Poissons Ratio (x) = 0.55893 -0.10192
# Poissons Ratio (y) = 0.15964 0.53994
# Poissons Ratio (z) = -0.05800 1.07574
#
# Static dielectric constant tensor:
#      x y z
#    x 1.677370 0.000000 0.000000 
#    y 0.000000 1.681560 0.000000 
#    z 0.000000 0.000000 1.622340 
# 
# From -- ./inp_files/10978.got.cif
#   From: 2010.05.17/outbox.ucp.g08.bks.cvg/sg74_6_cif.got.tgz:10978.got - 2010.06.11 16:37:44.
