data_PCOD9540842
_publ_section_title
;
Structure prediction by ZEFSAII (Michael W. Deem and Ramdas Pophale) SiO2 
 PCOD9540842
Probable space group: I M M A
;
_chemical_formula_sum "Si O2"
_cell_formula_units_Z 56
_cell_length_a 15.000000
_cell_length_b 30.000000
_cell_length_c 12.000000
_cell_angle_alpha 90.000000
_cell_angle_beta 90.000000
_cell_angle_gamma 90.000000
_cell_volume 5400.000000
_symmetry_space_group_name_H-M "I M M A"
_symmetry_group_IT_number 74
_symmetry_cell_setting 'orthorhombic'
loop_
_space_group_symop_operation_xyz
x,y,z
-x,1/2-y,z
x,-y,-z
-x,1/2+y,-z
-x,-y,-z
x,1/2+y,-z
-x,y,z
x,1/2-y,z
1/2+x,1/2+y,1/2+z
1/2-x,-y,1/2+z
1/2+x,1/2-y,1/2-z
1/2-x,y,1/2-z
1/2-x,1/2-y,1/2-z
1/2+x,y,1/2-z
1/2-x,1/2+y,1/2+z
1/2+x,-y,1/2+z
loop_
_atom_site_type_symbol
_atom_site_label
_atom_site_fract_x
_atom_site_fract_y
_atom_site_fract_z
Si Si1 0.600841 0.456489 0.448962
Si Si2 0.892827 0.611658 0.525336
Si Si3 0.393110 0.114657 0.599885
Si Si4 0.152380 0.039947 0.293333
Si Si5 0.392200 0.058123 0.815824
Si Si6 0.397109 0.298423 0.966075
Si Si7 0.352120 0.701380 0.282792
O O1 0.647216 0.500000 0.500000
O O2 0.500000 0.456356 0.496636
O O3 0.639092 0.409562 0.488293
O O4 0.595367 0.460708 0.318536
O O5 0.875703 0.577287 0.621991
O O6 0.859030 0.590987 0.410629
O O7 0.855884 0.661370 0.534886
O O8 0.000000 0.615357 0.513917
O O9 0.500000 0.120961 0.602262
O O10 0.369076 0.079380 0.697166
O O11 0.357849 0.162871 0.627896
O O12 0.250000 0.049250 0.250000
O O13 0.146271 0.990286 0.339707
O O14 0.500000 0.054497 0.820152
O O15 0.500000 0.294137 0.000449
O O16 0.353411 0.250000 0.975223
O O17 0.398494 0.310672 0.834613
O O18 0.385619 0.750000 0.318592
O O19 0.250000 0.704952 0.250000
#
# Coordination Sequence:
#
# PCOD9540842 Si02
#       7
#    16  16  16  16  16  16  16
#     4  10  20  37  56  71  98 143 187 221 258 318
#     4  10  20  36  59  82 106 137 176 227 277 316
#     4  10  19  34  58  80 101 137 183 223 260 309
#     4  12  25  36  50  76 112 145 183 220 263 318
#     4  10  19  36  57  79 104 137 177 221 274 315
#     4   9  17  32  56  83 107 134 175 225 272 319
#     4  10  20  32  49  79 116 147 171 206 266 329
#
# _framework density 10.370369999999999
#
# number of rings (size 3 to 8) (size 9 to 14) (size 15 to 20)
#    0.000    1.857    2.857    2.143    0.000    4.857 
#    0.000    0.000    0.000    1.286    0.000    2.000 
#    0.000    0.000    0.000    0.000    0.000    0.000 
#
# Total GULP energy -312077.377940 kJ/mol
# GULP energy per Si atom -5572.810320 kJ/mol
# Density = 1.034677 g / cm^3
# Si number density = 10.370370 Si / 1000 Ang^3
#
#
#
# Elastic Constant Matrix: (Units=GPa)
#
#
# Indices 1 2 3 4 5 6 
#
# 1 27.2140 9.8252 9.9517 0.0000 0.0000 0.0000
# 2 9.8252 177.9244 41.5613 0.0004 0.0000 0.0000
# 3 9.9517 41.5613 20.4720 0.0004 0.0000 -0.0001
# 4 0.0000 0.0004 0.0004 50.6212 0.0000 0.0000
# 5 0.0000 0.0000 0.0000 0.0000 19.2264 0.0000
# 6 0.0000 0.0000 -0.0001 0.0000 0.0000 -0.8955
#
#
#
# Elastic Compliance Matrix: (Units=1/GPa)
#
#
# Indices 1 2 3 4 5 6 
#
# 1 0.047114 0.005227 -0.033514 0.000000 0.000000 0.000003
# 2 0.005227 0.011270 -0.025420 0.000000 0.000000 0.000002
# 3 -0.033514 -0.025420 0.116745 -0.000001 0.000000 -0.000010
# 4 0.000000 0.000000 -0.000001 0.019755 0.000000 0.000000
# 5 0.000000 0.000000 0.000000 0.000000 0.052012 0.000001
# 6 0.000003 0.000002 -0.000010 0.000000 0.000001 -1.116637
#
#
# Mechanical properties :
#
#
# Convention : Reuss Voigt Hill
#
# Bulk Modulus (GPa) = 14.76785 38.69853 26.73319
# Shear Modulus (GPa) = -6.75898 24.74188 8.99145
#
# Velocity S-wave (km/s) = -1.80717 3.45760 2.08436
# Velocity P-wave (km/s) = 1.66769 5.88547 4.32550
#
# Compressibility (1/GPa) = 0.06771466
#
# Stress axis : x y z
#
# Youngs Moduli (GPa) = 21.22497 88.73506 8.56570
#
# Poissons Ratio (x) = -0.46380 0.28707
# Poissons Ratio (y) = -0.11094 0.21774
# Poissons Ratio (z) = 0.71134 2.25562
#
# Static dielectric constant tensor:
#      x y z
#    x 1.785300 0.000000 0.000000 
#    y 0.000000 1.831890 0.000000 
#    z 0.000000 0.000000 1.763190 
# 
# From -- ./inp_files/21105.got.cif
#   From: 2010.05.17/outbox.ucp.g08.bks.cvg/sg74_11_cif.got.tgz:21105.got - 2010.06.11 16:37:44.
