data_PCOD9540318
_publ_section_title
;
Structure prediction by ZEFSAII (Michael W. Deem and Ramdas Pophale) SiO2 
 PCOD9540318
Probable space group: I M M A
;
_chemical_formula_sum "Si O2"
_cell_formula_units_Z 80
_cell_length_a 22.845483
_cell_length_b 15.885761
_cell_length_c 10.944473
_cell_angle_alpha 90.000000
_cell_angle_beta 90.000000
_cell_angle_gamma 90.000000
_cell_volume 3971.944970
_symmetry_space_group_name_H-M "I M M A"
_symmetry_group_IT_number 74
_symmetry_cell_setting 'orthorhombic'
loop_
_space_group_symop_operation_xyz
x,y,z
-x,1/2-y,z
x,-y,-z
-x,1/2+y,-z
-x,-y,-z
x,1/2+y,-z
-x,y,z
x,1/2-y,z
1/2+x,1/2+y,1/2+z
1/2-x,-y,1/2+z
1/2+x,1/2-y,1/2-z
1/2-x,y,1/2-z
1/2-x,1/2-y,1/2-z
1/2+x,y,1/2-z
1/2-x,1/2+y,1/2+z
1/2+x,-y,1/2+z
loop_
_atom_site_type_symbol
_atom_site_label
_atom_site_fract_x
_atom_site_fract_y
_atom_site_fract_z
Si Si1 0.808788 0.599540 0.197931
Si Si2 0.670599 0.084834 0.210760
Si Si3 0.068747 0.651767 0.837472
Si Si4 0.566111 0.149085 0.616615
Si Si5 0.236020 0.151313 0.051808
O O1 0.750000 0.645257 0.250000
O O2 0.812287 0.511418 0.268557
O O3 0.875931 0.631877 0.196631
O O4 0.791504 0.596629 0.055583
O O5 0.602896 0.099616 0.235932
O O6 0.698893 0.121653 0.088504
O O7 0.699259 0.135056 0.325198
O O8 0.087226 0.750000 0.832236
O O9 0.000000 0.649110 0.816685
O O10 0.077871 0.619561 0.976659
O O11 0.500000 0.119123 0.652863
O O12 0.562081 0.250000 0.607651
O O13 0.233525 0.250000 0.020420
#
# Coordination Sequence:
#
# PCOD9540318 Si02
#       5
#    16  16  16  16  16
#     4  12  24  36  57  87 122 150 193 244 286 340
#     4  11  21  34  56  81 115 150 183 235 293 340
#     4   9  17  31  54  82 111 146 191 239 285 344
#     4   9  19  35  54  78 113 152 189 234 290 347
#     4  11  22  37  56  79 112 155 193 230 286 346
#
# _framework density 20.141265000000001
#
# number of rings (size 3 to 8) (size 9 to 14) (size 15 to 20)
#    0.000    1.600    4.000    4.800    0.000    2.400 
#    0.000    2.000    0.000    1.200    0.000    5.600 
#    0.000    0.000    0.000    0.000    0.000    0.000 
#
# Total GULP energy -222866.513738 kJ/mol
# GULP energy per Si atom -5571.662843 kJ/mol
# Density = 2.009542 g / cm^3
# Si number density = 20.141265 Si / 1000 Ang^3
#
#
#
# Elastic Constant Matrix: (Units=GPa)
#
#
# Indices 1 2 3 4 5 6 
#
# 1 150.3400 5.7687 20.0890 0.0000 0.0000 0.0000
# 2 5.7687 44.1763 -2.1448 0.0000 0.0000 0.0000
# 3 20.0890 -2.1448 18.1898 0.0000 0.0000 0.0000
# 4 0.0000 0.0000 0.0000 14.6779 0.0000 0.0000
# 5 0.0000 0.0000 0.0000 0.0000 34.9422 0.0000
# 6 0.0000 0.0000 0.0000 0.0000 0.0000 22.0328
#
#
#
# Elastic Compliance Matrix: (Units=1/GPa)
#
#
# Indices 1 2 3 4 5 6 
#
# 1 0.007896 -0.001463 -0.008893 0.000000 0.000000 0.000000
# 2 -0.001463 0.023038 0.004332 0.000000 0.000000 0.000000
# 3 -0.008893 0.004332 0.065308 0.000000 0.000000 0.000000
# 4 0.000000 0.000000 0.000000 0.068130 0.000000 0.000000
# 5 0.000000 0.000000 0.000000 0.000000 0.028619 0.000000
# 6 0.000000 0.000000 0.000000 0.000000 0.000000 0.045387
#
#
# Mechanical properties :
#
#
# Convention : Reuss Voigt Hill
#
# Bulk Modulus (GPa) = 11.87725 28.90356 20.39040
# Shear Modulus (GPa) = 17.95398 26.93014 22.44206
#
# Velocity S-wave (km/s) = 2.98888 3.66055 3.34163
# Velocity P-wave (km/s) = 4.22149 5.67871 5.00343
#
# Compressibility (1/GPa) = 0.08419461
#
# Stress axis : x y z
#
# Youngs Moduli (GPa) = 126.64586 43.40669 15.31199
#
# Poissons Ratio (x) = 0.06350 0.13617
# Poissons Ratio (y) = 0.18526 -0.06633
# Poissons Ratio (z) = 1.12626 -0.18804
#
# Static dielectric constant tensor:
#      x y z
#    x 1.846740 0.000000 0.000000 
#    y 0.000000 1.743760 0.000000 
#    z 0.000000 0.000000 1.727320 
# 
# From -- ./inp_files/24869.got.cif
#   From: 2010.05.17/outbox.cif.g08.bks.cpg/sg74_13_cif.got.tgz:24869.got - 2010.06.03 17:57:02.
