data_PCOD9540121
_publ_section_title
;
Structure prediction by ZEFSAII (Michael W. Deem and Ramdas Pophale) SiO2 
 PCOD9540121
Probable space group: I M M A
;
_chemical_formula_sum "Si O2"
_cell_formula_units_Z 96
_cell_length_a 19.444837
_cell_length_b 17.659456
_cell_length_c 15.188834
_cell_angle_alpha 90.000000
_cell_angle_beta 90.000000
_cell_angle_gamma 90.000000
_cell_volume 5215.621460
_symmetry_space_group_name_H-M "I M M A"
_symmetry_group_IT_number 74
_symmetry_cell_setting 'orthorhombic'
loop_
_space_group_symop_operation_xyz
x,y,z
-x,1/2-y,z
x,-y,-z
-x,1/2+y,-z
-x,-y,-z
x,1/2+y,-z
-x,y,z
x,1/2-y,z
1/2+x,1/2+y,1/2+z
1/2-x,-y,1/2+z
1/2+x,1/2-y,1/2-z
1/2-x,y,1/2-z
1/2-x,1/2-y,1/2-z
1/2+x,y,1/2-z
1/2-x,1/2+y,1/2+z
1/2+x,-y,1/2+z
loop_
_atom_site_type_symbol
_atom_site_label
_atom_site_fract_x
_atom_site_fract_y
_atom_site_fract_z
Si Si1 0.920709 0.158909 0.129660
Si Si2 0.419875 0.339576 0.882092
Si Si3 0.824444 0.340578 0.965857
Si Si4 0.671488 0.598880 0.272387
Si Si5 0.328245 0.920791 0.772694
Si Si6 0.180689 0.912486 0.521483
O O1 0.918924 0.250000 0.136582
O O2 0.881582 0.123634 0.212438
O O3 0.000000 0.134671 0.125435
O O4 0.878906 0.138564 0.041422
O O5 0.500000 0.360786 0.877446
O O6 0.415060 0.250000 0.899222
O O7 0.381073 0.358356 0.791257
O O8 0.379980 0.384010 0.958541
O O9 0.826290 0.250000 0.951974
O O10 0.839814 0.382283 0.874262
O O11 0.748979 0.364953 0.999116
O O12 0.750000 0.622206 0.250000
O O13 0.666090 0.509807 0.250677
O O14 0.250000 0.897399 0.750000
O O15 0.338340 0.907539 0.876146
O O16 0.196309 0.000000 0.500000
#
# Coordination Sequence:
#
# PCOD9540121 Si02
#       6
#    16  16  16  16  16  16
#     4  10  24  43  61  90 129 164 206 261 311 364
#     4  11  25  42  61  93 131 162 205 261 312 370
#     4  11  23  39  68  95 122 165 210 255 309 374
#     4  11  22  40  66  95 124 162 205 257 311 371
#     4  11  22  40  65  94 124 162 208 259 311 365
#     4  12  22  41  66  91 125 163 207 260 306 365
#
# _framework density 18.406243
#
# number of rings (size 3 to 8) (size 9 to 14) (size 15 to 20)
#    0.000    1.000    5.000    2.000    0.000    4.667 
#    0.000    4.167    0.000    0.000    0.000    0.000 
#    0.000    0.000    0.000    0.000    0.000    0.000 
#
# Total GULP energy -268353.142746 kJ/mol
# GULP energy per Si atom -5590.690474 kJ/mol
# Density = 1.836435 g / cm^3
# Si number density = 18.406243 Si / 1000 Ang^3
#
#
#
# Elastic Constant Matrix: (Units=GPa)
#
#
# Indices 1 2 3 4 5 6 
#
# 1 132.2696 32.7469 60.1412 0.0000 0.0000 0.0000
# 2 32.7469 27.7703 34.9163 0.0000 0.0000 0.0000
# 3 60.1412 34.9163 186.6458 0.0000 0.0000 0.0000
# 4 0.0000 0.0000 0.0000 38.5512 0.0000 0.0000
# 5 0.0000 0.0000 0.0000 0.0000 30.1569 0.0000
# 6 0.0000 0.0000 0.0000 0.0000 0.0000 -14.2698
#
#
#
# Elastic Compliance Matrix: (Units=1/GPa)
#
#
# Indices 1 2 3 4 5 6 
#
# 1 0.010973 -0.011106 -0.001458 0.000000 0.000000 0.000000
# 2 -0.011106 0.058325 -0.007332 0.000000 0.000000 0.000000
# 3 -0.001458 -0.007332 0.007199 0.000000 0.000000 0.000000
# 4 0.000000 0.000000 0.000000 0.025940 0.000000 0.000000
# 5 0.000000 0.000000 0.000000 0.000000 0.033160 0.000000
# 6 0.000000 0.000000 0.000000 0.000000 0.000000 -0.070078
#
#
# Mechanical properties :
#
#
# Convention : Reuss Voigt Hill
#
# Bulk Modulus (GPa) = 27.24478 66.92160 47.08319
# Shear Modulus (GPa) = 42.53630 25.47973 34.00802
#
# Velocity S-wave (km/s) = 4.81247 3.72465 4.30308
# Velocity P-wave (km/s) = 6.76121 7.41178 7.09395
#
# Compressibility (1/GPa) = 0.03670428
#
# Stress axis : x y z
#
# Youngs Moduli (GPa) = 91.13379 17.14525 138.90320
#
# Poissons Ratio (x) = 0.19042 0.20253
# Poissons Ratio (y) = 1.01213 1.01850
# Poissons Ratio (z) = 0.13288 0.12572
#
# Static dielectric constant tensor:
#      x y z
#    x 1.610080 0.000000 0.000000 
#    y 0.000000 1.627690 0.000000 
#    z 0.000000 0.000000 1.611820 
# 
# From -- ./inp_files/32366.got.cif
#   From: 2010.05.17/outbox.cif.g08.bks.cpg/sg74_17_cif.got.tgz:32366.got - 2010.06.03 17:57:02.
