data_PCOD9540307
_publ_section_title
;
Structure prediction by ZEFSAII (Michael W. Deem and Ramdas Pophale) SiO2 
 PCOD9540307
Probable space group: I M M A
;
_chemical_formula_sum "Si O2"
_cell_formula_units_Z 100
_cell_length_a 7.722973
_cell_length_b 21.330980
_cell_length_c 33.114694
_cell_angle_alpha 90.000000
_cell_angle_beta 90.000000
_cell_angle_gamma 90.000000
_cell_volume 5455.267753
_symmetry_space_group_name_H-M "I M M A"
_symmetry_group_IT_number 74
_symmetry_cell_setting 'orthorhombic'
loop_
_space_group_symop_operation_xyz
x,y,z
-x,1/2-y,z
x,-y,-z
-x,1/2+y,-z
-x,-y,-z
x,1/2+y,-z
-x,y,z
x,1/2-y,z
1/2+x,1/2+y,1/2+z
1/2-x,-y,1/2+z
1/2+x,1/2-y,1/2-z
1/2-x,y,1/2-z
1/2-x,1/2-y,1/2-z
1/2+x,y,1/2-z
1/2-x,1/2+y,1/2+z
1/2+x,-y,1/2+z
loop_
_atom_site_type_symbol
_atom_site_label
_atom_site_fract_x
_atom_site_fract_y
_atom_site_fract_z
Si Si1 0.700644 0.481468 0.627366
Si Si2 0.296764 0.429238 0.991958
Si Si3 0.298764 0.556634 0.796457
Si Si4 0.500000 0.250000 0.913322
Si Si5 0.709139 0.820189 0.655894
Si Si6 0.789638 0.601577 0.920612
Si Si7 0.298087 0.358161 0.587618
O O1 0.500000 0.477818 0.615839
O O2 0.710410 0.508937 0.672335
O O3 0.776077 0.535550 0.598279
O O4 0.763809 0.411651 0.619545
O O5 0.500000 0.433809 0.981880
O O6 0.205351 0.394251 0.955402
O O7 0.230402 0.500000 0.000000
O O8 0.275003 0.392533 0.034063
O O9 0.500000 0.544878 0.801065
O O10 0.250000 0.549393 0.750000
O O11 0.261093 0.627074 0.811944
O O12 0.655092 0.195735 0.913535
O O13 0.500000 0.818926 0.655946
O O14 0.772592 0.750000 0.663942
O O15 0.763220 0.845703 0.611758
O O16 0.000000 0.600971 0.921345
O O17 0.500000 0.338929 0.595671
#
# Coordination Sequence:
#
# PCOD9540307 Si02
#       7
#    16  16  16   4  16  16  16
#     4   9  19  36  60  86 113 145 190 239 296 351
#     4  11  21  33  54  84 117 151 198 255 305 352
#     4  11  22  35  57  86 120 147 182 238 292 346
#     4  12  26  44  58  86 126 152 214 240 288 382
#     4   9  19  37  55  74 109 157 203 240 285 345
#     4   9  17  31  52  79 109 146 195 249 297 350
#     4  11  23  41  64  86 120 162 197 251 306 355
#
# _framework density 18.330905000000001
#
# number of rings (size 3 to 8) (size 9 to 14) (size 15 to 20)
#    0.000    1.920    2.400    3.120    1.120    3.840 
#    1.440    0.000    0.000    0.000    0.000    0.560 
#    0.000    0.000    0.000    0.000    0.000    0.000 
#
# Total GULP energy -278385.931645 kJ/mol
# GULP energy per Si atom -5567.718633 kJ/mol
# Density = 1.828918 g / cm^3
# Si number density = 18.330905 Si / 1000 Ang^3
#
#
#
# Elastic Constant Matrix: (Units=GPa)
#
#
# Indices 1 2 3 4 5 6 
#
# 1 72.6960 32.8522 -3.1445 0.0000 0.0000 0.0000
# 2 32.8522 123.3042 38.7079 0.0000 0.0000 0.0000
# 3 -3.1445 38.7079 93.0632 0.0000 0.0000 0.0000
# 4 0.0000 0.0000 0.0000 6.5825 0.0000 0.0000
# 5 0.0000 0.0000 0.0000 0.0000 20.1429 0.0000
# 6 0.0000 0.0000 0.0000 0.0000 0.0000 198.9439
#
#
#
# Elastic Compliance Matrix: (Units=1/GPa)
#
#
# Indices 1 2 3 4 5 6 
#
# 1 0.016206 -0.005164 0.002695 0.000000 0.000000 0.000000
# 2 -0.005164 0.010973 -0.004739 0.000000 0.000000 0.000000
# 3 0.002695 -0.004739 0.012807 0.000000 0.000000 0.000000
# 4 0.000000 0.000000 0.000000 0.151917 0.000000 0.000000
# 5 0.000000 0.000000 0.000000 0.000000 0.049645 0.000000
# 6 0.000000 0.000000 0.000000 0.000000 0.000000 0.005027
#
#
# Mechanical properties :
#
#
# Convention : Reuss Voigt Hill
#
# Bulk Modulus (GPa) = 39.10437 47.32163 43.21300
# Shear Modulus (GPa) = 18.55185 59.84373 39.19779
#
# Velocity S-wave (km/s) = 3.18473 5.71990 4.62924
# Velocity P-wave (km/s) = 5.90780 8.33632 7.22483
#
# Compressibility (1/GPa) = 0.02557259
#
# Stress axis : x y z
#
# Youngs Moduli (GPa) = 61.70483 91.12897 78.07970
#
# Poissons Ratio (x) = 0.47059 -0.21046
# Poissons Ratio (y) = 0.31864 0.37000
# Poissons Ratio (z) = -0.16632 0.43183
#
# Static dielectric constant tensor:
#      x y z
#    x 1.671080 0.000000 0.000000 
#    y 0.000000 1.658250 0.000000 
#    z 0.000000 0.000000 1.550370 
# 
# From -- ./inp_files/70575.got.cif
#   From: 2010.05.17/outbox.cif.g08.bks.cpg/sg74_36_cif.got.tgz:70575.got - 2010.06.03 17:57:02.
