data_PCOD9540899
_publ_section_title
;
Structure prediction by ZEFSAII (Michael W. Deem and Ramdas Pophale) SiO2 
 PCOD9540899
Probable space group: I M M A
;
_chemical_formula_sum "Si O2"
_cell_formula_units_Z 48
_cell_length_a 9.000000
_cell_length_b 27.000000
_cell_length_c 21.000000
_cell_angle_alpha 90.000000
_cell_angle_beta 90.000000
_cell_angle_gamma 90.000000
_cell_volume 5103.000000
_symmetry_space_group_name_H-M "I M M A"
_symmetry_group_IT_number 74
_symmetry_cell_setting 'orthorhombic'
loop_
_space_group_symop_operation_xyz
x,y,z
-x,1/2-y,z
x,-y,-z
-x,1/2+y,-z
-x,-y,-z
x,1/2+y,-z
-x,y,z
x,1/2-y,z
1/2+x,1/2+y,1/2+z
1/2-x,-y,1/2+z
1/2+x,1/2-y,1/2-z
1/2-x,y,1/2-z
1/2-x,1/2-y,1/2-z
1/2+x,y,1/2-z
1/2-x,1/2+y,1/2+z
1/2+x,-y,1/2+z
loop_
_atom_site_type_symbol
_atom_site_label
_atom_site_fract_x
_atom_site_fract_y
_atom_site_fract_z
Si Si1 0.822188 0.539356 0.444842
Si Si2 0.820557 0.143740 0.948486
Si Si3 0.680562 0.304744 0.423118
Si Si4 0.321983 0.502218 0.682510
Si Si5 0.821712 0.691828 0.184588
Si Si6 0.178149 0.618890 0.816558
O O1 0.784096 0.500000 0.500000
O O2 0.757851 0.592398 0.463716
O O3 0.747763 0.525145 0.377736
O O4 0.000000 0.540524 0.438092
O O5 0.776086 0.162984 0.878819
O O6 0.000000 0.137477 0.948652
O O7 0.781982 0.182033 0.004332
O O8 0.500000 0.304549 0.420174
O O9 0.733336 0.250000 0.405578
O O10 0.731269 0.346993 0.374459
O O11 0.500000 0.495413 0.684484
O O12 0.250000 0.487141 0.750000
O O13 0.288760 0.560838 0.673551
O O14 0.782471 0.750000 0.177464
O O15 0.750000 0.673238 0.250000
O O16 0.000000 0.688749 0.189686
O O17 0.250000 0.634449 0.750000
O O18 0.000000 0.623092 0.811762
#
# Coordination Sequence:
#
# PCOD9540899 Si02
#       6
#    16  16  16  16  16  16
#     4  11  24  39  55  78 109 143 180 226 276 323
#     4  10  20  35  56  79 103 136 179 223 265 313
#     4   9  17  31  53  79 105 135 175 220 261 306
#     4  10  20  36  58  82 109 142 181 223 268 321
#     4   9  18  33  54  80 108 138 172 211 257 310
#     4   9  18  32  52  78 106 137 172 212 259 311
#
# _framework density 9.4062319999999993
#
# number of rings (size 3 to 8) (size 9 to 14) (size 15 to 20)
#    0.000    2.333    0.000    2.500    0.000    7.000 
#    0.000    2.500    0.000    2.500    0.000    0.000 
#    0.000    0.000    0.000    0.000    0.000    0.000 
#
# Total GULP energy -267906.807167 kJ/mol
# GULP energy per Si atom -5581.391816 kJ/mol
# Density = 0.938482 g / cm^3
# Si number density = 9.406232 Si / 1000 Ang^3
#
#
#
# Elastic Constant Matrix: (Units=GPa)
#
#
# Indices 1 2 3 4 5 6 
#
# 1 11.6857 5.1329 2.6250 0.0000 0.0000 0.0000
# 2 5.1329 33.2194 -3.1559 0.0000 0.0000 0.0000
# 3 2.6250 -3.1559 47.8214 0.0000 0.0000 0.0000
# 4 0.0000 0.0000 0.0000 33.6462 0.0000 0.0000
# 5 0.0000 0.0000 0.0000 0.0000 27.6896 0.0000
# 6 0.0000 0.0000 0.0000 0.0000 0.0000 12.6589
#
#
#
# Elastic Compliance Matrix: (Units=1/GPa)
#
#
# Indices 1 2 3 4 5 6 
#
# 1 0.093556 -0.015038 -0.006128 0.000000 0.000000 0.000000
# 2 -0.015038 0.032710 0.002984 0.000000 0.000000 0.000000
# 3 -0.006128 0.002984 0.021444 0.000000 0.000000 0.000000
# 4 0.000000 0.000000 0.000000 0.029721 0.000000 0.000000
# 5 0.000000 0.000000 0.000000 0.000000 0.036115 0.000000
# 6 0.000000 0.000000 0.000000 0.000000 0.000000 0.078996
#
#
# Mechanical properties :
#
#
# Convention : Reuss Voigt Hill
#
# Bulk Modulus (GPa) = 8.98094 11.32562 10.15328
# Shear Modulus (GPa) = 13.66039 20.67390 17.16714
#
# Velocity S-wave (km/s) = 2.69761 3.31863 3.02411
# Velocity P-wave (km/s) = 3.80619 4.55168 4.19553
#
# Compressibility (1/GPa) = 0.11134698
#
# Stress axis : x y z
#
# Youngs Moduli (GPa) = 10.68874 30.57170 46.63208
#
# Poissons Ratio (x) = 0.45974 0.28576
# Poissons Ratio (y) = 0.16074 -0.13916
# Poissons Ratio (z) = 0.06550 -0.09123
#
# Static dielectric constant tensor:
#      x y z
#    x 1.625390 0.000000 0.000000 
#    y 0.000000 1.659680 0.000000 
#    z 0.000000 0.000000 1.636150 
# 
# From -- ./inp_files/49102.got.cif
#   From: 2010.05.17/outbox.ucp.g08.bks.cvg/sg74_25_cif.got.tgz:49102.got - 2010.06.11 16:37:44.
