data_PCOD9540771
_publ_section_title
;
Structure prediction by ZEFSAII (Michael W. Deem and Ramdas Pophale) SiO2 
 PCOD9540771
Probable space group: I M M A
;
_chemical_formula_sum "Si O2"
_cell_formula_units_Z 80
_cell_length_a 9.442695
_cell_length_b 18.585345
_cell_length_c 37.457315
_cell_angle_alpha 90.000000
_cell_angle_beta 90.000000
_cell_angle_gamma 90.000000
_cell_volume 6573.599376
_symmetry_space_group_name_H-M "I M M A"
_symmetry_group_IT_number 74
_symmetry_cell_setting 'orthorhombic'
loop_
_space_group_symop_operation_xyz
x,y,z
-x,1/2-y,z
x,-y,-z
-x,1/2+y,-z
-x,-y,-z
x,1/2+y,-z
-x,y,z
x,1/2-y,z
1/2+x,1/2+y,1/2+z
1/2-x,-y,1/2+z
1/2+x,1/2-y,1/2-z
1/2-x,y,1/2-z
1/2-x,1/2-y,1/2-z
1/2+x,y,1/2-z
1/2-x,1/2+y,1/2+z
1/2+x,-y,1/2+z
loop_
_atom_site_type_symbol
_atom_site_label
_atom_site_fract_x
_atom_site_fract_y
_atom_site_fract_z
Si Si1 0.668454 0.419401 0.571852
Si Si2 0.168222 0.335130 0.855802
Si Si3 0.162924 0.543814 0.537560
Si Si4 0.831374 0.834090 0.998837
Si Si5 0.336807 0.337573 0.784828
O O1 0.500000 0.434737 0.571278
O O2 0.702918 0.380120 0.608857
O O3 0.755479 0.491913 0.564845
O O4 0.696486 0.365727 0.538519
O O5 0.193667 0.250000 0.862417
O O6 0.257823 0.357850 0.821348
O O7 0.000000 0.342809 0.848486
O O8 0.164493 0.500000 0.500000
O O9 0.245068 0.617217 0.528879
O O10 0.000000 0.555721 0.547626
O O11 0.795568 0.750000 0.997265
O O12 0.000000 0.842151 0.992584
O O13 0.500000 0.361048 0.783929
O O14 0.336851 0.250000 0.784088
O O15 0.250000 0.361620 0.750000
#
# Coordination Sequence:
#
# PCOD9540771 Si02
#       5
#    16  16  16  16  16
#     4   9  16  26  39  53  70  92 117 146 180 216
#     4   9  16  25  37  53  71  90 115 148 183 215
#     4   9  17  27  37  50  69  92 116 143 177 215
#     4   9  16  26  40  55  69  88 117 150 181 214
#     4   9  16  25  36  49  66  89 116 145 176 209
#
# _framework density 12.169892000000001
#
# number of rings (size 3 to 8) (size 9 to 14) (size 15 to 20)
#    0.000    3.000    0.000    1.800    0.000    8.400 
#    0.000    0.000    0.000    3.600    0.000    0.000 
#    0.000    0.000    0.000    0.000    0.000    1.000 
#
# Total GULP energy -222726.855625 kJ/mol
# GULP energy per Si atom -5568.171391 kJ/mol
# Density = 1.214219 g / cm^3
# Si number density = 12.169892 Si / 1000 Ang^3
#
#
#
# Elastic Constant Matrix: (Units=GPa)
#
#
# Indices 1 2 3 4 5 6 
#
# 1 74.7353 52.6087 62.9674 0.0000 0.0000 0.0000
# 2 52.6087 74.7988 44.1367 0.0000 0.0000 0.0000
# 3 62.9674 44.1367 90.7430 0.0000 0.0000 0.0000
# 4 0.0000 0.0000 0.0000 14.3224 0.0000 0.0000
# 5 0.0000 0.0000 0.0000 0.0000 18.8022 0.0000
# 6 0.0000 0.0000 0.0000 0.0000 0.0000 11.9331
#
#
#
# Elastic Compliance Matrix: (Units=1/GPa)
#
#
# Indices 1 2 3 4 5 6 
#
# 1 0.045493 -0.018751 -0.022448 0.000000 0.000000 0.000000
# 2 -0.018751 0.026480 0.000132 0.000000 0.000000 0.000000
# 3 -0.022448 0.000132 0.026533 0.000000 0.000000 0.000000
# 4 0.000000 0.000000 0.000000 0.069821 0.000000 0.000000
# 5 0.000000 0.000000 0.000000 0.000000 0.053185 0.000000
# 6 0.000000 0.000000 0.000000 0.000000 0.000000 0.083801
#
#
# Mechanical properties :
#
#
# Convention : Reuss Voigt Hill
#
# Bulk Modulus (GPa) = 61.08058 62.18918 61.63488
# Shear Modulus (GPa) = 12.72579 14.38250 13.55415
#
# Velocity S-wave (km/s) = 3.23720 3.44148 3.34090
# Velocity P-wave (km/s) = 8.01695 8.18556 8.10170
#
# Compressibility (1/GPa) = 0.01637182
#
# Stress axis : x y z
#
# Youngs Moduli (GPa) = 21.98124 37.76486 37.68956
#
# Poissons Ratio (x) = 0.70814 0.84605
# Poissons Ratio (y) = 0.41218 -0.00498
# Poissons Ratio (z) = 0.49343 -0.00499
#
# Static dielectric constant tensor:
#      x y z
#    x 1.408750 0.000000 0.000000 
#    y 0.000000 1.369430 0.000000 
#    z 0.000000 0.000000 1.378250 
# 
# From -- ./inp_files/70127.got.cif
#   From: 2010.05.17/outbox.cif.g08.bks.cpg/sg74_36_cif.got.tgz:70127.got - 2010.06.03 17:57:02.
