data_PCOD9540321
_publ_section_title
;
Structure prediction by ZEFSAII (Michael W. Deem and Ramdas Pophale) SiO2 
 PCOD9540321
Probable space group: I M M A
;
_chemical_formula_sum "Si O2"
_cell_formula_units_Z 112
_cell_length_a 20.841824
_cell_length_b 19.219701
_cell_length_c 13.433196
_cell_angle_alpha 90.000000
_cell_angle_beta 90.000000
_cell_angle_gamma 90.000000
_cell_volume 5380.984025
_symmetry_space_group_name_H-M "I M M A"
_symmetry_group_IT_number 74
_symmetry_cell_setting 'orthorhombic'
loop_
_space_group_symop_operation_xyz
x,y,z
-x,1/2-y,z
x,-y,-z
-x,1/2+y,-z
-x,-y,-z
x,1/2+y,-z
-x,y,z
x,1/2-y,z
1/2+x,1/2+y,1/2+z
1/2-x,-y,1/2+z
1/2+x,1/2-y,1/2-z
1/2-x,y,1/2-z
1/2-x,1/2-y,1/2-z
1/2+x,y,1/2-z
1/2-x,1/2+y,1/2+z
1/2+x,-y,1/2+z
loop_
_atom_site_type_symbol
_atom_site_label
_atom_site_fract_x
_atom_site_fract_y
_atom_site_fract_z
Si Si1 0.108233 0.667946 0.383747
Si Si2 0.620794 0.407439 0.685195
Si Si3 0.241493 0.332473 0.912569
Si Si4 0.192949 0.328249 0.119606
Si Si5 0.931568 0.326415 0.987660
Si Si6 0.072979 0.570155 0.564793
Si Si7 0.824129 0.454165 0.260466
O O1 0.092593 0.750000 0.379134
O O2 0.089835 0.626120 0.284172
O O3 0.185591 0.659843 0.381412
O O4 0.083815 0.632425 0.485139
O O5 0.688920 0.371199 0.653967
O O6 0.577848 0.386593 0.591777
O O7 0.634443 0.488223 0.702054
O O8 0.225651 0.250000 0.910684
O O9 0.236802 0.355271 0.028431
O O10 0.212526 0.250000 0.146054
O O11 0.185017 0.380096 0.208918
O O12 0.124196 0.326628 0.066672
O O13 0.928216 0.250000 0.935917
O O14 0.000000 0.331814 0.037679
O O15 0.072782 0.500000 0.500000
O O16 0.133241 0.560671 0.640502
O O17 0.000000 0.577327 0.608796
O O18 0.750000 0.482453 0.250000
#
# Coordination Sequence:
#
# PCOD9540321 Si02
#       7
#    16  16  16  16  16  16  16
#     4  11  21  37  63  89 116 161 215 259 308 377
#     4  11  21  34  56  92 129 161 203 258 320 382
#     4   9  18  34  57  90 130 161 193 258 327 372
#     4   9  20  39  60  86 120 159 206 260 317 367
#     4   9  19  37  60  88 125 164 201 248 308 373
#     4  11  26  47  63  83 127 174 208 260 327 374
#     4  12  25  41  65  95 122 165 216 264 316 378
#
# _framework density 20.814036999999999
#
# number of rings (size 3 to 8) (size 9 to 14) (size 15 to 20)
#    0.000    1.714    1.429    4.286    0.000    6.286 
#    0.000    0.714    0.000    0.000    0.000    0.000 
#    0.000    0.000    0.000    0.000    0.000    0.000 
#
# Total GULP energy -312196.747976 kJ/mol
# GULP energy per Si atom -5574.941928 kJ/mol
# Density = 2.076666 g / cm^3
# Si number density = 20.814037 Si / 1000 Ang^3
#
#
#
# Elastic Constant Matrix: (Units=GPa)
#
#
# Indices 1 2 3 4 5 6 
#
# 1 72.9306 0.2439 22.0288 0.0000 0.0000 0.0000
# 2 0.2439 76.5455 26.1070 0.0000 0.0000 0.0000
# 3 22.0288 26.1070 75.6517 0.0000 0.0000 0.0000
# 4 0.0000 0.0000 0.0000 335.2373 0.0000 0.0000
# 5 0.0000 0.0000 0.0000 0.0000 2.0478 0.0000
# 6 0.0000 0.0000 0.0000 0.0000 0.0000 18.1662
#
#
#
# Elastic Compliance Matrix: (Units=1/GPa)
#
#
# Indices 1 2 3 4 5 6 
#
# 1 0.015217 0.001658 -0.005003 0.000000 0.000000 0.000000
# 2 0.001658 0.014988 -0.005655 0.000000 0.000000 0.000000
# 3 -0.005003 -0.005655 0.016627 0.000000 0.000000 0.000000
# 4 0.000000 0.000000 0.000000 0.002983 0.000000 0.000000
# 5 0.000000 0.000000 0.000000 0.000000 0.488337 0.000000
# 6 0.000000 0.000000 0.000000 0.000000 0.000000 0.055047
#
#
# Mechanical properties :
#
#
# Convention : Reuss Voigt Hill
#
# Bulk Modulus (GPa) = 34.68451 35.76527 35.22489
# Shear Modulus (GPa) = 8.05400 82.87346 45.46373
#
# Velocity S-wave (km/s) = 1.96924 6.31685 4.67870
# Velocity P-wave (km/s) = 4.67661 8.39190 6.79318
#
# Compressibility (1/GPa) = 0.02883131
#
# Stress axis : x y z
#
# Youngs Moduli (GPa) = 65.71447 66.72215 60.14377
#
# Poissons Ratio (x) = -0.11062 0.30091
# Poissons Ratio (y) = -0.10895 0.34011
# Poissons Ratio (z) = 0.32879 0.37731
#
# Static dielectric constant tensor:
#      x y z
#    x 1.808920 0.000000 0.000000 
#    y 0.000000 1.745310 0.000000 
#    z 0.000000 0.000000 1.777630 
# 
# From -- ./inp_files/36486.got.cif
#   From: 2010.05.17/outbox.cif.g08.bks.cpg/sg74_19_cif.got.tgz:36486.got - 2010.06.03 17:57:02.
