data_PCOD9540522
_publ_section_title
;
Structure prediction by ZEFSAII (Michael W. Deem and Ramdas Pophale) SiO2 
 PCOD9540522
Probable space group: I M M A
;
_chemical_formula_sum "Si O2"
_cell_formula_units_Z 92
_cell_length_a 16.671387
_cell_length_b 12.186115
_cell_length_c 19.832240
_cell_angle_alpha 90.000000
_cell_angle_beta 90.000000
_cell_angle_gamma 90.000000
_cell_volume 4029.106756
_symmetry_space_group_name_H-M "I M M A"
_symmetry_group_IT_number 74
_symmetry_cell_setting 'orthorhombic'
loop_
_space_group_symop_operation_xyz
x,y,z
-x,1/2-y,z
x,-y,-z
-x,1/2+y,-z
-x,-y,-z
x,1/2+y,-z
-x,y,z
x,1/2-y,z
1/2+x,1/2+y,1/2+z
1/2-x,-y,1/2+z
1/2+x,1/2-y,1/2-z
1/2-x,y,1/2-z
1/2-x,1/2-y,1/2-z
1/2+x,y,1/2-z
1/2-x,1/2+y,1/2+z
1/2+x,-y,1/2+z
loop_
_atom_site_type_symbol
_atom_site_label
_atom_site_fract_x
_atom_site_fract_y
_atom_site_fract_z
Si Si1 0.837240 0.379506 0.371154
Si Si2 0.340814 0.750000 0.222693
Si Si3 0.592199 0.868626 0.728665
Si Si4 0.170185 0.250000 0.559607
Si Si5 0.500000 0.998865 0.919276
Si Si6 0.000000 0.750000 0.429006
Si Si7 0.717206 0.447349 0.565749
Si Si8 0.408926 0.595986 0.330721
O O1 0.829737 0.250000 0.389350
O O2 0.847465 0.382936 0.290222
O O3 0.764764 0.457287 0.394549
O O4 0.919548 0.435931 0.397055
O O5 0.250000 0.750000 0.250000
O O6 0.341702 0.750000 0.141954
O O7 0.384356 0.647796 0.258920
O O8 0.500000 0.870809 0.755873
O O9 0.605502 0.750000 0.697155
O O10 0.596350 0.965940 0.676806
O O11 0.081728 0.250000 0.529791
O O12 0.216621 0.140258 0.541517
O O13 0.500000 0.127841 0.894421
O O14 0.500000 0.000000 0.000000
O O15 0.677249 0.500000 0.500000
O O16 0.656598 0.380103 0.612915
O O17 0.500000 0.627011 0.346637
#
# Coordination Sequence:
#
# PCOD9540522 Si02
#       8
#    16   8  16   8   8   4  16  16
#     4  11  23  39  65  96 132 179 225 276 347 418
#     4  12  23  42  75 106 144 169 215 297 377 432
#     4   9  19  38  65  98 133 164 209 271 337 410
#     4  12  26  45  66 107 142 184 229 292 358 440
#     4  12  25  38  59  92 138 185 228 273 333 425
#     4  12  28  38  66 100 136 186 224 266 352 428
#     4  12  27  45  67  93 138 186 238 294 343 407
#     4  11  25  44  72 103 136 177 232 291 358 421
#
# _framework density 22.833846000000001
#
# number of rings (size 3 to 8) (size 9 to 14) (size 15 to 20)
#    0.000    0.870    4.348    2.087    3.652    1.043 
#    0.000    1.739    0.000    0.000    0.000    0.000 
#    0.000    0.000    0.000    0.000    0.000    0.000 
#
# Total GULP energy -257284.404473 kJ/mol
# GULP energy per Si atom -5593.139228 kJ/mol
# Density = 2.278188 g / cm^3
# Si number density = 22.833846 Si / 1000 Ang^3
#
#
#
# Elastic Constant Matrix: (Units=GPa)
#
#
# Indices 1 2 3 4 5 6 
#
# 1 106.9843 26.3775 11.2142 0.0000 0.0000 0.0000
# 2 26.3775 150.0831 -1.3879 0.0000 0.0000 0.0000
# 3 11.2142 -1.3879 42.5173 0.0000 0.0000 0.0000
# 4 0.0000 0.0000 0.0000 -6.3086 0.0000 0.0000
# 5 0.0000 0.0000 0.0000 0.0000 11.2279 0.0000
# 6 0.0000 0.0000 0.0000 0.0000 0.0000 17.1107
#
#
#
# Elastic Compliance Matrix: (Units=1/GPa)
#
#
# Indices 1 2 3 4 5 6 
#
# 1 0.010075 -0.001796 -0.002716 0.000000 0.000000 0.000000
# 2 -0.001796 0.006985 0.000702 0.000000 0.000000 0.000000
# 3 -0.002716 0.000702 0.024259 0.000000 0.000000 0.000000
# 4 0.000000 0.000000 0.000000 -0.158514 0.000000 0.000000
# 5 0.000000 0.000000 0.000000 0.000000 0.089064 0.000000
# 6 0.000000 0.000000 0.000000 0.000000 0.000000 0.058443
#
#
# Mechanical properties :
#
#
# Convention : Reuss Voigt Hill
#
# Bulk Modulus (GPa) = 29.67462 41.33248 35.50355
# Shear Modulus (GPa) = 101.70008 21.96472 61.83240
#
# Velocity S-wave (km/s) = 6.68101 3.10488 5.20942
# Velocity P-wave (km/s) = 8.51696 5.56726 7.19489
#
# Compressibility (1/GPa) = 0.03369883
#
# Stress axis : x y z
#
# Youngs Moduli (GPa) = 99.25962 143.16240 41.22170
#
# Poissons Ratio (x) = 0.25708 0.11195
# Poissons Ratio (y) = 0.17825 -0.02892
# Poissons Ratio (z) = 0.26957 -0.10045
#
# Static dielectric constant tensor:
#      x y z
#    x 1.859770 0.000000 0.000000 
#    y 0.000000 1.959940 0.000000 
#    z 0.000000 0.000000 1.828040 
# 
# From -- ./inp_files/52945.got.cif
#   From: 2010.05.17/outbox.cif.g08.bks.cpg/sg74_27_cif.got.tgz:52945.got - 2010.06.03 17:57:02.
