data_PCOD9540146
_publ_section_title
;
Structure prediction by ZEFSAII (Michael W. Deem and Ramdas Pophale) SiO2 
 PCOD9540146
Probable space group: I M M A
;
_chemical_formula_sum "Si O2"
_cell_formula_units_Z 92
_cell_length_a 9.846297
_cell_length_b 21.278097
_cell_length_c 23.510857
_cell_angle_alpha 90.000000
_cell_angle_beta 90.000000
_cell_angle_gamma 90.000000
_cell_volume 4925.770528
_symmetry_space_group_name_H-M "I M M A"
_symmetry_group_IT_number 74
_symmetry_cell_setting 'orthorhombic'
loop_
_space_group_symop_operation_xyz
x,y,z
-x,1/2-y,z
x,-y,-z
-x,1/2+y,-z
-x,-y,-z
x,1/2+y,-z
-x,y,z
x,1/2-y,z
1/2+x,1/2+y,1/2+z
1/2-x,-y,1/2+z
1/2+x,1/2-y,1/2-z
1/2-x,y,1/2-z
1/2-x,1/2-y,1/2-z
1/2+x,y,1/2-z
1/2-x,1/2+y,1/2+z
1/2+x,-y,1/2+z
loop_
_atom_site_type_symbol
_atom_site_label
_atom_site_fract_x
_atom_site_fract_y
_atom_site_fract_z
Si Si1 0.000000 0.250000 0.765196
Si Si2 0.338102 0.872069 0.084472
Si Si3 0.724940 0.750000 0.162696
Si Si4 0.500000 0.324052 0.155942
Si Si5 0.000000 0.175842 0.208183
Si Si6 0.339494 0.490645 0.568174
Si Si7 0.787677 0.374372 0.123480
Si Si8 0.647012 0.177464 0.494050
O O1 0.121859 0.250000 0.813816
O O2 0.118177 0.250000 0.714547
O O3 0.500000 0.881254 0.084399
O O4 0.301936 0.813530 0.125784
O O5 0.254418 0.936187 0.095132
O O6 0.276377 0.853347 0.023215
O O7 0.500000 0.250000 0.140871
O O8 0.500000 0.328735 0.224207
O O9 0.632480 0.357560 0.132460
O O10 0.129350 0.142462 0.179905
O O11 0.000000 0.250000 0.193710
O O12 0.312391 0.500000 0.500000
O O13 0.500000 0.477075 0.574180
O O14 0.310681 0.555516 0.600846
O O15 0.843960 0.330780 0.073004
O O16 0.500000 0.150169 0.512582
O O17 0.647643 0.250000 0.509720
#
# Coordination Sequence:
#
# PCOD9540146 Si02
#       8
#     4  16   8   8   8  16  16  16
#     4  10  24  46  80  98 132 174 216 282 352 394
#     4  12  25  40  67 100 135 171 213 268 339 403
#     4  11  24  48  74 106 136 170 223 288 340 403
#     4  11  26  42  67 100 132 173 220 278 344 376
#     4  11  22  44  71  94 124 173 228 278 320 376
#     4  11  24  43  65  94 131 182 223 262 326 411
#     4  12  23  42  66  94 134 174 224 273 322 400
#     4  11  22  36  61  98 132 169 213 265 330 397
#
# _framework density 18.67728
#
# number of rings (size 3 to 8) (size 9 to 14) (size 15 to 20)
#    0.000    0.696    5.217    2.609    4.870    1.739 
#    0.000    0.000   11.478    0.000    0.000    0.000 
#    0.000    0.000    0.000    0.000    0.000    0.000 
#
# Total GULP energy -256353.205621 kJ/mol
# GULP energy per Si atom -5572.895774 kJ/mol
# Density = 1.863477 g / cm^3
# Si number density = 18.677280 Si / 1000 Ang^3
#
#
#
# Elastic Constant Matrix: (Units=GPa)
#
#
# Indices 1 2 3 4 5 6 
#
# 1 204.2220 70.2120 44.8013 0.0000 0.0000 0.0000
# 2 70.2120 125.6856 39.2858 0.0000 0.0000 0.0000
# 3 44.8013 39.2858 58.9173 0.0000 0.0000 0.0000
# 4 0.0000 0.0000 0.0000 17.6491 0.0000 0.0000
# 5 0.0000 0.0000 0.0000 0.0000 18.4694 0.0000
# 6 0.0000 0.0000 0.0000 0.0000 0.0000 26.0073
#
#
#
# Elastic Compliance Matrix: (Units=1/GPa)
#
#
# Indices 1 2 3 4 5 6 
#
# 1 0.006502 -0.002636 -0.003186 0.000000 0.000000 0.000000
# 2 -0.002636 0.011120 -0.005410 0.000000 0.000000 0.000000
# 3 -0.003186 -0.005410 0.023003 0.000000 0.000000 0.000000
# 4 0.000000 0.000000 0.000000 0.056660 0.000000 0.000000
# 5 0.000000 0.000000 0.000000 0.000000 0.054143 0.000000
# 6 0.000000 0.000000 0.000000 0.000000 0.000000 0.038451
#
#
# Mechanical properties :
#
#
# Convention : Reuss Voigt Hill
#
# Bulk Modulus (GPa) = 55.06648 77.49146 66.27897
# Shear Modulus (GPa) = 22.89390 28.06023 25.47706
#
# Velocity S-wave (km/s) = 3.50489 3.88025 3.69733
# Velocity P-wave (km/s) = 6.77688 7.85206 7.33420
#
# Compressibility (1/GPa) = 0.01815987
#
# Stress axis : x y z
#
# Youngs Moduli (GPa) = 153.79916 89.92691 43.47189
#
# Poissons Ratio (x) = 0.23707 0.13852
# Poissons Ratio (y) = 0.40545 0.23519
# Poissons Ratio (z) = 0.49005 0.48653
#
# Static dielectric constant tensor:
#      x y z
#    x 1.641730 0.000000 0.000000 
#    y 0.000000 1.664780 0.000000 
#    z 0.000000 0.000000 1.640480 
# 
# From -- ./inp_files/57103.got.cif
#   From: 2010.05.17/outbox.cif.g08.bks.cpg/sg74_29_cif.got.tgz:57103.got - 2010.06.03 17:57:02.
