data_PCOD9540092
_publ_section_title
;
Structure prediction by ZEFSAII (Michael W. Deem and Ramdas Pophale) SiO2 
 PCOD9540092
Probable space group: I M M A
;
_chemical_formula_sum "Si O2"
_cell_formula_units_Z 80
_cell_length_a 15.051124
_cell_length_b 23.947886
_cell_length_c 11.444078
_cell_angle_alpha 90.000000
_cell_angle_beta 90.000000
_cell_angle_gamma 90.000000
_cell_volume 4124.933249
_symmetry_space_group_name_H-M "I M M A"
_symmetry_group_IT_number 74
_symmetry_cell_setting 'orthorhombic'
loop_
_space_group_symop_operation_xyz
x,y,z
-x,1/2-y,z
x,-y,-z
-x,1/2+y,-z
-x,-y,-z
x,1/2+y,-z
-x,y,z
x,1/2-y,z
1/2+x,1/2+y,1/2+z
1/2-x,-y,1/2+z
1/2+x,1/2-y,1/2-z
1/2-x,y,1/2-z
1/2-x,1/2-y,1/2-z
1/2+x,y,1/2-z
1/2-x,1/2+y,1/2+z
1/2+x,-y,1/2+z
loop_
_atom_site_type_symbol
_atom_site_label
_atom_site_fract_x
_atom_site_fract_y
_atom_site_fract_z
Si Si1 0.349301 0.750000 0.696486
Si Si2 0.350086 0.855653 0.270333
Si Si3 0.000000 0.430051 0.882103
Si Si4 0.891566 0.750000 0.073706
Si Si5 0.895363 0.686381 0.486483
Si Si6 0.500000 0.562438 0.656921
Si Si7 0.352021 0.631281 0.786539
O O1 0.250000 0.750000 0.750000
O O2 0.357870 0.750000 0.558135
O O3 0.387668 0.691415 0.740128
O O4 0.250000 0.875293 0.250000
O O5 0.414596 0.902194 0.321973
O O6 0.354864 0.804172 0.360298
O O7 0.383154 0.831737 0.146671
O O8 0.000000 0.495826 0.857123
O O9 0.000000 0.416930 0.021475
O O10 0.000000 0.750000 0.078061
O O11 0.860623 0.750000 0.503052
O O12 0.854076 0.641271 0.574404
O O13 0.000000 0.687566 0.511626
O O14 0.415152 0.585225 0.729007
O O15 0.250000 0.623247 0.750000
#
# Coordination Sequence:
#
# PCOD9540092 Si02
#       7
#     8  16   8   8  16   8  16
#     4  10  24  36  60 100 142 167 216 266 323 392
#     4  12  26  41  69  98 134 173 216 270 335 396
#     4  11  26  50  67  92 126 172 236 277 324 389
#     4  12  23  40  66 102 139 177 224 269 325 412
#     4  11  22  40  61  98 140 173 203 258 334 396
#     4  11  26  48  71  88 126 178 224 285 326 379
#     4  11  24  40  66  99 134 170 218 265 332 399
#
# _framework density 19.394254
#
# number of rings (size 3 to 8) (size 9 to 14) (size 15 to 20)
#    0.000    0.800    5.000    1.500    9.800    0.800 
#    0.000    2.000    0.000    0.000    0.000    0.000 
#    0.000    0.000    0.000    0.000    0.000    0.000 
#
# Total GULP energy -223605.601196 kJ/mol
# GULP energy per Si atom -5590.140030 kJ/mol
# Density = 1.935011 g / cm^3
# Si number density = 19.394254 Si / 1000 Ang^3
#
#
#
# Elastic Constant Matrix: (Units=GPa)
#
#
# Indices 1 2 3 4 5 6 
#
# 1 113.8512 24.1491 14.2304 0.0000 0.0000 0.0000
# 2 24.1491 79.3764 25.4528 0.0000 0.0000 0.0000
# 3 14.2304 25.4528 128.4347 0.0000 0.0001 0.0000
# 4 0.0000 0.0000 0.0000 30.6607 0.0000 0.0000
# 5 0.0000 0.0000 0.0001 0.0000 30.7253 0.0000
# 6 0.0000 0.0000 0.0000 0.0000 0.0000 -1.4964
#
#
#
# Elastic Compliance Matrix: (Units=1/GPa)
#
#
# Indices 1 2 3 4 5 6 
#
# 1 0.009420 -0.002703 -0.000508 0.000000 0.000000 0.000000
# 2 -0.002703 0.014229 -0.002520 0.000000 0.000000 0.000000
# 3 -0.000508 -0.002520 0.008342 0.000000 0.000000 0.000000
# 4 0.000000 0.000000 0.000000 0.032615 0.000000 0.000000
# 5 0.000000 0.000000 0.000000 0.000000 0.032547 0.000000
# 6 0.000000 0.000000 0.000000 0.000000 0.000000 -0.668284
#
#
# Mechanical properties :
#
#
# Convention : Reuss Voigt Hill
#
# Bulk Modulus (GPa) = 48.71413 49.92521 49.31967
# Shear Modulus (GPa) = -9.04444 29.16658 10.06107
#
# Velocity S-wave (km/s) = -2.16185 3.88219 2.28011
# Velocity P-wave (km/s) = 4.35211 6.77447 5.69361
#
# Compressibility (1/GPa) = 0.02052792
#
# Stress axis : x y z
#
# Youngs Moduli (GPa) = 106.15429 70.28038 119.87795
#
# Poissons Ratio (x) = 0.18997 0.06091
# Poissons Ratio (y) = 0.28694 0.30213
# Poissons Ratio (z) = 0.05393 0.17713
#
# Static dielectric constant tensor:
#      x y z
#    x 1.696310 0.000000 0.000000 
#    y 0.000000 1.653800 0.000000 
#    z 0.000000 0.000000 1.693990 
# 
# From -- ./inp_files/20585.got.cif
#   From: 2010.05.17/outbox.cif.g08.bks.cpg/sg74_11_cif.got.tgz:20585.got - 2010.06.03 17:57:02.
