data_PCOD9540195
_publ_section_title
;
Structure prediction by ZEFSAII (Michael W. Deem and Ramdas Pophale) SiO2 
 PCOD9540195
Probable space group: I M M A
;
_chemical_formula_sum "Si O2"
_cell_formula_units_Z 96
_cell_length_a 23.880103
_cell_length_b 18.573636
_cell_length_c 13.176166
_cell_angle_alpha 90.000000
_cell_angle_beta 90.000000
_cell_angle_gamma 90.000000
_cell_volume 5844.161158
_symmetry_space_group_name_H-M "I M M A"
_symmetry_group_IT_number 74
_symmetry_cell_setting 'orthorhombic'
loop_
_space_group_symop_operation_xyz
x,y,z
-x,1/2-y,z
x,-y,-z
-x,1/2+y,-z
-x,-y,-z
x,1/2+y,-z
-x,y,z
x,1/2-y,z
1/2+x,1/2+y,1/2+z
1/2-x,-y,1/2+z
1/2+x,1/2-y,1/2-z
1/2-x,y,1/2-z
1/2-x,1/2-y,1/2-z
1/2+x,y,1/2-z
1/2-x,1/2+y,1/2+z
1/2+x,-y,1/2+z
loop_
_atom_site_type_symbol
_atom_site_label
_atom_site_fract_x
_atom_site_fract_y
_atom_site_fract_z
Si Si1 0.772505 0.335544 0.392264
Si Si2 0.433707 0.164123 0.658687
Si Si3 0.938099 0.336031 0.075561
Si Si4 0.659769 0.607721 0.713058
Si Si5 0.737832 0.569362 0.075921
Si Si6 0.839586 0.060321 0.773430
O O1 0.766162 0.250000 0.381952
O O2 0.716859 0.374568 0.348492
O O3 0.824571 0.362363 0.324249
O O4 0.776435 0.362297 0.506747
O O5 0.500000 0.154145 0.680699
O O6 0.421861 0.250000 0.669459
O O7 0.424931 0.142460 0.540343
O O8 0.391864 0.114170 0.721891
O O9 0.941395 0.250000 0.071889
O O10 0.891109 0.355754 0.155395
O O11 0.000000 0.364456 0.102151
O O12 0.646537 0.523578 0.714233
O O13 0.797045 0.577395 0.133638
O O14 0.693682 0.563349 0.167243
O O15 0.737506 0.500000 0.000000
#
# Coordination Sequence:
#
# PCOD9540195 Si02
#       6
#    16  16  16  16  16  16
#     4  11  21  33  54  77 105 145 181 217 268 324
#     4   9  20  38  56  79 112 146 185 231 276 324
#     4   9  18  32  50  74 108 142 171 218 273 316
#     4  11  19  32  51  79 108 138 175 220 264 330
#     4  11  20  38  51  77 115 142 175 224 275 321
#     4  11  22  33  59  79 106 149 178 219 282 327
#
# _framework density 16.426652000000001
#
# number of rings (size 3 to 8) (size 9 to 14) (size 15 to 20)
#    0.000    1.667    3.333    5.000    0.000    3.333 
#    0.000    3.333    0.000    1.500    0.000    2.333 
#    0.000    0.000    0.000    0.000    0.000    0.000 
#
# Total GULP energy -267631.517203 kJ/mol
# GULP energy per Si atom -5575.656608 kJ/mol
# Density = 1.638926 g / cm^3
# Si number density = 16.426652 Si / 1000 Ang^3
#
#
#
# Elastic Constant Matrix: (Units=GPa)
#
#
# Indices 1 2 3 4 5 6 
#
# 1 75.7321 29.6618 37.2019 0.0000 0.0000 0.0000
# 2 29.6618 78.6103 24.7070 0.0000 0.0000 0.0000
# 3 37.2019 24.7070 75.0116 0.0000 0.0000 0.0000
# 4 0.0000 0.0000 0.0000 23.0890 0.0000 0.0000
# 5 0.0000 0.0000 0.0000 0.0000 12.6290 0.0000
# 6 0.0000 0.0000 0.0000 0.0000 0.0000 41.2735
#
#
#
# Elastic Compliance Matrix: (Units=1/GPa)
#
#
# Indices 1 2 3 4 5 6 
#
# 1 0.018874 -0.004662 -0.007825 0.000000 0.000000 0.000000
# 2 -0.004662 0.015342 -0.002741 0.000000 0.000000 0.000000
# 3 -0.007825 -0.002741 0.018115 0.000000 0.000000 0.000000
# 4 0.000000 0.000000 0.000000 0.043311 0.000000 0.000000
# 5 0.000000 0.000000 0.000000 0.000000 0.079183 0.000000
# 6 0.000000 0.000000 0.000000 0.000000 0.000000 0.024229
#
#
# Mechanical properties :
#
#
# Convention : Reuss Voigt Hill
#
# Bulk Modulus (GPa) = 45.71575 45.83283 45.77429
# Shear Modulus (GPa) = 21.11474 24.58384 22.84929
#
# Velocity S-wave (km/s) = 3.58913 3.87277 3.73364
# Velocity P-wave (km/s) = 6.71316 6.92530 6.82005
#
# Compressibility (1/GPa) = 0.02187430
#
# Stress axis : x y z
#
# Youngs Moduli (GPa) = 52.98154 65.18185 55.20323
#
# Poissons Ratio (x) = 0.30391 0.43197
# Poissons Ratio (y) = 0.24702 0.15130
# Poissons Ratio (z) = 0.41458 0.17865
#
# Static dielectric constant tensor:
#      x y z
#    x 1.561350 0.000000 0.000000 
#    y 0.000000 1.568970 0.000000 
#    z 0.000000 0.000000 1.563190 
# 
# From -- ./inp_files/22451.got.cif
#   From: 2010.05.17/outbox.cif.g08.bks.cpg/sg74_12_cif.got.tgz:22451.got - 2010.06.03 17:57:02.
