data_PCOD9540409
_publ_section_title
;
Structure prediction by ZEFSAII (Michael W. Deem and Ramdas Pophale) SiO2 
 PCOD9540409
Probable space group: I M M A
;
_chemical_formula_sum "Si O2"
_cell_formula_units_Z 80
_cell_length_a 8.463668
_cell_length_b 27.607352
_cell_length_c 19.234555
_cell_angle_alpha 90.000000
_cell_angle_beta 90.000000
_cell_angle_gamma 90.000000
_cell_volume 4494.335767
_symmetry_space_group_name_H-M "I M M A"
_symmetry_group_IT_number 74
_symmetry_cell_setting 'orthorhombic'
loop_
_space_group_symop_operation_xyz
x,y,z
-x,1/2-y,z
x,-y,-z
-x,1/2+y,-z
-x,-y,-z
x,1/2+y,-z
-x,y,z
x,1/2-y,z
1/2+x,1/2+y,1/2+z
1/2-x,-y,1/2+z
1/2+x,1/2-y,1/2-z
1/2-x,y,1/2-z
1/2-x,1/2-y,1/2-z
1/2+x,y,1/2-z
1/2-x,1/2+y,1/2+z
1/2+x,-y,1/2+z
loop_
_atom_site_type_symbol
_atom_site_label
_atom_site_fract_x
_atom_site_fract_y
_atom_site_fract_z
Si Si1 0.692098 0.649975 0.532174
Si Si2 0.190577 0.806325 0.823725
Si Si3 0.808812 0.049800 0.964599
Si Si4 0.312457 0.096168 0.825845
Si Si5 0.808807 0.195922 0.887796
O O1 0.500000 0.650577 0.534294
O O2 0.748603 0.666579 0.607431
O O3 0.741368 0.596103 0.510491
O O4 0.736242 0.685066 0.468208
O O5 0.239664 0.750000 0.828592
O O6 0.250000 0.825892 0.750000
O O7 0.000000 0.807536 0.823415
O O8 0.750427 0.061317 0.887001
O O9 0.000000 0.049382 0.962529
O O10 0.755329 0.000000 0.000000
O O11 0.500000 0.095407 0.826226
O O12 0.250000 0.082569 0.750000
O O13 0.255593 0.150866 0.843991
O O14 0.757301 0.250000 0.867127
O O15 0.000000 0.194244 0.883949
#
# Coordination Sequence:
#
# PCOD9540409 Si02
#       5
#    16  16  16  16  16
#     4   8  14  27  48  71  94 124 162 200 241 294
#     4   9  16  26  41  62  90 124 158 191 230 278
#     4   9  18  35  58  79  99 126 163 207 256 307
#     4  11  22  36  54  76 105 137 170 208 251 301
#     4   9  17  31  52  76 101 132 171 211 252 302
#
# _framework density 17.800183000000001
#
# number of rings (size 3 to 8) (size 9 to 14) (size 15 to 20)
#    0.000    2.800    0.000    3.600    0.000    3.600 
#    0.000    5.000    0.000    7.200    0.000    0.000 
#    0.000    0.000    0.000    0.000    0.000    0.000 
#
# Total GULP energy -222982.528313 kJ/mol
# GULP energy per Si atom -5574.563208 kJ/mol
# Density = 1.775967 g / cm^3
# Si number density = 17.800183 Si / 1000 Ang^3
#
#
#
# Elastic Constant Matrix: (Units=GPa)
#
#
# Indices 1 2 3 4 5 6 
#
# 1 23.0851 23.2014 21.1102 0.0000 0.0000 0.0000
# 2 23.2014 101.0362 58.2342 0.0000 0.0000 0.0000
# 3 21.1102 58.2342 153.2203 -0.0002 0.0000 0.0000
# 4 0.0000 0.0000 -0.0002 11.7747 0.0000 0.0000
# 5 0.0000 0.0000 0.0000 0.0000 27.3977 0.0000
# 6 0.0000 0.0000 0.0000 0.0000 0.0000 15.6602
#
#
#
# Elastic Compliance Matrix: (Units=1/GPa)
#
#
# Indices 1 2 3 4 5 6 
#
# 1 0.057948 -0.011147 -0.003747 0.000000 0.000000 0.000000
# 2 -0.011147 0.014818 -0.004096 0.000000 0.000000 0.000000
# 3 -0.003747 -0.004096 0.008600 0.000000 0.000000 0.000000
# 4 0.000000 0.000000 0.000000 0.084928 0.000000 0.000000
# 5 0.000000 0.000000 0.000000 0.000000 0.036499 0.000000
# 6 0.000000 0.000000 0.000000 0.000000 0.000000 0.063856
#
#
# Mechanical properties :
#
#
# Convention : Reuss Voigt Hill
#
# Bulk Modulus (GPa) = 23.04950 53.60368 38.32659
# Shear Modulus (GPa) = 15.66947 22.61955 19.14451
#
# Velocity S-wave (km/s) = 2.97020 3.56862 3.28307
# Velocity P-wave (km/s) = 4.97392 6.86728 5.99581
#
# Compressibility (1/GPa) = 0.04338489
#
# Stress axis : x y z
#
# Youngs Moduli (GPa) = 17.25687 67.48525 116.28422
#
# Poissons Ratio (x) = 0.75226 0.43574
# Poissons Ratio (y) = 0.19236 0.47631
# Poissons Ratio (z) = 0.06467 0.27642
#
# Static dielectric constant tensor:
#      x y z
#    x 1.615260 0.000000 0.000000 
#    y 0.000000 1.603120 0.000000 
#    z 0.000000 0.000000 1.606460 
# 
# From -- ./inp_files/39677.got.cif
#   From: 2010.05.17/outbox.cif.g08.bks.cpg/sg74_20_cif.got.tgz:39677.got - 2010.06.03 17:57:02.
