data_PCOD9540735
_publ_section_title
;
Structure prediction by ZEFSAII (Michael W. Deem and Ramdas Pophale) SiO2 
 PCOD9540735
Probable space group: I M M A
;
_chemical_formula_sum "Si O2"
_cell_formula_units_Z 72
_cell_length_a 7.290471
_cell_length_b 15.097634
_cell_length_c 30.896245
_cell_angle_alpha 90.000000
_cell_angle_beta 90.000000
_cell_angle_gamma 90.000000
_cell_volume 3400.714553
_symmetry_space_group_name_H-M "I M M A"
_symmetry_group_IT_number 74
_symmetry_cell_setting 'orthorhombic'
loop_
_space_group_symop_operation_xyz
x,y,z
-x,1/2-y,z
x,-y,-z
-x,1/2+y,-z
-x,-y,-z
x,1/2+y,-z
-x,y,z
x,1/2-y,z
1/2+x,1/2+y,1/2+z
1/2-x,-y,1/2+z
1/2+x,1/2-y,1/2-z
1/2-x,y,1/2-z
1/2-x,1/2-y,1/2-z
1/2+x,y,1/2-z
1/2-x,1/2+y,1/2+z
1/2+x,-y,1/2+z
loop_
_atom_site_type_symbol
_atom_site_label
_atom_site_fract_x
_atom_site_fract_y
_atom_site_fract_z
Si Si1 0.776493 0.250000 0.485445
Si Si2 0.718983 0.056663 0.198891
Si Si3 0.223235 0.442775 0.458199
Si Si4 0.276391 0.250000 0.913649
Si Si5 0.723706 0.938101 0.122558
Si Si6 0.781963 0.750000 0.698255
O O1 0.717246 0.158700 0.463236
O O2 0.721810 0.250000 0.535938
O O3 0.000000 0.250000 0.484963
O O4 0.500000 0.060532 0.193576
O O5 0.750000 0.044589 0.250000
O O6 0.789424 0.153907 0.184103
O O7 0.784953 0.977982 0.168302
O O8 0.278934 0.500000 0.500000
O O9 0.279434 0.493581 0.415034
O O10 0.000000 0.442004 0.458246
O O11 0.500000 0.250000 0.913887
O O12 0.216424 0.339685 0.890083
O O13 0.500000 0.935512 0.122486
O O14 0.750000 0.750000 0.750000
O O15 0.000000 0.750000 0.689730
#
# Coordination Sequence:
#
# PCOD9540735 Si02
#       6
#     8  16  16   8  16   8
#     4   9  14  19  30  47  72 105 135 162 198 247
#     4   9  17  29  44  62  84 111 141 175 211 248
#     4   9  14  20  30  47  71 100 131 162 197 242
#     4   9  14  22  34  49  72 107 140 164 200 252
#     4   9  16  24  36  53  76 106 139 169 204 249
#     4   8  14  25  41  58  78 104 133 164 206 249
#
# _framework density 21.172021000000001
#
# number of rings (size 3 to 8) (size 9 to 14) (size 15 to 20)
#    0.000    3.111    2.222    0.000    0.000    0.889 
#    0.000    5.000    0.000    0.000    0.000    0.000 
#    0.000    0.889    0.000    0.444    0.000    0.000 
#
# Total GULP energy -200868.653722 kJ/mol
# GULP energy per Si atom -5579.684826 kJ/mol
# Density = 2.112383 g / cm^3
# Si number density = 21.172021 Si / 1000 Ang^3
#
#
#
# Elastic Constant Matrix: (Units=GPa)
#
#
# Indices 1 2 3 4 5 6 
#
# 1 90.0791 6.9766 -0.4465 0.0000 0.0000 0.0000
# 2 6.9766 245.7107 106.6627 0.0000 0.0000 0.0000
# 3 -0.4465 106.6627 118.4534 0.0000 0.0000 0.0000
# 4 0.0000 0.0000 0.0000 29.8232 0.0000 0.0000
# 5 0.0000 0.0000 0.0000 0.0000 -5.2534 0.0000
# 6 0.0000 0.0000 0.0000 0.0000 0.0000 -11.5957
#
#
#
# Elastic Compliance Matrix: (Units=1/GPa)
#
#
# Indices 1 2 3 4 5 6 
#
# 1 0.011147 -0.000550 0.000537 0.000000 0.000000 0.000000
# 2 -0.000550 0.006709 -0.006043 0.000000 0.000000 0.000000
# 3 0.000537 -0.006043 0.013886 0.000000 0.000000 0.000000
# 4 0.000000 0.000000 0.000000 0.033531 0.000000 0.000000
# 5 0.000000 0.000000 0.000000 0.000000 -0.190351 0.000000
# 6 0.000000 0.000000 0.000000 0.000000 0.000000 -0.086239
#
#
# Mechanical properties :
#
#
# Convention : Reuss Voigt Hill
#
# Bulk Modulus (GPa) = 50.94359 75.62543 63.28451
# Shear Modulus (GPa) = -25.95194 25.33151 -0.31022
#
# Velocity S-wave (km/s) = -3.50489 3.46274 -0.38320
# Velocity P-wave (km/s) = 2.78118 7.19615 5.45525
#
# Compressibility (1/GPa) = 0.01962955
#
# Stress axis : x y z
#
# Youngs Moduli (GPa) = 89.71364 149.06070 72.01696
#
# Poissons Ratio (x) = 0.08191 -0.03866
# Poissons Ratio (y) = 0.04930 0.43520
# Poissons Ratio (z) = -0.04816 0.90077
#
# Static dielectric constant tensor:
#      x y z
#    x 1.919000 0.000000 0.000000 
#    y 0.000000 1.755840 0.000000 
#    z 0.000000 0.000000 1.715490 
# 
# From -- ./inp_files/59659.got.cif
#   From: 2010.05.17/outbox.cif.g08.bks.cpg/sg74_30_cif.got.tgz:59659.got - 2010.06.03 17:57:02.
