data_PCOD9540695
_publ_section_title
;
Structure prediction by ZEFSAII (Michael W. Deem and Ramdas Pophale) SiO2 
 PCOD9540695
Probable space group: I M M A
;
_chemical_formula_sum "Si O2"
_cell_formula_units_Z 112
_cell_length_a 14.270337
_cell_length_b 29.852688
_cell_length_c 13.667076
_cell_angle_alpha 90.000000
_cell_angle_beta 90.000000
_cell_angle_gamma 90.000000
_cell_volume 5822.282593
_symmetry_space_group_name_H-M "I M M A"
_symmetry_group_IT_number 74
_symmetry_cell_setting 'orthorhombic'
loop_
_space_group_symop_operation_xyz
x,y,z
-x,1/2-y,z
x,-y,-z
-x,1/2+y,-z
-x,-y,-z
x,1/2+y,-z
-x,y,z
x,1/2-y,z
1/2+x,1/2+y,1/2+z
1/2-x,-y,1/2+z
1/2+x,1/2-y,1/2-z
1/2-x,y,1/2-z
1/2-x,1/2-y,1/2-z
1/2+x,y,1/2-z
1/2-x,1/2+y,1/2+z
1/2+x,-y,1/2+z
loop_
_atom_site_type_symbol
_atom_site_label
_atom_site_fract_x
_atom_site_fract_y
_atom_site_fract_z
Si Si1 0.112597 0.607263 0.002659
Si Si2 0.298117 0.972717 0.604190
Si Si3 0.896196 0.455325 0.433251
Si Si4 0.113886 0.607870 0.390822
Si Si5 0.614392 0.699964 0.424518
Si Si6 0.114423 0.200033 0.696578
Si Si7 0.112676 0.945112 0.201542
O O1 0.144732 0.658736 0.008048
O O2 0.136197 0.586862 0.109807
O O3 0.000000 0.606192 0.994433
O O4 0.153154 0.574165 0.921463
O O5 0.191663 0.963506 0.635184
O O6 0.295898 0.000000 0.500000
O O7 0.351384 0.006111 0.674891
O O8 0.904274 0.500000 0.500000
O O9 0.866235 0.415085 0.506021
O O10 0.000000 0.447293 0.391699
O O11 0.145861 0.658299 0.368932
O O12 0.147596 0.575754 0.303086
O O13 0.000000 0.608211 0.385227
O O14 0.500000 0.699328 0.424281
O O15 0.643659 0.750000 0.453903
O O16 0.641078 0.692972 0.310336
O O17 0.145097 0.250000 0.666915
O O18 0.000000 0.200066 0.694827
O O19 0.000000 0.946609 0.207522
#
# Coordination Sequence:
#
# PCOD9540695 Si02
#       7
#    16  16  16  16  16  16  16
#     4   9  14  22  36  55  82 110 134 165 205 249
#     4   9  17  27  38  56  79 102 136 170 214 258
#     4   9  18  32  45  56  75 105 144 184 218 255
#     4   9  15  25  43  63  82 110 147 183 216 249
#     4   8  12  18  31  52  79 111 143 168 193 238
#     4   8  12  19  34  58  85 110 140 175 207 242
#     4   9  15  24  40  63  85 105 134 170 210 255
#
# _framework density 19.236442
#
# number of rings (size 3 to 8) (size 9 to 14) (size 15 to 20)
#    0.000    3.286    1.429    1.286    0.000    1.714 
#    0.000    6.429    0.000    0.857    0.000    3.000 
#    0.000    0.000    0.000    1.286    0.000   50.571 
#
# Total GULP energy -312525.138091 kJ/mol
# GULP energy per Si atom -5580.806037 kJ/mol
# Density = 1.919266 g / cm^3
# Si number density = 19.236442 Si / 1000 Ang^3
#
#
#
# Elastic Constant Matrix: (Units=GPa)
#
#
# Indices 1 2 3 4 5 6 
#
# 1 37.8858 18.8079 4.0461 0.0000 0.0000 0.0000
# 2 18.8079 166.9637 29.1336 0.0000 0.0000 0.0000
# 3 4.0461 29.1336 21.4461 0.0002 0.0001 -0.0001
# 4 0.0000 0.0000 0.0002 26.3718 0.0000 0.0000
# 5 0.0000 0.0000 0.0001 0.0000 10.0892 0.0000
# 6 0.0000 0.0000 -0.0001 0.0000 0.0000 -34.9296
#
#
#
# Elastic Compliance Matrix: (Units=1/GPa)
#
#
# Indices 1 2 3 4 5 6 
#
# 1 0.027987 -0.002924 -0.001307 0.000000 0.000000 0.000000
# 2 -0.002924 0.008156 -0.010527 0.000000 0.000000 0.000000
# 3 -0.001307 -0.010527 0.061176 0.000000 0.000000 0.000000
# 4 0.000000 0.000000 0.000000 0.037919 0.000000 0.000000
# 5 0.000000 0.000000 0.000000 0.000000 0.099116 0.000000
# 6 0.000000 0.000000 0.000000 0.000000 0.000000 -0.028629
#
#
# Mechanical properties :
#
#
# Convention : Reuss Voigt Hill
#
# Bulk Modulus (GPa) = 14.74924 36.69676 25.72300
# Shear Modulus (GPa) = 19.39163 11.92681 15.65922
#
# Velocity S-wave (km/s) = 3.17845 2.49270 2.85623
# Velocity P-wave (km/s) = 4.59935 5.23477 4.92732
#
# Compressibility (1/GPa) = 0.06780010
#
# Stress axis : x y z
#
# Youngs Moduli (GPa) = 35.73144 122.61375 16.34622
#
# Poissons Ratio (x) = 0.35858 0.02137
# Poissons Ratio (y) = 0.10450 0.17208
# Poissons Ratio (z) = 0.04671 1.29081
#
# Static dielectric constant tensor:
#      x y z
#    x 1.748550 0.000000 0.000000 
#    y 0.000000 1.692880 0.000000 
#    z 0.000000 0.000000 1.645940 
# 
# From -- ./inp_files/33156.got.cif
#   From: 2010.05.17/outbox.cif.g08.bks.cpg/sg74_17_cif.got.tgz:33156.got - 2010.06.03 17:57:02.
