data_PCOD9540753
_publ_section_title
;
Structure prediction by ZEFSAII (Michael W. Deem and Ramdas Pophale) SiO2 
 PCOD9540753
Probable space group: I M M A
;
_chemical_formula_sum "Si O2"
_cell_formula_units_Z 80
_cell_length_a 15.612162
_cell_length_b 7.233951
_cell_length_c 33.394983
_cell_angle_alpha 90.000000
_cell_angle_beta 90.000000
_cell_angle_gamma 90.000000
_cell_volume 3771.549730
_symmetry_space_group_name_H-M "I M M A"
_symmetry_group_IT_number 74
_symmetry_cell_setting 'orthorhombic'
loop_
_space_group_symop_operation_xyz
x,y,z
-x,1/2-y,z
x,-y,-z
-x,1/2+y,-z
-x,-y,-z
x,1/2+y,-z
-x,y,z
x,1/2-y,z
1/2+x,1/2+y,1/2+z
1/2-x,-y,1/2+z
1/2+x,1/2-y,1/2-z
1/2-x,y,1/2-z
1/2-x,1/2-y,1/2-z
1/2+x,y,1/2-z
1/2-x,1/2+y,1/2+z
1/2+x,-y,1/2+z
loop_
_atom_site_type_symbol
_atom_site_label
_atom_site_fract_x
_atom_site_fract_y
_atom_site_fract_z
Si Si1 0.591726 0.474345 0.177395
Si Si2 0.596252 0.530117 0.952978
Si Si3 0.229146 0.475152 0.387144
Si Si4 0.596641 0.524643 0.649562
Si Si5 0.153864 0.025404 0.238194
O O1 0.500000 0.531079 0.160161
O O2 0.593653 0.250000 0.176912
O O3 0.672417 0.531766 0.151242
O O4 0.598646 0.530572 0.223502
O O5 0.500000 0.459008 0.943847
O O6 0.592398 0.750000 0.946158
O O7 0.611828 0.500000 0.000000
O O8 0.673870 0.462441 0.925331
O O9 0.231131 0.250000 0.387900
O O10 0.326819 0.533932 0.379994
O O11 0.500000 0.466168 0.639840
O O12 0.596503 0.750000 0.649761
O O13 0.621726 0.465848 0.694786
O O14 0.153259 0.250000 0.236680
O O15 0.250000 0.970485 0.250000
#
# Coordination Sequence:
#
# PCOD9540753 Si02
#       5
#    16  16  16  16  16
#     4   9  14  18  26  40  60  89 123 157 190 224
#     4   9  17  29  45  64  84 105 129 159 199 246
#     4   9  15  23  34  49  70  95 127 163 195 232
#     4   9  15  21  29  42  64  97 134 167 197 230
#     4   9  13  18  25  36  59  92 128 162 192 223
#
# _framework density 21.211438999999999
#
# number of rings (size 3 to 8) (size 9 to 14) (size 15 to 20)
#    0.000    3.000    2.000    1.200    0.000    4.800 
#    0.000    0.000    0.000    0.600    0.000    0.000 
#    0.000    0.000    0.000    3.600    0.000   15.200 
#
# Total GULP energy -223255.714845 kJ/mol
# GULP energy per Si atom -5581.392871 kJ/mol
# Density = 2.116316 g / cm^3
# Si number density = 21.211439 Si / 1000 Ang^3
#
#
#
# Elastic Constant Matrix: (Units=GPa)
#
#
# Indices 1 2 3 4 5 6 
#
# 1 233.5299 6.4071 97.7301 0.0000 0.0000 0.0000
# 2 6.4071 99.3405 -0.0236 0.0000 0.0000 0.0000
# 3 97.7301 -0.0236 121.3236 0.0000 0.0000 0.0000
# 4 0.0000 0.0000 0.0000 -30.0120 0.0000 0.0000
# 5 0.0000 0.0000 0.0000 0.0000 54.0501 0.0000
# 6 0.0000 0.0000 0.0000 0.0000 0.0000 -1.8264
#
#
#
# Elastic Compliance Matrix: (Units=1/GPa)
#
#
# Indices 1 2 3 4 5 6 
#
# 1 0.006477 -0.000419 -0.005218 0.000000 0.000000 0.000000
# 2 -0.000419 0.010093 0.000339 0.000000 0.000000 0.000000
# 3 -0.005218 0.000339 0.012445 0.000000 0.000000 0.000000
# 4 0.000000 0.000000 0.000000 -0.033320 0.000000 0.000000
# 5 0.000000 0.000000 0.000000 0.000000 0.018501 0.000000
# 6 0.000000 0.000000 0.000000 0.000000 0.000000 -0.547535
#
#
# Mechanical properties :
#
#
# Convention : Reuss Voigt Hill
#
# Bulk Modulus (GPa) = 54.28353 73.60236 63.94295
# Shear Modulus (GPa) = -9.67861 27.78104 9.05121
#
# Velocity S-wave (km/s) = -2.13842 3.62293 2.06795
# Velocity P-wave (km/s) = 4.42155 7.23018 5.99273
#
# Compressibility (1/GPa) = 0.01842179
#
# Stress axis : x y z
#
# Youngs Moduli (GPa) = 154.38952 99.07377 80.35073
#
# Poissons Ratio (x) = 0.04151 0.41924
# Poissons Ratio (y) = 0.06469 -0.02728
# Poissons Ratio (z) = 0.80554 -0.03363
#
# Static dielectric constant tensor:
#      x y z
#    x 1.774960 0.000000 0.000000 
#    y 0.000000 1.909600 0.000000 
#    z 0.000000 0.000000 1.725470 
# 
# From -- ./inp_files/65838.got.cif
#   From: 2010.05.17/outbox.cif.g08.bks.cpg/sg74_33_cif.got.tgz:65838.got - 2010.06.03 17:57:02.
