data_PCOD9540081
_publ_section_title
;
Structure prediction by ZEFSAII (Michael W. Deem and Ramdas Pophale) SiO2 
 PCOD9540081
Probable space group: I M M A
;
_chemical_formula_sum "Si O2"
_cell_formula_units_Z 96
_cell_length_a 13.855671
_cell_length_b 21.293309
_cell_length_c 12.880772
_cell_angle_alpha 90.000000
_cell_angle_beta 90.000000
_cell_angle_gamma 90.000000
_cell_volume 3800.253888
_symmetry_space_group_name_H-M "I M M A"
_symmetry_group_IT_number 74
_symmetry_cell_setting 'orthorhombic'
loop_
_space_group_symop_operation_xyz
x,y,z
-x,1/2-y,z
x,-y,-z
-x,1/2+y,-z
-x,-y,-z
x,1/2+y,-z
-x,y,z
x,1/2-y,z
1/2+x,1/2+y,1/2+z
1/2-x,-y,1/2+z
1/2+x,1/2-y,1/2-z
1/2-x,y,1/2-z
1/2-x,1/2-y,1/2-z
1/2+x,y,1/2-z
1/2-x,1/2+y,1/2+z
1/2+x,-y,1/2+z
loop_
_atom_site_type_symbol
_atom_site_label
_atom_site_fract_x
_atom_site_fract_y
_atom_site_fract_z
Si Si1 0.386082 0.649112 0.690427
Si Si2 0.888385 0.677421 0.276244
Si Si3 0.191822 0.580543 0.438464
Si Si4 0.313433 0.682399 0.908133
Si Si5 0.102964 0.585366 0.101006
Si Si6 0.608813 0.483753 0.213954
O O1 0.500000 0.653472 0.660336
O O2 0.367750 0.684021 0.798915
O O3 0.301738 0.674140 0.614723
O O4 0.358809 0.577900 0.724943
O O5 0.862025 0.750000 0.282114
O O6 0.823205 0.631694 0.345482
O O7 0.889958 0.652512 0.157961
O O8 0.000000 0.669500 0.312949
O O9 0.148026 0.620615 0.532498
O O10 0.303832 0.573309 0.465277
O O11 0.159025 0.515567 0.385668
O O12 0.328441 0.750000 0.962067
O O13 0.107123 0.537318 0.197537
O O14 0.000000 0.578139 0.047360
O O15 0.500000 0.471024 0.180211
#
# Coordination Sequence:
#
# PCOD9540081 Si02
#       6
#    16  16  16  16  16  16
#     4  10  23  45  69  87 116 165 213 262 310 362
#     4   9  17  30  50  78 115 161 207 246 295 364
#     4  11  21  34  58  89 126 158 192 255 319 364
#     4  11  26  42  61  95 126 158 213 260 308 382
#     4   9  19  33  52  84 122 163 204 239 290 368
#     4   9  19  38  64  93 123 157 205 252 307 375
#
# _framework density 25.261469999999999
#
# number of rings (size 3 to 8) (size 9 to 14) (size 15 to 20)
#    0.000    2.167    0.000    5.000    4.667    6.000 
#    0.000    1.667    0.000    3.000    0.000    0.000 
#    0.000    0.000    0.000    0.000    0.000    0.000 
#
# Total GULP energy -268129.447154 kJ/mol
# GULP energy per Si atom -5586.030149 kJ/mol
# Density = 2.520397 g / cm^3
# Si number density = 25.261470 Si / 1000 Ang^3
#
#
#
# Elastic Constant Matrix: (Units=GPa)
#
#
# Indices 1 2 3 4 5 6 
#
# 1 102.4713 2.3687 -6.4660 0.0000 0.0000 0.0000
# 2 2.3687 167.9752 12.5653 -0.0001 0.0000 0.0000
# 3 -6.4660 12.5653 53.6921 -0.0001 0.0000 0.0000
# 4 0.0000 -0.0001 -0.0001 18.4382 0.0000 0.0000
# 5 0.0000 0.0000 0.0000 0.0000 -0.0919 0.0000
# 6 0.0000 0.0000 0.0000 0.0000 0.0000 21.0642
#
#
#
# Elastic Compliance Matrix: (Units=1/GPa)
#
#
# Indices 1 2 3 4 5 6 
#
# 1 0.009842 -0.000232 0.001239 0.000000 0.000000 0.000000
# 2 -0.000232 0.006065 -0.001447 0.000000 0.000000 0.000000
# 3 0.001239 -0.001447 0.019113 0.000000 -0.000001 0.000000
# 4 0.000000 0.000000 0.000000 0.054235 -0.000004 0.000000
# 5 0.000000 0.000000 -0.000001 -0.000004-10.876134 0.000001
# 6 0.000000 0.000000 0.000000 0.000000 0.000001 0.047474
#
#
# Mechanical properties :
#
#
# Convention : Reuss Voigt Hill
#
# Bulk Modulus (GPa) = 29.28999 37.89718 33.59359
# Shear Modulus (GPa) = -0.46611 28.92679 14.23034
#
# Velocity S-wave (km/s) = -0.43002 3.38760 2.37602
# Velocity P-wave (km/s) = 3.37244 5.50778 4.56667
#
# Compressibility (1/GPa) = 0.03414136
#
# Stress axis : x y z
#
# Youngs Moduli (GPa) = 101.60130 164.88638 52.32139
#
# Poissons Ratio (x) = 0.03817 -0.06485
# Poissons Ratio (y) = 0.02352 0.07572
# Poissons Ratio (z) = -0.12593 0.23862
#
# Static dielectric constant tensor:
#      x y z
#    x 2.014710 0.000000 0.000000 
#    y 0.000000 2.029130 0.000000 
#    z 0.000000 0.000000 2.007630 
# 
# From -- ./inp_files/32375.got.cif
#   From: 2010.05.17/outbox.cif.g08.bks.cpg/sg74_17_cif.got.tgz:32375.got - 2010.06.03 17:57:02.
