data_PCOD9540918
_publ_section_title
;
Structure prediction by ZEFSAII (Michael W. Deem and Ramdas Pophale) SiO2 
 PCOD9540918
Probable space group: I M M A
;
_chemical_formula_sum "Si O2"
_cell_formula_units_Z 44
_cell_length_a 9.000000
_cell_length_b 18.000000
_cell_length_c 30.000000
_cell_angle_alpha 90.000000
_cell_angle_beta 90.000000
_cell_angle_gamma 90.000000
_cell_volume 4860.000000
_symmetry_space_group_name_H-M "I M M A"
_symmetry_group_IT_number 74
_symmetry_cell_setting 'orthorhombic'
loop_
_space_group_symop_operation_xyz
x,y,z
-x,1/2-y,z
x,-y,-z
-x,1/2+y,-z
-x,-y,-z
x,1/2+y,-z
-x,y,z
x,1/2-y,z
1/2+x,1/2+y,1/2+z
1/2-x,-y,1/2+z
1/2+x,1/2-y,1/2-z
1/2-x,y,1/2-z
1/2-x,1/2-y,1/2-z
1/2+x,y,1/2-z
1/2-x,1/2+y,1/2+z
1/2+x,-y,1/2+z
loop_
_atom_site_type_symbol
_atom_site_label
_atom_site_fract_x
_atom_site_fract_y
_atom_site_fract_z
Si Si1 0.679228 0.053135 0.367609
Si Si2 0.677100 0.573787 0.529002
Si Si3 0.180152 0.750000 0.200847
Si Si4 0.677025 0.337310 0.202669
Si Si5 0.831142 0.661624 0.455363
Si Si6 0.821406 0.885013 0.136073
O O1 0.500000 0.060097 0.364864
O O2 0.721195 0.063429 0.419622
O O3 0.755515 0.113141 0.336351
O O4 0.719568 0.969564 0.352417
O O5 0.707068 0.500000 0.500000
O O6 0.500000 0.586318 0.528088
O O7 0.758701 0.637772 0.501853
O O8 0.250000 0.750000 0.250000
O O9 0.224960 0.677352 0.171863
O O10 0.000000 0.750000 0.204546
O O11 0.500000 0.346653 0.205229
O O12 0.708976 0.250000 0.194820
O O13 0.750000 0.357754 0.250000
O O14 0.831479 0.750000 0.451819
O O15 0.742019 0.631653 0.412834
O O16 0.000000 0.633750 0.453374
O O17 0.000000 0.881399 0.133006
#
# Coordination Sequence:
#
# PCOD9540918 Si02
#       6
#    16  16   8  16  16  16
#     4  10  21  37  61  91 120 150 196 247 292 349
#     4  10  20  37  59  83 114 154 196 238 284 340
#     4  10  22  38  60  84 114 154 194 246 299 346
#     4  10  22  41  64  88 117 154 193 238 295 355
#     4  11  23  36  54  83 117 154 196 241 287 340
#     4  10  20  38  61  83 111 154 200 241 291 350
#
# _framework density 9.0534979999999994
#
# number of rings (size 3 to 8) (size 9 to 14) (size 15 to 20)
#    0.000    1.818    2.727    1.091    0.000    6.182 
#    0.000    5.455    0.000    0.000    0.000    0.000 
#    0.000    0.000    0.000    0.000    0.000    0.000 
#
# Total GULP energy -245627.236004 kJ/mol
# GULP energy per Si atom -5582.437182 kJ/mol
# Density = 0.903289 g / cm^3
# Si number density = 9.053498 Si / 1000 Ang^3
#
#
#
# Elastic Constant Matrix: (Units=GPa)
#
#
# Indices 1 2 3 4 5 6 
#
# 1 18.3456 43.4309 48.3458 0.0000 0.0000 0.0000
# 2 43.4309 85.5980 80.2398 0.0000 0.0000 0.0000
# 3 48.3458 80.2398 161.6965 0.0000 0.0000 0.0000
# 4 0.0000 0.0000 0.0000 30.4600 0.0000 0.0000
# 5 0.0000 0.0000 0.0000 0.0000 25.7113 0.0000
# 6 0.0000 0.0000 0.0000 0.0000 0.0000 17.7372
#
#
#
# Elastic Compliance Matrix: (Units=1/GPa)
#
#
# Indices 1 2 3 4 5 6 
#
# 1 -0.229130 0.097297 0.020225 0.000000 0.000000 0.000000
# 2 0.097297 -0.019473 -0.019428 0.000000 0.000000 0.000000
# 3 0.020225 -0.019428 0.009778 0.000000 0.000000 0.000000
# 4 0.000000 0.000000 0.000000 0.032830 0.000000 0.000000
# 5 0.000000 0.000000 0.000000 0.000000 0.038893 0.000000
# 6 0.000000 0.000000 0.000000 0.000000 0.000000 0.056379
#
#
# Mechanical properties :
#
#
# Convention : Reuss Voigt Hill
#
# Bulk Modulus (GPa) = -23.45470 67.74145 22.14338
# Shear Modulus (GPa) = -15.57031 21.02329 2.72649
#
# Velocity S-wave (km/s) = -2.93560 3.41113 1.22843
# Velocity P-wave (km/s) = 4.94690 7.28062 3.77727
#
# Compressibility (1/GPa) = -0.04263538
#
# Stress axis : x y z
#
# Youngs Moduli (GPa) = -4.36433 -51.35443 102.26897
#
# Poissons Ratio (x) = 4.99665 -2.06843
# Poissons Ratio (y) = 0.42464 1.98689
# Poissons Ratio (z) = 0.08827 -0.99772
#
# Static dielectric constant tensor:
#      x y z
#    x 1.619300 0.000000 0.000000 
#    y 0.000000 1.638000 0.000000 
#    z 0.000000 0.000000 1.582380 
# 
# From -- ./inp_files/70310.got.cif
#   From: 2010.05.17/outbox.ucp.g08.bks.cvg/sg74_36_cif.got.tgz:70310.got - 2010.06.11 16:37:44.
