data_PCOD9540233
_publ_section_title
;
Structure prediction by ZEFSAII (Michael W. Deem and Ramdas Pophale) SiO2 
 PCOD9540233
Probable space group: I M M A
;
_chemical_formula_sum "Si O2"
_cell_formula_units_Z 64
_cell_length_a 19.915963
_cell_length_b 10.477705
_cell_length_c 19.793164
_cell_angle_alpha 90.000000
_cell_angle_beta 90.000000
_cell_angle_gamma 90.000000
_cell_volume 4130.310492
_symmetry_space_group_name_H-M "I M M A"
_symmetry_group_IT_number 74
_symmetry_cell_setting 'orthorhombic'
loop_
_space_group_symop_operation_xyz
x,y,z
-x,1/2-y,z
x,-y,-z
-x,1/2+y,-z
-x,-y,-z
x,1/2+y,-z
-x,y,z
x,1/2-y,z
1/2+x,1/2+y,1/2+z
1/2-x,-y,1/2+z
1/2+x,1/2-y,1/2-z
1/2-x,y,1/2-z
1/2-x,1/2-y,1/2-z
1/2+x,y,1/2-z
1/2-x,1/2+y,1/2+z
1/2+x,-y,1/2+z
loop_
_atom_site_type_symbol
_atom_site_label
_atom_site_fract_x
_atom_site_fract_y
_atom_site_fract_z
Si Si1 0.204859 0.000000 0.500000
Si Si2 0.639391 0.596865 0.749703
Si Si3 0.500000 0.990309 0.794121
Si Si4 0.000000 0.750000 0.377456
Si Si5 0.750114 0.903293 0.638490
Si Si6 0.000000 0.750000 0.604801
Si Si7 0.887087 0.750000 0.490982
O O1 0.246979 0.975417 0.567842
O O2 0.158177 0.875935 0.491521
O O3 0.628596 0.750000 0.749735
O O4 0.568276 0.528140 0.752253
O O5 0.686394 0.566435 0.685708
O O6 0.683659 0.567479 0.816541
O O7 0.500000 0.875409 0.848979
O O8 0.500000 0.123876 0.832395
O O9 0.935617 0.750000 0.426473
O O10 0.750249 0.750000 0.627220
O O11 0.934816 0.750000 0.556903
#
# Coordination Sequence:
#
# PCOD9540233 Si02
#       7
#     8  16   8   4  16   4   8
#     4  12  20  33  52  73 104 142 174 204 256 306
#     4   9  17  32  54  76  97 130 179 221 248 289
#     4  12  20  33  54  75 100 137 172 211 261 301
#     4  11  24  32  42  74 116 139 158 198 260 319
#     4   9  18  32  51  76 103 131 171 219 255 294
#     4  11  20  32  50  74 100 135 184 206 232 301
#     4  11  22  32  46  72 108 143 168 200 242 311
#
# _framework density 15.495203
#
# number of rings (size 3 to 8) (size 9 to 14) (size 15 to 20)
#    0.000    1.750    2.500    6.000    0.000    2.000 
#    0.000    1.250    0.000    5.250    0.000    0.000 
#    0.000    0.000    0.000    0.000    0.000    0.000 
#
# Total GULP energy -178641.746341 kJ/mol
# GULP energy per Si atom -5582.554573 kJ/mol
# Density = 1.545993 g / cm^3
# Si number density = 15.495203 Si / 1000 Ang^3
#
#
#
# Elastic Constant Matrix: (Units=GPa)
#
#
# Indices 1 2 3 4 5 6 
#
# 1 104.0695 35.3375 54.5610 0.0000 0.0000 0.0000
# 2 35.3375 84.4754 37.8929 0.0000 0.0000 0.0000
# 3 54.5610 37.8929 110.6294 0.0000 0.0000 0.0000
# 4 0.0000 0.0000 0.0000 27.6808 0.0000 0.0000
# 5 0.0000 0.0000 0.0000 0.0000 12.5730 0.0000
# 6 0.0000 0.0000 0.0000 0.0000 0.0000 31.4302
#
#
#
# Elastic Compliance Matrix: (Units=1/GPa)
#
#
# Indices 1 2 3 4 5 6 
#
# 1 0.013646 -0.003178 -0.005641 0.000000 0.000000 0.000000
# 2 -0.003178 0.014727 -0.003477 0.000000 0.000000 0.000000
# 3 -0.005641 -0.003477 0.013012 0.000000 0.000000 0.000000
# 4 0.000000 0.000000 0.000000 0.036126 0.000000 0.000000
# 5 0.000000 0.000000 0.000000 0.000000 0.079536 0.000000
# 6 0.000000 0.000000 0.000000 0.000000 0.000000 0.031817
#
#
# Mechanical properties :
#
#
# Convention : Reuss Voigt Hill
#
# Bulk Modulus (GPa) = 59.55026 61.63969 60.59497
# Shear Modulus (GPa) = 22.82555 25.76233 24.29394
#
# Velocity S-wave (km/s) = 3.84223 4.08192 3.96389
# Velocity P-wave (km/s) = 7.62879 7.87923 7.75502
#
# Compressibility (1/GPa) = 0.01679254
#
# Stress axis : x y z
#
# Youngs Moduli (GPa) = 73.28364 67.90384 76.84961
#
# Poissons Ratio (x) = 0.21577 0.43354
# Poissons Ratio (y) = 0.23287 0.26721
# Poissons Ratio (z) = 0.41343 0.23610
#
# Static dielectric constant tensor:
#      x y z
#    x 1.518920 0.000000 0.000000 
#    y 0.000000 1.492260 0.000000 
#    z 0.000000 0.000000 1.514390 
# 
# From -- ./inp_files/43698.got.cif
#   From: 2010.05.17/outbox.cif.g08.bks.cpg/sg74_22_cif.got.tgz:43698.got - 2010.06.03 17:57:02.
