data_PCOD9540179
_publ_section_title
;
Structure prediction by ZEFSAII (Michael W. Deem and Ramdas Pophale) SiO2 
 PCOD9540179
Probable space group: I M M A
;
_chemical_formula_sum "Si O2"
_cell_formula_units_Z 80
_cell_length_a 11.219358
_cell_length_b 19.216085
_cell_length_c 23.448503
_cell_angle_alpha 90.000000
_cell_angle_beta 90.000000
_cell_angle_gamma 90.000000
_cell_volume 5055.312871
_symmetry_space_group_name_H-M "I M M A"
_symmetry_group_IT_number 74
_symmetry_cell_setting 'orthorhombic'
loop_
_space_group_symop_operation_xyz
x,y,z
-x,1/2-y,z
x,-y,-z
-x,1/2+y,-z
-x,-y,-z
x,1/2+y,-z
-x,y,z
x,1/2-y,z
1/2+x,1/2+y,1/2+z
1/2-x,-y,1/2+z
1/2+x,1/2-y,1/2-z
1/2-x,y,1/2-z
1/2-x,1/2-y,1/2-z
1/2+x,y,1/2-z
1/2-x,1/2+y,1/2+z
1/2+x,-y,1/2+z
loop_
_atom_site_type_symbol
_atom_site_label
_atom_site_fract_x
_atom_site_fract_y
_atom_site_fract_z
Si Si1 0.000000 0.332381 0.861115
Si Si2 0.358739 0.250000 0.861054
Si Si3 0.000000 0.666856 0.001434
Si Si4 0.140442 0.250000 0.508900
Si Si5 0.144256 0.020173 0.585742
Si Si6 0.751767 0.890186 0.183601
Si Si7 0.756981 0.892648 0.521886
O O1 0.115836 0.371557 0.837694
O O2 0.000000 0.250000 0.844401
O O3 0.000000 0.334604 0.929721
O O4 0.500000 0.250000 0.865386
O O5 0.307236 0.250000 0.926091
O O6 0.318729 0.318649 0.828514
O O7 0.000000 0.750000 0.985485
O O8 0.882610 0.625795 0.980728
O O9 0.180262 0.318423 0.476551
O O10 0.000000 0.250000 0.514874
O O11 0.190205 0.051097 0.645014
O O12 0.196710 0.071225 0.536661
O O13 0.000000 0.019211 0.582195
O O14 0.200049 0.945298 0.570636
O O15 0.750000 0.907265 0.250000
#
# Coordination Sequence:
#
# PCOD9540179 Si02
#       7
#     8   8   8   8  16  16  16
#     4  11  22  37  51  77 115 147 195 232 261 319
#     4  11  21  34  52  78 110 148 192 231 264 308
#     4  11  20  36  56  82 120 144 177 226 273 335
#     4  11  18  32  56  84 109 142 186 226 272 325
#     4  11  23  39  54  79 112 144 187 234 275 322
#     4  12  25  37  54  77 108 154 195 232 270 312
#     4  11  21  35  57  81 109 147 180 225 282 329
#
# _framework density 15.824935999999999
#
# number of rings (size 3 to 8) (size 9 to 14) (size 15 to 20)
#    0.000    0.800    6.000    3.300    2.800    2.400 
#    0.000    0.000    0.000    0.000    0.000    0.700 
#    0.000    0.000    0.000    0.000    0.000    0.000 
#
# Total GULP energy -223399.435980 kJ/mol
# GULP energy per Si atom -5584.985899 kJ/mol
# Density = 1.578892 g / cm^3
# Si number density = 15.824936 Si / 1000 Ang^3
#
#
#
# Elastic Constant Matrix: (Units=GPa)
#
#
# Indices 1 2 3 4 5 6 
#
# 1 148.6367 53.0608 40.2943 0.0000 0.0000 0.0000
# 2 53.0608 126.6292 63.7972 0.0000 0.0000 0.0000
# 3 40.2943 63.7972 93.0862 0.0000 0.0000 0.0000
# 4 0.0000 0.0000 0.0000 51.0420 0.0000 0.0000
# 5 0.0000 0.0000 0.0000 0.0000 -4.3928 0.0000
# 6 0.0000 0.0000 0.0000 0.0000 0.0000 30.2508
#
#
#
# Elastic Compliance Matrix: (Units=1/GPa)
#
#
# Indices 1 2 3 4 5 6 
#
# 1 0.008105 -0.002487 -0.001803 0.000000 0.000000 0.000000
# 2 -0.002487 0.012825 -0.007713 0.000000 0.000000 0.000000
# 3 -0.001803 -0.007713 0.016810 0.000000 0.000000 0.000000
# 4 0.000000 0.000000 0.000000 0.019592 0.000000 0.000000
# 5 0.000000 0.000000 0.000000 0.000000 -0.227644 0.000000
# 6 0.000000 0.000000 0.000000 0.000000 0.000000 0.033057
#
#
# Mechanical properties :
#
#
# Convention : Reuss Voigt Hill
#
# Bulk Modulus (GPa) = 72.82540 75.85075 74.33807
# Shear Modulus (GPa) = -46.01060 29.46000 -8.27530
#
# Velocity S-wave (km/s) = -5.39795 4.31933 -2.28924
# Velocity P-wave (km/s) = 2.69607 8.53878 6.33165
#
# Compressibility (1/GPa) = 0.01373147
#
# Stress axis : x y z
#
# Youngs Moduli (GPa) = 123.38516 77.97045 59.48948
#
# Poissons Ratio (x) = 0.19395 0.10729
# Poissons Ratio (y) = 0.30691 0.45885
# Poissons Ratio (z) = 0.22252 0.60140
#
# Static dielectric constant tensor:
#      x y z
#    x 1.569150 0.000000 0.000000 
#    y 0.000000 1.343100 0.000000 
#    z 0.000000 0.000000 1.520380 
# 
# From -- ./inp_files/58807.got.cif
#   From: 2010.05.17/outbox.cif.g08.bks.cpg/sg74_30_cif.got.tgz:58807.got - 2010.06.03 17:57:02.
