data_PCOD9540896
_publ_section_title
;
Structure prediction by ZEFSAII (Michael W. Deem and Ramdas Pophale) SiO2 
 PCOD9540896
Probable space group: I M M A
;
_chemical_formula_sum "Si O2"
_cell_formula_units_Z 40
_cell_length_a 18.000000
_cell_length_b 9.000000
_cell_length_c 27.000000
_cell_angle_alpha 90.000000
_cell_angle_beta 90.000000
_cell_angle_gamma 90.000000
_cell_volume 4374.000000
_symmetry_space_group_name_H-M "I M M A"
_symmetry_group_IT_number 74
_symmetry_cell_setting 'orthorhombic'
loop_
_space_group_symop_operation_xyz
x,y,z
-x,1/2-y,z
x,-y,-z
-x,1/2+y,-z
-x,-y,-z
x,1/2+y,-z
-x,y,z
x,1/2-y,z
1/2+x,1/2+y,1/2+z
1/2-x,-y,1/2+z
1/2+x,1/2-y,1/2-z
1/2-x,y,1/2-z
1/2-x,1/2-y,1/2-z
1/2+x,y,1/2-z
1/2-x,1/2+y,1/2+z
1/2+x,-y,1/2+z
loop_
_atom_site_type_symbol
_atom_site_label
_atom_site_fract_x
_atom_site_fract_y
_atom_site_fract_z
Si Si1 0.589654 0.579076 0.354265
Si Si2 0.323848 0.429358 0.949527
Si Si3 0.087525 0.572962 0.349205
Si Si4 0.839954 0.571588 0.949074
Si Si5 0.909449 0.078144 0.247220
O O1 0.500000 0.578637 0.353910
O O2 0.614880 0.750000 0.359799
O O3 0.616744 0.481947 0.400449
O O4 0.614866 0.512324 0.301430
O O5 0.317795 0.250000 0.954587
O O6 0.369914 0.462996 0.899885
O O7 0.242877 0.503705 0.944488
O O8 0.356745 0.500000 0.000000
O O9 0.094260 0.750000 0.340847
O O10 0.114937 0.490279 0.299728
O O11 0.000000 0.539090 0.355497
O O12 0.838186 0.750000 0.952927
O O13 0.871294 0.500000 0.000000
O O14 0.887581 0.250000 0.243054
O O15 0.000000 0.071855 0.247593
#
# Coordination Sequence:
#
# PCOD9540896 Si02
#       5
#    16  16  16  16  16
#     4  10  20  35  56  80 106 136 170 209 254 305
#     4  10  20  35  54  75 103 138 175 214 258 309
#     4   9  18  33  53  77 105 138 174 212 256 306
#     4  11  22  37  56  76 103 137 173 213 257 307
#     4   9  17  30  50  77 107 137 169 208 255 304
#
# _framework density 9.1449470000000002
#
# number of rings (size 3 to 8) (size 9 to 14) (size 15 to 20)
#    0.000    2.200    0.000    4.800    0.000    6.000 
#    0.000    1.000    0.000    6.000    0.000    0.000 
#    0.000    0.000    0.000    0.000    0.000    0.000 
#
# Total GULP energy -223217.207504 kJ/mol
# GULP energy per Si atom -5580.430188 kJ/mol
# Density = 0.912413 g / cm^3
# Si number density = 9.144947 Si / 1000 Ang^3
#
#
#
# Elastic Constant Matrix: (Units=GPa)
#
#
# Indices 1 2 3 4 5 6 
#
# 1 13.9613 23.6873 31.5089 0.0000 0.0000 0.0000
# 2 23.6873 136.0399 88.1919 0.0000 0.0000 0.0000
# 3 31.5089 88.1919 185.2270 0.0000 0.0000 0.0000
# 4 0.0000 0.0000 0.0000 42.2771 0.0000 0.0000
# 5 0.0000 0.0000 0.0000 0.0000 -24.5995 0.0000
# 6 0.0000 0.0000 0.0000 0.0000 0.0000 20.9429
#
#
#
# Elastic Compliance Matrix: (Units=1/GPa)
#
#
# Indices 1 2 3 4 5 6 
#
# 1 0.128216 -0.011840 -0.016173 0.000000 0.000000 0.000000
# 2 -0.011840 0.011726 -0.003569 0.000000 0.000000 0.000000
# 3 -0.016173 -0.003569 0.009849 0.000000 0.000000 0.000000
# 4 0.000000 0.000000 0.000000 0.023653 0.000000 0.000000
# 5 0.000000 0.000000 0.000000 0.000000 -0.040651 0.000000
# 6 0.000000 0.000000 0.000000 0.000000 0.000000 0.047749
#
#
# Mechanical properties :
#
#
# Convention : Reuss Voigt Hill
#
# Bulk Modulus (GPa) = 11.54381 69.11159 40.32770
# Shear Modulus (GPa) = 18.34301 20.51344 19.42823
#
# Velocity S-wave (km/s) = 3.17030 3.35262 3.26274
# Velocity P-wave (km/s) = 4.44144 7.27018 6.02420
#
# Compressibility (1/GPa) = 0.08662655
#
# Stress axis : x y z
#
# Youngs Moduli (GPa) = 7.79932 85.27975 101.52953
#
# Poissons Ratio (x) = 1.00972 1.64208
# Poissons Ratio (y) = 0.09235 0.36236
# Poissons Ratio (z) = 0.12614 0.30436
#
# Static dielectric constant tensor:
#      x y z
#    x 1.628010 0.000000 0.000000 
#    y 0.000000 1.617790 0.000000 
#    z 0.000000 0.000000 1.627040 
# 
# From -- ./inp_files/63950.got.cif
#   From: 2010.05.17/outbox.ucp.g08.bks.cvg/sg74_32_cif.got.tgz:63950.got - 2010.06.11 16:37:44.
