data_PCOD9540374
_publ_section_title
;
Structure prediction by ZEFSAII (Michael W. Deem and Ramdas Pophale) SiO2 
 PCOD9540374
Probable space group: I M M A
;
_chemical_formula_sum "Si O2"
_cell_formula_units_Z 72
_cell_length_a 19.605709
_cell_length_b 11.389703
_cell_length_c 17.835315
_cell_angle_alpha 90.000000
_cell_angle_beta 90.000000
_cell_angle_gamma 90.000000
_cell_volume 3982.682959
_symmetry_space_group_name_H-M "I M M A"
_symmetry_group_IT_number 74
_symmetry_cell_setting 'orthorhombic'
loop_
_space_group_symop_operation_xyz
x,y,z
-x,1/2-y,z
x,-y,-z
-x,1/2+y,-z
-x,-y,-z
x,1/2+y,-z
-x,y,z
x,1/2-y,z
1/2+x,1/2+y,1/2+z
1/2-x,-y,1/2+z
1/2+x,1/2-y,1/2-z
1/2-x,y,1/2-z
1/2-x,1/2-y,1/2-z
1/2+x,y,1/2-z
1/2-x,1/2+y,1/2+z
1/2+x,-y,1/2+z
loop_
_atom_site_type_symbol
_atom_site_label
_atom_site_fract_x
_atom_site_fract_y
_atom_site_fract_z
Si Si1 0.305584 0.250000 0.817667
Si Si2 0.172448 0.380403 0.281751
Si Si3 0.420670 0.250000 0.693407
Si Si4 0.500000 0.887115 0.555888
Si Si5 0.878796 0.001282 0.858196
Si Si6 0.775604 0.014672 0.587570
O O1 0.250000 0.250000 0.750000
O O2 0.375178 0.250000 0.769311
O O3 0.293957 0.362914 0.870720
O O4 0.145108 0.250000 0.274058
O O5 0.250000 0.382338 0.250000
O O6 0.131400 0.466788 0.228581
O O7 0.180502 0.420125 0.366511
O O8 0.500000 0.250000 0.712386
O O9 0.403894 0.364952 0.644022
O O10 0.500000 0.750000 0.529507
O O11 0.500000 0.000000 0.500000
O O12 0.567714 0.913164 0.604510
O O13 0.805120 0.994369 0.897552
O O14 0.788576 0.000000 0.500000
#
# Coordination Sequence:
#
# PCOD9540374 Si02
#       6
#     8  16   8   8  16  16
#     4  12  20  42  66  90 129 169 225 276 324 407
#     4   9  18  34  56  79 111 153 200 247 305 379
#     4  12  22  38  70  94 118 171 230 271 315 395
#     4  12  28  44  60  90 133 178 219 266 323 400
#     4  11  21  40  60  86 124 166 214 258 319 390
#     4  11  22  35  58  94 125 159 200 270 336 381
#
# _framework density 18.078264999999998
#
# number of rings (size 3 to 8) (size 9 to 14) (size 15 to 20)
#    0.000    1.111    5.556    2.000    3.111    0.889 
#    4.000    0.000    0.000    0.667    0.000    0.000 
#    0.000    0.000    0.000    0.000    0.000    0.000 
#
# Total GULP energy -200837.512137 kJ/mol
# GULP energy per Si atom -5578.819782 kJ/mol
# Density = 1.803712 g / cm^3
# Si number density = 18.078265 Si / 1000 Ang^3
#
#
#
# Elastic Constant Matrix: (Units=GPa)
#
#
# Indices 1 2 3 4 5 6 
#
# 1 47.2497 5.9521 3.8580 0.0000 0.0000 0.0000
# 2 5.9521 113.9171 22.4539 0.0000 0.0000 0.0000
# 3 3.8580 22.4539 120.6813 0.0000 0.0000 0.0000
# 4 0.0000 0.0000 0.0000 24.1826 0.0000 0.0000
# 5 0.0000 0.0000 0.0000 0.0000 18.9912 0.0000
# 6 0.0000 0.0000 0.0000 0.0000 0.0000 20.0364
#
#
#
# Elastic Compliance Matrix: (Units=1/GPa)
#
#
# Indices 1 2 3 4 5 6 
#
# 1 0.021333 -0.001018 -0.000493 0.000000 0.000000 0.000000
# 2 -0.001018 0.009161 -0.001672 0.000000 0.000000 0.000000
# 3 -0.000493 -0.001672 0.008613 0.000000 0.000000 0.000000
# 4 0.000000 0.000000 0.000000 0.041352 0.000000 0.000000
# 5 0.000000 0.000000 0.000000 0.000000 0.052656 0.000000
# 6 0.000000 0.000000 0.000000 0.000000 0.000000 0.049909
#
#
# Mechanical properties :
#
#
# Convention : Reuss Voigt Hill
#
# Bulk Modulus (GPa) = 30.54137 38.48622 34.51380
# Shear Modulus (GPa) = 24.96225 29.28097 27.12161
#
# Velocity S-wave (km/s) = 3.71993 4.02889 3.87749
# Velocity P-wave (km/s) = 5.94820 6.55572 6.25934
#
# Compressibility (1/GPa) = 0.03274247
#
# Stress axis : x y z
#
# Youngs Moduli (GPa) = 46.87670 109.15803 116.10192
#
# Poissons Ratio (x) = 0.11107 0.05720
# Poissons Ratio (y) = 0.04770 0.19412
# Poissons Ratio (z) = 0.02309 0.18251
#
# Static dielectric constant tensor:
#      x y z
#    x 1.613870 0.000000 0.000000 
#    y 0.000000 1.667420 0.000000 
#    z 0.000000 0.000000 1.611500 
# 
# From -- ./inp_files/43751.got.cif
#   From: 2010.05.17/outbox.cif.g08.bks.cpg/sg74_22_cif.got.tgz:43751.got - 2010.06.03 17:57:02.
