data_PCOD9540818
_publ_section_title
;
Structure prediction by ZEFSAII (Michael W. Deem and Ramdas Pophale) SiO2 
 PCOD9540818
Probable space group: I M M A
;
_chemical_formula_sum "Si O2"
_cell_formula_units_Z 56
_cell_length_a 30.000000
_cell_length_b 15.000000
_cell_length_c 15.000000
_cell_angle_alpha 90.000000
_cell_angle_beta 90.000000
_cell_angle_gamma 90.000000
_cell_volume 6750.000000
_symmetry_space_group_name_H-M "I M M A"
_symmetry_group_IT_number 74
_symmetry_cell_setting 'orthorhombic'
loop_
_space_group_symop_operation_xyz
x,y,z
-x,1/2-y,z
x,-y,-z
-x,1/2+y,-z
-x,-y,-z
x,1/2+y,-z
-x,y,z
x,1/2-y,z
1/2+x,1/2+y,1/2+z
1/2-x,-y,1/2+z
1/2+x,1/2-y,1/2-z
1/2-x,y,1/2-z
1/2-x,1/2-y,1/2-z
1/2+x,y,1/2-z
1/2-x,1/2+y,1/2+z
1/2+x,-y,1/2+z
loop_
_atom_site_type_symbol
_atom_site_label
_atom_site_fract_x
_atom_site_fract_y
_atom_site_fract_z
Si Si1 0.794913 0.998081 0.107590
Si Si2 0.950331 0.145143 0.722772
Si Si3 0.361422 0.550997 0.240890
Si Si4 0.548725 0.392215 0.988195
Si Si5 0.224197 0.350256 0.418256
Si Si6 0.868095 0.570750 0.581017
Si Si7 0.719945 0.853700 0.133096
O O1 0.836883 0.993116 0.174063
O O2 0.763992 0.915001 0.141189
O O3 0.762030 0.082712 0.114910
O O4 0.805473 0.000000 0.000000
O O5 0.951335 0.250000 0.739966
O O6 0.905120 0.107754 0.766407
O O7 0.946156 0.132022 0.615368
O O8 0.000000 0.108365 0.746976
O O9 0.381825 0.483178 0.168357
O O10 0.322912 0.604968 0.184353
O O11 0.500000 0.359174 0.017883
O O12 0.592750 0.367097 0.042936
O O13 0.547975 0.500000 0.000000
O O14 0.235825 0.250000 0.394569
O O15 0.175994 0.380052 0.386077
O O16 0.216039 0.355274 0.525378
O O17 0.857522 0.500000 0.500000
O O18 0.725405 0.750000 0.158859
#
# Coordination Sequence:
#
# PCOD9540818 Si02
#       7
#    16  16  16  16  16  16  16
#     4  10  22  38  50  71 105 137 178 224 268 313
#     4  10  20  32  49  79 113 139 167 212 268 326
#     4  12  20  31  53  73 102 138 177 213 261 307
#     4   9  16  28  46  70 106 144 173 199 246 313
#     4  10  19  34  52  70 102 141 175 217 266 311
#     4  11  17  29  47  74 101 134 179 217 249 304
#     4  10  19  31  52  79 104 132 167 212 268 323
#
# _framework density 8.2962959999999999
#
# number of rings (size 3 to 8) (size 9 to 14) (size 15 to 20)
#    0.000    1.714    5.714    1.286    0.000    3.429 
#    0.000    1.429    0.000    0.429    0.000    0.000 
#    0.000    1.714    0.000    0.286    0.000    0.000 
#
# Total GULP energy -311741.808862 kJ/mol
# GULP energy per Si atom -5566.818015 kJ/mol
# Density = 0.827741 g / cm^3
# Si number density = 8.296296 Si / 1000 Ang^3
#
#
#
# Elastic Constant Matrix: (Units=GPa)
#
#
# Indices 1 2 3 4 5 6 
#
# 1 120.7194 35.1518 37.2844 0.0000 0.0000 0.0000
# 2 35.1518 56.0288 20.4590 0.0000 0.0000 0.0000
# 3 37.2844 20.4590 42.3816 0.0000 0.0000 0.0000
# 4 0.0000 0.0000 0.0000 10.6093 0.0000 0.0000
# 5 0.0000 0.0000 0.0000 0.0000 19.9094 0.0000
# 6 0.0000 0.0000 0.0000 0.0000 0.0000 3.8160
#
#
#
# Elastic Compliance Matrix: (Units=1/GPa)
#
#
# Indices 1 2 3 4 5 6 
#
# 1 0.012263 -0.004558 -0.008588 0.000000 0.000000 0.000000
# 2 -0.004558 0.023361 -0.007268 0.000000 0.000000 0.000000
# 3 -0.008588 -0.007268 0.034659 0.000000 0.000000 0.000000
# 4 0.000000 0.000000 0.000000 0.094257 0.000000 0.000000
# 5 0.000000 0.000000 0.000000 0.000000 0.050228 0.000000
# 6 0.000000 0.000000 0.000000 0.000000 0.000000 0.262057
#
#
# Mechanical properties :
#
#
# Convention : Reuss Voigt Hill
#
# Bulk Modulus (GPa) = 33.94884 44.99113 39.46999
# Shear Modulus (GPa) = 9.47918 15.28256 12.38087
#
# Velocity S-wave (km/s) = 2.39276 3.03817 2.73457
# Velocity P-wave (km/s) = 5.30456 6.28342 5.81463
#
# Compressibility (1/GPa) = 0.02945608
#
# Stress axis : x y z
#
# Youngs Moduli (GPa) = 81.54383 42.80586 28.85271
#
# Poissons Ratio (x) = 0.19510 0.24779
# Poissons Ratio (y) = 0.37167 0.20969
# Poissons Ratio (z) = 0.70032 0.31110
#
# Static dielectric constant tensor:
#      x y z
#    x 1.619660 0.000000 0.000000 
#    y 0.000000 1.616540 0.000000 
#    z 0.000000 0.000000 1.557120 
# 
# From -- ./inp_files/37953.got.cif
#   From: 2010.05.17/outbox.ucp.g08.bks.cvg/sg74_19_cif.got.tgz:37953.got - 2010.06.11 16:37:44.
