data_PCOD9540110
_publ_section_title
;
Structure prediction by ZEFSAII (Michael W. Deem and Ramdas Pophale) SiO2 
 PCOD9540110
Probable space group: I M M A
;
_chemical_formula_sum "Si O2"
_cell_formula_units_Z 56
_cell_length_a 13.460097
_cell_length_b 9.573103
_cell_length_c 23.385629
_cell_angle_alpha 90.000000
_cell_angle_beta 90.000000
_cell_angle_gamma 90.000000
_cell_volume 3013.352769
_symmetry_space_group_name_H-M "I M M A"
_symmetry_group_IT_number 74
_symmetry_cell_setting 'orthorhombic'
loop_
_space_group_symop_operation_xyz
x,y,z
-x,1/2-y,z
x,-y,-z
-x,1/2+y,-z
-x,-y,-z
x,1/2+y,-z
-x,y,z
x,1/2-y,z
1/2+x,1/2+y,1/2+z
1/2-x,-y,1/2+z
1/2+x,1/2-y,1/2-z
1/2-x,y,1/2-z
1/2-x,1/2-y,1/2-z
1/2+x,y,1/2-z
1/2-x,1/2+y,1/2+z
1/2+x,-y,1/2+z
loop_
_atom_site_type_symbol
_atom_site_label
_atom_site_fract_x
_atom_site_fract_y
_atom_site_fract_z
Si Si1 0.198070 0.415986 0.631490
Si Si2 0.384201 0.092900 0.230212
Si Si3 0.112952 0.586599 0.867946
Si Si4 0.500000 0.583738 0.058477
O O1 0.211667 0.250000 0.633924
O O2 0.173611 0.479043 0.693953
O O3 0.297568 0.492011 0.609557
O O4 0.100387 0.447861 0.593840
O O5 0.500000 0.084541 0.214128
O O6 0.348556 0.250000 0.215467
O O7 0.381761 0.077425 0.298531
O O8 0.126619 0.750000 0.882623
O O9 0.000000 0.545854 0.884307
O O10 0.500000 0.750000 0.047797
O O11 0.500000 0.500000 0.000000
#
# Coordination Sequence:
#
# PCOD9540110 Si02
#       4
#    16  16  16   8
#     4  11  21  34  52  77 109 138 172 223 276 322
#     4   9  17  30  49  74 106 146 186 217 251 306
#     4   9  19  34  51  76 110 146 185 218 246 304
#     4  10  24  42  58  80 106 134 176 230 279 326
#
# _framework density 18.583950999999999
#
# number of rings (size 3 to 8) (size 9 to 14) (size 15 to 20)
#    0.000    2.286    1.429    3.429    0.000    7.429 
#    0.000    2.857    0.000    0.857    0.000    0.000 
#    0.000    0.000    0.000    0.000    0.000    0.000 
#
# Total GULP energy -156214.994274 kJ/mol
# GULP energy per Si atom -5579.106938 kJ/mol
# Density = 1.854165 g / cm^3
# Si number density = 18.583951 Si / 1000 Ang^3
#
#
#
# Elastic Constant Matrix: (Units=GPa)
#
#
# Indices 1 2 3 4 5 6 
#
# 1 190.3277 87.9829 23.7744 0.0000 0.0000 0.0000
# 2 87.9829 78.2522 25.5112 0.0000 0.0000 0.0000
# 3 23.7744 25.5112 27.2940 0.0000 0.0000 0.0000
# 4 0.0000 0.0000 0.0000 17.8500 0.0000 0.0000
# 5 0.0000 0.0000 0.0000 0.0000 8.1860 0.0000
# 6 0.0000 0.0000 0.0000 0.0000 0.0000 37.3765
#
#
#
# Elastic Compliance Matrix: (Units=1/GPa)
#
#
# Indices 1 2 3 4 5 6 
#
# 1 0.011095 -0.013410 0.002870 0.000000 0.000000 0.000000
# 2 -0.013410 0.034588 -0.020648 0.000000 0.000000 0.000000
# 3 0.002870 -0.020648 0.053438 0.000000 0.000000 0.000000
# 4 0.000000 0.000000 0.000000 0.056022 0.000000 0.000000
# 5 0.000000 0.000000 0.000000 0.000000 0.122160 0.000000
# 6 0.000000 0.000000 0.000000 0.000000 0.000000 0.026755
#
#
# Mechanical properties :
#
#
# Convention : Reuss Voigt Hill
#
# Bulk Modulus (GPa) = 27.21517 63.37900 45.29708
# Shear Modulus (GPa) = 13.20371 23.25620 18.22995
#
# Velocity S-wave (km/s) = 2.66839 3.54137 3.13541
# Velocity P-wave (km/s) = 4.91630 7.13442 6.12658
#
# Compressibility (1/GPa) = 0.03674422
#
# Stress axis : x y z
#
# Youngs Moduli (GPa) = 90.13412 28.91165 18.71341
#
# Poissons Ratio (x) = 0.38770 -0.05371
# Poissons Ratio (y) = 1.20868 0.38640
# Poissons Ratio (z) = -0.25868 0.59697
#
# Static dielectric constant tensor:
#      x y z
#    x 1.709020 0.000000 0.000000 
#    y 0.000000 1.621750 0.000000 
#    z 0.000000 0.000000 1.610800 
# 
# From -- ./inp_files/47834.got.cif
#   From: 2010.05.17/outbox.cif.g08.bks.cpg/sg74_24_cif.got.tgz:47834.got - 2010.06.03 17:57:02.
