data_PCOD9540813
_publ_section_title
;
Structure prediction by ZEFSAII (Michael W. Deem and Ramdas Pophale) SiO2 
 PCOD9540813
Probable space group: I M M A
;
_chemical_formula_sum "Si O2"
_cell_formula_units_Z 52
_cell_length_a 24.000000
_cell_length_b 9.000000
_cell_length_c 30.000000
_cell_angle_alpha 90.000000
_cell_angle_beta 90.000000
_cell_angle_gamma 90.000000
_cell_volume 6480.000000
_symmetry_space_group_name_H-M "I M M A"
_symmetry_group_IT_number 74
_symmetry_cell_setting 'orthorhombic'
loop_
_space_group_symop_operation_xyz
x,y,z
-x,1/2-y,z
x,-y,-z
-x,1/2+y,-z
-x,-y,-z
x,1/2+y,-z
-x,y,z
x,1/2-y,z
1/2+x,1/2+y,1/2+z
1/2-x,-y,1/2+z
1/2+x,1/2-y,1/2-z
1/2-x,y,1/2-z
1/2-x,1/2-y,1/2-z
1/2+x,y,1/2-z
1/2-x,1/2+y,1/2+z
1/2+x,-y,1/2+z
loop_
_atom_site_type_symbol
_atom_site_label
_atom_site_fract_x
_atom_site_fract_y
_atom_site_fract_z
Si Si1 0.890656 0.929083 0.605178
Si Si2 0.842376 0.429172 0.048399
Si Si3 0.434541 0.073257 0.807534
Si Si4 0.064071 0.931387 0.881912
Si Si5 0.283837 0.071159 0.048502
Si Si6 0.000000 0.928868 0.548488
Si Si7 0.432438 0.920198 0.716877
O O1 0.891010 0.750000 0.608866
O O2 0.833326 0.975094 0.581403
O O3 0.944252 0.972278 0.575275
O O4 0.899645 0.999051 0.653350
O O5 0.845262 0.250000 0.044884
O O6 0.890994 0.478748 0.081724
O O7 0.779200 0.466823 0.063489
O O8 0.850309 0.500000 0.000000
O O9 0.500000 0.029402 0.813227
O O10 0.431563 0.250000 0.810114
O O11 0.415912 0.017050 0.759044
O O12 0.063150 0.750000 0.881175
O O13 0.082630 0.977204 0.832219
O O14 0.000000 0.978960 0.890453
O O15 0.286696 0.250000 0.044140
O O16 0.292454 0.000000 0.000000
O O17 0.000000 0.750000 0.544578
O O18 0.000000 0.000000 0.500000
O O19 0.500000 0.916469 0.716188
O O20 0.413175 0.750000 0.722425
#
# Coordination Sequence:
#
# PCOD9540813 Si02
#       7
#    16  16  16  16  16   8  16
#     4  10  19  31  45  62  85 116 152 186 223 268
#     4   9  17  30  47  68  94 121 151 185 218 258
#     4  10  19  29  43  66  92 115 142 182 230 272
#     4   8  14  26  46  71  95 120 150 181 217 261
#     4   9  18  31  47  65  86 116 153 189 222 260
#     4  10  20  30  42  60  84 112 142 182 227 268
#     4   8  14  26  45  65  86 116 149 180 216 262
#
# _framework density 8.0246910000000007
#
# number of rings (size 3 to 8) (size 9 to 14) (size 15 to 20)
#    0.000    2.923    0.769    1.846    0.000    2.154 
#    0.000    0.769    0.000    1.846    0.000    6.462 
#    0.000    0.000    0.000    0.000    0.000    0.000 
#
# Total GULP energy -289621.698841 kJ/mol
# GULP energy per Si atom -5569.648055 kJ/mol
# Density = 0.800643 g / cm^3
# Si number density = 8.024691 Si / 1000 Ang^3
#
#
#
# Elastic Constant Matrix: (Units=GPa)
#
#
# Indices 1 2 3 4 5 6 
#
# 1 112.0591 25.6171 92.2216 0.0000 0.0000 0.0000
# 2 25.6171 6.5353 27.6851 0.0000 0.0000 0.0000
# 3 92.2216 27.6851 135.1724 0.0000 0.0000 0.0000
# 4 0.0000 0.0000 0.0000 22.3899 0.0000 0.0000
# 5 0.0000 0.0000 0.0000 0.0000 15.1466 0.0000
# 6 0.0000 0.0000 0.0000 0.0000 0.0000 9.1151
#
#
#
# Elastic Compliance Matrix: (Units=1/GPa)
#
#
# Indices 1 2 3 4 5 6 
#
# 1 -0.312100 2.427861 -0.284327 0.000000 0.000000 0.000000
# 2 2.427861-17.730539 1.975035 0.000000 0.000000 0.000000
# 3 -0.284327 1.975035 -0.203132 0.000000 0.000000 0.000000
# 4 0.000000 0.000000 0.000000 0.044663 0.000000 0.000000
# 5 0.000000 0.000000 0.000000 0.000000 0.066022 0.000000
# 6 0.000000 0.000000 0.000000 0.000000 0.000000 0.109708
#
#
# Mechanical properties :
#
#
# Convention : Reuss Voigt Hill
#
# Bulk Modulus (GPa) = -0.09991 60.53493 30.21751
# Shear Modulus (GPa) = -0.16893 16.54651 8.18879
#
# Velocity S-wave (km/s) = -0.32478 3.21436 2.26127
# Velocity P-wave (km/s) = 0.45059 7.18164 5.06818
#
# Compressibility (1/GPa) = -10.00863432
#
# Stress axis : x y z
#
# Youngs Moduli (GPa) = -3.20410 -0.05640 -4.92290
#
# Poissons Ratio (x) = 0.13693 -1.39971
# Poissons Ratio (y) = 7.77912 9.72290
# Poissons Ratio (z) = -0.91101 0.11139
#
# Static dielectric constant tensor:
#      x y z
#    x 1.538150 0.000000 0.000000 
#    y 0.000000 1.536140 0.000000 
#    z 0.000000 0.000000 1.530140 
# 
# From -- ./inp_files/70974.got.cif
#   From: 2010.05.17/outbox.ucp.g08.bks.cvg/sg74_36_cif.got.tgz:70974.got - 2010.06.11 16:37:44.
