data_PCOD9540596
_publ_section_title
;
Structure prediction by ZEFSAII (Michael W. Deem and Ramdas Pophale) SiO2 
 PCOD9540596
Probable space group: I M M A
;
_chemical_formula_sum "Si O2"
_cell_formula_units_Z 52
_cell_length_a 14.889697
_cell_length_b 13.634288
_cell_length_c 12.776419
_cell_angle_alpha 90.000000
_cell_angle_beta 90.000000
_cell_angle_gamma 90.000000
_cell_volume 2593.746151
_symmetry_space_group_name_H-M "I M M A"
_symmetry_group_IT_number 74
_symmetry_cell_setting 'orthorhombic'
loop_
_space_group_symop_operation_xyz
x,y,z
-x,1/2-y,z
x,-y,-z
-x,1/2+y,-z
-x,-y,-z
x,1/2+y,-z
-x,y,z
x,1/2-y,z
1/2+x,1/2+y,1/2+z
1/2-x,-y,1/2+z
1/2+x,1/2-y,1/2-z
1/2-x,y,1/2-z
1/2-x,1/2-y,1/2-z
1/2+x,y,1/2-z
1/2-x,1/2+y,1/2+z
1/2+x,-y,1/2+z
loop_
_atom_site_type_symbol
_atom_site_label
_atom_site_fract_x
_atom_site_fract_y
_atom_site_fract_z
Si Si1 0.000000 0.896952 0.556889
Si Si2 0.500000 0.750000 0.131833
Si Si3 0.359030 0.638082 0.758474
Si Si4 0.655273 0.250000 0.697376
Si Si5 0.394892 0.456732 0.605826
O O1 0.087470 0.876537 0.631146
O O2 0.000000 0.835288 0.451430
O O3 0.000000 0.000000 0.500000
O O4 0.582938 0.750000 0.210077
O O5 0.383958 0.750000 0.723166
O O6 0.250000 0.635365 0.750000
O O7 0.388468 0.544262 0.690057
O O8 0.750000 0.250000 0.750000
O O9 0.645458 0.148019 0.635587
O O10 0.353588 0.500000 0.500000
O O11 0.500000 0.436109 0.588439
#
# Coordination Sequence:
#
# PCOD9540596 Si02
#       5
#     8   4  16   8  16
#     4  12  24  44  72 101 142 194 232 289 358 431
#     4  12  24  44  68 100 140 180 240 276 360 432
#     4  11  24  44  70 106 143 179 236 296 352 425
#     4  12  26  48  71 104 147 184 237 304 356 424
#     4  11  24  43  72  99 136 186 229 288 358 427
#
# _framework density 20.048221999999999
#
# number of rings (size 3 to 8) (size 9 to 14) (size 15 to 20)
#    0.000    0.615    4.615    2.769    2.154    3.692 
#    0.000    0.000    0.000    0.000    0.000    0.000 
#    0.000    0.000    0.000    0.000    0.000    0.000 
#
# Total GULP energy -144894.372272 kJ/mol
# GULP energy per Si atom -5572.860472 kJ/mol
# Density = 2.000259 g / cm^3
# Si number density = 20.048222 Si / 1000 Ang^3
#
#
#
# Elastic Constant Matrix: (Units=GPa)
#
#
# Indices 1 2 3 4 5 6 
#
# 1 132.1445 37.6410 44.7237 0.0000 0.0000 0.0000
# 2 37.6410 240.3267 89.3885 0.0000 0.0000 0.0000
# 3 44.7237 89.3885 131.3595 0.0000 0.0000 0.0000
# 4 0.0000 0.0000 0.0000 50.2414 0.0000 0.0000
# 5 0.0000 0.0000 0.0000 0.0000 114.7612 0.0000
# 6 0.0000 0.0000 0.0000 0.0000 0.0000 31.0515
#
#
#
# Elastic Compliance Matrix: (Units=1/GPa)
#
#
# Indices 1 2 3 4 5 6 
#
# 1 0.008574 -0.000344 -0.002685 0.000000 0.000000 0.000000
# 2 -0.000344 0.005585 -0.003683 0.000000 0.000000 0.000000
# 3 -0.002685 -0.003683 0.011033 0.000000 0.000000 0.000000
# 4 0.000000 0.000000 0.000000 0.019904 0.000000 0.000000
# 5 0.000000 0.000000 0.000000 0.000000 0.008714 0.000000
# 6 0.000000 0.000000 0.000000 0.000000 0.000000 0.032205
#
#
# Mechanical properties :
#
#
# Convention : Reuss Voigt Hill
#
# Bulk Modulus (GPa) = 84.98051 94.14858 89.56454
# Shear Modulus (GPa) = 48.37365 61.34931 54.86148
#
# Velocity S-wave (km/s) = 4.91742 5.53781 5.23681
# Velocity P-wave (km/s) = 8.64416 9.37831 9.01871
#
# Compressibility (1/GPa) = 0.01176740
#
# Stress axis : x y z
#
# Youngs Moduli (GPa) = 116.62816 179.05478 90.63522
#
# Poissons Ratio (x) = 0.06164 0.24335
# Poissons Ratio (y) = 0.04015 0.33383
# Poissons Ratio (z) = 0.31315 0.65950
#
# Static dielectric constant tensor:
#      x y z
#    x 1.711330 0.000000 0.000000 
#    y 0.000000 1.856520 0.000000 
#    z 0.000000 0.000000 1.719500 
# 
# From -- ./inp_files/19607.got.cif
#   From: 2010.05.17/outbox.cif.g08.bks.cpg/sg74_10_cif.got.tgz:19607.got - 2010.06.03 17:57:02.
