data_PCOD9540256
_publ_section_title
;
Structure prediction by ZEFSAII (Michael W. Deem and Ramdas Pophale) SiO2 
 PCOD9540256
Probable space group: I M M A
;
_chemical_formula_sum "Si O2"
_cell_formula_units_Z 68
_cell_length_a 7.886534
_cell_length_b 24.623521
_cell_length_c 19.507133
_cell_angle_alpha 90.000000
_cell_angle_beta 90.000000
_cell_angle_gamma 90.000000
_cell_volume 3788.172781
_symmetry_space_group_name_H-M "I M M A"
_symmetry_group_IT_number 74
_symmetry_cell_setting 'orthorhombic'
loop_
_space_group_symop_operation_xyz
x,y,z
-x,1/2-y,z
x,-y,-z
-x,1/2+y,-z
-x,-y,-z
x,1/2+y,-z
-x,y,z
x,1/2-y,z
1/2+x,1/2+y,1/2+z
1/2-x,-y,1/2+z
1/2+x,1/2-y,1/2-z
1/2-x,y,1/2-z
1/2-x,1/2-y,1/2-z
1/2+x,y,1/2-z
1/2-x,1/2+y,1/2+z
1/2+x,-y,1/2+z
loop_
_atom_site_type_symbol
_atom_site_label
_atom_site_fract_x
_atom_site_fract_y
_atom_site_fract_z
Si Si1 0.301791 0.380720 0.671937
Si Si2 0.797974 0.493668 0.327389
Si Si3 0.300720 0.555682 0.534874
Si Si4 0.810944 0.665814 0.467056
Si Si5 0.500000 0.250000 0.511215
O O1 0.500000 0.369683 0.663369
O O2 0.250000 0.368367 0.750000
O O3 0.270651 0.445112 0.661268
O O4 0.204805 0.347473 0.614046
O O5 0.750000 0.478138 0.250000
O O6 0.723624 0.453899 0.384406
O O7 0.000000 0.495586 0.333772
O O8 0.236648 0.500000 0.500000
O O9 0.500000 0.560744 0.518156
O O10 0.209733 0.608321 0.505849
O O11 0.652112 0.703190 0.486711
O O12 0.000000 0.687136 0.481321
#
# Coordination Sequence:
#
# PCOD9540256 Si02
#       5
#    16  16  16  16   4
#     4  11  20  35  56  84 119 163 202 244 303 365
#     4  11  21  33  53  88 128 164 195 236 301 377
#     4  11  21  36  60  92 126 159 197 246 308 375
#     4  12  24  42  65  88 118 161 207 260 309 363
#     4  12  26  48  60  86 116 160 218 270 308 340
#
# _framework density 17.950607999999999
#
# number of rings (size 3 to 8) (size 9 to 14) (size 15 to 20)
#    0.000    0.706    4.706    6.706    0.000    0.941 
#    0.000    0.588    0.000    0.000    0.000    0.824 
#    0.000    0.000    0.000    0.000    0.000    0.000 
#
# Total GULP energy -189498.013951 kJ/mol
# GULP energy per Si atom -5573.470999 kJ/mol
# Density = 1.790975 g / cm^3
# Si number density = 17.950608 Si / 1000 Ang^3
#
#
#
# Elastic Constant Matrix: (Units=GPa)
#
#
# Indices 1 2 3 4 5 6 
#
# 1 149.2574 41.3080 5.7055 0.0000 0.0000 0.0000
# 2 41.3080 93.4022 26.6758 0.0000 0.0001 0.0000
# 3 5.7055 26.6758 51.4761 0.0000 0.0006 0.0000
# 4 0.0000 0.0000 0.0000 -7.7394 0.0002 0.0000
# 5 0.0000 0.0001 0.0006 0.0002 232.3929 -0.0004
# 6 0.0000 0.0000 0.0000 0.0000 -0.0004 5.4803
#
#
#
# Elastic Compliance Matrix: (Units=1/GPa)
#
#
# Indices 1 2 3 4 5 6 
#
# 1 0.007684 -0.003703 0.001067 0.000000 0.000000 0.000000
# 2 -0.003703 0.014351 -0.007026 0.000000 0.000000 0.000000
# 3 0.001067 -0.007026 0.022949 0.000000 0.000000 0.000000
# 4 0.000000 0.000000 0.000000 -0.129209 0.000000 0.000000
# 5 0.000000 0.000000 0.000000 0.000000 0.004303 0.000000
# 6 0.000000 0.000000 0.000000 0.000000 0.000000 0.182471
#
#
# Mechanical properties :
#
#
# Convention : Reuss Voigt Hill
#
# Bulk Modulus (GPa) = 38.97149 49.05718 44.01433
# Shear Modulus (GPa) = 38.33553 60.72318 49.52935
#
# Velocity S-wave (km/s) = 4.62628 5.82249 5.25851
# Velocity P-wave (km/s) = 7.09184 8.51998 7.83850
#
# Compressibility (1/GPa) = 0.02565979
#
# Stress axis : x y z
#
# Youngs Moduli (GPa) = 130.14232 69.68210 43.57409
#
# Poissons Ratio (x) = 0.25804 -0.04651
# Poissons Ratio (y) = 0.48193 0.30617
# Poissons Ratio (z) = -0.13891 0.48962
#
# Static dielectric constant tensor:
#      x y z
#    x 1.632800 0.000000 0.000000 
#    y 0.000000 1.592220 0.000000 
#    z 0.000000 0.000000 1.625790 
# 
# From -- ./inp_files/39220.got.cif
#   From: 2010.05.17/outbox.cif.g08.bks.cpg/sg74_20_cif.got.tgz:39220.got - 2010.06.03 17:57:02.
