data_PCOD9540289
_publ_section_title
;
Structure prediction by ZEFSAII (Michael W. Deem and Ramdas Pophale) SiO2 
 PCOD9540289
Probable space group: I M M A
;
_chemical_formula_sum "Si O2"
_cell_formula_units_Z 80
_cell_length_a 28.493088
_cell_length_b 8.930824
_cell_length_c 13.517203
_cell_angle_alpha 90.000000
_cell_angle_beta 90.000000
_cell_angle_gamma 90.000000
_cell_volume 3439.678773
_symmetry_space_group_name_H-M "I M M A"
_symmetry_group_IT_number 74
_symmetry_cell_setting 'orthorhombic'
loop_
_space_group_symop_operation_xyz
x,y,z
-x,1/2-y,z
x,-y,-z
-x,1/2+y,-z
-x,-y,-z
x,1/2+y,-z
-x,y,z
x,1/2-y,z
1/2+x,1/2+y,1/2+z
1/2-x,-y,1/2+z
1/2+x,1/2-y,1/2-z
1/2-x,y,1/2-z
1/2-x,1/2-y,1/2-z
1/2+x,y,1/2-z
1/2-x,1/2+y,1/2+z
1/2+x,-y,1/2+z
loop_
_atom_site_type_symbol
_atom_site_label
_atom_site_fract_x
_atom_site_fract_y
_atom_site_fract_z
Si Si1 0.070469 0.575249 0.399264
Si Si2 0.663277 0.084620 0.128417
Si Si3 0.551301 0.069193 0.313314
Si Si4 0.754900 0.082816 0.869871
Si Si5 0.651442 0.919463 0.634142
O O1 0.052401 0.500000 0.500000
O O2 0.060044 0.750000 0.397092
O O3 0.126355 0.542544 0.399910
O O4 0.053935 0.497704 0.297634
O O5 0.650003 0.250000 0.090970
O O6 0.659389 0.092870 0.247308
O O7 0.715648 0.037672 0.101674
O O8 0.500000 0.030365 0.355260
O O9 0.554526 0.250000 0.305094
O O10 0.597892 0.022532 0.373526
O O11 0.745441 0.250000 0.906956
O O12 0.750000 0.089613 0.750000
O O13 0.806890 0.028603 0.896702
O O14 0.655523 0.750000 0.593778
#
# Coordination Sequence:
#
# PCOD9540289 Si02
#       5
#    16  16  16  16  16
#     4  11  21  32  44  57  74  97 128 165 203 239
#     4   9  16  27  41  56  74  95 120 151 188 229
#     4   9  18  32  46  58  74  98 130 167 204 238
#     4   9  15  22  35  56  78  97 117 144 180 224
#     4   8  14  24  38  55  74  96 120 149 187 229
#
# _framework density 23.257985000000001
#
# number of rings (size 3 to 8) (size 9 to 14) (size 15 to 20)
#    0.000    2.800    0.000    4.200    0.000    8.000 
#    0.000    0.000    0.000    0.000    0.000    0.000 
#    0.000    0.000    0.000    0.000    0.000    1.000 
#
# Total GULP energy -223404.284075 kJ/mol
# GULP energy per Si atom -5585.107102 kJ/mol
# Density = 2.320505 g / cm^3
# Si number density = 23.257985 Si / 1000 Ang^3
#
#
#
# Elastic Constant Matrix: (Units=GPa)
#
#
# Indices 1 2 3 4 5 6 
#
# 1 185.0056 31.6576 -10.8915 0.0000 0.0000 0.0000
# 2 31.6576 74.5505 6.2130 0.0000 0.0000 0.0000
# 3 -10.8915 6.2130 62.9173 0.0000 0.0000 0.0000
# 4 0.0000 0.0000 0.0000 17.0933 0.0000 0.0000
# 5 0.0000 0.0000 0.0000 0.0000 -15.1808 0.0000
# 6 0.0000 0.0000 0.0000 0.0000 0.0000 11.9863
#
#
#
# Elastic Compliance Matrix: (Units=1/GPa)
#
#
# Indices 1 2 3 4 5 6 
#
# 1 0.005930 -0.002625 0.001286 0.000000 0.000000 0.000000
# 2 -0.002625 0.014687 -0.001905 0.000000 0.000000 0.000000
# 3 0.001286 -0.001905 0.016305 0.000000 0.000000 0.000000
# 4 0.000000 0.000000 0.000000 0.058503 0.000000 0.000000
# 5 0.000000 0.000000 0.000000 0.000000 -0.065873 0.000000
# 6 0.000000 0.000000 0.000000 0.000000 0.000000 0.083429
#
#
# Mechanical properties :
#
#
# Convention : Reuss Voigt Hill
#
# Bulk Modulus (GPa) = 32.85878 41.82573 37.34226
# Shear Modulus (GPa) = 38.57612 22.47937 30.52775
#
# Velocity S-wave (km/s) = 4.07703 3.11227 3.62687
# Velocity P-wave (km/s) = 6.02674 5.56214 5.79909
#
# Compressibility (1/GPa) = 0.03043326
#
# Stress axis : x y z
#
# Youngs Moduli (GPa) = 168.62864 68.08585 61.33254
#
# Poissons Ratio (x) = 0.17875 -0.07886
# Poissons Ratio (y) = 0.44272 0.11683
# Poissons Ratio (z) = -0.21683 0.12969
#
# Static dielectric constant tensor:
#      x y z
#    x 1.914980 0.000000 0.000000 
#    y 0.000000 1.808940 0.000000 
#    z 0.000000 0.000000 1.932250 
# 
# From -- ./inp_files/39969.got.cif
#   From: 2010.05.17/outbox.cif.g08.bks.cpg/sg74_20_cif.got.tgz:39969.got - 2010.06.03 17:57:02.
