data_PCOD9540424
_publ_section_title
;
Structure prediction by ZEFSAII (Michael W. Deem and Ramdas Pophale) SiO2 
 PCOD9540424
Probable space group: I M M A
;
_chemical_formula_sum "Si O2"
_cell_formula_units_Z 80
_cell_length_a 22.967702
_cell_length_b 16.239663
_cell_length_c 11.086265
_cell_angle_alpha 90.000000
_cell_angle_beta 90.000000
_cell_angle_gamma 90.000000
_cell_volume 4135.040931
_symmetry_space_group_name_H-M "I M M A"
_symmetry_group_IT_number 74
_symmetry_cell_setting 'orthorhombic'
loop_
_space_group_symop_operation_xyz
x,y,z
-x,1/2-y,z
x,-y,-z
-x,1/2+y,-z
-x,-y,-z
x,1/2+y,-z
-x,y,z
x,1/2-y,z
1/2+x,1/2+y,1/2+z
1/2-x,-y,1/2+z
1/2+x,1/2-y,1/2-z
1/2-x,y,1/2-z
1/2-x,1/2-y,1/2-z
1/2+x,y,1/2-z
1/2-x,1/2+y,1/2+z
1/2+x,-y,1/2+z
loop_
_atom_site_type_symbol
_atom_site_label
_atom_site_fract_x
_atom_site_fract_y
_atom_site_fract_z
Si Si1 0.434772 0.896155 0.859696
Si Si2 0.328647 0.346552 0.280788
Si Si3 0.239837 0.091898 0.448869
Si Si4 0.692218 0.344372 0.810969
Si Si5 0.067596 0.094880 0.638398
O O1 0.500000 0.869516 0.837212
O O2 0.394696 0.859495 0.756383
O O3 0.432062 0.995684 0.858271
O O4 0.422134 0.875097 0.000067
O O5 0.314199 0.250000 0.274589
O O6 0.304137 0.381082 0.406541
O O7 0.297469 0.396156 0.172122
O O8 0.210254 0.148751 0.549153
O O9 0.237662 0.000000 0.500000
O O10 0.689728 0.250000 0.770628
O O11 0.750000 0.384826 0.750000
O O12 0.626944 0.379071 0.792972
O O13 0.000000 0.119598 0.671415
#
# Coordination Sequence:
#
# PCOD9540424 Si02
#       5
#    16  16  16  16  16
#     4   9  18  33  56  84 112 146 186 238 294 348
#     4  11  22  37  59  86 118 149 187 246 299 347
#     4  11  23  36  56  80 113 152 191 232 291 349
#     4  11  23  36  54  83 118 151 190 238 288 346
#     4   9  18  34  55  81 116 151 191 236 287 350
#
# _framework density 19.346847
#
# number of rings (size 3 to 8) (size 9 to 14) (size 15 to 20)
#    0.000    1.800    2.000    4.800    5.600    0.800 
#    0.000    2.000    0.000    1.800    0.000    2.800 
#    0.000    0.000    0.000    0.000    0.000    0.000 
#
# Total GULP energy -222746.195012 kJ/mol
# GULP energy per Si atom -5568.654875 kJ/mol
# Density = 1.930281 g / cm^3
# Si number density = 19.346847 Si / 1000 Ang^3
#
#
#
# Elastic Constant Matrix: (Units=GPa)
#
#
# Indices 1 2 3 4 5 6 
#
# 1 155.9952 21.5764 24.2007 0.0000 0.0000 0.0000
# 2 21.5764 68.9771 8.5175 0.0000 0.0000 0.0000
# 3 24.2007 8.5175 24.7789 0.0000 0.0000 0.0000
# 4 0.0000 0.0000 0.0000 -8.4452 0.0000 0.0000
# 5 0.0000 0.0000 0.0000 0.0000 37.9492 0.0000
# 6 0.0000 0.0000 0.0000 0.0000 0.0000 77.8479
#
#
#
# Elastic Compliance Matrix: (Units=1/GPa)
#
#
# Indices 1 2 3 4 5 6 
#
# 1 0.007710 -0.001548 -0.006998 0.000000 0.000000 0.000000
# 2 -0.001548 0.015451 -0.003800 0.000000 0.000000 0.000000
# 3 -0.006998 -0.003800 0.048498 0.000000 0.000000 0.000000
# 4 0.000000 0.000000 0.000000 -0.118411 0.000000 0.000000
# 5 0.000000 0.000000 0.000000 0.000000 0.026351 0.000000
# 6 0.000000 0.000000 0.000000 0.000000 0.000000 0.012846
#
#
# Mechanical properties :
#
#
# Convention : Reuss Voigt Hill
#
# Bulk Modulus (GPa) = 21.29109 39.81561 30.55335
# Shear Modulus (GPa) = 152.47686 34.50082 93.48884
#
# Velocity S-wave (km/s) = 8.88726 4.22747 6.95898
# Velocity P-wave (km/s) = 10.78610 6.66733 8.96642
#
# Compressibility (1/GPa) = 0.04696800
#
# Stress axis : x y z
#
# Youngs Moduli (GPa) = 129.69805 64.72138 20.61942
#
# Poissons Ratio (x) = 0.10016 0.14430
# Poissons Ratio (y) = 0.20072 0.07834
# Poissons Ratio (z) = 0.90767 0.24591
#
# Static dielectric constant tensor:
#      x y z
#    x 1.796070 0.000000 0.000000 
#    y 0.000000 1.694920 0.000000 
#    z 0.000000 0.000000 1.818760 
# 
# From -- ./inp_files/24888.got.cif
#   From: 2010.05.17/outbox.cif.g08.bks.cpg/sg74_13_cif.got.tgz:24888.got - 2010.06.03 17:57:02.
