data_PCOD9540793
_publ_section_title
;
Structure prediction by ZEFSAII (Michael W. Deem and Ramdas Pophale) SiO2 
 PCOD9540793
Probable space group: I M M A
;
_chemical_formula_sum "Si O2"
_cell_formula_units_Z 36
_cell_length_a 9.000000
_cell_length_b 30.000000
_cell_length_c 15.000000
_cell_angle_alpha 90.000000
_cell_angle_beta 90.000000
_cell_angle_gamma 90.000000
_cell_volume 4050.000000
_symmetry_space_group_name_H-M "I M M A"
_symmetry_group_IT_number 74
_symmetry_cell_setting 'orthorhombic'
loop_
_space_group_symop_operation_xyz
x,y,z
-x,1/2-y,z
x,-y,-z
-x,1/2+y,-z
-x,-y,-z
x,1/2+y,-z
-x,y,z
x,1/2-y,z
1/2+x,1/2+y,1/2+z
1/2-x,-y,1/2+z
1/2+x,1/2-y,1/2-z
1/2-x,y,1/2-z
1/2-x,1/2-y,1/2-z
1/2+x,y,1/2-z
1/2-x,1/2+y,1/2+z
1/2+x,-y,1/2+z
loop_
_atom_site_type_symbol
_atom_site_label
_atom_site_fract_x
_atom_site_fract_y
_atom_site_fract_z
Si Si1 0.323878 0.250000 0.150947
Si Si2 0.329999 0.335347 0.343089
Si Si3 0.320455 0.482704 0.340317
Si Si4 0.176677 0.919201 0.338545
Si Si5 0.669847 0.086999 0.486267
O O1 0.500000 0.250000 0.153867
O O2 0.250000 0.250000 0.250000
O O3 0.258684 0.295032 0.111325
O O4 0.500000 0.321828 0.323724
O O5 0.250000 0.346428 0.250000
O O6 0.332597 0.376106 0.409766
O O7 0.500000 0.483989 0.332104
O O8 0.250000 0.462003 0.250000
O O9 0.249556 0.531539 0.345216
O O10 0.283133 0.456580 0.430705
O O11 0.250000 0.898386 0.250000
O O12 0.226826 0.898887 0.432357
O O13 0.000000 0.921737 0.329116
O O14 0.500000 0.080151 0.519200
#
# Coordination Sequence:
#
# PCOD9540793 Si02
#       5
#     8  16  16  16  16
#     4  10  18  30  48  70  99 132 163 192 228 280
#     4  10  19  32  50  73 102 132 161 194 234 282
#     4  10  19  32  49  69  97 129 161 199 241 286
#     4  11  22  35  51  68  91 125 165 206 245 287
#     4  10  21  34  49  71  98 127 160 201 244 284
#
# _framework density 8.8888890000000007
#
# number of rings (size 3 to 8) (size 9 to 14) (size 15 to 20)
#    0.000    1.778    0.000    8.333    0.000    6.222 
#    0.000    0.000    0.000    0.000    0.000    0.778 
#    0.000    0.000    0.000    0.000    0.000    0.000 
#
# Total GULP energy -200736.371344 kJ/mol
# GULP energy per Si atom -5576.010315 kJ/mol
# Density = 0.886866 g / cm^3
# Si number density = 8.888889 Si / 1000 Ang^3
#
#
#
# Elastic Constant Matrix: (Units=GPa)
#
#
# Indices 1 2 3 4 5 6 
#
# 1 129.6809 11.1337 49.8078 0.0000 0.0000 0.0000
# 2 11.1337 37.5890 9.5040 0.0000 0.0000 0.0000
# 3 49.8078 9.5040 96.5384 0.0000 0.0000 0.0002
# 4 0.0000 0.0000 0.0000 6.4040 0.0000 0.0001
# 5 0.0000 0.0000 0.0000 0.0000 32.1089 0.0000
# 6 0.0000 0.0000 0.0002 0.0001 0.0000 15.4185
#
#
#
# Elastic Compliance Matrix: (Units=1/GPa)
#
#
# Indices 1 2 3 4 5 6 
#
# 1 0.009716 -0.001651 -0.004850 0.000000 0.000000 0.000000
# 2 -0.001651 0.027563 -0.001861 0.000000 0.000000 0.000000
# 3 -0.004850 -0.001861 0.013044 0.000000 0.000000 0.000000
# 4 0.000000 0.000000 0.000000 0.156152 0.000000 -0.000001
# 5 0.000000 0.000000 0.000000 0.000000 0.031144 0.000000
# 6 0.000000 0.000000 0.000000 -0.000001 0.000000 0.064857
#
#
# Mechanical properties :
#
#
# Convention : Reuss Voigt Hill
#
# Bulk Modulus (GPa) = 29.76449 44.96661 37.36555
# Shear Modulus (GPa) = 15.13307 23.67713 19.40510
#
# Velocity S-wave (km/s) = 2.92076 3.65340 3.30743
# Velocity P-wave (km/s) = 5.30597 6.56849 5.97069
#
# Compressibility (1/GPa) = 0.03359708
#
# Stress axis : x y z
#
# Youngs Moduli (GPa) = 102.92411 36.28008 76.66220
#
# Poissons Ratio (x) = 0.05992 0.37183
# Poissons Ratio (y) = 0.16998 0.14271
# Poissons Ratio (z) = 0.49920 0.06754
#
# Static dielectric constant tensor:
#      x y z
#    x 1.605790 0.000000 0.000000 
#    y 0.000000 1.683480 0.000000 
#    z 0.000000 0.000000 1.668800 
# 
# From -- ./inp_files/29432.got.cif
#   From: 2010.05.17/outbox.ucp.g08.bks.cvg/sg74_15_cif.got.tgz:29432.got - 2010.06.11 16:37:44.
