data_PCOD9540819
_publ_section_title
;
Structure prediction by ZEFSAII (Michael W. Deem and Ramdas Pophale) SiO2 
 PCOD9540819
Probable space group: I M M A
;
_chemical_formula_sum "Si O2"
_cell_formula_units_Z 44
_cell_length_a 9.000000
_cell_length_b 18.000000
_cell_length_c 30.000000
_cell_angle_alpha 90.000000
_cell_angle_beta 90.000000
_cell_angle_gamma 90.000000
_cell_volume 4860.000000
_symmetry_space_group_name_H-M "I M M A"
_symmetry_group_IT_number 74
_symmetry_cell_setting 'orthorhombic'
loop_
_space_group_symop_operation_xyz
x,y,z
-x,1/2-y,z
x,-y,-z
-x,1/2+y,-z
-x,-y,-z
x,1/2+y,-z
-x,y,z
x,1/2-y,z
1/2+x,1/2+y,1/2+z
1/2-x,-y,1/2+z
1/2+x,1/2-y,1/2-z
1/2-x,y,1/2-z
1/2-x,1/2-y,1/2-z
1/2+x,y,1/2-z
1/2-x,1/2+y,1/2+z
1/2+x,-y,1/2+z
loop_
_atom_site_type_symbol
_atom_site_label
_atom_site_fract_x
_atom_site_fract_y
_atom_site_fract_z
Si Si1 0.179402 0.043517 0.700424
Si Si2 0.678597 0.105163 0.143453
Si Si3 0.822096 0.161225 0.866075
Si Si4 0.821466 0.750000 0.701387
Si Si5 0.671751 0.159790 0.960065
Si Si6 0.177934 0.338673 0.053814
O O1 0.250000 0.039099 0.750000
O O2 0.245175 0.112926 0.672571
O O3 0.000000 0.049159 0.704055
O O4 0.214139 0.969549 0.671089
O O5 0.500000 0.106841 0.136654
O O6 0.720263 0.176466 0.173665
O O7 0.756693 0.116131 0.095673
O O8 0.793945 0.250000 0.860400
O O9 0.756201 0.138283 0.914537
O O10 0.000000 0.150257 0.865582
O O11 0.750000 0.750000 0.750000
O O12 0.000000 0.750000 0.706050
O O13 0.500000 0.135008 0.958933
O O14 0.672304 0.250000 0.960268
O O15 0.750811 0.137850 0.006379
O O16 0.212005 0.250000 0.060282
O O17 0.000000 0.346029 0.051775
#
# Coordination Sequence:
#
# PCOD9540819 Si02
#       6
#    16  16  16   8  16  16
#     4  11  24  41  61  85 114 150 190 236 292 345
#     4  10  21  37  56  80 113 153 194 237 285 337
#     4  10  21  39  63  89 116 147 186 233 285 345
#     4  10  20  34  54  78 108 146 192 240 283 330
#     4   9  17  31  55  85 117 152 187 229 282 339
#     4  10  19  31  52  84 118 154 195 237 280 331
#
# _framework density 9.0534979999999994
#
# number of rings (size 3 to 8) (size 9 to 14) (size 15 to 20)
#    0.000    2.000    0.909    2.727    0.000    6.545 
#    0.000    0.909    0.000    5.455    0.000    0.000 
#    0.000    0.000    0.000    0.000    0.000    0.000 
#
# Total GULP energy -245719.670299 kJ/mol
# GULP energy per Si atom -5584.537961 kJ/mol
# Density = 0.903289 g / cm^3
# Si number density = 9.053498 Si / 1000 Ang^3
#
#
#
# Elastic Constant Matrix: (Units=GPa)
#
#
# Indices 1 2 3 4 5 6 
#
# 1 101.6568 52.0992 83.1804 0.0000 0.0000 0.0000
# 2 52.0992 83.7729 70.3539 0.0000 0.0000 0.0000
# 3 83.1804 70.3539 190.1586 0.0000 0.0000 0.0000
# 4 0.0000 0.0000 0.0000 32.7961 0.0000 0.0000
# 5 0.0000 0.0000 0.0000 0.0000 46.5062 0.0000
# 6 0.0000 0.0000 0.0000 0.0000 0.0000 21.6819
#
#
#
# Elastic Compliance Matrix: (Units=1/GPa)
#
#
# Indices 1 2 3 4 5 6 
#
# 1 0.017423 -0.006434 -0.005241 0.000000 0.000000 0.000000
# 2 -0.006434 0.019694 -0.004472 0.000000 0.000000 0.000000
# 3 -0.005241 -0.004472 0.009206 0.000000 0.000000 0.000000
# 4 0.000000 0.000000 0.000000 0.030491 0.000000 0.000000
# 5 0.000000 0.000000 0.000000 0.000000 0.021503 0.000000
# 6 0.000000 0.000000 0.000000 0.000000 0.000000 0.046121
#
#
# Mechanical properties :
#
#
# Convention : Reuss Voigt Hill
#
# Bulk Modulus (GPa) = 71.28061 87.42838 79.35449
# Shear Modulus (GPa) = 27.56229 31.52716 29.54472
#
# Velocity S-wave (km/s) = 3.90576 4.17725 4.04378
# Velocity P-wave (km/s) = 7.73251 8.46493 8.10699
#
# Compressibility (1/GPa) = 0.01402906
#
# Stress axis : x y z
#
# Youngs Moduli (GPa) = 57.39646 50.77692 108.62899
#
# Poissons Ratio (x) = 0.32670 0.56929
# Poissons Ratio (y) = 0.36930 0.48577
# Poissons Ratio (z) = 0.30080 0.22707
#
# Static dielectric constant tensor:
#      x y z
#    x 1.610450 0.000000 0.000000 
#    y 0.000000 1.623290 0.000000 
#    z 0.000000 0.000000 1.591670 
# 
# From -- ./inp_files/70230.got.cif
#   From: 2010.05.17/outbox.ucp.g08.bks.cvg/sg74_36_cif.got.tgz:70230.got - 2010.06.11 16:37:44.
