data_PCOD9540946
_publ_section_title
;
Structure prediction by ZEFSAII (Michael W. Deem and Ramdas Pophale) SiO2 
 PCOD9540946
Probable space group: I M M A
;
_chemical_formula_sum "Si O2"
_cell_formula_units_Z 56
_cell_length_a 15.000000
_cell_length_b 30.000000
_cell_length_c 12.000000
_cell_angle_alpha 90.000000
_cell_angle_beta 90.000000
_cell_angle_gamma 90.000000
_cell_volume 5400.000000
_symmetry_space_group_name_H-M "I M M A"
_symmetry_group_IT_number 74
_symmetry_cell_setting 'orthorhombic'
loop_
_space_group_symop_operation_xyz
x,y,z
-x,1/2-y,z
x,-y,-z
-x,1/2+y,-z
-x,-y,-z
x,1/2+y,-z
-x,y,z
x,1/2-y,z
1/2+x,1/2+y,1/2+z
1/2-x,-y,1/2+z
1/2+x,1/2-y,1/2-z
1/2-x,y,1/2-z
1/2-x,1/2-y,1/2-z
1/2+x,y,1/2-z
1/2-x,1/2+y,1/2+z
1/2+x,-y,1/2+z
loop_
_atom_site_type_symbol
_atom_site_label
_atom_site_fract_x
_atom_site_fract_y
_atom_site_fract_z
Si Si1 0.105980 0.201695 0.741528
Si Si2 0.333927 0.931074 0.999357
Si Si3 0.104591 0.702098 0.991402
Si Si4 0.897210 0.895475 0.271423
Si Si5 0.209736 0.369904 0.141616
Si Si6 0.604918 0.451910 0.240986
Si Si7 0.659491 0.528199 0.397324
O O1 0.143181 0.250000 0.702683
O O2 0.112690 0.200555 0.875355
O O3 0.145010 0.153632 0.708379
O O4 0.000000 0.202605 0.712074
O O5 0.286001 0.889157 0.939029
O O6 0.383091 0.952123 0.892686
O O7 0.389498 0.919620 0.109196
O O8 0.252779 0.959437 0.048063
O O9 0.141377 0.750000 0.953866
O O10 0.000000 0.700944 0.966517
O O11 0.149685 0.661436 0.931515
O O12 0.866242 0.925339 0.165935
O O13 0.000000 0.887464 0.245534
O O14 0.250000 0.345954 0.250000
O O15 0.153278 0.410388 0.197678
O O16 0.500000 0.452223 0.266229
O O17 0.652208 0.494154 0.295764
O O18 0.612203 0.500000 0.500000
#
# Coordination Sequence:
#
# PCOD9540946 Si02
#       7
#    16  16  16  16  16  16  16
#     4   8  16  33  58  89 121 152 191 246 310 362
#     4  11  25  42  63  86 123 165 201 247 314 374
#     4   9  17  32  56  85 117 155 201 256 313 368
#     4  11  24  40  64  93 124 163 212 260 302 370
#     4  10  21  37  58  85 116 158 202 253 311 369
#     4  11  25  43  64  89 118 160 211 258 300 363
#     4  12  26  41  61  88 123 163 205 249 315 367
#
# _framework density 10.370369999999999
#
# number of rings (size 3 to 8) (size 9 to 14) (size 15 to 20)
#    0.000    1.714    1.429    3.429    4.000    1.429 
#    0.000    2.143    0.000    4.286    0.000    8.000 
#    0.000    0.000    0.000    0.000    0.000    0.000 
#
# Total GULP energy -312038.010309 kJ/mol
# GULP energy per Si atom -5572.107327 kJ/mol
# Density = 1.034677 g / cm^3
# Si number density = 10.370370 Si / 1000 Ang^3
#
#
#
# Elastic Constant Matrix: (Units=GPa)
#
#
# Indices 1 2 3 4 5 6 
#
# 1 18.4196 -19.1960 6.2682 -0.0001 0.0000 0.0000
# 2 -19.1960 77.1223 35.2775 -0.0001 0.0001 0.0000
# 3 6.2682 35.2775 66.7072 -0.0005 0.0003 0.0000
# 4 -0.0001 -0.0001 -0.0005 18.6805 0.0000 0.0000
# 5 0.0000 0.0001 0.0003 0.0000 21.6562 0.0000
# 6 0.0000 0.0000 0.0000 0.0000 0.0000 16.6025
#
#
#
# Elastic Compliance Matrix: (Units=1/GPa)
#
#
# Indices 1 2 3 4 5 6 
#
# 1 0.109130 0.042018 -0.032475 0.000000 0.000000 0.000000
# 2 0.042018 0.033282 -0.021549 0.000000 0.000000 0.000000
# 3 -0.032475 -0.021549 0.029438 0.000001 0.000000 0.000000
# 4 0.000000 0.000000 0.000001 0.053532 0.000000 0.000000
# 5 0.000000 0.000000 0.000000 0.000000 0.046176 0.000000
# 6 0.000000 0.000000 0.000000 0.000000 0.000000 0.060232
#
#
# Mechanical properties :
#
#
# Convention : Reuss Voigt Hill
#
# Bulk Modulus (GPa) = 6.76419 22.99426 14.87923
# Shear Modulus (GPa) = 12.34320 20.71450 16.52885
#
# Velocity S-wave (km/s) = 2.44215 3.16371 2.82605
# Velocity P-wave (km/s) = 3.34971 4.94530 4.22353
#
# Compressibility (1/GPa) = 0.14783744
#
# Stress axis : x y z
#
# Youngs Moduli (GPa) = 9.16338 30.04654 33.96931
#
# Poissons Ratio (x) = -1.26249 1.10316
# Poissons Ratio (y) = -0.38502 0.73200
# Poissons Ratio (z) = 0.29758 0.64747
#
# Static dielectric constant tensor:
#      x y z
#    x 1.786770 0.000000 0.000000 
#    y 0.000000 1.832040 0.000000 
#    z 0.000000 0.000000 1.706080 
# 
# From -- ./inp_files/21166.got.cif
#   From: 2010.05.17/outbox.ucp.g08.bks.cvg/sg74_11_cif.got.tgz:21166.got - 2010.06.11 16:37:44.
