data_PCOD9540615
_publ_section_title
;
Structure prediction by ZEFSAII (Michael W. Deem and Ramdas Pophale) SiO2 
 PCOD9540615
Probable space group: I M M A
;
_chemical_formula_sum "Si O2"
_cell_formula_units_Z 68
_cell_length_a 23.815598
_cell_length_b 14.903689
_cell_length_c 7.549766
_cell_angle_alpha 90.000000
_cell_angle_beta 90.000000
_cell_angle_gamma 90.000000
_cell_volume 2679.715952
_symmetry_space_group_name_H-M "I M M A"
_symmetry_group_IT_number 74
_symmetry_cell_setting 'orthorhombic'
loop_
_space_group_symop_operation_xyz
x,y,z
-x,1/2-y,z
x,-y,-z
-x,1/2+y,-z
-x,-y,-z
x,1/2+y,-z
-x,y,z
x,1/2-y,z
1/2+x,1/2+y,1/2+z
1/2-x,-y,1/2+z
1/2+x,1/2-y,1/2-z
1/2-x,y,1/2-z
1/2-x,1/2-y,1/2-z
1/2+x,y,1/2-z
1/2-x,1/2+y,1/2+z
1/2+x,-y,1/2+z
loop_
_atom_site_type_symbol
_atom_site_label
_atom_site_fract_x
_atom_site_fract_y
_atom_site_fract_z
Si Si1 0.558567 0.106168 0.470839
Si Si2 0.817155 0.644541 0.094592
Si Si3 0.297954 0.141516 0.001041
Si Si4 0.500000 0.250000 0.915306
Si Si5 0.420697 0.599710 0.933303
O O1 0.500000 0.145185 0.548255
O O2 0.618785 0.134333 0.541031
O O3 0.557627 0.122724 0.261865
O O4 0.557120 0.000000 0.500000
O O5 0.806054 0.750000 0.102296
O O6 0.766499 0.610911 0.967696
O O7 0.808875 0.614311 0.295886
O O8 0.301506 0.250000 0.024516
O O9 0.353309 0.104618 0.092114
O O10 0.449977 0.328689 0.937576
O O11 0.434335 0.500000 0.000000
#
# Coordination Sequence:
#
# PCOD9540615 Si02
#       5
#    16  16  16   4  16
#     4  11  25  42  61  91 135 173 222 271 333 396
#     4   9  20  39  66  94 133 173 219 275 333 389
#     4   9  19  41  66  98 131 171 222 276 328 393
#     4  12  26  44  66 100 142 166 226 272 326 400
#     4  12  25  44  70  99 134 178 221 276 329 390
#
# _framework density 25.375824000000001
#
# number of rings (size 3 to 8) (size 9 to 14) (size 15 to 20)
#    0.000    1.647    2.353    3.176    1.647    2.353 
#    2.118    2.353    0.000    1.412    0.000    0.000 
#    0.000    0.000    0.000    0.000    0.000    0.000 
#
# Total GULP energy -189481.503882 kJ/mol
# GULP energy per Si atom -5572.985408 kJ/mol
# Density = 2.531807 g / cm^3
# Si number density = 25.375824 Si / 1000 Ang^3
#
#
#
# Elastic Constant Matrix: (Units=GPa)
#
#
# Indices 1 2 3 4 5 6 
#
# 1 254.2162 9.9402 32.5180 0.0000 0.0000 0.0000
# 2 9.9402 105.9630 -23.2185 0.0000 0.0000 0.0000
# 3 32.5180 -23.2185 37.2053 0.0000 0.0000 0.0000
# 4 0.0000 0.0000 0.0000 0.1921 0.0000 0.0000
# 5 0.0000 0.0000 0.0000 0.0000 41.1116 0.0000
# 6 0.0000 0.0000 0.0000 0.0000 0.0000 50.0722
#
#
#
# Elastic Compliance Matrix: (Units=1/GPa)
#
#
# Indices 1 2 3 4 5 6 
#
# 1 0.004634 -0.001532 -0.005006 0.000000 0.000000 0.000000
# 2 -0.001532 0.011438 0.008477 0.000000 0.000000 0.000000
# 3 -0.005006 0.008477 0.036543 0.000000 0.000000 0.000000
# 4 0.000000 0.000000 0.000000 5.205331 0.000000 0.000000
# 5 0.000000 0.000000 0.000000 0.000000 0.024324 0.000000
# 6 0.000000 0.000000 0.000000 0.000000 0.000000 0.019971
#
#
# Mechanical properties :
#
#
# Convention : Reuss Voigt Hill
#
# Bulk Modulus (GPa) = 17.70087 48.42932 33.06510
# Shear Modulus (GPa) = 0.94035 43.48485 22.21260
#
# Velocity S-wave (km/s) = 0.60940 4.14410 2.96183
# Velocity P-wave (km/s) = 2.73602 6.48262 4.97544
#
# Compressibility (1/GPa) = 0.05649440
#
# Stress axis : x y z
#
# Youngs Moduli (GPa) = 215.80238 87.42494 27.36487
#
# Poissons Ratio (x) = 0.13390 0.13698
# Poissons Ratio (y) = 0.33052 -0.23197
# Poissons Ratio (z) = 1.08028 -0.74109
#
# Static dielectric constant tensor:
#      x y z
#    x 2.096290 0.000000 0.000000 
#    y 0.000000 1.982880 0.000000 
#    z 0.000000 0.000000 2.000340 
# 
# From -- ./inp_files/11945.got.cif
#   From: 2010.05.17/outbox.cif.g08.bks.cpg/sg74_6_cif.got.tgz:11945.got - 2010.06.03 17:57:02.
