data_PCOD9540765
_publ_section_title
;
Structure prediction by ZEFSAII (Michael W. Deem and Ramdas Pophale) SiO2 
 PCOD9540765
Probable space group: I M M A
;
_chemical_formula_sum "Si O2"
_cell_formula_units_Z 96
_cell_length_a 30.977084
_cell_length_b 7.966783
_cell_length_c 34.537300
_cell_angle_alpha 90.000000
_cell_angle_beta 90.000000
_cell_angle_gamma 90.000000
_cell_volume 8523.381045
_symmetry_space_group_name_H-M "I M M A"
_symmetry_group_IT_number 74
_symmetry_cell_setting 'orthorhombic'
loop_
_space_group_symop_operation_xyz
x,y,z
-x,1/2-y,z
x,-y,-z
-x,1/2+y,-z
-x,-y,-z
x,1/2+y,-z
-x,y,z
x,1/2-y,z
1/2+x,1/2+y,1/2+z
1/2-x,-y,1/2+z
1/2+x,1/2-y,1/2-z
1/2-x,y,1/2-z
1/2-x,1/2-y,1/2-z
1/2+x,y,1/2-z
1/2-x,1/2+y,1/2+z
1/2+x,-y,1/2+z
loop_
_atom_site_type_symbol
_atom_site_label
_atom_site_fract_x
_atom_site_fract_y
_atom_site_fract_z
Si Si1 0.869345 0.563108 0.741166
Si Si2 0.684253 0.063031 0.160200
Si Si3 0.234122 0.750000 0.313446
Si Si4 0.180283 0.750000 0.232169
Si Si5 0.049442 0.047797 0.543203
Si Si6 0.399073 0.546464 0.118078
Si Si7 0.450423 0.953195 0.195732
O O1 0.865355 0.750000 0.757650
O O2 0.842152 0.559560 0.700894
O O3 0.849309 0.415487 0.766810
O O4 0.918129 0.525501 0.727813
O O5 0.702250 0.250000 0.155417
O O6 0.718978 0.915520 0.163738
O O7 0.647843 0.025128 0.128185
O O8 0.206961 0.750000 0.272936
O O9 0.283875 0.750000 0.301137
O O10 0.048179 0.250000 0.545575
O O11 0.080210 0.989352 0.577767
O O12 0.000000 0.986538 0.548426
O O13 0.063512 0.000000 0.500000
O O14 0.395736 0.750000 0.118106
O O15 0.430953 0.501066 0.153638
O O16 0.500000 0.005950 0.199390
O O17 0.448595 0.750000 0.198167
#
# Coordination Sequence:
#
# PCOD9540765 Si02
#       7
#    16  16   8   8  16  16  16
#     4   9  16  25  35  48  66  84 104 128 153 186
#     4   9  16  25  37  52  66  80 100 126 155 188
#     4   9  16  26  38  50  66  82 100 126 150 186
#     4   9  16  26  37  48  64  86 103 120 154 187
#     4   9  17  27  37  49  65  85 108 133 161 196
#     4   9  15  25  38  49  64  84 105 131 165 200
#     4   9  15  23  36  50  63  82 108 136 164 194
#
# _framework density 11.263135999999999
#
# number of rings (size 3 to 8) (size 9 to 14) (size 15 to 20)
#    0.000    3.000    1.667    0.500    0.000    3.667 
#    0.000    3.333    0.000    3.000    0.000    0.000 
#    0.000    0.000    0.000    0.000    0.000    0.000 
#
# Total GULP energy -267250.959311 kJ/mol
# GULP energy per Si atom -5567.728319 kJ/mol
# Density = 1.123750 g / cm^3
# Si number density = 11.263136 Si / 1000 Ang^3
#
#
#
# Elastic Constant Matrix: (Units=GPa)
#
#
# Indices 1 2 3 4 5 6 
#
# 1 64.4809 41.9112 36.8835 0.0000 0.0000 0.0000
# 2 41.9112 70.1244 27.1537 0.0000 0.0000 0.0000
# 3 36.8835 27.1537 33.7270 0.0000 0.0000 0.0000
# 4 0.0000 0.0000 0.0000 7.8780 0.0000 0.0000
# 5 0.0000 0.0000 0.0000 0.0000 17.9808 0.0000
# 6 0.0000 0.0000 0.0000 0.0000 0.0000 4.2851
#
#
#
# Elastic Compliance Matrix: (Units=1/GPa)
#
#
# Indices 1 2 3 4 5 6 
#
# 1 0.047498 -0.012023 -0.042264 0.000000 0.000000 0.000000
# 2 -0.012023 0.023763 -0.005984 0.000000 0.000000 0.000000
# 3 -0.042264 -0.005984 0.080687 0.000000 0.000000 0.000000
# 4 0.000000 0.000000 0.000000 0.126936 0.000000 0.000000
# 5 0.000000 0.000000 0.000000 0.000000 0.055615 0.000000
# 6 0.000000 0.000000 0.000000 0.000000 0.000000 0.233367
#
#
# Mechanical properties :
#
#
# Convention : Reuss Voigt Hill
#
# Bulk Modulus (GPa) = 31.83991 42.24768 37.04380
# Shear Modulus (GPa) = 7.15432 10.18768 8.67100
#
# Velocity S-wave (km/s) = 2.52305 3.01078 2.77764
# Velocity P-wave (km/s) = 6.06780 7.04823 6.57631
#
# Compressibility (1/GPa) = 0.03140713
#
# Stress axis : x y z
#
# Youngs Moduli (GPa) = 21.05334 42.08212 12.39352
#
# Poissons Ratio (x) = 0.50594 0.52380
# Poissons Ratio (y) = 0.25312 0.07416
# Poissons Ratio (z) = 0.88980 0.25181
#
# Static dielectric constant tensor:
#      x y z
#    x 1.352040 0.000000 0.000000 
#    y 0.000000 1.403950 0.000000 
#    z 0.000000 0.000000 1.332630 
# 
# From -- ./inp_files/74013.got.cif
#   From: 2010.05.17/outbox.cif.g08.bks.cpg/sg74_38_cif.got.tgz:74013.got - 2010.06.03 17:57:02.
