data_PCOD9540571
_publ_section_title
;
Structure prediction by ZEFSAII (Michael W. Deem and Ramdas Pophale) SiO2 
 PCOD9540571
Probable space group: I M M A
;
_chemical_formula_sum "Si O2"
_cell_formula_units_Z 68
_cell_length_a 15.542470
_cell_length_b 9.404109
_cell_length_c 23.074949
_cell_angle_alpha 90.000000
_cell_angle_beta 90.000000
_cell_angle_gamma 90.000000
_cell_volume 3372.705663
_symmetry_space_group_name_H-M "I M M A"
_symmetry_group_IT_number 74
_symmetry_cell_setting 'orthorhombic'
loop_
_space_group_symop_operation_xyz
x,y,z
-x,1/2-y,z
x,-y,-z
-x,1/2+y,-z
-x,-y,-z
x,1/2+y,-z
-x,y,z
x,1/2-y,z
1/2+x,1/2+y,1/2+z
1/2-x,-y,1/2+z
1/2+x,1/2-y,1/2-z
1/2-x,y,1/2-z
1/2-x,1/2-y,1/2-z
1/2+x,y,1/2-z
1/2-x,1/2+y,1/2+z
1/2+x,-y,1/2+z
loop_
_atom_site_type_symbol
_atom_site_label
_atom_site_fract_x
_atom_site_fract_y
_atom_site_fract_z
Si Si1 0.500000 0.500000 0.000000
Si Si2 0.896423 0.581205 0.702480
Si Si3 0.396555 0.911142 0.667557
Si Si4 0.158348 0.413739 0.943427
Si Si5 0.644596 0.084447 0.909946
O O1 0.425005 0.493138 0.949704
O O2 0.881234 0.750000 0.694271
O O3 0.867747 0.544633 0.767909
O O4 0.852744 0.490099 0.652483
O O5 0.000000 0.558938 0.698305
O O6 0.500000 0.903953 0.670818
O O7 0.364550 0.750000 0.656253
O O8 0.372893 0.013789 0.615586
O O9 0.130907 0.250000 0.947143
O O10 0.261967 0.418428 0.939017
O O11 0.129627 0.500000 0.000000
O O12 0.618110 0.250000 0.904784
#
# Coordination Sequence:
#
# PCOD9540571 Si02
#       5
#     4  16  16  16  16
#     4  12  22  40  60  86 124 164 198 238 290 340
#     4   9  19  36  60  88 118 154 196 242 291 347
#     4   9  20  41  65  89 117 152 196 243 293 351
#     4  11  24  41  59  86 120 155 196 244 297 351
#     4  11  24  39  59  88 121 158 200 244 289 346
#
# _framework density 20.161854000000002
#
# number of rings (size 3 to 8) (size 9 to 14) (size 15 to 20)
#    0.000    1.882    2.353    2.471    0.000    6.588 
#    0.000    7.059    0.000    0.000    0.000    0.000 
#    0.000    0.000    0.000    0.000    0.000    0.000 
#
# Total GULP energy -189405.356112 kJ/mol
# GULP energy per Si atom -5570.745768 kJ/mol
# Density = 2.011596 g / cm^3
# Si number density = 20.161854 Si / 1000 Ang^3
#
#
#
# Elastic Constant Matrix: (Units=GPa)
#
#
# Indices 1 2 3 4 5 6 
#
# 1 11.5094 1.1162 3.7316 0.0000 0.0000 0.0000
# 2 1.1162 64.8035 73.9481 0.0000 0.0000 0.0000
# 3 3.7316 73.9481 163.4047 0.0000 0.0000 0.0000
# 4 0.0000 0.0000 0.0000 13.8231 0.0000 0.0000
# 5 0.0000 0.0000 0.0000 0.0000 11.5536 0.0000
# 6 0.0000 0.0000 0.0000 0.0000 0.0000 17.3843
#
#
#
# Elastic Compliance Matrix: (Units=1/GPa)
#
#
# Indices 1 2 3 4 5 6 
#
# 1 0.087614 0.001601 -0.002725 0.000000 0.000000 0.000000
# 2 0.001601 0.031939 -0.014490 0.000000 0.000000 0.000000
# 3 -0.002725 -0.014490 0.012740 0.000000 0.000000 0.000000
# 4 0.000000 0.000000 0.000000 0.072343 0.000000 0.000000
# 5 0.000000 0.000000 0.000000 0.000000 0.086553 0.000000
# 6 0.000000 0.000000 0.000000 0.000000 0.000000 0.057523
#
#
# Mechanical properties :
#
#
# Convention : Reuss Voigt Hill
#
# Bulk Modulus (GPa) = 9.89488 44.14550 27.02019
# Shear Modulus (GPa) = 12.08815 19.28031 15.68423
#
# Velocity S-wave (km/s) = 2.45124 3.09573 2.79214
# Velocity P-wave (km/s) = 3.59580 5.89246 4.88113
#
# Compressibility (1/GPa) = 0.10106241
#
# Stress axis : x y z
#
# Youngs Moduli (GPa) = 11.41373 31.30986 78.49569
#
# Poissons Ratio (x) = -0.05012 0.21392
# Poissons Ratio (y) = -0.01827 1.13743
# Poissons Ratio (z) = 0.03110 0.45369
#
# Static dielectric constant tensor:
#      x y z
#    x 1.732980 0.000000 0.000000 
#    y 0.000000 1.706260 0.000000 
#    z 0.000000 0.000000 1.686220 
# 
# From -- ./inp_files/52625.got.cif
#   From: 2010.05.17/outbox.cif.g08.bks.cpg/sg74_27_cif.got.tgz:52625.got - 2010.06.03 17:57:02.
