data_PCOD9540252
_publ_section_title
;
Structure prediction by ZEFSAII (Michael W. Deem and Ramdas Pophale) SiO2 
 PCOD9540252
Probable space group: I M M A
;
_chemical_formula_sum "Si O2"
_cell_formula_units_Z 80
_cell_length_a 18.677130
_cell_length_b 19.856067
_cell_length_c 11.772682
_cell_angle_alpha 90.000000
_cell_angle_beta 90.000000
_cell_angle_gamma 90.000000
_cell_volume 4365.950268
_symmetry_space_group_name_H-M "I M M A"
_symmetry_group_IT_number 74
_symmetry_cell_setting 'orthorhombic'
loop_
_space_group_symop_operation_xyz
x,y,z
-x,1/2-y,z
x,-y,-z
-x,1/2+y,-z
-x,-y,-z
x,1/2+y,-z
-x,y,z
x,1/2-y,z
1/2+x,1/2+y,1/2+z
1/2-x,-y,1/2+z
1/2+x,1/2-y,1/2-z
1/2-x,y,1/2-z
1/2-x,1/2-y,1/2-z
1/2+x,y,1/2-z
1/2-x,1/2+y,1/2+z
1/2+x,-y,1/2+z
loop_
_atom_site_type_symbol
_atom_site_label
_atom_site_fract_x
_atom_site_fract_y
_atom_site_fract_z
Si Si1 0.084447 0.250000 0.095291
Si Si2 0.238408 0.426608 0.558990
Si Si3 0.809498 0.868819 0.845085
Si Si4 0.421405 0.483404 0.365905
Si Si5 0.583920 0.750000 0.320960
Si Si6 0.360514 0.895910 0.254899
O O1 0.129342 0.313234 0.140695
O O2 0.000000 0.250000 0.125263
O O3 0.088766 0.250000 0.958008
O O4 0.234733 0.500000 0.500000
O O5 0.264258 0.376768 0.460598
O O6 0.298689 0.418045 0.655790
O O7 0.166573 0.408993 0.627401
O O8 0.750000 0.856751 0.750000
O O9 0.855695 0.936933 0.826815
O O10 0.411497 0.500000 0.500000
O O11 0.500000 0.450402 0.355967
O O12 0.420922 0.551914 0.294006
O O13 0.500000 0.750000 0.290776
O O14 0.619608 0.681539 0.275307
#
# Coordination Sequence:
#
# PCOD9540252 Si02
#       6
#     8  16  16  16   8  16
#     4  11  23  40  59  89 123 153 205 268 318 375
#     4  11  21  36  58  90 122 156 200 248 312 363
#     4  12  22  38  60  85 122 160 209 255 311 373
#     4  11  20  34  58  88 119 158 203 257 320 372
#     4  11  22  39  62  92 127 162 203 264 321 369
#     4  11  21  36  61  88 129 157 200 261 307 373
#
# _framework density 18.323616000000001
#
# number of rings (size 3 to 8) (size 9 to 14) (size 15 to 20)
#    0.000    0.800    6.000    2.700    0.000    5.600 
#    0.000    0.000    0.000   14.400    0.000    0.000 
#    0.000    0.000    0.000    0.000    0.000    0.000 
#
# Total GULP energy -223123.572210 kJ/mol
# GULP energy per Si atom -5578.089305 kJ/mol
# Density = 1.828191 g / cm^3
# Si number density = 18.323616 Si / 1000 Ang^3
#
#
#
# Elastic Constant Matrix: (Units=GPa)
#
#
# Indices 1 2 3 4 5 6 
#
# 1 127.0474 63.5063 67.6793 0.0000 0.0000 0.0000
# 2 63.5063 148.4485 46.3328 0.0000 0.0000 0.0000
# 3 67.6793 46.3328 94.4369 0.0000 0.0000 0.0000
# 4 0.0000 0.0000 0.0000 8.8572 0.0000 0.0000
# 5 0.0000 0.0000 0.0000 0.0000 -41.2960 0.0000
# 6 0.0000 0.0000 0.0000 0.0000 0.0000 50.4818
#
#
#
# Elastic Compliance Matrix: (Units=1/GPa)
#
#
# Indices 1 2 3 4 5 6 
#
# 1 0.014037 -0.003383 -0.008400 0.000000 0.000000 0.000000
# 2 -0.003383 0.008770 -0.001878 0.000000 0.000000 0.000000
# 3 -0.008400 -0.001878 0.017530 0.000000 0.000000 0.000000
# 4 0.000000 0.000000 0.000000 0.112902 0.000000 0.000000
# 5 0.000000 0.000000 0.000000 0.000000 -0.024215 0.000000
# 6 0.000000 0.000000 0.000000 0.000000 0.000000 0.019809
#
#
# Mechanical properties :
#
#
# Convention : Reuss Voigt Hill
#
# Bulk Modulus (GPa) = 76.83524 80.55217 78.69370
# Shear Modulus (GPa) = 27.70180 16.43622 22.06901
#
# Velocity S-wave (km/s) = 3.89242 2.99824 3.47422
# Velocity P-wave (km/s) = 7.88826 7.48613 7.68982
#
# Compressibility (1/GPa) = 0.01301486
#
# Stress axis : x y z
#
# Youngs Moduli (GPa) = 71.24066 114.02674 57.04412
#
# Poissons Ratio (x) = 0.38579 0.47916
# Poissons Ratio (y) = 0.24103 0.10713
# Poissons Ratio (z) = 0.59841 0.21414
#
# Static dielectric constant tensor:
#      x y z
#    x 1.670070 0.000000 0.000000 
#    y 0.000000 1.783230 0.000000 
#    z 0.000000 0.000000 1.607900 
# 
# From -- ./inp_files/22108.got.cif
#   From: 2010.05.17/outbox.cif.g08.bks.cpg/sg74_12_cif.got.tgz:22108.got - 2010.06.03 17:57:02.
