data_PCOD9540167
_publ_section_title
;
Structure prediction by ZEFSAII (Michael W. Deem and Ramdas Pophale) SiO2 
 PCOD9540167
Probable space group: I M M A
;
_chemical_formula_sum "Si O2"
_cell_formula_units_Z 80
_cell_length_a 14.119931
_cell_length_b 18.849735
_cell_length_c 23.446355
_cell_angle_alpha 90.000000
_cell_angle_beta 90.000000
_cell_angle_gamma 90.000000
_cell_volume 6240.410513
_symmetry_space_group_name_H-M "I M M A"
_symmetry_group_IT_number 74
_symmetry_cell_setting 'orthorhombic'
loop_
_space_group_symop_operation_xyz
x,y,z
-x,1/2-y,z
x,-y,-z
-x,1/2+y,-z
-x,-y,-z
x,1/2+y,-z
-x,y,z
x,1/2-y,z
1/2+x,1/2+y,1/2+z
1/2-x,-y,1/2+z
1/2+x,1/2-y,1/2-z
1/2-x,y,1/2-z
1/2-x,1/2-y,1/2-z
1/2+x,y,1/2-z
1/2-x,1/2+y,1/2+z
1/2+x,-y,1/2+z
loop_
_atom_site_type_symbol
_atom_site_label
_atom_site_fract_x
_atom_site_fract_y
_atom_site_fract_z
Si Si1 0.608379 0.035857 0.062888
Si Si2 0.611736 0.333069 0.650799
Si Si3 0.886480 0.332002 0.505321
Si Si4 0.710669 0.591720 0.112464
Si Si5 0.112951 0.669329 0.285923
O O1 0.500000 0.031496 0.085310
O O2 0.634770 0.116755 0.048308
O O3 0.680934 0.988997 0.099157
O O4 0.606236 0.000000 0.000000
O O5 0.500000 0.344230 0.640777
O O6 0.632718 0.250000 0.637492
O O7 0.679892 0.386324 0.617430
O O8 0.629202 0.342209 0.718776
O O9 0.862975 0.250000 0.496036
O O10 0.835545 0.362149 0.561411
O O11 0.000000 0.337774 0.514788
O O12 0.663894 0.616452 0.171628
O O13 0.143902 0.750000 0.299454
O O14 0.000000 0.665764 0.295073
#
# Coordination Sequence:
#
# PCOD9540167 Si02
#       5
#    16  16  16  16  16
#     4   8  15  25  35  52  76  93 109 143 183 211
#     4   9  18  28  34  46  72 101 126 152 176 197
#     4   9  16  25  38  56  75  94 116 141 174 218
#     4  11  16  22  38  54  70  96 125 146 172 208
#     4   9  16  24  34  51  74  96 119 146 172 203
#
# _framework density 12.819668999999999
#
# number of rings (size 3 to 8) (size 9 to 14) (size 15 to 20)
#    0.000    2.800    0.000    6.600    0.000    3.200 
#    0.000    0.000    0.000    5.400    0.000    0.000 
#    0.000    3.200    0.000    4.800    0.000    0.000 
#
# Total GULP energy -222716.058473 kJ/mol
# GULP energy per Si atom -5567.901462 kJ/mol
# Density = 1.279049 g / cm^3
# Si number density = 12.819669 Si / 1000 Ang^3
#
#
#
# Elastic Constant Matrix: (Units=GPa)
#
#
# Indices 1 2 3 4 5 6 
#
# 1 60.7245 33.5876 26.4872 0.0000 0.0000 0.0000
# 2 33.5876 76.8562 21.3422 0.0000 0.0000 0.0000
# 3 26.4872 21.3422 21.3952 0.0000 0.0000 0.0000
# 4 0.0000 0.0000 0.0000 22.5248 0.0000 0.0000
# 5 0.0000 0.0000 0.0000 0.0000 17.4542 0.0000
# 6 0.0000 0.0000 0.0000 0.0000 0.0000 15.8271
#
#
#
# Elastic Compliance Matrix: (Units=1/GPa)
#
#
# Indices 1 2 3 4 5 6 
#
# 1 0.037024 -0.004775 -0.041073 0.000000 0.000000 0.000000
# 2 -0.004775 0.018612 -0.012655 0.000000 0.000000 0.000000
# 3 -0.041073 -0.012655 0.110212 0.000000 0.000000 0.000000
# 4 0.000000 0.000000 0.000000 0.044396 0.000000 0.000000
# 5 0.000000 0.000000 0.000000 0.000000 0.057293 0.000000
# 6 0.000000 0.000000 0.000000 0.000000 0.000000 0.063183
#
#
# Mechanical properties :
#
#
# Convention : Reuss Voigt Hill
#
# Bulk Modulus (GPa) = 20.47399 35.75663 28.11531
# Shear Modulus (GPa) = 10.77574 16.33182 13.55378
#
# Velocity S-wave (km/s) = 2.90239 3.57314 3.25509
# Velocity P-wave (km/s) = 5.21893 6.70639 6.00886
#
# Compressibility (1/GPa) = 0.04884247
#
# Stress axis : x y z
#
# Youngs Moduli (GPa) = 27.00927 53.72853 9.07346
#
# Poissons Ratio (x) = 0.25654 0.37268
# Poissons Ratio (y) = 0.12896 0.11482
# Poissons Ratio (z) = 1.10936 0.67993
#
# Static dielectric constant tensor:
#      x y z
#    x 1.441660 0.000000 0.000000 
#    y 0.000000 1.436820 0.000000 
#    z 0.000000 0.000000 1.403270 
# 
# From -- ./inp_files/32130.got.cif
#   From: 2010.05.17/outbox.cif.g08.bks.cpg/sg74_17_cif.got.tgz:32130.got - 2010.06.03 17:57:02.
