data_PCOD9540071
_publ_section_title
;
Structure prediction by ZEFSAII (Michael W. Deem and Ramdas Pophale) SiO2 
 PCOD9540071
Probable space group: I M M A
;
_chemical_formula_sum "Si O2"
_cell_formula_units_Z 88
_cell_length_a 15.362442
_cell_length_b 11.667074
_cell_length_c 25.737834
_cell_angle_alpha 90.000000
_cell_angle_beta 90.000000
_cell_angle_gamma 90.000000
_cell_volume 4613.114182
_symmetry_space_group_name_H-M "I M M A"
_symmetry_group_IT_number 74
_symmetry_cell_setting 'orthorhombic'
loop_
_space_group_symop_operation_xyz
x,y,z
-x,1/2-y,z
x,-y,-z
-x,1/2+y,-z
-x,-y,-z
x,1/2+y,-z
-x,y,z
x,1/2-y,z
1/2+x,1/2+y,1/2+z
1/2-x,-y,1/2+z
1/2+x,1/2-y,1/2-z
1/2-x,y,1/2-z
1/2-x,1/2-y,1/2-z
1/2+x,y,1/2-z
1/2-x,1/2+y,1/2+z
1/2+x,-y,1/2+z
loop_
_atom_site_type_symbol
_atom_site_label
_atom_site_fract_x
_atom_site_fract_y
_atom_site_fract_z
Si Si1 0.833845 0.388354 0.883370
Si Si2 0.500000 0.386199 0.219136
Si Si3 0.155419 0.475327 0.766307
Si Si4 0.601188 0.750000 0.086201
Si Si5 0.895150 0.750000 0.295475
Si Si6 0.171675 0.983506 0.442478
Si Si7 0.000000 0.387431 0.401940
Si Si8 0.000000 0.110904 0.959770
O O1 0.816841 0.250000 0.881874
O O2 0.853596 0.435086 0.825791
O O3 0.751700 0.463608 0.903302
O O4 0.914716 0.401584 0.923054
O O5 0.500000 0.250000 0.218406
O O6 0.416906 0.435235 0.248814
O O7 0.500000 0.426233 0.158726
O O8 0.250000 0.519964 0.750000
O O9 0.140342 0.361839 0.732175
O O10 0.500000 0.750000 0.093026
O O11 0.634331 0.750000 0.145110
O O12 0.627582 0.639685 0.055641
O O13 0.000000 0.750000 0.291638
O O14 0.207820 0.000000 0.500000
O O15 0.091109 0.065824 0.426295
O O16 0.000000 0.250000 0.404903
O O17 0.000000 0.250000 0.977924
O O18 0.000000 0.000000 0.000000
#
# Coordination Sequence:
#
# PCOD9540071 Si02
#       8
#    16   8  16   8   8  16   8   8
#     4  11  23  41  65  99 130 163 210 274 335 392
#     4  11  25  45  63  88 133 178 215 254 305 388
#     4  12  23  38  67  99 134 163 208 260 334 390
#     4  11  22  37  61  94 132 167 210 259 319 378
#     4  11  21  35  65 102 137 159 196 266 344 389
#     4  12  25  40  64  91 130 170 216 266 316 375
#     4  11  25  43  65  93 130 175 219 254 309 381
#     4  10  23  44  68  91 128 173 225 282 338 386
#
# _framework density 19.076049999999999
#
# number of rings (size 3 to 8) (size 9 to 14) (size 15 to 20)
#    0.000    0.727    3.636    4.909    1.273    0.364 
#    0.000    3.636    0.000    0.000    0.000    0.000 
#    0.000    0.000    0.000    0.000    0.000    0.000 
#
# Total GULP energy -245561.892888 kJ/mol
# GULP energy per Si atom -5580.952111 kJ/mol
# Density = 1.903263 g / cm^3
# Si number density = 19.076050 Si / 1000 Ang^3
#
#
#
# Elastic Constant Matrix: (Units=GPa)
#
#
# Indices 1 2 3 4 5 6 
#
# 1 110.2538 20.7720 -1.1312 0.0000 0.0000 0.0000
# 2 20.7720 76.0454 26.3260 0.0000 0.0000 0.0000
# 3 -1.1312 26.3260 78.0900 0.0000 0.0000 0.0000
# 4 0.0000 0.0000 0.0000 38.7705 0.0000 0.0000
# 5 0.0000 0.0000 0.0000 0.0000 35.3754 0.0000
# 6 0.0000 0.0000 0.0000 0.0000 0.0000 -25.1411
#
#
#
# Elastic Compliance Matrix: (Units=1/GPa)
#
#
# Indices 1 2 3 4 5 6 
#
# 1 0.009655 -0.003040 0.001165 0.000000 0.000000 0.000000
# 2 -0.003040 0.015845 -0.005386 0.000000 0.000000 0.000000
# 3 0.001165 -0.005386 0.014638 0.000000 0.000000 0.000000
# 4 0.000000 0.000000 0.000000 0.025793 0.000000 0.000000
# 5 0.000000 0.000000 0.000000 0.000000 0.028268 0.000000
# 6 0.000000 0.000000 0.000000 0.000000 0.000000 -0.039775
#
#
# Mechanical properties :
#
#
# Convention : Reuss Voigt Hill
#
# Bulk Modulus (GPa) = 39.03915 39.59141 39.31528
# Shear Modulus (GPa) = 64.52877 24.36246 44.44562
#
# Velocity S-wave (km/s) = 5.82242 3.57756 4.83216
# Velocity P-wave (km/s) = 8.10618 6.15344 7.19635
#
# Compressibility (1/GPa) = 0.02561531
#
# Stress axis : x y z
#
# Youngs Moduli (GPa) = 103.57573 63.11122 68.31404
#
# Poissons Ratio (x) = 0.19189 -0.07958
# Poissons Ratio (y) = 0.31492 0.36792
# Poissons Ratio (z) = -0.12065 0.33990
#
# Static dielectric constant tensor:
#      x y z
#    x 1.658480 0.000000 0.000000 
#    y 0.000000 1.662180 0.000000 
#    z 0.000000 0.000000 1.493280 
# 
# From -- ./inp_files/59868.got.cif
#   From: 2010.05.17/outbox.cif.g08.bks.cpg/sg74_30_cif.got.tgz:59868.got - 2010.06.03 17:57:02.
