data_PCOD9540742
_publ_section_title
;
Structure prediction by ZEFSAII (Michael W. Deem and Ramdas Pophale) SiO2 
 PCOD9540742
Probable space group: I M M A
;
_chemical_formula_sum "Si O2"
_cell_formula_units_Z 120
_cell_length_a 7.362853
_cell_length_b 28.790391
_cell_length_c 25.684392
_cell_angle_alpha 90.000000
_cell_angle_beta 90.000000
_cell_angle_gamma 90.000000
_cell_volume 5444.562436
_symmetry_space_group_name_H-M "I M M A"
_symmetry_group_IT_number 74
_symmetry_cell_setting 'orthorhombic'
loop_
_space_group_symop_operation_xyz
x,y,z
-x,1/2-y,z
x,-y,-z
-x,1/2+y,-z
-x,-y,-z
x,1/2+y,-z
-x,y,z
x,1/2-y,z
1/2+x,1/2+y,1/2+z
1/2-x,-y,1/2+z
1/2+x,1/2-y,1/2-z
1/2-x,y,1/2-z
1/2-x,1/2-y,1/2-z
1/2+x,y,1/2-z
1/2-x,1/2+y,1/2+z
1/2+x,-y,1/2+z
loop_
_atom_site_type_symbol
_atom_site_label
_atom_site_fract_x
_atom_site_fract_y
_atom_site_fract_z
Si Si1 0.221902 0.477237 0.912411
Si Si2 0.283870 0.430563 0.693551
Si Si3 0.282409 0.647402 0.688231
Si Si4 0.221429 0.416603 0.094886
Si Si5 0.778206 0.800020 0.079522
Si Si6 0.278713 0.891117 0.482577
Si Si7 0.216663 0.824993 0.193222
Si Si8 0.783929 0.250000 0.188108
O O1 0.281533 0.457881 0.856372
O O2 0.280700 0.530445 0.914996
O O3 0.278806 0.439563 0.955546
O O4 0.000000 0.477864 0.914523
O O5 0.500000 0.427091 0.687394
O O6 0.250000 0.452279 0.750000
O O7 0.211471 0.377950 0.694304
O O8 0.500000 0.648847 0.683157
O O9 0.250000 0.639469 0.750000
O O10 0.216991 0.607980 0.648182
O O11 0.214292 0.699058 0.671819
O O12 0.000000 0.417774 0.096905
O O13 0.273674 0.389013 0.042833
O O14 0.723064 0.750000 0.057329
O O15 0.718062 0.846180 0.049728
O O16 0.719244 0.802485 0.139871
O O17 0.000000 0.801051 0.078759
O O18 0.500000 0.891386 0.480613
O O19 0.250000 0.803902 0.250000
O O20 0.000000 0.826878 0.188490
O O21 0.750000 0.250000 0.250000
O O22 0.000000 0.250000 0.177967
#
# Coordination Sequence:
#
# PCOD9540742 Si02
#       8
#    16  16  16  16  16  16  16   8
#     4   9  15  25  41  59  83 115 145 177 218 260
#     4   9  16  26  41  61  86 114 144 177 214 257
#     4   9  17  30  46  67  93 118 145 178 218 261
#     4   9  17  26  40  64  88 111 144 182 216 255
#     4   9  16  26  40  59  85 116 145 177 221 267
#     4   9  15  26  40  58  85 115 145 177 217 263
#     4   9  16  27  42  61  86 114 146 181 216 257
#     4   8  14  26  44  62  86 118 144 168 205 254
#
# _framework density 22.040337999999998
#
# number of rings (size 3 to 8) (size 9 to 14) (size 15 to 20)
#    0.000    3.067    1.333    0.400    0.000    2.400 
#    1.200    0.000    0.000    0.000    0.000    1.867 
#    0.000    2.133    0.000    0.000    0.000    0.000 
#
# Total GULP energy -334593.368229 kJ/mol
# GULP energy per Si atom -5576.556137 kJ/mol
# Density = 2.199017 g / cm^3
# Si number density = 22.040338 Si / 1000 Ang^3
#
#
#
# Elastic Constant Matrix: (Units=GPa)
#
#
# Indices 1 2 3 4 5 6 
#
# 1 79.6114 4.0076 -1.2043 0.0000 0.0000 0.0000
# 2 4.0076 161.3873 88.0091 0.0000 0.0000 0.0000
# 3 -1.2043 88.0091 146.7831 0.0000 0.0000 0.0000
# 4 0.0000 0.0000 0.0000 -22.7833 0.0000 0.0000
# 5 0.0000 0.0000 0.0000 0.0000 10.6461 0.0000
# 6 0.0000 0.0000 0.0000 0.0000 0.0000 -19.1612
#
#
#
# Elastic Compliance Matrix: (Units=1/GPa)
#
#
# Indices 1 2 3 4 5 6 
#
# 1 0.012595 -0.000548 0.000432 0.000000 0.000000 0.000000
# 2 -0.000548 0.009230 -0.005539 0.000000 0.000000 0.000000
# 3 0.000432 -0.005539 0.010137 0.000000 0.000000 0.000000
# 4 0.000000 0.000000 0.000000 -0.043892 0.000000 0.000000
# 5 0.000000 0.000000 0.000000 0.000000 0.093931 0.000000
# 6 0.000000 0.000000 0.000000 0.000000 0.000000 -0.052189
#
#
# Mechanical properties :
#
#
# Convention : Reuss Voigt Hill
#
# Bulk Modulus (GPa) = 48.42012 63.26741 55.84376
# Shear Modulus (GPa) = 104.14848 13.53827 58.84337
#
# Velocity S-wave (km/s) = 6.88158 2.48109 5.17262
# Velocity P-wave (km/s) = 9.22811 6.08074 7.81452
#
# Compressibility (1/GPa) = 0.02065257
#
# Stress axis : x y z
#
# Youngs Moduli (GPa) = 79.39554 108.33721 98.64472
#
# Poissons Ratio (x) = 0.05942 -0.04263
# Poissons Ratio (y) = 0.04354 0.54639
# Poissons Ratio (z) = -0.03431 0.60007
#
# Static dielectric constant tensor:
#      x y z
#    x 1.875170 0.000000 0.000000 
#    y 0.000000 1.813110 0.000000 
#    z 0.000000 0.000000 1.779400 
# 
# From -- ./inp_files/51207.got.cif
#   From: 2010.05.17/outbox.cif.g08.bks.cpg/sg74_26_cif.got.tgz:51207.got - 2010.06.03 17:57:02.
