data_PCOD9540518
_publ_section_title
;
Structure prediction by ZEFSAII (Michael W. Deem and Ramdas Pophale) SiO2 
 PCOD9540518
Probable space group: I M M A
;
_chemical_formula_sum "Si O2"
_cell_formula_units_Z 92
_cell_length_a 8.757734
_cell_length_b 20.036649
_cell_length_c 28.226742
_cell_angle_alpha 90.000000
_cell_angle_beta 90.000000
_cell_angle_gamma 90.000000
_cell_volume 4953.105679
_symmetry_space_group_name_H-M "I M M A"
_symmetry_group_IT_number 74
_symmetry_cell_setting 'orthorhombic'
loop_
_space_group_symop_operation_xyz
x,y,z
-x,1/2-y,z
x,-y,-z
-x,1/2+y,-z
-x,-y,-z
x,1/2+y,-z
-x,y,z
x,1/2-y,z
1/2+x,1/2+y,1/2+z
1/2-x,-y,1/2+z
1/2+x,1/2-y,1/2-z
1/2-x,y,1/2-z
1/2-x,1/2-y,1/2-z
1/2+x,y,1/2-z
1/2-x,1/2+y,1/2+z
1/2+x,-y,1/2+z
loop_
_atom_site_type_symbol
_atom_site_label
_atom_site_fract_x
_atom_site_fract_y
_atom_site_fract_z
Si Si1 0.000000 0.750000 0.162425
Si Si2 0.180214 0.938342 0.463579
Si Si3 0.184431 0.986174 0.135349
Si Si4 0.818551 0.171422 0.030410
Si Si5 0.182885 0.132808 0.367512
Si Si6 0.816619 0.250000 0.197122
Si Si7 0.831920 0.370970 0.797485
O O1 0.868981 0.690747 0.167928
O O2 0.264174 0.958395 0.415534
O O3 0.252082 0.873909 0.488652
O O4 0.000000 0.928631 0.454955
O O5 0.196790 0.000000 0.500000
O O6 0.238381 0.932675 0.174492
O O7 0.000000 0.990409 0.136489
O O8 0.256955 0.058582 0.142616
O O9 0.795971 0.250000 0.021501
O O10 0.736785 0.151831 0.079445
O O11 0.000000 0.159228 0.035430
O O12 0.256098 0.185743 0.331550
O O13 0.000000 0.135513 0.364951
O O14 0.500000 0.250000 0.302052
O O15 0.750000 0.250000 0.250000
O O16 0.750000 0.348269 0.750000
O O17 0.000000 0.394319 0.781154
#
# Coordination Sequence:
#
# PCOD9540518 Si02
#       7
#     4  16  16  16  16   8  16
#     4   8  18  40  66  90 118 154 204 244 312 362
#     4  11  23  39  61  90 125 164 210 261 317 377
#     4  11  23  40  61  93 129 170 213 265 318 382
#     4  11  23  40  64  92 121 163 215 263 313 381
#     4  12  24  40  65  92 126 168 213 263 319 384
#     4  12  26  46  68  97 129 168 218 272 330 389
#     4   9  20  37  64  91 120 157 204 253 308 375
#
# _framework density 18.574204999999999
#
# number of rings (size 3 to 8) (size 9 to 14) (size 15 to 20)
#    0.522    0.696    2.609    4.174    0.000    3.826 
#    1.565    1.739    0.000    0.000    0.000    0.000 
#    0.000    0.000    0.000    0.000    0.000    0.000 
#
# Total GULP energy -256256.080167 kJ/mol
# GULP energy per Si atom -5570.784351 kJ/mol
# Density = 1.853193 g / cm^3
# Si number density = 18.574205 Si / 1000 Ang^3
#
#
#
# Elastic Constant Matrix: (Units=GPa)
#
#
# Indices 1 2 3 4 5 6 
#
# 1 100.5921 48.0285 13.9210 0.0000 0.0000 0.0000
# 2 48.0285 145.6627 31.9603 0.0000 0.0000 0.0000
# 3 13.9210 31.9603 41.2928 0.0000 0.0000 0.0000
# 4 0.0000 0.0000 0.0000 9.8450 0.0000 0.0000
# 5 0.0000 0.0000 0.0000 0.0000 16.6339 0.0000
# 6 0.0000 0.0000 0.0000 0.0000 0.0000 -0.3242
#
#
#
# Elastic Compliance Matrix: (Units=1/GPa)
#
#
# Indices 1 2 3 4 5 6 
#
# 1 0.011845 -0.003649 -0.001169 0.000000 0.000000 0.000000
# 2 -0.003649 0.009394 -0.006040 0.000000 0.000000 0.000000
# 3 -0.001169 -0.006040 0.029287 0.000000 0.000000 0.000000
# 4 0.000000 0.000000 0.000000 0.101574 0.000000 0.000000
# 5 0.000000 0.000000 0.000000 0.000000 0.060118 0.000000
# 6 0.000000 0.000000 0.000000 0.000000 0.000000 -3.084690
#
#
# Mechanical properties :
#
#
# Convention : Reuss Voigt Hill
#
# Bulk Modulus (GPa) = 34.71197 52.81858 43.76528
# Shear Modulus (GPa) = -1.75985 18.14014 8.19015
#
# Velocity S-wave (km/s) = -0.97444 3.12850 2.10214
# Velocity P-wave (km/s) = 4.17885 6.44579 5.43190
#
# Compressibility (1/GPa) = 0.02880850
#
# Stress axis : x y z
#
# Youngs Moduli (GPa) = 84.42212 106.45374 34.14526
#
# Poissons Ratio (x) = 0.38847 0.03991
# Poissons Ratio (y) = 0.30807 0.20625
# Poissons Ratio (z) = 0.09868 0.64303
#
# Static dielectric constant tensor:
#      x y z
#    x 1.644190 0.000000 0.000000 
#    y 0.000000 1.627880 0.000000 
#    z 0.000000 0.000000 1.633380 
# 
# From -- ./inp_files/64383.got.cif
#   From: 2010.05.17/outbox.cif.g08.bks.cpg/sg74_33_cif.got.tgz:64383.got - 2010.06.03 17:57:02.
