data_PCOD9540043
_publ_section_title
;
Structure prediction by ZEFSAII (Michael W. Deem and Ramdas Pophale) SiO2 
 PCOD9540043
Probable space group: I M M A
;
_chemical_formula_sum "Si O2"
_cell_formula_units_Z 52
_cell_length_a 11.039654
_cell_length_b 7.230860
_cell_length_c 28.749923
_cell_angle_alpha 90.000000
_cell_angle_beta 90.000000
_cell_angle_gamma 90.000000
_cell_volume 2294.996888
_symmetry_space_group_name_H-M "I M M A"
_symmetry_group_IT_number 74
_symmetry_cell_setting 'orthorhombic'
loop_
_space_group_symop_operation_xyz
x,y,z
-x,1/2-y,z
x,-y,-z
-x,1/2+y,-z
-x,-y,-z
x,1/2+y,-z
-x,y,z
x,1/2-y,z
1/2+x,1/2+y,1/2+z
1/2-x,-y,1/2+z
1/2+x,1/2-y,1/2-z
1/2-x,y,1/2-z
1/2-x,1/2-y,1/2-z
1/2+x,y,1/2-z
1/2-x,1/2+y,1/2+z
1/2+x,-y,1/2+z
loop_
_atom_site_type_symbol
_atom_site_label
_atom_site_fract_x
_atom_site_fract_y
_atom_site_fract_z
Si Si1 0.000000 0.750000 0.675441
Si Si2 0.368288 0.030159 0.944727
Si Si3 0.282081 0.529994 0.196759
Si Si4 0.366379 0.472970 0.609640
O O1 0.106261 0.589315 0.679278
O O2 0.500000 0.955302 0.928745
O O3 0.371381 0.250000 0.936427
O O4 0.247565 0.958351 0.920419
O O5 0.361229 0.000000 0.000000
O O6 0.308244 0.750000 0.193159
O O7 0.250000 0.487725 0.250000
O O8 0.168402 0.491260 0.163031
O O9 0.500000 0.541238 0.597297
O O10 0.369207 0.250000 0.603759
#
# Coordination Sequence:
#
# PCOD9540043 Si02
#       4
#     4  16  16  16
#     4  12  24  40  62  98 126 170 208 284 302 382
#     4   9  18  34  56  83 116 153 197 254 310 367
#     4  10  23  42  65  91 126 171 214 260 321 380
#     4   9  19  37  61  87 117 160 209 256 309 377
#
# _framework density 22.657983000000002
#
# number of rings (size 3 to 8) (size 9 to 14) (size 15 to 20)
#    0.000    2.462    0.000    0.923    4.308    0.615 
#    2.769    0.000    0.000    0.000    0.000    0.000 
#    0.000    0.000    0.000    0.000    0.000    0.000 
#
# Total GULP energy -144794.573958 kJ/mol
# GULP energy per Si atom -5569.022075 kJ/mol
# Density = 2.260641 g / cm^3
# Si number density = 22.657983 Si / 1000 Ang^3
#
#
#
# Elastic Constant Matrix: (Units=GPa)
#
#
# Indices 1 2 3 4 5 6 
#
# 1 251.1917 29.8814 79.1413 0.0000 0.0000 0.0000
# 2 29.8814 113.3530 -8.9568 0.0000 0.0000 0.0000
# 3 79.1413 -8.9568 93.9848 0.0000 0.0000 0.0000
# 4 0.0000 0.0000 0.0000 3.0715 0.0000 0.0000
# 5 0.0000 0.0000 0.0000 0.0000 12.9967 0.0000
# 6 0.0000 0.0000 0.0000 0.0000 0.0000 2.5703
#
#
#
# Elastic Compliance Matrix: (Units=1/GPa)
#
#
# Indices 1 2 3 4 5 6 
#
# 1 0.005811 -0.001933 -0.005077 0.000000 0.000000 0.000000
# 2 -0.001933 0.009532 0.002536 0.000000 0.000000 0.000000
# 3 -0.005077 0.002536 0.015157 0.000000 0.000000 0.000000
# 4 0.000000 0.000000 0.000000 0.325573 0.000000 0.000000
# 5 0.000000 0.000000 0.000000 0.000000 0.076942 0.000000
# 6 0.000000 0.000000 0.000000 0.000000 0.000000 0.389053
#
#
# Mechanical properties :
#
#
# Convention : Reuss Voigt Hill
#
# Bulk Modulus (GPa) = 46.40043 73.18457 59.79250
# Shear Modulus (GPa) = 5.96517 27.62529 16.79523
#
# Velocity S-wave (km/s) = 1.62432 3.49554 2.72554
# Velocity P-wave (km/s) = 4.90316 6.97578 6.02920
#
# Compressibility (1/GPa) = 0.02155153
#
# Stress axis : x y z
#
# Youngs Moduli (GPa) = 172.10040 104.91052 65.97638
#
# Poissons Ratio (x) = 0.20278 0.33497
# Poissons Ratio (y) = 0.33266 -0.16732
# Poissons Ratio (z) = 0.87377 -0.26606
#
# Static dielectric constant tensor:
#      x y z
#    x 1.815740 0.000000 0.000000 
#    y 0.000000 1.534570 0.000000 
#    z 0.000000 0.000000 1.837410 
# 
# From -- ./inp_files/63172.got.cif
#   From: 2010.05.17/outbox.cif.g08.bks.cpg/sg74_32_cif.got.tgz:63172.got - 2010.06.03 17:57:02.
