data_PCOD9540190
_publ_section_title
;
Structure prediction by ZEFSAII (Michael W. Deem and Ramdas Pophale) SiO2 
 PCOD9540190
Probable space group: I M M A
;
_chemical_formula_sum "Si O2"
_cell_formula_units_Z 80
_cell_length_a 19.004656
_cell_length_b 28.518539
_cell_length_c 9.194908
_cell_angle_alpha 90.000000
_cell_angle_beta 90.000000
_cell_angle_gamma 90.000000
_cell_volume 4983.502427
_symmetry_space_group_name_H-M "I M M A"
_symmetry_group_IT_number 74
_symmetry_cell_setting 'orthorhombic'
loop_
_space_group_symop_operation_xyz
x,y,z
-x,1/2-y,z
x,-y,-z
-x,1/2+y,-z
-x,-y,-z
x,1/2+y,-z
-x,y,z
x,1/2-y,z
1/2+x,1/2+y,1/2+z
1/2-x,-y,1/2+z
1/2+x,1/2-y,1/2-z
1/2-x,y,1/2-z
1/2-x,1/2-y,1/2-z
1/2+x,y,1/2-z
1/2-x,1/2+y,1/2+z
1/2+x,-y,1/2+z
loop_
_atom_site_type_symbol
_atom_site_label
_atom_site_fract_x
_atom_site_fract_y
_atom_site_fract_z
Si Si1 0.582294 0.017739 0.665200
Si Si2 0.174531 0.110505 0.830806
Si Si3 0.685589 0.965761 0.863192
Si Si4 0.768348 0.636775 0.585759
Si Si5 0.824703 0.302057 0.664111
O O1 0.500000 0.024931 0.693335
O O2 0.626491 0.065411 0.679430
O O3 0.590893 0.000000 0.500000
O O4 0.616139 0.980961 0.777117
O O5 0.250000 0.101456 0.750000
O O6 0.139612 0.155527 0.752621
O O7 0.198178 0.123483 0.994065
O O8 0.750000 0.971489 0.750000
O O9 0.687156 0.911537 0.910961
O O10 0.696098 0.000000 0.000000
O O11 0.750000 0.649832 0.750000
O O12 0.806794 0.677305 0.494553
O O13 0.856040 0.250000 0.661811
O O14 0.750000 0.298406 0.750000
#
# Coordination Sequence:
#
# PCOD9540190 Si02
#       5
#    16  16  16  16  16
#     4  11  22  33  46  68  98 128 157 193 235 275
#     4   9  17  31  49  67  90 123 157 186 223 274
#     4  11  19  30  48  68  94 127 162 193 224 275
#     4   9  16  24  42  68  91 117 149 185 227 272
#     4   8  15  28  45  65  89 116 147 186 229 269
#
# _framework density 16.052968
#
# number of rings (size 3 to 8) (size 9 to 14) (size 15 to 20)
#    0.000    2.800    0.000    7.200    0.000    1.600 
#    0.000    0.000    0.000    0.600    0.000    0.000 
#    0.000    1.600    0.000    0.000    0.000    0.000 
#
# Total GULP energy -222826.309952 kJ/mol
# GULP energy per Si atom -5570.657749 kJ/mol
# Density = 1.601643 g / cm^3
# Si number density = 16.052968 Si / 1000 Ang^3
#
#
#
# Elastic Constant Matrix: (Units=GPa)
#
#
# Indices 1 2 3 4 5 6 
#
# 1 54.6883 39.6905 23.2327 0.0000 0.0000 0.0000
# 2 39.6905 130.6593 38.8134 0.0000 0.0000 0.0000
# 3 23.2327 38.8134 108.2066 0.0000 0.0000 0.0000
# 4 0.0000 0.0000 0.0000 10.3733 0.0000 0.0000
# 5 0.0000 0.0000 0.0000 0.0000 13.9001 0.0000
# 6 0.0000 0.0000 0.0000 0.0000 0.0000 0.4632
#
#
#
# Elastic Compliance Matrix: (Units=1/GPa)
#
#
# Indices 1 2 3 4 5 6 
#
# 1 0.024226 -0.006508 -0.002867 0.000000 0.000000 0.000000
# 2 -0.006508 0.010314 -0.002302 0.000000 0.000000 0.000000
# 3 -0.002867 -0.002302 0.010683 0.000000 0.000000 0.000000
# 4 0.000000 0.000000 0.000000 0.096401 0.000000 0.000000
# 5 0.000000 0.000000 0.000000 0.000000 0.071942 0.000000
# 6 0.000000 0.000000 0.000000 0.000000 0.000000 2.159090
#
#
# Mechanical properties :
#
#
# Convention : Reuss Voigt Hill
#
# Bulk Modulus (GPa) = 45.72665 55.22528 50.47597
# Shear Modulus (GPa) = 2.08047 17.73515 9.90781
#
# Velocity S-wave (km/s) = 1.13966 3.32744 2.48704
# Velocity P-wave (km/s) = 5.50259 7.01706 6.30546
#
# Compressibility (1/GPa) = 0.02186909
#
# Stress axis : x y z
#
# Youngs Moduli (GPa) = 41.27725 96.95321 93.60563
#
# Poissons Ratio (x) = 0.63092 0.26840
# Poissons Ratio (y) = 0.26861 0.21553
# Poissons Ratio (z) = 0.11836 0.22323
#
# Static dielectric constant tensor:
#      x y z
#    x 1.512690 0.000000 0.000000 
#    y 0.000000 1.576480 0.000000 
#    z 0.000000 0.000000 1.570230 
# 
# From -- ./inp_files/11181.got.cif
#   From: 2010.05.17/outbox.cif.g08.bks.cpg/sg74_6_cif.got.tgz:11181.got - 2010.06.03 17:57:02.
