data_PCOD9540922
_publ_section_title
;
Structure prediction by ZEFSAII (Michael W. Deem and Ramdas Pophale) SiO2 
 PCOD9540922
Probable space group: I M M A
;
_chemical_formula_sum "Si O2"
_cell_formula_units_Z 56
_cell_length_a 24.000000
_cell_length_b 21.000000
_cell_length_c 12.000000
_cell_angle_alpha 90.000000
_cell_angle_beta 90.000000
_cell_angle_gamma 90.000000
_cell_volume 6048.000000
_symmetry_space_group_name_H-M "I M M A"
_symmetry_group_IT_number 74
_symmetry_cell_setting 'orthorhombic'
loop_
_space_group_symop_operation_xyz
x,y,z
-x,1/2-y,z
x,-y,-z
-x,1/2+y,-z
-x,-y,-z
x,1/2+y,-z
-x,y,z
x,1/2-y,z
1/2+x,1/2+y,1/2+z
1/2-x,-y,1/2+z
1/2+x,1/2-y,1/2-z
1/2-x,y,1/2-z
1/2-x,1/2-y,1/2-z
1/2+x,y,1/2-z
1/2-x,1/2+y,1/2+z
1/2+x,-y,1/2+z
loop_
_atom_site_type_symbol
_atom_site_label
_atom_site_fract_x
_atom_site_fract_y
_atom_site_fract_z
Si Si1 0.159692 0.092333 0.263901
Si Si2 0.064976 0.933880 0.560125
Si Si3 0.284908 0.323274 0.041720
Si Si4 0.380768 0.639484 0.132355
Si Si5 0.563283 0.677162 0.357293
Si Si6 0.309898 0.951186 0.285183
Si Si7 0.664137 0.380463 0.497757
O O1 0.102358 0.081223 0.332305
O O2 0.195912 0.135101 0.350445
O O3 0.188467 0.024451 0.247400
O O4 0.151687 0.113464 0.134856
O O5 0.076946 0.882462 0.463695
O O6 0.000000 0.937518 0.588342
O O7 0.082063 0.000000 0.500000
O O8 0.286018 0.250000 0.075475
O O9 0.328957 0.332524 0.939590
O O10 0.222611 0.341595 0.002370
O O11 0.412863 0.676338 0.230472
O O12 0.355067 0.582195 0.205835
O O13 0.500000 0.649024 0.360478
O O14 0.558855 0.750000 0.391916
O O15 0.609796 0.647458 0.439312
O O16 0.250000 0.923906 0.250000
O O17 0.321518 0.938750 0.416201
#
# Coordination Sequence:
#
# PCOD9540922 Si02
#       7
#    16  16  16  16  16  16  16
#     4  11  24  38  58  89 121 160 197 247 295 366
#     4  10  20  37  61  86 118 156 196 248 301 355
#     4  11  23  39  60  90 122 159 196 243 304 361
#     4  10  20  37  62  90 117 150 194 255 297 360
#     4  10  22  39  60  84 115 158 205 251 295 347
#     4  11  20  37  59  87 120 152 195 241 304 354
#     4  11  23  38  58  87 120 162 195 248 296 359
#
# _framework density 9.2592590000000001
#
# number of rings (size 3 to 8) (size 9 to 14) (size 15 to 20)
#    0.000    1.429    2.857    3.000    0.000    2.286 
#    0.000    2.143    0.000    6.429    0.000    0.000 
#    0.000    0.000    0.000    0.000    0.000    0.000 
#
# Total GULP energy -311869.146612 kJ/mol
# GULP energy per Si atom -5569.091904 kJ/mol
# Density = 0.923818 g / cm^3
# Si number density = 9.259259 Si / 1000 Ang^3
#
#
#
# Elastic Constant Matrix: (Units=GPa)
#
#
# Indices 1 2 3 4 5 6 
#
# 1 120.4933 35.5184 61.8215 0.0000 0.0000 0.0000
# 2 35.5184 89.0392 39.5873 0.0000 0.0000 0.0000
# 3 61.8215 39.5873 147.7362 0.0000 0.0000 0.0000
# 4 0.0000 0.0000 0.0000 13.9588 0.0000 0.0000
# 5 0.0000 0.0000 0.0000 0.0000 27.0795 0.0000
# 6 0.0000 0.0000 0.0000 0.0000 0.0000 10.8035
#
#
#
# Elastic Compliance Matrix: (Units=1/GPa)
#
#
# Indices 1 2 3 4 5 6 
#
# 1 0.011106 -0.002684 -0.003928 0.000000 0.000000 0.000000
# 2 -0.002684 0.013399 -0.002467 0.000000 0.000000 0.000000
# 3 -0.003928 -0.002467 0.009074 0.000000 0.000000 0.000000
# 4 0.000000 0.000000 0.000000 0.071640 0.000000 0.000000
# 5 0.000000 0.000000 0.000000 0.000000 0.036928 0.000000
# 6 0.000000 0.000000 0.000000 0.000000 0.000000 0.092562
#
#
# Mechanical properties :
#
#
# Convention : Reuss Voigt Hill
#
# Bulk Modulus (GPa) = 64.85185 70.12479 67.48832
# Shear Modulus (GPa) = 19.37937 25.05778 22.21858
#
# Velocity S-wave (km/s) = 3.23845 3.68247 3.46758
# Velocity P-wave (km/s) = 7.00567 7.48534 7.24948
#
# Compressibility (1/GPa) = 0.01541976
#
# Stress axis : x y z
#
# Youngs Moduli (GPa) = 90.04363 74.63521 110.20839
#
# Poissons Ratio (x) = 0.20030 0.43292
# Poissons Ratio (y) = 0.24165 0.27191
# Poissons Ratio (z) = 0.35371 0.18414
#
# Static dielectric constant tensor:
#      x y z
#    x 1.662700 0.000000 0.000000 
#    y 0.000000 1.684750 0.000000 
#    z 0.000000 0.000000 1.611420 
# 
# From -- ./inp_files/24190.got.cif
#   From: 2010.05.17/outbox.ucp.g08.bks.cvg/sg74_13_cif.got.tgz:24190.got - 2010.06.11 16:37:44.
