data_PCOD9540917
_publ_section_title
;
Structure prediction by ZEFSAII (Michael W. Deem and Ramdas Pophale) SiO2 
 PCOD9540917
Probable space group: I M M A
;
_chemical_formula_sum "Si O2"
_cell_formula_units_Z 48
_cell_length_a 27.000000
_cell_length_b 9.000000
_cell_length_c 21.000000
_cell_angle_alpha 90.000000
_cell_angle_beta 90.000000
_cell_angle_gamma 90.000000
_cell_volume 5103.000000
_symmetry_space_group_name_H-M "I M M A"
_symmetry_group_IT_number 74
_symmetry_cell_setting 'orthorhombic'
loop_
_space_group_symop_operation_xyz
x,y,z
-x,1/2-y,z
x,-y,-z
-x,1/2+y,-z
-x,-y,-z
x,1/2+y,-z
-x,y,z
x,1/2-y,z
1/2+x,1/2+y,1/2+z
1/2-x,-y,1/2+z
1/2+x,1/2-y,1/2-z
1/2-x,y,1/2-z
1/2-x,1/2-y,1/2-z
1/2+x,y,1/2-z
1/2-x,1/2+y,1/2+z
1/2+x,-y,1/2+z
loop_
_atom_site_type_symbol
_atom_site_label
_atom_site_fract_x
_atom_site_fract_y
_atom_site_fract_z
Si Si1 0.779658 0.423514 0.590266
Si Si2 0.621563 0.573396 0.298238
Si Si3 0.335594 0.927771 0.433925
Si Si4 0.800163 0.586016 0.712594
Si Si5 0.118004 0.426265 0.435883
Si Si6 0.557264 0.926569 0.179370
O O1 0.785745 0.250000 0.573050
O O2 0.722744 0.470513 0.576984
O O3 0.789600 0.452490 0.664353
O O4 0.824146 0.524539 0.563968
O O5 0.634253 0.750000 0.293113
O O6 0.629612 0.536780 0.372955
O O7 0.659199 0.467608 0.261576
O O8 0.572980 0.553236 0.253757
O O9 0.335428 0.750000 0.440460
O O10 0.352068 0.000000 0.500000
O O11 0.812593 0.750000 0.684023
O O12 0.750000 0.604112 0.750000
O O13 0.095830 0.500000 0.500000
O O14 0.113100 0.250000 0.439125
O O15 0.092285 0.488807 0.371388
O O16 0.500000 0.968942 0.170281
O O17 0.562717 0.750000 0.166375
#
# Coordination Sequence:
#
# PCOD9540917 Si02
#       6
#    16  16  16  16  16  16
#     4  11  21  35  55  81 116 158 197 235 276 329
#     4  10  20  37  59  81 111 150 191 236 290 347
#     4  10  22  36  54  82 115 156 195 232 282 336
#     4  11  21  31  50  83 116 150 190 232 280 334
#     4  12  25  40  59  85 118 157 196 237 286 339
#     4  10  22  41  65  89 111 142 189 244 298 351
#
# _framework density 9.4062319999999993
#
# number of rings (size 3 to 8) (size 9 to 14) (size 15 to 20)
#    0.000    1.333    3.333    3.000    0.000    4.667 
#    0.000    0.000    0.000    0.500    0.000    0.000 
#    0.000    0.000    0.000    0.000    0.000    0.000 
#
# Total GULP energy -267453.245759 kJ/mol
# GULP energy per Si atom -5571.942620 kJ/mol
# Density = 0.938482 g / cm^3
# Si number density = 9.406232 Si / 1000 Ang^3
#
#
#
# Elastic Constant Matrix: (Units=GPa)
#
#
# Indices 1 2 3 4 5 6 
#
# 1 59.9956 28.6364 36.9578 0.0000 0.0000 0.0000
# 2 28.6364 58.1129 35.4941 0.0000 0.0000 0.0000
# 3 36.9578 35.4941 141.4119 0.0000 0.0000 0.0000
# 4 0.0000 0.0000 0.0000 31.5331 0.0000 0.0000
# 5 0.0000 0.0000 0.0000 0.0000 8.8606 0.0000
# 6 0.0000 0.0000 0.0000 0.0000 0.0000 10.2838
#
#
#
# Elastic Compliance Matrix: (Units=1/GPa)
#
#
# Indices 1 2 3 4 5 6 
#
# 1 0.023409 -0.009210 -0.003806 0.000000 0.000000 0.000000
# 2 -0.009210 0.023948 -0.003604 0.000000 0.000000 0.000000
# 3 -0.003806 -0.003604 0.008971 0.000000 0.000000 0.000000
# 4 0.000000 0.000000 0.000000 0.031713 0.000000 0.000000
# 5 0.000000 0.000000 0.000000 0.000000 0.112859 0.000000
# 6 0.000000 0.000000 0.000000 0.000000 0.000000 0.097241
#
#
# Mechanical properties :
#
#
# Convention : Reuss Voigt Hill
#
# Bulk Modulus (GPa) = 43.31500 51.29967 47.30733
# Shear Modulus (GPa) = 14.74600 20.69763 17.72182
#
# Velocity S-wave (km/s) = 2.80276 3.32054 3.07257
# Velocity P-wave (km/s) = 5.79211 6.48301 6.14728
#
# Compressibility (1/GPa) = 0.02308669
#
# Stress axis : x y z
#
# Youngs Moduli (GPa) = 42.71922 41.75788 111.47344
#
# Poissons Ratio (x) = 0.38461 0.42427
# Poissons Ratio (y) = 0.39347 0.40171
# Poissons Ratio (z) = 0.16259 0.15048
#
# Static dielectric constant tensor:
#      x y z
#    x 1.651100 0.000000 0.000000 
#    y 0.000000 1.655870 0.000000 
#    z 0.000000 0.000000 1.722090 
# 
# From -- ./inp_files/49176.got.cif
#   From: 2010.05.17/outbox.ucp.g08.bks.cvg/sg74_25_cif.got.tgz:49176.got - 2010.06.11 16:37:44.
