data_PCOD9540823
_publ_section_title
;
Structure prediction by ZEFSAII (Michael W. Deem and Ramdas Pophale) SiO2 
 PCOD9540823
Probable space group: I M M A
;
_chemical_formula_sum "Si O2"
_cell_formula_units_Z 48
_cell_length_a 18.000000
_cell_length_b 18.000000
_cell_length_c 18.000000
_cell_angle_alpha 90.000000
_cell_angle_beta 90.000000
_cell_angle_gamma 90.000000
_cell_volume 5832.000000
_symmetry_space_group_name_H-M "I M M A"
_symmetry_group_IT_number 74
_symmetry_cell_setting 'orthorhombic'
loop_
_space_group_symop_operation_xyz
x,y,z
-x,1/2-y,z
x,-y,-z
-x,1/2+y,-z
-x,-y,-z
x,1/2+y,-z
-x,y,z
x,1/2-y,z
1/2+x,1/2+y,1/2+z
1/2-x,-y,1/2+z
1/2+x,1/2-y,1/2-z
1/2-x,y,1/2-z
1/2-x,1/2-y,1/2-z
1/2+x,y,1/2-z
1/2-x,1/2+y,1/2+z
1/2+x,-y,1/2+z
loop_
_atom_site_type_symbol
_atom_site_label
_atom_site_fract_x
_atom_site_fract_y
_atom_site_fract_z
Si Si1 0.417546 0.337598 0.971309
Si Si2 0.722187 0.527982 0.833660
Si Si3 0.910461 0.163234 0.827407
Si Si4 0.086805 0.571262 0.320137
Si Si5 0.229163 0.338284 0.437236
Si Si6 0.823853 0.432965 0.946884
O O1 0.500000 0.356631 0.999552
O O2 0.416056 0.250000 0.953910
O O3 0.405206 0.381195 0.895158
O O4 0.353177 0.351340 0.029897
O O5 0.750000 0.520121 0.750000
O O6 0.637423 0.500642 0.830508
O O7 0.734568 0.610893 0.864310
O O8 0.765833 0.473560 0.890889
O O9 0.885283 0.250000 0.829380
O O10 0.889162 0.121708 0.750390
O O11 0.879508 0.113663 0.895054
O O12 0.000000 0.164387 0.829978
O O13 0.000000 0.553317 0.310032
O O14 0.241219 0.250000 0.427530
O O15 0.283451 0.374380 0.498753
O O16 0.853878 0.500000 0.000000
#
# Coordination Sequence:
#
# PCOD9540823 Si02
#       6
#    16  16  16  16  16  16
#     4   9  17  30  49  76 109 138 165 201 246 300
#     4  11  21  36  53  75 104 136 176 215 255 306
#     4  10  20  34  53  78 106 136 170 207 255 312
#     4  10  19  32  51  77 108 140 169 202 250 305
#     4  10  21  35  53  76 103 136 174 215 258 304
#     4  10  20  35  54  77 104 131 169 217 259 304
#
# _framework density 8.2304530000000007
#
# number of rings (size 3 to 8) (size 9 to 14) (size 15 to 20)
#    0.000    2.000    3.333    1.000    0.000    3.333 
#    0.000    2.500    0.000    0.000    0.000    0.000 
#    0.000    0.000    0.000    0.000    0.000    0.000 
#
# Total GULP energy -267521.417390 kJ/mol
# GULP energy per Si atom -5573.362862 kJ/mol
# Density = 0.821172 g / cm^3
# Si number density = 8.230453 Si / 1000 Ang^3
#
#
#
# Elastic Constant Matrix: (Units=GPa)
#
#
# Indices 1 2 3 4 5 6 
#
# 1 23.4521 19.7638 7.1817 0.0000 0.0000 0.0000
# 2 19.7638 88.3441 27.2222 0.0000 0.0000 0.0000
# 3 7.1817 27.2222 52.2718 0.0000 0.0000 0.0000
# 4 0.0000 0.0000 0.0000 24.4303 0.0000 0.0000
# 5 0.0000 0.0000 0.0000 0.0000 21.9769 0.0000
# 6 0.0000 0.0000 0.0000 0.0000 0.0000 24.7751
#
#
#
# Elastic Compliance Matrix: (Units=1/GPa)
#
#
# Indices 1 2 3 4 5 6 
#
# 1 0.052622 -0.011369 -0.001309 0.000000 0.000000 0.000000
# 2 -0.011369 0.015939 -0.006739 0.000000 0.000000 0.000000
# 3 -0.001309 -0.006739 0.022820 0.000000 0.000000 0.000000
# 4 0.000000 0.000000 0.000000 0.040933 0.000000 0.000000
# 5 0.000000 0.000000 0.000000 0.000000 0.045502 0.000000
# 6 0.000000 0.000000 0.000000 0.000000 0.000000 0.040363
#
#
# Mechanical properties :
#
#
# Convention : Reuss Voigt Hill
#
# Bulk Modulus (GPa) = 19.03035 30.26704 24.64870
# Shear Modulus (GPa) = 18.21300 21.56315 19.88807
#
# Velocity S-wave (km/s) = 3.32993 3.62326 3.47969
# Velocity P-wave (km/s) = 5.13523 5.99426 5.58130
#
# Compressibility (1/GPa) = 0.05254763
#
# Stress axis : x y z
#
# Youngs Moduli (GPa) = 19.00345 62.73808 43.82101
#
# Poissons Ratio (x) = 0.71326 0.05736
# Poissons Ratio (y) = 0.21605 0.29531
# Poissons Ratio (z) = 0.02488 0.42279
#
# Static dielectric constant tensor:
#      x y z
#    x 1.571560 0.000000 0.000000 
#    y 0.000000 1.543430 0.000000 
#    z 0.000000 0.000000 1.550640 
# 
# From -- ./inp_files/32378.got.cif
#   From: 2010.05.17/outbox.ucp.g08.bks.cvg/sg74_17_cif.got.tgz:32378.got - 2010.06.11 16:37:44.
