data_PCOD9540634
_publ_section_title
;
Structure prediction by ZEFSAII (Michael W. Deem and Ramdas Pophale) SiO2 
 PCOD9540634
Probable space group: I M M A
;
_chemical_formula_sum "Si O2"
_cell_formula_units_Z 72
_cell_length_a 26.163487
_cell_length_b 13.787122
_cell_length_c 7.352916
_cell_angle_alpha 90.000000
_cell_angle_beta 90.000000
_cell_angle_gamma 90.000000
_cell_volume 2652.337883
_symmetry_space_group_name_H-M "I M M A"
_symmetry_group_IT_number 74
_symmetry_cell_setting 'orthorhombic'
loop_
_space_group_symop_operation_xyz
x,y,z
-x,1/2-y,z
x,-y,-z
-x,1/2+y,-z
-x,-y,-z
x,1/2+y,-z
-x,y,z
x,1/2-y,z
1/2+x,1/2+y,1/2+z
1/2-x,-y,1/2+z
1/2+x,1/2-y,1/2-z
1/2-x,y,1/2-z
1/2-x,1/2-y,1/2-z
1/2+x,y,1/2-z
1/2-x,1/2+y,1/2+z
1/2+x,-y,1/2+z
loop_
_atom_site_type_symbol
_atom_site_label
_atom_site_fract_x
_atom_site_fract_y
_atom_site_fract_z
Si Si1 0.444923 0.132052 0.598831
Si Si2 0.250841 0.000000 0.500000
Si Si3 0.834330 0.139141 0.345403
Si Si4 0.445013 0.367992 0.171770
Si Si5 0.666713 0.360765 0.595786
O O1 0.500000 0.101611 0.676843
O O2 0.444248 0.250000 0.607208
O O3 0.445768 0.104932 0.385438
O O4 0.388719 0.104827 0.667127
O O5 0.213302 0.920383 0.584079
O O6 0.290012 0.939254 0.371761
O O7 0.828231 0.250000 0.406921
O O8 0.890370 0.102672 0.405802
O O9 0.836041 0.142137 0.125192
O O10 0.500000 0.396574 0.092795
O O11 0.443821 0.250000 0.166795
O O12 0.676979 0.250000 0.655164
#
# Coordination Sequence:
#
# PCOD9540634 Si02
#       5
#    16   8  16  16  16
#     4   7  10  20  41  65  84 104 134 173 216 258
#     4  12  20  26  42  66  88 118 156 184 204 242
#     4   9  18  32  48  65  87 116 147 179 217 259
#     4   7  10  20  41  65  84 104 134 173 216 258
#     4   9  18  32  48  65  87 116 147 179 217 259
#
# _framework density 27.145862000000001
#
# number of rings (size 3 to 8) (size 9 to 14) (size 15 to 20)
#    0.000    3.556    0.000    5.333    0.000    1.778 
#    0.000    1.111    0.000   10.667    0.000    0.000 
#    0.000    0.000    0.000   88.889    0.000    7.111 
#
# Total GULP energy -201380.178316 kJ/mol
# GULP energy per Si atom -5593.893842 kJ/mol
# Density = 2.708408 g / cm^3
# Si number density = 27.145862 Si / 1000 Ang^3
#
#
#
# Elastic Constant Matrix: (Units=GPa)
#
#
# Indices 1 2 3 4 5 6 
#
# 1 333.2158 98.3839 27.1911 0.0000 0.0000 0.0000
# 2 98.3839 156.7916 20.8599 0.0000 0.0000 0.0000
# 3 27.1911 20.8599 91.8032 0.0000 0.0000 0.0000
# 4 0.0000 0.0000 0.0000 19.6360 0.0000 0.0000
# 5 0.0000 0.0000 0.0000 0.0000 -7.7292 0.0000
# 6 0.0000 0.0000 0.0000 0.0000 0.0000**********
#
#
#
# Elastic Compliance Matrix: (Units=1/GPa)
#
#
# Indices 1 2 3 4 5 6 
#
# 1 0.003714 -0.002252 -0.000588 0.000000 0.000000 0.000000
# 2 -0.002252 0.007942 -0.001138 0.000000 0.000000 0.000000
# 3 -0.000588 -0.001138 0.011326 0.000000 0.000000 0.000000
# 4 0.000000 0.000000 0.000000 0.050927 0.000000 0.000000
# 5 0.000000 0.000000 0.000000 0.000000 -0.129379 0.000000
# 6 0.000000 0.000000 0.000000 0.000000 0.000000 -0.000056
#
#
# Mechanical properties :
#
#
# Convention : Reuss Voigt Hill
#
# Bulk Modulus (GPa) = 66.55217 97.18673 81.86945
# Shear Modulus (GPa) = -117.47799 -3535.91268 -1826.69533
#
# Velocity S-wave (km/s) = -6.58563 -36.13016 -25.96882
# Velocity P-wave (km/s) = 5.76694 41.28726 29.47792
#
# Compressibility (1/GPa) = 0.01502581
#
# Stress axis : x y z
#
# Youngs Moduli (GPa) = 269.24797 125.90528 88.29543
#
# Poissons Ratio (x) = 0.28357 0.05194
# Poissons Ratio (y) = 0.60641 0.10045
# Poissons Ratio (z) = 0.15840 0.14323
#
# Static dielectric constant tensor:
#      x y z
#    x 2.098440 0.000000 0.000000 
#    y 0.000000 2.077280 0.000000 
#    z 0.000000 0.000000 2.148930 
# 
# From -- ./inp_files/14731.got.cif
#   From: 2010.05.17/outbox.cif.g08.bks.cpg/sg74_8_cif.got.tgz:14731.got - 2010.06.03 17:57:02.
