data_PCOD9540371
_publ_section_title
;
Structure prediction by ZEFSAII (Michael W. Deem and Ramdas Pophale) SiO2 
 PCOD9540371
Probable space group: I M M A
;
_chemical_formula_sum "Si O2"
_cell_formula_units_Z 80
_cell_length_a 17.036021
_cell_length_b 24.516762
_cell_length_c 9.951966
_cell_angle_alpha 90.000000
_cell_angle_beta 90.000000
_cell_angle_gamma 90.000000
_cell_volume 4156.618455
_symmetry_space_group_name_H-M "I M M A"
_symmetry_group_IT_number 74
_symmetry_cell_setting 'orthorhombic'
loop_
_space_group_symop_operation_xyz
x,y,z
-x,1/2-y,z
x,-y,-z
-x,1/2+y,-z
-x,-y,-z
x,1/2+y,-z
-x,y,z
x,1/2-y,z
1/2+x,1/2+y,1/2+z
1/2-x,-y,1/2+z
1/2+x,1/2-y,1/2-z
1/2-x,y,1/2-z
1/2-x,1/2-y,1/2-z
1/2+x,y,1/2-z
1/2-x,1/2+y,1/2+z
1/2+x,-y,1/2+z
loop_
_atom_site_type_symbol
_atom_site_label
_atom_site_fract_x
_atom_site_fract_y
_atom_site_fract_z
Si Si1 0.407550 0.750000 0.282645
Si Si2 0.813502 0.354017 0.867473
Si Si3 0.198279 0.148349 0.382886
Si Si4 0.405889 0.250000 0.038304
Si Si5 0.326636 0.978023 0.348227
Si Si6 0.909083 0.458172 0.376188
O O1 0.500000 0.750000 0.297990
O O2 0.372155 0.804213 0.348417
O O3 0.390135 0.750000 0.122559
O O4 0.750000 0.349598 0.750000
O O5 0.849700 0.414457 0.858813
O O6 0.762396 0.349471 0.000448
O O7 0.250000 0.151536 0.250000
O O8 0.136479 0.197239 0.399983
O O9 0.149735 0.092282 0.390433
O O10 0.500000 0.250000 0.058273
O O11 0.250000 0.981311 0.250000
O O12 0.312520 0.000000 0.500000
O O13 0.390399 0.012316 0.265063
O O14 0.896266 0.500000 0.500000
O O15 0.000000 0.440679 0.381443
#
# Coordination Sequence:
#
# PCOD9540371 Si02
#       6
#     8  16  16   8  16  16
#     4  11  24  42  65  95 128 161 209 272 322 369
#     4  11  21  39  66  94 125 165 220 260 307 377
#     4  12  24  42  66  94 127 168 213 262 315 383
#     4  11  24  43  67  94 126 163 211 264 326 383
#     4  11  22  39  64  95 129 169 214 263 314 378
#     4  11  24  41  63  94 131 170 215 264 325 385
#
# _framework density 19.246414000000001
#
# number of rings (size 3 to 8) (size 9 to 14) (size 15 to 20)
#    0.000    0.800    2.000    7.800    0.000    1.200 
#    0.000    5.000    0.000    0.000    0.000    0.000 
#    0.000    0.000    0.000    0.000    0.000    0.000 
#
# Total GULP energy -223663.686736 kJ/mol
# GULP energy per Si atom -5591.592168 kJ/mol
# Density = 1.920261 g / cm^3
# Si number density = 19.246414 Si / 1000 Ang^3
#
#
#
# Elastic Constant Matrix: (Units=GPa)
#
#
# Indices 1 2 3 4 5 6 
#
# 1 115.2379 80.8239 70.5303 0.0000 0.0000 0.0000
# 2 80.8239 168.4601 59.0657 0.0000 0.0000 0.0000
# 3 70.5303 59.0657 169.0345 0.0000 0.0000 0.0000
# 4 0.0000 0.0000 0.0000 51.2791 0.0000 0.0000
# 5 0.0000 0.0000 0.0000 0.0000 29.9711 0.0000
# 6 0.0000 0.0000 0.0000 0.0000 0.0000 -5.0620
#
#
#
# Elastic Compliance Matrix: (Units=1/GPa)
#
#
# Indices 1 2 3 4 5 6 
#
# 1 0.015514 -0.005896 -0.004413 0.000000 0.000000 0.000000
# 2 -0.005896 0.009006 -0.000687 0.000000 0.000000 0.000000
# 3 -0.004413 -0.000687 0.007997 0.000000 0.000000 0.000000
# 4 0.000000 0.000000 0.000000 0.019501 0.000000 0.000000
# 5 0.000000 0.000000 0.000000 0.000000 0.033365 0.000000
# 6 0.000000 0.000000 0.000000 0.000000 0.000000 -0.197550
#
#
# Mechanical properties :
#
#
# Convention : Reuss Voigt Hill
#
# Bulk Modulus (GPa) = 95.00819 97.06358 96.03588
# Shear Modulus (GPa) = -57.69239 31.39180 -13.15030
#
# Velocity S-wave (km/s) = -5.48094 4.04300 -2.61676
# Velocity P-wave (km/s) = 3.06871 8.50506 6.39347
#
# Compressibility (1/GPa) = 0.01052541
#
# Stress axis : x y z
#
# Youngs Moduli (GPa) = 64.45847 111.04101 125.04283
#
# Poissons Ratio (x) = 0.65469 0.55181
# Poissons Ratio (y) = 0.38004 0.08587
# Poissons Ratio (z) = 0.28445 0.07626
#
# Static dielectric constant tensor:
#      x y z
#    x 1.644700 0.000000 0.000000 
#    y 0.000000 1.690710 0.000000 
#    z 0.000000 0.000000 1.637690 
# 
# From -- ./inp_files/11031.got.cif
#   From: 2010.05.17/outbox.cif.g08.bks.cpg/sg74_6_cif.got.tgz:11031.got - 2010.06.03 17:57:02.
