data_PCOD9540138
_publ_section_title
;
Structure prediction by ZEFSAII (Michael W. Deem and Ramdas Pophale) SiO2 
 PCOD9540138
Probable space group: I M M A
;
_chemical_formula_sum "Si O2"
_cell_formula_units_Z 96
_cell_length_a 20.711766
_cell_length_b 15.012578
_cell_length_c 15.163342
_cell_angle_alpha 90.000000
_cell_angle_beta 90.000000
_cell_angle_gamma 90.000000
_cell_volume 4714.844111
_symmetry_space_group_name_H-M "I M M A"
_symmetry_group_IT_number 74
_symmetry_cell_setting 'orthorhombic'
loop_
_space_group_symop_operation_xyz
x,y,z
-x,1/2-y,z
x,-y,-z
-x,1/2+y,-z
-x,-y,-z
x,1/2+y,-z
-x,y,z
x,1/2-y,z
1/2+x,1/2+y,1/2+z
1/2-x,-y,1/2+z
1/2+x,1/2-y,1/2-z
1/2-x,y,1/2-z
1/2-x,1/2-y,1/2-z
1/2+x,y,1/2-z
1/2-x,1/2+y,1/2+z
1/2+x,-y,1/2+z
loop_
_atom_site_type_symbol
_atom_site_label
_atom_site_fract_x
_atom_site_fract_y
_atom_site_fract_z
Si Si1 0.922004 0.750000 0.358804
Si Si2 0.741270 0.354903 0.453314
Si Si3 0.571653 0.647918 0.810847
Si Si4 0.424573 0.750000 0.343865
Si Si5 0.387197 0.896632 0.999162
Si Si6 0.376260 0.428730 0.566788
Si Si7 0.185401 0.550609 0.789245
O O1 0.897082 0.750000 0.257018
O O2 0.899528 0.662236 0.413598
O O3 0.000000 0.750000 0.359864
O O4 0.744133 0.250000 0.467139
O O5 0.811308 0.393009 0.475525
O O6 0.688122 0.398692 0.515670
O O7 0.716957 0.376258 0.354748
O O8 0.500000 0.614099 0.784444
O O9 0.577166 0.750000 0.779707
O O10 0.576471 0.646863 0.916438
O O11 0.633138 0.593672 0.775756
O O12 0.500000 0.750000 0.329420
O O13 0.408699 0.661808 0.400287
O O14 0.407220 0.000000 0.000000
O O15 0.409966 0.500000 0.500000
O O16 0.354805 0.482595 0.652280
O O17 0.250000 0.506425 0.750000
#
# Coordination Sequence:
#
# PCOD9540138 Si02
#       7
#     8  16  16   8  16  16  16
#     4  11  26  45  65  95 135 181 227 274 332 411
#     4  11  21  41  69  96 129 171 220 277 344 408
#     4  11  24  42  63  94 136 177 226 280 338 405
#     4  11  26  47  71  98 134 183 233 275 339 417
#     4  12  24  41  66  96 133 180 225 273 338 404
#     4  10  24  45  69  98 133 170 222 285 342 406
#     4  11  23  39  67 101 134 172 226 284 340 402
#
# _framework density 20.361224
#
# number of rings (size 3 to 8) (size 9 to 14) (size 15 to 20)
#    0.000    1.000    4.167    2.500    2.333    3.000 
#    0.000    3.750    0.000    0.000    0.000    0.000 
#    0.000    0.000    0.000    0.000    0.000    0.000 
#
# Total GULP energy -267945.848938 kJ/mol
# GULP energy per Si atom -5582.205186 kJ/mol
# Density = 2.031488 g / cm^3
# Si number density = 20.361224 Si / 1000 Ang^3
#
#
#
# Elastic Constant Matrix: (Units=GPa)
#
#
# Indices 1 2 3 4 5 6 
#
# 1 84.6330 12.1467 30.4459 0.0000 0.0000 0.0000
# 2 12.1467 133.7897 43.3260 0.0000 0.0000 0.0000
# 3 30.4459 43.3260 99.8927 0.0000 0.0000 0.0000
# 4 0.0000 0.0000 0.0000 15.0931 0.0000 0.0000
# 5 0.0000 0.0000 0.0000 0.0000 27.6201 0.0000
# 6 0.0000 0.0000 0.0000 0.0000 0.0000 219.4378
#
#
#
# Elastic Compliance Matrix: (Units=1/GPa)
#
#
# Indices 1 2 3 4 5 6 
#
# 1 0.013272 0.000122 -0.004098 0.000000 0.000000 0.000000
# 2 0.000122 0.008697 -0.003809 0.000000 0.000000 0.000000
# 3 -0.004098 -0.003809 0.012912 0.000000 0.000000 0.000000
# 4 0.000000 0.000000 0.000000 0.066255 0.000000 0.000000
# 5 0.000000 0.000000 0.000000 0.000000 0.036206 0.000000
# 6 0.000000 0.000000 0.000000 0.000000 0.000000 0.004557
#
#
# Mechanical properties :
#
#
# Convention : Reuss Voigt Hill
#
# Bulk Modulus (GPa) = 51.78492 54.46139 53.12315
# Shear Modulus (GPa) = 30.50508 67.92333 49.21420
#
# Velocity S-wave (km/s) = 3.87485 5.78200 4.92169
# Velocity P-wave (km/s) = 6.74593 8.44873 7.64489
#
# Compressibility (1/GPa) = 0.01931064
#
# Stress axis : x y z
#
# Youngs Moduli (GPa) = 75.34380 114.98320 77.44719
#
# Poissons Ratio (x) = -0.01405 0.31740
# Poissons Ratio (y) = -0.00920 0.29502
# Poissons Ratio (z) = 0.30878 0.43801
#
# Static dielectric constant tensor:
#      x y z
#    x 1.718430 0.000000 0.000000 
#    y 0.000000 1.645560 0.000000 
#    z 0.000000 0.000000 1.765140 
# 
# From -- ./inp_files/35325.got.cif
#   From: 2010.05.17/outbox.cif.g08.bks.cpg/sg74_18_cif.got.tgz:35325.got - 2010.06.03 17:57:02.
