data_PCOD9540593
_publ_section_title
;
Structure prediction by ZEFSAII (Michael W. Deem and Ramdas Pophale) SiO2 
 PCOD9540593
Probable space group: I M M A
;
_chemical_formula_sum "Si O2"
_cell_formula_units_Z 56
_cell_length_a 19.207153
_cell_length_b 14.612285
_cell_length_c 8.481567
_cell_angle_alpha 90.000000
_cell_angle_beta 90.000000
_cell_angle_gamma 90.000000
_cell_volume 2380.439933
_symmetry_space_group_name_H-M "I M M A"
_symmetry_group_IT_number 74
_symmetry_cell_setting 'orthorhombic'
loop_
_space_group_symop_operation_xyz
x,y,z
-x,1/2-y,z
x,-y,-z
-x,1/2+y,-z
-x,-y,-z
x,1/2+y,-z
-x,y,z
x,1/2-y,z
1/2+x,1/2+y,1/2+z
1/2-x,-y,1/2+z
1/2+x,1/2-y,1/2-z
1/2-x,y,1/2-z
1/2-x,1/2-y,1/2-z
1/2+x,y,1/2-z
1/2-x,1/2+y,1/2+z
1/2+x,-y,1/2+z
loop_
_atom_site_type_symbol
_atom_site_label
_atom_site_fract_x
_atom_site_fract_y
_atom_site_fract_z
Si Si1 0.153892 0.847904 0.211611
Si Si2 0.644166 0.855251 0.910625
Si Si3 0.750000 0.994106 0.750000
Si Si4 0.500000 0.913993 0.752801
Si Si5 0.000000 0.117747 0.896881
O O1 0.185150 0.750000 0.161740
O O2 0.149774 0.854739 0.400774
O O3 0.199033 0.934719 0.157975
O O4 0.074778 0.847787 0.156662
O O5 0.654649 0.750000 0.856025
O O6 0.568358 0.889221 0.852390
O O7 0.699783 0.926931 0.845316
O O8 0.500000 0.865064 0.584027
O O9 0.500000 0.017254 0.685747
#
# Coordination Sequence:
#
# PCOD9540593 Si02
#       5
#    16  16   8   8   8
#     4  11  25  45  71 101 134 176 226 277 333 398
#     4  11  25  45  71 101 134 176 226 277 333 398
#     4  12  24  42  68  96 136 178 220 274 328 400
#     4  11  24  43  70 101 135 174 223 280 335 392
#     4  11  24  43  70 101 135 174 223 280 335 392
#
# _framework density 23.525062999999999
#
# number of rings (size 3 to 8) (size 9 to 14) (size 15 to 20)
#    0.000    0.857    2.857    3.429    0.000   10.286 
#    0.000    0.000    0.000    0.000    0.000    0.000 
#    0.000    0.000    0.000    0.000    0.000    0.000 
#
# Total GULP energy -156632.855274 kJ/mol
# GULP energy per Si atom -5594.030546 kJ/mol
# Density = 2.347152 g / cm^3
# Si number density = 23.525063 Si / 1000 Ang^3
#
#
#
# Elastic Constant Matrix: (Units=GPa)
#
#
# Indices 1 2 3 4 5 6 
#
# 1 195.0543 70.2270 43.7657 0.0000 0.0000 0.0000
# 2 70.2270 158.6966 35.2301 0.0000 0.0000 0.0000
# 3 43.7657 35.2301 58.0520 0.0000 0.0000 0.0000
# 4 0.0000 0.0000 0.0000 23.3357 0.0000 0.0000
# 5 0.0000 0.0000 0.0000 0.0000 27.4018 0.0000
# 6 0.0000 0.0000 0.0000 0.0000 0.0000 162.4773
#
#
#
# Elastic Compliance Matrix: (Units=1/GPa)
#
#
# Indices 1 2 3 4 5 6 
#
# 1 0.006749 -0.002146 -0.003786 0.000000 0.000000 0.000000
# 2 -0.002146 0.007965 -0.003216 0.000000 0.000000 0.000000
# 3 -0.003786 -0.003216 0.022031 0.000000 0.000000 0.000000
# 4 0.000000 0.000000 0.000000 0.042853 0.000000 0.000000
# 5 0.000000 0.000000 0.000000 0.000000 0.036494 0.000000
# 6 0.000000 0.000000 0.000000 0.000000 0.000000 0.006155
#
#
# Mechanical properties :
#
#
# Convention : Reuss Voigt Hill
#
# Bulk Modulus (GPa) = 54.19942 78.91651 66.55797
# Shear Modulus (GPa) = 34.08510 60.14830 47.11670
#
# Velocity S-wave (km/s) = 3.81055 5.06194 4.48015
# Velocity P-wave (km/s) = 6.51532 8.23304 7.42403
#
# Compressibility (1/GPa) = 0.01845038
#
# Stress axis : x y z
#
# Youngs Moduli (GPa) = 148.17303 125.55038 45.38971
#
# Poissons Ratio (x) = 0.26945 0.17183
# Poissons Ratio (y) = 0.31800 0.14596
# Poissons Ratio (z) = 0.56092 0.40373
#
# Static dielectric constant tensor:
#      x y z
#    x 1.854080 0.000000 0.000000 
#    y 0.000000 1.964390 0.000000 
#    z 0.000000 0.000000 1.849800 
# 
# From -- ./inp_files/11665.got.cif
#   From: 2010.05.17/outbox.cif.g08.bks.cpg/sg74_6_cif.got.tgz:11665.got - 2010.06.03 17:57:02.
