data_PCOD9540555
_publ_section_title
;
Structure prediction by ZEFSAII (Michael W. Deem and Ramdas Pophale) SiO2 
 PCOD9540555
Probable space group: I M M A
;
_chemical_formula_sum "Si O2"
_cell_formula_units_Z 64
_cell_length_a 10.348149
_cell_length_b 16.558581
_cell_length_c 19.044269
_cell_angle_alpha 90.000000
_cell_angle_beta 90.000000
_cell_angle_gamma 90.000000
_cell_volume 3263.248127
_symmetry_space_group_name_H-M "I M M A"
_symmetry_group_IT_number 74
_symmetry_cell_setting 'orthorhombic'
loop_
_space_group_symop_operation_xyz
x,y,z
-x,1/2-y,z
x,-y,-z
-x,1/2+y,-z
-x,-y,-z
x,1/2+y,-z
-x,y,z
x,1/2-y,z
1/2+x,1/2+y,1/2+z
1/2-x,-y,1/2+z
1/2+x,1/2-y,1/2-z
1/2-x,y,1/2-z
1/2-x,1/2-y,1/2-z
1/2+x,y,1/2-z
1/2-x,1/2+y,1/2+z
1/2+x,-y,1/2+z
loop_
_atom_site_type_symbol
_atom_site_label
_atom_site_fract_x
_atom_site_fract_y
_atom_site_fract_z
Si Si1 0.000000 0.653656 0.384961
Si Si2 0.250000 0.463460 0.250000
Si Si3 0.654747 0.157664 0.132336
Si Si4 0.500000 0.153629 0.582055
Si Si5 0.500000 0.575480 0.266406
Si Si6 0.768504 0.405657 0.518369
O O1 0.874670 0.617057 0.423378
O O2 0.000000 0.750000 0.393370
O O3 0.000000 0.628948 0.303816
O O4 0.279215 0.406150 0.183775
O O5 0.373599 0.519082 0.264765
O O6 0.500000 0.146631 0.136135
O O7 0.684822 0.250000 0.152545
O O8 0.698127 0.142222 0.052707
O O9 0.500000 0.250000 0.574989
O O10 0.500000 0.128414 0.663516
O O11 0.372236 0.117669 0.546142
O O12 0.776353 0.500000 0.500000
#
# Coordination Sequence:
#
# PCOD9540555 Si02
#       6
#     8   8  16   8   8  16
#     4  12  24  43  71 102 132 178 230 270 327 399
#     4  12  25  44  67  98 130 174 222 268 335 396
#     4  11  23  43  68  97 132 171 218 274 331 396
#     4  12  26  45  65  98 140 176 218 278 339 391
#     4  12  25  44  67  96 136 176 222 274 327 394
#     4  12  25  43  71 101 134 176 226 275 332 394
#
# _framework density 19.612361
#
# number of rings (size 3 to 8) (size 9 to 14) (size 15 to 20)
#    0.000    0.250    2.500    8.250    0.000    1.000 
#    0.000    5.000    0.000    0.000    0.000    0.000 
#    0.000    0.000    0.000    0.000    0.000    0.000 
#
# Total GULP energy -179270.467590 kJ/mol
# GULP energy per Si atom -5602.202112 kJ/mol
# Density = 1.956772 g / cm^3
# Si number density = 19.612361 Si / 1000 Ang^3
#
#
#
# Elastic Constant Matrix: (Units=GPa)
#
#
# Indices 1 2 3 4 5 6 
#
# 1 142.7442 71.0236 21.0432 0.0000 0.0000 0.0000
# 2 71.0236 157.7320 40.2446 0.0000 0.0000 0.0000
# 3 21.0432 40.2446 85.8961 0.0000 0.0000 0.0000
# 4 0.0000 0.0000 0.0000 28.6006 0.0000 0.0000
# 5 0.0000 0.0000 0.0000 0.0000 46.1337 0.0000
# 6 0.0000 0.0000 0.0000 0.0000 0.0000 4.8929
#
#
#
# Elastic Compliance Matrix: (Units=1/GPa)
#
#
# Indices 1 2 3 4 5 6 
#
# 1 0.009037 -0.003980 -0.000349 0.000000 0.000000 0.000000
# 2 -0.003980 0.008954 -0.003220 0.000000 0.000000 0.000000
# 3 -0.000349 -0.003220 0.013236 0.000000 0.000000 0.000000
# 4 0.000000 0.000000 0.000000 0.034964 0.000000 0.000000
# 5 0.000000 0.000000 0.000000 0.000000 0.021676 0.000000
# 6 0.000000 0.000000 0.000000 0.000000 0.000000 0.204377
#
#
# Mechanical properties :
#
#
# Convention : Reuss Voigt Hill
#
# Bulk Modulus (GPa) = 62.00208 72.33276 67.16742
# Shear Modulus (GPa) = 15.98875 32.86284 24.42580
#
# Velocity S-wave (km/s) = 2.85834 4.09787 3.53289
# Velocity P-wave (km/s) = 6.52502 7.70398 7.13888
#
# Compressibility (1/GPa) = 0.01612849
#
# Stress axis : x y z
#
# Youngs Moduli (GPa) = 110.65078 111.68613 75.55082
#
# Poissons Ratio (x) = 0.44454 0.02638
# Poissons Ratio (y) = 0.44042 0.24327
# Poissons Ratio (z) = 0.03863 0.35962
#
# Static dielectric constant tensor:
#      x y z
#    x 1.646130 0.000000 0.000000 
#    y 0.000000 1.670300 0.000000 
#    z 0.000000 0.000000 1.658700 
# 
# From -- ./inp_files/40747.got.cif
#   From: 2010.05.17/outbox.cif.g08.bks.cpg/sg74_21_cif.got.tgz:40747.got - 2010.06.03 17:57:02.
