data_PCOD9540535
_publ_section_title
;
Structure prediction by ZEFSAII (Michael W. Deem and Ramdas Pophale) SiO2 
 PCOD9540535
Probable space group: I M M A
;
_chemical_formula_sum "Si O2"
_cell_formula_units_Z 56
_cell_length_a 17.016871
_cell_length_b 8.772401
_cell_length_c 18.999030
_cell_angle_alpha 90.000000
_cell_angle_beta 90.000000
_cell_angle_gamma 90.000000
_cell_volume 2836.152707
_symmetry_space_group_name_H-M "I M M A"
_symmetry_group_IT_number 74
_symmetry_cell_setting 'orthorhombic'
loop_
_space_group_symop_operation_xyz
x,y,z
-x,1/2-y,z
x,-y,-z
-x,1/2+y,-z
-x,-y,-z
x,1/2+y,-z
-x,y,z
x,1/2-y,z
1/2+x,1/2+y,1/2+z
1/2-x,-y,1/2+z
1/2+x,1/2-y,1/2-z
1/2-x,y,1/2-z
1/2-x,1/2-y,1/2-z
1/2+x,y,1/2-z
1/2-x,1/2+y,1/2+z
1/2+x,-y,1/2+z
loop_
_atom_site_type_symbol
_atom_site_label
_atom_site_fract_x
_atom_site_fract_y
_atom_site_fract_z
Si Si1 0.351211 0.432448 0.659674
Si Si2 0.500000 0.432295 0.421950
Si Si3 0.689904 0.932602 0.078105
Si Si4 0.908145 0.932173 0.699019
O O1 0.360218 0.250000 0.659862
O O2 0.423232 0.508384 0.618314
O O3 0.270536 0.469837 0.619727
O O4 0.356792 0.492792 0.739160
O O5 0.500000 0.250000 0.423771
O O6 0.500000 0.500000 0.500000
O O7 0.682496 0.750000 0.075112
O O8 0.620499 0.003708 0.124595
O O9 0.692297 0.000000 0.000000
O O10 0.899358 0.750000 0.701186
O O11 0.000000 0.968613 0.711478
#
# Coordination Sequence:
#
# PCOD9540535 Si02
#       4
#    16   8  16  16
#     4  11  23  41  65  94 128 166 211 262 317 379
#     4  12  24  38  60  92 129 170 211 256 316 378
#     4  11  25  43  65  94 127 168 214 264 322 379
#     4  11  24  42  66  96 128 168 214 261 317 381
#
# _framework density 19.745056999999999
#
# number of rings (size 3 to 8) (size 9 to 14) (size 15 to 20)
#    0.000    0.857    1.429    5.571    0.000   12.571 
#    0.000    0.000    0.000    0.000    0.000    0.000 
#    0.000    0.000    0.000    0.000    0.000    0.000 
#
# Total GULP energy -156745.612310 kJ/mol
# GULP energy per Si atom -5598.057583 kJ/mol
# Density = 1.970012 g / cm^3
# Si number density = 19.745057 Si / 1000 Ang^3
#
#
#
# Elastic Constant Matrix: (Units=GPa)
#
#
# Indices 1 2 3 4 5 6 
#
# 1 42.7995 32.1393 41.3139 0.0000 0.0000 0.0000
# 2 32.1393 67.9286 47.9539 0.0000 0.0000 0.0000
# 3 41.3139 47.9539 163.1102 0.0000 0.0000 0.0000
# 4 0.0000 0.0000 0.0000 44.0455 0.0000 0.0000
# 5 0.0000 0.0000 0.0000 0.0000 19.9922 0.0000
# 6 0.0000 0.0000 0.0000 0.0000 0.0000 14.5022
#
#
#
# Elastic Compliance Matrix: (Units=1/GPa)
#
#
# Indices 1 2 3 4 5 6 
#
# 1 0.040145 -0.014910 -0.005785 0.000000 0.000000 0.000000
# 2 -0.014910 0.024115 -0.003313 0.000000 0.000000 0.000000
# 3 -0.005785 -0.003313 0.008570 0.000000 0.000000 0.000000
# 4 0.000000 0.000000 0.000000 0.022704 0.000000 0.000000
# 5 0.000000 0.000000 0.000000 0.000000 0.050019 0.000000
# 6 0.000000 0.000000 0.000000 0.000000 0.000000 0.068955
#
#
# Mechanical properties :
#
#
# Convention : Reuss Voigt Hill
#
# Bulk Modulus (GPa) = 40.30017 57.40584 48.85301
# Shear Modulus (GPa) = 18.46409 25.87008 22.16708
#
# Velocity S-wave (km/s) = 3.06130 3.62360 3.35425
# Velocity P-wave (km/s) = 5.74021 6.82964 6.30848
#
# Compressibility (1/GPa) = 0.02481379
#
# Stress axis : x y z
#
# Youngs Moduli (GPa) = 24.90955 41.46835 116.68552
#
# Poissons Ratio (x) = 0.61831 0.67499
# Poissons Ratio (y) = 0.37141 0.38658
# Poissons Ratio (z) = 0.14409 0.13739
#
# Static dielectric constant tensor:
#      x y z
#    x 1.678260 0.000000 0.000000 
#    y 0.000000 1.653030 0.000000 
#    z 0.000000 0.000000 1.603820 
# 
# From -- ./inp_files/38846.got.cif
#   From: 2010.05.17/outbox.cif.g08.bks.cpg/sg74_20_cif.got.tgz:38846.got - 2010.06.03 17:57:02.
