data_PCOD9540834
_publ_section_title
;
Structure prediction by ZEFSAII (Michael W. Deem and Ramdas Pophale) SiO2 
 PCOD9540834
Probable space group: I M M A
;
_chemical_formula_sum "Si O2"
_cell_formula_units_Z 40
_cell_length_a 9.000000
_cell_length_b 18.000000
_cell_length_c 27.000000
_cell_angle_alpha 90.000000
_cell_angle_beta 90.000000
_cell_angle_gamma 90.000000
_cell_volume 4374.000000
_symmetry_space_group_name_H-M "I M M A"
_symmetry_group_IT_number 74
_symmetry_cell_setting 'orthorhombic'
loop_
_space_group_symop_operation_xyz
x,y,z
-x,1/2-y,z
x,-y,-z
-x,1/2+y,-z
-x,-y,-z
x,1/2+y,-z
-x,y,z
x,1/2-y,z
1/2+x,1/2+y,1/2+z
1/2-x,-y,1/2+z
1/2+x,1/2-y,1/2-z
1/2-x,y,1/2-z
1/2-x,1/2-y,1/2-z
1/2+x,y,1/2-z
1/2-x,1/2+y,1/2+z
1/2+x,-y,1/2+z
loop_
_atom_site_type_symbol
_atom_site_label
_atom_site_fract_x
_atom_site_fract_y
_atom_site_fract_z
Si Si1 0.680096 0.572476 0.801098
Si Si2 0.181038 0.085772 0.500660
Si Si3 0.319251 0.664908 0.899379
Si Si4 0.178511 0.908413 0.198860
Si Si5 0.174096 0.161580 0.603668
O O1 0.500000 0.567499 0.797139
O O2 0.750000 0.603388 0.750000
O O3 0.719287 0.619992 0.849713
O O4 0.751294 0.490789 0.806787
O O5 0.231472 0.126672 0.450520
O O6 0.225069 0.124142 0.552227
O O7 0.000000 0.087877 0.500034
O O8 0.226899 0.000000 0.500000
O O9 0.500000 0.665316 0.901012
O O10 0.268840 0.750000 0.896916
O O11 0.250000 0.877977 0.250000
O O12 0.230790 0.863415 0.150772
O O13 0.000000 0.911618 0.202922
O O14 0.179562 0.250000 0.597830
O O15 0.000000 0.140184 0.611973
#
# Coordination Sequence:
#
# PCOD9540834 Si02
#       5
#    16  16  16  16  16
#     4  10  19  33  54  78 106 139 178 221 263 310
#     4   9  16  28  50  79 108 138 175 218 260 305
#     4   9  17  29  48  77 110 141 175 218 265 311
#     4  11  22  37  57  78 104 138 177 219 262 311
#     4  10  20  34  54  81 111 140 172 214 264 314
#
# _framework density 9.1449470000000002
#
# number of rings (size 3 to 8) (size 9 to 14) (size 15 to 20)
#    0.000    2.200    0.000    5.400    0.000    6.800 
#    0.000    0.000    0.000    8.400    0.000    0.000 
#    0.000    0.000    0.000    0.000    0.000    0.000 
#
# Total GULP energy -223224.847031 kJ/mol
# GULP energy per Si atom -5580.621176 kJ/mol
# Density = 0.912413 g / cm^3
# Si number density = 9.144947 Si / 1000 Ang^3
#
#
#
# Elastic Constant Matrix: (Units=GPa)
#
#
# Indices 1 2 3 4 5 6 
#
# 1 74.7081 26.9825 50.2318 0.0000 0.0000 0.0000
# 2 26.9825 80.6162 75.5088 0.0000 0.0000 0.0000
# 3 50.2318 75.5088 195.3180 0.0000 0.0000 0.0000
# 4 0.0000 0.0000 0.0000 -4.3122 0.0000 0.0000
# 5 0.0000 0.0000 0.0000 0.0000 25.4595 0.0000
# 6 0.0000 0.0000 0.0000 0.0000 0.0000 12.0953
#
#
#
# Elastic Compliance Matrix: (Units=1/GPa)
#
#
# Indices 1 2 3 4 5 6 
#
# 1 0.016481 -0.002424 -0.003301 0.000000 0.000000 0.000000
# 2 -0.002424 0.019802 -0.007032 0.000000 0.000000 0.000000
# 3 -0.003301 -0.007032 0.008687 0.000000 0.000000 0.000000
# 4 0.000000 0.000000 0.000000 -0.231899 0.000000 0.000000
# 5 0.000000 0.000000 0.000000 0.000000 0.039278 0.000000
# 6 0.000000 0.000000 0.000000 0.000000 0.000000 0.082677
#
#
# Mechanical properties :
#
#
# Convention : Reuss Voigt Hill
#
# Bulk Modulus (GPa) = 51.39887 72.89873 62.14880
# Shear Modulus (GPa) = -151.63489 19.84313 -65.89588
#
# Velocity S-wave (km/s) = -9.11517 3.29739 -6.00889
# Velocity P-wave (km/s) = 9.08947 7.37841 3.75350
#
# Compressibility (1/GPa) = 0.01945568
#
# Stress axis : x y z
#
# Youngs Moduli (GPa) = 60.67722 50.49921 115.10807
#
# Poissons Ratio (x) = 0.12240 0.38002
# Poissons Ratio (y) = 0.14707 0.80945
# Poissons Ratio (z) = 0.20032 0.35512
#
# Static dielectric constant tensor:
#      x y z
#    x 1.618720 0.000000 0.000000 
#    y 0.000000 1.624330 0.000000 
#    z 0.000000 0.000000 1.627090 
# 
# From -- ./inp_files/63977.got.cif
#   From: 2010.05.17/outbox.ucp.g08.bks.cvg/sg74_32_cif.got.tgz:63977.got - 2010.06.11 16:37:44.
