data_PCOD9540984
_publ_section_title
;
Structure prediction by ZEFSAII (Michael W. Deem and Ramdas Pophale) SiO2 
 PCOD9540984
Probable space group: I M M A
;
_chemical_formula_sum "Si O2"
_cell_formula_units_Z 46
_cell_length_a 24.000000
_cell_length_b 18.000000
_cell_length_c 12.000000
_cell_angle_alpha 90.000000
_cell_angle_beta 90.000000
_cell_angle_gamma 90.000000
_cell_volume 5184.000000
_symmetry_space_group_name_H-M "I M M A"
_symmetry_group_IT_number 74
_symmetry_cell_setting 'orthorhombic'
loop_
_space_group_symop_operation_xyz
x,y,z
-x,1/2-y,z
x,-y,-z
-x,1/2+y,-z
-x,-y,-z
x,1/2+y,-z
-x,y,z
x,1/2-y,z
1/2+x,1/2+y,1/2+z
1/2-x,-y,1/2+z
1/2+x,1/2-y,1/2-z
1/2-x,y,1/2-z
1/2-x,1/2-y,1/2-z
1/2+x,y,1/2-z
1/2-x,1/2+y,1/2+z
1/2+x,-y,1/2+z
loop_
_atom_site_type_symbol
_atom_site_label
_atom_site_fract_x
_atom_site_fract_y
_atom_site_fract_z
Si Si1 0.791233 0.910013 0.521577
Si Si2 0.500000 0.250000 0.943467
Si Si3 0.912758 0.117131 0.525168
Si Si4 0.250000 0.060196 0.250000
Si Si5 0.350798 0.979132 0.369908
Si Si6 0.292598 0.162911 0.645801
Si Si7 0.063557 0.521919 0.686655
O O1 0.846434 0.872642 0.472293
O O2 0.784044 0.898040 0.653770
O O3 0.739596 0.872923 0.459217
O O4 0.796025 0.000000 0.500000
O O5 0.451290 0.314474 0.947238
O O6 0.926755 0.050666 0.610171
O O7 0.924351 0.088593 0.399167
O O8 0.293049 0.011127 0.320600
O O9 0.346092 0.890886 0.345293
O O10 0.397612 0.016074 0.293640
O O11 0.356148 0.000000 0.500000
O O12 0.305117 0.250000 0.632112
O O13 0.250000 0.155565 0.750000
O O14 0.000000 0.525545 0.721926
#
# Coordination Sequence:
#
# PCOD9540984 Si02
#       7
#    16   4  16   8  16  16  16
#     4  12  20  35  63  89 122 158 207 245 301 366
#     4  12  24  38  60  94 136 158 204 244 342 360
#     4  11  21  37  61  93 121 159 197 264 305 369
#     4  12  18  36  64  90 116 154 210 254 298 348
#     4  12  22  38  65  87 119 167 211 258 302 373
#     4  11  22  36  54  90 129 156 190 247 317 376
#     4  11  21  40  62  87 118 159 220 261 301 347
#
# _framework density 8.8734570000000001
#
# number of rings (size 3 to 8) (size 9 to 14) (size 15 to 20)
#    0.000    0.522    9.565    1.565    1.217    0.348 
#    1.565    0.435    5.739    0.000    0.000    1.217 
#    0.000    0.000    0.000    0.000    0.000    0.000 
#
# Total GULP energy -256172.531380 kJ/mol
# GULP energy per Si atom -5568.968073 kJ/mol
# Density = 0.885326 g / cm^3
# Si number density = 8.873457 Si / 1000 Ang^3
#
#
#
# Elastic Constant Matrix: (Units=GPa)
#
#
# Indices 1 2 3 4 5 6 
#
# 1 60.9420 -25.3720 -0.6741 0.0000 0.0000 0.0000
# 2 -25.3720 32.2916 -5.3611 0.0000 0.0000 0.0000
# 3 -0.6741 -5.3611 91.1571 0.0000 0.0000 0.0000
# 4 0.0000 0.0000 0.0000 8.9065 0.0000 0.0000
# 5 0.0000 0.0000 0.0000 0.0000 15.6399 0.0000
# 6 0.0000 0.0000 0.0000 0.0000 0.0000 29.1925
#
#
#
# Elastic Compliance Matrix: (Units=1/GPa)
#
#
# Indices 1 2 3 4 5 6 
#
# 1 0.024544 0.019506 0.001329 0.000000 0.000000 0.000000
# 2 0.019506 0.046774 0.002895 0.000000 0.000000 0.000000
# 3 0.001329 0.002895 0.011150 0.000000 0.000000 0.000000
# 4 0.000000 0.000000 0.000000 0.112278 0.000000 0.000000
# 5 0.000000 0.000000 0.000000 0.000000 0.063939 0.000000
# 6 0.000000 0.000000 0.000000 0.000000 0.000000 0.034255
#
#
# Mechanical properties :
#
#
# Convention : Reuss Voigt Hill
#
# Bulk Modulus (GPa) = 7.69661 13.50849 10.60255
# Shear Modulus (GPa) = 17.31352 25.13431 21.22392
#
# Velocity S-wave (km/s) = 3.12681 3.76741 3.46196
# Velocity P-wave (km/s) = 4.16920 5.15294 4.68695
#
# Compressibility (1/GPa) = 0.12992732
#
# Stress axis : x y z
#
# Youngs Moduli (GPa) = 40.74239 21.37933 89.68475
#
# Poissons Ratio (x) = -0.41701 -0.11916
# Poissons Ratio (y) = -0.79470 -0.25965
# Poissons Ratio (z) = -0.05413 -0.06190
#
# Static dielectric constant tensor:
#      x y z
#    x 1.658000 0.000000 0.000000 
#    y 0.000000 1.622510 0.000000 
#    z 0.000000 0.000000 1.608980 
# 
# From -- ./inp_files/22723.got.cif
#   From: 2010.05.17/outbox.ucp.g08.bks.cvg/sg74_12_cif.got.tgz:22723.got - 2010.06.11 16:37:44.
