data_PCOD9540201
_publ_section_title
;
Structure prediction by ZEFSAII (Michael W. Deem and Ramdas Pophale) SiO2 
 PCOD9540201
Probable space group: I M M A
;
_chemical_formula_sum "Si O2"
_cell_formula_units_Z 68
_cell_length_a 14.694181
_cell_length_b 24.290140
_cell_length_c 7.298856
_cell_angle_alpha 90.000000
_cell_angle_beta 90.000000
_cell_angle_gamma 90.000000
_cell_volume 2605.134789
_symmetry_space_group_name_H-M "I M M A"
_symmetry_group_IT_number 74
_symmetry_cell_setting 'orthorhombic'
loop_
_space_group_symop_operation_xyz
x,y,z
-x,1/2-y,z
x,-y,-z
-x,1/2+y,-z
-x,-y,-z
x,1/2+y,-z
-x,y,z
x,1/2-y,z
1/2+x,1/2+y,1/2+z
1/2-x,-y,1/2+z
1/2+x,1/2-y,1/2-z
1/2-x,y,1/2-z
1/2-x,1/2-y,1/2-z
1/2+x,y,1/2-z
1/2-x,1/2+y,1/2+z
1/2+x,-y,1/2+z
loop_
_atom_site_type_symbol
_atom_site_label
_atom_site_fract_x
_atom_site_fract_y
_atom_site_fract_z
Si Si1 0.187192 0.552879 0.585253
Si Si2 0.500000 0.989573 0.749127
Si Si3 0.500000 0.250000 0.871127
Si Si4 0.345311 0.329853 0.009637
Si Si5 0.500000 0.598470 0.420840
Si Si6 0.135856 0.688793 0.945452
O O1 0.237577 0.500000 0.500000
O O2 0.250000 0.574428 0.750000
O O3 0.093759 0.528882 0.660459
O O4 0.163438 0.605640 0.465796
O O5 0.500000 0.056199 0.746747
O O6 0.500000 0.949586 0.573052
O O7 0.419433 0.297550 0.894100
O O8 0.241450 0.309834 0.000716
O O9 0.373146 0.320884 0.225132
O O10 0.415329 0.638764 0.457443
O O11 0.097913 0.750000 0.986861
#
# Coordination Sequence:
#
# PCOD9540201 Si02
#       6
#    16   8   4  16   8  16
#     4  12  26  43  69 100 139 180 225 280 338 404
#     4  11  24  42  60  94 136 178 228 265 338 400
#     4  12  20  32  58  92 130 180 190 280 344 392
#     4  11  20  34  56  92 135 159 218 269 344 384
#     4  11  22  35  66  91 132 176 220 277 330 400
#     4  11  19  34  55  95 128 164 213 289 329 386
#
# _framework density 26.102298000000001
#
# number of rings (size 3 to 8) (size 9 to 14) (size 15 to 20)
#    0.000    0.706    7.059    2.824    6.588    0.000 
#    0.000    0.000    0.000    0.000   12.235    2.471 
#    0.000    0.000    0.000    0.000    0.000    0.000 
#
# Total GULP energy -189944.405495 kJ/mol
# GULP energy per Si atom -5586.600162 kJ/mol
# Density = 2.604289 g / cm^3
# Si number density = 26.102298 Si / 1000 Ang^3
#
#
#
# Elastic Constant Matrix: (Units=GPa)
#
#
# Indices 1 2 3 4 5 6 
#
# 1 150.0759 47.6156 19.4182 0.0018 -0.0003 0.0008
# 2 47.6156 272.5707 22.4481 0.0004 0.0001 0.0000
# 3 19.4182 22.4481 46.8222 -0.0053 -0.0002 -0.0029
# 4 0.0018 0.0004 -0.0053 36.3370 0.0004 -0.0013
# 5 -0.0003 0.0001 -0.0002 0.0004 30.0765 -0.0001
# 6 0.0008 0.0000 -0.0029 -0.0013 -0.0001 60.2097
#
#
#
# Elastic Compliance Matrix: (Units=1/GPa)
#
#
# Indices 1 2 3 4 5 6 
#
# 1 0.007330 -0.001073 -0.002526 -0.000001 0.000000 0.000000
# 2 -0.001073 0.003977 -0.001462 0.000000 0.000000 0.000000
# 3 -0.002526 -0.001462 0.023106 0.000004 0.000000 0.000001
# 4 -0.000001 0.000000 0.000004 0.027520 0.000000 0.000001
# 5 0.000000 0.000000 0.000000 0.000000 0.033248 0.000000
# 6 0.000000 0.000000 0.000001 0.000001 0.000000 0.016609
#
#
# Mechanical properties :
#
#
# Convention : Reuss Voigt Hill
#
# Bulk Modulus (GPa) = 41.16501 72.04807 56.60654
# Shear Modulus (GPa) = 38.45931 50.65710 44.55821
#
# Velocity S-wave (km/s) = 3.84266 4.41013 4.13614
# Velocity P-wave (km/s) = 5.95760 7.32083 6.67411
#
# Compressibility (1/GPa) = 0.02429247
#
# Stress axis : x y z
#
# Youngs Moduli (GPa) = 136.41814 251.47661 43.27937
#
# Poissons Ratio (x) = 0.26972 0.10932
# Poissons Ratio (y) = 0.14631 0.06326
# Poissons Ratio (z) = 0.34457 0.36758
#
# Static dielectric constant tensor:
#      x y z
#    x 1.951960 0.000000 0.000000 
#    y 0.000000 2.066090 0.000000 
#    z 0.000000 0.000000 2.714550 
# 
# From -- ./inp_files/14647.got.cif
#   From: 2010.05.17/outbox.cif.g08.bks.cpg/sg74_8_cif.got.tgz:14647.got - 2010.06.03 17:57:02.
