data_PCOD9540780
_publ_section_title
;
Structure prediction by ZEFSAII (Michael W. Deem and Ramdas Pophale) SiO2 
 PCOD9540780
Probable space group: I M M A
;
_chemical_formula_sum "Si O2"
_cell_formula_units_Z 96
_cell_length_a 23.822206
_cell_length_b 7.696194
_cell_length_c 27.309817
_cell_angle_alpha 90.000000
_cell_angle_beta 90.000000
_cell_angle_gamma 90.000000
_cell_volume 5006.990557
_symmetry_space_group_name_H-M "I M M A"
_symmetry_group_IT_number 74
_symmetry_cell_setting 'orthorhombic'
loop_
_space_group_symop_operation_xyz
x,y,z
-x,1/2-y,z
x,-y,-z
-x,1/2+y,-z
-x,-y,-z
x,1/2+y,-z
-x,y,z
x,1/2-y,z
1/2+x,1/2+y,1/2+z
1/2-x,-y,1/2+z
1/2+x,1/2-y,1/2-z
1/2-x,y,1/2-z
1/2-x,1/2-y,1/2-z
1/2+x,y,1/2-z
1/2-x,1/2+y,1/2+z
1/2+x,-y,1/2+z
loop_
_atom_site_type_symbol
_atom_site_label
_atom_site_fract_x
_atom_site_fract_y
_atom_site_fract_z
Si Si1 0.768232 0.540386 0.443247
Si Si2 0.117651 0.457910 0.774800
Si Si3 0.000000 0.463238 0.736418
Si Si4 0.894321 0.958905 0.442602
Si Si5 0.790083 0.943523 0.702529
Si Si6 0.000000 0.462863 0.622355
Si Si7 0.194714 0.054258 0.861819
O O1 0.761365 0.500000 0.500000
O O2 0.768051 0.750000 0.437263
O O3 0.831329 0.477566 0.429592
O O4 0.715744 0.469453 0.411938
O O5 0.116813 0.250000 0.780582
O O6 0.055346 0.521824 0.765098
O O7 0.152051 0.493026 0.724967
O O8 0.151416 0.526915 0.822544
O O9 0.000000 0.516312 0.679309
O O10 0.000000 0.250000 0.736211
O O11 0.893130 0.750000 0.438600
O O12 0.944328 0.020547 0.407294
O O13 0.905073 0.000000 0.500000
O O14 0.795414 0.750000 0.682108
O O15 0.750000 0.935728 0.750000
O O16 0.754929 0.060325 0.666022
O O17 0.000000 0.250000 0.621987
O O18 0.174533 0.250000 0.871756
#
# Coordination Sequence:
#
# PCOD9540780 Si02
#       7
#    16  16   8  16  16   8  16
#     4   9  18  30  45  66  91 115 143 184 229 272
#     4   9  17  30  47  67  89 117 154 190 226 270
#     4   9  18  29  46  68  91 117 151 193 228 267
#     4   9  17  29  44  60  81 110 146 183 219 259
#     4   9  17  28  43  65  91 118 149 184 223 269
#     4   9  17  27  42  62  82 113 149 181 218 257
#     4   9  17  29  47  68  90 118 150 186 228 274
#
# _framework density 19.173193000000001
#
# number of rings (size 3 to 8) (size 9 to 14) (size 15 to 20)
#    0.000    3.000    0.000    0.750    2.333    2.667 
#    0.000    0.417    0.000    1.000    0.000    0.583 
#    0.000    0.000    0.000    0.000    0.000    0.000 
#
# Total GULP energy -267306.633415 kJ/mol
# GULP energy per Si atom -5568.888196 kJ/mol
# Density = 1.912955 g / cm^3
# Si number density = 19.173193 Si / 1000 Ang^3
#
#
#
# Elastic Constant Matrix: (Units=GPa)
#
#
# Indices 1 2 3 4 5 6 
#
# 1 131.8413 4.9473 61.7244 0.0000 0.0000 0.0000
# 2 4.9473 37.4459 8.2041 0.0000 0.0000 0.0000
# 3 61.7244 8.2041 87.3322 0.0000 0.0000 0.0000
# 4 0.0000 0.0000 0.0000 14.0801 0.0000 0.0000
# 5 0.0000 0.0000 0.0000 0.0000 26.4078 0.0000
# 6 0.0000 0.0000 0.0000 0.0000 0.0000 14.1630
#
#
#
# Elastic Compliance Matrix: (Units=1/GPa)
#
#
# Indices 1 2 3 4 5 6 
#
# 1 0.011338 0.000263 -0.008038 0.000000 0.000000 0.000000
# 2 0.000263 0.027273 -0.002748 0.000000 0.000000 0.000000
# 3 -0.008038 -0.002748 0.017390 0.000000 0.000000 0.000000
# 4 0.000000 0.000000 0.000000 0.071022 0.000000 0.000000
# 5 0.000000 0.000000 0.000000 0.000000 0.037868 0.000000
# 6 0.000000 0.000000 0.000000 0.000000 0.000000 0.070606
#
#
# Mechanical properties :
#
#
# Convention : Reuss Voigt Hill
#
# Bulk Modulus (GPa) = 28.60870 45.15233 36.88052
# Shear Modulus (GPa) = 18.64313 23.04642 20.84478
#
# Velocity S-wave (km/s) = 3.12164 3.47077 3.30082
# Velocity P-wave (km/s) = 5.28644 6.29781 5.81416
#
# Compressibility (1/GPa) = 0.03495440
#
# Stress axis : x y z
#
# Youngs Moduli (GPa) = 88.19615 36.66694 57.50415
#
# Poissons Ratio (x) = -0.00965 0.46224
# Poissons Ratio (y) = -0.02321 0.15802
# Poissons Ratio (z) = 0.70896 0.10076
#
# Static dielectric constant tensor:
#      x y z
#    x 1.685050 0.000000 0.000000 
#    y 0.000000 1.743230 0.000000 
#    z 0.000000 0.000000 1.703020 
# 
# From -- ./inp_files/68603.got.cif
#   From: 2010.05.17/outbox.cif.g08.bks.cpg/sg74_35_cif.got.tgz:68603.got - 2010.06.03 17:57:02.
