data_PCOD9540639
_publ_section_title
;
Structure prediction by ZEFSAII (Michael W. Deem and Ramdas Pophale) SiO2 
 PCOD9540639
Probable space group: I M M A
;
_chemical_formula_sum "Si O2"
_cell_formula_units_Z 68
_cell_length_a 14.764860
_cell_length_b 12.530162
_cell_length_c 19.764673
_cell_angle_alpha 90.000000
_cell_angle_beta 90.000000
_cell_angle_gamma 90.000000
_cell_volume 3656.584827
_symmetry_space_group_name_H-M "I M M A"
_symmetry_group_IT_number 74
_symmetry_cell_setting 'orthorhombic'
loop_
_space_group_symop_operation_xyz
x,y,z
-x,1/2-y,z
x,-y,-z
-x,1/2+y,-z
-x,-y,-z
x,1/2+y,-z
-x,y,z
x,1/2-y,z
1/2+x,1/2+y,1/2+z
1/2-x,-y,1/2+z
1/2+x,1/2-y,1/2-z
1/2-x,y,1/2-z
1/2-x,1/2-y,1/2-z
1/2+x,y,1/2-z
1/2-x,1/2+y,1/2+z
1/2+x,-y,1/2+z
loop_
_atom_site_type_symbol
_atom_site_label
_atom_site_fract_x
_atom_site_fract_y
_atom_site_fract_z
Si Si1 0.837027 0.250000 0.612730
Si Si2 0.500000 0.066396 0.105858
Si Si3 0.000000 0.125495 0.238367
Si Si4 0.172735 0.512052 0.193500
Si Si5 0.000000 0.750000 0.493472
Si Si6 0.700319 0.978830 0.078920
Si Si7 0.607706 0.250000 0.728831
O O1 0.916876 0.250000 0.557571
O O2 0.784352 0.143948 0.596121
O O3 0.867379 0.250000 0.690898
O O4 0.500000 0.118922 0.179682
O O5 0.595643 0.003750 0.099844
O O6 0.500000 0.148883 0.043382
O O7 0.000000 0.250000 0.218676
O O8 0.912672 0.060958 0.212081
O O9 0.250000 0.501143 0.250000
O O10 0.222353 0.469806 0.125490
O O11 0.143101 0.637652 0.198079
O O12 0.709217 0.000000 0.000000
O O13 0.500000 0.250000 0.723237
#
# Coordination Sequence:
#
# PCOD9540639 Si02
#       7
#     8   8   8  16   4  16   8
#     4  12  21  34  64  99 135 166 202 266 332 413
#     4  12  22  40  63  95 134 172 207 265 327 405
#     4  12  26  45  66  94 134 177 226 273 319 388
#     4  12  24  43  69  99 131 173 226 277 331 393
#     4  12  22  34  58 100 142 172 194 248 354 410
#     4  12  25  41  64  97 135 171 217 269 337 395
#     4  12  22  40  73 101 134 169 214 285 340 379
#
# _framework density 18.596585999999999
#
# number of rings (size 3 to 8) (size 9 to 14) (size 15 to 20)
#    0.000    0.000    9.412    2.118    0.000    0.471 
#    4.235    0.588    0.000    0.000    0.000    0.000 
#    0.000    0.000    0.000    0.000    0.000    0.000 
#
# Total GULP energy -189806.858057 kJ/mol
# GULP energy per Si atom -5582.554649 kJ/mol
# Density = 1.855426 g / cm^3
# Si number density = 18.596586 Si / 1000 Ang^3
#
#
#
# Elastic Constant Matrix: (Units=GPa)
#
#
# Indices 1 2 3 4 5 6 
#
# 1 139.4734 60.1509 73.3814 0.0000 0.0000 0.0000
# 2 60.1509 119.8351 33.5300 0.0000 0.0000 0.0000
# 3 73.3814 33.5300 119.9552 0.0000 0.0000 0.0000
# 4 0.0000 0.0000 0.0000 13.5946 0.0000 0.0000
# 5 0.0000 0.0000 0.0000 0.0000 -28.0192 0.0000
# 6 0.0000 0.0000 0.0000 0.0000 0.0000 26.8191
#
#
#
# Elastic Compliance Matrix: (Units=1/GPa)
#
#
# Indices 1 2 3 4 5 6 
#
# 1 0.012444 -0.004466 -0.006364 0.000000 0.000000 0.000000
# 2 -0.004466 0.010655 -0.000247 0.000000 0.000000 0.000000
# 3 -0.006364 -0.000247 0.012299 0.000000 0.000000 0.000000
# 4 0.000000 0.000000 0.000000 0.073559 0.000000 0.000000
# 5 0.000000 0.000000 0.000000 0.000000 -0.035690 0.000000
# 6 0.000000 0.000000 0.000000 0.000000 0.000000 0.037287
#
#
# Mechanical properties :
#
#
# Convention : Reuss Voigt Hill
#
# Bulk Modulus (GPa) = 75.49979 79.26538 77.38258
# Shear Modulus (GPa) = 36.46379 16.62565 26.54472
#
# Velocity S-wave (km/s) = 4.43287 2.99325 3.78219
# Velocity P-wave (km/s) = 8.17847 7.39339 7.79582
#
# Compressibility (1/GPa) = 0.01324507
#
# Stress axis : x y z
#
# Youngs Moduli (GPa) = 80.35863 93.85013 81.30915
#
# Poissons Ratio (x) = 0.41909 0.51748
# Poissons Ratio (y) = 0.35885 0.02005
# Poissons Ratio (z) = 0.51143 0.02314
#
# Static dielectric constant tensor:
#      x y z
#    x 1.647880 0.000000 0.000000 
#    y 0.000000 1.738810 0.000000 
#    z 0.000000 0.000000 1.581130 
# 
# From -- ./inp_files/51569.got.cif
#   From: 2010.05.17/outbox.cif.g08.bks.cpg/sg74_26_cif.got.tgz:51569.got - 2010.06.03 17:57:02.
