data_PCOD9540452
_publ_section_title
;
Structure prediction by ZEFSAII (Michael W. Deem and Ramdas Pophale) SiO2 
 PCOD9540452
Probable space group: I M M A
;
_chemical_formula_sum "Si O2"
_cell_formula_units_Z 56
_cell_length_a 16.945507
_cell_length_b 7.725632
_cell_length_c 21.132536
_cell_angle_alpha 90.000000
_cell_angle_beta 90.000000
_cell_angle_gamma 90.000000
_cell_volume 2766.560691
_symmetry_space_group_name_H-M "I M M A"
_symmetry_group_IT_number 74
_symmetry_cell_setting 'orthorhombic'
loop_
_space_group_symop_operation_xyz
x,y,z
-x,1/2-y,z
x,-y,-z
-x,1/2+y,-z
-x,-y,-z
x,1/2+y,-z
-x,y,z
x,1/2-y,z
1/2+x,1/2+y,1/2+z
1/2-x,-y,1/2+z
1/2+x,1/2-y,1/2-z
1/2-x,y,1/2-z
1/2-x,1/2-y,1/2-z
1/2+x,y,1/2-z
1/2-x,1/2+y,1/2+z
1/2+x,-y,1/2+z
loop_
_atom_site_type_symbol
_atom_site_label
_atom_site_fract_x
_atom_site_fract_y
_atom_site_fract_z
Si Si1 0.593536 0.750000 0.750809
Si Si2 0.789872 0.453261 0.932213
Si Si3 0.500000 0.543167 0.925822
Si Si4 0.352536 0.551360 0.160852
Si Si5 0.091970 0.250000 0.099843
O O1 0.500000 0.750000 0.766040
O O2 0.631619 0.581922 0.782999
O O3 0.600885 0.750000 0.675743
O O4 0.809805 0.250000 0.931118
O O5 0.727973 0.488173 0.876363
O O6 0.863810 0.580041 0.925450
O O7 0.751641 0.500000 0.000000
O O8 0.500000 0.750000 0.919050
O O9 0.423309 0.470744 0.889800
O O10 0.500000 0.500000 0.000000
O O11 0.350921 0.750000 0.182823
O O12 0.000000 0.250000 0.083651
#
# Coordination Sequence:
#
# PCOD9540452 Si02
#       5
#     8  16   8  16   8
#     4  11  23  43  65  95 136 178 229 266 308 389
#     4  11  24  43  67  99 133 166 213 277 338 395
#     4  12  22  34  56  95 135 182 225 254 310 388
#     4  11  22  38  64  95 134 178 214 263 322 381
#     4  11  27  47  71  94 125 178 222 277 341 385
#
# _framework density 20.241738999999999
#
# number of rings (size 3 to 8) (size 9 to 14) (size 15 to 20)
#    0.000    0.857    4.286    3.000    0.000    6.857 
#    0.000    5.714    0.000    0.000    0.000    0.000 
#    0.000    0.000    0.000    0.000    0.000    0.000 
#
# Total GULP energy -156693.327870 kJ/mol
# GULP energy per Si atom -5596.190281 kJ/mol
# Density = 2.019567 g / cm^3
# Si number density = 20.241739 Si / 1000 Ang^3
#
#
#
# Elastic Constant Matrix: (Units=GPa)
#
#
# Indices 1 2 3 4 5 6 
#
# 1 86.4402 43.0551 -8.0334 0.0000 0.0000 0.0000
# 2 43.0551 119.0113 9.6801 0.0000 0.0000 0.0000
# 3 -8.0334 9.6801 39.9368 0.0000 0.0000 0.0000
# 4 0.0000 0.0000 0.0000 24.2263 0.0000 0.0000
# 5 0.0000 0.0000 0.0000 0.0000 26.4229 0.0000
# 6 0.0000 0.0000 0.0000 0.0000 0.0000 1.7192
#
#
#
# Elastic Compliance Matrix: (Units=1/GPa)
#
#
# Indices 1 2 3 4 5 6 
#
# 1 0.014822 -0.005718 0.004367 0.000000 0.000000 0.000000
# 2 -0.005718 0.010777 -0.003762 0.000000 0.000000 0.000000
# 3 0.004367 -0.003762 0.026830 0.000000 0.000000 0.000000
# 4 0.000000 0.000000 0.000000 0.041277 0.000000 0.000000
# 5 0.000000 0.000000 0.000000 0.000000 0.037846 0.000000
# 6 0.000000 0.000000 0.000000 0.000000 0.000000 0.581660
#
#
# Mechanical properties :
#
#
# Convention : Reuss Voigt Hill
#
# Bulk Modulus (GPa) = 23.69408 37.19910 30.44659
# Shear Modulus (GPa) = 6.77961 23.85280 15.31620
#
# Velocity S-wave (km/s) = 1.83210 3.43650 2.75374
# Velocity P-wave (km/s) = 4.02572 5.84494 5.01846
#
# Compressibility (1/GPa) = 0.04220464
#
# Stress axis : x y z
#
# Youngs Moduli (GPa) = 67.46505 92.78967 37.27163
#
# Poissons Ratio (x) = 0.53054 -0.16278
# Poissons Ratio (y) = 0.38574 0.14023
# Poissons Ratio (z) = -0.29465 0.34911
#
# Static dielectric constant tensor:
#      x y z
#    x 1.700930 0.000000 0.000000 
#    y 0.000000 1.695940 0.000000 
#    z 0.000000 0.000000 1.705470 
# 
# From -- ./inp_files/51394.got.cif
#   From: 2010.05.17/outbox.cif.g08.bks.cpg/sg74_26_cif.got.tgz:51394.got - 2010.06.03 17:57:02.
