data_PCOD9540065
_publ_section_title
;
Structure prediction by ZEFSAII (Michael W. Deem and Ramdas Pophale) SiO2 
 PCOD9540065
Probable space group: I M M A
;
_chemical_formula_sum "Si O2"
_cell_formula_units_Z 100
_cell_length_a 26.263997
_cell_length_b 18.815958
_cell_length_c 9.456044
_cell_angle_alpha 90.000000
_cell_angle_beta 90.000000
_cell_angle_gamma 90.000000
_cell_volume 4673.009237
_symmetry_space_group_name_H-M "I M M A"
_symmetry_group_IT_number 74
_symmetry_cell_setting 'orthorhombic'
loop_
_space_group_symop_operation_xyz
x,y,z
-x,1/2-y,z
x,-y,-z
-x,1/2+y,-z
-x,-y,-z
x,1/2+y,-z
-x,y,z
x,1/2-y,z
1/2+x,1/2+y,1/2+z
1/2-x,-y,1/2+z
1/2+x,1/2-y,1/2-z
1/2-x,y,1/2-z
1/2-x,1/2-y,1/2-z
1/2+x,y,1/2-z
1/2-x,1/2+y,1/2+z
1/2+x,-y,1/2+z
loop_
_atom_site_type_symbol
_atom_site_label
_atom_site_fract_x
_atom_site_fract_y
_atom_site_fract_z
Si Si1 0.440034 0.043703 0.777090
Si Si2 0.606012 0.893489 0.741821
Si Si3 0.892446 0.171376 0.539835
Si Si4 0.907776 0.854308 0.063923
Si Si5 0.202530 0.483373 0.164074
Si Si6 0.690343 0.354867 0.744914
Si Si7 0.500000 0.750000 0.360661
O O1 0.500000 0.046719 0.775637
O O2 0.420026 0.103974 0.886024
O O3 0.416573 0.066969 0.626142
O O4 0.424220 0.962411 0.799262
O O5 0.584625 0.854312 0.603692
O O6 0.657778 0.927844 0.683418
O O7 0.611357 0.842065 0.874091
O O8 0.915692 0.250000 0.566960
O O9 0.837220 0.169547 0.612784
O O10 0.851122 0.832888 0.122179
O O11 0.954157 0.810342 0.130550
O O12 0.250000 0.453792 0.250000
O O13 0.190546 0.559307 0.236193
O O14 0.213162 0.500000 0.000000
O O15 0.750000 0.333579 0.750000
#
# Coordination Sequence:
#
# PCOD9540065 Si02
#       7
#    16  16  16  16  16  16   4
#     4  11  24  43  70  97 127 178 237 302 348 419
#     4  12  24  43  67 100 141 178 233 295 354 423
#     4  11  27  44  64  96 140 184 232 286 356 432
#     4  11  24  44  71 100 141 180 238 283 356 428
#     4  11  22  38  69 109 141 177 228 290 357 417
#     4  10  23  43  72 104 138 183 235 290 348 421
#     4  12  28  44  72 106 142 192 230 296 376 420
#
# _framework density 21.399486
#
# number of rings (size 3 to 8) (size 9 to 14) (size 15 to 20)
#    0.000    0.960    5.600    0.960   11.200    2.560 
#    0.000    0.000    0.000    1.440    0.000    0.000 
#    0.000    0.000    0.000    0.000    0.000    0.000 
#
# Total GULP energy -278499.506327 kJ/mol
# GULP energy per Si atom -5569.990127 kJ/mol
# Density = 2.135078 g / cm^3
# Si number density = 21.399486 Si / 1000 Ang^3
#
#
#
# Elastic Constant Matrix: (Units=GPa)
#
#
# Indices 1 2 3 4 5 6 
#
# 1 144.3996 14.8575 23.6563 0.0000 0.0000 0.0000
# 2 14.8575 77.3326 25.2336 0.0000 0.0000 0.0000
# 3 23.6563 25.2336 151.0808 0.0000 0.0000 0.0000
# 4 0.0000 0.0000 0.0000 -119.6644 0.0000 0.0000
# 5 0.0000 0.0000 0.0000 0.0000 8.1952 0.0000
# 6 0.0000 0.0000 0.0000 0.0000 0.0000 -6.2140
#
#
#
# Elastic Compliance Matrix: (Units=1/GPa)
#
#
# Indices 1 2 3 4 5 6 
#
# 1 0.007191 -0.001073 -0.000947 0.000000 0.000000 0.000000
# 2 -0.001073 0.013836 -0.002143 0.000000 0.000000 0.000000
# 3 -0.000947 -0.002143 0.007125 0.000000 0.000000 0.000000
# 4 0.000000 0.000000 0.000000 -0.008357 0.000000 0.000000
# 5 0.000000 0.000000 0.000000 0.000000 0.122023 0.000000
# 6 0.000000 0.000000 0.000000 0.000000 0.000000 -0.160927
#
#
# Mechanical properties :
#
#
# Convention : Reuss Voigt Hill
#
# Bulk Modulus (GPa) = 50.43483 55.58975 53.01229
# Shear Modulus (GPa) = -1197.78855 -2.93226 -600.36041
#
# Velocity S-wave (km/s) = -23.68423 -1.17185 -16.76777
# Velocity P-wave (km/s) = 26.91290 4.91961 18.70965
#
# Compressibility (1/GPa) = 0.01982757
#
# Stress axis : x y z
#
# Youngs Moduli (GPa) = 139.06868 72.27264 140.34792
#
# Poissons Ratio (x) = 0.07752 0.13288
# Poissons Ratio (y) = 0.14916 0.30077
# Poissons Ratio (z) = 0.13167 0.15488
#
# Static dielectric constant tensor:
#      x y z
#    x 1.826430 0.000000 0.000000 
#    y 0.000000 1.842510 0.000000 
#    z 0.000000 0.000000 1.797710 
# 
# From -- ./inp_files/15222.got.cif
#   From: 2010.05.17/outbox.cif.g08.bks.cpg/sg74_8_cif.got.tgz:15222.got - 2010.06.03 17:57:02.
