data_PCOD9540940
_publ_section_title
;
Structure prediction by ZEFSAII (Michael W. Deem and Ramdas Pophale) SiO2 
 PCOD9540940
Probable space group: I M M A
;
_chemical_formula_sum "Si O2"
_cell_formula_units_Z 48
_cell_length_a 27.000000
_cell_length_b 9.000000
_cell_length_c 21.000000
_cell_angle_alpha 90.000000
_cell_angle_beta 90.000000
_cell_angle_gamma 90.000000
_cell_volume 5103.000000
_symmetry_space_group_name_H-M "I M M A"
_symmetry_group_IT_number 74
_symmetry_cell_setting 'orthorhombic'
loop_
_space_group_symop_operation_xyz
x,y,z
-x,1/2-y,z
x,-y,-z
-x,1/2+y,-z
-x,-y,-z
x,1/2+y,-z
-x,y,z
x,1/2-y,z
1/2+x,1/2+y,1/2+z
1/2-x,-y,1/2+z
1/2+x,1/2-y,1/2-z
1/2-x,y,1/2-z
1/2-x,1/2-y,1/2-z
1/2+x,y,1/2-z
1/2-x,1/2+y,1/2+z
1/2+x,-y,1/2+z
loop_
_atom_site_type_symbol
_atom_site_label
_atom_site_fract_x
_atom_site_fract_y
_atom_site_fract_z
Si Si1 0.138442 0.426793 0.068567
Si Si2 0.445265 0.069353 0.332242
Si Si3 0.283586 0.920159 0.350588
Si Si4 0.420692 0.576688 0.809838
Si Si5 0.441796 0.413415 0.939645
Si Si6 0.177787 0.078911 0.706047
O O1 0.134337 0.250000 0.062753
O O2 0.097133 0.481055 0.119541
O O3 0.190527 0.471727 0.100088
O O4 0.131961 0.500000 0.000000
O O5 0.500000 0.028259 0.354967
O O6 0.442183 0.250000 0.329922
O O7 0.438974 0.018952 0.259034
O O8 0.292959 0.750000 0.370823
O O9 0.225437 0.939065 0.338560
O O10 0.306394 0.937765 0.279753
O O11 0.432801 0.750000 0.813790
O O12 0.439292 0.496455 0.872702
O O13 0.362558 0.543270 0.808886
O O14 0.500000 0.396840 0.953351
O O15 0.419248 0.250000 0.933990
O O16 0.419688 0.500000 0.000000
O O17 0.159565 0.250000 0.698882
#
# Coordination Sequence:
#
# PCOD9540940 Si02
#       6
#    16  16  16  16  16  16
#     4  11  22  37  57  81 111 150 193 239 288 341
#     4   9  19  35  54  79 112 148 189 235 282 333
#     4   9  18  35  57  81 109 143 179 223 276 331
#     4  11  20  33  56  86 116 149 185 229 281 332
#     4  10  21  37  56  79 109 147 188 228 274 332
#     4   9  18  33  56  83 112 142 177 223 275 329
#
# _framework density 9.4062319999999993
#
# number of rings (size 3 to 8) (size 9 to 14) (size 15 to 20)
#    0.000    2.167    1.667    3.000    0.000    2.667 
#    0.000    2.500    0.000    8.500    0.000    0.000 
#    0.000    0.000    0.000    0.000    0.000    0.000 
#
# Total GULP energy -267528.895554 kJ/mol
# GULP energy per Si atom -5573.518657 kJ/mol
# Density = 0.938482 g / cm^3
# Si number density = 9.406232 Si / 1000 Ang^3
#
#
#
# Elastic Constant Matrix: (Units=GPa)
#
#
# Indices 1 2 3 4 5 6 
#
# 1 41.4885 15.8819 19.1382 0.0000 0.0000 0.0000
# 2 15.8819 53.9363 43.7919 0.0000 0.0000 0.0000
# 3 19.1382 43.7919 111.5296 0.0000 0.0000 0.0000
# 4 0.0000 0.0000 0.0000 19.5459 0.0000 0.0000
# 5 0.0000 0.0000 0.0000 0.0000 28.6094 0.0000
# 6 0.0000 0.0000 0.0000 0.0000 0.0000 16.7434
#
#
#
# Elastic Compliance Matrix: (Units=1/GPa)
#
#
# Indices 1 2 3 4 5 6 
#
# 1 0.027549 -0.006274 -0.002264 0.000000 0.000000 0.000000
# 2 -0.006274 0.028646 -0.010171 0.000000 0.000000 0.000000
# 3 -0.002264 -0.010171 0.013348 0.000000 0.000000 0.000000
# 4 0.000000 0.000000 0.000000 0.051162 0.000000 0.000000
# 5 0.000000 0.000000 0.000000 0.000000 0.034954 0.000000
# 6 0.000000 0.000000 0.000000 0.000000 0.000000 0.059725
#
#
# Mechanical properties :
#
#
# Convention : Reuss Voigt Hill
#
# Bulk Modulus (GPa) = 31.12801 40.50873 35.81837
# Shear Modulus (GPa) = 18.97461 21.52257 20.24859
#
# Velocity S-wave (km/s) = 3.17932 3.38606 3.28432
# Velocity P-wave (km/s) = 5.48269 6.07181 5.78475
#
# Compressibility (1/GPa) = 0.03212541
#
# Stress axis : x y z
#
# Youngs Moduli (GPa) = 36.29888 34.90889 74.91522
#
# Poissons Ratio (x) = 0.21902 0.16960
# Poissons Ratio (y) = 0.22774 0.76198
# Poissons Ratio (z) = 0.08218 0.35507
#
# Static dielectric constant tensor:
#      x y z
#    x 1.677570 0.000000 0.000000 
#    y 0.000000 1.671080 0.000000 
#    z 0.000000 0.000000 1.633780 
# 
# From -- ./inp_files/55064.got.cif
#   From: 2010.05.17/outbox.ucp.g08.bks.cvg/sg74_28_cif.got.tgz:55064.got - 2010.06.11 16:37:44.
