data_PCOD9540206
_publ_section_title
;
Structure prediction by ZEFSAII (Michael W. Deem and Ramdas Pophale) SiO2 
 PCOD9540206
Probable space group: I M M A
;
_chemical_formula_sum "Si O2"
_cell_formula_units_Z 80
_cell_length_a 18.866341
_cell_length_b 20.337943
_cell_length_c 12.589926
_cell_angle_alpha 90.000000
_cell_angle_beta 90.000000
_cell_angle_gamma 90.000000
_cell_volume 4830.786936
_symmetry_space_group_name_H-M "I M M A"
_symmetry_group_IT_number 74
_symmetry_cell_setting 'orthorhombic'
loop_
_space_group_symop_operation_xyz
x,y,z
-x,1/2-y,z
x,-y,-z
-x,1/2+y,-z
-x,-y,-z
x,1/2+y,-z
-x,y,z
x,1/2-y,z
1/2+x,1/2+y,1/2+z
1/2-x,-y,1/2+z
1/2+x,1/2-y,1/2-z
1/2-x,y,1/2-z
1/2-x,1/2-y,1/2-z
1/2+x,y,1/2-z
1/2-x,1/2+y,1/2+z
1/2+x,-y,1/2+z
loop_
_atom_site_type_symbol
_atom_site_label
_atom_site_fract_x
_atom_site_fract_y
_atom_site_fract_z
Si Si1 0.144681 0.370628 0.301488
Si Si2 0.500000 0.939177 0.082805
Si Si3 0.709532 0.939890 0.419630
Si Si4 0.500000 0.327002 0.089164
Si Si5 0.787950 0.826991 0.916084
Si Si6 0.645404 0.029118 0.805013
O O1 0.070017 0.345204 0.344023
O O2 0.161565 0.347482 0.182008
O O3 0.208678 0.342912 0.373550
O O4 0.147146 0.449712 0.306519
O O5 0.570582 0.946168 0.152285
O O6 0.500000 0.872746 0.014747
O O7 0.500000 0.000000 0.000000
O O8 0.698059 0.872823 0.483146
O O9 0.662842 0.947786 0.314086
O O10 0.790884 0.946198 0.380262
O O11 0.695702 0.000000 0.500000
O O12 0.500000 0.250000 0.064147
O O13 0.794647 0.750000 0.937690
#
# Coordination Sequence:
#
# PCOD9540206 Si02
#       6
#    16   8  16   8  16  16
#     4  11  19  35  57  83 113 135 182 233 267 320
#     4  12  22  38  58  81 114 136 182 223 267 324
#     4  11  19  36  58  78 112 142 183 220 269 321
#     4  12  24  36  55  84 114 145 171 219 282 325
#     4  11  21  34  55  83 112 145 177 223 275 320
#     4  11  21  35  58  87 103 142 186 228 262 311
#
# _framework density 16.560448999999998
#
# number of rings (size 3 to 8) (size 9 to 14) (size 15 to 20)
#    0.000    0.800    6.000    5.400    0.000    0.000 
#    0.000    4.500    0.000    0.000    0.000    0.000 
#    0.000    0.000    0.000    0.000    0.000    0.000 
#
# Total GULP energy -223575.897181 kJ/mol
# GULP energy per Si atom -5589.397430 kJ/mol
# Density = 1.652276 g / cm^3
# Si number density = 16.560449 Si / 1000 Ang^3
#
#
#
# Elastic Constant Matrix: (Units=GPa)
#
#
# Indices 1 2 3 4 5 6 
#
# 1 124.9884 48.1066 64.4809 0.0000 0.0000 0.0000
# 2 48.1066 164.0941 72.0750 0.0000 0.0000 0.0000
# 3 64.4809 72.0750 115.7779 0.0000 0.0000 0.0000
# 4 0.0000 0.0000 0.0000 13.8276 0.0000 0.0000
# 5 0.0000 0.0000 0.0000 0.0000 14.2831 0.0000
# 6 0.0000 0.0000 0.0000 0.0000 0.0000 1.2713
#
#
#
# Elastic Compliance Matrix: (Units=1/GPa)
#
#
# Indices 1 2 3 4 5 6 
#
# 1 0.011294 -0.000755 -0.005820 0.000000 0.000000 0.000000
# 2 -0.000755 0.008438 -0.004833 0.000000 0.000000 0.000000
# 3 -0.005820 -0.004833 0.014887 0.000000 0.000000 0.000000
# 4 0.000000 0.000000 0.000000 0.072319 0.000000 0.000000
# 5 0.000000 0.000000 0.000000 0.000000 0.070013 0.000000
# 6 0.000000 0.000000 0.000000 0.000000 0.000000 0.786610
#
#
# Mechanical properties :
#
#
# Convention : Reuss Voigt Hill
#
# Bulk Modulus (GPa) = 84.71601 86.02059 85.36830
# Shear Modulus (GPa) = 5.04892 20.55625 12.80258
#
# Velocity S-wave (km/s) = 1.74797 3.52701 2.78345
# Velocity P-wave (km/s) = 7.43912 8.28508 7.87347
#
# Compressibility (1/GPa) = 0.01180414
#
# Stress axis : x y z
#
# Youngs Moduli (GPa) = 88.54442 118.51305 67.17211
#
# Poissons Ratio (x) = 0.08942 0.39095
# Poissons Ratio (y) = 0.06681 0.32462
# Poissons Ratio (z) = 0.51535 0.57273
#
# Static dielectric constant tensor:
#      x y z
#    x 1.542190 0.000000 0.000000 
#    y 0.000000 1.543780 0.000000 
#    z 0.000000 0.000000 1.543110 
# 
# From -- ./inp_files/22089.got.cif
#   From: 2010.05.17/outbox.cif.g08.bks.cpg/sg74_12_cif.got.tgz:22089.got - 2010.06.03 17:57:02.
