data_PCOD9540123
_publ_section_title
;
Structure prediction by ZEFSAII (Michael W. Deem and Ramdas Pophale) SiO2 
 PCOD9540123
Probable space group: I M M A
;
_chemical_formula_sum "Si O2"
_cell_formula_units_Z 72
_cell_length_a 13.895088
_cell_length_b 8.324970
_cell_length_c 29.673992
_cell_angle_alpha 90.000000
_cell_angle_beta 90.000000
_cell_angle_gamma 90.000000
_cell_volume 3432.574359
_symmetry_space_group_name_H-M "I M M A"
_symmetry_group_IT_number 74
_symmetry_cell_setting 'orthorhombic'
loop_
_space_group_symop_operation_xyz
x,y,z
-x,1/2-y,z
x,-y,-z
-x,1/2+y,-z
-x,-y,-z
x,1/2+y,-z
-x,y,z
x,1/2-y,z
1/2+x,1/2+y,1/2+z
1/2-x,-y,1/2+z
1/2+x,1/2-y,1/2-z
1/2-x,y,1/2-z
1/2-x,1/2-y,1/2-z
1/2+x,y,1/2-z
1/2-x,1/2+y,1/2+z
1/2+x,-y,1/2+z
loop_
_atom_site_type_symbol
_atom_site_label
_atom_site_fract_x
_atom_site_fract_y
_atom_site_fract_z
Si Si1 0.000000 0.437734 0.172460
Si Si2 0.328791 0.567031 0.881269
Si Si3 0.500000 0.942406 0.564409
Si Si4 0.788156 0.558684 0.202027
Si Si5 0.500000 0.945249 0.947357
Si Si6 0.795540 0.436700 0.953269
O O1 0.000000 0.459622 0.118583
O O2 0.102708 0.503675 0.190586
O O3 0.000000 0.250000 0.182735
O O4 0.355016 0.750000 0.870722
O O5 0.291709 0.485208 0.835806
O O6 0.410278 0.501291 0.915641
O O7 0.237025 0.552626 0.913428
O O8 0.500000 0.250000 0.445940
O O9 0.408480 0.036061 0.545912
O O10 0.792502 0.750000 0.204123
O O11 0.750000 0.494910 0.250000
O O12 0.500000 0.750000 0.949293
O O13 0.500000 0.000000 0.000000
O O14 0.771840 0.250000 0.945363
O O15 0.752078 0.500000 0.000000
#
# Coordination Sequence:
#
# PCOD9540123 Si02
#       6
#     8  16   8  16   8  16
#     4  11  23  41  69  97 129 170 210 262 321 382
#     4  11  23  42  65  93 127 167 217 271 327 391
#     4  11  22  38  60  90 124 163 205 250 305 369
#     4  11  25  44  68  99 133 172 218 271 330 395
#     4  10  24  43  66  95 130 171 220 277 333 396
#     4  12  24  38  59  89 126 168 209 257 311 375
#
# _framework density 20.975511000000001
#
# number of rings (size 3 to 8) (size 9 to 14) (size 15 to 20)
#    0.000    0.889    2.222    5.000    0.000    7.111 
#    0.000    2.222    0.000    0.000    0.000    0.000 
#    0.000    0.000    0.000    0.000    0.000    0.000 
#
# Total GULP energy -200847.961950 kJ/mol
# GULP energy per Si atom -5579.110054 kJ/mol
# Density = 2.092777 g / cm^3
# Si number density = 20.975511 Si / 1000 Ang^3
#
#
#
# Elastic Constant Matrix: (Units=GPa)
#
#
# Indices 1 2 3 4 5 6 
#
# 1 113.7677 11.9182 53.3644 0.0000 0.0000 0.0000
# 2 11.9182 76.6124 29.9833 0.0000 0.0000 0.0000
# 3 53.3644 29.9833 160.6842 0.0000 0.0000 0.0000
# 4 0.0000 0.0000 0.0000 31.7440 0.0000 0.0000
# 5 0.0000 0.0000 0.0000 0.0000 29.0018 0.0000
# 6 0.0000 0.0000 0.0000 0.0000 0.0000 16.5987
#
#
#
# Elastic Compliance Matrix: (Units=1/GPa)
#
#
# Indices 1 2 3 4 5 6 
#
# 1 0.010418 -0.000288 -0.003406 0.000000 0.000000 0.000000
# 2 -0.000288 0.014089 -0.002533 0.000000 0.000000 0.000000
# 3 -0.003406 -0.002533 0.007827 0.000000 0.000000 0.000000
# 4 0.000000 0.000000 0.000000 0.031502 0.000000 0.000000
# 5 0.000000 0.000000 0.000000 0.000000 0.034481 0.000000
# 6 0.000000 0.000000 0.000000 0.000000 0.000000 0.060246
#
#
# Mechanical properties :
#
#
# Convention : Reuss Voigt Hill
#
# Bulk Modulus (GPa) = 50.30278 60.17733 55.24005
# Shear Modulus (GPa) = 28.14632 32.52213 30.33422
#
# Velocity S-wave (km/s) = 3.66712 3.94189 3.80698
# Velocity P-wave (km/s) = 6.47797 7.03346 6.76142
#
# Compressibility (1/GPa) = 0.01987962
#
# Stress axis : x y z
#
# Youngs Moduli (GPa) = 95.99085 70.97757 127.75765
#
# Poissons Ratio (x) = 0.02041 0.43516
# Poissons Ratio (y) = 0.02761 0.32367
# Poissons Ratio (z) = 0.32696 0.17982
#
# Static dielectric constant tensor:
#      x y z
#    x 1.903440 0.000000 0.000000 
#    y 0.000000 1.743710 0.000000 
#    z 0.000000 0.000000 1.778700 
# 
# From -- ./inp_files/66813.got.cif
#   From: 2010.05.17/outbox.cif.g08.bks.cpg/sg74_34_cif.got.tgz:66813.got - 2010.06.03 17:57:02.
