data_PCOD9540419
_publ_section_title
;
Structure prediction by ZEFSAII (Michael W. Deem and Ramdas Pophale) SiO2 
 PCOD9540419
Probable space group: I M M A
;
_chemical_formula_sum "Si O2"
_cell_formula_units_Z 104
_cell_length_a 21.787428
_cell_length_b 8.335725
_cell_length_c 29.754567
_cell_angle_alpha 90.000000
_cell_angle_beta 90.000000
_cell_angle_gamma 90.000000
_cell_volume 5403.846177
_symmetry_space_group_name_H-M "I M M A"
_symmetry_group_IT_number 74
_symmetry_cell_setting 'orthorhombic'
loop_
_space_group_symop_operation_xyz
x,y,z
-x,1/2-y,z
x,-y,-z
-x,1/2+y,-z
-x,-y,-z
x,1/2+y,-z
-x,y,z
x,1/2-y,z
1/2+x,1/2+y,1/2+z
1/2-x,-y,1/2+z
1/2+x,1/2-y,1/2-z
1/2-x,y,1/2-z
1/2-x,1/2-y,1/2-z
1/2+x,y,1/2-z
1/2-x,1/2+y,1/2+z
1/2+x,-y,1/2+z
loop_
_atom_site_type_symbol
_atom_site_label
_atom_site_fract_x
_atom_site_fract_y
_atom_site_fract_z
Si Si1 0.365516 0.944482 0.551936
Si Si2 0.813686 0.432136 0.546727
Si Si3 0.703909 0.439603 0.788543
Si Si4 0.762423 0.935184 0.878823
Si Si5 0.930248 0.942451 0.684318
Si Si6 0.429536 0.060864 0.077921
Si Si7 0.500000 0.442776 0.448782
O O1 0.361954 0.750000 0.550595
O O2 0.317664 0.999572 0.589813
O O3 0.433597 0.995759 0.568234
O O4 0.356322 0.000000 0.500000
O O5 0.789749 0.500000 0.500000
O O6 0.793623 0.250000 0.553930
O O7 0.792944 0.548807 0.586224
O O8 0.886476 0.447174 0.549101
O O9 0.698186 0.250000 0.781812
O O10 0.750000 0.505439 0.750000
O O11 0.740108 0.473807 0.834868
O O12 0.633332 0.502474 0.791966
O O13 0.774502 0.750000 0.867132
O O14 0.931600 0.750000 0.688167
O O15 0.923767 0.979920 0.631157
O O16 0.000000 0.999115 0.698238
O O17 0.500000 0.040765 0.065826
O O18 0.414211 0.250000 0.072131
O O19 0.500000 0.250000 0.447000
O O20 0.500000 0.500000 0.500000
#
# Coordination Sequence:
#
# PCOD9540419 Si02
#       7
#    16  16  16  16  16  16   8
#     4   9  18  31  52  80 109 144 182 224 272 325
#     4  12  24  36  52  76 109 149 189 230 275 325
#     4  11  24  40  60  88 117 149 188 232 284 343
#     4  11  22  37  56  80 110 146 186 230 282 332
#     4   9  18  35  62  91 116 145 185 233 283 339
#     4   9  18  34  55  79 108 142 182 230 277 325
#     4   8  14  28  48  74 106 138 178 222 262 316
#
# _framework density 19.245550000000001
#
# number of rings (size 3 to 8) (size 9 to 14) (size 15 to 20)
#    0.000    2.000    1.538    3.692    0.000    4.615 
#    0.000    1.538    1.692    0.000    0.000    0.000 
#    0.000    0.000    0.000    0.000    0.000    0.000 
#
# Total GULP energy -289668.376737 kJ/mol
# GULP energy per Si atom -5570.545706 kJ/mol
# Density = 1.920175 g / cm^3
# Si number density = 19.245550 Si / 1000 Ang^3
#
#
#
# Elastic Constant Matrix: (Units=GPa)
#
#
# Indices 1 2 3 4 5 6 
#
# 1 157.1794 20.6799 40.7280 0.0000 0.0000 0.0000
# 2 20.6799 18.9660 -0.5676 0.0000 0.0000 0.0000
# 3 40.7280 -0.5676 71.3958 0.0000 0.0000 0.0000
# 4 0.0000 0.0000 0.0000 19.3390 0.0000 0.0000
# 5 0.0000 0.0000 0.0000 0.0000 30.0282 0.0000
# 6 0.0000 0.0000 0.0000 0.0000 0.0000 -2.8089
#
#
#
# Elastic Compliance Matrix: (Units=1/GPa)
#
#
# Indices 1 2 3 4 5 6 
#
# 1 0.009035 -0.010008 -0.005234 0.000000 0.000000 0.000000
# 2 -0.010008 0.063825 0.006217 0.000000 0.000000 0.000000
# 3 -0.005234 0.006217 0.017041 0.000000 0.000000 0.000000
# 4 0.000000 0.000000 0.000000 0.051709 0.000000 0.000000
# 5 0.000000 0.000000 0.000000 0.000000 0.033302 0.000000
# 6 0.000000 0.000000 0.000000 0.000000 0.000000 -0.356017
#
#
# Mechanical properties :
#
#
# Convention : Reuss Voigt Hill
#
# Bulk Modulus (GPa) = 13.91776 41.02466 27.47121
# Shear Modulus (GPa) = -35.94439 21.75840 -7.09300
#
# Velocity S-wave (km/s) = -4.32635 3.36604 -1.92185
# Velocity P-wave (km/s) = 4.20820 6.03901 3.06273
#
# Compressibility (1/GPa) = 0.07185066
#
# Stress axis : x y z
#
# Youngs Moduli (GPa) = 110.68002 15.66792 58.68059
#
# Poissons Ratio (x) = 0.15681 0.30711
# Poissons Ratio (y) = 1.10771 -0.36479
# Poissons Ratio (z) = 0.57926 -0.09740
#
# Static dielectric constant tensor:
#      x y z
#    x 1.792910 0.000000 0.000000 
#    y 0.000000 1.677520 0.000000 
#    z 0.000000 0.000000 1.650980 
# 
# From -- ./inp_files/68241.got.cif
#   From: 2010.05.17/outbox.cif.g08.bks.cpg/sg74_35_cif.got.tgz:68241.got - 2010.06.03 17:57:02.
