data_PCOD9540669
_publ_section_title
;
Structure prediction by ZEFSAII (Michael W. Deem and Ramdas Pophale) SiO2 
 PCOD9540669
Probable space group: I M M A
;
_chemical_formula_sum "Si O2"
_cell_formula_units_Z 40
_cell_length_a 16.218629
_cell_length_b 22.382991
_cell_length_c 4.935352
_cell_angle_alpha 90.000000
_cell_angle_beta 90.000000
_cell_angle_gamma 90.000000
_cell_volume 1791.638525
_symmetry_space_group_name_H-M "I M M A"
_symmetry_group_IT_number 74
_symmetry_cell_setting 'orthorhombic'
loop_
_space_group_symop_operation_xyz
x,y,z
-x,1/2-y,z
x,-y,-z
-x,1/2+y,-z
-x,-y,-z
x,1/2+y,-z
-x,y,z
x,1/2-y,z
1/2+x,1/2+y,1/2+z
1/2-x,-y,1/2+z
1/2+x,1/2-y,1/2-z
1/2-x,y,1/2-z
1/2-x,1/2-y,1/2-z
1/2+x,y,1/2-z
1/2-x,1/2+y,1/2+z
1/2+x,-y,1/2+z
loop_
_atom_site_type_symbol
_atom_site_label
_atom_site_fract_x
_atom_site_fract_y
_atom_site_fract_z
Si Si1 0.843298 0.062340 0.140086
Si Si2 0.595227 0.630598 0.136636
Si Si3 0.688539 0.250000 0.000069
O O1 0.750000 0.058464 0.250000
O O2 0.895781 0.081356 0.400270
O O3 0.853898 0.110645 0.901337
O O4 0.866776 0.000000 0.000000
O O5 0.500000 0.637633 0.213966
O O6 0.632293 0.691290 0.015854
O O7 0.750000 0.250000 0.750000
O O8 0.750000 0.250000 0.250000
#
# Coordination Sequence:
#
# PCOD9540669 Si02
#       3
#    16  16   8
#     4  12  25  44  70  98 134 180 227 273 327 400
#     4  12  26  44  68 101 138 174 221 280 340 394
#     4  12  25  44  71  96 129 176 225 270 325 398
#
# _framework density 22.325932000000002
#
# number of rings (size 3 to 8) (size 9 to 14) (size 15 to 20)
#    0.000    0.000    0.000   12.600    0.000    4.800 
#    0.000    6.000    0.000    0.000    0.000    0.000 
#    0.000    0.000    0.000    0.000    0.000    0.000 
#
# Total GULP energy -112123.417729 kJ/mol
# GULP energy per Si atom -5606.170886 kJ/mol
# Density = 2.227512 g / cm^3
# Si number density = 22.325932 Si / 1000 Ang^3
#
#
#
# Elastic Constant Matrix: (Units=GPa)
#
#
# Indices 1 2 3 4 5 6 
#
# 1 47.3546 24.5154 5.9637 0.0000 0.0000 0.0000
# 2 24.5154 97.3530 27.1468 0.0000 0.0000 0.0000
# 3 5.9637 27.1468 145.4679 0.0000 0.0000 0.0000
# 4 0.0000 0.0000 0.0000 39.3887 0.0000 0.0000
# 5 0.0000 0.0000 0.0000 0.0000 30.3353 0.0000
# 6 0.0000 0.0000 0.0000 0.0000 0.0000 -136.3698
#
#
#
# Elastic Compliance Matrix: (Units=1/GPa)
#
#
# Indices 1 2 3 4 5 6 
#
# 1 0.024286 -0.006159 0.000154 0.000000 0.000000 0.000000
# 2 -0.006159 0.012397 -0.002061 0.000000 0.000000 0.000000
# 3 0.000154 -0.002061 0.007253 0.000000 0.000000 0.000000
# 4 0.000000 0.000000 0.000000 0.025388 0.000000 0.000000
# 5 0.000000 0.000000 0.000000 0.000000 0.032965 0.000000
# 6 0.000000 0.000000 0.000000 0.000000 0.000000 -0.007333
#
#
# Mechanical properties :
#
#
# Convention : Reuss Voigt Hill
#
# Bulk Modulus (GPa) = 35.96566 45.04750 40.50658
# Shear Modulus (GPa) = 41.54322 2.17413 21.85867
#
# Velocity S-wave (km/s) = 4.31833 0.98789 3.13241
# Velocity P-wave (km/s) = 6.40378 4.63921 5.59154
#
# Compressibility (1/GPa) = 0.02780430
#
# Stress axis : x y z
#
# Youngs Moduli (GPa) = 41.17562 80.66144 137.87955
#
# Poissons Ratio (x) = 0.49676 -0.02118
# Poissons Ratio (y) = 0.25358 0.28418
# Poissons Ratio (z) = -0.00633 0.16625
#
# Static dielectric constant tensor:
#      x y z
#    x 1.778550 0.000000 0.000000 
#    y 0.000000 1.867160 0.000000 
#    z 0.000000 0.000000 1.771040 
# 
# From -- ./inp_files/1146.got.cif
#   From: 2010.05.17/outbox.cif.g08.bks.cpg/sg74_1_cif.got.tgz:1146.got - 2010.06.03 17:57:02.
