data_PCOD9540854
_publ_section_title
;
Structure prediction by ZEFSAII (Michael W. Deem and Ramdas Pophale) SiO2 
 PCOD9540854
Probable space group: I M M A
;
_chemical_formula_sum "Si O2"
_cell_formula_units_Z 44
_cell_length_a 24.000000
_cell_length_b 15.000000
_cell_length_c 12.000000
_cell_angle_alpha 90.000000
_cell_angle_beta 90.000000
_cell_angle_gamma 90.000000
_cell_volume 4320.000000
_symmetry_space_group_name_H-M "I M M A"
_symmetry_group_IT_number 74
_symmetry_cell_setting 'orthorhombic'
loop_
_space_group_symop_operation_xyz
x,y,z
-x,1/2-y,z
x,-y,-z
-x,1/2+y,-z
-x,-y,-z
x,1/2+y,-z
-x,y,z
x,1/2-y,z
1/2+x,1/2+y,1/2+z
1/2-x,-y,1/2+z
1/2+x,1/2-y,1/2-z
1/2-x,y,1/2-z
1/2-x,1/2-y,1/2-z
1/2+x,y,1/2-z
1/2-x,1/2+y,1/2+z
1/2+x,-y,1/2+z
loop_
_atom_site_type_symbol
_atom_site_label
_atom_site_fract_x
_atom_site_fract_y
_atom_site_fract_z
Si Si1 0.266995 0.647650 0.533124
Si Si2 0.334042 0.427039 0.903731
Si Si3 0.115560 0.145271 0.943731
Si Si4 0.932929 0.650100 0.807124
Si Si5 0.250000 0.973038 0.750000
Si Si6 0.433664 0.045076 0.764674
O O1 0.276513 0.750000 0.565215
O O2 0.209615 0.639022 0.463864
O O3 0.319313 0.620047 0.456141
O O4 0.266327 0.587824 0.643932
O O5 0.299897 0.467632 0.799102
O O6 0.394448 0.404552 0.854021
O O7 0.342885 0.500000 0.000000
O O8 0.111948 0.250000 0.910969
O O9 0.090621 0.138055 0.068169
O O10 0.082773 0.085397 0.855676
O O11 0.914947 0.750000 0.767678
O O12 0.918658 0.561288 0.736988
O O13 0.000000 0.651023 0.813663
O O14 0.500000 0.054010 0.783392
#
# Coordination Sequence:
#
# PCOD9540854 Si02
#       6
#    16  16  16  16   8  16
#     4  10  21  37  59  86 115 148 187 234 284 338
#     4  10  22  38  56  81 111 143 183 233 283 335
#     4  10  20  33  53  84 117 147 183 228 279 336
#     4   9  18  33  54  83 115 143 180 232 282 331
#     4  10  19  36  61  84 112 146 182 226 285 350
#     4  11  22  36  56  79 109 153 195 230 279 337
#
# _framework density 10.185185000000001
#
# number of rings (size 3 to 8) (size 9 to 14) (size 15 to 20)
#    0.000    2.000    0.000    3.545    0.000    6.545 
#    0.000    5.909    0.000    0.000    0.000    3.818 
#    0.000    0.000    0.000    0.000    0.000    0.000 
#
# Total GULP energy -245700.955162 kJ/mol
# GULP energy per Si atom -5584.112617 kJ/mol
# Density = 1.016200 g / cm^3
# Si number density = 10.185185 Si / 1000 Ang^3
#
#
#
# Elastic Constant Matrix: (Units=GPa)
#
#
# Indices 1 2 3 4 5 6 
#
# 1 90.4222 12.0290 23.5771 0.0000 0.0000 0.0000
# 2 12.0290 55.5699 10.3740 0.0000 0.0000 0.0000
# 3 23.5771 10.3740 61.2530 0.0000 0.0000 0.0000
# 4 0.0000 0.0000 0.0000 9.6291 0.0000 0.0000
# 5 0.0000 0.0000 0.0000 0.0000 31.7795 0.0000
# 6 0.0000 0.0000 0.0000 0.0000 0.0000 25.7583
#
#
#
# Elastic Compliance Matrix: (Units=1/GPa)
#
#
# Indices 1 2 3 4 5 6 
#
# 1 0.012477 -0.001863 -0.004487 0.000000 0.000000 0.000000
# 2 -0.001863 0.018861 -0.002477 0.000000 0.000000 0.000000
# 3 -0.004487 -0.002477 0.018472 0.000000 0.000000 0.000000
# 4 0.000000 0.000000 0.000000 0.103852 0.000000 0.000000
# 5 0.000000 0.000000 0.000000 0.000000 0.031467 0.000000
# 6 0.000000 0.000000 0.000000 0.000000 0.000000 0.038822
#
#
# Mechanical properties :
#
#
# Convention : Reuss Voigt Hill
#
# Bulk Modulus (GPa) = 31.09868 33.24503 32.17186
# Shear Modulus (GPa) = 19.81567 24.18438 22.00002
#
# Velocity S-wave (km/s) = 3.12231 3.44936 3.28990
# Velocity P-wave (km/s) = 5.31960 5.67625 5.50082
#
# Compressibility (1/GPa) = 0.03215570
#
# Stress axis : x y z
#
# Youngs Moduli (GPa) = 80.14701 53.01909 54.13479
#
# Poissons Ratio (x) = 0.09878 0.24291
# Poissons Ratio (y) = 0.14933 0.13410
# Poissons Ratio (z) = 0.35962 0.13134
#
# Static dielectric constant tensor:
#      x y z
#    x 1.756400 0.000000 0.000000 
#    y 0.000000 1.759730 0.000000 
#    z 0.000000 0.000000 1.689670 
# 
# From -- ./inp_files/24986.got.cif
#   From: 2010.05.17/outbox.ucp.g08.bks.cvg/sg74_13_cif.got.tgz:24986.got - 2010.06.11 16:37:44.
