data_PCOD9540652
_publ_section_title
;
Structure prediction by ZEFSAII (Michael W. Deem and Ramdas Pophale) SiO2 
 PCOD9540652
Probable space group: I M M A
;
_chemical_formula_sum "Si O2"
_cell_formula_units_Z 40
_cell_length_a 19.033581
_cell_length_b 10.189341
_cell_length_c 9.566734
_cell_angle_alpha 90.000000
_cell_angle_beta 90.000000
_cell_angle_gamma 90.000000
_cell_volume 1855.369017
_symmetry_space_group_name_H-M "I M M A"
_symmetry_group_IT_number 74
_symmetry_cell_setting 'orthorhombic'
loop_
_space_group_symop_operation_xyz
x,y,z
-x,1/2-y,z
x,-y,-z
-x,1/2+y,-z
-x,-y,-z
x,1/2+y,-z
-x,y,z
x,1/2-y,z
1/2+x,1/2+y,1/2+z
1/2-x,-y,1/2+z
1/2+x,1/2-y,1/2-z
1/2-x,y,1/2-z
1/2-x,1/2-y,1/2-z
1/2+x,y,1/2-z
1/2-x,1/2+y,1/2+z
1/2+x,-y,1/2+z
loop_
_atom_site_type_symbol
_atom_site_label
_atom_site_fract_x
_atom_site_fract_y
_atom_site_fract_z
Si Si1 0.421220 0.750000 0.523277
Si Si2 0.774347 0.750000 0.091748
Si Si3 0.692088 0.500000 0.000000
Si Si4 0.579170 0.099376 0.202487
O O1 0.500000 0.750000 0.465650
O O2 0.358111 0.750000 0.417698
O O3 0.414010 0.627211 0.631780
O O4 0.750000 0.750000 0.250000
O O5 0.741318 0.875222 0.015906
O O6 0.640027 0.516467 0.867658
O O7 0.500000 0.050277 0.175507
O O8 0.583713 0.250000 0.143793
#
# Coordination Sequence:
#
# PCOD9540652 Si02
#       4
#     8   8   8  16
#     4   8  19  45  69  91 126 182 229 270 339 405
#     4  12  29  41  65 103 131 176 231 282 345 399
#     4  12  23  42  63  98 146 168 218 288 337 406
#     4   8  17  36  67  96 123 176 224 264 334 400
#
# _framework density 21.559055000000001
#
# number of rings (size 3 to 8) (size 9 to 14) (size 15 to 20)
#    1.200    1.200    2.000    0.600    5.600    1.600 
#    0.000    5.000    0.000    0.000    0.000    0.000 
#    0.000    0.000    0.000    0.000    0.000    0.000 
#
# Total GULP energy -111618.276268 kJ/mol
# GULP energy per Si atom -5580.913813 kJ/mol
# Density = 2.150999 g / cm^3
# Si number density = 21.559055 Si / 1000 Ang^3
#
#
#
# Elastic Constant Matrix: (Units=GPa)
#
#
# Indices 1 2 3 4 5 6 
#
# 1 201.7013 44.2784 61.3544 0.0000 0.0000 0.0000
# 2 44.2784 88.3284 8.9274 0.0000 0.0000 0.0000
# 3 61.3544 8.9274 55.8229 0.0000 0.0000 0.0000
# 4 0.0000 0.0000 0.0000 -3.2456 0.0000 0.0000
# 5 0.0000 0.0000 0.0000 0.0000 44.1829 0.0000
# 6 0.0000 0.0000 0.0000 0.0000 0.0000 -22.7625
#
#
#
# Elastic Compliance Matrix: (Units=1/GPa)
#
#
# Indices 1 2 3 4 5 6 
#
# 1 0.008292 -0.003289 -0.008588 0.000000 0.000000 0.000000
# 2 -0.003289 0.012812 0.001566 0.000000 0.000000 0.000000
# 3 -0.008588 0.001566 0.027102 0.000000 0.000000 0.000000
# 4 0.000000 0.000000 0.000000 -0.308107 0.000000 0.000000
# 5 0.000000 0.000000 0.000000 0.000000 0.022633 0.000000
# 6 0.000000 0.000000 0.000000 0.000000 0.000000 -0.043932
#
#
# Mechanical properties :
#
#
# Convention : Reuss Voigt Hill
#
# Bulk Modulus (GPa) = 36.25238 63.88589 50.06914
# Shear Modulus (GPa) = -19.88997 19.05445 -0.41776
#
# Velocity S-wave (km/s) = -3.04070 2.97615 -0.44068
# Velocity P-wave (km/s) = 2.12699 6.44261 4.79746
#
# Compressibility (1/GPa) = 0.02758439
#
# Stress axis : x y z
#
# Youngs Moduli (GPa) = 120.59727 78.05323 36.89746
#
# Poissons Ratio (x) = 0.25670 0.31687
# Poissons Ratio (y) = 0.39662 -0.05777
# Poissons Ratio (z) = 1.03566 -0.12221
#
# Static dielectric constant tensor:
#      x y z
#    x 1.737640 0.000000 0.000000 
#    y 0.000000 1.808040 0.000000 
#    z 0.000000 0.000000 1.800630 
# 
# From -- ./inp_files/21271.got.cif
#   From: 2010.05.17/outbox.cif.g08.bks.cpg/sg74_11_cif.got.tgz:21271.got - 2010.06.03 17:57:02.
