data_PCOD9540076
_publ_section_title
;
Structure prediction by ZEFSAII (Michael W. Deem and Ramdas Pophale) SiO2 
 PCOD9540076
Probable space group: I M M A
;
_chemical_formula_sum "Si O2"
_cell_formula_units_Z 64
_cell_length_a 21.127692
_cell_length_b 10.368129
_cell_length_c 15.265672
_cell_angle_alpha 90.000000
_cell_angle_beta 90.000000
_cell_angle_gamma 90.000000
_cell_volume 3344.016225
_symmetry_space_group_name_H-M "I M M A"
_symmetry_group_IT_number 74
_symmetry_cell_setting 'orthorhombic'
loop_
_space_group_symop_operation_xyz
x,y,z
-x,1/2-y,z
x,-y,-z
-x,1/2+y,-z
-x,-y,-z
x,1/2+y,-z
-x,y,z
x,1/2-y,z
1/2+x,1/2+y,1/2+z
1/2-x,-y,1/2+z
1/2+x,1/2-y,1/2-z
1/2-x,y,1/2-z
1/2-x,1/2-y,1/2-z
1/2+x,y,1/2-z
1/2-x,1/2+y,1/2+z
1/2+x,-y,1/2+z
loop_
_atom_site_type_symbol
_atom_site_label
_atom_site_fract_x
_atom_site_fract_y
_atom_site_fract_z
Si Si1 0.636772 0.005197 0.895155
Si Si2 0.394022 0.500000 0.500000
Si Si3 0.779604 0.750000 0.345257
Si Si4 0.294195 0.250000 0.163649
Si Si5 0.691064 0.750000 0.511120
Si Si6 0.000000 0.596714 0.128487
Si Si7 0.000000 0.404258 0.662481
O O1 0.677219 0.124996 0.859683
O O2 0.563323 0.032478 0.875796
O O3 0.662418 0.876550 0.848180
O O4 0.646619 0.000000 0.000000
O O5 0.351130 0.622885 0.520798
O O6 0.439133 0.464760 0.581542
O O7 0.750000 0.750000 0.250000
O O8 0.723833 0.750000 0.416425
O O9 0.250000 0.250000 0.250000
O O10 0.246218 0.250000 0.082122
O O11 0.000000 0.750000 0.110060
O O12 0.000000 0.579083 0.232378
O O13 0.000000 0.250000 0.644078
#
# Coordination Sequence:
#
# PCOD9540076 Si02
#       7
#    16   8   8   8   8   8   8
#     4  12  24  49  68 101 138 179 227 286 342 400
#     4  11  24  40  70  92 138 173 218 276 350 393
#     4  12  26  43  76 100 136 185 236 276 330 411
#     4  12  28  45  68 102 146 175 218 282 348 411
#     4  12  24  43  68 101 132 180 222 276 338 410
#     4  10  23  45  63 102 129 172 229 288 320 406
#     4  11  26  43  75  96 127 178 242 283 323 397
#
# _framework density 19.138662
#
# number of rings (size 3 to 8) (size 9 to 14) (size 15 to 20)
#    0.000    0.500    5.000    2.625    7.000    0.500 
#    0.000    1.250    0.000    0.000    0.000    0.000 
#    0.000    0.000    0.000    0.000    0.000    0.000 
#
# Total GULP energy -179091.623748 kJ/mol
# GULP energy per Si atom -5596.613242 kJ/mol
# Density = 1.909510 g / cm^3
# Si number density = 19.138662 Si / 1000 Ang^3
#
#
#
# Elastic Constant Matrix: (Units=GPa)
#
#
# Indices 1 2 3 4 5 6 
#
# 1 153.4365 95.6925 61.0172 0.0000 0.0000 0.0000
# 2 95.6925 191.3436 53.0164 0.0000 0.0000 0.0000
# 3 61.0172 53.0164 134.9793 0.0000 0.0000 0.0000
# 4 0.0000 0.0000 0.0000 10.6745 0.0000 0.0000
# 5 0.0000 0.0000 0.0000 0.000022010.0620 0.0000
# 6 0.0000 0.0000 0.0000 0.0000 0.0000 46.5400
#
#
#
# Elastic Compliance Matrix: (Units=1/GPa)
#
#
# Indices 1 2 3 4 5 6 
#
# 1 0.010451 -0.004396 -0.002998 0.000000 0.000000 0.000000
# 2 -0.004396 0.007714 -0.001042 0.000000 0.000000 0.000000
# 3 -0.002998 -0.001042 0.009173 0.000000 0.000000 0.000000
# 4 0.000000 0.000000 0.000000 0.093681 0.000000 0.000000
# 5 0.000000 0.000000 0.000000 0.000000 0.000045 0.000000
# 6 0.000000 0.000000 0.000000 0.000000 0.000000 0.021487
#
#
# Mechanical properties :
#
#
# Convention : Reuss Voigt Hill
#
# Bulk Modulus (GPa) = 95.55439 99.91240 97.73339
# Shear Modulus (GPa) = 30.69142 4431.45753 2231.07447
#
# Velocity S-wave (km/s) = 4.00889 48.17130 34.18001
# Velocity P-wave (km/s) = 8.45364 56.09175 40.11077
#
# Compressibility (1/GPa) = 0.01046524
#
# Stress axis : x y z
#
# Youngs Moduli (GPa) = 95.68312 129.64179 109.01421
#
# Poissons Ratio (x) = 0.56992 0.32680
# Poissons Ratio (y) = 0.42063 0.11364
# Poissons Ratio (z) = 0.28683 0.13514
#
# Static dielectric constant tensor:
#      x y z
#    x 1.634230 0.000000 0.000000 
#    y 0.000000 1.592900 0.000000 
#    z 0.000000 0.000000 1.634200 
# 
# From -- ./inp_files/33661.got.cif
#   From: 2010.05.17/outbox.cif.g08.bks.cpg/sg74_17_cif.got.tgz:33661.got - 2010.06.03 17:57:02.
