data_PCOD9540449
_publ_section_title
;
Structure prediction by ZEFSAII (Michael W. Deem and Ramdas Pophale) SiO2 
 PCOD9540449
Probable space group: I M M A
;
_chemical_formula_sum "Si O2"
_cell_formula_units_Z 48
_cell_length_a 22.335067
_cell_length_b 21.992899
_cell_length_c 4.905036
_cell_angle_alpha 90.000000
_cell_angle_beta 90.000000
_cell_angle_gamma 90.000000
_cell_volume 2409.416824
_symmetry_space_group_name_H-M "I M M A"
_symmetry_group_IT_number 74
_symmetry_cell_setting 'orthorhombic'
loop_
_space_group_symop_operation_xyz
x,y,z
-x,1/2-y,z
x,-y,-z
-x,1/2+y,-z
-x,-y,-z
x,1/2+y,-z
-x,y,z
x,1/2-y,z
1/2+x,1/2+y,1/2+z
1/2-x,-y,1/2+z
1/2+x,1/2-y,1/2-z
1/2-x,y,1/2-z
1/2-x,1/2-y,1/2-z
1/2+x,y,1/2-z
1/2-x,1/2+y,1/2+z
1/2+x,-y,1/2+z
loop_
_atom_site_type_symbol
_atom_site_label
_atom_site_fract_x
_atom_site_fract_y
_atom_site_fract_z
Si Si1 0.894058 0.142780 0.747276
Si Si2 0.500000 0.928071 0.022868
Si Si3 0.000000 0.814256 0.900550
Si Si4 0.179552 0.320959 0.212546
O O1 0.860766 0.168522 0.481381
O O2 0.937301 0.087360 0.670945
O O3 0.844122 0.134921 0.976840
O O4 0.942554 0.184365 0.903959
O O5 0.500000 0.875913 0.781701
O O6 0.500000 0.000000 0.000000
O O7 0.000000 0.750000 0.741513
O O8 0.173120 0.250000 0.128188
O O9 0.250000 0.330957 0.250000
#
# Coordination Sequence:
#
# PCOD9540449 Si02
#       4
#    16   8   8  16
#     4  11  23  39  62  97 129 171 217 268 324 394
#     4  11  26  45  68  98 131 179 222 268 336 401
#     4  11  22  38  65 100 135 165 212 280 338 389
#     4  11  22  38  62  97 138 174 213 266 329 393
#
# _framework density 19.921835000000002
#
# number of rings (size 3 to 8) (size 9 to 14) (size 15 to 20)
#    0.000    1.000    3.333    4.000    0.000    9.333 
#    0.000    0.000    0.000    4.000    0.000    0.000 
#    0.000    0.000    0.000    0.000    0.000    0.000 
#
# Total GULP energy -133738.186725 kJ/mol
# GULP energy per Si atom -5572.424447 kJ/mol
# Density = 1.987649 g / cm^3
# Si number density = 19.921835 Si / 1000 Ang^3
#
#
#
# Elastic Constant Matrix: (Units=GPa)
#
#
# Indices 1 2 3 4 5 6 
#
# 1 159.2301 65.3742 42.6905 0.0000 0.0000 0.0000
# 2 65.3742 149.0305 54.9409 0.0000 0.0000 0.0000
# 3 42.6905 54.9409 106.6557 0.0000 0.0000 0.0000
# 4 0.0000 0.0000 0.0000 10.7635 0.0000 0.0000
# 5 0.0000 0.0000 0.0000 0.0000 32.9980 0.0000
# 6 0.0000 0.0000 0.0000 0.0000 0.0000 9.8866
#
#
#
# Elastic Compliance Matrix: (Units=1/GPa)
#
#
# Indices 1 2 3 4 5 6 
#
# 1 0.007902 -0.002839 -0.001700 0.000000 0.000000 0.000000
# 2 -0.002839 0.009303 -0.003656 0.000000 0.000000 0.000000
# 3 -0.001700 -0.003656 0.011940 0.000000 0.000000 0.000000
# 4 0.000000 0.000000 0.000000 0.092907 0.000000 0.000000
# 5 0.000000 0.000000 0.000000 0.000000 0.030305 0.000000
# 6 0.000000 0.000000 0.000000 0.000000 0.000000 0.101147
#
#
# Mechanical properties :
#
#
# Convention : Reuss Voigt Hill
#
# Bulk Modulus (GPa) = 78.40708 82.32529 80.36619
# Shear Modulus (GPa) = 18.23849 27.52367 22.88108
#
# Velocity S-wave (km/s) = 3.02901 3.72100 3.39269
# Velocity P-wave (km/s) = 7.18860 7.73789 7.46830
#
# Compressibility (1/GPa) = 0.01275395
#
# Stress axis : x y z
#
# Youngs Moduli (GPa) = 126.55305 107.48810 83.75435
#
# Poissons Ratio (x) = 0.30521 0.14239
# Poissons Ratio (y) = 0.35934 0.30619
# Poissons Ratio (z) = 0.21516 0.39296
#
# Static dielectric constant tensor:
#      x y z
#    x 1.749330 0.000000 0.000000 
#    y 0.000000 1.733190 0.000000 
#    z 0.000000 0.000000 1.792250 
# 
# From -- ./inp_files/2699.got.cif
#   From: 2010.05.17/outbox.cif.g08.bks.cpg/sg74_2_cif.got.tgz:2699.got - 2010.06.03 17:57:02.
