data_PCOD9540198
_publ_section_title
;
Structure prediction by ZEFSAII (Michael W. Deem and Ramdas Pophale) SiO2 
 PCOD9540198
Probable space group: I M M A
;
_chemical_formula_sum "Si O2"
_cell_formula_units_Z 64
_cell_length_a 14.746727
_cell_length_b 20.542036
_cell_length_c 11.529830
_cell_angle_alpha 90.000000
_cell_angle_beta 90.000000
_cell_angle_gamma 90.000000
_cell_volume 3492.706001
_symmetry_space_group_name_H-M "I M M A"
_symmetry_group_IT_number 74
_symmetry_cell_setting 'orthorhombic'
loop_
_space_group_symop_operation_xyz
x,y,z
-x,1/2-y,z
x,-y,-z
-x,1/2+y,-z
-x,-y,-z
x,1/2+y,-z
-x,y,z
x,1/2-y,z
1/2+x,1/2+y,1/2+z
1/2-x,-y,1/2+z
1/2+x,1/2-y,1/2-z
1/2-x,y,1/2-z
1/2-x,1/2-y,1/2-z
1/2+x,y,1/2-z
1/2-x,1/2+y,1/2+z
1/2+x,-y,1/2+z
loop_
_atom_site_type_symbol
_atom_site_label
_atom_site_fract_x
_atom_site_fract_y
_atom_site_fract_z
Si Si1 0.651966 0.992875 0.309523
Si Si2 0.898243 0.943212 0.578570
Si Si3 0.607433 0.103390 0.497452
Si Si4 0.265151 0.323792 0.111059
O O1 0.750000 0.985865 0.250000
O O2 0.622431 0.926751 0.374092
O O3 0.596023 0.023813 0.204397
O O4 0.642255 0.047738 0.408354
O O5 0.837629 0.879074 0.578776
O O6 0.000000 0.928892 0.536334
O O7 0.855966 0.000000 0.500000
O O8 0.500000 0.114657 0.480483
O O9 0.672970 0.162296 0.460875
O O10 0.296243 0.250000 0.090003
O O11 0.250000 0.330707 0.250000
#
# Coordination Sequence:
#
# PCOD9540198 Si02
#       4
#    16  16  16  16
#     4  11  19  33  57  84 118 146 194 244 297 343
#     4  11  21  36  59  86 116 153 197 245 295 352
#     4  11  21  35  57  85 117 156 197 246 293 345
#     4  11  23  37  55  84 120 158 193 237 301 360
#
# _framework density 18.323900999999999
#
# number of rings (size 3 to 8) (size 9 to 14) (size 15 to 20)
#    0.000    1.000    5.000    4.500    0.000    1.000 
#    0.000    2.500    0.000    6.750    0.000    7.000 
#    0.000    0.000    0.000    0.000    0.000    0.000 
#
# Total GULP energy -178383.149998 kJ/mol
# GULP energy per Si atom -5574.473437 kJ/mol
# Density = 1.828220 g / cm^3
# Si number density = 18.323901 Si / 1000 Ang^3
#
#
#
# Elastic Constant Matrix: (Units=GPa)
#
#
# Indices 1 2 3 4 5 6 
#
# 1 136.4866 58.0222 28.2288 0.0000 0.0000 0.0000
# 2 58.0222 139.1775 45.6488 0.0000 0.0000 0.0000
# 3 28.2288 45.6488 65.5922 0.0000 0.0000 0.0000
# 4 0.0000 0.0000 0.0000 23.5517 0.0000 0.0000
# 5 0.0000 0.0000 0.0000 0.0000 76.0987 0.0000
# 6 0.0000 0.0000 0.0000 0.0000 0.0000 14.5320
#
#
#
# Elastic Compliance Matrix: (Units=1/GPa)
#
#
# Indices 1 2 3 4 5 6 
#
# 1 0.009039 -0.003230 -0.001643 0.000000 0.000000 0.000000
# 2 -0.003230 0.010464 -0.005893 0.000000 0.000000 0.000000
# 3 -0.001643 -0.005893 0.020054 0.000000 0.000000 0.000000
# 4 0.000000 0.000000 0.000000 0.042460 0.000000 0.000000
# 5 0.000000 0.000000 0.000000 0.000000 0.013141 0.000000
# 6 0.000000 0.000000 0.000000 0.000000 0.000000 0.068814
#
#
# Mechanical properties :
#
#
# Convention : Reuss Voigt Hill
#
# Bulk Modulus (GPa) = 55.47089 67.22841 61.34965
# Shear Modulus (GPa) = 26.10823 36.79358 31.45090
#
# Velocity S-wave (km/s) = 3.77877 4.48588 4.14742
# Velocity P-wave (km/s) = 7.02687 7.97493 7.51586
#
# Compressibility (1/GPa) = 0.01802747
#
# Stress axis : x y z
#
# Youngs Moduli (GPa) = 110.62622 95.56361 49.86644
#
# Poissons Ratio (x) = 0.30865 0.08191
# Poissons Ratio (y) = 0.35729 0.29384
# Poissons Ratio (z) = 0.18171 0.56312
#
# Static dielectric constant tensor:
#      x y z
#    x 1.684930 0.000000 0.000000 
#    y 0.000000 1.627290 0.000000 
#    z 0.000000 0.000000 1.664880 
# 
# From -- ./inp_files/19944.got.cif
#   From: 2010.05.17/outbox.cif.g08.bks.cpg/sg74_10_cif.got.tgz:19944.got - 2010.06.03 17:57:02.
