data_PCOD9540750
_publ_section_title
;
Structure prediction by ZEFSAII (Michael W. Deem and Ramdas Pophale) SiO2 
 PCOD9540750
Probable space group: I M M A
;
_chemical_formula_sum "Si O2"
_cell_formula_units_Z 64
_cell_length_a 25.375153
_cell_length_b 7.709814
_cell_length_c 12.895193
_cell_angle_alpha 90.000000
_cell_angle_beta 90.000000
_cell_angle_gamma 90.000000
_cell_volume 2522.786027
_symmetry_space_group_name_H-M "I M M A"
_symmetry_group_IT_number 74
_symmetry_cell_setting 'orthorhombic'
loop_
_space_group_symop_operation_xyz
x,y,z
-x,1/2-y,z
x,-y,-z
-x,1/2+y,-z
-x,-y,-z
x,1/2+y,-z
-x,y,z
x,1/2-y,z
1/2+x,1/2+y,1/2+z
1/2-x,-y,1/2+z
1/2+x,1/2-y,1/2-z
1/2-x,y,1/2-z
1/2-x,1/2-y,1/2-z
1/2+x,y,1/2-z
1/2-x,1/2+y,1/2+z
1/2+x,-y,1/2+z
loop_
_atom_site_type_symbol
_atom_site_label
_atom_site_fract_x
_atom_site_fract_y
_atom_site_fract_z
Si Si1 0.563025 0.942206 0.112930
Si Si2 0.169992 0.962914 0.829371
Si Si3 0.784982 0.043245 0.387964
Si Si4 0.058628 0.552333 0.841321
O O1 0.500000 0.930281 0.100872
O O2 0.582962 0.750000 0.136531
O O3 0.567743 0.056158 0.216216
O O4 0.582269 0.000000 0.000000
O O5 0.167719 0.750000 0.833826
O O6 0.180496 0.015799 0.709410
O O7 0.224584 0.021677 0.881202
O O8 0.114478 0.028355 0.875166
O O9 0.782250 0.250000 0.376914
O O10 0.806050 0.000000 0.500000
O O11 0.056022 0.750000 0.879564
O O12 0.000000 0.473912 0.860099
#
# Coordination Sequence:
#
# PCOD9540750 Si02
#       4
#    16  16  16  16
#     4   9  16  25  36  52  78 113 150 184 218 259
#     4   8  16  31  49  69  94 123 152 185 230 279
#     4   9  17  32  52  70  91 120 154 192 232 272
#     4   9  16  27  44  64  86 115 150 184 220 267
#
# _framework density 25.368780999999998
#
# number of rings (size 3 to 8) (size 9 to 14) (size 15 to 20)
#    0.000    3.250    0.000    2.250    0.000    4.000 
#    0.000    7.500    0.000    0.750    0.000    0.000 
#    0.000    0.000    0.000    0.000    0.000    0.000 
#
# Total GULP energy -178425.978044 kJ/mol
# GULP energy per Si atom -5575.811814 kJ/mol
# Density = 2.531104 g / cm^3
# Si number density = 25.368781 Si / 1000 Ang^3
#
#
#
# Elastic Constant Matrix: (Units=GPa)
#
#
# Indices 1 2 3 4 5 6 
#
# 1 259.0171 5.9617 10.2849 0.0000 0.0000 0.0000
# 2 5.9617 55.8101 -8.9463 0.0000 0.0000 0.0000
# 3 10.2849 -8.9463 81.5668 0.0000 0.0000 0.0000
# 4 0.0000 0.0000 0.0000 5.9764 0.0000 0.0000
# 5 0.0000 0.0000 0.0000 0.0000 -20.8603 0.0000
# 6 0.0000 0.0000 0.0000 0.0000 0.0000 4.8068
#
#
#
# Elastic Compliance Matrix: (Units=1/GPa)
#
#
# Indices 1 2 3 4 5 6 
#
# 1 0.003894 -0.000504 -0.000546 0.000000 0.000000 0.000000
# 2 -0.000504 0.018304 0.002071 0.000000 0.000000 0.000000
# 3 -0.000546 0.002071 0.012556 0.000000 0.000000 0.000000
# 4 0.000000 0.000000 0.000000 0.167326 0.000000 0.000000
# 5 0.000000 0.000000 0.000000 0.000000 -0.047938 0.000000
# 6 0.000000 0.000000 0.000000 0.000000 0.000000 0.208039
#
#
# Mechanical properties :
#
#
# Convention : Reuss Voigt Hill
#
# Bulk Modulus (GPa) = 27.17668 45.66605 36.42137
# Shear Modulus (GPa) = 13.42631 23.92414 18.67522
#
# Velocity S-wave (km/s) = 2.30303 3.07425 2.71615
# Velocity P-wave (km/s) = 4.21993 5.53546 4.92185
#
# Compressibility (1/GPa) = 0.03679625
#
# Stress axis : x y z
#
# Youngs Moduli (GPa) = 256.80347 54.63379 79.64367
#
# Poissons Ratio (x) = 0.02751 0.04350
# Poissons Ratio (y) = 0.12931 -0.16495
# Poissons Ratio (z) = 0.14027 -0.11315
#
# Static dielectric constant tensor:
#      x y z
#    x 2.073530 0.000000 0.000000 
#    y 0.000000 1.951840 0.000000 
#    z 0.000000 0.000000 2.057060 
# 
# From -- ./inp_files/26758.got.cif
#   From: 2010.05.17/outbox.cif.g08.bks.cpg/sg74_14_cif.got.tgz:26758.got - 2010.06.03 17:57:02.
