data_PCOD9540561
_publ_section_title
;
Structure prediction by ZEFSAII (Michael W. Deem and Ramdas Pophale) SiO2 
 PCOD9540561
Probable space group: I M M A
;
_chemical_formula_sum "Si O2"
_cell_formula_units_Z 72
_cell_length_a 10.247909
_cell_length_b 24.140051
_cell_length_c 15.358605
_cell_angle_alpha 90.000000
_cell_angle_beta 90.000000
_cell_angle_gamma 90.000000
_cell_volume 3799.489203
_symmetry_space_group_name_H-M "I M M A"
_symmetry_group_IT_number 74
_symmetry_cell_setting 'orthorhombic'
loop_
_space_group_symop_operation_xyz
x,y,z
-x,1/2-y,z
x,-y,-z
-x,1/2+y,-z
-x,-y,-z
x,1/2+y,-z
-x,y,z
x,1/2-y,z
1/2+x,1/2+y,1/2+z
1/2-x,-y,1/2+z
1/2+x,1/2-y,1/2-z
1/2-x,y,1/2-z
1/2-x,1/2-y,1/2-z
1/2+x,y,1/2-z
1/2-x,1/2+y,1/2+z
1/2+x,-y,1/2+z
loop_
_atom_site_type_symbol
_atom_site_label
_atom_site_fract_x
_atom_site_fract_y
_atom_site_fract_z
Si Si1 0.724810 0.651611 0.959354
Si Si2 0.000000 0.183608 0.958697
Si Si3 0.345750 0.970069 0.907032
Si Si4 0.150835 0.250000 0.329633
Si Si5 0.000000 0.183189 0.590476
Si Si6 0.250000 0.545249 0.250000
Si Si7 0.000000 0.876571 0.226679
O O1 0.711899 0.591056 0.918320
O O2 0.678282 0.696826 0.889591
O O3 0.870126 0.664432 0.991288
O O4 0.625823 0.658411 0.040830
O O5 0.000000 0.250000 0.953139
O O6 0.000000 0.157299 0.862739
O O7 0.500000 0.965619 0.887225
O O8 0.278897 0.006481 0.832767
O O9 0.332415 0.000000 0.000000
O O10 0.250000 0.250000 0.250000
O O11 0.000000 0.250000 0.301323
O O12 0.000000 0.163922 0.689968
O O13 0.000000 0.250000 0.582422
O O14 0.126346 0.584345 0.232538
#
# Coordination Sequence:
#
# PCOD9540561 Si02
#       7
#    16   8  16   8   8   8   8
#     4  12  24  45  71  97 138 179 228 280 345 409
#     4  12  25  43  66 105 145 180 221 285 345 402
#     4  11  23  44  71  96 130 179 225 275 341 406
#     4  12  26  46  72  99 129 172 226 283 345 412
#     4  12  21  43  72  99 135 188 233 277 331 414
#     4  12  26  44  67 103 138 176 236 290 334 410
#     4  12  25  42  68 102 142 183 232 280 336 400
#
# _framework density 18.949915000000001
#
# number of rings (size 3 to 8) (size 9 to 14) (size 15 to 20)
#    0.000    0.222    5.556    4.333    3.111    0.889 
#    0.000    5.556    0.000    0.000    0.000    0.000 
#    0.000    0.000    0.000    0.000    0.000    0.000 
#
# Total GULP energy -201553.753731 kJ/mol
# GULP energy per Si atom -5598.715381 kJ/mol
# Density = 1.890678 g / cm^3
# Si number density = 18.949915 Si / 1000 Ang^3
#
#
#
# Elastic Constant Matrix: (Units=GPa)
#
#
# Indices 1 2 3 4 5 6 
#
# 1 170.3985 35.2590 49.6101 0.0000 0.0000 0.0000
# 2 35.2590 74.7080 8.0435 0.0000 0.0000 0.0000
# 3 49.6101 8.0435 86.7953 0.0000 0.0000 0.0000
# 4 0.0000 0.0000 0.0000 46.2943 0.0000 0.0000
# 5 0.0000 0.0000 0.0000 0.0000 9.4625 0.0000
# 6 0.0000 0.0000 0.0000 0.0000 0.0000 47.8381
#
#
#
# Elastic Compliance Matrix: (Units=1/GPa)
#
#
# Indices 1 2 3 4 5 6 
#
# 1 0.007732 -0.003205 -0.004122 0.000000 0.000000 0.000000
# 2 -0.003205 0.014849 0.000456 0.000000 0.000000 0.000000
# 3 -0.004122 0.000456 0.013835 0.000000 0.000000 0.000000
# 4 0.000000 0.000000 0.000000 0.021601 0.000000 0.000000
# 5 0.000000 0.000000 0.000000 0.000000 0.105680 0.000000
# 6 0.000000 0.000000 0.000000 0.000000 0.000000 0.020904
#
#
# Mechanical properties :
#
#
# Convention : Reuss Voigt Hill
#
# Bulk Modulus (GPa) = 44.10525 57.52523 50.81524
# Shear Modulus (GPa) = 24.28328 36.65159 30.46744
#
# Velocity S-wave (km/s) = 3.58361 4.40265 4.01407
# Velocity P-wave (km/s) = 6.35989 7.50112 6.95395
#
# Compressibility (1/GPa) = 0.02267304
#
# Stress axis : x y z
#
# Youngs Moduli (GPa) = 129.33167 67.34391 72.27851
#
# Poissons Ratio (x) = 0.21586 0.29796
# Poissons Ratio (y) = 0.41455 -0.03296
# Poissons Ratio (z) = 0.53316 -0.03071
#
# Static dielectric constant tensor:
#      x y z
#    x 1.638800 0.000000 0.000000 
#    y 0.000000 1.638510 0.000000 
#    z 0.000000 0.000000 1.616350 
# 
# From -- ./inp_files/29258.got.cif
#   From: 2010.05.17/outbox.cif.g08.bks.cpg/sg74_15_cif.got.tgz:29258.got - 2010.06.03 17:57:02.
