data_PCOD9540345
_publ_section_title
;
Structure prediction by ZEFSAII (Michael W. Deem and Ramdas Pophale) SiO2 
 PCOD9540345
Probable space group: I M M A
;
_chemical_formula_sum "Si O2"
_cell_formula_units_Z 64
_cell_length_a 13.311655
_cell_length_b 16.021448
_cell_length_c 16.659857
_cell_angle_alpha 90.000000
_cell_angle_beta 90.000000
_cell_angle_gamma 90.000000
_cell_volume 3553.080828
_symmetry_space_group_name_H-M "I M M A"
_symmetry_group_IT_number 74
_symmetry_cell_setting 'orthorhombic'
loop_
_space_group_symop_operation_xyz
x,y,z
-x,1/2-y,z
x,-y,-z
-x,1/2+y,-z
-x,-y,-z
x,1/2+y,-z
-x,y,z
x,1/2-y,z
1/2+x,1/2+y,1/2+z
1/2-x,-y,1/2+z
1/2+x,1/2-y,1/2-z
1/2-x,y,1/2-z
1/2-x,1/2-y,1/2-z
1/2+x,y,1/2-z
1/2-x,1/2+y,1/2+z
1/2+x,-y,1/2+z
loop_
_atom_site_type_symbol
_atom_site_label
_atom_site_fract_x
_atom_site_fract_y
_atom_site_fract_z
Si Si1 0.500000 0.349893 0.274010
Si Si2 0.000000 0.590360 0.957307
Si Si3 0.673958 0.442473 0.181547
Si Si4 0.222107 0.653189 0.966291
Si Si5 0.108571 0.924704 0.435197
O O1 0.500000 0.250000 0.289122
O O2 0.500000 0.398998 0.359496
O O3 0.595307 0.378317 0.221021
O O4 0.105994 0.631546 0.982361
O O5 0.000000 0.500000 0.000000
O O6 0.750000 0.467867 0.250000
O O7 0.736067 0.399186 0.109485
O O8 0.621531 0.524832 0.146803
O O9 0.230359 0.750000 0.946642
O O10 0.296290 0.630002 0.039565
O O11 0.000000 0.881141 0.439363
O O12 0.105845 0.000000 0.500000
#
# Coordination Sequence:
#
# PCOD9540345 Si02
#       5
#     8   8  16  16  16
#     4  12  24  36  57  91 122 147 186 244 302 346
#     4  12  24  40  56  83 120 163 200 228 289 366
#     4  11  21  36  59  86 120 151 187 237 301 359
#     4  11  23  37  58  86 118 154 196 245 292 342
#     4   9  19  37  56  82 113 156 198 231 279 353
#
# _framework density 18.012536999999998
#
# number of rings (size 3 to 8) (size 9 to 14) (size 15 to 20)
#    0.000    1.250    3.750    4.125    1.750    1.500 
#    0.000    0.000    0.000    0.750    0.000    0.000 
#    0.000    0.000    0.000    0.000    0.000    0.000 
#
# Total GULP energy -178414.009227 kJ/mol
# GULP energy per Si atom -5575.437788 kJ/mol
# Density = 1.797154 g / cm^3
# Si number density = 18.012537 Si / 1000 Ang^3
#
#
#
# Elastic Constant Matrix: (Units=GPa)
#
#
# Indices 1 2 3 4 5 6 
#
# 1 157.7792 27.5358 37.6145 0.0000 0.0000 0.0000
# 2 27.5358 20.8270 29.7756 0.0000 0.0000 0.0000
# 3 37.6145 29.7756 72.4450 0.0000 0.0000 0.0000
# 4 0.0000 0.0000 0.0000 14.9425 0.0000 0.0000
# 5 0.0000 0.0000 0.0000 0.0000 21.5044 0.0000
# 6 0.0000 0.0000 0.0000 0.0000 0.0000 17.0630
#
#
#
# Elastic Compliance Matrix: (Units=1/GPa)
#
#
# Indices 1 2 3 4 5 6 
#
# 1 0.008246 -0.011594 0.000484 0.000000 0.000000 0.000000
# 2 -0.011594 0.132729 -0.048533 0.000000 0.000000 0.000000
# 3 0.000484 -0.048533 0.033500 0.000000 0.000000 0.000000
# 4 0.000000 0.000000 0.000000 0.066923 0.000000 0.000000
# 5 0.000000 0.000000 0.000000 0.000000 0.046502 0.000000
# 6 0.000000 0.000000 0.000000 0.000000 0.000000 0.058606
#
#
# Mechanical properties :
#
#
# Convention : Reuss Voigt Hill
#
# Bulk Modulus (GPa) = 18.11973 48.98923 33.55448
# Shear Modulus (GPa) = 10.32655 21.11034 15.71844
#
# Velocity S-wave (km/s) = 2.39696 3.42713 2.95725
# Velocity P-wave (km/s) = 4.21211 6.55108 5.50720
#
# Compressibility (1/GPa) = 0.05518847
#
# Stress axis : x y z
#
# Youngs Moduli (GPa) = 121.27077 7.53416 29.85070
#
# Poissons Ratio (x) = 0.08735 -0.01444
# Poissons Ratio (y) = 1.40598 1.44875
# Poissons Ratio (z) = -0.05865 0.36566
#
# Static dielectric constant tensor:
#      x y z
#    x 1.675510 0.000000 0.000000 
#    y 0.000000 1.581870 0.000000 
#    z 0.000000 0.000000 1.637670 
# 
# From -- ./inp_files/30238.got.cif
#   From: 2010.05.17/outbox.cif.g08.bks.cpg/sg74_16_cif.got.tgz:30238.got - 2010.06.03 17:57:02.
