data_PCOD9540337
_publ_section_title
;
Structure prediction by ZEFSAII (Michael W. Deem and Ramdas Pophale) SiO2 
 PCOD9540337
Probable space group: I M M A
;
_chemical_formula_sum "Si O2"
_cell_formula_units_Z 64
_cell_length_a 8.173946
_cell_length_b 27.897950
_cell_length_c 11.755053
_cell_angle_alpha 90.000000
_cell_angle_beta 90.000000
_cell_angle_gamma 90.000000
_cell_volume 2680.579225
_symmetry_space_group_name_H-M "I M M A"
_symmetry_group_IT_number 74
_symmetry_cell_setting 'orthorhombic'
loop_
_space_group_symop_operation_xyz
x,y,z
-x,1/2-y,z
x,-y,-z
-x,1/2+y,-z
-x,-y,-z
x,1/2+y,-z
-x,y,z
x,1/2-y,z
1/2+x,1/2+y,1/2+z
1/2-x,-y,1/2+z
1/2+x,1/2-y,1/2-z
1/2-x,y,1/2-z
1/2-x,1/2-y,1/2-z
1/2+x,y,1/2-z
1/2-x,1/2+y,1/2+z
1/2+x,-y,1/2+z
loop_
_atom_site_type_symbol
_atom_site_label
_atom_site_fract_x
_atom_site_fract_y
_atom_site_fract_z
Si Si1 0.686019 0.807749 0.875385
Si Si2 0.689283 0.669158 0.127187
Si Si3 0.809597 0.042005 0.368950
Si Si4 0.188561 0.064838 0.898199
O O1 0.500000 0.826458 0.881370
O O2 0.684236 0.750000 0.870984
O O3 0.750000 0.823106 0.750000
O O4 0.763108 0.818739 0.001164
O O5 0.500000 0.682742 0.120956
O O6 0.750000 0.688745 0.250000
O O7 0.714764 0.611987 0.135818
O O8 0.750000 0.061427 0.250000
O O9 0.696448 0.063524 0.465648
O O10 0.000000 0.050842 0.391683
O O11 0.778436 0.984661 0.367887
O O12 0.000000 0.064902 0.859553
#
# Coordination Sequence:
#
# PCOD9540337 Si02
#       4
#    16  16  16  16
#     4   9  20  40  65  91 120 154 193 239 292 351
#     4  11  23  39  59  87 122 158 198 244 295 352
#     4  11  21  36  56  79 108 146 193 243 295 348
#     4  11  22  37  55  79 111 149 193 240 294 349
#
# _framework density 23.875433999999998
#
# number of rings (size 3 to 8) (size 9 to 14) (size 15 to 20)
#    0.000    1.500    0.000    7.500    0.000    3.500 
#    0.000    2.500    0.000    0.000    0.000    0.000 
#    0.000    0.000    0.000    0.000    0.000    0.000 
#
# Total GULP energy -178582.653645 kJ/mol
# GULP energy per Si atom -5580.707926 kJ/mol
# Density = 2.382109 g / cm^3
# Si number density = 23.875434 Si / 1000 Ang^3
#
#
#
# Elastic Constant Matrix: (Units=GPa)
#
#
# Indices 1 2 3 4 5 6 
#
# 1 86.1049 -7.7997 24.7927 -0.0001 0.0000 0.0003
# 2 -7.7997 55.8453 15.2158 -0.0004 0.0000 -0.0013
# 3 24.7927 15.2158 252.8125 -0.0013 0.0000 -0.0015
# 4 -0.0001 -0.0004 -0.0013 -48.0905 0.0000 -0.0014
# 5 0.0000 0.0000 0.0000 0.0000 41.7593 0.0000
# 6 0.0003 -0.0013 -0.0015 -0.0014 0.0000 178.7241
#
#
#
# Elastic Compliance Matrix: (Units=1/GPa)
#
#
# Indices 1 2 3 4 5 6 
#
# 1 0.012180 0.002060 -0.001318 0.000000 0.000000 0.000000
# 2 0.002060 0.018554 -0.001319 0.000000 0.000000 0.000000
# 3 -0.001318 -0.001319 0.004164 0.000000 0.000000 0.000000
# 4 0.000000 0.000000 0.000000 -0.020794 0.000000 0.000000
# 5 0.000000 0.000000 0.000000 0.000000 0.023947 0.000000
# 6 0.000000 0.000000 0.000000 0.000000 0.000000 0.005595
#
#
# Mechanical properties :
#
#
# Convention : Reuss Voigt Hill
#
# Bulk Modulus (GPa) = 29.63474 51.02004 40.32739
# Shear Modulus (GPa) = 89.21020 58.64885 73.92953
#
# Velocity S-wave (km/s) = 6.11931 4.96164 5.57063
# Velocity P-wave (km/s) = 7.89729 7.36474 7.63566
#
# Compressibility (1/GPa) = 0.03374418
#
# Stress axis : x y z
#
# Youngs Moduli (GPa) = 82.10177 53.89768 240.14393
#
# Poissons Ratio (x) = -0.11105 0.31662
# Poissons Ratio (y) = -0.16916 0.31668
# Poissons Ratio (z) = 0.10825 0.07108
#
# Static dielectric constant tensor:
#      x y z
#    x 1.839230 0.000000 0.000000 
#    y 0.000000 1.904830 0.000000 
#    z 0.000000 0.000000 2.132940 
# 
# From -- ./inp_files/17584.got.cif
#   From: 2010.05.17/outbox.cif.g08.bks.cpg/sg74_9_cif.got.tgz:17584.got - 2010.06.03 17:57:02.
