data_PCOD9540845
_publ_section_title
;
Structure prediction by ZEFSAII (Michael W. Deem and Ramdas Pophale) SiO2 
 PCOD9540845
Probable space group: I M M A
;
_chemical_formula_sum "Si O2"
_cell_formula_units_Z 56
_cell_length_a 30.000000
_cell_length_b 15.000000
_cell_length_c 12.000000
_cell_angle_alpha 90.000000
_cell_angle_beta 90.000000
_cell_angle_gamma 90.000000
_cell_volume 5400.000000
_symmetry_space_group_name_H-M "I M M A"
_symmetry_group_IT_number 74
_symmetry_cell_setting 'orthorhombic'
loop_
_space_group_symop_operation_xyz
x,y,z
-x,1/2-y,z
x,-y,-z
-x,1/2+y,-z
-x,-y,-z
x,1/2+y,-z
-x,y,z
x,1/2-y,z
1/2+x,1/2+y,1/2+z
1/2-x,-y,1/2+z
1/2+x,1/2-y,1/2-z
1/2-x,y,1/2-z
1/2-x,1/2-y,1/2-z
1/2+x,y,1/2-z
1/2-x,1/2+y,1/2+z
1/2+x,-y,1/2+z
loop_
_atom_site_type_symbol
_atom_site_label
_atom_site_fract_x
_atom_site_fract_y
_atom_site_fract_z
Si Si1 0.050845 0.853062 0.234796
Si Si2 0.925064 0.396202 0.514680
Si Si3 0.051008 0.843948 0.726717
Si Si4 0.665819 0.148267 0.086773
Si Si5 0.745795 0.457409 0.378926
Si Si6 0.339924 0.649780 0.653063
Si Si7 0.089236 0.508333 0.881296
O O1 0.054180 0.750000 0.204029
O O2 0.057870 0.862845 0.367403
O O3 0.000000 0.883764 0.208575
O O4 0.088220 0.911033 0.172484
O O5 0.935272 0.500000 0.500000
O O6 0.944643 0.349095 0.406013
O O7 0.872269 0.380615 0.498863
O O8 0.070806 0.750000 0.767675
O O9 0.066883 0.932046 0.786823
O O10 0.000000 0.840228 0.755574
O O11 0.679267 0.250000 0.063165
O O12 0.706292 0.081251 0.090141
O O13 0.648243 0.147064 0.214590
O O14 0.731276 0.500000 0.500000
O O15 0.750000 0.500520 0.250000
O O16 0.711507 0.377178 0.356221
O O17 0.346375 0.750000 0.609491
O O18 0.366989 0.568645 0.597363
O O19 0.065572 0.500000 0.000000
#
# Coordination Sequence:
#
# PCOD9540845 Si02
#       7
#    16  16  16  16  16  16  16
#     4  11  25  43  62  90 130 171 209 258 328 402
#     4  12  21  36  63  94 126 160 202 257 325 385
#     4  11  23  39  61  88 117 153 201 257 315 376
#     4  10  19  34  60  92 124 160 208 264 316 378
#     4  10  21  37  60  92 128 169 214 264 327 390
#     4  10  20  39  64  91 124 162 215 272 322 381
#     4  12  25  41  62  86 118 164 218 268 318 371
#
# _framework density 10.370369999999999
#
# number of rings (size 3 to 8) (size 9 to 14) (size 15 to 20)
#    0.000    1.143    2.857    3.857    0.000    6.857 
#    0.000    1.429    0.000    1.714    0.000    0.000 
#    0.000    0.000    0.000    0.000    0.000    0.000 
#
# Total GULP energy -311800.336506 kJ/mol
# GULP energy per Si atom -5567.863152 kJ/mol
# Density = 1.034677 g / cm^3
# Si number density = 10.370370 Si / 1000 Ang^3
#
#
#
# Elastic Constant Matrix: (Units=GPa)
#
#
# Indices 1 2 3 4 5 6 
#
# 1 71.3208 20.5068 -4.2423 0.0000 0.0000 0.0000
# 2 20.5068 107.9972 27.4626 0.0000 0.0000 0.0000
# 3 -4.2423 27.4626 72.7115 0.0000 0.0000 0.0000
# 4 0.0000 0.0000 0.0000 -12.7797 0.0000 0.0000
# 5 0.0000 0.0000 0.0000 0.0000 -72.9767 0.0000
# 6 0.0000 0.0000 0.0000 0.0000 0.0000 25.1973
#
#
#
# Elastic Compliance Matrix: (Units=1/GPa)
#
#
# Indices 1 2 3 4 5 6 
#
# 1 0.015136 -0.003428 0.002178 0.000000 0.000000 0.000000
# 2 -0.003428 0.011020 -0.004362 0.000000 0.000000 0.000000
# 3 0.002178 -0.004362 0.015528 0.000000 0.000000 0.000000
# 4 0.000000 0.000000 0.000000 -0.078249 0.000000 0.000000
# 5 0.000000 0.000000 0.000000 0.000000 -0.013703 0.000000
# 6 0.000000 0.000000 0.000000 0.000000 0.000000 0.039687
#
#
# Mechanical properties :
#
#
# Convention : Reuss Voigt Hill
#
# Bulk Modulus (GPa) = 32.83077 37.72042 35.27559
# Shear Modulus (GPa) = 463.15250 1.77501 232.46375
#
# Velocity S-wave (km/s) = 14.95963 0.92610 10.59830
# Velocity P-wave (km/s) = 17.72712 4.40110 12.91550
#
# Compressibility (1/GPa) = 0.03045923
#
# Stress axis : x y z
#
# Youngs Moduli (GPa) = 66.06623 90.74725 64.40162
#
# Poissons Ratio (x) = 0.31107 -0.14025
# Poissons Ratio (y) = 0.22647 0.28092
# Poissons Ratio (z) = -0.14388 0.39584
#
# Static dielectric constant tensor:
#      x y z
#    x 1.870220 0.000000 0.000000 
#    y 0.000000 1.756820 0.000000 
#    z 0.000000 0.000000 1.743340 
# 
# From -- ./inp_files/27250.got.cif
#   From: 2010.05.17/outbox.ucp.g08.bks.cvg/sg74_14_cif.got.tgz:27250.got - 2010.06.11 16:37:44.
