data_PCOD9540538
_publ_section_title
;
Structure prediction by ZEFSAII (Michael W. Deem and Ramdas Pophale) SiO2 
 PCOD9540538
Probable space group: I M M A
;
_chemical_formula_sum "Si O2"
_cell_formula_units_Z 52
_cell_length_a 11.515521
_cell_length_b 17.403770
_cell_length_c 14.072028
_cell_angle_alpha 90.000000
_cell_angle_beta 90.000000
_cell_angle_gamma 90.000000
_cell_volume 2820.224087
_symmetry_space_group_name_H-M "I M M A"
_symmetry_group_IT_number 74
_symmetry_cell_setting 'orthorhombic'
loop_
_space_group_symop_operation_xyz
x,y,z
-x,1/2-y,z
x,-y,-z
-x,1/2+y,-z
-x,-y,-z
x,1/2+y,-z
-x,y,z
x,1/2-y,z
1/2+x,1/2+y,1/2+z
1/2-x,-y,1/2+z
1/2+x,1/2-y,1/2-z
1/2-x,y,1/2-z
1/2-x,1/2-y,1/2-z
1/2+x,y,1/2-z
1/2-x,1/2+y,1/2+z
1/2+x,-y,1/2+z
loop_
_atom_site_type_symbol
_atom_site_label
_atom_site_fract_x
_atom_site_fract_y
_atom_site_fract_z
Si Si1 0.500000 0.582041 0.055320
Si Si2 0.753618 0.750000 0.862786
Si Si3 0.137417 0.100020 0.046755
Si Si4 0.749169 0.948751 0.136464
Si Si5 0.000000 0.750000 0.546526
O O1 0.380787 0.575596 0.111555
O O2 0.500000 0.500000 0.000000
O O3 0.500000 0.666308 0.006053
O O4 0.750000 0.750000 0.750000
O O5 0.821436 0.677168 0.903859
O O6 0.620394 0.750000 0.896577
O O7 0.000000 0.085498 0.058486
O O8 0.212730 0.033237 0.098660
O O9 0.169243 0.101416 0.934316
O O10 0.750000 0.944847 0.250000
#
# Coordination Sequence:
#
# PCOD9540538 Si02
#       5
#     8   8  16  16   4
#     4  12  22  44  68  94 132 172 220 278 322 382
#     4  12  25  44  65  96 129 172 209 267 336 386
#     4  11  24  43  62  95 133 168 215 269 323 396
#     4  11  23  41  66  94 125 173 220 264 324 382
#     4  12  24  46  68  94 134 164 224 276 318 392
#
# _framework density 18.438251000000001
#
# number of rings (size 3 to 8) (size 9 to 14) (size 15 to 20)
#    0.000    0.615    6.154    3.231    6.462    0.000 
#    0.000    3.077    0.000    0.000    0.000    0.000 
#    0.000    0.000    0.000    0.000    0.000    0.000 
#
# Total GULP energy -144866.688096 kJ/mol
# GULP energy per Si atom -5571.795696 kJ/mol
# Density = 1.839628 g / cm^3
# Si number density = 18.438251 Si / 1000 Ang^3
#
#
#
# Elastic Constant Matrix: (Units=GPa)
#
#
# Indices 1 2 3 4 5 6 
#
# 1 165.9792 52.2951 60.2734 0.0000 0.0000 0.0000
# 2 52.2951 138.6992 79.4110 0.0000 0.0000 0.0000
# 3 60.2734 79.4110 180.9411 0.0000 0.0000 0.0000
# 4 0.0000 0.0000 0.0000 17.4555 0.0000 0.0000
# 5 0.0000 0.0000 0.0000 0.0000 25.3926 0.0000
# 6 0.0000 0.0000 0.0000 0.0000 0.0000 36.4222
#
#
#
# Elastic Compliance Matrix: (Units=1/GPa)
#
#
# Indices 1 2 3 4 5 6 
#
# 1 0.007170 -0.001784 -0.001605 0.000000 0.000000 0.000000
# 2 -0.001784 0.010074 -0.003827 0.000000 0.000000 0.000000
# 3 -0.001605 -0.003827 0.007741 0.000000 0.000000 0.000000
# 4 0.000000 0.000000 0.000000 0.057289 0.000000 0.000000
# 5 0.000000 0.000000 0.000000 0.000000 0.039382 0.000000
# 6 0.000000 0.000000 0.000000 0.000000 0.000000 0.027456
#
#
# Mechanical properties :
#
#
# Convention : Reuss Voigt Hill
#
# Bulk Modulus (GPa) = 94.77042 96.61986 95.69514
# Shear Modulus (GPa) = 29.92937 35.43006 32.67972
#
# Velocity S-wave (km/s) = 4.03329 4.38831 4.21454
# Velocity P-wave (km/s) = 8.55572 8.84262 8.70035
#
# Compressibility (1/GPa) = 0.01055182
#
# Stress axis : x y z
#
# Youngs Moduli (GPa) = 139.47056 99.27020 129.18456
#
# Poissons Ratio (x) = 0.17712 0.20738
# Poissons Ratio (y) = 0.24885 0.49435
# Poissons Ratio (z) = 0.22390 0.37988
#
# Static dielectric constant tensor:
#      x y z
#    x 1.621830 0.000000 0.000000 
#    y 0.000000 1.956220 0.000000 
#    z 0.000000 0.000000 1.837180 
# 
# From -- ./inp_files/30079.got.cif
#   From: 2010.05.17/outbox.cif.g08.bks.cpg/sg74_16_cif.got.tgz:30079.got - 2010.06.03 17:57:02.
