data_PCOD9540505
_publ_section_title
;
Structure prediction by ZEFSAII (Michael W. Deem and Ramdas Pophale) SiO2 
 PCOD9540505
Probable space group: I M M A
;
_chemical_formula_sum "Si O2"
_cell_formula_units_Z 96
_cell_length_a 15.675129
_cell_length_b 25.924759
_cell_length_c 12.133330
_cell_angle_alpha 90.000000
_cell_angle_beta 90.000000
_cell_angle_gamma 90.000000
_cell_volume 4930.669137
_symmetry_space_group_name_H-M "I M M A"
_symmetry_group_IT_number 74
_symmetry_cell_setting 'orthorhombic'
loop_
_space_group_symop_operation_xyz
x,y,z
-x,1/2-y,z
x,-y,-z
-x,1/2+y,-z
-x,-y,-z
x,1/2+y,-z
-x,y,z
x,1/2-y,z
1/2+x,1/2+y,1/2+z
1/2-x,-y,1/2+z
1/2+x,1/2-y,1/2-z
1/2-x,y,1/2-z
1/2-x,1/2-y,1/2-z
1/2+x,y,1/2-z
1/2-x,1/2+y,1/2+z
1/2+x,-y,1/2+z
loop_
_atom_site_type_symbol
_atom_site_label
_atom_site_fract_x
_atom_site_fract_y
_atom_site_fract_z
Si Si1 0.121564 0.192132 0.254980
Si Si2 0.904617 0.061058 0.988014
Si Si3 0.852564 0.417886 0.236607
Si Si4 0.738214 0.693806 0.552524
Si Si5 0.097493 0.980288 0.374283
Si Si6 0.254459 0.105916 0.871993
O O1 0.083098 0.250000 0.262086
O O2 0.094732 0.132610 0.276318
O O3 0.192738 0.195313 0.350099
O O4 0.153787 0.188660 0.128025
O O5 0.833806 0.076268 0.899124
O O6 0.000000 0.081117 0.964204
O O7 0.872598 0.077508 0.108084
O O8 0.909247 0.000000 0.000000
O O9 0.750000 0.409458 0.250000
O O10 0.876732 0.470667 0.298753
O O11 0.736402 0.750000 0.497112
O O12 0.758878 0.648975 0.467024
O O13 0.167481 0.934786 0.370754
O O14 0.000000 0.964386 0.345407
O O15 0.097440 0.000000 0.500000
O O16 0.250000 0.129175 0.750000
#
# Coordination Sequence:
#
# PCOD9540505 Si02
#       6
#    16  16  16  16  16  16
#     4   9  16  30  58  90 118 150 199 256 302 359
#     4  11  23  38  56  84 119 161 211 255 303 372
#     4  12  19  33  60  87 122 163 200 248 307 378
#     4   9  17  33  57  89 116 149 203 252 305 363
#     4  11  24  38  55  84 121 159 205 254 304 367
#     4  12  23  38  59  84 119 161 204 253 312 370
#
# _framework density 19.469974000000001
#
# number of rings (size 3 to 8) (size 9 to 14) (size 15 to 20)
#    0.000    1.333    3.333    6.500    0.000    2.333 
#    0.000    0.000    0.000    4.000    0.000    9.333 
#    0.000    0.000    0.000    0.000    0.000    0.000 
#
# Total GULP energy -267232.353769 kJ/mol
# GULP energy per Si atom -5567.340704 kJ/mol
# Density = 1.942566 g / cm^3
# Si number density = 19.469974 Si / 1000 Ang^3
#
#
#
# Elastic Constant Matrix: (Units=GPa)
#
#
# Indices 1 2 3 4 5 6 
#
# 1 139.2976 54.0908 37.1547 0.0000 0.0000 0.0000
# 2 54.0908 147.8984 41.8432 0.0000 0.0000 -0.0001
# 3 37.1547 41.8432 96.9643 0.0000 0.0000 -0.0003
# 4 0.0000 0.0000 0.0000 26.6425 0.0000 0.0000
# 5 0.0000 0.0000 0.0000 0.0000 24.0794 0.0000
# 6 0.0000 -0.0001 -0.0003 0.0000 0.0000 -12.1572
#
#
#
# Elastic Compliance Matrix: (Units=1/GPa)
#
#
# Indices 1 2 3 4 5 6 
#
# 1 0.008779 -0.002573 -0.002254 0.000000 0.000000 0.000000
# 2 -0.002573 0.008456 -0.002663 0.000000 0.000000 0.000000
# 3 -0.002254 -0.002663 0.012326 0.000000 0.000000 0.000000
# 4 0.000000 0.000000 0.000000 0.037534 0.000000 0.000000
# 5 0.000000 0.000000 0.000000 0.000000 0.041529 0.000000
# 6 0.000000 0.000000 0.000000 0.000000 0.000000 -0.082256
#
#
# Mechanical properties :
#
#
# Convention : Reuss Voigt Hill
#
# Bulk Modulus (GPa) = 68.58108 72.25974 70.42041
# Shear Modulus (GPa) = 108.20512 24.45105 66.32809
#
# Velocity S-wave (km/s) = 7.46298 3.54762 5.84301
# Velocity P-wave (km/s) = 10.46718 7.34675 9.04258
#
# Compressibility (1/GPa) = 0.01458128
#
# Stress axis : x y z
#
# Youngs Moduli (GPa) = 113.90591 118.26045 81.13086
#
# Poissons Ratio (x) = 0.30431 0.18283
# Poissons Ratio (y) = 0.29311 0.21605
# Poissons Ratio (z) = 0.25669 0.31493
#
# Static dielectric constant tensor:
#      x y z
#    x 1.752200 0.000000 0.000000 
#    y 0.000000 1.751480 0.000000 
#    z 0.000000 0.000000 1.647490 
# 
# From -- ./inp_files/22629.got.cif
#   From: 2010.05.17/outbox.cif.g08.bks.cpg/sg74_12_cif.got.tgz:22629.got - 2010.06.03 17:57:02.
