data_PCOD9540704
_publ_section_title
;
Structure prediction by ZEFSAII (Michael W. Deem and Ramdas Pophale) SiO2 
 PCOD9540704
Probable space group: I M M A
;
_chemical_formula_sum "Si O2"
_cell_formula_units_Z 72
_cell_length_a 16.298871
_cell_length_b 7.285386
_cell_length_c 29.520901
_cell_angle_alpha 90.000000
_cell_angle_beta 90.000000
_cell_angle_gamma 90.000000
_cell_volume 3505.417074
_symmetry_space_group_name_H-M "I M M A"
_symmetry_group_IT_number 74
_symmetry_cell_setting 'orthorhombic'
loop_
_space_group_symop_operation_xyz
x,y,z
-x,1/2-y,z
x,-y,-z
-x,1/2+y,-z
-x,-y,-z
x,1/2+y,-z
-x,y,z
x,1/2-y,z
1/2+x,1/2+y,1/2+z
1/2-x,-y,1/2+z
1/2+x,1/2-y,1/2-z
1/2-x,y,1/2-z
1/2-x,1/2-y,1/2-z
1/2+x,y,1/2-z
1/2-x,1/2+y,1/2+z
1/2+x,-y,1/2+z
loop_
_atom_site_type_symbol
_atom_site_label
_atom_site_fract_x
_atom_site_fract_y
_atom_site_fract_z
Si Si1 0.591390 0.026917 0.694070
Si Si2 0.591376 0.973258 0.200656
Si Si3 0.255098 0.526049 0.141779
Si Si4 0.179832 0.468960 0.946837
Si Si5 0.500000 0.967870 0.445883
O O1 0.500000 0.968715 0.678573
O O2 0.590734 0.250000 0.692356
O O3 0.601687 0.973869 0.746730
O O4 0.670696 0.968648 0.666212
O O5 0.500000 0.029491 0.186010
O O6 0.592667 0.750000 0.200486
O O7 0.665197 0.036663 0.169000
O O8 0.257345 0.750000 0.143296
O O9 0.246667 0.468613 0.089436
O O10 0.174584 0.250000 0.942349
O O11 0.194770 0.500000 0.000000
O O12 0.089282 0.540007 0.932339
O O13 0.500000 0.750000 0.435700
O O14 0.500000 0.000000 0.500000
#
# Coordination Sequence:
#
# PCOD9540704 Si02
#       5
#    16  16  16  16   8
#     4   8  13  19  29  47  72  98 121 148 184 227
#     4   8  13  21  31  46  70  98 124 151 187 229
#     4   9  15  21  33  50  70  98 128 154 184 226
#     4   9  17  27  39  55  76 102 130 160 193 226
#     4   8  14  24  36  50  70  96 124 152 184 222
#
# _framework density 20.539639000000001
#
# number of rings (size 3 to 8) (size 9 to 14) (size 15 to 20)
#    0.000    3.556    0.000    2.000    1.556    2.667 
#    0.000    0.000    0.000    0.667    0.000    0.000 
#    0.000    3.556    0.000    4.889    0.000    4.444 
#
# Total GULP energy -200722.672263 kJ/mol
# GULP energy per Si atom -5575.629785 kJ/mol
# Density = 2.049289 g / cm^3
# Si number density = 20.539639 Si / 1000 Ang^3
#
#
#
# Elastic Constant Matrix: (Units=GPa)
#
#
# Indices 1 2 3 4 5 6 
#
# 1 150.5963 1.5333 100.2347 0.0000 0.0000 0.0000
# 2 1.5333 86.5944 -1.8255 0.0000 0.0000 0.0000
# 3 100.2347 -1.8255 115.5493 0.0000 0.0000 0.0000
# 4 0.0000 0.0000 0.0000 -1.4332 0.0000 0.0000
# 5 0.0000 0.0000 0.0000 0.0000 31.3551 0.0000
# 6 0.0000 0.0000 0.0000 0.0000 0.0000 -25.0295
#
#
#
# Elastic Compliance Matrix: (Units=1/GPa)
#
#
# Indices 1 2 3 4 5 6 
#
# 1 0.015740 -0.000567 -0.013662 0.000000 0.000000 0.000000
# 2 -0.000567 0.011572 0.000674 0.000000 0.000000 0.000000
# 3 -0.013662 0.000674 0.020517 0.000000 0.000000 0.000000
# 4 0.000000 0.000000 0.000000 -0.697717 0.000000 0.000000
# 5 0.000000 0.000000 0.000000 0.000000 0.031893 0.000000
# 6 0.000000 0.000000 0.000000 0.000000 0.000000 -0.039953
#
#
# Mechanical properties :
#
#
# Convention : Reuss Voigt Hill
#
# Bulk Modulus (GPa) = 48.26469 61.40279 54.83374
# Shear Modulus (GPa) = -8.01368 17.83165 4.90898
#
# Velocity S-wave (km/s) = -1.97738 2.94965 1.54764
# Velocity P-wave (km/s) = 4.28205 6.44672 5.47248
#
# Compressibility (1/GPa) = 0.02071908
#
# Stress axis : x y z
#
# Youngs Moduli (GPa) = 63.53430 86.41296 48.74105
#
# Poissons Ratio (x) = 0.04897 0.66592
# Poissons Ratio (y) = 0.03601 -0.03287
# Poissons Ratio (z) = 0.86803 -0.05828
#
# Static dielectric constant tensor:
#      x y z
#    x 1.719280 0.000000 0.000000 
#    y 0.000000 1.752010 0.000000 
#    z 0.000000 0.000000 1.728320 
# 
# From -- ./inp_files/52738.got.cif
#   From: 2010.05.17/outbox.cif.g08.bks.cpg/sg74_27_cif.got.tgz:52738.got - 2010.06.03 17:57:02.
