data_PCOD9540540
_publ_section_title
;
Structure prediction by ZEFSAII (Michael W. Deem and Ramdas Pophale) SiO2 
 PCOD9540540
Probable space group: I M M A
;
_chemical_formula_sum "Si O2"
_cell_formula_units_Z 64
_cell_length_a 14.582385
_cell_length_b 22.389170
_cell_length_c 8.891871
_cell_angle_alpha 90.000000
_cell_angle_beta 90.000000
_cell_angle_gamma 90.000000
_cell_volume 2903.084704
_symmetry_space_group_name_H-M "I M M A"
_symmetry_group_IT_number 74
_symmetry_cell_setting 'orthorhombic'
loop_
_space_group_symop_operation_xyz
x,y,z
-x,1/2-y,z
x,-y,-z
-x,1/2+y,-z
-x,-y,-z
x,1/2+y,-z
-x,y,z
x,1/2-y,z
1/2+x,1/2+y,1/2+z
1/2-x,-y,1/2+z
1/2+x,1/2-y,1/2-z
1/2-x,y,1/2-z
1/2-x,1/2-y,1/2-z
1/2+x,y,1/2-z
1/2-x,1/2+y,1/2+z
1/2+x,-y,1/2+z
loop_
_atom_site_type_symbol
_atom_site_label
_atom_site_fract_x
_atom_site_fract_y
_atom_site_fract_z
Si Si1 0.000000 0.179545 0.648253
Si Si2 0.606915 0.001303 0.182807
Si Si3 0.812683 0.380563 0.634527
Si Si4 0.680545 0.616756 0.640376
Si Si5 0.000000 0.178903 0.009143
O O1 0.906660 0.150944 0.584598
O O2 0.000000 0.250000 0.623443
O O3 0.000000 0.167920 0.828739
O O4 0.500000 0.999686 0.221528
O O5 0.653732 0.939092 0.224235
O O6 0.649501 0.057625 0.268276
O O7 0.612998 0.000000 0.000000
O O8 0.750000 0.342774 0.750000
O O9 0.746337 0.397369 0.499210
O O10 0.750000 0.652389 0.750000
O O11 0.590615 0.650484 0.583284
O O12 0.000000 0.250000 0.030941
#
# Coordination Sequence:
#
# PCOD9540540 Si02
#       5
#     8  16  16  16   8
#     4  11  26  50  75 102 145 202 260 309 360 433
#     4  11  23  41  69 101 148 190 231 295 370 445
#     4  12  25  43  71 112 144 191 248 303 365 437
#     4  12  25  45  75 111 151 190 242 305 375 442
#     4  11  26  50  73 104 148 200 255 311 368 431
#
# _framework density 22.045515000000002
#
# number of rings (size 3 to 8) (size 9 to 14) (size 15 to 20)
#    0.000    0.500    7.500    0.750    0.000    3.000 
#    0.000    3.750    0.000    0.000    0.000    0.000 
#    0.000    0.000    0.000    0.000    0.000    0.000 
#
# Total GULP energy -178841.125731 kJ/mol
# GULP energy per Si atom -5588.785179 kJ/mol
# Density = 2.199534 g / cm^3
# Si number density = 22.045515 Si / 1000 Ang^3
#
#
#
# Elastic Constant Matrix: (Units=GPa)
#
#
# Indices 1 2 3 4 5 6 
#
# 1 235.0267 70.7607 67.3533 0.0000 0.0000 0.0000
# 2 70.7607 104.8932 36.8828 0.0000 0.0000 0.0000
# 3 67.3533 36.8828 94.9675 0.0000 -0.0001 0.0000
# 4 0.0000 0.0000 0.0000 5.4228 0.0000 0.0000
# 5 0.0000 0.0000 -0.0001 0.0000 44.8260 0.0000
# 6 0.0000 0.0000 0.0000 0.0000 0.0000 -7.3226
#
#
#
# Elastic Compliance Matrix: (Units=1/GPa)
#
#
# Indices 1 2 3 4 5 6 
#
# 1 0.006050 -0.002979 -0.003134 0.000000 0.000000 0.000000
# 2 -0.002979 0.012509 -0.002745 0.000000 0.000000 0.000000
# 3 -0.003134 -0.002745 0.013818 0.000000 0.000000 0.000000
# 4 0.000000 0.000000 0.000000 0.184405 0.000000 0.000000
# 5 0.000000 0.000000 0.000000 0.000000 0.022308 0.000000
# 6 0.000000 0.000000 0.000000 0.000000 0.000000 -0.136564
#
#
# Mechanical properties :
#
#
# Convention : Reuss Voigt Hill
#
# Bulk Modulus (GPa) = 68.20818 87.20899 77.70859
# Shear Modulus (GPa) = 39.95864 25.91131 32.93497
#
# Velocity S-wave (km/s) = 4.26203 3.43206 3.86936
# Velocity P-wave (km/s) = 7.43147 7.43975 7.43561
#
# Compressibility (1/GPa) = 0.01466100
#
# Stress axis : x y z
#
# Youngs Moduli (GPa) = 165.29274 79.94521 72.36729
#
# Poissons Ratio (x) = 0.23819 0.22677
# Poissons Ratio (y) = 0.49247 0.19864
# Poissons Ratio (z) = 0.51796 0.21944
#
# Static dielectric constant tensor:
#      x y z
#    x 1.832790 0.000000 0.000000 
#    y 0.000000 1.806500 0.000000 
#    z 0.000000 0.000000 1.890380 
# 
# From -- ./inp_files/9061.got.cif
#   From: 2010.05.17/outbox.cif.g08.bks.cpg/sg74_5_cif.got.tgz:9061.got - 2010.06.03 17:57:02.
