data_PCOD9540368
_publ_section_title
;
Structure prediction by ZEFSAII (Michael W. Deem and Ramdas Pophale) SiO2 
 PCOD9540368
Probable space group: I M M A
;
_chemical_formula_sum "Si O2"
_cell_formula_units_Z 72
_cell_length_a 8.615659
_cell_length_b 17.937051
_cell_length_c 24.160125
_cell_angle_alpha 90.000000
_cell_angle_beta 90.000000
_cell_angle_gamma 90.000000
_cell_volume 3733.693997
_symmetry_space_group_name_H-M "I M M A"
_symmetry_group_IT_number 74
_symmetry_cell_setting 'orthorhombic'
loop_
_space_group_symop_operation_xyz
x,y,z
-x,1/2-y,z
x,-y,-z
-x,1/2+y,-z
-x,-y,-z
x,1/2+y,-z
-x,y,z
x,1/2-y,z
1/2+x,1/2+y,1/2+z
1/2-x,-y,1/2+z
1/2+x,1/2-y,1/2-z
1/2-x,y,1/2-z
1/2-x,1/2-y,1/2-z
1/2+x,y,1/2-z
1/2-x,1/2+y,1/2+z
1/2+x,-y,1/2+z
loop_
_atom_site_type_symbol
_atom_site_label
_atom_site_fract_x
_atom_site_fract_y
_atom_site_fract_z
Si Si1 0.185895 0.250000 0.812463
Si Si2 0.686255 0.661745 0.879874
Si Si3 0.313180 0.607389 0.121095
Si Si4 0.811400 0.836260 0.495847
Si Si5 0.316331 0.469549 0.311347
O O1 0.250000 0.250000 0.750000
O O2 0.246898 0.322847 0.844566
O O3 0.000000 0.250000 0.811343
O O4 0.500000 0.650409 0.875706
O O5 0.714935 0.750000 0.873222
O O6 0.769915 0.610762 0.835475
O O7 0.736962 0.640490 0.942531
O O8 0.500000 0.610853 0.122857
O O9 0.262665 0.616156 0.057026
O O10 0.256612 0.531677 0.148698
O O11 0.763993 0.750000 0.487072
O O12 0.000000 0.836411 0.496878
O O13 0.500000 0.478520 0.310016
O O14 0.250000 0.479327 0.250000
#
# Coordination Sequence:
#
# PCOD9540368 Si02
#       5
#     8  16  16  16  16
#     4  12  24  38  56  84 120 162 207 248 295 350
#     4   9  19  39  67  94 119 152 197 244 294 357
#     4  11  21  38  63  89 120 159 203 246 293 348
#     4   8  15  32  61  93 121 153 197 240 284 349
#     4  12  26  43  60  84 120 158 202 251 305 358
#
# _framework density 19.283850999999999
#
# number of rings (size 3 to 8) (size 9 to 14) (size 15 to 20)
#    0.000    1.778    1.111    5.667    0.000    1.778 
#    0.000    6.667    0.000    0.000    0.000    0.000 
#    0.000    0.000    0.000    0.000    0.000    0.000 
#
# Total GULP energy -201140.257414 kJ/mol
# GULP energy per Si atom -5587.229373 kJ/mol
# Density = 1.923996 g / cm^3
# Si number density = 19.283851 Si / 1000 Ang^3
#
#
#
# Elastic Constant Matrix: (Units=GPa)
#
#
# Indices 1 2 3 4 5 6 
#
# 1 72.6308 19.6289 -1.7848 0.0000 0.0000 0.0000
# 2 19.6289 41.6520 5.6537 0.0000 0.0000 0.0000
# 3 -1.7848 5.6537 21.3027 0.0000 0.0000 0.0000
# 4 0.0000 0.0000 0.0000 9.6035 0.0000 0.0000
# 5 0.0000 0.0000 0.0000 0.0000 22.8205 0.0000
# 6 0.0000 0.0000 0.0000 0.0000 0.0000 29.8287
#
#
#
# Elastic Compliance Matrix: (Units=1/GPa)
#
#
# Indices 1 2 3 4 5 6 
#
# 1 0.016021 -0.008021 0.003471 0.000000 0.000000 0.000000
# 2 -0.008021 0.028922 -0.008348 0.000000 0.000000 0.000000
# 3 0.003471 -0.008348 0.049449 0.000000 0.000000 0.000000
# 4 0.000000 0.000000 0.000000 0.104129 0.000000 0.000000
# 5 0.000000 0.000000 0.000000 0.000000 0.043820 0.000000
# 6 0.000000 0.000000 0.000000 0.000000 0.000000 0.033525
#
#
# Mechanical properties :
#
#
# Convention : Reuss Voigt Hill
#
# Bulk Modulus (GPa) = 14.57818 20.28679 17.43248
# Shear Modulus (GPa) = 15.40701 19.92304 17.66503
#
# Velocity S-wave (km/s) = 2.82965 3.21775 3.02992
# Velocity P-wave (km/s) = 4.27225 4.93438 4.61520
#
# Compressibility (1/GPa) = 0.06859569
#
# Stress axis : x y z
#
# Youngs Moduli (GPa) = 62.41655 34.57605 20.22296
#
# Poissons Ratio (x) = 0.27735 -0.07020
# Poissons Ratio (y) = 0.50067 0.16882
# Poissons Ratio (z) = -0.21666 0.28864
#
# Static dielectric constant tensor:
#      x y z
#    x 1.654610 0.000000 0.000000 
#    y 0.000000 1.650230 0.000000 
#    z 0.000000 0.000000 1.663550 
# 
# From -- ./inp_files/56673.got.cif
#   From: 2010.05.17/outbox.cif.g08.bks.cpg/sg74_29_cif.got.tgz:56673.got - 2010.06.03 17:57:02.
