data_PCOD9540890
_publ_section_title
;
Structure prediction by ZEFSAII (Michael W. Deem and Ramdas Pophale) SiO2 
 PCOD9540890
Probable space group: I M M A
;
_chemical_formula_sum "Si O2"
_cell_formula_units_Z 44
_cell_length_a 18.000000
_cell_length_b 9.000000
_cell_length_c 30.000000
_cell_angle_alpha 90.000000
_cell_angle_beta 90.000000
_cell_angle_gamma 90.000000
_cell_volume 4860.000000
_symmetry_space_group_name_H-M "I M M A"
_symmetry_group_IT_number 74
_symmetry_cell_setting 'orthorhombic'
loop_
_space_group_symop_operation_xyz
x,y,z
-x,1/2-y,z
x,-y,-z
-x,1/2+y,-z
-x,-y,-z
x,1/2+y,-z
-x,y,z
x,1/2-y,z
1/2+x,1/2+y,1/2+z
1/2-x,-y,1/2+z
1/2+x,1/2-y,1/2-z
1/2-x,y,1/2-z
1/2-x,1/2-y,1/2-z
1/2+x,y,1/2-z
1/2-x,1/2+y,1/2+z
1/2+x,-y,1/2+z
loop_
_atom_site_type_symbol
_atom_site_label
_atom_site_fract_x
_atom_site_fract_y
_atom_site_fract_z
Si Si1 0.086100 0.428957 0.452807
Si Si2 0.680333 0.074524 0.782847
Si Si3 0.702851 0.071514 0.121329
Si Si4 0.500000 0.429609 0.549698
Si Si5 0.129036 0.927592 0.890141
Si Si6 0.411967 0.420784 0.701359
O O1 0.107413 0.500000 0.500000
O O2 0.090856 0.250000 0.456336
O O3 0.139545 0.478227 0.412998
O O4 0.000000 0.467927 0.443909
O O5 0.674159 0.250000 0.792215
O O6 0.750000 0.050539 0.750000
O O7 0.612685 0.029087 0.750545
O O8 0.690506 0.993169 0.829460
O O9 0.699903 0.250000 0.124876
O O10 0.784508 0.034685 0.102175
O O11 0.500000 0.250000 0.547627
O O12 0.500000 0.500000 0.500000
O O13 0.571670 0.487691 0.577593
O O14 0.117986 0.750000 0.894718
O O15 0.115241 0.977843 0.839081
O O16 0.500000 0.416077 0.698623
O O17 0.383319 0.250000 0.695265
#
# Coordination Sequence:
#
# PCOD9540890 Si02
#       6
#    16  16  16   8  16  16
#     4   9  19  38  61  84 113 149 188 232 286 345
#     4  10  20  34  53  80 113 150 195 238 283 335
#     4  10  22  37  57  87 121 153 191 240 291 347
#     4  12  26  44  64  86 116 152 194 244 297 350
#     4  11  22  37  58  85 115 149 194 240 290 349
#     4  10  20  35  55  79 110 152 199 242 287 340
#
# _framework density 9.0534979999999994
#
# number of rings (size 3 to 8) (size 9 to 14) (size 15 to 20)
#    0.000    1.818    2.727    1.364    0.000    4.000 
#    0.000    1.818    0.000    0.000    0.000    0.000 
#    0.000    0.000    0.000    0.000    0.000    0.000 
#
# Total GULP energy -245519.515377 kJ/mol
# GULP energy per Si atom -5579.988986 kJ/mol
# Density = 0.903289 g / cm^3
# Si number density = 9.053498 Si / 1000 Ang^3
#
#
#
# Elastic Constant Matrix: (Units=GPa)
#
#
# Indices 1 2 3 4 5 6 
#
# 1 92.1114 39.2871 78.4824 0.0000 0.0000 0.0000
# 2 39.2871 55.7541 50.1940 0.0000 0.0000 0.0000
# 3 78.4824 50.1940 153.4683 0.0000 0.0000 0.0000
# 4 0.0000 0.0000 0.0000 38.0497 0.0000 0.0000
# 5 0.0000 0.0000 0.0000 0.0000 29.4695 0.0000
# 6 0.0000 0.0000 0.0000 0.0000 0.0000 18.5044
#
#
#
# Elastic Compliance Matrix: (Units=1/GPa)
#
#
# Indices 1 2 3 4 5 6 
#
# 1 0.021159 -0.007325 -0.008425 0.000000 0.000000 0.000000
# 2 -0.007325 0.027957 -0.005398 0.000000 0.000000 0.000000
# 3 -0.008425 -0.005398 0.012590 0.000000 0.000000 0.000000
# 4 0.000000 0.000000 0.000000 0.026281 0.000000 0.000000
# 5 0.000000 0.000000 0.000000 0.000000 0.033933 0.000000
# 6 0.000000 0.000000 0.000000 0.000000 0.000000 0.054041
#
#
# Mechanical properties :
#
#
# Convention : Reuss Voigt Hill
#
# Bulk Modulus (GPa) = 51.51839 70.80675 61.16257
# Shear Modulus (GPa) = 22.24925 26.09607 24.17266
#
# Velocity S-wave (km/s) = 3.50918 3.80045 3.65772
# Velocity P-wave (km/s) = 6.70321 7.64509 7.18959
#
# Compressibility (1/GPa) = 0.01941054
#
# Stress axis : x y z
#
# Youngs Moduli (GPa) = 47.26163 35.76928 79.42983
#
# Poissons Ratio (x) = 0.26201 0.66917
# Poissons Ratio (y) = 0.34619 0.42874
# Poissons Ratio (z) = 0.39816 0.19307
#
# Static dielectric constant tensor:
#      x y z
#    x 1.668280 0.000000 0.000000 
#    y 0.000000 1.619150 0.000000 
#    z 0.000000 0.000000 1.591740 
# 
# From -- ./inp_files/70294.got.cif
#   From: 2010.05.17/outbox.ucp.g08.bks.cvg/sg74_36_cif.got.tgz:70294.got - 2010.06.11 16:37:44.
