data_PCOD9540707
_publ_section_title
;
Structure prediction by ZEFSAII (Michael W. Deem and Ramdas Pophale) SiO2 
 PCOD9540707
Probable space group: I M M A
;
_chemical_formula_sum "Si O2"
_cell_formula_units_Z 64
_cell_length_a 7.306215
_cell_length_b 9.717038
_cell_length_c 42.772566
_cell_angle_alpha 90.000000
_cell_angle_beta 90.000000
_cell_angle_gamma 90.000000
_cell_volume 3036.628434
_symmetry_space_group_name_H-M "I M M A"
_symmetry_group_IT_number 74
_symmetry_cell_setting 'orthorhombic'
loop_
_space_group_symop_operation_xyz
x,y,z
-x,1/2-y,z
x,-y,-z
-x,1/2+y,-z
-x,-y,-z
x,1/2+y,-z
-x,y,z
x,1/2-y,z
1/2+x,1/2+y,1/2+z
1/2-x,-y,1/2+z
1/2+x,1/2-y,1/2-z
1/2-x,y,1/2-z
1/2-x,1/2-y,1/2-z
1/2+x,y,1/2-z
1/2-x,1/2+y,1/2+z
1/2+x,-y,1/2+z
loop_
_atom_site_type_symbol
_atom_site_label
_atom_site_fract_x
_atom_site_fract_y
_atom_site_fract_z
Si Si1 0.281719 0.906336 0.284772
Si Si2 0.722975 0.591834 0.658392
Si Si3 0.223301 0.591195 0.029707
Si Si4 0.277295 0.408870 0.411970
O O1 0.500000 0.898651 0.288504
O O2 0.209861 0.750000 0.285379
O O3 0.250000 0.964158 0.250000
O O4 0.212139 0.996356 0.313497
O O5 0.500000 0.589185 0.658530
O O6 0.777047 0.750000 0.663357
O O7 0.778966 0.551659 0.623229
O O8 0.281941 0.750000 0.027932
O O9 0.282048 0.513316 0.061234
O O10 0.000000 0.592703 0.029688
O O11 0.279459 0.500000 0.000000
O O12 0.500000 0.408546 0.412342
O O13 0.222055 0.250000 0.417928
#
# Coordination Sequence:
#
# PCOD9540707 Si02
#       4
#    16  16  16  16
#     4   9  17  28  41  57  77 100 126 157 192 229
#     4   8  14  24  37  52  69  90 117 150 187 225
#     4   9  15  20  26  37  54  78 109 144 180 216
#     4   8  13  21  31  42  58  80 107 141 179 216
#
# _framework density 21.076007000000001
#
# number of rings (size 3 to 8) (size 9 to 14) (size 15 to 20)
#    0.000    3.500    0.000    2.250    0.000    4.500 
#    0.000    5.000    0.000    0.000    0.000    0.000 
#    0.000    0.000    0.000    0.000    0.000    1.250 
#
# Total GULP energy -178555.386633 kJ/mol
# GULP energy per Si atom -5579.855832 kJ/mol
# Density = 2.102804 g / cm^3
# Si number density = 21.076007 Si / 1000 Ang^3
#
#
#
# Elastic Constant Matrix: (Units=GPa)
#
#
# Indices 1 2 3 4 5 6 
#
# 1 86.8464 4.9598 4.7915 0.0000 0.0000 0.0000
# 2 4.9598 149.8963 153.4149 0.0000 0.0000 0.0000
# 3 4.7915 153.4149 243.5857 0.0000 0.0000 0.0000
# 4 0.0000 0.0000 0.0000 44.0924 0.0000 0.0000
# 5 0.0000 0.0000 0.0000 0.0000 -1.4202 0.0000
# 6 0.0000 0.0000 0.0000 0.0000 0.0000 -15.0338
#
#
#
# Elastic Compliance Matrix: (Units=1/GPa)
#
#
# Indices 1 2 3 4 5 6 
#
# 1 0.011537 -0.000421 0.000038 0.000000 0.000000 0.000000
# 2 -0.000421 0.018787 -0.011824 0.000000 0.000000 0.000000
# 3 0.000038 -0.011824 0.011552 0.000000 0.000000 0.000000
# 4 0.000000 0.000000 0.000000 0.022680 0.000000 0.000000
# 5 0.000000 0.000000 0.000000 0.000000 -0.704116 0.000000
# 6 0.000000 0.000000 0.000000 0.000000 0.000000 -0.066517
#
#
# Mechanical properties :
#
#
# Convention : Reuss Voigt Hill
#
# Bulk Modulus (GPa) = 57.26848 89.62896 73.44872
# Shear Modulus (GPa) = -7.39815 26.67182 9.63684
#
# Velocity S-wave (km/s) = -1.87559 3.56125 2.14064
# Velocity P-wave (km/s) = 4.74772 7.71550 6.40585
#
# Compressibility (1/GPa) = 0.01746161
#
# Stress axis : x y z
#
# Youngs Moduli (GPa) = 86.68138 53.22921 86.56869
#
# Poissons Ratio (x) = 0.02239 -0.00328
# Poissons Ratio (y) = 0.03645 1.02358
# Poissons Ratio (z) = -0.00329 0.62938
#
# Static dielectric constant tensor:
#      x y z
#    x 1.076480 0.000000 0.000000 
#    y 0.000000 1.711750 0.000000 
#    z 0.000000 0.000000 1.730720 
# 
# From -- ./inp_files/71388.got.cif
#   From: 2010.05.17/outbox.cif.g08.bks.cpg/sg74_36_cif.got.tgz:71388.got - 2010.06.03 17:57:02.
