data_PCOD9540772
_publ_section_title
;
Structure prediction by ZEFSAII (Michael W. Deem and Ramdas Pophale) SiO2 
 PCOD9540772
Probable space group: I M M A
;
_chemical_formula_sum "Si O2"
_cell_formula_units_Z 96
_cell_length_a 9.774353
_cell_length_b 21.062516
_cell_length_c 21.973446
_cell_angle_alpha 90.000000
_cell_angle_beta 90.000000
_cell_angle_gamma 90.000000
_cell_volume 4523.727524
_symmetry_space_group_name_H-M "I M M A"
_symmetry_group_IT_number 74
_symmetry_cell_setting 'orthorhombic'
loop_
_space_group_symop_operation_xyz
x,y,z
-x,1/2-y,z
x,-y,-z
-x,1/2+y,-z
-x,-y,-z
x,1/2+y,-z
-x,y,z
x,1/2-y,z
1/2+x,1/2+y,1/2+z
1/2-x,-y,1/2+z
1/2+x,1/2-y,1/2-z
1/2-x,y,1/2-z
1/2-x,1/2-y,1/2-z
1/2+x,y,1/2-z
1/2-x,1/2+y,1/2+z
1/2+x,-y,1/2+z
loop_
_atom_site_type_symbol
_atom_site_label
_atom_site_fract_x
_atom_site_fract_y
_atom_site_fract_z
Si Si1 0.349674 0.500030 0.093917
Si Si2 0.158620 0.864143 0.556250
Si Si3 0.341026 0.326587 0.191278
Si Si4 0.150859 0.993707 0.197368
Si Si5 0.160198 0.348521 0.575255
Si Si6 0.341257 0.840093 0.307991
O O1 0.500000 0.492614 0.124819
O O2 0.343941 0.441021 0.048053
O O3 0.220406 0.487228 0.135424
O O4 0.342696 0.574330 0.079088
O O5 0.211308 0.848165 0.623996
O O6 0.212650 0.834335 0.493290
O O7 0.000000 0.843466 0.558202
O O8 0.500000 0.347893 0.197838
O O9 0.341742 0.250000 0.189708
O O10 0.250000 0.344794 0.250000
O O11 0.250000 0.014508 0.250000
O O12 0.149875 0.916854 0.197133
O O13 0.000000 0.018041 0.205162
O O14 0.257674 0.325915 0.629970
O O15 0.000000 0.328565 0.582693
O O16 0.500000 0.818768 0.307542
O O17 0.250000 0.819816 0.250000
#
# Coordination Sequence:
#
# PCOD9540772 Si02
#       6
#    16  16  16  16  16  16
#     4   9  16  26  40  58  82 113 147 181 219 266
#     4   9  17  29  46  67  88 113 148 185 225 279
#     4   9  18  34  54  72  91 117 151 195 244 287
#     4   9  16  25  36  51  74 106 144 183 218 251
#     4   9  16  27  43  62  87 119 152 186 223 265
#     4   9  16  26  40  58  82 115 153 186 214 247
#
# _framework density 21.221437000000002
#
# number of rings (size 3 to 8) (size 9 to 14) (size 15 to 20)
#    0.000    3.000    0.000    1.500    0.000    6.667 
#    0.000    4.167    0.000    4.000    0.000    0.000 
#    0.000    0.667    0.000    1.167    0.000    1.667 
#
# Total GULP energy -267267.903943 kJ/mol
# GULP energy per Si atom -5568.081332 kJ/mol
# Density = 2.117314 g / cm^3
# Si number density = 21.221437 Si / 1000 Ang^3
#
#
#
# Elastic Constant Matrix: (Units=GPa)
#
#
# Indices 1 2 3 4 5 6 
#
# 1 143.9008 14.3901 90.1148 0.0000 0.0000 0.0000
# 2 14.3901 79.1630 22.3728 0.0000 0.0000 0.0000
# 3 90.1148 22.3728 181.9262 0.0000 0.0000 0.0000
# 4 0.0000 0.0000 0.0000 8.3464 0.0000 0.0000
# 5 0.0000 0.0000 0.0000 0.0000 23.2553 0.0000
# 6 0.0000 0.0000 0.0000 0.0000 0.0000 12.2550
#
#
#
# Elastic Compliance Matrix: (Units=1/GPa)
#
#
# Indices 1 2 3 4 5 6 
#
# 1 0.010089 -0.000437 -0.004944 0.000000 0.000000 0.000000
# 2 -0.000437 0.013106 -0.001395 0.000000 0.000000 0.000000
# 3 -0.004944 -0.001395 0.008117 0.000000 0.000000 0.000000
# 4 0.000000 0.000000 0.000000 0.119812 0.000000 0.000000
# 5 0.000000 0.000000 0.000000 0.000000 0.043001 0.000000
# 6 0.000000 0.000000 0.000000 0.000000 0.000000 0.081599
#
#
# Mechanical properties :
#
#
# Convention : Reuss Voigt Hill
#
# Bulk Modulus (GPa) = 56.30561 73.19393 64.74977
# Shear Modulus (GPa) = 16.93793 27.31217 22.12505
#
# Velocity S-wave (km/s) = 2.82822 3.59138 3.23240
# Velocity P-wave (km/s) = 6.10370 7.19464 6.67150
#
# Compressibility (1/GPa) = 0.01776022
#
# Stress axis : x y z
#
# Youngs Moduli (GPa) = 99.12035 76.30145 123.19680
#
# Poissons Ratio (x) = 0.03333 0.60904
# Poissons Ratio (y) = 0.04329 0.17191
# Poissons Ratio (z) = 0.49001 0.10647
#
# Static dielectric constant tensor:
#      x y z
#    x 1.723070 0.000000 0.000000 
#    y 0.000000 1.804870 0.000000 
#    z 0.000000 0.000000 1.954730 
# 
# From -- ./inp_files/49136.got.cif
#   From: 2010.05.17/outbox.cif.g08.bks.cpg/sg74_25_cif.got.tgz:49136.got - 2010.06.03 17:57:02.
