data_PCOD9540900
_publ_section_title
;
Structure prediction by ZEFSAII (Michael W. Deem and Ramdas Pophale) SiO2 
 PCOD9540900
Probable space group: I M M A
;
_chemical_formula_sum "Si O2"
_cell_formula_units_Z 44
_cell_length_a 24.000000
_cell_length_b 9.000000
_cell_length_c 21.000000
_cell_angle_alpha 90.000000
_cell_angle_beta 90.000000
_cell_angle_gamma 90.000000
_cell_volume 4536.000000
_symmetry_space_group_name_H-M "I M M A"
_symmetry_group_IT_number 74
_symmetry_cell_setting 'orthorhombic'
loop_
_space_group_symop_operation_xyz
x,y,z
-x,1/2-y,z
x,-y,-z
-x,1/2+y,-z
-x,-y,-z
x,1/2+y,-z
-x,y,z
x,1/2-y,z
1/2+x,1/2+y,1/2+z
1/2-x,-y,1/2+z
1/2+x,1/2-y,1/2-z
1/2-x,y,1/2-z
1/2-x,1/2-y,1/2-z
1/2+x,y,1/2-z
1/2-x,1/2+y,1/2+z
1/2+x,-y,1/2+z
loop_
_atom_site_type_symbol
_atom_site_label
_atom_site_fract_x
_atom_site_fract_y
_atom_site_fract_z
Si Si1 0.500000 0.070879 0.569351
Si Si2 0.890840 0.424435 0.130738
Si Si3 0.064742 0.083264 0.760362
Si Si4 0.560179 0.082492 0.134074
Si Si5 0.177511 0.422145 0.432471
Si Si6 0.783797 0.072325 0.929392
O O1 0.500000 0.250000 0.569459
O O2 0.500000 0.000000 0.500000
O O3 0.443848 0.006806 0.600227
O O4 0.890953 0.250000 0.116316
O O5 0.899318 0.459389 0.204825
O O6 0.835901 0.504674 0.106922
O O7 0.084736 0.250000 0.773720
O O8 0.000000 0.075237 0.781126
O O9 0.063517 0.043840 0.686759
O O10 0.500000 0.068095 0.100275
O O11 0.559795 0.250000 0.162954
O O12 0.616027 0.072551 0.094890
O O13 0.173361 0.500000 0.500000
O O14 0.194850 0.250000 0.437507
O O15 0.226372 0.513703 0.398209
O O16 0.785546 0.250000 0.932900
O O17 0.786522 0.000000 0.000000
#
# Coordination Sequence:
#
# PCOD9540900 Si02
#       6
#     8  16  16  16  16  16
#     4  12  24  38  54  80 114 146 187 236 283 328
#     4  12  23  37  57  81 110 148 189 231 281 333
#     4  10  20  35  56  82 113 147 186 232 279 332
#     4   9  19  36  58  84 115 149 185 226 277 336
#     4  10  20  36  58  84 114 148 186 228 276 336
#     4  11  22  38  58  80 110 147 188 233 280 336
#
# _framework density 9.7001760000000008
#
# number of rings (size 3 to 8) (size 9 to 14) (size 15 to 20)
#    0.000    1.455    0.909    6.818    0.000    2.545 
#    0.000    0.909    0.000    5.455    0.000    0.000 
#    0.000    0.000    0.000    0.000    0.000    0.000 
#
# Total GULP energy -245166.868125 kJ/mol
# GULP energy per Si atom -5571.974276 kJ/mol
# Density = 0.967810 g / cm^3
# Si number density = 9.700176 Si / 1000 Ang^3
#
#
#
# Elastic Constant Matrix: (Units=GPa)
#
#
# Indices 1 2 3 4 5 6 
#
# 1 148.9297 78.4375 39.3887 0.0000 0.0000 0.0000
# 2 78.4375 175.3944 28.1615 0.0000 0.0000 0.0000
# 3 39.3887 28.1615 22.7599 0.0000 0.0000 0.0000
# 4 0.0000 0.0000 0.0000 24.1670 0.0000 0.0000
# 5 0.0000 0.0000 0.0000 0.0000 19.7009 0.0000
# 6 0.0000 0.0000 0.0000 0.0000 0.0000 27.2460
#
#
#
# Elastic Compliance Matrix: (Units=1/GPa)
#
#
# Indices 1 2 3 4 5 6 
#
# 1 0.013425 -0.002837 -0.019724 0.000000 0.000000 0.000000
# 2 -0.002837 0.007714 -0.004636 0.000000 0.000000 0.000000
# 3 -0.019724 -0.004636 0.083806 0.000000 0.000000 0.000000
# 4 0.000000 0.000000 0.000000 0.041379 0.000000 0.000000
# 5 0.000000 0.000000 0.000000 0.000000 0.050759 0.000000
# 6 0.000000 0.000000 0.000000 0.000000 0.000000 0.036703
#
#
# Mechanical properties :
#
#
# Convention : Reuss Voigt Hill
#
# Bulk Modulus (GPa) = 19.78088 71.00659 45.39374
# Shear Modulus (GPa) = 16.39183 27.62922 22.01053
#
# Velocity S-wave (km/s) = 2.90991 3.77790 3.37195
# Velocity P-wave (km/s) = 4.63771 7.46392 6.21364
#
# Compressibility (1/GPa) = 0.05055387
#
# Stress axis : x y z
#
# Youngs Moduli (GPa) = 74.48676 129.62693 11.93227
#
# Poissons Ratio (x) = 0.36775 0.23535
# Poissons Ratio (y) = 0.21132 0.05531
# Poissons Ratio (z) = 1.46914 0.60089
#
# Static dielectric constant tensor:
#      x y z
#    x 1.767750 0.000000 0.000000 
#    y 0.000000 1.658940 0.000000 
#    z 0.000000 0.000000 2.108290 
# 
# From -- ./inp_files/54494.got.cif
#   From: 2010.05.17/outbox.ucp.g08.bks.cvg/sg74_28_cif.got.tgz:54494.got - 2010.06.11 16:37:44.
