data_PCOD9540689
_publ_section_title
;
Structure prediction by ZEFSAII (Michael W. Deem and Ramdas Pophale) SiO2 
 PCOD9540689
Probable space group: I M M A
;
_chemical_formula_sum "Si O2"
_cell_formula_units_Z 128
_cell_length_a 7.274120
_cell_length_b 25.259394
_cell_length_c 32.432961
_cell_angle_alpha 90.000000
_cell_angle_beta 90.000000
_cell_angle_gamma 90.000000
_cell_volume 5959.227814
_symmetry_space_group_name_H-M "I M M A"
_symmetry_group_IT_number 74
_symmetry_cell_setting 'orthorhombic'
loop_
_space_group_symop_operation_xyz
x,y,z
-x,1/2-y,z
x,-y,-z
-x,1/2+y,-z
-x,-y,-z
x,1/2+y,-z
-x,y,z
x,1/2-y,z
1/2+x,1/2+y,1/2+z
1/2-x,-y,1/2+z
1/2+x,1/2-y,1/2-z
1/2-x,y,1/2-z
1/2-x,1/2-y,1/2-z
1/2+x,y,1/2-z
1/2-x,1/2+y,1/2+z
1/2+x,-y,1/2+z
loop_
_atom_site_type_symbol
_atom_site_label
_atom_site_fract_x
_atom_site_fract_y
_atom_site_fract_z
Si Si1 0.224565 0.310247 0.132130
Si Si2 0.780673 0.506761 0.202576
Si Si3 0.775273 0.924976 0.124257
Si Si4 0.781660 0.386676 0.203279
Si Si5 0.276643 0.308018 0.608391
Si Si6 0.776792 0.308209 0.987271
Si Si7 0.276476 0.501782 0.451771
Si Si8 0.723379 0.116172 0.442878
O O1 0.286438 0.250000 0.131815
O O2 0.287454 0.343741 0.171332
O O3 0.279948 0.343331 0.092245
O O4 0.000000 0.308983 0.132103
O O5 0.750000 0.524660 0.250000
O O6 0.714924 0.542681 0.164735
O O7 0.709167 0.446527 0.198698
O O8 0.000000 0.504477 0.197891
O O9 0.717487 0.863685 0.127404
O O10 0.000000 0.925447 0.123493
O O11 0.718314 0.953387 0.081122
O O12 0.750000 0.369829 0.250000
O O13 0.000000 0.390324 0.196403
O O14 0.500000 0.307588 0.609732
O O15 0.217114 0.250000 0.624377
O O16 0.223094 0.310966 0.560246
O O17 0.722435 0.250000 0.003876
O O18 0.000000 0.308972 0.987973
O O19 0.716046 0.357907 0.014109
O O20 0.218786 0.500000 0.500000
O O21 0.500000 0.505474 0.452906
O O22 0.221373 0.443941 0.435090
O O23 0.500000 0.114870 0.443513
#
# Coordination Sequence:
#
# PCOD9540689 Si02
#       8
#    16  16  16  16  16  16  16  16
#     4   9  16  24  34  49  69  95 128 162 195 233
#     4   9  17  29  45  63  82 105 134 168 204 242
#     4   9  15  23  35  51  73 100 128 159 197 237
#     4   9  17  29  43  58  76  98 126 161 199 236
#     4   8  13  20  30  45  66  94 127 157 184 223
#     4   8  12  17  25  38  59  90 126 157 182 214
#     4   9  15  20  28  45  70 100 131 161 195 238
#     4   9  14  19  27  40  62  92 125 158 190 225
#
# _framework density 21.479293999999999
#
# number of rings (size 3 to 8) (size 9 to 14) (size 15 to 20)
#    0.000    3.250    0.000    2.625    0.000    7.750 
#    0.000    0.000    0.000    0.375    0.000    0.000 
#    0.000    0.500    0.000    4.250    0.000   13.125 
#
# Total GULP energy -357063.028182 kJ/mol
# GULP energy per Si atom -5579.109815 kJ/mol
# Density = 2.143041 g / cm^3
# Si number density = 21.479294 Si / 1000 Ang^3
#
#
#
# Elastic Constant Matrix: (Units=GPa)
#
#
# Indices 1 2 3 4 5 6 
#
# 1 93.1492 4.9543 -0.1981 0.0000 0.0000 0.0000
# 2 4.9543 150.8693 77.9498 0.0000 0.0000 0.0000
# 3 -0.1981 77.9498 112.0435 0.0000 0.0000 0.0000
# 4 0.0000 0.0000 0.0000 39.0637 0.0000 0.0000
# 5 0.0000 0.0000 0.0000 0.0000 -8.1257 0.0000
# 6 0.0000 0.0000 0.0000 0.0000 0.0000 -59.7417
#
#
#
# Elastic Compliance Matrix: (Units=1/GPa)
#
#
# Indices 1 2 3 4 5 6 
#
# 1 0.010767 -0.000567 0.000414 0.000000 0.000000 0.000000
# 2 -0.000567 0.010378 -0.007221 0.000000 0.000000 0.000000
# 3 0.000414 -0.007221 0.013949 0.000000 0.000000 0.000000
# 4 0.000000 0.000000 0.000000 0.025599 0.000000 0.000000
# 5 0.000000 0.000000 0.000000 0.000000 -0.123066 0.000000
# 6 0.000000 0.000000 0.000000 0.000000 0.000000 -0.016739
#
#
# Mechanical properties :
#
#
# Convention : Reuss Voigt Hill
#
# Bulk Modulus (GPa) = 49.15272 57.94158 53.54715
# Shear Modulus (GPa) = -86.83379 12.46297 -37.18541
#
# Velocity S-wave (km/s) = -6.36510 2.41141 -4.16531
# Velocity P-wave (km/s) = 5.57547 5.89808 1.36041
#
# Compressibility (1/GPa) = 0.02034475
#
# Stress axis : x y z
#
# Youngs Moduli (GPa) = 92.88051 96.36041 71.68722
#
# Poissons Ratio (x) = 0.05467 -0.02966
# Poissons Ratio (y) = 0.05269 0.51765
# Poissons Ratio (z) = -0.03843 0.69581
#
# Static dielectric constant tensor:
#      x y z
#    x 1.855550 0.000000 0.000000 
#    y 0.000000 1.775770 0.000000 
#    z 0.000000 0.000000 1.733050 
# 
# From -- ./inp_files/66501.got.cif
#   From: 2010.05.17/outbox.cif.g08.bks.cpg/sg74_34_cif.got.tgz:66501.got - 2010.06.03 17:57:02.
