data_PCOD9540491
_publ_section_title
;
Structure prediction by ZEFSAII (Michael W. Deem and Ramdas Pophale) SiO2 
 PCOD9540491
Probable space group: I M M A
;
_chemical_formula_sum "Si O2"
_cell_formula_units_Z 80
_cell_length_a 8.626514
_cell_length_b 18.692140
_cell_length_c 28.333965
_cell_angle_alpha 90.000000
_cell_angle_beta 90.000000
_cell_angle_gamma 90.000000
_cell_volume 4568.795398
_symmetry_space_group_name_H-M "I M M A"
_symmetry_group_IT_number 74
_symmetry_cell_setting 'orthorhombic'
loop_
_space_group_symop_operation_xyz
x,y,z
-x,1/2-y,z
x,-y,-z
-x,1/2+y,-z
-x,-y,-z
x,1/2+y,-z
-x,y,z
x,1/2-y,z
1/2+x,1/2+y,1/2+z
1/2-x,-y,1/2+z
1/2+x,1/2-y,1/2-z
1/2-x,y,1/2-z
1/2-x,1/2-y,1/2-z
1/2+x,y,1/2-z
1/2-x,1/2+y,1/2+z
1/2+x,-y,1/2+z
loop_
_atom_site_type_symbol
_atom_site_label
_atom_site_fract_x
_atom_site_fract_y
_atom_site_fract_z
Si Si1 0.313160 0.109655 0.441605
Si Si2 0.313101 0.457956 0.600516
Si Si3 0.187021 0.021158 0.200098
Si Si4 0.811536 0.171276 0.159977
Si Si5 0.685215 0.831384 0.039590
O O1 0.500000 0.111674 0.446271
O O2 0.272018 0.154420 0.394603
O O3 0.240080 0.140712 0.488582
O O4 0.268304 0.027478 0.430716
O O5 0.500000 0.454972 0.599539
O O6 0.265552 0.475390 0.654270
O O7 0.247014 0.386301 0.578511
O O8 0.250000 0.995769 0.250000
O O9 0.240695 0.103028 0.190178
O O10 0.000000 0.021508 0.201093
O O11 0.755595 0.250000 0.174151
O O12 0.000000 0.171591 0.162081
O O13 0.500000 0.831507 0.040747
O O14 0.740839 0.750000 0.046657
#
# Coordination Sequence:
#
# PCOD9540491 Si02
#       5
#    16  16  16  16  16
#     4   9  17  31  52  74  96 129 170 201 228 272
#     4   9  19  35  53  73  96 125 165 204 234 279
#     4   9  18  32  50  72  95 121 158 201 241 283
#     4   8  14  26  45  69  98 131 164 195 226 267
#     4  11  23  34  46  71 104 131 157 195 243 290
#
# _framework density 17.510086000000001
#
# number of rings (size 3 to 8) (size 9 to 14) (size 15 to 20)
#    0.000    2.800    0.000    4.200    0.000    6.800 
#    0.000    3.000    0.000    1.800    0.000    0.000 
#    0.000    0.000    0.000    0.000    0.000    0.000 
#
# Total GULP energy -223073.400476 kJ/mol
# GULP energy per Si atom -5576.835012 kJ/mol
# Density = 1.747023 g / cm^3
# Si number density = 17.510086 Si / 1000 Ang^3
#
#
#
# Elastic Constant Matrix: (Units=GPa)
#
#
# Indices 1 2 3 4 5 6 
#
# 1 6.6800 15.5700 9.2303 0.0000 0.0000 0.0000
# 2 15.5700 93.1469 35.5582 0.0000 0.0000 0.0000
# 3 9.2303 35.5582 66.9949 0.0000 0.0000 0.0000
# 4 0.0000 0.0000 0.0000 5.5772 0.0000 0.0000
# 5 0.0000 0.0000 0.0000 0.0000 24.3890 0.0000
# 6 0.0000 0.0000 0.0000 0.0000 0.0000 17.6690
#
#
#
# Elastic Compliance Matrix: (Units=1/GPa)
#
#
# Indices 1 2 3 4 5 6 
#
# 1 0.258052 -0.037074 -0.015876 0.000000 0.000000 0.000000
# 2 -0.037074 0.018790 -0.004865 0.000000 0.000000 0.000000
# 3 -0.015876 -0.004865 0.019696 0.000000 0.000000 0.000000
# 4 0.000000 0.000000 0.000000 0.179302 0.000000 0.000000
# 5 0.000000 0.000000 0.000000 0.000000 0.041002 0.000000
# 6 0.000000 0.000000 0.000000 0.000000 0.000000 0.056596
#
#
# Mechanical properties :
#
#
# Convention : Reuss Voigt Hill
#
# Bulk Modulus (GPa) = 5.52768 31.94877 18.73823
# Shear Modulus (GPa) = 6.67226 16.62459 11.64842
#
# Velocity S-wave (km/s) = 1.95417 3.08462 2.58202
# Velocity P-wave (km/s) = 2.87323 5.56526 4.42874
#
# Compressibility (1/GPa) = 0.18090765
#
# Stress axis : x y z
#
# Youngs Moduli (GPa) = 3.87518 53.21951 50.77159
#
# Poissons Ratio (x) = 1.97307 0.80605
# Poissons Ratio (y) = 0.14367 0.24701
# Poissons Ratio (z) = 0.06152 0.25892
#
# Static dielectric constant tensor:
#      x y z
#    x 1.594700 0.000000 0.000000 
#    y 0.000000 1.604810 0.000000 
#    z 0.000000 0.000000 1.579810 
# 
# From -- ./inp_files/63917.got.cif
#   From: 2010.05.17/outbox.cif.g08.bks.cpg/sg74_32_cif.got.tgz:63917.got - 2010.06.03 17:57:02.
