data_PCOD9540731
_publ_section_title
;
Structure prediction by ZEFSAII (Michael W. Deem and Ramdas Pophale) SiO2 
 PCOD9540731
Probable space group: I M M A
;
_chemical_formula_sum "Si O2"
_cell_formula_units_Z 72
_cell_length_a 34.978471
_cell_length_b 7.467046
_cell_length_c 15.096801
_cell_angle_alpha 90.000000
_cell_angle_beta 90.000000
_cell_angle_gamma 90.000000
_cell_volume 3943.070831
_symmetry_space_group_name_H-M "I M M A"
_symmetry_group_IT_number 74
_symmetry_cell_setting 'orthorhombic'
loop_
_space_group_symop_operation_xyz
x,y,z
-x,1/2-y,z
x,-y,-z
-x,1/2+y,-z
-x,-y,-z
x,1/2+y,-z
-x,y,z
x,1/2-y,z
1/2+x,1/2+y,1/2+z
1/2-x,-y,1/2+z
1/2+x,1/2-y,1/2-z
1/2-x,y,1/2-z
1/2-x,1/2-y,1/2-z
1/2+x,y,1/2-z
1/2-x,1/2+y,1/2+z
1/2+x,-y,1/2+z
loop_
_atom_site_type_symbol
_atom_site_label
_atom_site_fract_x
_atom_site_fract_y
_atom_site_fract_z
Si Si1 0.344194 0.530420 0.782702
Si Si2 0.583522 0.464988 0.104907
Si Si3 0.272964 0.036121 0.101397
Si Si4 0.186217 0.035859 0.100600
Si Si5 0.500000 0.963916 0.894866
O O1 0.344795 0.750000 0.785438
O O2 0.305539 0.470981 0.832617
O O3 0.340483 0.473702 0.680593
O O4 0.381306 0.468330 0.836351
O O5 0.582681 0.250000 0.113696
O O6 0.589032 0.500000 0.000000
O O7 0.541539 0.532989 0.134729
O O8 0.270964 0.250000 0.113817
O O9 0.229766 0.965854 0.112796
O O10 0.284425 0.000000 0.000000
O O11 0.188571 0.250000 0.108759
O O12 0.174012 0.000000 0.000000
O O13 0.500000 0.750000 0.880264
O O14 0.500000 0.000000 0.000000
#
# Coordination Sequence:
#
# PCOD9540731 Si02
#       5
#    16  16  16  16   8
#     4   9  16  26  41  58  76 101 130 157 187 225
#     4   9  16  26  40  59  82 105 127 151 182 222
#     4   9  16  26  40  57  77 101 127 155 188 226
#     4   9  17  29  42  55  73  99 131 163 193 224
#     4   8  14  24  38  56  79 104 126 148 177 218
#
# _framework density 18.259878
#
# number of rings (size 3 to 8) (size 9 to 14) (size 15 to 20)
#    0.000    3.111    0.000    1.333    0.000    2.667 
#    0.000    2.222    0.000    5.333    0.000    0.778 
#    0.000    0.000    0.000    0.000    0.000    0.000 
#
# Total GULP energy -200625.300844 kJ/mol
# GULP energy per Si atom -5572.925023 kJ/mol
# Density = 1.821832 g / cm^3
# Si number density = 18.259878 Si / 1000 Ang^3
#
#
#
# Elastic Constant Matrix: (Units=GPa)
#
#
# Indices 1 2 3 4 5 6 
#
# 1 108.8431 6.1117 97.2636 0.0000 0.0000 0.0000
# 2 6.1117 53.7954 -1.2448 0.0000 0.0000 0.0000
# 3 97.2636 -1.2448 131.2677 0.0000 0.0000 0.0000
# 4 0.0000 0.0000 0.0000 15.6809 0.0000 0.0000
# 5 0.0000 0.0000 0.0000 0.0000 20.9186 0.0000
# 6 0.0000 0.0000 0.0000 0.0000 0.0000 1.9201
#
#
#
# Elastic Compliance Matrix: (Units=1/GPa)
#
#
# Indices 1 2 3 4 5 6 
#
# 1 0.027890 -0.003648 -0.020700 0.000000 0.000000 0.000000
# 2 -0.003648 0.019070 0.002884 0.000000 0.000000 0.000000
# 3 -0.020700 0.002884 0.022983 0.000000 0.000000 0.000000
# 4 0.000000 0.000000 0.000000 0.063772 0.000000 0.000000
# 5 0.000000 0.000000 0.000000 0.000000 0.047804 0.000000
# 6 0.000000 0.000000 0.000000 0.000000 0.000000 0.520804
#
#
# Mechanical properties :
#
#
# Convention : Reuss Voigt Hill
#
# Bulk Modulus (GPa) = 37.01601 55.35191 46.18396
# Shear Modulus (GPa) = 6.62905 20.48898 13.55902
#
# Velocity S-wave (km/s) = 1.90743 3.35338 2.72795
# Velocity P-wave (km/s) = 5.01665 6.73593 5.93884
#
# Compressibility (1/GPa) = 0.02701534
#
# Stress axis : x y z
#
# Youngs Moduli (GPa) = 35.85509 52.43819 43.51026
#
# Poissons Ratio (x) = 0.19127 0.90066
# Poissons Ratio (y) = 0.13078 -0.12546
# Poissons Ratio (z) = 0.74220 -0.15121
#
# Static dielectric constant tensor:
#      x y z
#    x 1.654660 0.000000 0.000000 
#    y 0.000000 1.674530 0.000000 
#    z 0.000000 0.000000 1.609090 
# 
# From -- ./inp_files/18906.got.cif
#   From: 2010.05.17/outbox.cif.g08.bks.cpg/sg74_10_cif.got.tgz:18906.got - 2010.06.03 17:57:02.
