data_PCOD9540516
_publ_section_title
;
Structure prediction by ZEFSAII (Michael W. Deem and Ramdas Pophale) SiO2 
 PCOD9540516
Probable space group: I M M A
;
_chemical_formula_sum "Si O2"
_cell_formula_units_Z 96
_cell_length_a 20.476852
_cell_length_b 8.923187
_cell_length_c 27.848417
_cell_angle_alpha 90.000000
_cell_angle_beta 90.000000
_cell_angle_gamma 90.000000
_cell_volume 5088.428767
_symmetry_space_group_name_H-M "I M M A"
_symmetry_group_IT_number 74
_symmetry_cell_setting 'orthorhombic'
loop_
_space_group_symop_operation_xyz
x,y,z
-x,1/2-y,z
x,-y,-z
-x,1/2+y,-z
-x,-y,-z
x,1/2+y,-z
-x,y,z
x,1/2-y,z
1/2+x,1/2+y,1/2+z
1/2-x,-y,1/2+z
1/2+x,1/2-y,1/2-z
1/2-x,y,1/2-z
1/2-x,1/2-y,1/2-z
1/2+x,y,1/2-z
1/2-x,1/2+y,1/2+z
1/2+x,-y,1/2+z
loop_
_atom_site_type_symbol
_atom_site_label
_atom_site_fract_x
_atom_site_fract_y
_atom_site_fract_z
Si Si1 0.925727 0.570135 0.448643
Si Si2 0.575964 0.570887 0.406130
Si Si3 0.924132 0.429146 0.793092
Si Si4 0.798867 0.428345 0.050778
Si Si5 0.807028 0.929315 0.380050
Si Si6 0.180850 0.575211 0.723235
O O1 0.908950 0.500000 0.500000
O O2 0.925013 0.750000 0.453284
O O3 0.872606 0.529341 0.409142
O O4 0.000000 0.524060 0.436312
O O5 0.500000 0.537595 0.416747
O O6 0.585611 0.750000 0.412777
O O7 0.587325 0.537882 0.349513
O O8 0.627605 0.480636 0.437301
O O9 0.915802 0.250000 0.787149
O O10 0.875167 0.514118 0.758351
O O11 0.000000 0.464662 0.782738
O O12 0.794251 0.250000 0.048376
O O13 0.752952 0.492357 0.092821
O O14 0.778522 0.500000 0.000000
O O15 0.798136 0.750000 0.381988
O O16 0.814658 0.982980 0.325789
O O17 0.169504 0.750000 0.712381
O O18 0.250000 0.561458 0.750000
#
# Coordination Sequence:
#
# PCOD9540516 Si02
#       6
#    16  16  16  16  16  16
#     4   9  19  36  58  84 112 143 180 223 273 329
#     4   9  19  38  63  89 117 150 190 235 285 343
#     4   9  19  37  61  87 115 150 191 234 283 341
#     4  12  25  40  59  84 116 152 192 238 287 343
#     4  11  23  39  60  84 113 150 191 238 288 339
#     4  11  24  39  56  83 117 151 190 237 287 342
#
# _framework density 18.866334999999999
#
# number of rings (size 3 to 8) (size 9 to 14) (size 15 to 20)
#    0.000    1.833    0.000    5.000    0.000    9.000 
#    0.000    3.333    0.000    0.000    0.000    0.000 
#    0.000    0.000    0.000    0.000    0.000    0.000 
#
# Total GULP energy -268282.369715 kJ/mol
# GULP energy per Si atom -5589.216036 kJ/mol
# Density = 1.882339 g / cm^3
# Si number density = 18.866335 Si / 1000 Ang^3
#
#
#
# Elastic Constant Matrix: (Units=GPa)
#
#
# Indices 1 2 3 4 5 6 
#
# 1 59.0757 39.3949 19.7111 0.0000 0.0000 0.0000
# 2 39.3949 67.6403 27.2489 0.0000 0.0000 0.0000
# 3 19.7111 27.2489 34.0077 0.0000 0.0000 0.0000
# 4 0.0000 0.0000 0.0000 32.1333 0.0000 0.0000
# 5 0.0000 0.0000 0.0000 0.0000 36.0267 0.0000
# 6 0.0000 0.0000 0.0000 0.0000 0.0000 -4.2050
#
#
#
# Elastic Compliance Matrix: (Units=1/GPa)
#
#
# Indices 1 2 3 4 5 6 
#
# 1 0.028176 -0.014517 -0.004699 0.000000 0.000000 0.000000
# 2 -0.014517 0.029311 -0.015071 0.000000 0.000000 0.000000
# 3 -0.004699 -0.015071 0.044204 0.000000 0.000000 0.000000
# 4 0.000000 0.000000 0.000000 0.031120 0.000000 0.000000
# 5 0.000000 0.000000 0.000000 0.000000 0.027757 0.000000
# 6 0.000000 0.000000 0.000000 0.000000 0.000000 -0.237812
#
#
# Mechanical properties :
#
#
# Convention : Reuss Voigt Hill
#
# Bulk Modulus (GPa) = 30.19635 37.04818 33.62227
# Shear Modulus (GPa) = 2109.14411 17.74891 1063.44651
#
# Velocity S-wave (km/s) = 33.47189 3.07053 23.76758
# Velocity P-wave (km/s) = 38.85696 5.67897 27.76791
#
# Compressibility (1/GPa) = 0.03311658
#
# Stress axis : x y z
#
# Youngs Moduli (GPa) = 35.49085 34.11742 22.62215
#
# Poissons Ratio (x) = 0.49529 0.10630
# Poissons Ratio (y) = 0.51523 0.34094
# Poissons Ratio (z) = 0.16678 0.51418
#
# Static dielectric constant tensor:
#      x y z
#    x 1.652320 0.000000 0.000000 
#    y 0.000000 1.629420 0.000000 
#    z 0.000000 0.000000 1.619590 
# 
# From -- ./inp_files/68116.got.cif
#   From: 2010.05.17/outbox.cif.g08.bks.cpg/sg74_35_cif.got.tgz:68116.got - 2010.06.03 17:57:02.
