data_PCOD9540620
_publ_section_title
;
Structure prediction by ZEFSAII (Michael W. Deem and Ramdas Pophale) SiO2 
 PCOD9540620
Probable space group: I M M A
;
_chemical_formula_sum "Si O2"
_cell_formula_units_Z 64
_cell_length_a 27.694773
_cell_length_b 10.929681
_cell_length_c 9.203680
_cell_angle_alpha 90.000000
_cell_angle_beta 90.000000
_cell_angle_gamma 90.000000
_cell_volume 2785.908233
_symmetry_space_group_name_H-M "I M M A"
_symmetry_group_IT_number 74
_symmetry_cell_setting 'orthorhombic'
loop_
_space_group_symop_operation_xyz
x,y,z
-x,1/2-y,z
x,-y,-z
-x,1/2+y,-z
-x,-y,-z
x,1/2+y,-z
-x,y,z
x,1/2-y,z
1/2+x,1/2+y,1/2+z
1/2-x,-y,1/2+z
1/2+x,1/2-y,1/2-z
1/2-x,y,1/2-z
1/2-x,1/2-y,1/2-z
1/2+x,y,1/2-z
1/2-x,1/2+y,1/2+z
1/2+x,-y,1/2+z
loop_
_atom_site_type_symbol
_atom_site_label
_atom_site_fract_x
_atom_site_fract_y
_atom_site_fract_z
Si Si1 0.558361 0.250000 0.831182
Si Si2 0.557912 0.750000 0.828693
Si Si3 0.412351 0.998199 0.335880
Si Si4 0.790285 0.875723 0.547155
Si Si5 0.682526 0.119527 0.382275
O O1 0.500000 0.250000 0.828748
O O2 0.574924 0.374624 0.749875
O O3 0.573313 0.250000 0.001593
O O4 0.500000 0.750000 0.824295
O O5 0.574519 0.623262 0.751060
O O6 0.354807 0.009276 0.363907
O O7 0.434171 0.000000 0.500000
O O8 0.807534 0.750000 0.476530
O O9 0.732210 0.883128 0.526928
O O10 0.799494 0.869116 0.717143
O O11 0.814351 0.000000 0.500000
O O12 0.657805 0.250000 0.422165
#
# Coordination Sequence:
#
# PCOD9540620 Si02
#       5
#     8   8  16  16  16
#     4  11  27  47  67 100 135 170 217 274 339 401
#     4  11  25  47  71  92 131 178 211 268 341 405
#     4  12  24  42  70 101 133 171 222 274 330 395
#     4   9  18  35  58  83 122 171 215 262 315 378
#     4   9  19  38  58  86 128 171 212 262 325 380
#
# _framework density 22.972759
#
# number of rings (size 3 to 8) (size 9 to 14) (size 15 to 20)
#    0.000    1.750    1.250    4.500    0.000    7.000 
#    4.500    1.250    0.000    0.000    0.000    0.000 
#    0.000    0.000    0.000    0.000    0.000    0.000 
#
# Total GULP energy -178226.570602 kJ/mol
# GULP energy per Si atom -5569.580331 kJ/mol
# Density = 2.292047 g / cm^3
# Si number density = 22.972759 Si / 1000 Ang^3
#
#
#
# Elastic Constant Matrix: (Units=GPa)
#
#
# Indices 1 2 3 4 5 6 
#
# 1 78.5575 14.1194 8.9369 0.0000 0.0000 0.0000
# 2 14.1194 229.5261 85.4652 0.0000 0.0000 0.0000
# 3 8.9369 85.4652 125.9064 0.0000 0.0000 0.0000
# 4 0.0000 0.0000 0.0000 30.9514 0.0000 0.0000
# 5 0.0000 0.0000 0.0000 0.0000 7.1463 0.0000
# 6 0.0000 0.0000 0.0000 0.0000 0.0000 69.1260
#
#
#
# Elastic Compliance Matrix: (Units=1/GPa)
#
#
# Indices 1 2 3 4 5 6 
#
# 1 0.012896 -0.000605 -0.000504 0.000000 0.000000 0.000000
# 2 -0.000605 0.005859 -0.003934 0.000000 0.000000 0.000000
# 3 -0.000504 -0.003934 0.010649 0.000000 0.000000 0.000000
# 4 0.000000 0.000000 0.000000 0.032309 0.000000 0.000000
# 5 0.000000 0.000000 0.000000 0.000000 0.139933 0.000000
# 6 0.000000 0.000000 0.000000 0.000000 0.000000 0.014466
#
#
# Mechanical properties :
#
#
# Convention : Reuss Voigt Hill
#
# Bulk Modulus (GPa) = 51.77185 72.33701 62.05443
# Shear Modulus (GPa) = 21.49263 43.14262 32.31763
#
# Velocity S-wave (km/s) = 3.06203 4.33828 3.75478
# Velocity P-wave (km/s) = 5.92338 7.52667 6.77264
#
# Compressibility (1/GPa) = 0.01931552
#
# Stress axis : x y z
#
# Youngs Moduli (GPa) = 77.54506 170.68007 93.90867
#
# Poissons Ratio (x) = 0.10335 0.04736
# Poissons Ratio (y) = 0.04695 0.36944
# Poissons Ratio (z) = 0.03911 0.67146
#
# Static dielectric constant tensor:
#      x y z
#    x 1.896310 0.000000 0.000000 
#    y 0.000000 2.086200 0.000000 
#    z 0.000000 0.000000 1.921110 
# 
# From -- ./inp_files/15832.got.cif
#   From: 2010.05.17/outbox.cif.g08.bks.cpg/sg74_8_cif.got.tgz:15832.got - 2010.06.03 17:57:02.
