data_PCOD9540537
_publ_section_title
;
Structure prediction by ZEFSAII (Michael W. Deem and Ramdas Pophale) SiO2 
 PCOD9540537
Probable space group: I M M A
;
_chemical_formula_sum "Si O2"
_cell_formula_units_Z 80
_cell_length_a 14.294246
_cell_length_b 23.210568
_cell_length_c 12.138074
_cell_angle_alpha 90.000000
_cell_angle_beta 90.000000
_cell_angle_gamma 90.000000
_cell_volume 4027.140682
_symmetry_space_group_name_H-M "I M M A"
_symmetry_group_IT_number 74
_symmetry_cell_setting 'orthorhombic'
loop_
_space_group_symop_operation_xyz
x,y,z
-x,1/2-y,z
x,-y,-z
-x,1/2+y,-z
-x,-y,-z
x,1/2+y,-z
-x,y,z
x,1/2-y,z
1/2+x,1/2+y,1/2+z
1/2-x,-y,1/2+z
1/2+x,1/2-y,1/2-z
1/2-x,y,1/2-z
1/2-x,1/2-y,1/2-z
1/2+x,y,1/2-z
1/2-x,1/2+y,1/2+z
1/2+x,-y,1/2+z
loop_
_atom_site_type_symbol
_atom_site_label
_atom_site_fract_x
_atom_site_fract_y
_atom_site_fract_z
Si Si1 0.387675 0.685694 0.712219
Si Si2 0.777385 0.414413 0.582106
Si Si3 0.609615 0.817771 0.968857
Si Si4 0.607355 0.451007 0.717088
Si Si5 0.813498 0.432564 0.142512
O O1 0.500000 0.688017 0.711928
O O2 0.353426 0.750000 0.680191
O O3 0.360735 0.674615 0.840421
O O4 0.357559 0.631205 0.640624
O O5 0.828070 0.355132 0.550316
O O6 0.679536 0.411336 0.648464
O O7 0.848275 0.449851 0.660259
O O8 0.748729 0.440578 0.465053
O O9 0.500000 0.835037 0.976497
O O10 0.615488 0.750000 0.991819
O O11 0.500000 0.432611 0.717231
O O12 0.616296 0.514240 0.661569
O O13 0.750000 0.434576 0.250000
#
# Coordination Sequence:
#
# PCOD9540537 Si02
#       5
#    16  16  16  16  16
#     4   9  19  35  57  91 130 164 198 243 311 383
#     4  11  23  41  66  90 122 163 213 255 304 373
#     4   9  18  35  62  96 130 163 201 251 312 373
#     4  11  26  45  63  87 125 171 213 261 307 357
#     4  12  22  37  61  94 129 157 201 253 311 375
#
# _framework density 19.865210999999999
#
# number of rings (size 3 to 8) (size 9 to 14) (size 15 to 20)
#    0.000    1.600    4.000    3.000    0.000    3.600 
#    0.000    3.000    0.000    1.800    0.000    2.800 
#    0.000    0.000    0.000    0.000    0.000    0.000 
#
# Total GULP energy -223232.462454 kJ/mol
# GULP energy per Si atom -5580.811561 kJ/mol
# Density = 1.982000 g / cm^3
# Si number density = 19.865211 Si / 1000 Ang^3
#
#
#
# Elastic Constant Matrix: (Units=GPa)
#
#
# Indices 1 2 3 4 5 6 
#
# 1 112.7136 37.1400 36.1588 0.0000 0.0000 0.0000
# 2 37.1400 115.7993 33.8997 0.0000 0.0000 0.0000
# 3 36.1588 33.8997 103.5725 0.0001 0.0000 0.0000
# 4 0.0000 0.0000 0.0001 29.7541 0.0000 0.0000
# 5 0.0000 0.0000 0.0000 0.0000 21.0193 0.0000
# 6 0.0000 0.0000 0.0000 0.0000 0.0000 36.7793
#
#
#
# Elastic Compliance Matrix: (Units=1/GPa)
#
#
# Indices 1 2 3 4 5 6 
#
# 1 0.010641 -0.002572 -0.002873 0.000000 0.000000 0.000000
# 2 -0.002572 0.010172 -0.002432 0.000000 0.000000 0.000000
# 3 -0.002873 -0.002432 0.011454 0.000000 0.000000 0.000000
# 4 0.000000 0.000000 0.000000 0.033609 0.000000 0.000000
# 5 0.000000 0.000000 0.000000 0.000000 0.047575 0.000000
# 6 0.000000 0.000000 0.000000 0.000000 0.000000 0.027189
#
#
# Mechanical properties :
#
#
# Convention : Reuss Voigt Hill
#
# Bulk Modulus (GPa) = 60.55361 60.72026 60.63694
# Shear Modulus (GPa) = 30.88347 32.50302 31.69325
#
# Velocity S-wave (km/s) = 3.94718 4.04936 3.99860
# Velocity P-wave (km/s) = 7.16394 7.24538 7.20478
#
# Compressibility (1/GPa) = 0.01651429
#
# Stress axis : x y z
#
# Youngs Moduli (GPa) = 93.97423 98.30613 87.30553
#
# Poissons Ratio (x) = 0.25282 0.25085
# Poissons Ratio (y) = 0.24168 0.21229
# Poissons Ratio (z) = 0.27001 0.23904
#
# Static dielectric constant tensor:
#      x y z
#    x 1.717620 0.000000 0.000000 
#    y 0.000000 1.747810 0.000000 
#    z 0.000000 0.000000 1.721460 
# 
# From -- ./inp_files/20502.got.cif
#   From: 2010.05.17/outbox.cif.g08.bks.cpg/sg74_11_cif.got.tgz:20502.got - 2010.06.03 17:57:02.
