data_PCOD9540294
_publ_section_title
;
Structure prediction by ZEFSAII (Michael W. Deem and Ramdas Pophale) SiO2 
 PCOD9540294
Probable space group: I M M A
;
_chemical_formula_sum "Si O2"
_cell_formula_units_Z 56
_cell_length_a 15.254022
_cell_length_b 18.210536
_cell_length_c 12.201676
_cell_angle_alpha 90.000000
_cell_angle_beta 90.000000
_cell_angle_gamma 90.000000
_cell_volume 3389.429351
_symmetry_space_group_name_H-M "I M M A"
_symmetry_group_IT_number 74
_symmetry_cell_setting 'orthorhombic'
loop_
_space_group_symop_operation_xyz
x,y,z
-x,1/2-y,z
x,-y,-z
-x,1/2+y,-z
-x,-y,-z
x,1/2+y,-z
-x,y,z
x,1/2-y,z
1/2+x,1/2+y,1/2+z
1/2-x,-y,1/2+z
1/2+x,1/2-y,1/2-z
1/2-x,y,1/2-z
1/2-x,1/2-y,1/2-z
1/2+x,y,1/2-z
1/2-x,1/2+y,1/2+z
1/2+x,-y,1/2+z
loop_
_atom_site_type_symbol
_atom_site_label
_atom_site_fract_x
_atom_site_fract_y
_atom_site_fract_z
Si Si1 0.847924 0.560471 0.408879
Si Si2 0.828677 0.915114 0.973040
Si Si3 0.000000 0.663033 0.061228
Si Si4 0.750000 0.043482 0.250000
Si Si5 0.500000 0.338188 0.821692
O O1 0.877153 0.500000 0.500000
O O2 0.758809 0.597528 0.454819
O O3 0.820666 0.510190 0.306185
O O4 0.917068 0.621526 0.376187
O O5 0.796954 0.911733 0.846961
O O6 0.912139 0.868246 0.005728
O O7 0.851234 0.000000 0.000000
O O8 0.000000 0.750000 0.050520
O O9 0.000000 0.645781 0.191266
O O10 0.500000 0.250000 0.836657
#
# Coordination Sequence:
#
# PCOD9540294 Si02
#       5
#    16  16   8   8   8
#     4   9  18  33  53  77 101 129 171 217 249 292
#     4   9  18  34  55  77  99 130 171 214 251 296
#     4  11  23  34  49  77 108 134 166 207 253 306
#     4   8  16  32  56  74  94 128 172 216 260 288
#     4  11  21  32  49  75 107 140 165 199 256 308
#
# _framework density 16.521955999999999
#
# number of rings (size 3 to 8) (size 9 to 14) (size 15 to 20)
#    0.000    3.143    0.000    4.286    0.000    2.286 
#    0.000    5.714    0.000    8.571    0.000    0.000 
#    0.000    0.000    0.000    0.000    0.000    0.000 
#
# Total GULP energy -155963.299161 kJ/mol
# GULP energy per Si atom -5570.117827 kJ/mol
# Density = 1.648435 g / cm^3
# Si number density = 16.521956 Si / 1000 Ang^3
#
#
#
# Elastic Constant Matrix: (Units=GPa)
#
#
# Indices 1 2 3 4 5 6 
#
# 1 150.2084 78.4157 80.2235 0.0000 0.0000 0.0000
# 2 78.4157 76.6082 52.8525 0.0000 0.0000 0.0000
# 3 80.2235 52.8525 103.8122 0.0000 0.0000 0.0000
# 4 0.0000 0.0000 0.0000 16.1432 0.0000 0.0000
# 5 0.0000 0.0000 0.0000 0.0000 14.8870 0.0000
# 6 0.0000 0.0000 0.0000 0.0000 0.0000 613.5391
#
#
#
# Elastic Compliance Matrix: (Units=1/GPa)
#
#
# Indices 1 2 3 4 5 6 
#
# 1 0.016720 -0.012640 -0.006485 0.000000 0.000000 0.000000
# 2 -0.012640 0.029676 -0.005341 0.000000 0.000000 0.000000
# 3 -0.006485 -0.005341 0.017364 0.000000 0.000000 0.000000
# 4 0.000000 0.000000 0.000000 0.061945 0.000000 0.000000
# 5 0.000000 0.000000 0.000000 0.000000 0.067173 0.000000
# 6 0.000000 0.000000 0.000000 0.000000 0.000000 0.001630
#
#
# Mechanical properties :
#
#
# Convention : Reuss Voigt Hill
#
# Bulk Modulus (GPa) = 67.44318 83.73467 75.58893
# Shear Modulus (GPa) = 20.13026 136.85635 78.49330
#
# Velocity S-wave (km/s) = 3.49434 9.11114 6.90012
# Velocity P-wave (km/s) = 7.56237 12.70727 10.45620
#
# Compressibility (1/GPa) = 0.01482730
#
# Stress axis : x y z
#
# Youngs Moduli (GPa) = 59.80941 33.69699 57.59149
#
# Poissons Ratio (x) = 0.42593 0.37351
# Poissons Ratio (y) = 0.75599 0.30759
# Poissons Ratio (z) = 0.38789 0.17997
#
# Static dielectric constant tensor:
#      x y z
#    x 1.564270 0.000000 0.000000 
#    y 0.000000 1.524440 0.000000 
#    z 0.000000 0.000000 1.590350 
# 
# From -- ./inp_files/19830.got.cif
#   From: 2010.05.17/outbox.cif.g08.bks.cpg/sg74_10_cif.got.tgz:19830.got - 2010.06.03 17:57:02.
