data_PCOD9540362
_publ_section_title
;
Structure prediction by ZEFSAII (Michael W. Deem and Ramdas Pophale) SiO2 
 PCOD9540362
Probable space group: I M M A
;
_chemical_formula_sum "Si O2"
_cell_formula_units_Z 64
_cell_length_a 21.107374
_cell_length_b 14.476936
_cell_length_c 9.392737
_cell_angle_alpha 90.000000
_cell_angle_beta 90.000000
_cell_angle_gamma 90.000000
_cell_volume 2870.139608
_symmetry_space_group_name_H-M "I M M A"
_symmetry_group_IT_number 74
_symmetry_cell_setting 'orthorhombic'
loop_
_space_group_symop_operation_xyz
x,y,z
-x,1/2-y,z
x,-y,-z
-x,1/2+y,-z
-x,-y,-z
x,1/2+y,-z
-x,y,z
x,1/2-y,z
1/2+x,1/2+y,1/2+z
1/2-x,-y,1/2+z
1/2+x,1/2-y,1/2-z
1/2-x,y,1/2-z
1/2-x,1/2-y,1/2-z
1/2+x,y,1/2-z
1/2-x,1/2+y,1/2+z
1/2+x,-y,1/2+z
loop_
_atom_site_type_symbol
_atom_site_label
_atom_site_fract_x
_atom_site_fract_y
_atom_site_fract_z
Si Si1 0.763682 0.404102 0.915305
Si Si2 0.906255 0.354741 0.934482
Si Si3 0.069163 0.538583 0.771787
Si Si4 0.315135 0.147615 0.160199
O O1 0.750000 0.416141 0.750000
O O2 0.830020 0.353518 0.936042
O O3 0.706782 0.645141 0.002850
O O4 0.771158 0.500000 0.000000
O O5 0.928602 0.250000 0.914915
O O6 0.924661 0.431521 0.817429
O O7 0.927958 0.400145 0.083411
O O8 0.130871 0.572659 0.687686
O O9 0.000000 0.553535 0.704260
O O10 0.338817 0.250000 0.199822
O O11 0.250000 0.132743 0.250000
#
# Coordination Sequence:
#
# PCOD9540362 Si02
#       4
#    16  16  16  16
#     4  12  23  40  68 103 142 178 226 290 354 413
#     4  11  21  37  63  97 138 185 237 289 342 409
#     4  11  23  40  64  99 141 183 232 286 348 418
#     4  11  22  41  67  99 139 182 233 288 345 411
#
# _framework density 22.298566000000001
#
# number of rings (size 3 to 8) (size 9 to 14) (size 15 to 20)
#    0.000    0.750    5.000    5.250    0.000    5.500 
#    0.000    0.000    0.000    8.250    0.000   10.500 
#    0.000    0.000    0.000    0.000    0.000    0.000 
#
# Total GULP energy -179020.439018 kJ/mol
# GULP energy per Si atom -5594.388719 kJ/mol
# Density = 2.224781 g / cm^3
# Si number density = 22.298566 Si / 1000 Ang^3
#
#
#
# Elastic Constant Matrix: (Units=GPa)
#
#
# Indices 1 2 3 4 5 6 
#
# 1 149.9265 46.6823 36.4764 0.0000 0.0000 0.0000
# 2 46.6823 183.5927 26.6670 0.0000 0.0000 0.0000
# 3 36.4764 26.6670 103.8228 0.0000 0.0000 0.0000
# 4 0.0000 0.0000 0.0000 9.1897 0.0000 0.0000
# 5 0.0000 0.0000 0.0000 0.0000 15.0641 0.0000
# 6 0.0000 0.0000 0.0000 0.0000 0.0000 -39.1761
#
#
#
# Elastic Compliance Matrix: (Units=1/GPa)
#
#
# Indices 1 2 3 4 5 6 
#
# 1 0.007738 -0.001634 -0.002299 0.000000 0.000000 0.000000
# 2 -0.001634 0.006003 -0.000968 0.000000 0.000000 0.000000
# 3 -0.002299 -0.000968 0.010688 0.000000 0.000000 0.000000
# 4 0.000000 0.000000 0.000000 0.108817 0.000000 0.000000
# 5 0.000000 0.000000 0.000000 0.000000 0.066383 0.000000
# 6 0.000000 0.000000 0.000000 0.000000 0.000000 -0.025526
#
#
# Mechanical properties :
#
#
# Convention : Reuss Voigt Hill
#
# Bulk Modulus (GPa) = 68.36267 72.99928 70.68097
# Shear Modulus (GPa) = 26.48586 18.84997 22.66792
#
# Velocity S-wave (km/s) = 3.45016 2.91063 3.19182
# Velocity P-wave (km/s) = 6.82612 6.64108 6.73424
#
# Compressibility (1/GPa) = 0.01462787
#
# Stress axis : x y z
#
# Youngs Moduli (GPa) = 129.23367 166.58878 93.56188
#
# Poissons Ratio (x) = 0.27214 0.21510
# Poissons Ratio (y) = 0.21112 0.09056
# Poissons Ratio (z) = 0.29711 0.16124
#
# Static dielectric constant tensor:
#      x y z
#    x 1.844800 0.000000 0.000000 
#    y 0.000000 1.867680 0.000000 
#    z 0.000000 0.000000 1.831900 
# 
# From -- ./inp_files/20134.got.cif
#   From: 2010.05.17/outbox.cif.g08.bks.cpg/sg74_11_cif.got.tgz:20134.got - 2010.06.03 17:57:02.
