data_PCOD9540605
_publ_section_title
;
Structure prediction by ZEFSAII (Michael W. Deem and Ramdas Pophale) SiO2 
 PCOD9540605
Probable space group: I M M A
;
_chemical_formula_sum "Si O2"
_cell_formula_units_Z 64
_cell_length_a 27.758051
_cell_length_b 17.409913
_cell_length_c 6.380498
_cell_angle_alpha 90.000000
_cell_angle_beta 90.000000
_cell_angle_gamma 90.000000
_cell_volume 3083.472980
_symmetry_space_group_name_H-M "I M M A"
_symmetry_group_IT_number 74
_symmetry_cell_setting 'orthorhombic'
loop_
_space_group_symop_operation_xyz
x,y,z
-x,1/2-y,z
x,-y,-z
-x,1/2+y,-z
-x,-y,-z
x,1/2+y,-z
-x,y,z
x,1/2-y,z
1/2+x,1/2+y,1/2+z
1/2-x,-y,1/2+z
1/2+x,1/2-y,1/2-z
1/2-x,y,1/2-z
1/2-x,1/2-y,1/2-z
1/2+x,y,1/2-z
1/2-x,1/2+y,1/2+z
1/2+x,-y,1/2+z
loop_
_atom_site_type_symbol
_atom_site_label
_atom_site_fract_x
_atom_site_fract_y
_atom_site_fract_z
Si Si1 0.750000 0.398758 0.750000
Si Si2 0.902462 0.880196 0.664057
Si Si3 0.675141 0.500000 0.000000
Si Si4 0.231918 0.250000 0.013824
Si Si5 0.623241 0.750000 0.521076
Si Si6 0.500000 0.467025 0.253462
Si Si7 0.057634 0.750000 0.364911
O O1 0.792434 0.456385 0.674802
O O2 0.747890 0.334704 0.565414
O O3 0.880976 0.824447 0.837017
O O4 0.949889 0.921878 0.748547
O O5 0.921004 0.825078 0.477780
O O6 0.860968 0.937723 0.597213
O O7 0.250000 0.250000 0.250000
O O8 0.176630 0.250000 0.931644
O O9 0.578665 0.750000 0.365757
O O10 0.500000 0.500000 0.500000
O O11 0.500000 0.500000 0.000000
O O12 0.000000 0.750000 0.376118
#
# Coordination Sequence:
#
# PCOD9540605 Si02
#       7
#     8  16   8   8   8   8   8
#     4  11  28  44  76 107 148 192 254 317 386 464
#     4  11  26  46  69 108 150 198 252 319 388 469
#     4  12  26  49  72 108 156 195 262 324 404 464
#     4  11  24  51  73 103 146 198 249 311 382 466
#     4  11  26  40  76 103 139 200 254 308 385 465
#     4  12  28  47  74 113 158 205 254 323 393 464
#     4  11  24  45  74 103 153 195 258 310 383 473
#
# _framework density 20.755815999999999
#
# number of rings (size 3 to 8) (size 9 to 14) (size 15 to 20)
#    0.000    0.750    2.500    3.000   10.500    6.000 
#    0.000    0.000    0.000    0.000    0.000    0.000 
#    0.000    0.000    0.000    0.000    0.000    0.000 
#
# Total GULP energy -178172.252202 kJ/mol
# GULP energy per Si atom -5567.882881 kJ/mol
# Density = 2.070857 g / cm^3
# Si number density = 20.755816 Si / 1000 Ang^3
#
#
#
# Elastic Constant Matrix: (Units=GPa)
#
#
# Indices 1 2 3 4 5 6 
#
# 1 130.2984 90.9647 26.7879 0.0000 0.0000 0.0000
# 2 90.9647 165.4314 75.6415 0.0000 0.0000 0.0000
# 3 26.7879 75.6415 97.6844 0.0000 0.0000 0.0000
# 4 0.0000 0.0000 0.0000 64.6758 0.0000 0.0000
# 5 0.0000 0.0000 0.0000 0.0000 -222.7272 0.0000
# 6 0.0000 0.0000 0.0000 0.0000 0.0000 76.7786
#
#
#
# Elastic Compliance Matrix: (Units=1/GPa)
#
#
# Indices 1 2 3 4 5 6 
#
# 1 0.013020 -0.008556 0.003055 0.000000 0.000000 0.000000
# 2 -0.008556 0.014981 -0.009254 0.000000 0.000000 0.000000
# 3 0.003055 -0.009254 0.016565 0.000000 0.000000 0.000000
# 4 0.000000 0.000000 0.000000 0.015462 0.000000 0.000000
# 5 0.000000 0.000000 0.000000 0.000000 -0.004490 0.000000
# 6 0.000000 0.000000 0.000000 0.000000 0.000000 0.013024
#
#
# Mechanical properties :
#
#
# Convention : Reuss Voigt Hill
#
# Bulk Modulus (GPa) = 66.42106 86.68916 76.55511
# Shear Modulus (GPa) = 48.50132 -2.91989 22.79072
#
# Velocity S-wave (km/s) = 4.83925 -1.18736 3.31726
# Velocity P-wave (km/s) = 7.95582 6.32274 7.18583
#
# Compressibility (1/GPa) = 0.01505547
#
# Stress axis : x y z
#
# Youngs Moduli (GPa) = 76.80667 66.75323 60.36816
#
# Poissons Ratio (x) = 0.57113 -0.18441
# Poissons Ratio (y) = 0.65714 0.55864
# Poissons Ratio (z) = -0.23463 0.61773
#
# Static dielectric constant tensor:
#      x y z
#    x 1.724350 0.000000 0.000000 
#    y 0.000000 2.169650 0.000000 
#    z 0.000000 0.000000 1.811170 
# 
# From -- ./inp_files/4974.got.cif
#   From: 2010.05.17/outbox.cif.g08.bks.cpg/sg74_3_cif.got.tgz:4974.got - 2010.06.03 17:57:02.
