data_PCOD9540506
_publ_section_title
;
Structure prediction by ZEFSAII (Michael W. Deem and Ramdas Pophale) SiO2 
 PCOD9540506
Probable space group: I M M A
;
_chemical_formula_sum "Si O2"
_cell_formula_units_Z 80
_cell_length_a 9.068358
_cell_length_b 13.719577
_cell_length_c 30.346011
_cell_angle_alpha 90.000000
_cell_angle_beta 90.000000
_cell_angle_gamma 90.000000
_cell_volume 3775.469700
_symmetry_space_group_name_H-M "I M M A"
_symmetry_group_IT_number 74
_symmetry_cell_setting 'orthorhombic'
loop_
_space_group_symop_operation_xyz
x,y,z
-x,1/2-y,z
x,-y,-z
-x,1/2+y,-z
-x,-y,-z
x,1/2+y,-z
-x,y,z
x,1/2-y,z
1/2+x,1/2+y,1/2+z
1/2-x,-y,1/2+z
1/2+x,1/2-y,1/2-z
1/2-x,y,1/2-z
1/2-x,1/2-y,1/2-z
1/2+x,y,1/2-z
1/2-x,1/2+y,1/2+z
1/2+x,-y,1/2+z
loop_
_atom_site_type_symbol
_atom_site_label
_atom_site_fract_x
_atom_site_fract_y
_atom_site_fract_z
Si Si1 0.679495 0.859822 0.163254
Si Si2 0.670246 0.632708 0.619295
Si Si3 0.173135 0.131775 0.022929
Si Si4 0.675679 0.944918 0.794373
Si Si5 0.668969 0.130811 0.934269
O O1 0.500000 0.857479 0.160365
O O2 0.729783 0.750000 0.172858
O O3 0.731666 0.891499 0.114302
O O4 0.718336 0.941511 0.198325
O O5 0.500000 0.598593 0.624363
O O6 0.664656 0.750000 0.617594
O O7 0.730086 0.600261 0.571185
O O8 0.766288 0.604391 0.661134
O O9 0.187080 0.250000 0.022087
O O10 0.000000 0.109456 0.022011
O O11 0.246336 0.097563 0.977716
O O12 0.500000 0.936454 0.791301
O O13 0.750000 0.906561 0.750000
O O14 0.500000 0.097202 0.936850
O O15 0.666485 0.250000 0.934726
#
# Coordination Sequence:
#
# PCOD9540506 Si02
#       5
#    16  16  16  16  16
#     4   8  16  33  55  78 106 140 175 211 255 307
#     4   9  19  37  58  78 105 141 176 212 257 309
#     4   8  14  26  46  73 104 136 168 204 249 298
#     4  11  23  38  57  79 103 133 172 221 270 314
#     4   8  13  24  46  74 102 134 171 207 243 291
#
# _framework density 21.189416999999999
#
# number of rings (size 3 to 8) (size 9 to 14) (size 15 to 20)
#    0.000    3.200    0.000    3.000    0.000    2.000 
#    0.000    5.000    0.000   10.200    0.000    0.000 
#    0.000    0.000    0.000    0.000    0.000    0.000 
#
# Total GULP energy -223151.632783 kJ/mol
# GULP energy per Si atom -5578.790820 kJ/mol
# Density = 2.114119 g / cm^3
# Si number density = 21.189417 Si / 1000 Ang^3
#
#
#
# Elastic Constant Matrix: (Units=GPa)
#
#
# Indices 1 2 3 4 5 6 
#
# 1 42.8469 -2.4994 49.1074 0.0000 0.0000 0.0000
# 2 -2.4994 36.0502 11.5323 0.0000 0.0000 0.0000
# 3 49.1074 11.5323 152.0122 0.0000 0.0000 0.0000
# 4 0.0000 0.0000 0.0000 27.3100 0.0000 0.0000
# 5 0.0000 0.0000 0.0000 0.0000 25.8556 0.0000
# 6 0.0000 0.0000 0.0000 0.0000 0.0000 10.9653
#
#
#
# Elastic Compliance Matrix: (Units=1/GPa)
#
#
# Indices 1 2 3 4 5 6 
#
# 1 0.038638 0.006838 -0.013001 0.000000 0.000000 0.000000
# 2 0.006838 0.029639 -0.004457 0.000000 0.000000 0.000000
# 3 -0.013001 -0.004457 0.011116 0.000000 0.000000 0.000000
# 4 0.000000 0.000000 0.000000 0.036617 0.000000 0.000000
# 5 0.000000 0.000000 0.000000 0.000000 0.038676 0.000000
# 6 0.000000 0.000000 0.000000 0.000000 0.000000 0.091197
#
#
# Mechanical properties :
#
#
# Convention : Reuss Voigt Hill
#
# Bulk Modulus (GPa) = 17.19608 38.57665 27.88636
# Shear Modulus (GPa) = 17.45148 24.34412 20.89780
#
# Velocity S-wave (km/s) = 2.87295 3.39319 3.14385
# Velocity P-wave (km/s) = 4.37471 5.79628 5.13493
#
# Compressibility (1/GPa) = 0.05815280
#
# Stress axis : x y z
#
# Youngs Moduli (GPa) = 25.88112 33.73918 89.95657
#
# Poissons Ratio (x) = -0.23070 1.16951
# Poissons Ratio (y) = -0.17697 0.40098
# Poissons Ratio (z) = 0.33647 0.15039
#
# Static dielectric constant tensor:
#      x y z
#    x 1.710770 0.000000 0.000000 
#    y 0.000000 1.839780 0.000000 
#    z 0.000000 0.000000 1.754820 
# 
# From -- ./inp_files/63935.got.cif
#   From: 2010.05.17/outbox.cif.g08.bks.cpg/sg74_32_cif.got.tgz:63935.got - 2010.06.03 17:57:02.
