data_PCOD9540217
_publ_section_title
;
Structure prediction by ZEFSAII (Michael W. Deem and Ramdas Pophale) SiO2 
 PCOD9540217
Probable space group: I M M A
;
_chemical_formula_sum "Si O2"
_cell_formula_units_Z 72
_cell_length_a 27.329715
_cell_length_b 14.877417
_cell_length_c 9.527514
_cell_angle_alpha 90.000000
_cell_angle_beta 90.000000
_cell_angle_gamma 90.000000
_cell_volume 3873.844953
_symmetry_space_group_name_H-M "I M M A"
_symmetry_group_IT_number 74
_symmetry_cell_setting 'orthorhombic'
loop_
_space_group_symop_operation_xyz
x,y,z
-x,1/2-y,z
x,-y,-z
-x,1/2+y,-z
-x,-y,-z
x,1/2+y,-z
-x,y,z
x,1/2-y,z
1/2+x,1/2+y,1/2+z
1/2-x,-y,1/2+z
1/2+x,1/2-y,1/2-z
1/2-x,y,1/2-z
1/2-x,1/2-y,1/2-z
1/2+x,y,1/2-z
1/2-x,1/2+y,1/2+z
1/2+x,-y,1/2+z
loop_
_atom_site_type_symbol
_atom_site_label
_atom_site_fract_x
_atom_site_fract_y
_atom_site_fract_z
Si Si1 0.198088 0.904517 0.930794
Si Si2 0.912178 0.104628 0.498049
Si Si3 0.057330 0.250000 0.724565
Si Si4 0.875252 0.750000 0.003816
Si Si5 0.808326 0.142868 0.390367
Si Si6 0.556858 0.750000 0.769821
O O1 0.189292 0.902746 0.762862
O O2 0.254624 0.875594 0.951031
O O3 0.160538 0.834984 0.997702
O O4 0.190697 0.000000 0.000000
O O5 0.930354 0.162202 0.630593
O O6 0.853205 0.110998 0.485168
O O7 0.931770 0.162115 0.364986
O O8 0.926796 0.000000 0.500000
O O9 0.090583 0.250000 0.861329
O O10 0.000000 0.250000 0.758060
O O11 0.908686 0.750000 0.864895
O O12 0.813250 0.250000 0.367460
O O13 0.500000 0.750000 0.731579
#
# Coordination Sequence:
#
# PCOD9540217 Si02
#       6
#    16  16   8   8  16   8
#     4  11  22  37  64  95 131 166 205 252 310 372
#     4  11  22  41  66  94 125 166 208 259 315 377
#     4  11  27  44  62  92 127 159 211 277 323 365
#     4  12  23  43  64  92 127 169 207 264 321 375
#     4  11  19  42  66  91 127 174 212 245 301 382
#     4  11  23  42  67  90 116 166 223 260 319 380
#
# _framework density 18.586183999999999
#
# number of rings (size 3 to 8) (size 9 to 14) (size 15 to 20)
#    0.000    0.889    6.667    3.000    3.111    1.778 
#    0.000    1.111    0.000    4.000    0.000    0.000 
#    0.000    0.000    0.000    0.000    0.000    0.000 
#
# Total GULP energy -201229.446093 kJ/mol
# GULP energy per Si atom -5589.706836 kJ/mol
# Density = 1.854388 g / cm^3
# Si number density = 18.586184 Si / 1000 Ang^3
#
#
#
# Elastic Constant Matrix: (Units=GPa)
#
#
# Indices 1 2 3 4 5 6 
#
# 1 146.4295 55.1619 40.9533 0.0000 0.0000 0.0000
# 2 55.1619 188.2898 70.8564 0.0000 0.0000 0.0000
# 3 40.9533 70.8564 78.5131 0.0000 0.0000 0.0000
# 4 0.0000 0.0000 0.0000 41.4870 0.0000 0.0000
# 5 0.0000 0.0000 0.0000 0.0000 -20.3736 0.0000
# 6 0.0000 0.0000 0.0000 0.0000 0.0000 -14.2108
#
#
#
# Elastic Compliance Matrix: (Units=1/GPa)
#
#
# Indices 1 2 3 4 5 6 
#
# 1 0.008170 -0.001196 -0.003182 0.000000 0.000000 0.000000
# 2 -0.001196 0.008217 -0.006792 0.000000 0.000000 0.000000
# 3 -0.003182 -0.006792 0.020526 0.000000 0.000000 0.000000
# 4 0.000000 0.000000 0.000000 0.024104 0.000000 0.000000
# 5 0.000000 0.000000 0.000000 0.000000 -0.049083 0.000000
# 6 0.000000 0.000000 0.000000 0.000000 0.000000 -0.070369
#
#
# Mechanical properties :
#
#
# Convention : Reuss Voigt Hill
#
# Bulk Modulus (GPa) = 68.62014 83.01951 75.81983
# Shear Modulus (GPa) = -160.06799 17.79790 -71.13505
#
# Velocity S-wave (km/s) = -9.29026 3.09785 -6.19324
# Velocity P-wave (km/s) = 8.83621 7.58682 3.20302
#
# Compressibility (1/GPa) = 0.01457298
#
# Stress axis : x y z
#
# Youngs Moduli (GPa) = 122.40316 121.69424 48.71798
#
# Poissons Ratio (x) = 0.14554 0.15503
# Poissons Ratio (y) = 0.14639 0.33090
# Poissons Ratio (z) = 0.38950 0.82656
#
# Static dielectric constant tensor:
#      x y z
#    x 1.649850 0.000000 0.000000 
#    y 0.000000 1.630590 0.000000 
#    z 0.000000 0.000000 1.620990 
# 
# From -- ./inp_files/14763.got.cif
#   From: 2010.05.17/outbox.cif.g08.bks.cpg/sg74_8_cif.got.tgz:14763.got - 2010.06.03 17:57:02.
