data_PCOD9540276
_publ_section_title
;
Structure prediction by ZEFSAII (Michael W. Deem and Ramdas Pophale) SiO2 
 PCOD9540276
Probable space group: I M M A
;
_chemical_formula_sum "Si O2"
_cell_formula_units_Z 104
_cell_length_a 20.612972
_cell_length_b 26.710362
_cell_length_c 9.476475
_cell_angle_alpha 90.000000
_cell_angle_beta 90.000000
_cell_angle_gamma 90.000000
_cell_volume 5217.557075
_symmetry_space_group_name_H-M "I M M A"
_symmetry_group_IT_number 74
_symmetry_cell_setting 'orthorhombic'
loop_
_space_group_symop_operation_xyz
x,y,z
-x,1/2-y,z
x,-y,-z
-x,1/2+y,-z
-x,-y,-z
x,1/2+y,-z
-x,y,z
x,1/2-y,z
1/2+x,1/2+y,1/2+z
1/2-x,-y,1/2+z
1/2+x,1/2-y,1/2-z
1/2-x,y,1/2-z
1/2-x,1/2-y,1/2-z
1/2+x,y,1/2-z
1/2-x,1/2+y,1/2+z
1/2+x,-y,1/2+z
loop_
_atom_site_type_symbol
_atom_site_label
_atom_site_fract_x
_atom_site_fract_y
_atom_site_fract_z
Si Si1 0.639677 0.340937 0.447067
Si Si2 0.683585 0.003510 0.170878
Si Si3 0.324273 0.890010 0.273317
Si Si4 0.615391 0.250000 0.073441
Si Si5 0.423084 0.087427 0.214369
Si Si6 0.928735 0.149606 0.566296
Si Si7 0.238801 0.250000 0.084921
Si Si8 0.570707 0.750000 0.613529
O O1 0.654831 0.380772 0.566677
O O2 0.614662 0.371271 0.310177
O O3 0.700410 0.301867 0.444330
O O4 0.583627 0.299905 0.474255
O O5 0.750000 0.021346 0.250000
O O6 0.622530 0.038455 0.211055
O O7 0.671143 0.947684 0.227724
O O8 0.692219 0.000000 0.000000
O O9 0.250000 0.874443 0.250000
O O10 0.372210 0.858168 0.177076
O O11 0.580340 0.201282 0.015827
O O12 0.689607 0.250000 0.020027
O O13 0.613924 0.250000 0.244315
O O14 0.500000 0.081523 0.256442
O O15 0.423953 0.107561 0.054516
O O16 0.000000 0.147015 0.632503
O O17 0.250000 0.250000 0.250000
O O18 0.500000 0.750000 0.673776
#
# Coordination Sequence:
#
# PCOD9540276 Si02
#       8
#    16  16  16   8  16  16   8   8
#     4  11  24  40  67  97 133 173 222 280 332 396
#     4  11  26  46  72 100 134 177 224 282 345 411
#     4  11  26  46  65  96 136 176 220 282 349 402
#     4  12  21  37  64  98 134 168 231 279 323 398
#     4  11  24  43  71 101 131 178 230 278 335 407
#     4  11  23  41  66  97 133 180 227 278 339 405
#     4  11  20  39  63 100 130 180 225 270 332 402
#     4  11  21  39  62  91 132 175 214 266 328 394
#
# _framework density 19.932699
#
# number of rings (size 3 to 8) (size 9 to 14) (size 15 to 20)
#    0.000    0.923    4.615    2.077    4.308    5.231 
#    0.000    3.462    0.000    0.000    0.000    0.000 
#    0.000    0.000    0.000    0.000    0.000    0.000 
#
# Total GULP energy -290050.215589 kJ/mol
# GULP energy per Si atom -5577.888761 kJ/mol
# Density = 1.988733 g / cm^3
# Si number density = 19.932699 Si / 1000 Ang^3
#
#
#
# Elastic Constant Matrix: (Units=GPa)
#
#
# Indices 1 2 3 4 5 6 
#
# 1 151.1782 43.3104 36.7825 0.0000 0.0000 0.0000
# 2 43.3104 76.2982 24.5083 0.0000 0.0000 0.0000
# 3 36.7825 24.5083 54.8065 0.0000 0.0000 0.0000
# 4 0.0000 0.0000 0.0000 22.1152 0.0000 0.0000
# 5 0.0000 0.0000 0.0000 0.0000 30.7416 0.0000
# 6 0.0000 0.0000 0.0000 0.0000 0.0000 -3.7063
#
#
#
# Elastic Compliance Matrix: (Units=1/GPa)
#
#
# Indices 1 2 3 4 5 6 
#
# 1 0.008662 -0.003561 -0.004221 0.000000 0.000000 0.000000
# 2 -0.003561 0.016769 -0.005109 0.000000 0.000000 0.000000
# 3 -0.004221 -0.005109 0.023363 0.000000 0.000000 0.000000
# 4 0.000000 0.000000 0.000000 0.045218 0.000000 0.000000
# 5 0.000000 0.000000 0.000000 0.000000 0.032529 0.000000
# 6 0.000000 0.000000 0.000000 0.000000 0.000000 -0.269809
#
#
# Mechanical properties :
#
#
# Convention : Reuss Voigt Hill
#
# Bulk Modulus (GPa) = 43.45414 54.60947 49.03180
# Shear Modulus (GPa) = -45.53090 21.67556 -11.92767
#
# Velocity S-wave (km/s) = -4.78455 3.30121 -2.44887
# Velocity P-wave (km/s) = 2.94530 6.47974 4.08119
#
# Compressibility (1/GPa) = 0.02301277
#
# Stress axis : x y z
#
# Youngs Moduli (GPa) = 115.44867 59.63415 42.80222
#
# Poissons Ratio (x) = 0.21236 0.18066
# Poissons Ratio (y) = 0.41112 0.21867
# Poissons Ratio (z) = 0.48729 0.30465
#
# Static dielectric constant tensor:
#      x y z
#    x 1.758820 0.000000 0.000000 
#    y 0.000000 1.692740 0.000000 
#    z 0.000000 0.000000 1.691740 
# 
# From -- ./inp_files/12833.got.cif
#   From: 2010.05.17/outbox.cif.g08.bks.cpg/sg74_7_cif.got.tgz:12833.got - 2010.06.03 17:57:02.
