data_PCOD9540701
_publ_section_title
;
Structure prediction by ZEFSAII (Michael W. Deem and Ramdas Pophale) SiO2 
 PCOD9540701
Probable space group: I M M A
;
_chemical_formula_sum "Si O2"
_cell_formula_units_Z 52
_cell_length_a 23.686788
_cell_length_b 11.216013
_cell_length_c 7.041669
_cell_angle_alpha 90.000000
_cell_angle_beta 90.000000
_cell_angle_gamma 90.000000
_cell_volume 1870.769513
_symmetry_space_group_name_H-M "I M M A"
_symmetry_group_IT_number 74
_symmetry_cell_setting 'orthorhombic'
loop_
_space_group_symop_operation_xyz
x,y,z
-x,1/2-y,z
x,-y,-z
-x,1/2+y,-z
-x,-y,-z
x,1/2+y,-z
-x,y,z
x,1/2-y,z
1/2+x,1/2+y,1/2+z
1/2-x,-y,1/2+z
1/2+x,1/2-y,1/2-z
1/2-x,y,1/2-z
1/2-x,1/2-y,1/2-z
1/2+x,y,1/2-z
1/2-x,1/2+y,1/2+z
1/2+x,-y,1/2+z
loop_
_atom_site_type_symbol
_atom_site_label
_atom_site_fract_x
_atom_site_fract_y
_atom_site_fract_z
Si Si1 0.728733 0.750000 0.961043
Si Si2 0.750000 0.465537 0.750000
Si Si3 0.875538 0.007559 0.272023
Si Si4 0.881744 0.250000 0.661799
Si Si5 0.000000 0.750000 0.295490
Si Si6 0.000000 0.014635 0.267458
O O1 0.750000 0.750000 0.750000
O O2 0.745662 0.630151 0.076656
O O3 0.661275 0.750000 0.989332
O O4 0.809828 0.535841 0.767031
O O5 0.875585 0.867476 0.212540
O O6 0.936753 0.061670 0.214326
O O7 0.878910 0.000000 0.500000
O O8 0.944203 0.250000 0.580623
O O9 0.000000 0.876802 0.191351
O O10 0.000000 0.000000 0.500000
#
# Coordination Sequence:
#
# PCOD9540701 Si02
#       6
#     8   8  16   8   4   8
#     4   9  17  32  53  72 100 136 170 211 270 316
#     4   9  18  32  50  75 102 132 172 221 262 315
#     4   9  16  29  47  74 104 133 175 218 263 318
#     4   8  15  27  45  68  93 128 163 202 256 306
#     4   8  12  22  42  66  90 116 162 208 238 298
#     4   8  14  24  44  69  98 133 169 212 260 317
#
# _framework density 27.796049
#
# number of rings (size 3 to 8) (size 9 to 14) (size 15 to 20)
#    0.000    3.385    0.000    0.923    0.000    0.000 
#   11.077    0.000    0.000    1.846    0.000    1.077 
#    0.000    0.000    0.000    0.000    0.000    0.000 
#
# Total GULP energy -144876.986413 kJ/mol
# GULP energy per Si atom -5572.191785 kJ/mol
# Density = 2.773278 g / cm^3
# Si number density = 27.796049 Si / 1000 Ang^3
#
#
#
# Elastic Constant Matrix: (Units=GPa)
#
#
# Indices 1 2 3 4 5 6 
#
# 1 404.2588 36.7855 75.1825 0.0000 0.0000 0.0000
# 2 36.7855 58.8810 -18.6895 0.0000 0.0000 0.0000
# 3 75.1825 -18.6895 118.6769 0.0000 0.0000 0.0000
# 4 0.0000 0.0000 0.0000 14.9189 0.0000 0.0000
# 5 0.0000 0.0000 0.0000 0.0000 33.3688 0.0000
# 6 0.0000 0.0000 0.0000 0.0000 0.0000 26.6913
#
#
#
# Elastic Compliance Matrix: (Units=1/GPa)
#
#
# Indices 1 2 3 4 5 6 
#
# 1 0.003181 -0.002765 -0.002451 0.000000 0.000000 0.000000
# 2 -0.002765 0.020281 0.004946 0.000000 0.000000 0.000000
# 3 -0.002451 0.004946 0.010758 0.000000 0.000000 0.000000
# 4 0.000000 0.000000 0.000000 0.067029 0.000000 0.000000
# 5 0.000000 0.000000 0.000000 0.000000 0.029968 0.000000
# 6 0.000000 0.000000 0.000000 0.000000 0.000000 0.037465
#
#
# Mechanical properties :
#
#
# Convention : Reuss Voigt Hill
#
# Bulk Modulus (GPa) = 29.69218 85.37484 57.53351
# Shear Modulus (GPa) = 27.70870 47.56502 37.63686
#
# Velocity S-wave (km/s) = 3.16073 4.14117 3.68372
# Velocity P-wave (km/s) = 4.90160 7.32442 6.23189
#
# Compressibility (1/GPa) = 0.03367890
#
# Stress axis : x y z
#
# Youngs Moduli (GPa) = 314.36128 49.30783 92.95736
#
# Poissons Ratio (x) = 0.13635 0.22781
# Poissons Ratio (y) = 0.86928 -0.45973
# Poissons Ratio (z) = 0.77040 -0.24386
#
# Static dielectric constant tensor:
#      x y z
#    x 2.217000 0.000000 0.000000 
#    y 0.000000 2.398880 0.000000 
#    z 0.000000 0.000000 2.199410 
# 
# From -- ./inp_files/8633.got.cif
#   From: 2010.05.17/outbox.cif.g08.bks.cpg/sg74_5_cif.got.tgz:8633.got - 2010.06.03 17:57:02.
