data_PCOD9540632
_publ_section_title
;
Structure prediction by ZEFSAII (Michael W. Deem and Ramdas Pophale) SiO2 
 PCOD9540632
Probable space group: I M M A
;
_chemical_formula_sum "Si O2"
_cell_formula_units_Z 96
_cell_length_a 14.041528
_cell_length_b 13.965352
_cell_length_c 32.223753
_cell_angle_alpha 90.000000
_cell_angle_beta 90.000000
_cell_angle_gamma 90.000000
_cell_volume 6318.913014
_symmetry_space_group_name_H-M "I M M A"
_symmetry_group_IT_number 74
_symmetry_cell_setting 'orthorhombic'
loop_
_space_group_symop_operation_xyz
x,y,z
-x,1/2-y,z
x,-y,-z
-x,1/2+y,-z
-x,-y,-z
x,1/2+y,-z
-x,y,z
x,1/2-y,z
1/2+x,1/2+y,1/2+z
1/2-x,-y,1/2+z
1/2+x,1/2-y,1/2-z
1/2-x,y,1/2-z
1/2-x,1/2-y,1/2-z
1/2+x,y,1/2-z
1/2-x,1/2+y,1/2+z
1/2+x,-y,1/2+z
loop_
_atom_site_type_symbol
_atom_site_label
_atom_site_fract_x
_atom_site_fract_y
_atom_site_fract_z
Si Si1 0.112642 0.361898 0.322029
Si Si2 0.386292 0.135563 0.611127
Si Si3 0.886338 0.358606 0.223753
Si Si4 0.888307 0.634078 0.018175
Si Si5 0.613323 0.365058 0.427530
Si Si6 0.210899 0.032607 0.150193
O O1 0.134570 0.250000 0.332068
O O2 0.130656 0.374020 0.272581
O O3 0.179556 0.435559 0.346194
O O4 0.000000 0.375846 0.329001
O O5 0.500000 0.112910 0.615774
O O6 0.377855 0.250000 0.615445
O O7 0.354684 0.107534 0.564107
O O8 0.320497 0.076193 0.642181
O O9 0.855077 0.250000 0.213708
O O10 0.836310 0.430083 0.192612
O O11 0.000000 0.363149 0.217498
O O12 0.883043 0.750000 0.017200
O O13 0.000000 0.609393 0.017997
O O14 0.850727 0.601615 0.973279
O O15 0.500000 0.385323 0.425227
O O16 0.623717 0.250000 0.425410
O O17 0.664569 0.411409 0.388603
#
# Coordination Sequence:
#
# PCOD9540632 Si02
#       6
#    16  16  16  16  16  16
#     4   9  19  34  48  63  88 120 145 168 211 272
#     4   9  18  31  44  61  89 123 154 180 211 256
#     4   9  17  29  45  67  94 117 134 160 210 276
#     4   7  12  25  40  54  84 125 148 163 202 262
#     4   9  16  24  37  64  97 118 135 168 215 264
#     4  12  19  25  44  69  88 111 149 188 215 243
#
# _framework density 15.192487
#
# number of rings (size 3 to 8) (size 9 to 14) (size 15 to 20)
#    0.000    2.833    0.000    6.500    0.000    3.333 
#    0.000    2.500    0.000    2.500    0.000    4.667 
#    0.000    4.000    0.000    0.000    0.000    0.000 
#
# Total GULP energy -267408.321357 kJ/mol
# GULP energy per Si atom -5571.006695 kJ/mol
# Density = 1.515791 g / cm^3
# Si number density = 15.192487 Si / 1000 Ang^3
#
#
#
# Elastic Constant Matrix: (Units=GPa)
#
#
# Indices 1 2 3 4 5 6 
#
# 1 55.9629 36.1752 31.1705 0.0000 0.0000 0.0000
# 2 36.1752 68.1262 30.3199 0.0000 0.0000 0.0000
# 3 31.1705 30.3199 35.3321 0.0000 0.0000 0.0000
# 4 0.0000 0.0000 0.0000 28.1666 0.0000 0.0000
# 5 0.0000 0.0000 0.0000 0.0000 12.7203 0.0000
# 6 0.0000 0.0000 0.0000 0.0000 0.0000 18.6211
#
#
#
# Elastic Compliance Matrix: (Units=1/GPa)
#
#
# Indices 1 2 3 4 5 6 
#
# 1 0.037946 -0.008495 -0.026187 0.000000 0.000000 0.000000
# 2 -0.008495 0.025650 -0.014518 0.000000 0.000000 0.000000
# 3 -0.026187 -0.014518 0.063863 0.000000 0.000000 0.000000
# 4 0.000000 0.000000 0.000000 0.035503 0.000000 0.000000
# 5 0.000000 0.000000 0.000000 0.000000 0.078614 0.000000
# 6 0.000000 0.000000 0.000000 0.000000 0.000000 0.053703
#
#
# Mechanical properties :
#
#
# Convention : Reuss Voigt Hill
#
# Bulk Modulus (GPa) = 34.40965 39.41694 36.91330
# Shear Modulus (GPa) = 12.39575 16.01865 14.20720
#
# Velocity S-wave (km/s) = 2.85952 3.25064 3.06133
# Velocity P-wave (km/s) = 5.79662 6.33169 6.07005
#
# Compressibility (1/GPa) = 0.02906161
#
# Stress axis : x y z
#
# Youngs Moduli (GPa) = 26.35349 38.98560 15.65849
#
# Poissons Ratio (x) = 0.33117 0.41004
# Poissons Ratio (y) = 0.22387 0.22732
# Poissons Ratio (z) = 0.69011 0.56597
#
# Static dielectric constant tensor:
#      x y z
#    x 1.494590 0.000000 0.000000 
#    y 0.000000 1.546220 0.000000 
#    z 0.000000 0.000000 1.528170 
# 
# From -- ./inp_files/72589.got.cif
#   From: 2010.05.17/outbox.cif.g08.bks.cpg/sg74_37_cif.got.tgz:72589.got - 2010.06.03 17:57:02.
