data_PCOD9540498
_publ_section_title
;
Structure prediction by ZEFSAII (Michael W. Deem and Ramdas Pophale) SiO2 
 PCOD9540498
Probable space group: I M M A
;
_chemical_formula_sum "Si O2"
_cell_formula_units_Z 96
_cell_length_a 14.355319
_cell_length_b 19.468677
_cell_length_c 18.210536
_cell_angle_alpha 90.000000
_cell_angle_beta 90.000000
_cell_angle_gamma 90.000000
_cell_volume 5089.463644
_symmetry_space_group_name_H-M "I M M A"
_symmetry_group_IT_number 74
_symmetry_cell_setting 'orthorhombic'
loop_
_space_group_symop_operation_xyz
x,y,z
-x,1/2-y,z
x,-y,-z
-x,1/2+y,-z
-x,-y,-z
x,1/2+y,-z
-x,y,z
x,1/2-y,z
1/2+x,1/2+y,1/2+z
1/2-x,-y,1/2+z
1/2+x,1/2-y,1/2-z
1/2-x,y,1/2-z
1/2-x,1/2-y,1/2-z
1/2+x,y,1/2-z
1/2-x,1/2+y,1/2+z
1/2+x,-y,1/2+z
loop_
_atom_site_type_symbol
_atom_site_label
_atom_site_fract_x
_atom_site_fract_y
_atom_site_fract_z
Si Si1 0.609488 0.562337 0.145089
Si Si2 0.741139 0.468342 0.425026
Si Si3 0.256447 0.329921 0.126319
Si Si4 0.609176 0.952760 0.320662
Si Si5 0.102267 0.331883 0.247837
Si Si6 0.260352 0.672261 0.338397
O O1 0.500000 0.568549 0.129596
O O2 0.662152 0.504915 0.097545
O O3 0.620467 0.544669 0.232159
O O4 0.668049 0.632675 0.133850
O O5 0.705216 0.500000 0.500000
O O6 0.752418 0.387138 0.435162
O O7 0.670031 0.488784 0.359967
O O8 0.268825 0.250000 0.106385
O O9 0.162669 0.336552 0.174510
O O10 0.337258 0.354282 0.182625
O O11 0.500000 0.957344 0.337256
O O12 0.654088 0.880735 0.348573
O O13 0.093523 0.250000 0.259295
O O14 0.000000 0.363578 0.243489
O O15 0.272054 0.750000 0.366618
O O16 0.250000 0.677067 0.250000
#
# Coordination Sequence:
#
# PCOD9540498 Si02
#       6
#    16  16  16  16  16  16
#     4   9  19  35  55  78 105 141 183 227 278 333
#     4  11  23  37  52  75 111 149 184 226 274 339
#     4   9  19  34  53  77 106 139 179 226 275 328
#     4   9  19  35  55  78 105 141 183 227 278 333
#     4   8  15  29  52  83 109 128 161 217 280 332
#     4   8  14  27  50  79 108 134 169 223 274 315
#
# _framework density 18.862497999999999
#
# number of rings (size 3 to 8) (size 9 to 14) (size 15 to 20)
#    0.000    3.000    0.000    2.500    4.667    2.667 
#    0.000    6.667    0.000    0.000    0.000    0.000 
#    0.000    0.000    0.000    0.000    0.000    0.000 
#
# Total GULP energy -267415.991138 kJ/mol
# GULP energy per Si atom -5571.166482 kJ/mol
# Density = 1.881957 g / cm^3
# Si number density = 18.862498 Si / 1000 Ang^3
#
#
#
# Elastic Constant Matrix: (Units=GPa)
#
#
# Indices 1 2 3 4 5 6 
#
# 1 103.3590 5.4757 -7.4786 0.0000 0.0000 0.0000
# 2 5.4757 115.3509 6.0943 0.0000 0.0000 0.0000
# 3 -7.4786 6.0943 7.8893 0.0000 0.0000 0.0000
# 4 0.0000 0.0000 0.0000 20.6410 0.0000 0.0000
# 5 0.0000 0.0000 0.0000 0.0000 4.6677 0.0000
# 6 0.0000 0.0000 0.0000 0.0000 0.0000 6.9592
#
#
#
# Elastic Compliance Matrix: (Units=1/GPa)
#
#
# Indices 1 2 3 4 5 6 
#
# 1 0.010512 -0.001069 0.010791 0.000000 0.000000 0.000000
# 2 -0.001069 0.009147 -0.008079 0.000000 0.000000 0.000000
# 3 0.010791 -0.008079 0.143225 0.000000 0.000000 0.000000
# 4 0.000000 0.000000 0.000000 0.048447 0.000000 0.000000
# 5 0.000000 0.000000 0.000000 0.000000 0.214239 0.000000
# 6 0.000000 0.000000 0.000000 0.000000 0.000000 0.143695
#
#
# Mechanical properties :
#
#
# Convention : Reuss Voigt Hill
#
# Bulk Modulus (GPa) = 6.01794 26.08688 16.05241
# Shear Modulus (GPa) = 8.04674 21.28743 14.66709
#
# Velocity S-wave (km/s) = 2.06767 3.36305 2.79154
# Velocity P-wave (km/s) = 2.98290 5.37961 4.34959
#
# Compressibility (1/GPa) = 0.16616982
#
# Stress axis : x y z
#
# Youngs Moduli (GPa) = 95.12524 109.32797 6.98202
#
# Poissons Ratio (x) = 0.11689 -0.07534
# Poissons Ratio (y) = 0.10170 0.05641
# Poissons Ratio (z) = -1.02651 0.88328
#
# Static dielectric constant tensor:
#      x y z
#    x 1.672870 0.000000 0.000000 
#    y 0.000000 1.695490 0.000000 
#    z 0.000000 0.000000 1.633210 
# 
# From -- ./inp_files/32372.got.cif
#   From: 2010.05.17/outbox.cif.g08.bks.cpg/sg74_17_cif.got.tgz:32372.got - 2010.06.03 17:57:02.
