data_PCOD9540547
_publ_section_title
;
Structure prediction by ZEFSAII (Michael W. Deem and Ramdas Pophale) SiO2 
 PCOD9540547
Probable space group: I M M A
;
_chemical_formula_sum "Si O2"
_cell_formula_units_Z 64
_cell_length_a 10.288534
_cell_length_b 28.706320
_cell_length_c 11.541102
_cell_angle_alpha 90.000000
_cell_angle_beta 90.000000
_cell_angle_gamma 90.000000
_cell_volume 3408.617727
_symmetry_space_group_name_H-M "I M M A"
_symmetry_group_IT_number 74
_symmetry_cell_setting 'orthorhombic'
loop_
_space_group_symop_operation_xyz
x,y,z
-x,1/2-y,z
x,-y,-z
-x,1/2+y,-z
-x,-y,-z
x,1/2+y,-z
-x,y,z
x,1/2-y,z
1/2+x,1/2+y,1/2+z
1/2-x,-y,1/2+z
1/2+x,1/2-y,1/2-z
1/2-x,y,1/2-z
1/2-x,1/2-y,1/2-z
1/2+x,y,1/2-z
1/2-x,1/2+y,1/2+z
1/2+x,-y,1/2+z
loop_
_atom_site_type_symbol
_atom_site_label
_atom_site_fract_x
_atom_site_fract_y
_atom_site_fract_z
Si Si1 0.500000 0.444252 0.997958
Si Si2 0.750000 0.167373 0.750000
Si Si3 0.252244 0.896327 0.611448
Si Si4 0.500000 0.102195 0.755701
Si Si5 0.500000 0.055526 0.502473
Si Si6 0.843496 0.802327 0.004725
O O1 0.500000 0.432356 0.862587
O O2 0.500000 0.500000 0.000000
O O3 0.624569 0.420412 0.058353
O O4 0.626093 0.134416 0.767763
O O5 0.715380 0.195407 0.634210
O O6 0.250000 0.897271 0.750000
O O7 0.374038 0.925032 0.562490
O O8 0.275019 0.843462 0.566724
O O9 0.500000 0.076103 0.632717
O O10 0.500000 0.000000 0.500000
O O11 0.824960 0.750000 0.958012
O O12 0.000000 0.811224 0.010241
#
# Coordination Sequence:
#
# PCOD9540547 Si02
#       6
#     8   8  16   8   8  16
#     4  12  27  44  65 102 133 172 219 277 326 382
#     4  12  19  42  62 100 132 166 214 278 331 386
#     4  12  25  45  67  96 137 173 222 272 325 391
#     4  12  22  40  73  90 134 168 219 278 330 376
#     4  12  25  46  69  96 129 182 227 265 332 398
#     4  11  23  42  68  97 130 175 220 270 337 396
#
# _framework density 18.775939999999999
#
# number of rings (size 3 to 8) (size 9 to 14) (size 15 to 20)
#    0.000    0.250    7.500    1.875    3.500    0.500 
#    0.000    1.875    0.000    0.000    0.000    0.000 
#    0.000    0.000    0.000    0.000    0.000    0.000 
#
# Total GULP energy -178912.409062 kJ/mol
# GULP energy per Si atom -5591.012783 kJ/mol
# Density = 1.873321 g / cm^3
# Si number density = 18.775940 Si / 1000 Ang^3
#
#
#
# Elastic Constant Matrix: (Units=GPa)
#
#
# Indices 1 2 3 4 5 6 
#
# 1 173.7392 84.2539 61.6913 0.0000 0.0000 -0.0001
# 2 84.2539 190.5398 72.8317 0.0000 0.0000 0.0000
# 3 61.6913 72.8317 168.0640 0.0007 0.0000 0.0005
# 4 0.0000 0.0000 0.0007 14.9613 -0.0002 -0.0003
# 5 0.0000 0.0000 0.0000 -0.0002 40.9917 -0.0002
# 6 -0.0001 0.0000 0.0005 -0.0003 -0.0002 15.4230
#
#
#
# Elastic Compliance Matrix: (Units=1/GPa)
#
#
# Indices 1 2 3 4 5 6 
#
# 1 0.007676 -0.002777 -0.001614 0.000000 0.000000 0.000000
# 2 -0.002777 0.007295 -0.002142 0.000000 0.000000 0.000000
# 3 -0.001614 -0.002142 0.007471 0.000000 0.000000 0.000000
# 4 0.000000 0.000000 0.000000 0.066839 0.000000 0.000001
# 5 0.000000 0.000000 0.000000 0.000000 0.024395 0.000000
# 6 0.000000 0.000000 0.000000 0.000001 0.000000 0.064838
#
#
# Mechanical properties :
#
#
# Convention : Reuss Voigt Hill
#
# Bulk Modulus (GPa) = 106.66357 107.76631 107.21494
# Shear Modulus (GPa) = 25.67986 35.17959 30.42972
#
# Velocity S-wave (km/s) = 3.70226 4.33327 4.03013
# Velocity P-wave (km/s) = 8.67223 9.08608 8.88156
#
# Compressibility (1/GPa) = 0.00937527
#
# Stress axis : x y z
#
# Youngs Moduli (GPa) = 130.28302 137.08066 133.85456
#
# Poissons Ratio (x) = 0.38069 0.21604
# Poissons Ratio (y) = 0.36181 0.28671
# Poissons Ratio (z) = 0.21028 0.29362
#
# Static dielectric constant tensor:
#      x y z
#    x 1.654000 0.000000 0.000000 
#    y 0.000000 1.652350 0.000000 
#    z 0.000000 0.000000 1.634570 
# 
# From -- ./inp_files/17644.got.cif
#   From: 2010.05.17/outbox.cif.g08.bks.cpg/sg74_9_cif.got.tgz:17644.got - 2010.06.03 17:57:02.
