data_PCOD9540751
_publ_section_title
;
Structure prediction by ZEFSAII (Michael W. Deem and Ramdas Pophale) SiO2 
 PCOD9540751
Probable space group: I M M A
;
_chemical_formula_sum "Si O2"
_cell_formula_units_Z 80
_cell_length_a 25.168153
_cell_length_b 25.192023
_cell_length_c 6.441774
_cell_angle_alpha 90.000000
_cell_angle_beta 90.000000
_cell_angle_gamma 90.000000
_cell_volume 4084.321060
_symmetry_space_group_name_H-M "I M M A"
_symmetry_group_IT_number 74
_symmetry_cell_setting 'orthorhombic'
loop_
_space_group_symop_operation_xyz
x,y,z
-x,1/2-y,z
x,-y,-z
-x,1/2+y,-z
-x,-y,-z
x,1/2+y,-z
-x,y,z
x,1/2-y,z
1/2+x,1/2+y,1/2+z
1/2-x,-y,1/2+z
1/2+x,1/2-y,1/2-z
1/2-x,y,1/2-z
1/2-x,1/2-y,1/2-z
1/2+x,y,1/2-z
1/2-x,1/2+y,1/2+z
1/2+x,-y,1/2+z
loop_
_atom_site_type_symbol
_atom_site_label
_atom_site_fract_x
_atom_site_fract_y
_atom_site_fract_z
Si Si1 0.808339 0.339969 0.259601
Si Si2 0.089457 0.190694 0.500165
Si Si3 0.337337 0.441752 0.000239
Si Si4 0.876845 0.123901 0.879740
Si Si5 0.559136 0.412999 0.240293
O O1 0.750000 0.316450 0.250000
O O2 0.851471 0.309667 0.399146
O O3 0.805193 0.397712 0.371293
O O4 0.834773 0.349159 0.035269
O O5 0.067718 0.250000 0.494205
O O6 0.059991 0.145689 0.365743
O O7 0.095787 0.167296 0.731043
O O8 0.348462 0.417725 0.773405
O O9 0.313417 0.500000 0.000000
O O10 0.394897 0.443926 0.116165
O O11 0.919778 0.095270 0.026534
O O12 0.500000 0.435248 0.229462
#
# Coordination Sequence:
#
# PCOD9540751 Si02
#       5
#    16  16  16  16  16
#     4   9  19  35  51  74 103 132 166 212 251 300
#     4   9  19  34  52  74 101 133 168 209 252 300
#     4   9  19  35  51  74 103 132 166 212 251 300
#     4   8  18  34  52  69 104 134 164 206 258 296
#     4   9  19  34  52  74 101 133 168 209 252 300
#
# _framework density 19.587098000000001
#
# number of rings (size 3 to 8) (size 9 to 14) (size 15 to 20)
#    0.000    4.000    0.000    0.000    0.000   14.000 
#    3.600    2.000    0.000    0.000    0.000    0.000 
#    0.000    0.000    0.000    0.000    0.000    0.000 
#
# Total GULP energy -222847.966811 kJ/mol
# GULP energy per Si atom -5571.199170 kJ/mol
# Density = 1.954252 g / cm^3
# Si number density = 19.587098 Si / 1000 Ang^3
#
#
#
# Elastic Constant Matrix: (Units=GPa)
#
#
# Indices 1 2 3 4 5 6 
#
# 1 69.0406 -38.2491 -1.2312 0.0000 0.0000 0.0000
# 2 -38.2491 77.1542 5.8224 0.0000 0.0000 0.0000
# 3 -1.2312 5.8224 117.2478 0.0000 0.0000 0.0000
# 4 0.0000 0.0000 0.0000 -5.4475 0.0000 0.0000
# 5 0.0000 0.0000 0.0000 0.0000 -3.3903 0.0000
# 6 0.0000 0.0000 0.0000 0.0000 0.0000 1.1545
#
#
#
# Elastic Compliance Matrix: (Units=1/GPa)
#
#
# Indices 1 2 3 4 5 6 
#
# 1 0.019978 0.009925 -0.000283 0.000000 0.000000 0.000000
# 2 0.009925 0.017941 -0.000787 0.000000 0.000000 0.000000
# 3 -0.000283 -0.000787 0.008565 0.000000 0.000000 0.000000
# 4 0.000000 0.000000 0.000000 -0.183570 0.000000 0.000000
# 5 0.000000 0.000000 0.000000 0.000000 -0.294961 0.000000
# 6 0.000000 0.000000 0.000000 0.000000 0.000000 0.866140
#
#
# Mechanical properties :
#
#
# Convention : Reuss Voigt Hill
#
# Bulk Modulus (GPa) = 15.57753 21.79188 18.68470
# Shear Modulus (GPa) = 11.42127 18.27005 14.84566
#
# Velocity S-wave (km/s) = 2.41737 3.05742 2.75604
# Velocity P-wave (km/s) = 3.97011 4.85938 4.43708
#
# Compressibility (1/GPa) = 0.06419504
#
# Stress axis : x y z
#
# Youngs Moduli (GPa) = 50.05524 55.73854 116.75371
#
# Poissons Ratio (x) = -0.55323 0.03305
# Poissons Ratio (y) = -0.49682 0.09185
# Poissons Ratio (z) = 0.01417 0.04385
#
# Static dielectric constant tensor:
#      x y z
#    x 1.688860 0.000000 0.000000 
#    y 0.000000 1.720440 0.000000 
#    z 0.000000 0.000000 1.664360 
# 
# From -- ./inp_files/4521.got.cif
#   From: 2010.05.17/outbox.cif.g08.bks.cpg/sg74_3_cif.got.tgz:4521.got - 2010.06.03 17:57:02.
