data_PCOD9540660
_publ_section_title
;
Structure prediction by ZEFSAII (Michael W. Deem and Ramdas Pophale) SiO2 
 PCOD9540660
Probable space group: I M M A
;
_chemical_formula_sum "Si O2"
_cell_formula_units_Z 80
_cell_length_a 27.951031
_cell_length_b 9.002505
_cell_length_c 18.181671
_cell_angle_alpha 90.000000
_cell_angle_beta 90.000000
_cell_angle_gamma 90.000000
_cell_volume 4575.041080
_symmetry_space_group_name_H-M "I M M A"
_symmetry_group_IT_number 74
_symmetry_cell_setting 'orthorhombic'
loop_
_space_group_symop_operation_xyz
x,y,z
-x,1/2-y,z
x,-y,-z
-x,1/2+y,-z
-x,-y,-z
x,1/2+y,-z
-x,y,z
x,1/2-y,z
1/2+x,1/2+y,1/2+z
1/2-x,-y,1/2+z
1/2+x,1/2-y,1/2-z
1/2-x,y,1/2-z
1/2-x,1/2-y,1/2-z
1/2+x,y,1/2-z
1/2-x,1/2+y,1/2+z
1/2+x,-y,1/2+z
loop_
_atom_site_type_symbol
_atom_site_label
_atom_site_fract_x
_atom_site_fract_y
_atom_site_fract_z
Si Si1 0.713620 0.073700 0.922785
Si Si2 0.654641 0.927851 0.792188
Si Si3 0.310278 0.425092 0.373193
Si Si4 0.417769 0.573447 0.575205
Si Si5 0.552113 0.930996 0.736240
O O1 0.710921 0.250000 0.927809
O O2 0.680796 0.012466 0.857112
O O3 0.767683 0.022643 0.904330
O O4 0.699669 0.000000 0.000000
O O5 0.655851 0.750000 0.805826
O O6 0.680808 0.951462 0.713663
O O7 0.599468 0.975987 0.780305
O O8 0.298477 0.250000 0.382373
O O9 0.360991 0.452876 0.412564
O O10 0.434221 0.500000 0.500000
O O11 0.424980 0.750000 0.570186
O O12 0.441952 0.521717 0.651096
O O13 0.500000 0.977312 0.764344
O O14 0.553526 0.750000 0.735285
#
# Coordination Sequence:
#
# PCOD9540660 Si02
#       5
#    16  16  16  16  16
#     4  12  24  35  50  73 101 131 164 203 245 291
#     4   9  18  34  55  76 100 130 163 201 244 290
#     4   9  18  33  51  72 101 136 169 199 236 285
#     4   9  17  28  44  69 101 135 168 201 236 277
#     4   8  15  30  52  74  95 125 165 203 242 291
#
# _framework density 17.486181999999999
#
# number of rings (size 3 to 8) (size 9 to 14) (size 15 to 20)
#    0.000    2.600    0.000    5.400    0.000    6.000 
#    0.000    3.000    0.000    2.400    0.000    0.000 
#    0.000    0.000    0.000    0.000    0.000    0.000 
#
# Total GULP energy -223180.396433 kJ/mol
# GULP energy per Si atom -5579.509911 kJ/mol
# Density = 1.744638 g / cm^3
# Si number density = 17.486182 Si / 1000 Ang^3
#
#
#
# Elastic Constant Matrix: (Units=GPa)
#
#
# Indices 1 2 3 4 5 6 
#
# 1 43.0244 24.0518 6.2901 0.0000 0.0000 0.0000
# 2 24.0518 41.1274 32.5116 0.0000 0.0000 0.0000
# 3 6.2901 32.5116 52.0255 0.0000 0.0000 0.0000
# 4 0.0000 0.0000 0.0000 26.3895 0.0000 0.0000
# 5 0.0000 0.0000 0.0000 0.0000 -3.9358 0.0000
# 6 0.0000 0.0000 0.0000 0.0000 0.0000 7.0578
#
#
#
# Elastic Compliance Matrix: (Units=1/GPa)
#
#
# Indices 1 2 3 4 5 6 
#
# 1 0.043842 -0.042389 0.021189 0.000000 0.000000 0.000000
# 2 -0.042389 0.089038 -0.050516 0.000000 0.000000 0.000000
# 3 0.021189 -0.050516 0.048228 0.000000 0.000000 0.000000
# 4 0.000000 0.000000 0.000000 0.037894 0.000000 0.000000
# 5 0.000000 0.000000 0.000000 0.000000 -0.254076 0.000000
# 6 0.000000 0.000000 0.000000 0.000000 0.000000 0.141687
#
#
# Mechanical properties :
#
#
# Convention : Reuss Voigt Hill
#
# Bulk Modulus (GPa) = 26.54302 29.09825 27.82063
# Shear Modulus (GPa) = 19.04012 10.79056 14.91534
#
# Velocity S-wave (km/s) = 3.30338 2.48683 2.92375
# Velocity P-wave (km/s) = 5.45547 4.99225 5.22899
#
# Compressibility (1/GPa) = 0.03767469
#
# Stress axis : x y z
#
# Youngs Moduli (GPa) = 22.80941 11.23115 20.73484
#
# Poissons Ratio (x) = 0.47608 -0.43935
# Poissons Ratio (y) = 0.96687 1.04745
# Poissons Ratio (z) = -0.48331 0.56736
#
# Static dielectric constant tensor:
#      x y z
#    x 1.612990 0.000000 0.000000 
#    y 0.000000 1.580440 0.000000 
#    z 0.000000 0.000000 1.580270 
# 
# From -- ./inp_files/39716.got.cif
#   From: 2010.05.17/outbox.cif.g08.bks.cpg/sg74_20_cif.got.tgz:39716.got - 2010.06.03 17:57:02.
