data_PCOD9540511
_publ_section_title
;
Structure prediction by ZEFSAII (Michael W. Deem and Ramdas Pophale) SiO2 
 PCOD9540511
Probable space group: I M M A
;
_chemical_formula_sum "Si O2"
_cell_formula_units_Z 60
_cell_length_a 13.506469
_cell_length_b 18.278058
_cell_length_c 13.075256
_cell_angle_alpha 90.000000
_cell_angle_beta 90.000000
_cell_angle_gamma 90.000000
_cell_volume 3227.914910
_symmetry_space_group_name_H-M "I M M A"
_symmetry_group_IT_number 74
_symmetry_cell_setting 'orthorhombic'
loop_
_space_group_symop_operation_xyz
x,y,z
-x,1/2-y,z
x,-y,-z
-x,1/2+y,-z
-x,-y,-z
x,1/2+y,-z
-x,y,z
x,1/2-y,z
1/2+x,1/2+y,1/2+z
1/2-x,-y,1/2+z
1/2+x,1/2-y,1/2-z
1/2-x,y,1/2-z
1/2-x,1/2-y,1/2-z
1/2+x,y,1/2-z
1/2-x,1/2+y,1/2+z
1/2+x,-y,1/2+z
loop_
_atom_site_type_symbol
_atom_site_label
_atom_site_fract_x
_atom_site_fract_y
_atom_site_fract_z
Si Si1 0.783510 0.050621 0.861768
Si Si2 0.500000 0.750000 0.691312
Si Si3 0.000000 0.908490 0.699250
Si Si4 0.281083 0.250000 0.368424
Si Si5 0.701350 0.905510 0.928277
Si Si6 0.000000 0.971252 0.115976
O O1 0.750000 0.071768 0.750000
O O2 0.777525 0.962221 0.874945
O O3 0.710789 0.077510 0.951333
O O4 0.897294 0.072294 0.875373
O O5 0.500000 0.674793 0.757359
O O6 0.399469 0.750000 0.626770
O O7 0.903082 0.918046 0.627933
O O8 0.000000 0.966602 0.793687
O O9 0.250000 0.250000 0.250000
O O10 0.235836 0.323164 0.413913
O O11 0.000000 0.000000 0.000000
#
# Coordination Sequence:
#
# PCOD9540511 Si02
#       6
#    16   4   8   8  16   8
#     4  11  23  40  58  89 122 160 199 261 294 368
#     4  12  24  32  64  86 128 146 196 242 322 338
#     4  12  22  38  60  92 119 163 197 250 298 383
#     4  12  22  38  59  92 117 161 192 259 291 371
#     4  11  23  38  62  85 126 152 209 241 314 349
#     4  12  22  33  61  84 121 155 205 243 311 348
#
# _framework density 18.587851000000001
#
# number of rings (size 3 to 8) (size 9 to 14) (size 15 to 20)
#    0.000    0.533    8.000    2.400    0.000    3.200 
#    0.000    0.667    0.000    0.000    0.000    0.000 
#    0.000    0.000    0.000    0.000    0.000    0.000 
#
# Total GULP energy -167483.975077 kJ/mol
# GULP energy per Si atom -5582.799169 kJ/mol
# Density = 1.854554 g / cm^3
# Si number density = 18.587851 Si / 1000 Ang^3
#
#
#
# Elastic Constant Matrix: (Units=GPa)
#
#
# Indices 1 2 3 4 5 6 
#
# 1 122.3648 2.9430 47.6020 0.0000 0.0000 0.0000
# 2 2.9430 74.0827 21.2857 0.0000 0.0000 0.0000
# 3 47.6020 21.2857 158.2440 0.0000 0.0000 0.0000
# 4 0.0000 0.0000 0.0000 10.1580 0.0000 0.0000
# 5 0.0000 0.0000 0.0000 0.0000 27.0647 0.0000
# 6 0.0000 0.0000 0.0000 0.0000 0.0000 18.9110
#
#
#
# Elastic Compliance Matrix: (Units=1/GPa)
#
#
# Indices 1 2 3 4 5 6 
#
# 1 0.009270 0.000450 -0.002849 0.000000 0.000000 0.000000
# 2 0.000450 0.014063 -0.002027 0.000000 0.000000 0.000000
# 3 -0.002849 -0.002027 0.007449 0.000000 0.000000 0.000000
# 4 0.000000 0.000000 0.000000 0.098444 0.000000 0.000000
# 5 0.000000 0.000000 0.000000 0.000000 0.036948 0.000000
# 6 0.000000 0.000000 0.000000 0.000000 0.000000 0.052879
#
#
# Mechanical properties :
#
#
# Convention : Reuss Voigt Hill
#
# Bulk Modulus (GPa) = 45.59925 55.37254 50.48589
# Shear Modulus (GPa) = 21.25710 30.08414 25.67062
#
# Velocity S-wave (km/s) = 3.38539 4.02740 3.72027
# Velocity P-wave (km/s) = 6.31396 7.17502 6.75822
#
# Compressibility (1/GPa) = 0.02193019
#
# Stress axis : x y z
#
# Youngs Moduli (GPa) = 107.87738 71.10873 134.24512
#
# Poissons Ratio (x) = -0.03202 0.38247
# Poissons Ratio (y) = -0.04858 0.27213
# Poissons Ratio (z) = 0.30735 0.14415
#
# Static dielectric constant tensor:
#      x y z
#    x 1.680620 0.000000 0.000000 
#    y 0.000000 1.727220 0.000000 
#    z 0.000000 0.000000 1.646370 
# 
# From -- ./inp_files/30167.got.cif
#   From: 2010.05.17/outbox.cif.g08.bks.cpg/sg74_16_cif.got.tgz:30167.got - 2010.06.03 17:57:02.
