data_PCOD9540577
_publ_section_title
;
Structure prediction by ZEFSAII (Michael W. Deem and Ramdas Pophale) SiO2 
 PCOD9540577
Probable space group: I M M A
;
_chemical_formula_sum "Si O2"
_cell_formula_units_Z 56
_cell_length_a 17.888564
_cell_length_b 14.735478
_cell_length_c 8.363707
_cell_angle_alpha 90.000000
_cell_angle_beta 90.000000
_cell_angle_gamma 90.000000
_cell_volume 2204.644237
_symmetry_space_group_name_H-M "I M M A"
_symmetry_group_IT_number 74
_symmetry_cell_setting 'orthorhombic'
loop_
_space_group_symop_operation_xyz
x,y,z
-x,1/2-y,z
x,-y,-z
-x,1/2+y,-z
-x,-y,-z
x,1/2+y,-z
-x,y,z
x,1/2-y,z
1/2+x,1/2+y,1/2+z
1/2-x,-y,1/2+z
1/2+x,1/2-y,1/2-z
1/2-x,y,1/2-z
1/2-x,1/2-y,1/2-z
1/2+x,y,1/2-z
1/2-x,1/2+y,1/2+z
1/2+x,-y,1/2+z
loop_
_atom_site_type_symbol
_atom_site_label
_atom_site_fract_x
_atom_site_fract_y
_atom_site_fract_z
Si Si1 0.088526 0.377725 0.147495
Si Si2 0.786005 0.857571 0.418601
Si Si3 0.250000 0.623383 0.750000
Si Si4 0.584923 0.592991 0.282874
O O1 0.163128 0.340272 0.234120
O O2 0.092323 0.484985 0.189680
O O3 0.000000 0.352243 0.177992
O O4 0.102630 0.364229 0.957042
O O5 0.770546 0.750000 0.446416
O O6 0.750000 0.885862 0.250000
O O7 0.758635 0.912376 0.571067
O O8 0.870879 0.873233 0.370602
O O9 0.500000 0.614493 0.253777
#
# Coordination Sequence:
#
# PCOD9540577 Si02
#       4
#    16  16   8  16
#     4   9  20  37  62  97 128 157 206 266 315 374
#     4  11  24  41  60  87 122 163 211 255 303 374
#     4  12  23  38  68  92 125 166 208 260 324 368
#     4   9  19  39  63  90 125 162 208 259 312 376
#
# _framework density 25.400922999999999
#
# number of rings (size 3 to 8) (size 9 to 14) (size 15 to 20)
#    0.000    2.000    2.857    2.143    2.000    2.857 
#    0.000    2.857    0.000    2.571    0.000    0.000 
#    0.000    0.000    0.000    0.000    0.000    0.000 
#
# Total GULP energy -155908.794470 kJ/mol
# GULP energy per Si atom -5568.171231 kJ/mol
# Density = 2.534311 g / cm^3
# Si number density = 25.400923 Si / 1000 Ang^3
#
#
#
# Elastic Constant Matrix: (Units=GPa)
#
#
# Indices 1 2 3 4 5 6 
#
# 1 209.0691 22.7093 71.1101 0.0000 0.0000 0.0000
# 2 22.7093 87.8450 39.4326 0.0000 0.0000 0.0000
# 3 71.1101 39.4326 180.5482 0.0000 0.0000 0.0000
# 4 0.0000 0.0000 0.0000 -9.6327 0.0000 0.0000
# 5 0.0000 0.0000 0.0000 0.0000 70.2529 0.0000
# 6 0.0000 0.0000 0.0000 0.0000 0.0000 -38.6015
#
#
#
# Elastic Compliance Matrix: (Units=1/GPa)
#
#
# Indices 1 2 3 4 5 6 
#
# 1 0.005543 -0.000502 -0.002073 0.000000 0.000000 0.000000
# 2 -0.000502 0.012667 -0.002569 0.000000 0.000000 0.000000
# 3 -0.002073 -0.002569 0.006916 0.000000 0.000000 0.000000
# 4 0.000000 0.000000 0.000000 -0.103813 0.000000 0.000000
# 5 0.000000 0.000000 0.000000 0.000000 0.014234 0.000000
# 6 0.000000 0.000000 0.000000 0.000000 0.000000 -0.025906
#
#
# Mechanical properties :
#
#
# Convention : Reuss Voigt Hill
#
# Bulk Modulus (GPa) = 67.39794 82.66291 75.03043
# Shear Modulus (GPa) = -66.55659 27.35109 -19.60275
#
# Velocity S-wave (km/s) = -5.12438 3.28499 -2.78102
# Velocity P-wave (km/s) = 2.90192 6.85581 4.39209
#
# Compressibility (1/GPa) = 0.01483725
#
# Stress axis : x y z
#
# Youngs Moduli (GPa) = 180.41153 78.94809 144.58545
#
# Poissons Ratio (x) = 0.03965 0.29979
# Poissons Ratio (y) = 0.09060 0.37139
# Poissons Ratio (z) = 0.37407 0.20279
#
# Static dielectric constant tensor:
#      x y z
#    x 2.170290 0.000000 0.000000 
#    y 0.000000 2.027070 0.000000 
#    z 0.000000 0.000000 1.996930 
# 
# From -- ./inp_files/8437.got.cif
#   From: 2010.05.17/outbox.cif.g08.bks.cpg/sg74_5_cif.got.tgz:8437.got - 2010.06.03 17:57:02.
