data_PCOD9540679
_publ_section_title
;
Structure prediction by ZEFSAII (Michael W. Deem and Ramdas Pophale) SiO2 
 PCOD9540679
Probable space group: I M M A
;
_chemical_formula_sum "Si O2"
_cell_formula_units_Z 64
_cell_length_a 17.025531
_cell_length_b 22.659970
_cell_length_c 7.243555
_cell_angle_alpha 90.000000
_cell_angle_beta 90.000000
_cell_angle_gamma 90.000000
_cell_volume 2794.549189
_symmetry_space_group_name_H-M "I M M A"
_symmetry_group_IT_number 74
_symmetry_cell_setting 'orthorhombic'
loop_
_space_group_symop_operation_xyz
x,y,z
-x,1/2-y,z
x,-y,-z
-x,1/2+y,-z
-x,-y,-z
x,1/2+y,-z
-x,y,z
x,1/2-y,z
1/2+x,1/2+y,1/2+z
1/2-x,-y,1/2+z
1/2+x,1/2-y,1/2-z
1/2-x,y,1/2-z
1/2-x,1/2-y,1/2-z
1/2+x,y,1/2-z
1/2-x,1/2+y,1/2+z
1/2+x,-y,1/2+z
loop_
_atom_site_type_symbol
_atom_site_label
_atom_site_fract_x
_atom_site_fract_y
_atom_site_fract_z
Si Si1 0.590824 0.250000 0.717270
Si Si2 0.156375 0.498090 0.220091
Si Si3 0.592074 0.750000 0.732479
Si Si4 0.657208 0.125756 0.719618
Si Si5 0.094659 0.124334 0.199142
O O1 0.500000 0.250000 0.761945
O O2 0.597763 0.250000 0.492531
O O3 0.625758 0.188543 0.787695
O O4 0.250000 0.493856 0.250000
O O5 0.128126 0.561907 0.292757
O O6 0.118242 0.437585 0.289066
O O7 0.141461 0.500000 0.000000
O O8 0.500000 0.750000 0.781322
O O9 0.623177 0.685800 0.790653
O O10 0.750000 0.125533 0.750000
O O11 0.633984 0.124559 0.503359
O O12 0.000000 0.126898 0.178592
#
# Coordination Sequence:
#
# PCOD9540679 Si02
#       5
#     8  16   8  16  16
#     4   9  15  23  37  58  87 118 150 186 223 268
#     4   9  18  30  45  66  94 122 150 190 232 274
#     4   7  12  23  38  60  87 110 137 184 234 262
#     4   9  16  25  38  60  90 120 145 182 231 273
#     4   9  16  27  45  66  88 116 154 194 227 267
#
# _framework density 22.901727000000001
#
# number of rings (size 3 to 8) (size 9 to 14) (size 15 to 20)
#    0.000    3.250    0.000    2.625    0.000    5.500 
#    0.000    0.625    0.000    0.750    0.000   10.500 
#    0.000   18.000    0.000    0.000    0.000    0.000 
#
# Total GULP energy -178303.769658 kJ/mol
# GULP energy per Si atom -5571.992802 kJ/mol
# Density = 2.284960 g / cm^3
# Si number density = 22.901727 Si / 1000 Ang^3
#
#
#
# Elastic Constant Matrix: (Units=GPa)
#
#
# Indices 1 2 3 4 5 6 
#
# 1 52.1314 63.8413 3.9470 0.0000 0.0000 0.0000
# 2 63.8413 345.9464 19.4281 0.0000 0.0000 0.0000
# 3 3.9470 19.4281 104.0570 0.0000 0.0000 0.0000
# 4 0.0000 0.0000 0.0000 9.3285 0.0000 0.0000
# 5 0.0000 0.0000 0.0000 0.0000 2.0411 0.0000
# 6 0.0000 0.0000 0.0000 0.0000 0.0000 77.3990
#
#
#
# Elastic Compliance Matrix: (Units=1/GPa)
#
#
# Indices 1 2 3 4 5 6 
#
# 1 0.024784 -0.004569 -0.000087 0.000000 0.000000 0.000000
# 2 -0.004569 0.003763 -0.000529 0.000000 0.000000 0.000000
# 3 -0.000087 -0.000529 0.009712 0.000000 0.000000 0.000000
# 4 0.000000 0.000000 0.000000 0.107199 0.000000 0.000000
# 5 0.000000 0.000000 0.000000 0.000000 0.489932 0.000000
# 6 0.000000 0.000000 0.000000 0.000000 0.000000 0.012920
#
#
# Mechanical properties :
#
#
# Convention : Reuss Voigt Hill
#
# Bulk Modulus (GPa) = 35.85615 75.17417 55.51516
# Shear Modulus (GPa) = 7.48529 45.41495 26.45012
#
# Velocity S-wave (km/s) = 1.80984 4.45796 3.40213
# Velocity P-wave (km/s) = 4.47860 7.70674 6.30284
#
# Compressibility (1/GPa) = 0.02788922
#
# Stress axis : x y z
#
# Youngs Moduli (GPa) = 40.34883 265.71219 102.96268
#
# Poissons Ratio (x) = 1.21397 0.00897
# Poissons Ratio (y) = 0.18434 0.05450
# Poissons Ratio (z) = 0.00351 0.14066
#
# Static dielectric constant tensor:
#      x y z
#    x 1.765200 0.000000 0.000000 
#    y 0.000000 1.970380 0.000000 
#    z 0.000000 0.000000 1.769060 
# 
# From -- ./inp_files/10595.got.cif
#   From: 2010.05.17/outbox.cif.g08.bks.cpg/sg74_6_cif.got.tgz:10595.got - 2010.06.03 17:57:02.
