data_PCOD9540950
_publ_section_title
;
Structure prediction by ZEFSAII (Michael W. Deem and Ramdas Pophale) SiO2 
 PCOD9540950
Probable space group: I M M A
;
_chemical_formula_sum "Si O2"
_cell_formula_units_Z 48
_cell_length_a 18.000000
_cell_length_b 24.000000
_cell_length_c 12.000000
_cell_angle_alpha 90.000000
_cell_angle_beta 90.000000
_cell_angle_gamma 90.000000
_cell_volume 5184.000000
_symmetry_space_group_name_H-M "I M M A"
_symmetry_group_IT_number 74
_symmetry_cell_setting 'orthorhombic'
loop_
_space_group_symop_operation_xyz
x,y,z
-x,1/2-y,z
x,-y,-z
-x,1/2+y,-z
-x,-y,-z
x,1/2+y,-z
-x,y,z
x,1/2-y,z
1/2+x,1/2+y,1/2+z
1/2-x,-y,1/2+z
1/2+x,1/2-y,1/2-z
1/2-x,y,1/2-z
1/2-x,1/2-y,1/2-z
1/2+x,y,1/2-z
1/2-x,1/2+y,1/2+z
1/2+x,-y,1/2+z
loop_
_atom_site_type_symbol
_atom_site_label
_atom_site_fract_x
_atom_site_fract_y
_atom_site_fract_z
Si Si1 0.587706 0.391584 0.198656
Si Si2 0.165684 0.815919 0.537805
Si Si3 0.669149 0.620667 0.193731
Si Si4 0.331531 0.684171 0.617252
Si Si5 0.412892 0.313893 0.619500
Si Si6 0.807303 0.496460 0.361611
O O1 0.500000 0.402820 0.218252
O O2 0.599471 0.346705 0.100720
O O3 0.626965 0.359946 0.303421
O O4 0.635036 0.445848 0.159391
O O5 0.156313 0.750000 0.534145
O O6 0.171209 0.840988 0.415010
O O7 0.243411 0.827113 0.604096
O O8 0.750000 0.623145 0.250000
O O9 0.612401 0.644151 0.284834
O O10 0.656297 0.556882 0.158350
O O11 0.340886 0.750000 0.652062
O O12 0.366496 0.678781 0.493873
O O13 0.500000 0.319913 0.594389
O O14 0.399771 0.250000 0.657769
O O15 0.784140 0.500000 0.500000
O O16 0.750000 0.491218 0.250000
#
# Coordination Sequence:
#
# PCOD9540950 Si02
#       6
#    16  16  16  16  16  16
#     4  12  26  42  63  92 134 174 215 265 329 402
#     4  11  22  38  65  95 126 165 214 267 319 388
#     4  11  22  39  65  95 123 166 219 270 328 389
#     4  10  21  40  67  96 129 170 220 273 328 393
#     4  10  21  37  61  95 135 173 212 270 338 398
#     4  11  25  46  73  97 125 173 227 283 334 390
#
# _framework density 9.2592590000000001
#
# number of rings (size 3 to 8) (size 9 to 14) (size 15 to 20)
#    0.000    1.167    3.333    3.000    0.000    5.667 
#    0.000    0.000    0.000    2.500    0.000    0.000 
#    0.000    0.000    0.000    0.000    0.000    0.000 
#
# Total GULP energy -267702.278810 kJ/mol
# GULP energy per Si atom -5577.130809 kJ/mol
# Density = 0.923818 g / cm^3
# Si number density = 9.259259 Si / 1000 Ang^3
#
#
#
# Elastic Constant Matrix: (Units=GPa)
#
#
# Indices 1 2 3 4 5 6 
#
# 1 72.6933 34.8067 18.8519 0.0000 0.0000 0.0000
# 2 34.8067 111.1105 45.9918 0.0000 0.0000 0.0000
# 3 18.8519 45.9918 101.4690 0.0000 0.0000 0.0000
# 4 0.0000 0.0000 0.0000 36.6234 0.0000 0.0000
# 5 0.0000 0.0000 0.0000 0.0000 26.6821 0.0000
# 6 0.0000 0.0000 0.0000 0.0000 0.0000 17.7807
#
#
#
# Elastic Compliance Matrix: (Units=1/GPa)
#
#
# Indices 1 2 3 4 5 6 
#
# 1 0.016247 -0.004727 -0.000876 0.000000 0.000000 0.000000
# 2 -0.004727 0.012454 -0.004767 0.000000 0.000000 0.000000
# 3 -0.000876 -0.004767 0.012178 0.000000 0.000000 0.000000
# 4 0.000000 0.000000 0.000000 0.027305 0.000000 0.000000
# 5 0.000000 0.000000 0.000000 0.000000 0.037478 0.000000
# 6 0.000000 0.000000 0.000000 0.000000 0.000000 0.056241
#
#
# Mechanical properties :
#
#
# Convention : Reuss Voigt Hill
#
# Bulk Modulus (GPa) = 49.65194 53.84150 51.74672
# Shear Modulus (GPa) = 26.40534 28.59208 27.49871
#
# Velocity S-wave (km/s) = 3.78019 3.93360 3.85766
# Velocity P-wave (km/s) = 6.77668 7.05468 6.91708
#
# Compressibility (1/GPa) = 0.02014020
#
# Stress axis : x y z
#
# Youngs Moduli (GPa) = 61.55009 80.29647 82.11207
#
# Poissons Ratio (x) = 0.37956 0.07193
# Poissons Ratio (y) = 0.29094 0.39140
# Poissons Ratio (z) = 0.05392 0.38274
#
# Static dielectric constant tensor:
#      x y z
#    x 1.637440 0.000000 0.000000 
#    y 0.000000 1.634890 0.000000 
#    z 0.000000 0.000000 1.679760 
# 
# From -- ./inp_files/22496.got.cif
#   From: 2010.05.17/outbox.ucp.g08.bks.cvg/sg74_12_cif.got.tgz:22496.got - 2010.06.11 16:37:44.
