data_PCOD9540467
_publ_section_title
;
Structure prediction by ZEFSAII (Michael W. Deem and Ramdas Pophale) SiO2 
 PCOD9540467
Probable space group: I M M A
;
_chemical_formula_sum "Si O2"
_cell_formula_units_Z 52
_cell_length_a 24.206512
_cell_length_b 10.094699
_cell_length_c 10.257159
_cell_angle_alpha 90.000000
_cell_angle_beta 90.000000
_cell_angle_gamma 90.000000
_cell_volume 2506.413243
_symmetry_space_group_name_H-M "I M M A"
_symmetry_group_IT_number 74
_symmetry_cell_setting 'orthorhombic'
loop_
_space_group_symop_operation_xyz
x,y,z
-x,1/2-y,z
x,-y,-z
-x,1/2+y,-z
-x,-y,-z
x,1/2+y,-z
-x,y,z
x,1/2-y,z
1/2+x,1/2+y,1/2+z
1/2-x,-y,1/2+z
1/2+x,1/2-y,1/2-z
1/2-x,y,1/2-z
1/2-x,1/2-y,1/2-z
1/2+x,y,1/2-z
1/2-x,1/2+y,1/2+z
1/2+x,-y,1/2+z
loop_
_atom_site_type_symbol
_atom_site_label
_atom_site_fract_x
_atom_site_fract_y
_atom_site_fract_z
Si Si1 0.066210 0.750000 0.400657
Si Si2 0.932830 0.750000 0.708230
Si Si3 0.500000 0.500000 0.500000
Si Si4 0.778632 0.096935 0.887855
Si Si5 0.597475 0.962800 0.306866
O O1 0.078813 0.750000 0.554030
O O2 0.088826 0.622530 0.324157
O O3 0.000000 0.750000 0.390474
O O4 0.909097 0.617687 0.772435
O O5 0.000000 0.750000 0.729446
O O6 0.451515 0.566223 0.407569
O O7 0.768725 0.250000 0.922317
O O8 0.750000 0.069677 0.750000
O O9 0.843724 0.073307 0.866504
O O10 0.757984 0.000000 0.000000
#
# Coordination Sequence:
#
# PCOD9540467 Si02
#       5
#     8   8   4  16  16
#     4  11  22  40  63  94 139 186 227 288 363 430
#     4  11  24  40  63 102 141 184 235 282 361 446
#     4  12  24  38  70 102 140 178 236 282 368 414
#     4  11  27  50  75 106 143 190 249 300 359 431
#     4  12  24  42  68 102 141 182 231 298 358 428
#
# _framework density 20.746779
#
# number of rings (size 3 to 8) (size 9 to 14) (size 15 to 20)
#    0.000    0.615    6.154    0.923    2.154    8.000 
#    0.000    0.000    0.000    0.000    0.000    0.000 
#    0.000    0.000    0.000    0.000    0.000    0.000 
#
# Total GULP energy -144991.156854 kJ/mol
# GULP energy per Si atom -5576.582956 kJ/mol
# Density = 2.069956 g / cm^3
# Si number density = 20.746779 Si / 1000 Ang^3
#
#
#
# Elastic Constant Matrix: (Units=GPa)
#
#
# Indices 1 2 3 4 5 6 
#
# 1 69.7934 11.0641 27.4771 0.0000 0.0000 0.0000
# 2 11.0641 141.9135 64.6112 0.0000 0.0000 0.0000
# 3 27.4771 64.6112 96.4739 0.0000 0.0000 0.0000
# 4 0.0000 0.0000 0.0000 76.4122 0.0000 0.0000
# 5 0.0000 0.0000 0.0000 0.0000 -6.6928 0.0000
# 6 0.0000 0.0000 0.0000 0.0000 0.0000**********
#
#
#
# Elastic Compliance Matrix: (Units=1/GPa)
#
#
# Indices 1 2 3 4 5 6 
#
# 1 0.016281 0.001211 -0.005448 0.000000 0.000000 0.000000
# 2 0.001211 0.010228 -0.007195 0.000000 0.000000 0.000000
# 3 -0.005448 -0.007195 0.016736 0.000000 0.000000 0.000000
# 4 0.000000 0.000000 0.000000 0.013087 0.000000 0.000000
# 5 0.000000 0.000000 0.000000 0.000000 -0.149414 0.000000
# 6 0.000000 0.000000 0.000000 0.000000 0.000000 -0.000040
#
#
# Mechanical properties :
#
#
# Convention : Reuss Voigt Hill
#
# Bulk Modulus (GPa) = 49.06567 57.16506 53.11537
# Shear Modulus (GPa) = -78.78406 -5016.80062 -2547.79234
#
# Velocity S-wave (km/s) = -6.16900 -49.22764 -35.08145
# Velocity P-wave (km/s) = 5.20009 56.59976 40.19064
#
# Compressibility (1/GPa) = 0.02038085
#
# Stress axis : x y z
#
# Youngs Moduli (GPa) = 61.42165 97.77267 59.75226
#
# Poissons Ratio (x) = -0.11842 0.32554
# Poissons Ratio (y) = -0.07439 0.42991
# Poissons Ratio (z) = 0.33464 0.70345
#
# Static dielectric constant tensor:
#      x y z
#    x 1.708740 0.000000 0.000000 
#    y 0.000000 1.727330 0.000000 
#    z 0.000000 0.000000 1.761690 
# 
# From -- ./inp_files/25816.got.cif
#   From: 2010.05.17/outbox.cif.g08.bks.cpg/sg74_13_cif.got.tgz:25816.got - 2010.06.03 17:57:02.
