data_PCOD9540378
_publ_section_title
;
Structure prediction by ZEFSAII (Michael W. Deem and Ramdas Pophale) SiO2 
 PCOD9540378
Probable space group: I M M A
;
_chemical_formula_sum "Si O2"
_cell_formula_units_Z 68
_cell_length_a 26.094187
_cell_length_b 23.955645
_cell_length_c 4.865518
_cell_angle_alpha 90.000000
_cell_angle_beta 90.000000
_cell_angle_gamma 90.000000
_cell_volume 3041.450289
_symmetry_space_group_name_H-M "I M M A"
_symmetry_group_IT_number 74
_symmetry_cell_setting 'orthorhombic'
loop_
_space_group_symop_operation_xyz
x,y,z
-x,1/2-y,z
x,-y,-z
-x,1/2+y,-z
-x,-y,-z
x,1/2+y,-z
-x,y,z
x,1/2-y,z
1/2+x,1/2+y,1/2+z
1/2-x,-y,1/2+z
1/2+x,1/2-y,1/2-z
1/2-x,y,1/2-z
1/2-x,1/2-y,1/2-z
1/2+x,y,1/2-z
1/2-x,1/2+y,1/2+z
1/2+x,-y,1/2+z
loop_
_atom_site_type_symbol
_atom_site_label
_atom_site_fract_x
_atom_site_fract_y
_atom_site_fract_z
Si Si1 0.109109 0.462618 0.729902
Si Si2 0.909143 0.337428 0.750785
Si Si3 0.715854 0.417374 0.015013
Si Si4 0.157999 0.313121 0.249952
Si Si5 0.500000 0.750000 0.349845
O O1 0.081711 0.500000 0.500000
O O2 0.082193 0.403484 0.785095
O O3 0.163855 0.445577 0.594907
O O4 0.116233 0.500000 0.000000
O O5 0.892331 0.323163 0.440058
O O6 0.955375 0.298569 0.838209
O O7 0.860151 0.322626 0.939481
O O8 0.750000 0.448004 0.250000
O O9 0.696945 0.360506 0.158138
O O10 0.750000 0.406876 0.750000
O O11 0.176119 0.250000 0.289048
#
# Coordination Sequence:
#
# PCOD9540378 Si02
#       5
#    16  16  16  16   4
#     4  11  23  44  66  89 134 180 211 263 324 378
#     4  11  24  41  68 101 128 163 217 263 333 390
#     4  11  23  38  61  96 127 171 232 269 305 370
#     4  11  21  41  61  91 138 174 206 266 334 388
#     4  12  24  46  76 106 124 158 212 284 312 402
#
# _framework density 22.357755999999998
#
# number of rings (size 3 to 8) (size 9 to 14) (size 15 to 20)
#    0.000    0.941    2.353    7.059    0.000    4.706 
#    0.000    3.529    0.000    0.000    0.000    0.000 
#    0.000    0.000    0.000    0.000    0.000    0.000 
#
# Total GULP energy -189700.741147 kJ/mol
# GULP energy per Si atom -5579.433563 kJ/mol
# Density = 2.230687 g / cm^3
# Si number density = 22.357756 Si / 1000 Ang^3
#
#
#
# Elastic Constant Matrix: (Units=GPa)
#
#
# Indices 1 2 3 4 5 6 
#
# 1 68.0433 46.8985 13.1765 0.0000 0.0000 0.0000
# 2 46.8985 210.9181 31.0354 0.0000 0.0000 0.0000
# 3 13.1765 31.0354 97.8092 0.0000 0.0000 0.0000
# 4 0.0000 0.0000 0.0000 18.9071 0.0000 0.0000
# 5 0.0000 0.0000 0.0000 0.0000 -23.5823 0.0000
# 6 0.0000 0.0000 0.0000 0.0000 0.0000 15.7595
#
#
#
# Elastic Compliance Matrix: (Units=1/GPa)
#
#
# Indices 1 2 3 4 5 6 
#
# 1 0.017485 -0.003715 -0.001177 0.000000 0.000000 0.000000
# 2 -0.003715 0.005763 -0.001328 0.000000 0.000000 0.000000
# 3 -0.001177 -0.001328 0.010804 0.000000 0.000000 0.000000
# 4 0.000000 0.000000 0.000000 0.052890 0.000000 0.000000
# 5 0.000000 0.000000 0.000000 0.000000 -0.042405 0.000000
# 6 0.000000 0.000000 0.000000 0.000000 0.000000 0.063454
#
#
# Mechanical properties :
#
#
# Convention : Reuss Voigt Hill
#
# Bulk Modulus (GPa) = 46.27023 62.11018 54.19020
# Shear Modulus (GPa) = 39.17467 21.26087 30.21777
#
# Velocity S-wave (km/s) = 4.19044 3.08708 3.68034
# Velocity P-wave (km/s) = 6.64480 6.36767 6.50771
#
# Compressibility (1/GPa) = 0.02161217
#
# Stress axis : x y z
#
# Youngs Moduli (GPa) = 57.19280 173.53400 92.55897
#
# Poissons Ratio (x) = 0.64462 0.10892
# Poissons Ratio (y) = 0.21245 0.12292
# Poissons Ratio (z) = 0.06730 0.23047
#
# Static dielectric constant tensor:
#      x y z
#    x 1.796010 0.000000 0.000000 
#    y 0.000000 1.854260 0.000000 
#    z 0.000000 0.000000 1.815220 
# 
# From -- ./inp_files/4380.got.cif
#   From: 2010.05.17/outbox.cif.g08.bks.cpg/sg74_3_cif.got.tgz:4380.got - 2010.06.03 17:57:02.
