data_PCOD9540039
_publ_section_title
;
Structure prediction by ZEFSAII (Michael W. Deem and Ramdas Pophale) SiO2 
 PCOD9540039
Probable space group: I M M A
;
_chemical_formula_sum "Si O2"
_cell_formula_units_Z 104
_cell_length_a 25.098263
_cell_length_b 23.364024
_cell_length_c 8.647242
_cell_angle_alpha 90.000000
_cell_angle_beta 90.000000
_cell_angle_gamma 90.000000
_cell_volume 5070.711744
_symmetry_space_group_name_H-M "I M M A"
_symmetry_group_IT_number 74
_symmetry_cell_setting 'orthorhombic'
loop_
_space_group_symop_operation_xyz
x,y,z
-x,1/2-y,z
x,-y,-z
-x,1/2+y,-z
-x,-y,-z
x,1/2+y,-z
-x,y,z
x,1/2-y,z
1/2+x,1/2+y,1/2+z
1/2-x,-y,1/2+z
1/2+x,1/2-y,1/2-z
1/2-x,y,1/2-z
1/2-x,1/2-y,1/2-z
1/2+x,y,1/2-z
1/2-x,1/2+y,1/2+z
1/2+x,-y,1/2+z
loop_
_atom_site_type_symbol
_atom_site_label
_atom_site_fract_x
_atom_site_fract_y
_atom_site_fract_z
Si Si1 0.560154 0.978833 0.324090
Si Si2 0.750000 0.491117 0.750000
Si Si3 0.150406 0.590181 0.333451
Si Si4 0.211713 0.898121 0.872292
Si Si5 0.604971 0.089147 0.178993
Si Si6 0.940115 0.316639 0.111598
Si Si7 0.337819 0.816911 0.388813
O O1 0.500000 0.957608 0.306695
O O2 0.604021 0.933091 0.278543
O O3 0.567219 0.000000 0.500000
O O4 0.570412 0.033106 0.213454
O O5 0.799465 0.451380 0.701000
O O6 0.762660 0.539043 0.883054
O O7 0.128440 0.588375 0.507157
O O8 0.160726 0.654987 0.279905
O O9 0.250000 0.866512 0.750000
O O10 0.155663 0.911500 0.792620
O O11 0.202413 0.858446 0.018019
O O12 0.573052 0.144155 0.240447
O O13 0.939163 0.250000 0.155848
O O14 0.000000 0.331002 0.055480
O O15 0.894402 0.322976 0.980783
O O16 0.323888 0.750000 0.390186
#
# Coordination Sequence:
#
# PCOD9540039 Si02
#       7
#    16   8  16  16  16  16  16
#     4  11  23  40  62  91 127 166 212 267 333 403
#     4  10  24  40  66  94 126 170 226 262 324 394
#     4  12  26  38  63  92 134 172 212 266 328 404
#     4   9  20  38  66  88 117 160 218 276 313 379
#     4  11  22  38  57  96 127 163 208 268 332 391
#     4   9  19  40  68  90 117 166 223 271 318 388
#     4  10  23  42  63  93 128 168 218 271 329 392
#
# _framework density 20.50994
#
# number of rings (size 3 to 8) (size 9 to 14) (size 15 to 20)
#    0.462    1.231    1.538    2.769    2.154    5.846 
#    0.000    0.385    0.000    1.846    0.000    0.000 
#    0.000    0.000    0.000    0.000    0.000    0.000 
#
# Total GULP energy -290252.870060 kJ/mol
# GULP energy per Si atom -5581.785963 kJ/mol
# Density = 2.046326 g / cm^3
# Si number density = 20.509940 Si / 1000 Ang^3
#
#
#
# Elastic Constant Matrix: (Units=GPa)
#
#
# Indices 1 2 3 4 5 6 
#
# 1 77.3294 38.3792 18.3611 0.0000 0.0000 0.0000
# 2 38.3792 133.1486 54.7301 0.0000 0.0000 0.0000
# 3 18.3611 54.7301 82.4767 0.0000 0.0000 0.0000
# 4 0.0000 0.0000 0.0000 59.1890 0.0000 0.0000
# 5 0.0000 0.0000 0.0000 0.0000 -7.1587 0.0000
# 6 0.0000 0.0000 0.0000 0.0000 0.0000 -4.2749
#
#
#
# Elastic Compliance Matrix: (Units=1/GPa)
#
#
# Indices 1 2 3 4 5 6 
#
# 1 0.015116 -0.004089 -0.000652 0.000000 0.000000 0.000000
# 2 -0.004089 0.011434 -0.006677 0.000000 0.000000 0.000000
# 3 -0.000652 -0.006677 0.016700 0.000000 0.000000 0.000000
# 4 0.000000 0.000000 0.000000 0.016895 0.000000 0.000000
# 5 0.000000 0.000000 0.000000 0.000000 -0.139689 0.000000
# 6 0.000000 0.000000 0.000000 0.000000 0.000000 -0.233922
#
#
# Mechanical properties :
#
#
# Convention : Reuss Voigt Hill
#
# Bulk Modulus (GPa) = 48.98454 57.32172 53.15313
# Shear Modulus (GPa) = -17.61640 21.65003 2.01681
#
# Velocity S-wave (km/s) = -2.93391 3.25250 0.99271
# Velocity P-wave (km/s) = 3.52959 6.48953 5.22360
#
# Compressibility (1/GPa) = 0.02041460
#
# Stress axis : x y z
#
# Youngs Moduli (GPa) = 66.15540 87.46196 59.87930
#
# Poissons Ratio (x) = 0.35765 0.03902
# Poissons Ratio (y) = 0.27052 0.39980
# Poissons Ratio (z) = 0.04311 0.58396
#
# Static dielectric constant tensor:
#      x y z
#    x 1.793760 0.000000 0.000000 
#    y 0.000000 1.714200 0.000000 
#    z 0.000000 0.000000 1.826980 
# 
# From -- ./inp_files/15224.got.cif
#   From: 2010.05.17/outbox.cif.g08.bks.cpg/sg74_8_cif.got.tgz:15224.got - 2010.06.03 17:57:02.
