data_PCOD9540688
_publ_section_title
;
Structure prediction by ZEFSAII (Michael W. Deem and Ramdas Pophale) SiO2 
 PCOD9540688
Probable space group: I M M A
;
_chemical_formula_sum "Si O2"
_cell_formula_units_Z 80
_cell_length_a 14.477105
_cell_length_b 7.263280
_cell_length_c 39.004364
_cell_angle_alpha 90.000000
_cell_angle_beta 90.000000
_cell_angle_gamma 90.000000
_cell_volume 4101.358301
_symmetry_space_group_name_H-M "I M M A"
_symmetry_group_IT_number 74
_symmetry_cell_setting 'orthorhombic'
loop_
_space_group_symop_operation_xyz
x,y,z
-x,1/2-y,z
x,-y,-z
-x,1/2+y,-z
-x,-y,-z
x,1/2+y,-z
-x,y,z
x,1/2-y,z
1/2+x,1/2+y,1/2+z
1/2-x,-y,1/2+z
1/2+x,1/2-y,1/2-z
1/2-x,y,1/2-z
1/2-x,1/2-y,1/2-z
1/2+x,y,1/2-z
1/2-x,1/2+y,1/2+z
1/2+x,-y,1/2+z
loop_
_atom_site_type_symbol
_atom_site_label
_atom_site_fract_x
_atom_site_fract_y
_atom_site_fract_z
Si Si1 0.263288 0.027103 0.598188
Si Si2 0.396799 0.026735 0.659653
Si Si3 0.758463 0.973981 0.289090
Si Si4 0.393545 0.974464 0.149791
Si Si5 0.603795 0.469323 0.540467
O O1 0.255360 0.250000 0.596428
O O2 0.342275 0.977479 0.625534
O O3 0.168322 0.966849 0.616848
O O4 0.308233 0.963388 0.562408
O O5 0.500000 0.958630 0.660486
O O6 0.399328 0.250000 0.659969
O O7 0.334799 0.971108 0.691536
O O8 0.763168 0.750000 0.288275
O O9 0.750000 0.036290 0.250000
O O10 0.841388 0.030319 0.314872
O O11 0.500000 0.032758 0.148463
O O12 0.392626 0.750000 0.149771
O O13 0.615584 0.500000 0.500000
O O14 0.500000 0.538628 0.549949
O O15 0.600243 0.250000 0.546303
#
# Coordination Sequence:
#
# PCOD9540688 Si02
#       5
#    16  16  16  16  16
#     4   8  13  21  32  45  61  81 108 142 174 205
#     4   8  12  17  25  36  50  71 100 132 164 197
#     4   8  13  18  22  32  51  74 103 139 175 207
#     4   8  13  20  29  40  55  79 112 147 179 209
#     4   9  16  25  38  56  76  96 117 143 178 218
#
# _framework density 19.505731999999998
#
# number of rings (size 3 to 8) (size 9 to 14) (size 15 to 20)
#    0.000    3.800    0.000    3.000    0.000    3.200 
#    0.000    4.000    0.000    0.600    0.000    0.000 
#    0.000    0.000    0.000    0.000    0.000   16.000 
#
# Total GULP energy -222731.305480 kJ/mol
# GULP energy per Si atom -5568.282637 kJ/mol
# Density = 1.946134 g / cm^3
# Si number density = 19.505732 Si / 1000 Ang^3
#
#
#
# Elastic Constant Matrix: (Units=GPa)
#
#
# Indices 1 2 3 4 5 6 
#
# 1 191.8254 4.5723 77.8344 0.0000 0.0000 0.0000
# 2 4.5723 84.6218 -1.0637 0.0000 0.0000 0.0000
# 3 77.8344 -1.0637 111.2265 0.0000 0.0000 0.0000
# 4 0.0000 0.0000 0.0000 -18.3784 0.0000 0.0000
# 5 0.0000 0.0000 0.0000 0.0000 -7.5538 0.0000
# 6 0.0000 0.0000 0.0000 0.0000 0.0000 -18.9328
#
#
#
# Elastic Compliance Matrix: (Units=1/GPa)
#
#
# Indices 1 2 3 4 5 6 
#
# 1 0.007298 -0.000459 -0.005111 0.000000 0.000000 0.000000
# 2 -0.000459 0.011848 0.000434 0.000000 0.000000 0.000000
# 3 -0.005111 0.000434 0.012572 0.000000 0.000000 0.000000
# 4 0.000000 0.000000 0.000000 -0.054412 0.000000 0.000000
# 5 0.000000 0.000000 0.000000 0.000000 -0.132384 0.000000
# 6 0.000000 0.000000 0.000000 0.000000 0.000000 -0.052818
#
#
# Mechanical properties :
#
#
# Convention : Reuss Voigt Hill
#
# Bulk Modulus (GPa) = 46.62947 61.15109 53.89028
# Shear Modulus (GPa) = -26.24986 11.44905 -7.40040
#
# Velocity S-wave (km/s) = -3.67243 2.42535 -1.94992
# Velocity P-wave (km/s) = 2.44441 6.26590 4.75587
#
# Compressibility (1/GPa) = 0.02144566
#
# Stress axis : x y z
#
# Youngs Moduli (GPa) = 137.02410 84.40581 79.54388
#
# Poissons Ratio (x) = 0.03871 0.40658
# Poissons Ratio (y) = 0.06284 -0.03454
# Poissons Ratio (z) = 0.70038 -0.03665
#
# Static dielectric constant tensor:
#      x y z
#    x 1.668210 0.000000 0.000000 
#    y 0.000000 1.980680 0.000000 
#    z 0.000000 0.000000 1.680040 
# 
# From -- ./inp_files/72335.got.cif
#   From: 2010.05.17/outbox.cif.g08.bks.cpg/sg74_37_cif.got.tgz:72335.got - 2010.06.03 17:57:02.
