data_PCOD9540274
_publ_section_title
;
Structure prediction by ZEFSAII (Michael W. Deem and Ramdas Pophale) SiO2 
 PCOD9540274
Probable space group: I M M A
;
_chemical_formula_sum "Si O2"
_cell_formula_units_Z 68
_cell_length_a 14.113245
_cell_length_b 18.642062
_cell_length_c 12.350670
_cell_angle_alpha 90.000000
_cell_angle_beta 90.000000
_cell_angle_gamma 90.000000
_cell_volume 3249.461133
_symmetry_space_group_name_H-M "I M M A"
_symmetry_group_IT_number 74
_symmetry_cell_setting 'orthorhombic'
loop_
_space_group_symop_operation_xyz
x,y,z
-x,1/2-y,z
x,-y,-z
-x,1/2+y,-z
-x,-y,-z
x,1/2+y,-z
-x,y,z
x,1/2-y,z
1/2+x,1/2+y,1/2+z
1/2-x,-y,1/2+z
1/2+x,1/2-y,1/2-z
1/2-x,y,1/2-z
1/2-x,1/2-y,1/2-z
1/2+x,y,1/2-z
1/2-x,1/2+y,1/2+z
1/2+x,-y,1/2+z
loop_
_atom_site_type_symbol
_atom_site_label
_atom_site_fract_x
_atom_site_fract_y
_atom_site_fract_z
Si Si1 0.801228 0.250000 0.964481
Si Si2 0.000000 0.861264 0.690459
Si Si3 0.000000 0.750000 0.020222
Si Si4 0.791038 0.890365 0.369835
Si Si5 0.355308 0.250000 0.284842
Si Si6 0.500000 0.592819 0.593936
Si Si7 0.500000 0.919192 0.048203
Si Si8 0.168291 0.000000 0.000000
O O1 0.840560 0.250000 0.086699
O O2 0.741263 0.179576 0.937889
O O3 0.904589 0.250000 0.906712
O O4 0.090214 0.816680 0.732374
O O5 0.000000 0.925148 0.777267
O O6 0.000000 0.873530 0.563922
O O7 0.000000 0.675531 0.949031
O O8 0.750000 0.878557 0.250000
O O9 0.903530 0.903215 0.385538
O O10 0.736043 0.959529 0.416374
O O11 0.250000 0.250000 0.250000
O O12 0.595875 0.558097 0.548977
O O13 0.500000 0.000000 0.000000
#
# Coordination Sequence:
#
# PCOD9540274 Si02
#       8
#     8   8   4  16   8   8   8   8
#     4  12  23  46  70 112 149 188 253 305 356 451
#     4  11  22  40  66 102 143 179 225 292 377 418
#     4  12  18  40  70 106 150 178 240 302 360 424
#     4  12  28  49  74 103 148 203 253 305 383 445
#     4  11  20  38  69 105 137 181 228 294 366 425
#     4  11  22  38  71 106 144 190 242 306 369 443
#     4  12  29  49  70 104 151 190 243 311 375 452
#     4  11  24  41  68 106 138 193 256 309 356 450
#
# _framework density 20.926546999999999
#
# number of rings (size 3 to 8) (size 9 to 14) (size 15 to 20)
#    0.000    0.471    5.882    1.765    3.294    3.294 
#    0.000    0.000    0.000    0.000    0.000    0.000 
#    0.000    0.000    0.000    0.000    0.000    0.000 
#
# Total GULP energy -189669.444562 kJ/mol
# GULP energy per Si atom -5578.513075 kJ/mol
# Density = 2.087892 g / cm^3
# Si number density = 20.926547 Si / 1000 Ang^3
#
#
#
# Elastic Constant Matrix: (Units=GPa)
#
#
# Indices 1 2 3 4 5 6 
#
# 1 225.5615 52.5790 55.0569 0.0000 0.0000 0.0000
# 2 52.5790 103.7631 29.7985 0.0000 0.0000 0.0000
# 3 55.0569 29.7985 111.7326 0.0000 0.0000 0.0000
# 4 0.0000 0.0000 0.0000 15.1485 0.0000 0.0000
# 5 0.0000 0.0000 0.0000 0.0000 20.3060 0.0000
# 6 0.0000 0.0000 0.0000 0.0000 0.0000 20.6149
#
#
#
# Elastic Compliance Matrix: (Units=1/GPa)
#
#
# Indices 1 2 3 4 5 6 
#
# 1 0.005451 -0.002156 -0.002111 0.000000 0.000000 0.000000
# 2 -0.002156 0.011289 -0.001948 0.000000 0.000000 0.000000
# 3 -0.002111 -0.001948 0.010510 0.000000 0.000000 0.000000
# 4 0.000000 0.000000 0.000000 0.066013 0.000000 0.000000
# 5 0.000000 0.000000 0.000000 0.000000 0.049246 0.000000
# 6 0.000000 0.000000 0.000000 0.000000 0.000000 0.048509
#
#
# Mechanical properties :
#
#
# Convention : Reuss Voigt Hill
#
# Bulk Modulus (GPa) = 67.47945 79.54733 73.51339
# Shear Modulus (GPa) = 23.99352 31.45541 27.72446
#
# Velocity S-wave (km/s) = 3.38976 3.88123 3.64379
# Velocity P-wave (km/s) = 6.90192 7.62761 7.27382
#
# Compressibility (1/GPa) = 0.01481933
#
# Stress axis : x y z
#
# Youngs Moduli (GPa) = 183.44412 88.57891 95.14881
#
# Poissons Ratio (x) = 0.19098 0.20087
# Poissons Ratio (y) = 0.39550 0.18539
# Poissons Ratio (z) = 0.38728 0.17259
#
# Static dielectric constant tensor:
#      x y z
#    x 1.708040 0.000000 0.000000 
#    y 0.000000 1.817500 0.000000 
#    z 0.000000 0.000000 1.834430 
# 
# From -- ./inp_files/20293.got.cif
#   From: 2010.05.17/outbox.cif.g08.bks.cpg/sg74_11_cif.got.tgz:20293.got - 2010.06.03 17:57:02.
