data_PCOD9540055
_publ_section_title
;
Structure prediction by ZEFSAII (Michael W. Deem and Ramdas Pophale) SiO2 
 PCOD9540055
Probable space group: I M M A
;
_chemical_formula_sum "Si O2"
_cell_formula_units_Z 64
_cell_length_a 20.328486
_cell_length_b 14.449118
_cell_length_c 9.751265
_cell_angle_alpha 90.000000
_cell_angle_beta 90.000000
_cell_angle_gamma 90.000000
_cell_volume 2864.226323
_symmetry_space_group_name_H-M "I M M A"
_symmetry_group_IT_number 74
_symmetry_cell_setting 'orthorhombic'
loop_
_space_group_symop_operation_xyz
x,y,z
-x,1/2-y,z
x,-y,-z
-x,1/2+y,-z
-x,-y,-z
x,1/2+y,-z
-x,y,z
x,1/2-y,z
1/2+x,1/2+y,1/2+z
1/2-x,-y,1/2+z
1/2+x,1/2-y,1/2-z
1/2-x,y,1/2-z
1/2-x,1/2-y,1/2-z
1/2+x,y,1/2-z
1/2-x,1/2+y,1/2+z
1/2+x,-y,1/2+z
loop_
_atom_site_type_symbol
_atom_site_label
_atom_site_fract_x
_atom_site_fract_y
_atom_site_fract_z
Si Si1 0.613089 0.639317 0.905889
Si Si2 0.425599 0.857970 0.205572
Si Si3 0.115553 0.023244 0.139625
Si Si4 0.760394 0.852654 0.912396
O O1 0.612855 0.750000 0.878723
O O2 0.591706 0.587392 0.767103
O O3 0.687851 0.614032 0.952923
O O4 0.573121 0.621078 0.043407
O O5 0.500000 0.872633 0.258619
O O6 0.408547 0.750000 0.220665
O O7 0.376257 0.925331 0.283989
O O8 0.179053 0.078046 0.081714
O O9 0.076576 0.000000 0.000000
O O10 0.774090 0.750000 0.970934
O O11 0.750000 0.841895 0.750000
#
# Coordination Sequence:
#
# PCOD9540055 Si02
#       4
#    16  16  16  16
#     4   9  19  38  62  84 112 156 205 250 297 349
#     4  10  23  43  63  84 115 159 212 259 291 336
#     4  11  22  33  56  89 122 154 189 238 305 367
#     4   8  16  33  56  83 117 154 194 243 297 357
#
# _framework density 22.344602999999999
#
# number of rings (size 3 to 8) (size 9 to 14) (size 15 to 20)
#    0.000    2.500    0.000    3.000    0.000   10.500 
#    0.000    0.000    0.000   16.500    0.000    0.000 
#    0.000    0.000    0.000    0.000    0.000    0.000 
#
# Total GULP energy -178176.229700 kJ/mol
# GULP energy per Si atom -5568.007178 kJ/mol
# Density = 2.229375 g / cm^3
# Si number density = 22.344603 Si / 1000 Ang^3
#
#
#
# Elastic Constant Matrix: (Units=GPa)
#
#
# Indices 1 2 3 4 5 6 
#
# 1 76.3953 32.7363 12.3793 0.0000 0.0000 0.0000
# 2 32.7363 127.5598 68.1123 0.0000 0.0000 0.0000
# 3 12.3793 68.1123 126.2091 0.0000 0.0000 0.0000
# 4 0.0000 0.0000 0.0000 23.8694 0.0000 0.0000
# 5 0.0000 0.0000 0.0000 0.0000 9.0515 0.0000
# 6 0.0000 0.0000 0.0000 0.0000 0.0000 -23.5773
#
#
#
# Elastic Compliance Matrix: (Units=1/GPa)
#
#
# Indices 1 2 3 4 5 6 
#
# 1 0.014770 -0.004238 0.000839 0.000000 0.000000 0.000000
# 2 -0.004238 0.012229 -0.006184 0.000000 0.000000 0.000000
# 3 0.000839 -0.006184 0.011179 0.000000 0.000000 0.000000
# 4 0.000000 0.000000 0.000000 0.041895 0.000000 0.000000
# 5 0.000000 0.000000 0.000000 0.000000 0.110479 0.000000
# 6 0.000000 0.000000 0.000000 0.000000 0.000000 -0.042414
#
#
# Mechanical properties :
#
#
# Convention : Reuss Voigt Hill
#
# Bulk Modulus (GPa) = 52.60335 61.84663 57.22499
# Shear Modulus (GPa) = 28.79490 16.33116 22.56303
#
# Velocity S-wave (km/s) = 3.59370 2.70641 3.18114
# Velocity P-wave (km/s) = 6.38847 6.12412 6.25769
#
# Compressibility (1/GPa) = 0.01901019
#
# Stress axis : x y z
#
# Youngs Moduli (GPa) = 67.70439 81.77102 89.45695
#
# Poissons Ratio (x) = 0.34657 -0.07502
# Poissons Ratio (y) = 0.28695 0.55322
# Poissons Ratio (z) = -0.05678 0.50568
#
# Static dielectric constant tensor:
#      x y z
#    x 1.954940 0.000000 0.000000 
#    y 0.000000 1.870160 0.000000 
#    z 0.000000 0.000000 1.829980 
# 
# From -- ./inp_files/8784.got.cif
#   From: 2010.05.17/outbox.cif.g08.bks.cpg/sg74_5_cif.got.tgz:8784.got - 2010.06.03 17:57:02.
