data_PCOD9540648
_publ_section_title
;
Structure prediction by ZEFSAII (Michael W. Deem and Ramdas Pophale) SiO2 
 PCOD9540648
Probable space group: I M M A
;
_chemical_formula_sum "Si O2"
_cell_formula_units_Z 112
_cell_length_a 14.336846
_cell_length_b 20.195292
_cell_length_c 16.576506
_cell_angle_alpha 90.000000
_cell_angle_beta 90.000000
_cell_angle_gamma 90.000000
_cell_volume 4799.508359
_symmetry_space_group_name_H-M "I M M A"
_symmetry_group_IT_number 74
_symmetry_cell_setting 'orthorhombic'
loop_
_space_group_symop_operation_xyz
x,y,z
-x,1/2-y,z
x,-y,-z
-x,1/2+y,-z
-x,-y,-z
x,1/2+y,-z
-x,y,z
x,1/2-y,z
1/2+x,1/2+y,1/2+z
1/2-x,-y,1/2+z
1/2+x,1/2-y,1/2-z
1/2-x,y,1/2-z
1/2-x,1/2-y,1/2-z
1/2+x,y,1/2-z
1/2-x,1/2+y,1/2+z
1/2+x,-y,1/2+z
loop_
_atom_site_type_symbol
_atom_site_label
_atom_site_fract_x
_atom_site_fract_y
_atom_site_fract_z
Si Si1 0.109768 0.082547 0.050894
Si Si2 0.889876 0.677952 0.806294
Si Si3 0.605932 0.476784 0.686002
Si Si4 0.155604 0.677554 0.369996
Si Si5 0.370820 0.675799 0.313058
Si Si6 0.689534 0.923082 0.995831
Si Si7 0.387483 0.932407 0.821805
O O1 0.114882 0.148616 0.104225
O O2 0.199047 0.086808 0.993534
O O3 0.000000 0.074529 0.024259
O O4 0.137974 0.022224 0.111516
O O5 0.846424 0.750000 0.799489
O O6 0.859552 0.622585 0.743789
O O7 0.000000 0.683580 0.789265
O O8 0.500000 0.501032 0.692741
O O9 0.602425 0.399551 0.665059
O O10 0.643675 0.499048 0.775022
O O11 0.135665 0.750000 0.405914
O O12 0.262955 0.676572 0.339754
O O13 0.107808 0.673501 0.282817
O O14 0.140621 0.620767 0.435529
O O15 0.403131 0.750000 0.340774
O O16 0.660576 0.909080 0.903970
O O17 0.664958 0.000000 0.000000
O O18 0.500000 0.934383 0.836954
#
# Coordination Sequence:
#
# PCOD9540648 Si02
#       7
#    16  16  16  16  16  16  16
#     4   9  20  36  53  79 112 141 173 215 258 303
#     4   8  15  32  57  81 107 141 178 212 251 306
#     4   9  17  32  53  77 107 138 173 218 257 301
#     4   9  20  36  52  75 104 132 172 225 268 310
#     4   9  17  34  57  73  94 132 175 222 272 313
#     4  12  23  34  54  80 106 142 181 212 258 320
#     4   9  20  36  53  79 112 141 173 215 258 303
#
# _framework density 23.335723000000002
#
# number of rings (size 3 to 8) (size 9 to 14) (size 15 to 20)
#    0.000    2.714    0.000    4.286    0.000    5.429 
#    0.000    2.143    0.000    1.714    0.000    0.000 
#    0.000    0.000    0.000    0.000    0.000    0.000 
#
# Total GULP energy -311834.543551 kJ/mol
# GULP energy per Si atom -5568.473992 kJ/mol
# Density = 2.328261 g / cm^3
# Si number density = 23.335723 Si / 1000 Ang^3
#
#
#
# Elastic Constant Matrix: (Units=GPa)
#
#
# Indices 1 2 3 4 5 6 
#
# 1 66.2378 3.2329 6.1394 0.0000 0.0000 0.0000
# 2 3.2329 138.0020 23.9661 0.0000 0.0000 0.0000
# 3 6.1394 23.9661 53.3696 0.0000 0.0000 0.0000
# 4 0.0000 0.0000 0.0000 27.1761 0.0000 0.0000
# 5 0.0000 0.0000 0.0000 0.0000 -16.6509 0.0000
# 6 0.0000 0.0000 0.0000 0.0000 0.0000 3.4309
#
#
#
# Elastic Compliance Matrix: (Units=1/GPa)
#
#
# Indices 1 2 3 4 5 6 
#
# 1 0.015260 -0.000057 -0.001730 0.000000 0.000000 0.000000
# 2 -0.000057 0.007859 -0.003523 0.000000 0.000000 0.000000
# 3 -0.001730 -0.003523 0.020518 0.000000 0.000000 0.000000
# 4 0.000000 0.000000 0.000000 0.036797 0.000000 0.000000
# 5 0.000000 0.000000 0.000000 0.000000 -0.060057 0.000000
# 6 0.000000 0.000000 0.000000 0.000000 0.000000 0.291468
#
#
# Mechanical properties :
#
#
# Convention : Reuss Voigt Hill
#
# Bulk Modulus (GPa) = 30.28609 36.03179 33.15894
# Shear Modulus (GPa) = 14.99381 17.74263 16.36822
#
# Velocity S-wave (km/s) = 2.53756 2.76038 2.65131
# Velocity P-wave (km/s) = 4.64674 5.06298 4.85932
#
# Compressibility (1/GPa) = 0.03301846
#
# Stress axis : x y z
#
# Youngs Moduli (GPa) = 65.52979 127.23636 48.73731
#
# Poissons Ratio (x) = 0.00726 0.08431
# Poissons Ratio (y) = 0.00374 0.17169
# Poissons Ratio (z) = 0.11335 0.44822
#
# Static dielectric constant tensor:
#      x y z
#    x 1.944890 0.000000 0.000000 
#    y 0.000000 1.908300 0.000000 
#    z 0.000000 0.000000 1.968460 
# 
# From -- ./inp_files/44388.got.cif
#   From: 2010.05.17/outbox.cif.g08.bks.cpg/sg74_23_cif.got.tgz:44388.got - 2010.06.03 17:57:02.
