data_PCOD9540550
_publ_section_title
;
Structure prediction by ZEFSAII (Michael W. Deem and Ramdas Pophale) SiO2 
 PCOD9540550
Probable space group: I M M A
;
_chemical_formula_sum "Si O2"
_cell_formula_units_Z 56
_cell_length_a 15.566241
_cell_length_b 10.926694
_cell_length_c 15.930183
_cell_angle_alpha 90.000000
_cell_angle_beta 90.000000
_cell_angle_gamma 90.000000
_cell_volume 2709.525832
_symmetry_space_group_name_H-M "I M M A"
_symmetry_group_IT_number 74
_symmetry_cell_setting 'orthorhombic'
loop_
_space_group_symop_operation_xyz
x,y,z
-x,1/2-y,z
x,-y,-z
-x,1/2+y,-z
-x,-y,-z
x,1/2+y,-z
-x,y,z
x,1/2-y,z
1/2+x,1/2+y,1/2+z
1/2-x,-y,1/2+z
1/2+x,1/2-y,1/2-z
1/2-x,y,1/2-z
1/2-x,1/2-y,1/2-z
1/2+x,y,1/2-z
1/2-x,1/2+y,1/2+z
1/2+x,-y,1/2+z
loop_
_atom_site_type_symbol
_atom_site_label
_atom_site_fract_x
_atom_site_fract_y
_atom_site_fract_z
Si Si1 0.780042 0.750000 0.846164
Si Si2 0.907482 0.750000 0.567701
Si Si3 0.402684 0.474722 0.400765
Si Si4 0.242266 0.108834 0.845175
Si Si5 0.149894 0.000000 0.500000
O O1 0.750000 0.750000 0.750000
O O2 0.687314 0.750000 0.890953
O O3 0.839818 0.864731 0.872803
O O4 0.903691 0.622204 0.517924
O O5 0.000000 0.750000 0.615339
O O6 0.402514 0.500000 0.500000
O O7 0.500000 0.451680 0.373415
O O8 0.358543 0.595150 0.363668
O O9 0.269992 0.250000 0.848134
O O10 0.250000 0.061665 0.750000
O O11 0.292851 0.036075 0.918123
#
# Coordination Sequence:
#
# PCOD9540550 Si02
#       5
#     8   8  16  16   8
#     4  12  25  45  66  96 141 177 226 297 360 424
#     4  12  26  43  71 100 134 185 238 289 353 422
#     4  11  24  41  68 101 135 179 230 287 351 425
#     4  11  23  42  70  99 138 188 228 284 358 423
#     4  12  23  46  71 100 140 184 235 294 353 422
#
# _framework density 20.667822000000001
#
# number of rings (size 3 to 8) (size 9 to 14) (size 15 to 20)
#    0.000    0.571    5.714    1.714    2.000    1.714 
#    0.000    1.429    0.000    0.000    0.000    0.000 
#    0.000    0.000    0.000    0.000    0.000    0.000 
#
# Total GULP energy -156049.966083 kJ/mol
# GULP energy per Si atom -5573.213074 kJ/mol
# Density = 2.062078 g / cm^3
# Si number density = 20.667822 Si / 1000 Ang^3
#
#
#
# Elastic Constant Matrix: (Units=GPa)
#
#
# Indices 1 2 3 4 5 6 
#
# 1 170.9565 32.9056 54.5971 0.0000 0.0000 0.0000
# 2 32.9056 121.6549 34.0579 0.0000 0.0000 0.0000
# 3 54.5971 34.0579 122.0046 0.0000 0.0000 0.0000
# 4 0.0000 0.0000 0.0000 25.3424 0.0000 0.0000
# 5 0.0000 0.0000 0.0000 0.0000 9.7826 0.0000
# 6 0.0000 0.0000 0.0000 0.0000 0.0000 7.1011
#
#
#
# Elastic Compliance Matrix: (Units=1/GPa)
#
#
# Indices 1 2 3 4 5 6 
#
# 1 0.006957 -0.001096 -0.002807 0.000000 0.000000 0.000000
# 2 -0.001096 0.009089 -0.002047 0.000000 0.000000 0.000000
# 3 -0.002807 -0.002047 0.010024 0.000000 0.000000 0.000000
# 4 0.000000 0.000000 0.000000 0.039460 0.000000 0.000000
# 5 0.000000 0.000000 0.000000 0.000000 0.102222 0.000000
# 6 0.000000 0.000000 0.000000 0.000000 0.000000 0.140823
#
#
# Mechanical properties :
#
#
# Convention : Reuss Voigt Hill
#
# Bulk Modulus (GPa) = 70.57031 73.08190 71.82611
# Shear Modulus (GPa) = 15.37521 27.98226 21.67873
#
# Velocity S-wave (km/s) = 2.73045 3.68354 3.24221
# Velocity P-wave (km/s) = 6.64527 7.31630 6.98884
#
# Compressibility (1/GPa) = 0.01417026
#
# Stress axis : x y z
#
# Youngs Moduli (GPa) = 143.74185 110.01790 99.75949
#
# Poissons Ratio (x) = 0.12056 0.28006
# Poissons Ratio (y) = 0.15751 0.20420
# Poissons Ratio (z) = 0.40353 0.22520
#
# Static dielectric constant tensor:
#      x y z
#    x 1.790680 0.000000 0.000000 
#    y 0.000000 1.854810 0.000000 
#    z 0.000000 0.000000 1.831660 
# 
# From -- ./inp_files/31539.got.cif
#   From: 2010.05.17/outbox.cif.g08.bks.cpg/sg74_16_cif.got.tgz:31539.got - 2010.06.03 17:57:02.
