data_PCOD9540963
_publ_section_title
;
Structure prediction by ZEFSAII (Michael W. Deem and Ramdas Pophale) SiO2 
 PCOD9540963
Probable space group: I M M A
;
_chemical_formula_sum "Si O2"
_cell_formula_units_Z 36
_cell_length_a 9.000000
_cell_length_b 21.000000
_cell_length_c 21.000000
_cell_angle_alpha 90.000000
_cell_angle_beta 90.000000
_cell_angle_gamma 90.000000
_cell_volume 3969.000000
_symmetry_space_group_name_H-M "I M M A"
_symmetry_group_IT_number 74
_symmetry_cell_setting 'orthorhombic'
loop_
_space_group_symop_operation_xyz
x,y,z
-x,1/2-y,z
x,-y,-z
-x,1/2+y,-z
-x,-y,-z
x,1/2+y,-z
-x,y,z
x,1/2-y,z
1/2+x,1/2+y,1/2+z
1/2-x,-y,1/2+z
1/2+x,1/2-y,1/2-z
1/2-x,y,1/2-z
1/2-x,1/2-y,1/2-z
1/2+x,y,1/2-z
1/2-x,1/2+y,1/2+z
1/2+x,-y,1/2+z
loop_
_atom_site_type_symbol
_atom_site_label
_atom_site_fract_x
_atom_site_fract_y
_atom_site_fract_z
Si Si1 0.824851 0.250000 0.317699
Si Si2 0.818145 0.896592 0.319806
Si Si3 0.826640 0.750000 0.010968
Si Si4 0.824132 0.354153 0.096720
Si Si5 0.676282 0.750000 0.144954
Si Si6 0.320443 0.497338 0.576269
O O1 0.750000 0.250000 0.250000
O O2 0.769559 0.312868 0.354201
O O3 0.000000 0.250000 0.313358
O O4 0.750000 0.914790 0.250000
O O5 0.774528 0.820926 0.330115
O O6 0.000000 0.900645 0.319167
O O7 0.756232 0.943997 0.376920
O O8 0.721840 0.750000 0.071307
O O9 0.000000 0.750000 0.030679
O O10 0.802645 0.685849 0.969084
O O11 0.788702 0.429185 0.096829
O O12 0.000000 0.347918 0.111032
O O13 0.500000 0.750000 0.154102
O O14 0.281441 0.500000 0.500000
O O15 0.500000 0.486835 0.579682
#
# Coordination Sequence:
#
# PCOD9540963 Si02
#       6
#     8  16   8  16   8  16
#     4  11  22  36  56  80 108 145 189 233 281 336
#     4  11  24  41  60  84 116 153 195 242 292 346
#     4   9  17  32  58  87 112 145 186 228 275 329
#     4   9  19  36  56  81 114 147 184 229 276 333
#     4  10  22  38  57  83 114 148 187 235 287 339
#     4  10  21  39  63  89 118 154 194 236 286 345
#
# _framework density 9.0702949999999998
#
# number of rings (size 3 to 8) (size 9 to 14) (size 15 to 20)
#    0.000    2.000    0.000    4.000    0.000    7.556 
#    0.000    0.000    0.000    0.000    0.000    0.000 
#    0.000    0.000    0.000    0.000    0.000    0.000 
#
# Total GULP energy -200609.874776 kJ/mol
# GULP energy per Si atom -5572.496522 kJ/mol
# Density = 0.904965 g / cm^3
# Si number density = 9.070295 Si / 1000 Ang^3
#
#
#
# Elastic Constant Matrix: (Units=GPa)
#
#
# Indices 1 2 3 4 5 6 
#
# 1 63.4700 54.4734 57.9291 0.0000 0.0000 0.0000
# 2 54.4734 160.7438 64.2008 0.0000 0.0000 0.0000
# 3 57.9291 64.2008 120.1586 0.0000 0.0000 0.0000
# 4 0.0000 0.0000 0.0000 19.9413 0.0000 0.0000
# 5 0.0000 0.0000 0.0000 0.0000 34.3583 0.0000
# 6 0.0000 0.0000 0.0000 0.0000 0.0000 33.5286
#
#
#
# Elastic Compliance Matrix: (Units=1/GPa)
#
#
# Indices 1 2 3 4 5 6 
#
# 1 0.032086 -0.005969 -0.012280 0.000000 0.000000 0.000000
# 2 -0.005969 0.009019 -0.001941 0.000000 0.000000 0.000000
# 3 -0.012280 -0.001941 0.015280 0.000000 0.000000 0.000000
# 4 0.000000 0.000000 0.000000 0.050147 0.000000 0.000000
# 5 0.000000 0.000000 0.000000 0.000000 0.029105 0.000000
# 6 0.000000 0.000000 0.000000 0.000000 0.000000 0.029825
#
#
# Mechanical properties :
#
#
# Convention : Reuss Voigt Hill
#
# Bulk Modulus (GPa) = 62.48012 77.50878 69.99445
# Shear Modulus (GPa) = 23.67682 28.75025 26.21353
#
# Velocity S-wave (km/s) = 3.61665 3.98535 3.80547
# Velocity P-wave (km/s) = 7.20813 7.99980 7.61426
#
# Compressibility (1/GPa) = 0.01600509
#
# Stress axis : x y z
#
# Youngs Moduli (GPa) = 31.16634 110.87449 65.44660
#
# Poissons Ratio (x) = 0.66180 0.80366
# Poissons Ratio (y) = 0.18603 0.12705
# Poissons Ratio (z) = 0.38271 0.21524
#
# Static dielectric constant tensor:
#      x y z
#    x 1.615280 0.000000 0.000000 
#    y 0.000000 1.629140 0.000000 
#    z 0.000000 0.000000 1.627610 
# 
# From -- ./inp_files/48445.got.cif
#   From: 2010.05.17/outbox.ucp.g08.bks.cvg/sg74_25_cif.got.tgz:48445.got - 2010.06.11 16:37:44.
