data_PCOD9540840
_publ_section_title
;
Structure prediction by ZEFSAII (Michael W. Deem and Ramdas Pophale) SiO2 
 PCOD9540840
Probable space group: I M M A
;
_chemical_formula_sum "Si O2"
_cell_formula_units_Z 52
_cell_length_a 21.000000
_cell_length_b 9.000000
_cell_length_c 30.000000
_cell_angle_alpha 90.000000
_cell_angle_beta 90.000000
_cell_angle_gamma 90.000000
_cell_volume 5670.000000
_symmetry_space_group_name_H-M "I M M A"
_symmetry_group_IT_number 74
_symmetry_cell_setting 'orthorhombic'
loop_
_space_group_symop_operation_xyz
x,y,z
-x,1/2-y,z
x,-y,-z
-x,1/2+y,-z
-x,-y,-z
x,1/2+y,-z
-x,y,z
x,1/2-y,z
1/2+x,1/2+y,1/2+z
1/2-x,-y,1/2+z
1/2+x,1/2-y,1/2-z
1/2-x,y,1/2-z
1/2-x,1/2-y,1/2-z
1/2+x,y,1/2-z
1/2-x,1/2+y,1/2+z
1/2+x,-y,1/2+z
loop_
_atom_site_type_symbol
_atom_site_label
_atom_site_fract_x
_atom_site_fract_y
_atom_site_fract_z
Si Si1 0.181820 0.920004 0.678834
Si Si2 0.070077 0.075368 0.729868
Si Si3 0.296122 0.071584 0.635810
Si Si4 0.616005 0.914419 0.918039
Si Si5 0.751339 0.923541 0.954986
Si Si6 0.067627 0.073482 0.836599
Si Si7 0.000000 0.579271 0.452582
O O1 0.196384 0.750000 0.690190
O O2 0.147572 0.922308 0.630492
O O3 0.130140 0.989158 0.711375
O O4 0.246453 0.011286 0.672327
O O5 0.075538 0.250000 0.718517
O O6 0.069695 0.062929 0.783203
O O7 0.000000 0.022965 0.713611
O O8 0.294780 0.250000 0.636770
O O9 0.366970 0.013043 0.644712
O O10 0.275495 0.011348 0.587905
O O11 0.587669 0.750000 0.923788
O O12 0.674538 0.930639 0.951903
O O13 0.562255 0.033288 0.925519
O O14 0.768710 0.750000 0.952356
O O15 0.773824 0.000000 0.000000
O O16 0.067051 0.250000 0.846913
O O17 0.000000 0.009437 0.852208
O O18 0.000000 0.500000 0.500000
O O19 0.000000 0.750000 0.461554
#
# Coordination Sequence:
#
# PCOD9540840 Si02
#       7
#    16  16  16  16  16  16   8
#     4  10  21  35  50  72 105 141 175 217 264 310
#     4   9  18  33  53  76 103 137 180 224 261 308
#     4  10  19  33  56  81 105 136 174 215 259 311
#     4   9  20  36  50  66  94 132 168 208 256 302
#     4  10  20  35  55  78 104 134 168 210 257 309
#     4   8  16  33  56  81 107 136 171 212 261 315
#     4  12  24  34  48  68  92 124 166 214 260 306
#
# _framework density 9.1710759999999993
#
# number of rings (size 3 to 8) (size 9 to 14) (size 15 to 20)
#    0.000    2.462    0.000    4.385    1.077    5.846 
#    0.000    4.615    0.000    4.154    0.000    0.000 
#    0.000    0.000    0.000    0.000    0.000    0.000 
#
# Total GULP energy -289812.124762 kJ/mol
# GULP energy per Si atom -5573.310092 kJ/mol
# Density = 0.915020 g / cm^3
# Si number density = 9.171076 Si / 1000 Ang^3
#
#
#
# Elastic Constant Matrix: (Units=GPa)
#
#
# Indices 1 2 3 4 5 6 
#
# 1 124.5498 57.8148 22.0262 0.0000 0.0000 0.0000
# 2 57.8148 84.6082 14.2665 0.0000 0.0000 0.0000
# 3 22.0262 14.2665 0.7145 0.0000 0.0000 0.0000
# 4 0.0000 0.0000 0.0000 6.6244 0.0000 0.0000
# 5 0.0000 0.0000 0.0000 0.0000 -13.7402 0.0000
# 6 0.0000 0.0000 0.0000 0.0000 0.0000 -6.4343
#
#
#
# Elastic Compliance Matrix: (Units=1/GPa)
#
#
# Indices 1 2 3 4 5 6 
#
# 1 0.005741 -0.010951 0.041682 0.000000 0.000000 0.000000
# 2 -0.010951 0.015896 0.020201 0.000000 0.000000 0.000000
# 3 0.041682 0.020201 -0.288719 0.000000 0.000000 0.000000
# 4 0.000000 0.000000 0.000000 0.150956 0.000000 0.000000
# 5 0.000000 0.000000 0.000000 0.000000 -0.072779 0.000000
# 6 0.000000 0.000000 0.000000 0.000000 0.000000 -0.155416
#
#
# Mechanical properties :
#
#
# Convention : Reuss Voigt Hill
#
# Bulk Modulus (GPa) = -6.05259 44.23194 19.08967
# Shear Modulus (GPa) = -9.97493 5.00765 -2.48364
#
# Velocity S-wave (km/s) = -2.33454 1.65410 -1.16490
# Velocity P-wave (km/s) = 3.25173 5.27403 2.93612
#
# Compressibility (1/GPa) = -0.16521844
#
# Stress axis : x y z
#
# Youngs Moduli (GPa) = 174.18253 62.90786 -3.46358
#
# Poissons Ratio (x) = 0.68893 0.14437
# Poissons Ratio (y) = 1.90753 0.06997
# Poissons Ratio (z) = -7.26027 -1.27079
#
# Static dielectric constant tensor:
#      x y z
#    x 1.652660 0.000000 0.000000 
#    y 0.000000 1.621300 0.000000 
#    z 0.000000 0.000000 1.622920 
# 
# From -- ./inp_files/64472.got.cif
#   From: 2010.05.17/outbox.ucp.g08.bks.cvg/sg74_33_cif.got.tgz:64472.got - 2010.06.11 16:37:44.
