data_PCOD9540396
_publ_section_title
;
Structure prediction by ZEFSAII (Michael W. Deem and Ramdas Pophale) SiO2 
 PCOD9540396
Probable space group: I M M A
;
_chemical_formula_sum "Si O2"
_cell_formula_units_Z 80
_cell_length_a 8.197014
_cell_length_b 25.972543
_cell_length_c 21.230315
_cell_angle_alpha 90.000000
_cell_angle_beta 90.000000
_cell_angle_gamma 90.000000
_cell_volume 4519.876712
_symmetry_space_group_name_H-M "I M M A"
_symmetry_group_IT_number 74
_symmetry_cell_setting 'orthorhombic'
loop_
_space_group_symop_operation_xyz
x,y,z
-x,1/2-y,z
x,-y,-z
-x,1/2+y,-z
-x,-y,-z
x,1/2+y,-z
-x,y,z
x,1/2-y,z
1/2+x,1/2+y,1/2+z
1/2-x,-y,1/2+z
1/2+x,1/2-y,1/2-z
1/2-x,y,1/2-z
1/2-x,1/2-y,1/2-z
1/2+x,y,1/2-z
1/2-x,1/2+y,1/2+z
1/2+x,-y,1/2+z
loop_
_atom_site_type_symbol
_atom_site_label
_atom_site_fract_x
_atom_site_fract_y
_atom_site_fract_z
Si Si1 0.699692 0.861896 0.139146
Si Si2 0.806076 0.528176 0.317171
Si Si3 0.194410 0.967813 0.939887
Si Si4 0.697351 0.638517 0.991864
Si Si5 0.190382 0.250000 0.646067
Si Si6 0.691061 0.750000 0.992581
O O1 0.500000 0.859881 0.141134
O O2 0.758034 0.913191 0.173770
O O3 0.760163 0.806100 0.163746
O O4 0.744684 0.868496 0.065374
O O5 0.750000 0.507611 0.250000
O O6 0.754151 0.493450 0.375765
O O7 0.000000 0.531388 0.317764
O O8 0.244278 0.908922 0.950659
O O9 0.000000 0.971183 0.940630
O O10 0.259997 0.000000 0.000000
O O11 0.500000 0.639513 0.990932
O O12 0.760108 0.695062 0.971867
O O13 0.193971 0.250000 0.569269
O O14 0.000000 0.250000 0.665304
O O15 0.500000 0.750000 0.974778
#
# Coordination Sequence:
#
# PCOD9540396 Si02
#       6
#    16  16  16  16   8   8
#     4   8  14  25  45  69  95 128 167 206 247 293
#     4  11  22  36  52  72  99 135 173 213 258 307
#     4  11  22  34  50  75 104 134 170 214 257 300
#     4   9  15  28  50  76 101 130 167 206 250 300
#     4   7  10  20  39  66  94 123 162 206 243 284
#     4   7  12  22  43  74 103 125 157 205 248 293
#
# _framework density 17.699596
#
# number of rings (size 3 to 8) (size 9 to 14) (size 15 to 20)
#    0.000    2.800    2.000    3.600    0.000    0.800 
#    0.000    1.000    0.000    0.000    0.000    2.800 
#    0.000    0.000    0.000    0.000    0.000    0.000 
#
# Total GULP energy -222879.138567 kJ/mol
# GULP energy per Si atom -5571.978464 kJ/mol
# Density = 1.765931 g / cm^3
# Si number density = 17.699596 Si / 1000 Ang^3
#
#
#
# Elastic Constant Matrix: (Units=GPa)
#
#
# Indices 1 2 3 4 5 6 
#
# 1 19.4455 13.7914 13.5044 0.0000 0.0000 0.0000
# 2 13.7914 131.9696 62.0286 0.0000 0.0000 0.0000
# 3 13.5044 62.0286 94.5942 0.0000 0.0000 0.0000
# 4 0.0000 0.0000 0.0000 20.9471 0.0000 0.0000
# 5 0.0000 0.0000 0.0000 0.0000 9.9103 0.0000
# 6 0.0000 0.0000 0.0000 0.0000 0.0000 -0.1721
#
#
#
# Elastic Compliance Matrix: (Units=1/GPa)
#
#
# Indices 1 2 3 4 5 6 
#
# 1 0.057969 -0.003134 -0.006220 0.000000 0.000000 0.000000
# 2 -0.003134 0.011123 -0.006846 0.000000 0.000000 0.000000
# 3 -0.006220 -0.006846 0.015949 0.000000 0.000000 0.000000
# 4 0.000000 0.000000 0.000000 0.047739 0.000000 -0.000001
# 5 0.000000 0.000000 0.000000 0.000000 0.100905 0.000000
# 6 0.000000 0.000000 0.000000 -0.000001 0.000000 -5.811883
#
#
# Mechanical properties :
#
#
# Convention : Reuss Voigt Hill
#
# Bulk Modulus (GPa) = 18.99748 47.18425 33.09087
# Shear Modulus (GPa) = -0.90445 16.58272 7.83914
#
# Velocity S-wave (km/s) = -0.71562 3.06420 2.10680
# Velocity P-wave (km/s) = 3.17392 6.26381 4.96534
#
# Compressibility (1/GPa) = 0.05263855
#
# Stress axis : x y z
#
# Youngs Moduli (GPa) = 17.25070 89.90440 62.70062
#
# Poissons Ratio (x) = 0.28178 0.39003
# Poissons Ratio (y) = 0.05407 0.42926
# Poissons Ratio (z) = 0.10731 0.61551
#
# Static dielectric constant tensor:
#      x y z
#    x 1.606920 0.000000 0.000000 
#    y 0.000000 1.659790 0.000000 
#    z 0.000000 0.000000 1.589960 
# 
# From -- ./inp_files/39811.got.cif
#   From: 2010.05.17/outbox.cif.g08.bks.cpg/sg74_20_cif.got.tgz:39811.got - 2010.06.03 17:57:02.
