data_PCOD9540383
_publ_section_title
;
Structure prediction by ZEFSAII (Michael W. Deem and Ramdas Pophale) SiO2 
 PCOD9540383
Probable space group: I M M A
;
_chemical_formula_sum "Si O2"
_cell_formula_units_Z 96
_cell_length_a 19.288628
_cell_length_b 16.465181
_cell_length_c 16.099131
_cell_angle_alpha 90.000000
_cell_angle_beta 90.000000
_cell_angle_gamma 90.000000
_cell_volume 5112.935109
_symmetry_space_group_name_H-M "I M M A"
_symmetry_group_IT_number 74
_symmetry_cell_setting 'orthorhombic'
loop_
_space_group_symop_operation_xyz
x,y,z
-x,1/2-y,z
x,-y,-z
-x,1/2+y,-z
-x,-y,-z
x,1/2+y,-z
-x,y,z
x,1/2-y,z
1/2+x,1/2+y,1/2+z
1/2-x,-y,1/2+z
1/2+x,1/2-y,1/2-z
1/2-x,y,1/2-z
1/2-x,1/2-y,1/2-z
1/2+x,y,1/2-z
1/2-x,1/2+y,1/2+z
1/2+x,-y,1/2+z
loop_
_atom_site_type_symbol
_atom_site_label
_atom_site_fract_x
_atom_site_fract_y
_atom_site_fract_z
Si Si1 0.820663 0.118429 0.206833
Si Si2 0.081690 0.250000 0.280307
Si Si3 0.582614 0.750000 0.977072
Si Si4 0.670394 0.431768 0.762008
Si Si5 0.920881 0.654637 0.123686
Si Si6 0.184152 0.595691 0.988972
Si Si7 0.842258 0.088087 0.543549
O O1 0.750000 0.148865 0.250000
O O2 0.883382 0.172291 0.238524
O O3 0.815393 0.119101 0.107507
O O4 0.829502 0.026130 0.236724
O O5 0.096541 0.250000 0.378459
O O6 0.000000 0.250000 0.268366
O O7 0.500000 0.750000 0.990778
O O8 0.614420 0.833882 0.013028
O O9 0.750000 0.402325 0.750000
O O10 0.618461 0.387465 0.699916
O O11 0.650247 0.422373 0.857796
O O12 0.923595 0.750000 0.140268
O O13 0.000000 0.624524 0.113446
O O14 0.874053 0.640387 0.042332
O O15 0.169637 0.500000 0.000000
O O16 0.261543 0.607508 0.024302
O O17 0.857717 0.000000 0.500000
#
# Coordination Sequence:
#
# PCOD9540383 Si02
#       7
#    16   8   8  16  16  16  16
#     4  11  22  40  67  95 126 162 216 266 320 376
#     4  11  25  43  61  89 129 170 213 260 320 385
#     4  11  26  45  64  95 132 171 218 270 331 390
#     4  11  21  42  67  94 127 165 217 268 319 383
#     4  11  26  43  62  94 136 176 213 261 322 388
#     4  11  21  42  66  96 128 167 218 267 321 387
#     4  11  23  41  71  98 128 167 220 272 329 386
#
# _framework density 18.775908000000001
#
# number of rings (size 3 to 8) (size 9 to 14) (size 15 to 20)
#    0.000    1.000    3.333    5.250    3.500    3.000 
#    0.000    0.000    0.000    0.000    0.000    0.000 
#    0.000    0.000    0.000    0.000    0.000    0.000 
#
# Total GULP energy -268268.087396 kJ/mol
# GULP energy per Si atom -5588.918487 kJ/mol
# Density = 1.873317 g / cm^3
# Si number density = 18.775908 Si / 1000 Ang^3
#
#
#
# Elastic Constant Matrix: (Units=GPa)
#
#
# Indices 1 2 3 4 5 6 
#
# 1 96.5778 63.2024 78.7288 0.0000 0.0000 0.0000
# 2 63.2024 85.7946 53.5929 0.0000 0.0000 0.0000
# 3 78.7288 53.5929 193.3891 0.0000 0.0000 0.0000
# 4 0.0000 0.0000 0.0000 9.2117 0.0000 0.0000
# 5 0.0000 0.0000 0.0000 0.0000 21.6180 0.0000
# 6 0.0000 0.0000 0.0000 0.0000 0.0000 50.3193
#
#
#
# Elastic Compliance Matrix: (Units=1/GPa)
#
#
# Indices 1 2 3 4 5 6 
#
# 1 0.024761 -0.014445 -0.006077 0.000000 0.000000 0.000000
# 2 -0.014445 0.022522 -0.000361 0.000000 0.000000 0.000000
# 3 -0.006077 -0.000361 0.007745 0.000000 0.000000 0.000000
# 4 0.000000 0.000000 0.000000 0.108557 0.000000 0.000000
# 5 0.000000 0.000000 0.000000 0.000000 0.046258 0.000000
# 6 0.000000 0.000000 0.000000 0.000000 0.000000 0.019873
#
#
# Mechanical properties :
#
#
# Convention : Reuss Voigt Hill
#
# Bulk Modulus (GPa) = 75.40048 85.20110 80.30079
# Shear Modulus (GPa) = 18.12224 28.24563 23.18393
#
# Velocity S-wave (km/s) = 3.11011 3.88281 3.51774
# Velocity P-wave (km/s) = 7.28988 8.09802 7.70456
#
# Compressibility (1/GPa) = 0.01326251
#
# Stress axis : x y z
#
# Youngs Moduli (GPa) = 40.38532 44.40045 129.11395
#
# Poissons Ratio (x) = 0.64135 0.78468
# Poissons Ratio (y) = 0.58335 0.04661
# Poissons Ratio (z) = 0.24544 0.01603
#
# Static dielectric constant tensor:
#      x y z
#    x 1.649670 0.000000 0.000000 
#    y 0.000000 1.611250 0.000000 
#    z 0.000000 0.000000 1.632970 
# 
# From -- ./inp_files/32470.got.cif
#   From: 2010.05.17/outbox.cif.g08.bks.cpg/sg74_17_cif.got.tgz:32470.got - 2010.06.03 17:57:02.
