data_PCOD9540181
_publ_section_title
;
Structure prediction by ZEFSAII (Michael W. Deem and Ramdas Pophale) SiO2 
 PCOD9540181
Probable space group: I M M A
;
_chemical_formula_sum "Si O2"
_cell_formula_units_Z 80
_cell_length_a 10.017426
_cell_length_b 20.472405
_cell_length_c 25.038244
_cell_angle_alpha 90.000000
_cell_angle_beta 90.000000
_cell_angle_gamma 90.000000
_cell_volume 5134.863163
_symmetry_space_group_name_H-M "I M M A"
_symmetry_group_IT_number 74
_symmetry_cell_setting 'orthorhombic'
loop_
_space_group_symop_operation_xyz
x,y,z
-x,1/2-y,z
x,-y,-z
-x,1/2+y,-z
-x,-y,-z
x,1/2+y,-z
-x,y,z
x,1/2-y,z
1/2+x,1/2+y,1/2+z
1/2-x,-y,1/2+z
1/2+x,1/2-y,1/2-z
1/2-x,y,1/2-z
1/2-x,1/2-y,1/2-z
1/2+x,y,1/2-z
1/2-x,1/2+y,1/2+z
1/2+x,-y,1/2+z
loop_
_atom_site_type_symbol
_atom_site_label
_atom_site_fract_x
_atom_site_fract_y
_atom_site_fract_z
Si Si1 0.500000 0.853657 0.338977
Si Si2 0.000000 0.322312 0.536533
Si Si3 0.000000 0.442085 0.457266
Si Si4 0.500000 0.013002 0.339490
Si Si5 0.000000 0.511853 0.717538
Si Si6 0.708971 0.856375 0.126621
Si Si7 0.500000 0.853754 0.216242
Si Si8 0.209305 0.014918 0.371489
O O1 0.638032 0.835109 0.367497
O O2 0.500000 0.830796 0.277182
O O3 0.500000 0.933406 0.338161
O O4 0.872956 0.331171 0.575929
O O5 0.000000 0.250000 0.513913
O O6 0.000000 0.375933 0.490557
O O7 0.000000 0.500000 0.500000
O O8 0.128025 0.452342 0.419290
O O9 0.500000 0.035393 0.277961
O O10 0.363359 0.033627 0.367455
O O11 0.129809 0.530649 0.683154
O O12 0.000000 0.432795 0.719563
O O13 0.628315 0.836277 0.180277
O O14 0.701995 0.935769 0.123086
#
# Coordination Sequence:
#
# PCOD9540181 Si02
#       8
#     8   8   8   8   8  16   8  16
#     4   9  15  23  42  68  94 121 149 188 229 263
#     4  11  22  36  52  64  80 115 159 198 234 276
#     4  11  18  34  52  64  88 118 155 195 235 273
#     4   9  15  23  38  72 107 121 144 181 220 269
#     4   8  13  22  38  64 103 135 145 168 217 270
#     4   9  16  28  44  66  91 119 154 189 225 267
#     4   8  13  22  40  64  92 124 156 182 218 264
#     4   9  16  26  45  70  94 125 152 180 224 270
#
# _framework density 15.579772999999999
#
# number of rings (size 3 to 8) (size 9 to 14) (size 15 to 20)
#    0.000    2.800    2.000    2.400    0.000    4.800 
#    0.000    2.000    0.000    9.600    0.000    0.000 
#    0.000   12.800    0.000    0.000    0.000    0.000 
#
# Total GULP energy -222934.073566 kJ/mol
# GULP energy per Si atom -5573.351839 kJ/mol
# Density = 1.554431 g / cm^3
# Si number density = 15.579773 Si / 1000 Ang^3
#
#
#
# Elastic Constant Matrix: (Units=GPa)
#
#
# Indices 1 2 3 4 5 6 
#
# 1 161.1079 31.6362 61.2114 0.0000 0.0000 0.0000
# 2 31.6362 53.4852 39.7377 0.0000 0.0000 0.0000
# 3 61.2114 39.7377 96.7659 0.0000 0.0000 0.0000
# 4 0.0000 0.0000 0.0000 0.7476 0.0000 0.0000
# 5 0.0000 0.0000 0.0000 0.0000 5.8194 0.0000
# 6 0.0000 0.0000 0.0000 0.0000 0.0000 -1.5786
#
#
#
# Elastic Compliance Matrix: (Units=1/GPa)
#
#
# Indices 1 2 3 4 5 6 
#
# 1 0.008247 -0.001442 -0.004625 0.000000 0.000000 0.000000
# 2 -0.001442 0.027158 -0.010240 0.000000 0.000000 0.000000
# 3 -0.004625 -0.010240 0.017465 0.000000 0.000000 0.000000
# 4 0.000000 0.000000 0.000000 1.337671 0.000000 0.000000
# 5 0.000000 0.000000 0.000000 0.000000 0.171838 0.000000
# 6 0.000000 0.000000 0.000000 0.000000 0.000000 -0.633486
#
#
# Mechanical properties :
#
#
# Convention : Reuss Voigt Hill
#
# Bulk Modulus (GPa) = 49.36880 64.05884 56.71382
# Shear Modulus (GPa) = 5.16390 12.91593 9.03992
#
# Velocity S-wave (km/s) = 1.82255 2.88239 2.41142
# Velocity P-wave (km/s) = 6.01544 7.23073 6.65090
#
# Compressibility (1/GPa) = 0.02025571
#
# Stress axis : x y z
#
# Youngs Moduli (GPa) = 121.25072 36.82146 57.25726
#
# Poissons Ratio (x) = 0.05310 0.26480
# Poissons Ratio (y) = 0.17487 0.58634
# Poissons Ratio (z) = 0.56076 0.37707
#
# Static dielectric constant tensor:
#      x y z
#    x 1.539800 0.000000 0.000000 
#    y 0.000000 1.507390 0.000000 
#    z 0.000000 0.000000 1.505310 
# 
# From -- ./inp_files/61898.got.cif
#   From: 2010.05.17/outbox.cif.g08.bks.cpg/sg74_31_cif.got.tgz:61898.got - 2010.06.03 17:57:02.
