data_PCOD9540520
_publ_section_title
;
Structure prediction by ZEFSAII (Michael W. Deem and Ramdas Pophale) SiO2 
 PCOD9540520
Probable space group: I M M A
;
_chemical_formula_sum "Si O2"
_cell_formula_units_Z 96
_cell_length_a 13.781156
_cell_length_b 14.909609
_cell_length_c 22.586745
_cell_angle_alpha 90.000000
_cell_angle_beta 90.000000
_cell_angle_gamma 90.000000
_cell_volume 4640.935707
_symmetry_space_group_name_H-M "I M M A"
_symmetry_group_IT_number 74
_symmetry_cell_setting 'orthorhombic'
loop_
_space_group_symop_operation_xyz
x,y,z
-x,1/2-y,z
x,-y,-z
-x,1/2+y,-z
-x,-y,-z
x,1/2+y,-z
-x,y,z
x,1/2-y,z
1/2+x,1/2+y,1/2+z
1/2-x,-y,1/2+z
1/2+x,1/2-y,1/2-z
1/2-x,y,1/2-z
1/2-x,1/2-y,1/2-z
1/2+x,y,1/2-z
1/2-x,1/2+y,1/2+z
1/2+x,-y,1/2+z
loop_
_atom_site_type_symbol
_atom_site_label
_atom_site_fract_x
_atom_site_fract_y
_atom_site_fract_z
Si Si1 0.888441 0.353513 0.358216
Si Si2 0.894363 0.144631 0.017743
Si Si3 0.769308 0.979420 0.319113
Si Si4 0.610511 0.147047 0.624839
Si Si5 0.683202 0.099118 0.016827
Si Si6 0.389863 0.348872 0.894653
O O1 0.872689 0.250000 0.341199
O O2 0.806632 0.420105 0.332633
O O3 0.877260 0.361247 0.429453
O O4 0.000000 0.378178 0.342248
O O5 0.887255 0.250000 0.034297
O O6 0.894106 0.141036 0.946416
O O7 0.000000 0.109961 0.038352
O O8 0.795822 0.096985 0.037038
O O9 0.750000 0.969504 0.250000
O O10 0.677102 0.932841 0.351101
O O11 0.855362 0.920124 0.347229
O O12 0.500000 0.138898 0.646935
O O13 0.644322 0.250000 0.639041
O O14 0.673129 0.149535 0.954608
O O15 0.650040 0.000000 0.000000
O O16 0.500000 0.366573 0.913379
O O17 0.384272 0.250000 0.868267
#
# Coordination Sequence:
#
# PCOD9540520 Si02
#       6
#    16  16  16  16  16  16
#     4  11  25  45  68  94 127 171 220 271 329 390
#     4   9  17  31  53  82 120 162 201 244 299 369
#     4  12  25  41  63  89 124 167 217 276 323 374
#     4   9  18  35  59  88 124 166 208 249 306 384
#     4  12  21  35  64  97 132 170 208 261 326 398
#     4  11  23  39  62  96 136 170 205 259 326 398
#
# _framework density 20.685483999999999
#
# number of rings (size 3 to 8) (size 9 to 14) (size 15 to 20)
#    0.000    1.333    3.333    4.000    0.000    5.333 
#    0.000    2.500    0.000    1.500    0.000    0.000 
#    0.000    0.000    0.000    0.000    0.000    0.000 
#
# Total GULP energy -267915.193343 kJ/mol
# GULP energy per Si atom -5581.566528 kJ/mol
# Density = 2.063840 g / cm^3
# Si number density = 20.685484 Si / 1000 Ang^3
#
#
#
# Elastic Constant Matrix: (Units=GPa)
#
#
# Indices 1 2 3 4 5 6 
#
# 1 118.9864 24.6571 -1.1513 0.0000 0.0000 0.0000
# 2 24.6571 85.7521 -3.5943 0.0000 0.0000 0.0000
# 3 -1.1513 -3.5943 41.3140 0.0000 0.0000 0.0000
# 4 0.0000 0.0000 0.0000 -189.6909 0.0000 0.0000
# 5 0.0000 0.0000 0.0000 0.0000 9.2507 0.0000
# 6 0.0000 0.0000 0.0000 0.0000 0.0000 35.2498
#
#
#
# Elastic Compliance Matrix: (Units=1/GPa)
#
#
# Indices 1 2 3 4 5 6 
#
# 1 0.008937 -0.002569 0.000026 0.000000 0.000000 0.000000
# 2 -0.002569 0.012442 0.001011 0.000000 0.000000 0.000000
# 3 0.000026 0.001011 0.024294 0.000000 0.000000 0.000000
# 4 0.000000 0.000000 0.000000 -0.005272 0.000000 0.000000
# 5 0.000000 0.000000 0.000000 0.000000 0.108100 0.000000
# 6 0.000000 0.000000 0.000000 0.000000 0.000000 0.028369
#
#
# Mechanical properties :
#
#
# Convention : Reuss Voigt Hill
#
# Bulk Modulus (GPa) = 23.46943 31.76393 27.61668
# Shear Modulus (GPa) = 25.75498 -13.96201 5.89649
#
# Velocity S-wave (km/s) = 3.53239 -2.60083 1.69019
# Velocity P-wave (km/s) = 5.29221 2.52387 4.14593
#
# Compressibility (1/GPa) = 0.04260862
#
# Stress axis : x y z
#
# Youngs Moduli (GPa) = 111.89618 80.36988 41.16318
#
# Poissons Ratio (x) = 0.20644 -0.00105
# Poissons Ratio (y) = 0.28742 -0.04161
# Poissons Ratio (z) = -0.00286 -0.08125
#
# Static dielectric constant tensor:
#      x y z
#    x 1.793940 0.000000 0.000000 
#    y 0.000000 1.799250 0.000000 
#    z 0.000000 0.000000 1.687710 
# 
# From -- ./inp_files/51874.got.cif
#   From: 2010.05.17/outbox.cif.g08.bks.cpg/sg74_26_cif.got.tgz:51874.got - 2010.06.03 17:57:02.
