data_PCOD9540457
_publ_section_title
;
Structure prediction by ZEFSAII (Michael W. Deem and Ramdas Pophale) SiO2 
 PCOD9540457
Probable space group: I M M A
;
_chemical_formula_sum "Si O2"
_cell_formula_units_Z 72
_cell_length_a 8.158077
_cell_length_b 17.329430
_cell_length_c 26.089434
_cell_angle_alpha 90.000000
_cell_angle_beta 90.000000
_cell_angle_gamma 90.000000
_cell_volume 3688.389148
_symmetry_space_group_name_H-M "I M M A"
_symmetry_group_IT_number 74
_symmetry_cell_setting 'orthorhombic'
loop_
_space_group_symop_operation_xyz
x,y,z
-x,1/2-y,z
x,-y,-z
-x,1/2+y,-z
-x,-y,-z
x,1/2+y,-z
-x,y,z
x,1/2-y,z
1/2+x,1/2+y,1/2+z
1/2-x,-y,1/2+z
1/2+x,1/2-y,1/2-z
1/2-x,y,1/2-z
1/2-x,1/2-y,1/2-z
1/2+x,y,1/2-z
1/2-x,1/2+y,1/2+z
1/2+x,-y,1/2+z
loop_
_atom_site_type_symbol
_atom_site_label
_atom_site_fract_x
_atom_site_fract_y
_atom_site_fract_z
Si Si1 0.000000 0.162566 0.545310
Si Si2 0.316011 0.019085 0.806065
Si Si3 0.000000 0.837493 0.332181
Si Si4 0.802738 0.750000 0.809828
Si Si5 0.818406 0.092369 0.006228
Si Si6 0.196342 0.392792 0.380446
O O1 0.000000 0.162552 0.606631
O O2 0.165555 0.123193 0.525951
O O3 0.000000 0.250000 0.525874
O O4 0.500000 0.986383 0.804817
O O5 0.250000 0.005202 0.750000
O O6 0.344669 0.110104 0.815255
O O7 0.241197 0.971726 0.852853
O O8 0.000000 0.750000 0.313143
O O9 0.750000 0.750000 0.750000
O O10 0.735010 0.824332 0.840641
O O11 0.000000 0.750000 0.811998
O O12 0.785613 0.115198 0.065286
O O13 0.000000 0.120170 0.990505
O O14 0.816336 0.000000 0.000000
O O15 0.000000 0.395448 0.391599
#
# Coordination Sequence:
#
# PCOD9540457 Si02
#       6
#     8  16   8   8  16  16
#     4  11  23  41  67  89 130 172 210 265 329 384
#     4   9  20  36  59  89 117 161 201 256 308 377
#     4   9  20  39  63  92 122 165 206 255 325 384
#     4  12  26  42  60  90 130 176 224 283 321 389
#     4  11  24  40  64  96 127 170 218 272 325 389
#     4  11  22  39  63  89 127 170 219 263 328 384
#
# _framework density 19.520716
#
# number of rings (size 3 to 8) (size 9 to 14) (size 15 to 20)
#    0.667    0.889    1.111    4.000    1.556    4.444 
#    0.000    1.111    0.000    1.333    0.000    0.000 
#    0.000    0.000    0.000    0.000    0.000    0.000 
#
# Total GULP energy -200690.920917 kJ/mol
# GULP energy per Si atom -5574.747803 kJ/mol
# Density = 1.947629 g / cm^3
# Si number density = 19.520716 Si / 1000 Ang^3
#
#
#
# Elastic Constant Matrix: (Units=GPa)
#
#
# Indices 1 2 3 4 5 6 
#
# 1 100.2590 5.5591 3.3973 0.0000 0.0000 0.0000
# 2 5.5591 58.9857 -20.4688 0.0000 -0.0001 0.0000
# 3 3.3973 -20.4688 45.3334 0.0000 0.0000 0.0000
# 4 0.0000 0.0000 0.0000 33.7192 0.0000 0.0000
# 5 0.0000 -0.0001 0.0000 0.0000 1400.9076 0.0000
# 6 0.0000 0.0000 0.0000 0.0000 0.0000 23.0596
#
#
#
# Elastic Compliance Matrix: (Units=1/GPa)
#
#
# Indices 1 2 3 4 5 6 
#
# 1 0.010102 -0.001440 -0.001407 0.000000 0.000000 0.000000
# 2 -0.001440 0.020308 0.009278 0.000000 0.000000 0.000000
# 3 -0.001407 0.009278 0.026353 0.000000 0.000000 0.000000
# 4 0.000000 0.000000 0.000000 0.029657 0.000000 0.000000
# 5 0.000000 0.000000 0.000000 0.000000 0.000714 0.000000
# 6 0.000000 0.000000 0.000000 0.000000 0.000000 0.043366
#
#
# Mechanical properties :
#
#
# Convention : Reuss Voigt Hill
#
# Bulk Modulus (GPa) = 14.36308 20.17257 17.26783
# Shear Modulus (GPa) = 35.49927 305.94332 170.72130
#
# Velocity S-wave (km/s) = 4.26906 12.53267 9.36196
# Velocity P-wave (km/s) = 5.62794 14.82498 11.21280
#
# Compressibility (1/GPa) = 0.06962293
#
# Stress axis : x y z
#
# Youngs Moduli (GPa) = 98.99296 49.24056 37.94597
#
# Poissons Ratio (x) = 0.07093 0.05341
# Poissons Ratio (y) = 0.14259 -0.35205
# Poissons Ratio (z) = 0.13932 -0.45683
#
# Static dielectric constant tensor:
#      x y z
#    x 1.700930 0.000000 0.000000 
#    y 0.000000 1.787240 0.000000 
#    z 0.000000 0.000000 1.678190 
# 
# From -- ./inp_files/63868.got.cif
#   From: 2010.05.17/outbox.cif.g08.bks.cpg/sg74_32_cif.got.tgz:63868.got - 2010.06.03 17:57:02.
