data_PCOD9540034
_publ_section_title
;
Structure prediction by ZEFSAII (Michael W. Deem and Ramdas Pophale) SiO2 
 PCOD9540034
Probable space group: I M M A
;
_chemical_formula_sum "Si O2"
_cell_formula_units_Z 112
_cell_length_a 28.978489
_cell_length_b 14.326990
_cell_length_c 12.632792
_cell_angle_alpha 90.000000
_cell_angle_beta 90.000000
_cell_angle_gamma 90.000000
_cell_volume 5244.813382
_symmetry_space_group_name_H-M "I M M A"
_symmetry_group_IT_number 74
_symmetry_cell_setting 'orthorhombic'
loop_
_space_group_symop_operation_xyz
x,y,z
-x,1/2-y,z
x,-y,-z
-x,1/2+y,-z
-x,-y,-z
x,1/2+y,-z
-x,y,z
x,1/2-y,z
1/2+x,1/2+y,1/2+z
1/2-x,-y,1/2+z
1/2+x,1/2-y,1/2-z
1/2-x,y,1/2-z
1/2-x,1/2-y,1/2-z
1/2+x,y,1/2-z
1/2-x,1/2+y,1/2+z
1/2+x,-y,1/2+z
loop_
_atom_site_type_symbol
_atom_site_label
_atom_site_fract_x
_atom_site_fract_y
_atom_site_fract_z
Si Si1 0.943538 0.645816 0.043049
Si Si2 0.180180 0.443161 0.852020
Si Si3 0.948286 0.532372 0.379607
Si Si4 0.263709 0.141987 0.950337
Si Si5 0.944630 0.457172 0.163756
Si Si6 0.822719 0.143597 0.073947
Si Si7 0.855953 0.640304 0.364078
O O1 0.928291 0.750000 0.072494
O O2 0.928236 0.617962 0.923161
O O3 0.838752 0.614774 0.045522
O O4 0.000000 0.647276 0.043734
O O5 0.234688 0.425897 0.873714
O O6 0.068845 0.440082 0.880019
O O7 0.166659 0.552030 0.857721
O O8 0.164223 0.400163 0.743965
O O9 0.950969 0.500000 0.500000
O O10 0.935143 0.456005 0.288984
O O11 0.907162 0.604811 0.379043
O O12 0.000000 0.566889 0.349934
O O13 0.259733 0.250000 0.911190
O O14 0.317250 0.116731 0.952791
O O15 0.233370 0.140952 0.056923
O O16 0.000000 0.450929 0.155192
O O17 0.835327 0.250000 0.101895
O O18 0.857653 0.750000 0.356165
#
# Coordination Sequence:
#
# PCOD9540034 Si02
#       7
#    16  16  16  16  16  16  16
#     4   8  13  24  49  82 107 127 161 219 292 360
#     4   9  16  29  53  87 121 158 187 232 295 357
#     4  10  23  42  59  76 110 161 211 261 311 355
#     4   8  15  29  51  82 117 149 189 236 288 358
#     4   8  15  30  51  76 105 136 175 228 290 353
#     4   8  15  28  50  83 123 161 191 221 279 365
#     4  11  21  34  58  87 112 146 200 256 298 346
#
# _framework density 21.354429
#
# number of rings (size 3 to 8) (size 9 to 14) (size 15 to 20)
#    0.857    2.286    0.000    2.143    0.000    3.143 
#    0.000    5.000    0.000    7.714    0.000    0.000 
#    0.000    0.000    0.000    0.000    0.000    0.000 
#
# Total GULP energy -311877.286086 kJ/mol
# GULP energy per Si atom -5569.237252 kJ/mol
# Density = 2.130583 g / cm^3
# Si number density = 21.354429 Si / 1000 Ang^3
#
#
#
# Elastic Constant Matrix: (Units=GPa)
#
#
# Indices 1 2 3 4 5 6 
#
# 1 95.2582 15.6200 -5.4334 0.0000 0.0000 0.0000
# 2 15.6200 60.6228 -21.1709 0.0000 0.0000 0.0000
# 3 -5.4334 -21.1709 44.2059 0.0000 0.0000 0.0000
# 4 0.0000 0.0000 0.0000 10.9107 0.0000 0.0000
# 5 0.0000 0.0000 0.0000 0.0000 14.9010 0.0000
# 6 0.0000 0.0000 0.0000 0.0000 0.0000 27.8328
#
#
#
# Elastic Compliance Matrix: (Units=1/GPa)
#
#
# Indices 1 2 3 4 5 6 
#
# 1 0.010961 -0.002826 -0.000006 0.000000 0.000000 0.000000
# 2 -0.002826 0.020537 0.009488 0.000000 0.000000 0.000000
# 3 -0.000006 0.009488 0.027165 0.000000 0.000000 0.000000
# 4 0.000000 0.000000 0.000000 0.091653 0.000000 0.000000
# 5 0.000000 0.000000 0.000000 0.000000 0.067110 0.000000
# 6 0.000000 0.000000 0.000000 0.000000 0.000000 0.035929
#
#
# Mechanical properties :
#
#
# Convention : Reuss Voigt Hill
#
# Bulk Modulus (GPa) = 13.89398 19.79091 16.84245
# Shear Modulus (GPa) = 18.93691 24.80032 21.86861
#
# Velocity S-wave (km/s) = 2.98113 3.41158 3.20359
# Velocity P-wave (km/s) = 4.28603 4.98061 4.64632
#
# Compressibility (1/GPa) = 0.07197360
#
# Stress axis : x y z
#
# Youngs Moduli (GPa) = 91.23357 48.69212 36.81250
#
# Poissons Ratio (x) = 0.13762 0.00024
# Poissons Ratio (y) = 0.25786 -0.34928
# Poissons Ratio (z) = 0.00058 -0.46200
#
# Static dielectric constant tensor:
#      x y z
#    x 1.923050 0.000000 0.000000 
#    y 0.000000 1.749190 0.000000 
#    z 0.000000 0.000000 1.785620 
# 
# From -- ./inp_files/37404.got.cif
#   From: 2010.05.17/outbox.cif.g08.bks.cpg/sg74_19_cif.got.tgz:37404.got - 2010.06.03 17:57:02.
