data_PCOD9540416
_publ_section_title
;
Structure prediction by ZEFSAII (Michael W. Deem and Ramdas Pophale) SiO2 
 PCOD9540416
Probable space group: I M M A
;
_chemical_formula_sum "Si O2"
_cell_formula_units_Z 84
_cell_length_a 14.127409
_cell_length_b 21.484452
_cell_length_c 15.074179
_cell_angle_alpha 90.000000
_cell_angle_beta 90.000000
_cell_angle_gamma 90.000000
_cell_volume 4575.309392
_symmetry_space_group_name_H-M "I M M A"
_symmetry_group_IT_number 74
_symmetry_cell_setting 'orthorhombic'
loop_
_space_group_symop_operation_xyz
x,y,z
-x,1/2-y,z
x,-y,-z
-x,1/2+y,-z
-x,-y,-z
x,1/2+y,-z
-x,y,z
x,1/2-y,z
1/2+x,1/2+y,1/2+z
1/2-x,-y,1/2+z
1/2+x,1/2-y,1/2-z
1/2-x,y,1/2-z
1/2-x,1/2-y,1/2-z
1/2+x,y,1/2-z
1/2-x,1/2+y,1/2+z
1/2+x,-y,1/2+z
loop_
_atom_site_type_symbol
_atom_site_label
_atom_site_fract_x
_atom_site_fract_y
_atom_site_fract_z
Si Si1 0.820164 0.653528 0.334562
Si Si2 0.000000 0.175812 0.264696
Si Si3 0.000000 0.250000 0.680649
Si Si4 0.184026 0.388931 0.333542
Si Si5 0.207343 0.821462 0.988387
Si Si6 0.000000 0.674873 0.941848
Si Si7 0.386575 0.017239 0.897100
O O1 0.750000 0.654115 0.250000
O O2 0.757838 0.677750 0.417233
O O3 0.849674 0.583577 0.363410
O O4 0.914401 0.695539 0.321156
O O5 0.090033 0.150129 0.315973
O O6 0.000000 0.154545 0.161373
O O7 0.000000 0.250000 0.264071
O O8 0.250000 0.377613 0.250000
O O9 0.235272 0.364426 0.421134
O O10 0.157581 0.460978 0.341512
O O11 0.208576 0.750000 0.954288
O O12 0.097953 0.843361 0.988832
O O13 0.000000 0.750000 0.942128
O O14 0.500000 0.016397 0.888629
O O15 0.364852 0.000000 0.000000
#
# Coordination Sequence:
#
# PCOD9540416 Si02
#       7
#    16   8   4  16  16   8  16
#     4  12  26  47  71  99 135 173 226 285 340 398
#     4  11  22  36  59  95 135 173 212 263 324 392
#     4  12  26  46  74 104 134 170 232 286 338 420
#     4  12  23  39  65  91 132 177 218 265 332 400
#     4  11  23  40  65  98 131 175 221 273 337 397
#     4   9  20  39  60  91 135 169 214 261 323 407
#     4  11  23  43  68  93 128 174 220 276 336 396
#
# _framework density 18.359414999999998
#
# number of rings (size 3 to 8) (size 9 to 14) (size 15 to 20)
#    0.000    0.762    6.667    1.429    0.000    2.286 
#    3.429    0.000    0.000    1.143    0.000    0.000 
#    0.000    0.000    0.000    0.000    0.000    0.000 
#
# Total GULP energy -233968.164020 kJ/mol
# GULP energy per Si atom -5570.670572 kJ/mol
# Density = 1.831763 g / cm^3
# Si number density = 18.359415 Si / 1000 Ang^3
#
#
#
# Elastic Constant Matrix: (Units=GPa)
#
#
# Indices 1 2 3 4 5 6 
#
# 1 184.1777 62.4311 68.9788 0.0000 0.0000 0.0000
# 2 62.4311 138.1047 29.7240 0.0000 0.0000 0.0000
# 3 68.9788 29.7240 94.1678 0.0001 0.0000 0.0000
# 4 0.0000 0.0000 0.0001 27.6203 0.0000 0.0000
# 5 0.0000 0.0000 0.0000 0.0000 25.2992 0.0000
# 6 0.0000 0.0000 0.0000 0.0000 0.0000 33.2589
#
#
#
# Elastic Compliance Matrix: (Units=1/GPa)
#
#
# Indices 1 2 3 4 5 6 
#
# 1 0.008278 -0.002615 -0.005238 0.000000 0.000000 0.000000
# 2 -0.002615 0.008594 -0.000798 0.000000 0.000000 0.000000
# 3 -0.005238 -0.000798 0.014708 0.000000 0.000000 0.000000
# 4 0.000000 0.000000 0.000000 0.036205 0.000000 0.000000
# 5 0.000000 0.000000 0.000000 0.000000 0.039527 0.000000
# 6 0.000000 0.000000 0.000000 0.000000 0.000000 0.030067
#
#
# Mechanical properties :
#
#
# Convention : Reuss Voigt Hill
#
# Bulk Modulus (GPa) = 70.03045 82.07976 76.05511
# Shear Modulus (GPa) = 31.35975 34.25677 32.80826
#
# Velocity S-wave (km/s) = 4.13740 4.32429 4.23188
# Velocity P-wave (km/s) = 7.81352 8.35086 8.08665
#
# Compressibility (1/GPa) = 0.01427950
#
# Stress axis : x y z
#
# Youngs Moduli (GPa) = 120.80794 116.35369 67.98969
#
# Poissons Ratio (x) = 0.30421 0.35614
# Poissons Ratio (y) = 0.31586 0.05423
# Poissons Ratio (z) = 0.63281 0.09281
#
# Static dielectric constant tensor:
#      x y z
#    x 1.612450 0.000000 0.000000 
#    y 0.000000 1.636860 0.000000 
#    z 0.000000 0.000000 1.621540 
# 
# From -- ./inp_files/30834.got.cif
#   From: 2010.05.17/outbox.cif.g08.bks.cpg/sg74_16_cif.got.tgz:30834.got - 2010.06.03 17:57:02.
