data_PCOD9540720
_publ_section_title
;
Structure prediction by ZEFSAII (Michael W. Deem and Ramdas Pophale) SiO2 
 PCOD9540720
Probable space group: I M M A
;
_chemical_formula_sum "Si O2"
_cell_formula_units_Z 96
_cell_length_a 7.387253
_cell_length_b 25.022027
_cell_length_c 25.094058
_cell_angle_alpha 90.000000
_cell_angle_beta 90.000000
_cell_angle_gamma 90.000000
_cell_volume 4638.487162
_symmetry_space_group_name_H-M "I M M A"
_symmetry_group_IT_number 74
_symmetry_cell_setting 'orthorhombic'
loop_
_space_group_symop_operation_xyz
x,y,z
-x,1/2-y,z
x,-y,-z
-x,1/2+y,-z
-x,-y,-z
x,1/2+y,-z
-x,y,z
x,1/2-y,z
1/2+x,1/2+y,1/2+z
1/2-x,-y,1/2+z
1/2+x,1/2-y,1/2-z
1/2-x,y,1/2-z
1/2-x,1/2-y,1/2-z
1/2+x,y,1/2-z
1/2-x,1/2+y,1/2+z
1/2+x,-y,1/2+z
loop_
_atom_site_type_symbol
_atom_site_label
_atom_site_fract_x
_atom_site_fract_y
_atom_site_fract_z
Si Si1 0.716209 0.398466 0.689446
Si Si2 0.779605 0.310884 0.015968
Si Si3 0.784851 0.309432 0.192644
Si Si4 0.279352 0.809623 0.392515
Si Si5 0.283048 0.520059 0.688275
Si Si6 0.279059 0.108972 0.394805
O O1 0.500000 0.401674 0.682379
O O2 0.750000 0.380598 0.750000
O O3 0.784965 0.356236 0.646370
O O4 0.786090 0.459180 0.684127
O O5 0.724659 0.250000 0.034073
O O6 0.722461 0.363491 0.049403
O O7 0.000000 0.310030 0.018793
O O8 0.726543 0.316475 0.954241
O O9 0.707994 0.250000 0.192733
O O10 0.750000 0.334149 0.250000
O O11 0.718350 0.345060 0.145685
O O12 0.000000 0.305790 0.185951
O O13 0.500000 0.810433 0.392029
O O14 0.224163 0.750000 0.375271
O O15 0.500000 0.519603 0.683917
O O16 0.250000 0.538142 0.750000
O O17 0.219448 0.556051 0.637980
O O18 0.500000 0.105385 0.397187
#
# Coordination Sequence:
#
# PCOD9540720 Si02
#       6
#    16  16  16  16  16  16
#     4   9  17  29  44  63  86 109 133 162 198 240
#     4   8  13  22  37  57  81 108 135 164 201 242
#     4   9  16  24  34  50  72  96 124 162 202 234
#     4   8  14  25  41  61  85 109 131 160 200 243
#     4   9  17  28  41  58  82 110 137 167 202 238
#     4   9  15  23  36  54  76 103 135 166 196 233
#
# _framework density 20.696404000000001
#
# number of rings (size 3 to 8) (size 9 to 14) (size 15 to 20)
#    0.000    3.333    0.000    2.000    0.000    2.333 
#    0.000    0.833    0.000    5.000    0.000    2.333 
#    0.000    8.000    0.000    0.000    0.000    0.000 
#
# Total GULP energy -267236.927956 kJ/mol
# GULP energy per Si atom -5567.435999 kJ/mol
# Density = 2.064930 g / cm^3
# Si number density = 20.696404 Si / 1000 Ang^3
#
#
#
# Elastic Constant Matrix: (Units=GPa)
#
#
# Indices 1 2 3 4 5 6 
#
# 1 71.4626 5.3419 -1.1892 0.0000 0.0000 0.0000
# 2 5.3419 141.6331 97.4575 0.0000 0.0000 0.0000
# 3 -1.1892 97.4575 121.2432 0.0000 0.0000 0.0000
# 4 0.0000 0.0000 0.0000 42.1719 0.0000 0.0000
# 5 0.0000 0.0000 0.0000 0.0000 10.9754 0.0000
# 6 0.0000 0.0000 0.0000 0.0000 0.0000 -0.4609
#
#
#
# Elastic Compliance Matrix: (Units=1/GPa)
#
#
# Indices 1 2 3 4 5 6 
#
# 1 0.014119 -0.001405 0.001268 0.000000 0.000000 0.000000
# 2 -0.001405 0.015939 -0.012826 0.000000 0.000000 0.000000
# 3 0.001268 -0.012826 0.018570 0.000000 0.000000 0.000000
# 4 0.000000 0.000000 0.000000 0.023712 0.000000 0.000000
# 5 0.000000 0.000000 0.000000 0.000000 0.091113 0.000000
# 6 0.000000 0.000000 0.000000 0.000000 0.000000 -2.169633
#
#
# Mechanical properties :
#
#
# Convention : Reuss Voigt Hill
#
# Bulk Modulus (GPa) = 44.04806 59.72880 51.88843
# Shear Modulus (GPa) = -2.53461 26.05252 11.75895
#
# Velocity S-wave (km/s) = -1.10785 3.55180 2.38621
# Velocity P-wave (km/s) = 4.43765 6.76332 5.71993
#
# Compressibility (1/GPa) = 0.02270248
#
# Stress axis : x y z
#
# Youngs Moduli (GPa) = 70.82431 62.73995 53.85078
#
# Poissons Ratio (x) = 0.08814 -0.06827
# Poissons Ratio (y) = 0.09950 0.69067
# Poissons Ratio (z) = -0.08979 0.80468
#
# Static dielectric constant tensor:
#      x y z
#    x 1.827830 0.000000 0.000000 
#    y 0.000000 1.766150 0.000000 
#    z 0.000000 0.000000 1.724950 
# 
# From -- ./inp_files/50905.got.cif
#   From: 2010.05.17/outbox.cif.g08.bks.cpg/sg74_26_cif.got.tgz:50905.got - 2010.06.03 17:57:02.
