data_PCOD9540003
_publ_section_title
;
Structure prediction by ZEFSAII (Michael W. Deem and Ramdas Pophale) SiO2 
 PCOD9540003
Probable space group: I M M A
;
_chemical_formula_sum "Si O2"
_cell_formula_units_Z 52
_cell_length_a 36.905004
_cell_length_b 7.349593
_cell_length_c 8.360185
_cell_angle_alpha 90.000000
_cell_angle_beta 90.000000
_cell_angle_gamma 90.000000
_cell_volume 2267.589485
_symmetry_space_group_name_H-M "I M M A"
_symmetry_group_IT_number 74
_symmetry_cell_setting 'orthorhombic'
loop_
_space_group_symop_operation_xyz
x,y,z
-x,1/2-y,z
x,-y,-z
-x,1/2+y,-z
-x,-y,-z
x,1/2+y,-z
-x,y,z
x,1/2-y,z
1/2+x,1/2+y,1/2+z
1/2-x,-y,1/2+z
1/2+x,1/2-y,1/2-z
1/2-x,y,1/2-z
1/2-x,1/2-y,1/2-z
1/2+x,y,1/2-z
1/2-x,1/2+y,1/2+z
1/2+x,-y,1/2+z
loop_
_atom_site_type_symbol
_atom_site_label
_atom_site_fract_x
_atom_site_fract_y
_atom_site_fract_z
Si Si1 0.191967 0.965396 0.313718
Si Si2 0.539370 0.532782 0.190048
Si Si3 0.750000 0.750000 0.750000
Si Si4 0.115537 0.465878 0.814337
O O1 0.195343 0.750000 0.279265
O O2 0.150565 0.027156 0.284022
O O3 0.201007 0.000000 0.500000
O O4 0.219375 0.090310 0.217323
O O5 0.500000 0.462072 0.245919
O O6 0.538770 0.750000 0.216381
O O7 0.576134 0.458920 0.267231
O O8 0.541493 0.500000 0.000000
O O9 0.113672 0.250000 0.786275
O O10 0.122416 0.500000 0.000000
#
# Coordination Sequence:
#
# PCOD9540003 Si02
#       4
#    16  16   4  16
#     4  11  24  46  69  97 128 169 217 261 323 387
#     4   9  18  35  59  89 122 161 208 255 303 366
#     4  12  26  44  72 100 126 164 210 278 316 390
#     4  10  23  39  59  90 126 165 207 258 314 374
#
# _framework density 22.931840000000001
#
# number of rings (size 3 to 8) (size 9 to 14) (size 15 to 20)
#    0.000    1.846    1.538    1.385    2.154    3.077 
#    5.538    0.000    0.000    0.000    0.000    0.000 
#    0.000    0.000    0.000    0.000    0.000    0.000 
#
# Total GULP energy -144746.398948 kJ/mol
# GULP energy per Si atom -5567.169190 kJ/mol
# Density = 2.287965 g / cm^3
# Si number density = 22.931840 Si / 1000 Ang^3
#
#
#
# Elastic Constant Matrix: (Units=GPa)
#
#
# Indices 1 2 3 4 5 6 
#
# 1 168.0492 63.0393 -0.3127 0.0000 0.0000 0.0000
# 2 63.0393 143.0831 -2.5549 0.0000 0.0000 0.0000
# 3 -0.3127 -2.5549 24.2735 0.0000 0.0000 0.0000
# 4 0.0000 0.0000 0.0000 15.8964 0.0000 0.0000
# 5 0.0000 0.0000 0.0000 0.0000 -4.8089 0.0000
# 6 0.0000 0.0000 0.0000 0.0000 0.0000 -284.4347
#
#
#
# Elastic Compliance Matrix: (Units=1/GPa)
#
#
# Indices 1 2 3 4 5 6 
#
# 1 0.007130 -0.003146 -0.000239 0.000000 0.000000 0.000000
# 2 -0.003146 0.008390 0.000843 0.000000 0.000000 0.000000
# 3 -0.000239 0.000843 0.041283 0.000000 0.000000 0.000000
# 4 0.000000 0.000000 0.000000 0.062907 0.000000 0.000000
# 5 0.000000 0.000000 0.000000 0.000000 -0.207946 0.000000
# 6 0.000000 0.000000 0.000000 0.000000 0.000000 -0.003516
#
#
# Mechanical properties :
#
#
# Convention : Reuss Voigt Hill
#
# Bulk Modulus (GPa) = 19.33558 50.63880 34.98719
# Shear Modulus (GPa) = -72.01794 -36.32052 -54.16923
#
# Velocity S-wave (km/s) = -5.61012 -3.98407 -4.86550
# Velocity P-wave (km/s) = 5.78917 0.98308 4.03411
#
# Compressibility (1/GPa) = 0.05171812
#
# Stress axis : x y z
#
# Youngs Moduli (GPa) = 140.24823 119.19083 24.22319
#
# Poissons Ratio (x) = 0.37494 0.00579
# Poissons Ratio (y) = 0.44118 -0.02041
# Poissons Ratio (z) = 0.03355 -0.10042
#
# Static dielectric constant tensor:
#      x y z
#    x 1.899830 0.000000 0.000000 
#    y 0.000000 1.839470 0.000000 
#    z 0.000000 0.000000 1.822900 
# 
# From -- ./inp_files/26665.got.cif
#   From: 2010.05.17/outbox.cif.g08.bks.cpg/sg74_14_cif.got.tgz:26665.got - 2010.06.03 17:57:02.
