data_PCOD9540074
_publ_section_title
;
Structure prediction by ZEFSAII (Michael W. Deem and Ramdas Pophale) SiO2 
 PCOD9540074
Probable space group: I M M A
;
_chemical_formula_sum "Si O2"
_cell_formula_units_Z 68
_cell_length_a 16.983334
_cell_length_b 17.508865
_cell_length_c 9.696091
_cell_angle_alpha 90.000000
_cell_angle_beta 90.000000
_cell_angle_gamma 90.000000
_cell_volume 2883.218976
_symmetry_space_group_name_H-M "I M M A"
_symmetry_group_IT_number 74
_symmetry_cell_setting 'orthorhombic'
loop_
_space_group_symop_operation_xyz
x,y,z
-x,1/2-y,z
x,-y,-z
-x,1/2+y,-z
-x,-y,-z
x,1/2+y,-z
-x,y,z
x,1/2-y,z
1/2+x,1/2+y,1/2+z
1/2-x,-y,1/2+z
1/2+x,1/2-y,1/2-z
1/2-x,y,1/2-z
1/2-x,1/2-y,1/2-z
1/2+x,y,1/2-z
1/2-x,1/2+y,1/2+z
1/2+x,-y,1/2+z
loop_
_atom_site_type_symbol
_atom_site_label
_atom_site_fract_x
_atom_site_fract_y
_atom_site_fract_z
Si Si1 0.589961 0.537758 0.723366
Si Si2 0.658078 0.126328 0.764163
Si Si3 0.874392 0.331562 0.425524
Si Si4 0.405830 0.168815 0.475096
Si Si5 0.250000 0.250000 0.250000
O O1 0.500000 0.512699 0.692309
O O2 0.641032 0.463852 0.752206
O O3 0.620382 0.591805 0.599734
O O4 0.588942 0.595633 0.851811
O O5 0.750000 0.142577 0.750000
O O6 0.630770 0.155148 0.912422
O O7 0.614238 0.164032 0.634841
O O8 0.915621 0.250000 0.398681
O O9 0.790337 0.316061 0.352756
O O10 0.500000 0.170869 0.455162
O O11 0.372220 0.250000 0.415090
#
# Coordination Sequence:
#
# PCOD9540074 Si02
#       5
#    16  16  16  16   4
#     4  11  25  45  68  95 133 181 227 274 338 412
#     4  12  27  40  65 102 137 173 221 280 343 403
#     4  10  24  43  67  95 131 174 222 275 340 398
#     4  10  23  44  70  99 134 178 225 278 342 414
#     4   8  24  44  68  96 136 172 218 280 340 404
#
# _framework density 23.584748999999999
#
# number of rings (size 3 to 8) (size 9 to 14) (size 15 to 20)
#    0.706    0.706    0.000    3.529    4.941    9.882 
#    0.000    0.000    0.000    0.000    0.000    0.000 
#    0.000    0.000    0.000    0.000    0.000    0.000 
#
# Total GULP energy -189780.144967 kJ/mol
# GULP energy per Si atom -5581.768970 kJ/mol
# Density = 2.353107 g / cm^3
# Si number density = 23.584749 Si / 1000 Ang^3
#
#
#
# Elastic Constant Matrix: (Units=GPa)
#
#
# Indices 1 2 3 4 5 6 
#
# 1 47.1052 -4.1209 -12.3231 0.0000 0.0000 0.0000
# 2 -4.1209 127.7717 23.8891 0.0000 0.0000 0.0000
# 3 -12.3231 23.8891 153.8321 0.0000 0.0000 0.0000
# 4 0.0000 0.0000 0.0000 7.0124 0.0000 0.0000
# 5 0.0000 0.0000 0.0000 0.0000 22.1301 0.0000
# 6 0.0000 0.0000 0.0000 0.0000 0.0000 -86.1461
#
#
#
# Elastic Compliance Matrix: (Units=1/GPa)
#
#
# Indices 1 2 3 4 5 6 
#
# 1 0.021702 0.000386 0.001679 0.000000 0.000000 0.000000
# 2 0.000386 0.008067 -0.001222 0.000000 0.000000 0.000000
# 3 0.001679 -0.001222 0.006825 0.000000 0.000000 0.000000
# 4 0.000000 0.000000 0.000000 0.142604 0.000000 0.000000
# 5 0.000000 0.000000 0.000000 0.000000 0.045187 0.000000
# 6 0.000000 0.000000 0.000000 0.000000 0.000000 -0.011608
#
#
# Mechanical properties :
#
#
# Convention : Reuss Voigt Hill
#
# Bulk Modulus (GPa) = 26.12353 38.17767 32.15060
# Shear Modulus (GPa) = 22.33622 10.01688 16.17655
#
# Velocity S-wave (km/s) = 3.08078 2.06311 2.62179
# Velocity P-wave (km/s) = 4.87395 4.67951 4.77772
#
# Compressibility (1/GPa) = 0.03827967
#
# Stress axis : x y z
#
# Youngs Moduli (GPa) = 46.07875 123.95625 146.52428
#
# Poissons Ratio (x) = -0.04786 -0.24595
# Poissons Ratio (y) = -0.01779 0.17903
# Poissons Ratio (z) = -0.07734 0.15146
#
# Static dielectric constant tensor:
#      x y z
#    x 1.891570 0.000000 0.000000 
#    y 0.000000 1.897000 0.000000 
#    z 0.000000 0.000000 1.795210 
# 
# From -- ./inp_files/10415.got.cif
#   From: 2010.05.17/outbox.cif.g08.bks.cpg/sg74_6_cif.got.tgz:10415.got - 2010.06.03 17:57:02.
