data_PCOD9540623
_publ_section_title
;
Structure prediction by ZEFSAII (Michael W. Deem and Ramdas Pophale) SiO2 
 PCOD9540623
Probable space group: I M M A
;
_chemical_formula_sum "Si O2"
_cell_formula_units_Z 64
_cell_length_a 14.519332
_cell_length_b 10.066948
_cell_length_c 21.728591
_cell_angle_alpha 90.000000
_cell_angle_beta 90.000000
_cell_angle_gamma 90.000000
_cell_volume 3175.967331
_symmetry_space_group_name_H-M "I M M A"
_symmetry_group_IT_number 74
_symmetry_cell_setting 'orthorhombic'
loop_
_space_group_symop_operation_xyz
x,y,z
-x,1/2-y,z
x,-y,-z
-x,1/2+y,-z
-x,-y,-z
x,1/2+y,-z
-x,y,z
x,1/2-y,z
1/2+x,1/2+y,1/2+z
1/2-x,-y,1/2+z
1/2+x,1/2-y,1/2-z
1/2-x,y,1/2-z
1/2-x,1/2-y,1/2-z
1/2+x,y,1/2-z
1/2-x,1/2+y,1/2+z
1/2+x,-y,1/2+z
loop_
_atom_site_type_symbol
_atom_site_label
_atom_site_fract_x
_atom_site_fract_y
_atom_site_fract_z
Si Si1 0.660316 0.500000 0.500000
Si Si2 0.500000 0.100958 0.704191
Si Si3 0.500000 0.590002 0.590609
Si Si4 0.792186 0.750000 0.503090
Si Si5 0.338365 0.481005 0.793544
Si Si6 0.389379 0.750000 0.119883
Si Si7 0.609359 0.250000 0.136013
O O1 0.590782 0.539541 0.554834
O O2 0.727075 0.624113 0.490786
O O3 0.500000 0.250000 0.676961
O O4 0.500000 0.983911 0.655102
O O5 0.586452 0.080231 0.747951
O O6 0.500000 0.750000 0.594014
O O7 0.873027 0.750000 0.452896
O O8 0.832892 0.750000 0.572304
O O9 0.250000 0.494407 0.750000
O O10 0.338773 0.376541 0.849667
O O11 0.366330 0.620882 0.823409
O O12 0.500000 0.750000 0.132845
O O13 0.500000 0.250000 0.122634
#
# Coordination Sequence:
#
# PCOD9540623 Si02
#       7
#     8   8   8   8  16   8   8
#     4  11  26  48  67 108 144 182 237 300 340 431
#     4  12  27  45  72 110 140 189 238 290 361 429
#     4  11  27  45  74 100 151 187 232 287 370 418
#     4  12  27  43  76 102 136 190 248 291 357 414
#     4  12  26  44  72 103 144 185 235 295 356 427
#     4  12  24  49  70  99 139 184 237 303 351 424
#     4  12  26  49  68 103 143 186 237 297 359 418
#
# _framework density 20.151340999999999
#
# number of rings (size 3 to 8) (size 9 to 14) (size 15 to 20)
#    0.000    0.250    5.000    2.625   10.500    0.000 
#    0.000    3.750    0.000    0.000    0.000    0.000 
#    0.000    0.000    0.000    0.000    0.000    0.000 
#
# Total GULP energy -178900.141703 kJ/mol
# GULP energy per Si atom -5590.629428 kJ/mol
# Density = 2.010548 g / cm^3
# Si number density = 20.151341 Si / 1000 Ang^3
#
#
#
# Elastic Constant Matrix: (Units=GPa)
#
#
# Indices 1 2 3 4 5 6 
#
# 1 114.6219 48.5482 39.5343 0.0000 0.0000 0.0000
# 2 48.5482 176.6727 24.5119 0.0000 0.0000 0.0000
# 3 39.5343 24.5119 80.1296 0.0000 0.0000 0.0000
# 4 0.0000 0.0000 0.0000 36.8637 0.0000 0.0000
# 5 0.0000 0.0000 0.0000 0.0000 42.0464 0.0000
# 6 0.0000 0.0000 0.0000 0.0000 0.0000 30.5540
#
#
#
# Elastic Compliance Matrix: (Units=1/GPa)
#
#
# Indices 1 2 3 4 5 6 
#
# 1 0.011460 -0.002469 -0.004899 0.000000 0.000000 0.000000
# 2 -0.002469 0.006443 -0.000753 0.000000 0.000000 0.000000
# 3 -0.004899 -0.000753 0.015127 0.000000 0.000000 0.000000
# 4 0.000000 0.000000 0.000000 0.027127 0.000000 0.000000
# 5 0.000000 0.000000 0.000000 0.000000 0.023783 0.000000
# 6 0.000000 0.000000 0.000000 0.000000 0.000000 0.032729
#
#
# Mechanical properties :
#
#
# Convention : Reuss Voigt Hill
#
# Bulk Modulus (GPa) = 59.56442 66.29032 62.92737
# Shear Modulus (GPa) = 36.09934 39.14815 37.62375
#
# Velocity S-wave (km/s) = 4.23710 4.41240 4.32564
# Velocity P-wave (km/s) = 7.31847 7.67637 7.49956
#
# Compressibility (1/GPa) = 0.01678855
#
# Stress axis : x y z
#
# Youngs Moduli (GPa) = 87.26105 155.20283 66.10733
#
# Poissons Ratio (x) = 0.38326 0.32384
# Poissons Ratio (y) = 0.21549 0.04975
# Poissons Ratio (z) = 0.42746 0.11681
#
# Static dielectric constant tensor:
#      x y z
#    x 1.696790 0.000000 0.000000 
#    y 0.000000 1.724530 0.000000 
#    z 0.000000 0.000000 1.707160 
# 
# From -- ./inp_files/59572.got.cif
#   From: 2010.05.17/outbox.cif.g08.bks.cpg/sg74_30_cif.got.tgz:59572.got - 2010.06.03 17:57:02.
