data_PCOD9540969
_publ_section_title
;
Structure prediction by ZEFSAII (Michael W. Deem and Ramdas Pophale) SiO2 
 PCOD9540969
Probable space group: I M M A
;
_chemical_formula_sum "Si O2"
_cell_formula_units_Z 48
_cell_length_a 21.000000
_cell_length_b 15.000000
_cell_length_c 15.000000
_cell_angle_alpha 90.000000
_cell_angle_beta 90.000000
_cell_angle_gamma 90.000000
_cell_volume 4725.000000
_symmetry_space_group_name_H-M "I M M A"
_symmetry_group_IT_number 74
_symmetry_cell_setting 'orthorhombic'
loop_
_space_group_symop_operation_xyz
x,y,z
-x,1/2-y,z
x,-y,-z
-x,1/2+y,-z
-x,-y,-z
x,1/2+y,-z
-x,y,z
x,1/2-y,z
1/2+x,1/2+y,1/2+z
1/2-x,-y,1/2+z
1/2+x,1/2-y,1/2-z
1/2-x,y,1/2-z
1/2-x,1/2-y,1/2-z
1/2+x,y,1/2-z
1/2-x,1/2+y,1/2+z
1/2+x,-y,1/2+z
loop_
_atom_site_type_symbol
_atom_site_label
_atom_site_fract_x
_atom_site_fract_y
_atom_site_fract_z
Si Si1 0.182716 0.353389 0.400425
Si Si2 0.191171 0.146005 0.817231
Si Si3 0.927001 0.043024 0.734006
Si Si4 0.425506 0.644221 0.047583
Si Si5 0.620553 0.647401 0.710941
Si Si6 0.811307 0.904234 0.974887
O O1 0.201380 0.250000 0.418497
O O2 0.121078 0.371536 0.463139
O O3 0.170312 0.358904 0.294430
O O4 0.241018 0.413267 0.432313
O O5 0.180367 0.250000 0.796955
O O6 0.250000 0.118373 0.750000
O O7 0.128804 0.090019 0.790352
O O8 0.198916 0.139095 0.925840
O O9 0.914168 0.077159 0.631366
O O10 0.000000 0.072302 0.752383
O O11 0.922462 0.937952 0.760744
O O12 0.500000 0.634179 0.021743
O O13 0.416628 0.750000 0.074027
O O14 0.594862 0.750000 0.716656
O O15 0.648736 0.635919 0.609828
O O16 0.839732 0.000000 0.000000
#
# Coordination Sequence:
#
# PCOD9540969 Si02
#       6
#    16  16  16  16  16  16
#     4  10  22  39  64  96 131 174 218 263 328 403
#     4  11  24  43  70 103 135 167 215 275 337 401
#     4  11  24  42  67  99 135 176 223 274 334 395
#     4   9  19  38  65  99 136 168 207 266 333 403
#     4  11  25  44  64  92 133 178 223 270 325 390
#     4  12  24  40  66  94 129 170 218 274 332 397
#
# _framework density 10.15873
#
# number of rings (size 3 to 8) (size 9 to 14) (size 15 to 20)
#    0.000    1.333    1.667    3.500    4.667    6.000 
#    0.000    5.000    0.000    2.000    0.000    0.000 
#    0.000    0.000    0.000    0.000    0.000    0.000 
#
# Total GULP energy -267696.159814 kJ/mol
# GULP energy per Si atom -5577.003329 kJ/mol
# Density = 1.013561 g / cm^3
# Si number density = 10.158730 Si / 1000 Ang^3
#
#
#
# Elastic Constant Matrix: (Units=GPa)
#
#
# Indices 1 2 3 4 5 6 
#
# 1 77.2739 24.0935 33.3921 0.0000 0.0000 0.0000
# 2 24.0935 99.3020 26.2651 0.0000 0.0000 0.0000
# 3 33.3921 26.2651 143.4005 0.0000 0.0000 0.0000
# 4 0.0000 0.0000 0.0000 42.0906 0.0000 0.0000
# 5 0.0000 0.0000 0.0000 0.0000 30.1713 0.0000
# 6 0.0000 0.0000 0.0000 0.0000 0.0000 23.7381
#
#
#
# Elastic Compliance Matrix: (Units=1/GPa)
#
#
# Indices 1 2 3 4 5 6 
#
# 1 0.015134 -0.002879 -0.002997 0.000000 0.000000 0.000000
# 2 -0.002879 0.011131 -0.001368 0.000000 0.000000 0.000000
# 3 -0.002997 -0.001368 0.007922 0.000000 0.000000 0.000000
# 4 0.000000 0.000000 0.000000 0.023758 0.000000 0.000000
# 5 0.000000 0.000000 0.000000 0.000000 0.033144 0.000000
# 6 0.000000 0.000000 0.000000 0.000000 0.000000 0.042126
#
#
# Mechanical properties :
#
#
# Convention : Reuss Voigt Hill
#
# Bulk Modulus (GPa) = 50.76651 54.16418 52.46534
# Shear Modulus (GPa) = 32.41086 34.94839 33.67962
#
# Velocity S-wave (km/s) = 3.99836 4.15193 4.07587
# Velocity P-wave (km/s) = 6.80857 7.04993 6.93030
#
# Compressibility (1/GPa) = 0.01969803
#
# Stress axis : x y z
#
# Youngs Moduli (GPa) = 66.07802 89.84100 126.23274
#
# Poissons Ratio (x) = 0.25867 0.37827
# Poissons Ratio (y) = 0.19025 0.17272
# Poissons Ratio (z) = 0.19801 0.12292
#
# Static dielectric constant tensor:
#      x y z
#    x 1.711430 0.000000 0.000000 
#    y 0.000000 1.778780 0.000000 
#    z 0.000000 0.000000 1.717510 
# 
# From -- ./inp_files/35290.got.cif
#   From: 2010.05.17/outbox.ucp.g08.bks.cvg/sg74_18_cif.got.tgz:35290.got - 2010.06.11 16:37:44.
