data_PCOD9540757
_publ_section_title
;
Structure prediction by ZEFSAII (Michael W. Deem and Ramdas Pophale) SiO2 
 PCOD9540757
Probable space group: I M M A
;
_chemical_formula_sum "Si O2"
_cell_formula_units_Z 96
_cell_length_a 7.293506
_cell_length_b 19.824828
_cell_length_c 29.826804
_cell_angle_alpha 90.000000
_cell_angle_beta 90.000000
_cell_angle_gamma 90.000000
_cell_volume 4312.732216
_symmetry_space_group_name_H-M "I M M A"
_symmetry_group_IT_number 74
_symmetry_cell_setting 'orthorhombic'
loop_
_space_group_symop_operation_xyz
x,y,z
-x,1/2-y,z
x,-y,-z
-x,1/2+y,-z
-x,-y,-z
x,1/2+y,-z
-x,y,z
x,1/2-y,z
1/2+x,1/2+y,1/2+z
1/2-x,-y,1/2+z
1/2+x,1/2-y,1/2-z
1/2-x,y,1/2-z
1/2-x,1/2-y,1/2-z
1/2+x,y,1/2-z
1/2-x,1/2+y,1/2+z
1/2+x,-y,1/2+z
loop_
_atom_site_type_symbol
_atom_site_label
_atom_site_fract_x
_atom_site_fract_y
_atom_site_fract_z
Si Si1 0.780913 0.023487 0.199075
Si Si2 0.776939 0.432591 0.099790
Si Si3 0.217511 0.369488 0.798420
Si Si4 0.221505 0.564954 0.046697
Si Si5 0.277100 0.827822 0.529835
Si Si6 0.777433 0.680343 0.110398
O O1 0.750000 0.051657 0.250000
O O2 0.716710 0.055687 0.151531
O O3 0.000000 0.021668 0.194994
O O4 0.710299 0.946166 0.200154
O O5 0.718760 0.490978 0.063697
O O6 0.728363 0.360883 0.077766
O O7 0.000000 0.436610 0.100295
O O8 0.250000 0.340011 0.750000
O O9 0.283959 0.324654 0.838801
O O10 0.000000 0.375343 0.804756
O O11 0.274605 0.611308 0.088262
O O12 0.000000 0.559177 0.041153
O O13 0.281159 0.614599 0.006197
O O14 0.500000 0.825662 0.526357
O O15 0.216065 0.750000 0.523825
O O16 0.715018 0.750000 0.088724
O O17 0.000000 0.681220 0.107603
#
# Coordination Sequence:
#
# PCOD9540757 Si02
#       6
#    16  16  16  16  16  16
#     4   9  16  27  43  62  84 111 142 176 213 252
#     4   9  15  24  38  55  78 109 140 169 206 251
#     4   9  16  26  38  53  75 103 137 172 208 246
#     4   9  14  22  34  51  75 106 140 167 196 244
#     4   9  16  23  33  53  81 110 137 167 207 254
#     4   9  15  22  33  49  72 102 133 166 202 240
#
# _framework density 22.259671000000001
#
# number of rings (size 3 to 8) (size 9 to 14) (size 15 to 20)
#    0.000    3.000    1.667    1.000    0.000    4.333 
#    0.000    0.000    0.000    0.500    0.000    0.000 
#    0.000    4.000    0.000    1.333    0.000    0.000 
#
# Total GULP energy -267229.427714 kJ/mol
# GULP energy per Si atom -5567.279744 kJ/mol
# Density = 2.220901 g / cm^3
# Si number density = 22.259671 Si / 1000 Ang^3
#
#
#
# Elastic Constant Matrix: (Units=GPa)
#
#
# Indices 1 2 3 4 5 6 
#
# 1 89.1965 0.8482 -2.4888 0.0000 0.0000 0.0000
# 2 0.8482 110.4123 91.2568 0.0000 0.0000 0.0000
# 3 -2.4888 91.2568 140.1722 0.0000 0.0000 0.0000
# 4 0.0000 0.0000 0.0000 -0.0969 0.0000 0.0000
# 5 0.0000 0.0000 0.0000 0.0000 -1.0523 0.0000
# 6 0.0000 0.0000 0.0000 0.0000 0.0000 -19.7359
#
#
#
# Elastic Compliance Matrix: (Units=1/GPa)
#
#
# Indices 1 2 3 4 5 6 
#
# 1 0.011232 -0.000544 0.000553 0.000000 0.000000 0.000000
# 2 -0.000544 0.019634 -0.012792 0.000001 0.000000 0.000000
# 3 0.000553 -0.012792 0.015472 -0.000001 0.000000 0.000000
# 4 0.000000 0.000001 -0.000001-10.318319 -0.000005 0.000000
# 5 0.000000 0.000000 0.000000 -0.000005 -0.950328 0.000000
# 6 0.000000 0.000000 0.000000 0.000000 0.000000 -0.050669
#
#
# Mechanical properties :
#
#
# Convention : Reuss Voigt Hill
#
# Bulk Modulus (GPa) = 48.13922 57.66815 52.90369
# Shear Modulus (GPa) = -0.44482 12.50063 6.02791
#
# Velocity S-wave (km/s) = -0.44751 2.37234 1.64738
# Velocity P-wave (km/s) = 4.62668 5.78509 5.23801
#
# Compressibility (1/GPa) = 0.02077308
#
# Stress axis : x y z
#
# Youngs Moduli (GPa) = 89.03283 50.93263 64.63341
#
# Poissons Ratio (x) = 0.02769 -0.03577
# Poissons Ratio (y) = 0.04840 0.82678
# Poissons Ratio (z) = -0.04927 0.65153
#
# Static dielectric constant tensor:
#      x y z
#    x 1.846300 0.000000 0.000000 
#    y 0.000000 1.777000 0.000000 
#    z 0.000000 0.000000 1.876850 
# 
# From -- ./inp_files/58971.got.cif
#   From: 2010.05.17/outbox.cif.g08.bks.cpg/sg74_30_cif.got.tgz:58971.got - 2010.06.03 17:57:02.
