data_PCOD9540372
_publ_section_title
;
Structure prediction by ZEFSAII (Michael W. Deem and Ramdas Pophale) SiO2 
 PCOD9540372
Probable space group: I M M A
;
_chemical_formula_sum "Si O2"
_cell_formula_units_Z 72
_cell_length_a 8.558250
_cell_length_b 23.240999
_cell_length_c 19.439678
_cell_angle_alpha 90.000000
_cell_angle_beta 90.000000
_cell_angle_gamma 90.000000
_cell_volume 3866.596271
_symmetry_space_group_name_H-M "I M M A"
_symmetry_group_IT_number 74
_symmetry_cell_setting 'orthorhombic'
loop_
_space_group_symop_operation_xyz
x,y,z
-x,1/2-y,z
x,-y,-z
-x,1/2+y,-z
-x,-y,-z
x,1/2+y,-z
-x,y,z
x,1/2-y,z
1/2+x,1/2+y,1/2+z
1/2-x,-y,1/2+z
1/2+x,1/2-y,1/2-z
1/2-x,y,1/2-z
1/2-x,1/2-y,1/2-z
1/2+x,y,1/2-z
1/2-x,1/2+y,1/2+z
1/2+x,-y,1/2+z
loop_
_atom_site_type_symbol
_atom_site_label
_atom_site_fract_x
_atom_site_fract_y
_atom_site_fract_z
Si Si1 0.187879 0.419862 0.827239
Si Si2 0.312220 0.351318 0.422620
Si Si3 0.813808 0.750000 0.672701
Si Si4 0.312479 0.979266 0.923259
Si Si5 0.190165 0.685139 0.077008
O O1 0.250000 0.419407 0.750000
O O2 0.248496 0.475078 0.868736
O O3 0.241358 0.363003 0.868928
O O4 0.000000 0.420697 0.826817
O O5 0.500000 0.349803 0.420009
O O6 0.246233 0.305856 0.368432
O O7 0.253428 0.415778 0.410326
O O8 0.262861 0.332432 0.499730
O O9 0.750000 0.750000 0.750000
O O10 0.000000 0.750000 0.673821
O O11 0.500000 0.977930 0.920326
O O12 0.265438 0.000000 0.000000
O O13 0.243158 0.750000 0.092486
O O14 0.000000 0.685411 0.077650
#
# Coordination Sequence:
#
# PCOD9540372 Si02
#       5
#    16  16   8  16  16
#     4  11  23  40  62  90 126 166 207 255 312 370
#     4  11  21  39  67  95 123 162 209 255 309 373
#     4  12  26  44  64  94 131 166 205 256 315 369
#     4  11  23  39  62  93 127 161 207 261 313 371
#     4   9  18  35  62  92 121 158 205 249 300 366
#
# _framework density 18.621027999999999
#
# number of rings (size 3 to 8) (size 9 to 14) (size 15 to 20)
#    0.000    1.333    3.333    3.000    0.000    2.222 
#    0.000    4.444    0.000    0.000    0.000    0.000 
#    0.000    0.000    0.000    0.000    0.000    0.000 
#
# Total GULP energy -201261.122608 kJ/mol
# GULP energy per Si atom -5590.586739 kJ/mol
# Density = 1.857865 g / cm^3
# Si number density = 18.621028 Si / 1000 Ang^3
#
#
#
# Elastic Constant Matrix: (Units=GPa)
#
#
# Indices 1 2 3 4 5 6 
#
# 1 73.2114 55.4193 55.8331 0.0000 0.0000 0.0000
# 2 55.4193 229.0345 123.2600 0.0000 0.0000 0.0000
# 3 55.8331 123.2600 197.1555 0.0000 0.0000 0.0000
# 4 0.0000 0.0000 0.0000 10.4222 0.0000 0.0000
# 5 0.0000 0.0000 0.0000 0.0000 22.7054 0.0000
# 6 0.0000 0.0000 0.0000 0.0000 0.0000 17.3165
#
#
#
# Elastic Compliance Matrix: (Units=1/GPa)
#
#
# Indices 1 2 3 4 5 6 
#
# 1 0.018305 -0.002471 -0.003639 0.000000 0.000000 0.000000
# 2 -0.002471 0.006914 -0.003623 0.000000 0.000000 0.000000
# 3 -0.003639 -0.003623 0.008368 0.000000 0.000000 0.000000
# 4 0.000000 0.000000 0.000000 0.095949 0.000000 0.000000
# 5 0.000000 0.000000 0.000000 0.000000 0.044042 0.000000
# 6 0.000000 0.000000 0.000000 0.000000 0.000000 0.057748
#
#
# Mechanical properties :
#
#
# Convention : Reuss Voigt Hill
#
# Bulk Modulus (GPa) = 70.81701 107.60292 89.20996
# Shear Modulus (GPa) = 19.56966 27.74808 23.65887
#
# Velocity S-wave (km/s) = 3.24534 3.86443 3.56834
# Velocity P-wave (km/s) = 7.22193 8.82173 8.06161
#
# Compressibility (1/GPa) = 0.01412090
#
# Stress axis : x y z
#
# Youngs Moduli (GPa) = 54.63111 144.64275 119.50946
#
# Poissons Ratio (x) = 0.35737 0.43490
# Poissons Ratio (y) = 0.13498 0.43294
# Poissons Ratio (z) = 0.19881 0.52399
#
# Static dielectric constant tensor:
#      x y z
#    x 1.627530 0.000000 0.000000 
#    y 0.000000 1.617610 0.000000 
#    z 0.000000 0.000000 1.613770 
# 
# From -- ./inp_files/39469.got.cif
#   From: 2010.05.17/outbox.cif.g08.bks.cpg/sg74_20_cif.got.tgz:39469.got - 2010.06.03 17:57:02.
