data_PCOD9540554
_publ_section_title
;
Structure prediction by ZEFSAII (Michael W. Deem and Ramdas Pophale) SiO2 
 PCOD9540554
Probable space group: I M M A
;
_chemical_formula_sum "Si O2"
_cell_formula_units_Z 48
_cell_length_a 28.366688
_cell_length_b 10.177417
_cell_length_c 8.704499
_cell_angle_alpha 90.000000
_cell_angle_beta 90.000000
_cell_angle_gamma 90.000000
_cell_volume 2512.985490
_symmetry_space_group_name_H-M "I M M A"
_symmetry_group_IT_number 74
_symmetry_cell_setting 'orthorhombic'
loop_
_space_group_symop_operation_xyz
x,y,z
-x,1/2-y,z
x,-y,-z
-x,1/2+y,-z
-x,-y,-z
x,1/2+y,-z
-x,y,z
x,1/2-y,z
1/2+x,1/2+y,1/2+z
1/2-x,-y,1/2+z
1/2+x,1/2-y,1/2-z
1/2-x,y,1/2-z
1/2-x,1/2-y,1/2-z
1/2+x,y,1/2-z
1/2-x,1/2+y,1/2+z
1/2+x,-y,1/2+z
loop_
_atom_site_type_symbol
_atom_site_label
_atom_site_fract_x
_atom_site_fract_y
_atom_site_fract_z
Si Si1 0.890769 0.995524 0.817184
Si Si2 0.444502 0.250000 0.182397
Si Si3 0.942892 0.250000 0.683391
Si Si4 0.703335 0.094798 0.145806
O O1 0.923067 0.875793 0.763623
O O2 0.840493 0.965944 0.739255
O O3 0.916953 0.124689 0.755579
O O4 0.885690 0.000000 0.000000
O O5 0.500000 0.250000 0.199958
O O6 0.434493 0.250000 0.000101
O O7 0.000000 0.250000 0.708843
O O8 0.693961 0.250000 0.107331
O O9 0.750000 0.092249 0.250000
O O10 0.710138 0.000000 0.000000
#
# Coordination Sequence:
#
# PCOD9540554 Si02
#       4
#    16   8   8  16
#     4  12  25  42  66  99 136 177 221 278 337 395
#     4  11  23  43  66  93 132 175 229 279 333 401
#     4  11  25  43  68  97 132 181 229 277 335 397
#     4  11  25  46  71 101 137 176 222 273 333 400
#
# _framework density 19.100787
#
# number of rings (size 3 to 8) (size 9 to 14) (size 15 to 20)
#    0.000    0.667    1.667    6.000    2.333    7.333 
#    0.000    0.000    0.000    0.000    0.000    0.000 
#    0.000    0.000    0.000    0.000    0.000    0.000 
#
# Total GULP energy -134234.975224 kJ/mol
# GULP energy per Si atom -5593.123968 kJ/mol
# Density = 1.905731 g / cm^3
# Si number density = 19.100787 Si / 1000 Ang^3
#
#
#
# Elastic Constant Matrix: (Units=GPa)
#
#
# Indices 1 2 3 4 5 6 
#
# 1 121.2709 85.2208 78.0871 0.0000 0.0000 0.0000
# 2 85.2208 217.4075 95.5603 0.0000 0.0000 0.0000
# 3 78.0871 95.5603 154.1325 0.0000 0.0000 0.0000
# 4 0.0000 0.0000 0.0000 41.2243 0.0000 0.0000
# 5 0.0000 0.0000 0.0000 0.0000 35.2795 0.0000
# 6 0.0000 0.0000 0.0000 0.0000 0.0000 41.1481
#
#
#
# Elastic Compliance Matrix: (Units=1/GPa)
#
#
# Indices 1 2 3 4 5 6 
#
# 1 0.013672 -0.003182 -0.004954 0.000000 0.000000 0.000000
# 2 -0.003182 0.007063 -0.002767 0.000000 0.000000 0.000000
# 3 -0.004954 -0.002767 0.010713 0.000000 0.000000 0.000000
# 4 0.000000 0.000000 0.000000 0.024258 0.000000 0.000000
# 5 0.000000 0.000000 0.000000 0.000000 0.028345 0.000000
# 6 0.000000 0.000000 0.000000 0.000000 0.000000 0.024302
#
#
# Mechanical properties :
#
#
# Convention : Reuss Voigt Hill
#
# Bulk Modulus (GPa) = 103.70440 112.28302 107.99371
# Shear Modulus (GPa) = 37.48902 39.12657 38.30779
#
# Velocity S-wave (km/s) = 4.43504 4.53087 4.48321
# Velocity P-wave (km/s) = 8.97982 9.28891 9.13567
#
# Compressibility (1/GPa) = 0.00964279
#
# Stress axis : x y z
#
# Youngs Moduli (GPa) = 73.14420 141.58063 93.34284
#
# Poissons Ratio (x) = 0.45047 0.46240
# Poissons Ratio (y) = 0.23272 0.25829
# Poissons Ratio (z) = 0.36234 0.39177
#
# Static dielectric constant tensor:
#      x y z
#    x 1.648700 0.000000 0.000000 
#    y 0.000000 1.619760 0.000000 
#    z 0.000000 0.000000 1.633350 
# 
# From -- ./inp_files/6137.got.cif
#   From: 2010.05.17/outbox.cif.g08.bks.cpg/sg74_4_cif.got.tgz:6137.got - 2010.06.03 17:57:02.
