data_PCOD9540604
_publ_section_title
;
Structure prediction by ZEFSAII (Michael W. Deem and Ramdas Pophale) SiO2 
 PCOD9540604
Probable space group: I M M A
;
_chemical_formula_sum "Si O2"
_cell_formula_units_Z 52
_cell_length_a 18.893774
_cell_length_b 13.741169
_cell_length_c 9.513554
_cell_angle_alpha 90.000000
_cell_angle_beta 90.000000
_cell_angle_gamma 90.000000
_cell_volume 2469.933069
_symmetry_space_group_name_H-M "I M M A"
_symmetry_group_IT_number 74
_symmetry_cell_setting 'orthorhombic'
loop_
_space_group_symop_operation_xyz
x,y,z
-x,1/2-y,z
x,-y,-z
-x,1/2+y,-z
-x,-y,-z
x,1/2+y,-z
-x,y,z
x,1/2-y,z
1/2+x,1/2+y,1/2+z
1/2-x,-y,1/2+z
1/2+x,1/2-y,1/2-z
1/2-x,y,1/2-z
1/2-x,1/2-y,1/2-z
1/2+x,y,1/2-z
1/2-x,1/2+y,1/2+z
1/2+x,-y,1/2+z
loop_
_atom_site_type_symbol
_atom_site_label
_atom_site_fract_x
_atom_site_fract_y
_atom_site_fract_z
Si Si1 0.500000 0.250000 0.488370
Si Si2 0.000000 0.950255 0.146928
Si Si3 0.750000 0.905957 0.750000
Si Si4 0.844102 0.250000 0.080268
Si Si5 0.374545 0.538474 0.146106
Si Si6 0.666313 0.750000 0.242511
O O1 0.500000 0.338899 0.598608
O O2 0.428917 0.250000 0.390985
O O3 0.069003 0.979572 0.232441
O O4 0.000000 0.000000 0.000000
O O5 0.799196 0.840065 0.853581
O O6 0.696328 0.976018 0.831725
O O7 0.849166 0.250000 0.910198
O O8 0.358851 0.653387 0.161120
O O9 0.405050 0.500000 0.000000
O O10 0.750000 0.750000 0.250000
#
# Coordination Sequence:
#
# PCOD9540604 Si02
#       6
#     4   8   8   8  16   8
#     4  12  22  46  76 104 144 192 252 298 360 458
#     4  12  25  45  73 106 142 194 243 297 371 443
#     4  11  26  43  70 108 152 189 248 305 370 438
#     4  11  24  45  72 112 143 191 250 305 368 444
#     4  12  26  44  71 105 149 188 244 306 365 439
#     4  12  23  43  75  98 145 193 243 295 377 432
#
# _framework density 21.053203
#
# number of rings (size 3 to 8) (size 9 to 14) (size 15 to 20)
#    0.000    0.308    4.615    4.154    0.000    1.231 
#    0.000    1.538    0.000    0.000    0.000    0.000 
#    0.000    0.000    0.000    0.000    0.000    0.000 
#
# Total GULP energy -145200.921340 kJ/mol
# GULP energy per Si atom -5584.650821 kJ/mol
# Density = 2.100528 g / cm^3
# Si number density = 21.053203 Si / 1000 Ang^3
#
#
#
# Elastic Constant Matrix: (Units=GPa)
#
#
# Indices 1 2 3 4 5 6 
#
# 1 157.8442 47.9034 54.6428 0.0000 0.0000 0.0000
# 2 47.9034 149.7593 87.4909 0.0000 0.0000 0.0000
# 3 54.6428 87.4909 146.3908 0.0000 0.0000 0.0000
# 4 0.0000 0.0000 0.0000 31.7111 0.0000 0.0000
# 5 0.0000 0.0000 0.0000 0.0000 39.1883 0.0000
# 6 0.0000 0.0000 0.0000 0.0000 0.0000 23.3523
#
#
#
# Elastic Compliance Matrix: (Units=1/GPa)
#
#
# Indices 1 2 3 4 5 6 
#
# 1 0.007404 -0.001158 -0.002072 0.000000 0.000000 0.000000
# 2 -0.001158 0.010441 -0.005808 0.000000 0.000000 0.000000
# 3 -0.002072 -0.005808 0.011075 0.000000 0.000000 0.000000
# 4 0.000000 0.000000 0.000000 0.031535 0.000000 0.000000
# 5 0.000000 0.000000 0.000000 0.000000 0.025518 0.000000
# 6 0.000000 0.000000 0.000000 0.000000 0.000000 0.042822
#
#
# Mechanical properties :
#
#
# Convention : Reuss Voigt Hill
#
# Bulk Modulus (GPa) = 92.20522 92.67425 92.43973
# Shear Modulus (GPa) = 33.22607 36.44750 34.83678
#
# Velocity S-wave (km/s) = 3.97696 4.16529 4.07222
# Velocity P-wave (km/s) = 8.06100 8.20046 8.13103
#
# Compressibility (1/GPa) = 0.01084537
#
# Stress axis : x y z
#
# Youngs Moduli (GPa) = 135.06313 95.77904 90.29184
#
# Poissons Ratio (x) = 0.11092 0.18704
# Poissons Ratio (y) = 0.15642 0.52438
# Poissons Ratio (z) = 0.27978 0.55625
#
# Static dielectric constant tensor:
#      x y z
#    x 1.733270 0.000000 0.000000 
#    y 0.000000 1.680680 0.000000 
#    z 0.000000 0.000000 1.754010 
# 
# From -- ./inp_files/11622.got.cif
#   From: 2010.05.17/outbox.cif.g08.bks.cpg/sg74_6_cif.got.tgz:11622.got - 2010.06.03 17:57:02.
