data_PCOD9540420
_publ_section_title
;
Structure prediction by ZEFSAII (Michael W. Deem and Ramdas Pophale) SiO2 
 PCOD9540420
Probable space group: I M M A
;
_chemical_formula_sum "Si O2"
_cell_formula_units_Z 96
_cell_length_a 8.224951
_cell_length_b 30.261992
_cell_length_c 19.337318
_cell_angle_alpha 90.000000
_cell_angle_beta 90.000000
_cell_angle_gamma 90.000000
_cell_volume 4813.124223
_symmetry_space_group_name_H-M "I M M A"
_symmetry_group_IT_number 74
_symmetry_cell_setting 'orthorhombic'
loop_
_space_group_symop_operation_xyz
x,y,z
-x,1/2-y,z
x,-y,-z
-x,1/2+y,-z
-x,-y,-z
x,1/2+y,-z
-x,y,z
x,1/2-y,z
1/2+x,1/2+y,1/2+z
1/2-x,-y,1/2+z
1/2+x,1/2-y,1/2-z
1/2-x,y,1/2-z
1/2-x,1/2-y,1/2-z
1/2+x,y,1/2-z
1/2-x,1/2+y,1/2+z
1/2+x,-y,1/2+z
loop_
_atom_site_type_symbol
_atom_site_label
_atom_site_fract_x
_atom_site_fract_y
_atom_site_fract_z
Si Si1 0.804495 0.700066 0.177849
Si Si2 0.808085 0.483256 0.077388
Si Si3 0.311258 0.942020 0.171498
Si Si4 0.810436 0.615594 0.581982
Si Si5 0.808726 0.631272 0.068209
Si Si6 0.696523 0.299762 0.170451
O O1 0.741256 0.750000 0.176502
O O2 0.750000 0.678760 0.250000
O O3 0.752278 0.673587 0.111214
O O4 0.000000 0.700776 0.177877
O O5 0.714034 0.510651 0.135479
O O6 0.778960 0.431338 0.089259
O O7 0.000000 0.492827 0.083000
O O8 0.757472 0.500000 0.000000
O O9 0.500000 0.929415 0.170242
O O10 0.250000 0.941535 0.250000
O O11 0.214460 0.908917 0.121392
O O12 0.791344 0.625966 0.501073
O O13 0.747870 0.658050 0.625312
O O14 0.000000 0.609090 0.599644
O O15 0.000000 0.634667 0.050550
O O16 0.500000 0.299652 0.167385
O O17 0.751056 0.250000 0.148115
O O18 0.750000 0.305244 0.250000
#
# Coordination Sequence:
#
# PCOD9540420 Si02
#       6
#    16  16  16  16  16  16
#     4   9  19  35  54  77 108 147 191 239 289 342
#     4  11  23  41  64  88 120 159 201 251 306 363
#     4  12  25  41  63  89 120 156 200 247 298 358
#     4  11  23  38  61  91 122 159 200 245 301 363
#     4  11  22  37  57  84 118 155 198 245 295 353
#     4   9  20  40  64  91 124 161 203 252 307 367
#
# _framework density 19.945464999999999
#
# number of rings (size 3 to 8) (size 9 to 14) (size 15 to 20)
#    0.000    1.500    1.667    3.500    0.000    6.000 
#    0.000    1.667    0.000    0.000    0.000    0.000 
#    0.000    0.000    0.000    0.000    0.000    0.000 
#
# Total GULP energy -268066.164130 kJ/mol
# GULP energy per Si atom -5584.711753 kJ/mol
# Density = 1.990007 g / cm^3
# Si number density = 19.945465 Si / 1000 Ang^3
#
#
#
# Elastic Constant Matrix: (Units=GPa)
#
#
# Indices 1 2 3 4 5 6 
#
# 1 27.0016 -4.2160 -5.9785 0.0000 0.0000 0.0000
# 2 -4.2160 113.3577 44.5031 0.0000 0.0000 0.0000
# 3 -5.9785 44.5031 82.7083 0.0000 0.0000 0.0000
# 4 0.0000 0.0000 0.0000 35.8221 0.0000 0.0000
# 5 0.0000 0.0000 0.0000 0.0000 25.9167 0.0000
# 6 0.0000 0.0000 0.0000 0.0000 0.0000 8.9066
#
#
#
# Elastic Compliance Matrix: (Units=1/GPa)
#
#
# Indices 1 2 3 4 5 6 
#
# 1 0.037653 0.000421 0.002495 0.000000 0.000000 0.000000
# 2 0.000421 0.011189 -0.005990 0.000000 0.000000 0.000000
# 3 0.002495 -0.005990 0.015494 0.000000 0.000000 0.000000
# 4 0.000000 0.000000 0.000000 0.027916 0.000000 0.000000
# 5 0.000000 0.000000 0.000000 0.000000 0.038585 0.000000
# 6 0.000000 0.000000 0.000000 0.000000 0.000000 0.112277
#
#
# Mechanical properties :
#
#
# Convention : Reuss Voigt Hill
#
# Bulk Modulus (GPa) = 17.18565 32.40942 24.79754
# Shear Modulus (GPa) = 18.61106 26.71301 22.66203
#
# Velocity S-wave (km/s) = 3.05798 3.66362 3.37441
# Velocity P-wave (km/s) = 4.59384 5.84640 5.25755
#
# Compressibility (1/GPa) = 0.05818808
#
# Stress axis : x y z
#
# Youngs Moduli (GPa) = 26.55832 89.37427 64.54060
#
# Poissons Ratio (x) = -0.03761 -0.16105
# Poissons Ratio (y) = -0.01117 0.38660
# Poissons Ratio (z) = -0.06627 0.53535
#
# Static dielectric constant tensor:
#      x y z
#    x 1.693730 0.000000 0.000000 
#    y 0.000000 1.755820 0.000000 
#    z 0.000000 0.000000 1.667320 
# 
# From -- ./inp_files/49099.got.cif
#   From: 2010.05.17/outbox.cif.g08.bks.cpg/sg74_25_cif.got.tgz:49099.got - 2010.06.03 17:57:02.
