data_PCOD9540356
_publ_section_title
;
Structure prediction by ZEFSAII (Michael W. Deem and Ramdas Pophale) SiO2 
 PCOD9540356
Probable space group: I M M A
;
_chemical_formula_sum "Si O2"
_cell_formula_units_Z 88
_cell_length_a 14.672274
_cell_length_b 18.002905
_cell_length_c 17.915098
_cell_angle_alpha 90.000000
_cell_angle_beta 90.000000
_cell_angle_gamma 90.000000
_cell_volume 4732.157673
_symmetry_space_group_name_H-M "I M M A"
_symmetry_group_IT_number 74
_symmetry_cell_setting 'orthorhombic'
loop_
_space_group_symop_operation_xyz
x,y,z
-x,1/2-y,z
x,-y,-z
-x,1/2+y,-z
-x,-y,-z
x,1/2+y,-z
-x,y,z
x,1/2-y,z
1/2+x,1/2+y,1/2+z
1/2-x,-y,1/2+z
1/2+x,1/2-y,1/2-z
1/2-x,y,1/2-z
1/2-x,1/2-y,1/2-z
1/2+x,y,1/2-z
1/2-x,1/2+y,1/2+z
1/2+x,-y,1/2+z
loop_
_atom_site_type_symbol
_atom_site_label
_atom_site_fract_x
_atom_site_fract_y
_atom_site_fract_z
Si Si1 0.500000 0.332886 0.760050
Si Si2 0.000000 0.564133 0.856597
Si Si3 0.331689 0.083837 0.975765
Si Si4 0.500000 0.837042 0.958831
Si Si5 0.500000 0.440739 0.187169
Si Si6 0.163536 0.940348 0.306443
Si Si7 0.857879 0.087421 0.021278
Si Si8 0.500000 0.387553 0.600898
O O1 0.500000 0.250000 0.790513
O O2 0.592386 0.376205 0.782247
O O3 0.500000 0.334732 0.670658
O O4 0.000000 0.588802 0.771730
O O5 0.912969 0.592832 0.902402
O O6 0.000000 0.473197 0.866193
O O7 0.302311 0.078625 0.889489
O O8 0.414355 0.137493 0.991925
O O9 0.245780 0.110548 0.023703
O O10 0.358015 0.000000 0.000000
O O11 0.500000 0.750000 0.943992
O O12 0.500000 0.883970 0.881526
O O13 0.593169 0.490189 0.184815
O O14 0.250000 0.949856 0.250000
O O15 0.914306 0.122637 0.953653
O O16 0.856797 0.000000 0.000000
#
# Coordination Sequence:
#
# PCOD9540356 Si02
#       8
#     8   8  16   8   8  16  16   8
#     4  11  23  37  53  81 126 166 196 238 300 374
#     4   9  16  31  60  90 117 140 184 253 309 346
#     4  11  21  37  62  88 117 154 205 251 289 351
#     4  12  26  44  61  84 123 172 211 251 302 354
#     4  11  22  37  60  91 119 154 204 251 303 355
#     4  11  23  37  62  91 121 155 202 253 306 354
#     4   8  17  29  56  91 114 142 188 247 299 353
#     4   9  14  32  53  85 121 148 186 233 301 363
#
# _framework density 18.596167999999999
#
# number of rings (size 3 to 8) (size 9 to 14) (size 15 to 20)
#    0.000    1.818    3.636    3.545    5.091    1.818 
#    0.000    2.727    0.000    7.091    0.000    0.000 
#    0.000    0.000    0.000    0.000    0.000    0.000 
#
# Total GULP energy -245368.252619 kJ/mol
# GULP energy per Si atom -5576.551196 kJ/mol
# Density = 1.855384 g / cm^3
# Si number density = 18.596168 Si / 1000 Ang^3
#
#
#
# Elastic Constant Matrix: (Units=GPa)
#
#
# Indices 1 2 3 4 5 6 
#
# 1 127.2791 34.5119 23.0882 0.0000 0.0000 0.0000
# 2 34.5119 67.7055 20.2758 0.0000 0.0000 0.0000
# 3 23.0882 20.2758 106.5226 0.0000 0.0000 0.0000
# 4 0.0000 0.0000 0.0000 12.5202 0.0000 0.0000
# 5 0.0000 0.0000 0.0000 0.0000 4.0031 0.0000
# 6 0.0000 0.0000 0.0000 0.0000 0.0000 -22.3870
#
#
#
# Elastic Compliance Matrix: (Units=1/GPa)
#
#
# Indices 1 2 3 4 5 6 
#
# 1 0.009253 -0.004365 -0.001175 0.000000 0.000000 0.000000
# 2 -0.004365 0.017722 -0.002427 0.000000 0.000000 0.000000
# 3 -0.001175 -0.002427 0.010104 0.000000 0.000000 0.000000
# 4 0.000000 0.000000 0.000000 0.079871 0.000000 0.000000
# 5 0.000000 0.000000 0.000000 0.000000 0.249806 0.000000
# 6 0.000000 0.000000 0.000000 0.000000 0.000000 -0.044669
#
#
# Mechanical properties :
#
#
# Convention : Reuss Voigt Hill
#
# Bulk Modulus (GPa) = 47.29106 50.80654 49.04880
# Shear Modulus (GPa) = 14.48983 13.73602 14.11292
#
# Velocity S-wave (km/s) = 2.79441 2.72076 2.75783
# Velocity P-wave (km/s) = 5.99145 6.10330 6.04763
#
# Compressibility (1/GPa) = 0.02114565
#
# Stress axis : x y z
#
# Youngs Moduli (GPa) = 108.06808 56.42801 98.96781
#
# Poissons Ratio (x) = 0.24631 0.11627
# Poissons Ratio (y) = 0.47172 0.24021
# Poissons Ratio (z) = 0.12696 0.13696
#
# Static dielectric constant tensor:
#      x y z
#    x 1.720030 0.000000 0.000000 
#    y 0.000000 1.647950 0.000000 
#    z 0.000000 0.000000 1.655070 
# 
# From -- ./inp_files/42865.got.cif
#   From: 2010.05.17/outbox.cif.g08.bks.cpg/sg74_22_cif.got.tgz:42865.got - 2010.06.03 17:57:02.
