data_PCOD9540767
_publ_section_title
;
Structure prediction by ZEFSAII (Michael W. Deem and Ramdas Pophale) SiO2 
 PCOD9540767
Probable space group: I M M A
;
_chemical_formula_sum "Si O2"
_cell_formula_units_Z 96
_cell_length_a 30.986572
_cell_length_b 7.356898
_cell_length_c 19.634366
_cell_angle_alpha 90.000000
_cell_angle_beta 90.000000
_cell_angle_gamma 90.000000
_cell_volume 4475.949219
_symmetry_space_group_name_H-M "I M M A"
_symmetry_group_IT_number 74
_symmetry_cell_setting 'orthorhombic'
loop_
_space_group_symop_operation_xyz
x,y,z
-x,1/2-y,z
x,-y,-z
-x,1/2+y,-z
-x,-y,-z
x,1/2+y,-z
-x,y,z
x,1/2-y,z
1/2+x,1/2+y,1/2+z
1/2-x,-y,1/2+z
1/2+x,1/2-y,1/2-z
1/2-x,y,1/2-z
1/2-x,1/2-y,1/2-z
1/2+x,y,1/2-z
1/2-x,1/2+y,1/2+z
1/2+x,-y,1/2+z
loop_
_atom_site_type_symbol
_atom_site_label
_atom_site_fract_x
_atom_site_fract_y
_atom_site_fract_z
Si Si1 0.045131 0.971004 0.785306
Si Si2 0.950953 0.466802 0.419845
Si Si3 0.379736 0.970608 0.813122
Si Si4 0.202310 0.027975 0.227199
Si Si5 0.574434 0.966185 0.572998
Si Si6 0.172808 0.032661 0.076398
O O1 0.044902 0.750000 0.783022
O O2 0.087753 0.024028 0.746957
O O3 0.048714 0.032936 0.862540
O O4 0.000000 0.031527 0.754380
O O5 0.944986 0.500000 0.500000
O O6 0.952656 0.250000 0.407205
O O7 0.908399 0.531841 0.378497
O O8 0.000000 0.534710 0.403204
O O9 0.376646 0.750000 0.818606
O O10 0.333162 0.030093 0.784105
O O11 0.200708 0.250000 0.226387
O O12 0.250000 0.973486 0.250000
O O13 0.192707 0.969451 0.148713
O O14 0.577732 0.750000 0.581153
O O15 0.623495 0.037888 0.573677
O O16 0.554512 0.000000 0.500000
O O17 0.171524 0.250000 0.082143
O O18 0.191937 0.000000 0.000000
#
# Coordination Sequence:
#
# PCOD9540767 Si02
#       6
#    16  16  16  16  16  16
#     4   9  15  23  38  60  84 110 142 180 217 250
#     4   9  17  29  47  70  94 121 151 184 227 279
#     4   9  15  26  43  64  88 113 147 188 223 262
#     4   9  16  27  45  68  91 116 150 193 234 267
#     4   9  16  26  40  59  84 113 143 175 210 247
#     4   9  16  28  46  66  88 116 148 180 217 262
#
# _framework density 21.447963999999999
#
# number of rings (size 3 to 8) (size 9 to 14) (size 15 to 20)
#    0.000    3.000    1.667    0.500    0.000    2.333 
#    0.000    0.833    0.000    2.500    0.000    0.000 
#    0.000    0.000    0.000    0.000    0.000    0.000 
#
# Total GULP energy -267273.238071 kJ/mol
# GULP energy per Si atom -5568.192460 kJ/mol
# Density = 2.139915 g / cm^3
# Si number density = 21.447964 Si / 1000 Ang^3
#
#
#
# Elastic Constant Matrix: (Units=GPa)
#
#
# Indices 1 2 3 4 5 6 
#
# 1 175.5828 3.6000 88.4870 0.0000 0.0000 0.0000
# 2 3.6000 76.9033 -2.8815 0.0000 0.0000 0.0000
# 3 88.4870 -2.8815 171.7017 0.0000 0.0000 0.0000
# 4 0.0000 0.0000 0.0000 15.0668 0.0000 0.0000
# 5 0.0000 0.0000 0.0000 0.0000 31.0622 0.0000
# 6 0.0000 0.0000 0.0000 0.0000 0.0000 -12.2826
#
#
#
# Elastic Compliance Matrix: (Units=1/GPa)
#
#
# Indices 1 2 3 4 5 6 
#
# 1 0.007713 -0.000510 -0.003984 0.000000 0.000000 0.000000
# 2 -0.000510 0.013045 0.000482 0.000000 0.000000 0.000000
# 3 -0.003984 0.000482 0.007885 0.000000 0.000000 0.000000
# 4 0.000000 0.000000 0.000000 0.066371 0.000000 0.000000
# 5 0.000000 0.000000 0.000000 0.000000 0.032193 0.000000
# 6 0.000000 0.000000 0.000000 0.000000 0.000000 -0.081416
#
#
# Mechanical properties :
#
#
# Convention : Reuss Voigt Hill
#
# Bulk Modulus (GPa) = 48.49743 66.95540 57.72642
# Shear Modulus (GPa) = 82.38622 29.10144 55.74383
#
# Velocity S-wave (km/s) = 6.20448 3.68753 5.10360
# Velocity P-wave (km/s) = 8.60164 7.02964 7.85506
#
# Compressibility (1/GPa) = 0.02061965
#
# Stress axis : x y z
#
# Youngs Moduli (GPa) = 129.64438 76.65602 126.82065
#
# Poissons Ratio (x) = 0.03912 0.50521
# Poissons Ratio (y) = 0.06616 -0.06112
# Poissons Ratio (z) = 0.51646 -0.03694
#
# Static dielectric constant tensor:
#      x y z
#    x 1.743620 0.000000 0.000000 
#    y 0.000000 1.836620 0.000000 
#    z 0.000000 0.000000 1.808790 
# 
# From -- ./inp_files/41650.got.cif
#   From: 2010.05.17/outbox.cif.g08.bks.cpg/sg74_21_cif.got.tgz:41650.got - 2010.06.03 17:57:02.
