data_PCOD9540437
_publ_section_title
;
Structure prediction by ZEFSAII (Michael W. Deem and Ramdas Pophale) SiO2 
 PCOD9540437
Probable space group: I M M A
;
_chemical_formula_sum "Si O2"
_cell_formula_units_Z 84
_cell_length_a 14.589554
_cell_length_b 14.423343
_cell_length_c 20.582205
_cell_angle_alpha 90.000000
_cell_angle_beta 90.000000
_cell_angle_gamma 90.000000
_cell_volume 4331.116312
_symmetry_space_group_name_H-M "I M M A"
_symmetry_group_IT_number 74
_symmetry_cell_setting 'orthorhombic'
loop_
_space_group_symop_operation_xyz
x,y,z
-x,1/2-y,z
x,-y,-z
-x,1/2+y,-z
-x,-y,-z
x,1/2+y,-z
-x,y,z
x,1/2-y,z
1/2+x,1/2+y,1/2+z
1/2-x,-y,1/2+z
1/2+x,1/2-y,1/2-z
1/2-x,y,1/2-z
1/2-x,1/2-y,1/2-z
1/2+x,y,1/2-z
1/2-x,1/2+y,1/2+z
1/2+x,-y,1/2+z
loop_
_atom_site_type_symbol
_atom_site_label
_atom_site_fract_x
_atom_site_fract_y
_atom_site_fract_z
Si Si1 0.607203 0.646140 0.659368
Si Si2 0.639949 0.607932 0.508806
Si Si3 0.000000 0.137963 0.614673
Si Si4 0.200024 0.359974 0.574109
Si Si5 0.000000 0.361158 0.767932
Si Si6 0.000000 0.250000 0.953379
Si Si7 0.813248 0.048048 0.811022
O O1 0.500000 0.633664 0.676844
O O2 0.635303 0.750000 0.679102
O O3 0.613972 0.639286 0.581087
O O4 0.665763 0.561264 0.686171
O O5 0.619290 0.500000 0.500000
O O6 0.747058 0.624776 0.493400
O O7 0.579906 0.669606 0.460323
O O8 0.905354 0.108801 0.580563
O O9 0.000000 0.250000 0.613450
O O10 0.000000 0.112393 0.691269
O O11 0.203062 0.250000 0.589821
O O12 0.260240 0.417025 0.625661
O O13 0.909772 0.400811 0.801656
O O14 0.000000 0.250000 0.773635
O O15 0.750000 0.071462 0.750000
#
# Coordination Sequence:
#
# PCOD9540437 Si02
#       7
#    16  16   8  16   8   4  16
#     4  11  22  41  62  85 120 159 196 248 305 353
#     4  12  22  37  61  89 120 159 192 239 303 366
#     4   9  20  38  61  81 118 164 195 233 285 354
#     4  11  22  38  60  88 122 158 196 239 298 362
#     4  11  22  38  58  86 126 161 196 240 293 357
#     4  12  22  36  58  92 132 150 186 246 302 362
#     4  12  24  38  61  90 118 158 203 246 291 353
#
# _framework density 19.394538000000001
#
# number of rings (size 3 to 8) (size 9 to 14) (size 15 to 20)
#    0.000    0.762    7.619    0.857    0.000    1.905 
#    1.714    0.476    0.000    0.000    0.000    1.333 
#    0.000    0.000    0.000    0.000    0.000    0.000 
#
# Total GULP energy -234196.326074 kJ/mol
# GULP energy per Si atom -5576.103002 kJ/mol
# Density = 1.935040 g / cm^3
# Si number density = 19.394538 Si / 1000 Ang^3
#
#
#
# Elastic Constant Matrix: (Units=GPa)
#
#
# Indices 1 2 3 4 5 6 
#
# 1 148.5891 34.0485 12.8330 0.0000 0.0000 0.0000
# 2 34.0485 129.9505 -8.9413 0.0000 0.0000 0.0000
# 3 12.8330 -8.9413 15.7539 0.0000 0.0000 0.0000
# 4 0.0000 0.0000 0.0000 14.9509 0.0000 0.0000
# 5 0.0000 0.0000 0.0000 0.0000 21.5918 0.0000
# 6 0.0000 0.0000 0.0000 0.0000 0.0000 0.8898
#
#
#
# Elastic Compliance Matrix: (Units=1/GPa)
#
#
# Indices 1 2 3 4 5 6 
#
# 1 0.008035 -0.002659 -0.008055 0.000000 0.000000 0.000000
# 2 -0.002659 0.008888 0.007211 0.000000 0.000000 0.000000
# 3 -0.008055 0.007211 0.074130 0.000000 0.000000 0.000000
# 4 0.000000 0.000000 0.000000 0.066885 0.000000 0.000000
# 5 0.000000 0.000000 0.000000 0.000000 0.046314 0.000000
# 6 0.000000 0.000000 0.000000 0.000000 0.000000 1.123822
#
#
# Mechanical properties :
#
#
# Convention : Reuss Voigt Hill
#
# Bulk Modulus (GPa) = 11.89808 41.13046 26.51427
# Shear Modulus (GPa) = 3.66812 24.57673 14.12242
#
# Velocity S-wave (km/s) = 1.37674 3.56364 2.70138
# Velocity P-wave (km/s) = 2.94539 6.17948 4.84052
#
# Compressibility (1/GPa) = 0.08404718
#
# Stress axis : x y z
#
# Youngs Moduli (GPa) = 124.45508 112.50870 13.48975
#
# Poissons Ratio (x) = 0.29921 0.10866
# Poissons Ratio (y) = 0.33099 -0.09727
# Poissons Ratio (z) = 1.00245 -0.81130
#
# Static dielectric constant tensor:
#      x y z
#    x 1.684670 0.000000 0.000000 
#    y 0.000000 1.675460 0.000000 
#    z 0.000000 0.000000 1.695510 
# 
# From -- ./inp_files/58676.got.cif
#   From: 2010.05.17/outbox.cif.g08.bks.cpg/sg74_30_cif.got.tgz:58676.got - 2010.06.03 17:57:02.
