data_PCOD9540681
_publ_section_title
;
Structure prediction by ZEFSAII (Michael W. Deem and Ramdas Pophale) SiO2 
 PCOD9540681
Probable space group: I M M A
;
_chemical_formula_sum "Si O2"
_cell_formula_units_Z 96
_cell_length_a 7.244800
_cell_length_b 21.869144
_cell_length_c 32.022668
_cell_angle_alpha 90.000000
_cell_angle_beta 90.000000
_cell_angle_gamma 90.000000
_cell_volume 5073.593845
_symmetry_space_group_name_H-M "I M M A"
_symmetry_group_IT_number 74
_symmetry_cell_setting 'orthorhombic'
loop_
_space_group_symop_operation_xyz
x,y,z
-x,1/2-y,z
x,-y,-z
-x,1/2+y,-z
-x,-y,-z
x,1/2+y,-z
-x,y,z
x,1/2-y,z
1/2+x,1/2+y,1/2+z
1/2-x,-y,1/2+z
1/2+x,1/2-y,1/2-z
1/2-x,y,1/2-z
1/2-x,1/2-y,1/2-z
1/2+x,y,1/2-z
1/2-x,1/2+y,1/2+z
1/2+x,-y,1/2+z
loop_
_atom_site_type_symbol
_atom_site_label
_atom_site_fract_x
_atom_site_fract_y
_atom_site_fract_z
Si Si1 0.776925 0.348255 0.593567
Si Si2 0.775064 0.816399 0.498368
Si Si3 0.780754 0.450639 0.704302
Si Si4 0.725135 0.447168 0.033154
Si Si5 0.775462 0.315302 0.685930
Si Si6 0.223752 0.486414 0.614576
O O1 0.715938 0.320730 0.550024
O O2 0.722414 0.318099 0.637049
O O3 0.727361 0.419494 0.596854
O O4 0.000000 0.345241 0.593189
O O5 0.718817 0.750000 0.515537
O O6 0.715743 0.879205 0.520183
O O7 0.000000 0.817384 0.498858
O O8 0.750000 0.477960 0.750000
O O9 0.710301 0.380219 0.704002
O O10 0.713500 0.485908 0.662900
O O11 0.000000 0.445934 0.698798
O O12 0.500000 0.447516 0.032221
O O13 0.784475 0.465372 0.079890
O O14 0.780855 0.500000 0.000000
O O15 0.711923 0.250000 0.703345
O O16 0.000000 0.315549 0.688333
O O17 0.000000 0.489828 0.615220
#
# Coordination Sequence:
#
# PCOD9540681 Si02
#       6
#    16  16  16  16  16  16
#     4   8  11  16  25  38  58  85 116 143 166 198
#     4   9  14  16  21  37  61  88 116 142 167 201
#     4   9  17  27  38  51  68  89 117 152 185 215
#     4   9  13  18  28  41  61  90 118 141 169 209
#     4   8  13  20  30  44  63  89 118 146 178 213
#     4   8  13  21  32  45  61  86 117 144 171 208
#
# _framework density 18.921498
#
# number of rings (size 3 to 8) (size 9 to 14) (size 15 to 20)
#    0.000    3.500    1.667    2.500    0.000    2.333 
#    0.000    0.000    0.000    0.000    0.000    0.000 
#    0.000    1.333    0.000    0.500    0.000    3.667 
#
# Total GULP energy -267570.879848 kJ/mol
# GULP energy per Si atom -5574.393330 kJ/mol
# Density = 1.887843 g / cm^3
# Si number density = 18.921498 Si / 1000 Ang^3
#
#
#
# Elastic Constant Matrix: (Units=GPa)
#
#
# Indices 1 2 3 4 5 6 
#
# 1 86.3157 1.5828 0.8388 0.0000 0.0000 0.0000
# 2 1.5828 117.4824 79.2048 0.0000 0.0000 0.0000
# 3 0.8388 79.2048 150.0941 0.0000 0.0000 0.0000
# 4 0.0000 0.0000 0.0000 -3.7815 0.0000 0.0000
# 5 0.0000 0.0000 0.0000 0.0000 -2.2037 0.0000
# 6 0.0000 0.0000 0.0000 0.0000 0.0000 -5.8227
#
#
#
# Elastic Compliance Matrix: (Units=1/GPa)
#
#
# Indices 1 2 3 4 5 6 
#
# 1 0.011588 -0.000175 0.000027 0.000000 0.000000 0.000000
# 2 -0.000175 0.013215 -0.006973 0.000000 0.000000 0.000000
# 3 0.000027 -0.006973 0.010342 0.000000 0.000000 0.000000
# 4 0.000000 0.000000 0.000000 -0.264443 0.000000 0.000000
# 5 0.000000 0.000000 0.000000 0.000000 -0.453773 0.000000
# 6 0.000000 0.000000 0.000000 0.000000 0.000000 -0.171741
#
#
# Mechanical properties :
#
#
# Convention : Reuss Voigt Hill
#
# Bulk Modulus (GPa) = 47.83429 57.46058 52.64743
# Shear Modulus (GPa) = -5.99806 15.78945 4.89570
#
# Velocity S-wave (km/s) = -1.78237 2.89186 1.61028
# Velocity P-wave (km/s) = 4.59342 6.44858 5.59838
#
# Compressibility (1/GPa) = 0.02090551
#
# Stress axis : x y z
#
# Youngs Moduli (GPa) = 86.29381 75.67089 96.69487
#
# Poissons Ratio (x) = 0.01321 -0.00265
# Poissons Ratio (y) = 0.01506 0.67422
# Poissons Ratio (z) = -0.00236 0.52763
#
# Static dielectric constant tensor:
#      x y z
#    x 2.049040 0.000000 0.000000 
#    y 0.000000 1.647230 0.000000 
#    z 0.000000 0.000000 1.677250 
# 
# From -- ./inp_files/66431.got.cif
#   From: 2010.05.17/outbox.cif.g08.bks.cpg/sg74_34_cif.got.tgz:66431.got - 2010.06.03 17:57:02.
