data_PCOD9540107
_publ_section_title
;
Structure prediction by ZEFSAII (Michael W. Deem and Ramdas Pophale) SiO2 
 PCOD9540107
Probable space group: I M M A
;
_chemical_formula_sum "Si O2"
_cell_formula_units_Z 52
_cell_length_a 17.422252
_cell_length_b 15.186307
_cell_length_c 10.687176
_cell_angle_alpha 90.000000
_cell_angle_beta 90.000000
_cell_angle_gamma 90.000000
_cell_volume 2827.609473
_symmetry_space_group_name_H-M "I M M A"
_symmetry_group_IT_number 74
_symmetry_cell_setting 'orthorhombic'
loop_
_space_group_symop_operation_xyz
x,y,z
-x,1/2-y,z
x,-y,-z
-x,1/2+y,-z
-x,-y,-z
x,1/2+y,-z
-x,y,z
x,1/2-y,z
1/2+x,1/2+y,1/2+z
1/2-x,-y,1/2+z
1/2+x,1/2-y,1/2-z
1/2-x,y,1/2-z
1/2-x,1/2-y,1/2-z
1/2+x,y,1/2-z
1/2-x,1/2+y,1/2+z
1/2+x,-y,1/2+z
loop_
_atom_site_type_symbol
_atom_site_label
_atom_site_fract_x
_atom_site_fract_y
_atom_site_fract_z
Si Si1 0.183236 0.593068 0.567047
Si Si2 0.000000 0.394453 0.010302
Si Si3 0.912555 0.750000 0.447549
Si Si4 0.346632 0.147239 0.339320
Si Si5 0.000000 0.750000 0.202593
O O1 0.176722 0.500000 0.500000
O O2 0.133787 0.665344 0.493558
O O3 0.272297 0.621573 0.579351
O O4 0.154541 0.592522 0.710765
O O5 0.075889 0.367242 0.085582
O O6 0.000000 0.500000 0.000000
O O7 0.000000 0.336893 0.883279
O O8 0.928068 0.750000 0.298478
O O9 0.000000 0.750000 0.501387
O O10 0.339447 0.250000 0.303660
#
# Coordination Sequence:
#
# PCOD9540107 Si02
#       5
#    16   8   8  16   4
#     4  11  23  42  68  99 127 167 220 271 318 383
#     4  12  26  43  64  94 130 173 219 263 323 394
#     4  10  24  41  65  93 135 163 207 274 323 370
#     4  11  22  44  69  92 130 174 217 266 320 389
#     4  10  26  44  58  96 134 166 210 266 328 382
#
# _framework density 18.390094000000001
#
# number of rings (size 3 to 8) (size 9 to 14) (size 15 to 20)
#    0.462    0.615    4.615    1.846    6.462    0.615 
#    0.000    1.538    0.000    0.000    0.000    0.000 
#    0.000    0.000    0.000    0.000    0.000    0.000 
#
# Total GULP energy -145194.070375 kJ/mol
# GULP energy per Si atom -5584.387322 kJ/mol
# Density = 1.834824 g / cm^3
# Si number density = 18.390094 Si / 1000 Ang^3
#
#
#
# Elastic Constant Matrix: (Units=GPa)
#
#
# Indices 1 2 3 4 5 6 
#
# 1 152.1709 56.2968 94.6139 0.0000 0.0000 0.0000
# 2 56.2968 158.0004 77.0234 0.0000 0.0000 0.0000
# 3 94.6139 77.0234 125.1273 0.0000 0.0000 0.0000
# 4 0.0000 0.0000 0.0000 41.5367 0.0000 0.0000
# 5 0.0000 0.0000 0.0000 0.0000 10.8188 0.0000
# 6 0.0000 0.0000 0.0000 0.0000 0.0000 382.3856
#
#
#
# Elastic Compliance Matrix: (Units=1/GPa)
#
#
# Indices 1 2 3 4 5 6 
#
# 1 0.012408 0.000218 -0.009516 0.000000 0.000000 0.000000
# 2 0.000218 0.009046 -0.005734 0.000000 0.000000 0.000000
# 3 -0.009516 -0.005734 0.018717 0.000000 0.000000 0.000000
# 4 0.000000 0.000000 0.000000 0.024075 0.000000 0.000000
# 5 0.000000 0.000000 0.000000 0.000000 0.092432 0.000000
# 6 0.000000 0.000000 0.000000 0.000000 0.000000 0.002615
#
#
# Mechanical properties :
#
#
# Convention : Reuss Voigt Hill
#
# Bulk Modulus (GPa) = 98.93539 99.01852 98.97696
# Shear Modulus (GPa) = 25.94365 100.77253 63.35809
#
# Velocity S-wave (km/s) = 3.76006 7.41054 5.87598
# Velocity P-wave (km/s) = 8.53028 11.27749 9.99869
#
# Compressibility (1/GPa) = 0.01010761
#
# Stress axis : x y z
#
# Youngs Moduli (GPa) = 80.59525 110.54099 53.42797
#
# Poissons Ratio (x) = -0.02411 0.50843
# Poissons Ratio (y) = -0.01758 0.30633
# Poissons Ratio (z) = 0.76696 0.63379
#
# Static dielectric constant tensor:
#      x y z
#    x 1.620710 0.000000 0.000000 
#    y 0.000000 1.613070 0.000000 
#    z 0.000000 0.000000 1.625640 
# 
# From -- ./inp_files/11596.got.cif
#   From: 2010.05.17/outbox.cif.g08.bks.cpg/sg74_6_cif.got.tgz:11596.got - 2010.06.03 17:57:02.
