data_PCOD9540228
_publ_section_title
;
Structure prediction by ZEFSAII (Michael W. Deem and Ramdas Pophale) SiO2 
 PCOD9540228
Probable space group: I M M A
;
_chemical_formula_sum "Si O2"
_cell_formula_units_Z 80
_cell_length_a 23.603006
_cell_length_b 7.835668
_cell_length_c 25.848286
_cell_angle_alpha 90.000000
_cell_angle_beta 90.000000
_cell_angle_gamma 90.000000
_cell_volume 4780.519495
_symmetry_space_group_name_H-M "I M M A"
_symmetry_group_IT_number 74
_symmetry_cell_setting 'orthorhombic'
loop_
_space_group_symop_operation_xyz
x,y,z
-x,1/2-y,z
x,-y,-z
-x,1/2+y,-z
-x,-y,-z
x,1/2+y,-z
-x,y,z
x,1/2-y,z
1/2+x,1/2+y,1/2+z
1/2-x,-y,1/2+z
1/2+x,1/2-y,1/2-z
1/2-x,y,1/2-z
1/2-x,1/2-y,1/2-z
1/2+x,y,1/2-z
1/2-x,1/2+y,1/2+z
1/2+x,-y,1/2+z
loop_
_atom_site_type_symbol
_atom_site_label
_atom_site_fract_x
_atom_site_fract_y
_atom_site_fract_z
Si Si1 0.155086 0.955789 0.245862
Si Si2 0.890081 0.560059 0.056676
Si Si3 0.764420 0.052834 0.053311
Si Si4 0.434781 0.250000 0.258401
Si Si5 0.750634 0.453264 0.666254
Si Si6 0.063557 0.250000 0.118490
O O1 0.142991 0.750000 0.243173
O O2 0.199035 0.984513 0.293066
O O3 0.191655 0.005978 0.194404
O O4 0.101695 0.079515 0.254148
O O5 0.910283 0.750000 0.068389
O O6 0.821933 0.556369 0.054746
O O7 0.907366 0.419675 0.097715
O O8 0.910040 0.500000 0.000000
O O9 0.780617 0.250000 0.048235
O O10 0.737761 0.029322 0.109834
O O11 0.733230 0.000000 0.000000
O O12 0.500000 0.250000 0.238612
O O13 0.437959 0.250000 0.320349
O O14 0.746362 0.250000 0.660034
O O15 0.000000 0.250000 0.097409
#
# Coordination Sequence:
#
# PCOD9540228 Si02
#       6
#    16  16  16   8  16   8
#     4   9  20  36  56  79 105 136 174 221 267 308
#     4  11  20  36  52  67  93 130 173 211 256 310
#     4  11  20  30  48  74 106 140 164 198 246 310
#     4  11  24  37  53  75 103 136 181 223 263 316
#     4   9  18  33  53  81 106 135 175 213 260 321
#     4  11  24  38  49  71  93 121 174 230 271 299
#
# _framework density 16.734584000000002
#
# number of rings (size 3 to 8) (size 9 to 14) (size 15 to 20)
#    0.000    1.800    2.000    5.400    2.800    4.400 
#    0.000    2.000    0.000    0.000    0.000    0.000 
#    0.000    0.800    0.400    0.000    0.000    0.000 
#
# Total GULP energy -223034.044881 kJ/mol
# GULP energy per Si atom -5575.851122 kJ/mol
# Density = 1.669650 g / cm^3
# Si number density = 16.734584 Si / 1000 Ang^3
#
#
#
# Elastic Constant Matrix: (Units=GPa)
#
#
# Indices 1 2 3 4 5 6 
#
# 1 69.3964 39.9153 19.1679 0.0000 0.0000 0.0000
# 2 39.9153 110.9354 26.5117 0.0000 0.0000 0.0000
# 3 19.1679 26.5117 97.1991 0.0000 0.0000 0.0000
# 4 0.0000 0.0000 0.0000 29.1046 0.0000 0.0000
# 5 0.0000 0.0000 0.0000 0.0000 15.3408 0.0000
# 6 0.0000 0.0000 0.0000 0.0000 0.0000 -1.0700
#
#
#
# Elastic Compliance Matrix: (Units=1/GPa)
#
#
# Indices 1 2 3 4 5 6 
#
# 1 0.018514 -0.006192 -0.001962 0.000000 0.000000 0.000000
# 2 -0.006192 0.011714 -0.001974 0.000000 0.000000 0.000000
# 3 -0.001962 -0.001974 0.011213 0.000000 0.000000 0.000000
# 4 0.000000 0.000000 0.000000 0.034359 0.000000 0.000000
# 5 0.000000 0.000000 0.000000 0.000000 0.065185 0.000000
# 6 0.000000 0.000000 0.000000 0.000000 0.000000 -0.934592
#
#
# Mechanical properties :
#
#
# Convention : Reuss Voigt Hill
#
# Bulk Modulus (GPa) = 47.20413 49.85785 48.53099
# Shear Modulus (GPa) = -6.52496 21.47082 7.47293
#
# Velocity S-wave (km/s) = -1.97675 3.58581 2.11548
# Velocity P-wave (km/s) = 4.80195 6.85580 5.91865
#
# Compressibility (1/GPa) = 0.02118459
#
# Stress axis : x y z
#
# Youngs Moduli (GPa) = 54.01426 85.36733 89.17861
#
# Poissons Ratio (x) = 0.52863 0.17496
# Poissons Ratio (y) = 0.33448 0.17603
# Poissons Ratio (z) = 0.10597 0.16851
#
# Static dielectric constant tensor:
#      x y z
#    x 1.564760 0.000000 0.000000 
#    y 0.000000 1.653750 0.000000 
#    z 0.000000 0.000000 1.617370 
# 
# From -- ./inp_files/61854.got.cif
#   From: 2010.05.17/outbox.cif.g08.bks.cpg/sg74_31_cif.got.tgz:61854.got - 2010.06.03 17:57:02.
