data_PCOD9540779
_publ_section_title
;
Structure prediction by ZEFSAII (Michael W. Deem and Ramdas Pophale) SiO2 
 PCOD9540779
Probable space group: I M M A
;
_chemical_formula_sum "Si O2"
_cell_formula_units_Z 80
_cell_length_a 14.387877
_cell_length_b 18.714426
_cell_length_c 14.665670
_cell_angle_alpha 90.000000
_cell_angle_beta 90.000000
_cell_angle_gamma 90.000000
_cell_volume 3948.890908
_symmetry_space_group_name_H-M "I M M A"
_symmetry_group_IT_number 74
_symmetry_cell_setting 'orthorhombic'
loop_
_space_group_symop_operation_xyz
x,y,z
-x,1/2-y,z
x,-y,-z
-x,1/2+y,-z
-x,-y,-z
x,1/2+y,-z
-x,y,z
x,1/2-y,z
1/2+x,1/2+y,1/2+z
1/2-x,-y,1/2+z
1/2+x,1/2-y,1/2-z
1/2-x,y,1/2-z
1/2-x,1/2-y,1/2-z
1/2+x,y,1/2-z
1/2-x,1/2+y,1/2+z
1/2+x,-y,1/2+z
loop_
_atom_site_type_symbol
_atom_site_label
_atom_site_fract_x
_atom_site_fract_y
_atom_site_fract_z
Si Si1 0.888504 0.618469 0.354198
Si Si2 0.112880 0.674107 0.160797
Si Si3 0.887774 0.169249 0.444148
Si Si4 0.294840 0.473590 0.107025
Si Si5 0.603560 0.481627 0.605905
O O1 0.861165 0.664035 0.266399
O O2 0.862393 0.654816 0.449612
O O3 0.848558 0.538688 0.345365
O O4 0.000000 0.613244 0.354415
O O5 0.147726 0.750000 0.124808
O O6 0.138204 0.600364 0.112686
O O7 0.000000 0.675928 0.156070
O O8 0.860392 0.250000 0.418323
O O9 0.843089 0.103155 0.390228
O O10 0.000000 0.164403 0.437698
O O11 0.188665 0.471274 0.141224
O O12 0.294458 0.500000 0.000000
O O13 0.593809 0.500000 0.500000
O O14 0.500000 0.488139 0.647885
#
# Coordination Sequence:
#
# PCOD9540779 Si02
#       5
#    16  16  16  16  16
#     4   9  16  27  45  72 105 131 148 177 229 292
#     4   9  17  30  49  73  99 125 154 192 239 286
#     4   9  16  27  46  72 101 130 156 186 228 279
#     4   9  17  29  44  65  93 127 164 194 226 274
#     4   9  18  33  48  61  84 122 167 207 237 270
#
# _framework density 20.258852999999998
#
# number of rings (size 3 to 8) (size 9 to 14) (size 15 to 20)
#    0.000    3.000    0.000    1.200    0.000    5.600 
#    0.000   11.000    0.000    1.800    0.000    4.200 
#    0.000   12.800    0.000    0.000    0.000    0.000 
#
# Total GULP energy -223049.718129 kJ/mol
# GULP energy per Si atom -5576.242953 kJ/mol
# Density = 2.021274 g / cm^3
# Si number density = 20.258853 Si / 1000 Ang^3
#
#
#
# Elastic Constant Matrix: (Units=GPa)
#
#
# Indices 1 2 3 4 5 6 
#
# 1 77.0940 50.8643 -3.2549 0.0000 0.0000 0.0000
# 2 50.8643 171.1387 16.6233 0.0000 0.0000 0.0000
# 3 -3.2549 16.6233 19.3445 0.0000 0.0000 0.0000
# 4 0.0000 0.0000 0.0000 21.8625 0.0000 0.0000
# 5 0.0000 0.0000 0.0000 0.0000 -29.9392 0.0000
# 6 0.0000 0.0000 0.0000 0.0000 0.0000 59.0460
#
#
#
# Elastic Compliance Matrix: (Units=1/GPa)
#
#
# Indices 1 2 3 4 5 6 
#
# 1 0.017186 -0.005879 0.007944 0.000000 0.000000 0.000000
# 2 -0.005879 0.008387 -0.008196 0.000000 0.000000 0.000000
# 3 0.007944 -0.008196 0.060074 0.000000 0.000000 0.000000
# 4 0.000000 0.000000 0.000000 0.045741 0.000000 0.000000
# 5 0.000000 0.000000 0.000000 0.000000 -0.033401 0.000000
# 6 0.000000 0.000000 0.000000 0.000000 0.000000 0.016936
#
#
# Mechanical properties :
#
#
# Convention : Reuss Voigt Hill
#
# Bulk Modulus (GPa) = 13.62712 44.00474 28.81593
# Shear Modulus (GPa) = 32.97148 23.75015 28.36082
#
# Velocity S-wave (km/s) = 4.03862 3.42765 3.74561
# Velocity P-wave (km/s) = 5.33745 6.11829 5.74116
#
# Compressibility (1/GPa) = 0.07338307
#
# Stress axis : x y z
#
# Youngs Moduli (GPa) = 58.18828 119.23566 16.64612
#
# Poissons Ratio (x) = 0.70103 -0.13224
# Poissons Ratio (y) = 0.34211 0.13644
# Poissons Ratio (z) = -0.46224 0.97728
#
# Static dielectric constant tensor:
#      x y z
#    x 1.782830 0.000000 0.000000 
#    y 0.000000 1.706920 0.000000 
#    z 0.000000 0.000000 1.728180 
# 
# From -- ./inp_files/33982.got.cif
#   From: 2010.05.17/outbox.cif.g08.bks.cpg/sg74_17_cif.got.tgz:33982.got - 2010.06.03 17:57:02.
