data_PCOD9540328
_publ_section_title
;
Structure prediction by ZEFSAII (Michael W. Deem and Ramdas Pophale) SiO2 
 PCOD9540328
Probable space group: I M M A
;
_chemical_formula_sum "Si O2"
_cell_formula_units_Z 56
_cell_length_a 23.255909
_cell_length_b 8.378397
_cell_length_c 12.353912
_cell_angle_alpha 90.000000
_cell_angle_beta 90.000000
_cell_angle_gamma 90.000000
_cell_volume 2407.125634
_symmetry_space_group_name_H-M "I M M A"
_symmetry_group_IT_number 74
_symmetry_cell_setting 'orthorhombic'
loop_
_space_group_symop_operation_xyz
x,y,z
-x,1/2-y,z
x,-y,-z
-x,1/2+y,-z
-x,-y,-z
x,1/2+y,-z
-x,y,z
x,1/2-y,z
1/2+x,1/2+y,1/2+z
1/2-x,-y,1/2+z
1/2+x,1/2-y,1/2-z
1/2-x,y,1/2-z
1/2-x,1/2-y,1/2-z
1/2+x,y,1/2-z
1/2-x,1/2+y,1/2+z
1/2+x,-y,1/2+z
loop_
_atom_site_type_symbol
_atom_site_label
_atom_site_fract_x
_atom_site_fract_y
_atom_site_fract_z
Si Si1 0.000000 0.440379 0.878320
Si Si2 0.936449 0.440495 0.671696
Si Si3 0.300236 0.566491 0.386901
Si Si4 0.317789 0.068917 0.154649
O O1 0.946425 0.484373 0.799637
O O2 0.000000 0.250000 0.882857
O O3 0.000000 0.500000 0.000000
O O4 0.926480 0.250000 0.665717
O O5 0.882845 0.531184 0.622722
O O6 0.000000 0.474088 0.625160
O O7 0.322932 0.500000 0.500000
O O8 0.316696 0.750000 0.369584
O O9 0.316543 0.460490 0.284026
O O10 0.230517 0.550841 0.389144
O O11 0.301507 0.250000 0.128804
#
# Coordination Sequence:
#
# PCOD9540328 Si02
#       4
#     8  16  16  16
#     4   8  16  28  44  66  97 132 171 212 254 306
#     4   8  17  33  50  71 102 143 180 215 261 314
#     4  11  22  38  58  80 108 142 182 228 275 323
#     4  11  21  35  56  83 112 144 182 222 271 328
#
# _framework density 23.264261999999999
#
# number of rings (size 3 to 8) (size 9 to 14) (size 15 to 20)
#    0.857    1.429    0.000    6.857    0.000    2.857 
#    0.000    2.857    0.000    0.857    0.000    0.000 
#    0.000    0.000    0.000    0.000    0.000    0.000 
#
# Total GULP energy -156304.567222 kJ/mol
# GULP energy per Si atom -5582.305972 kJ/mol
# Density = 2.321131 g / cm^3
# Si number density = 23.264262 Si / 1000 Ang^3
#
#
#
# Elastic Constant Matrix: (Units=GPa)
#
#
# Indices 1 2 3 4 5 6 
#
# 1 82.3445 7.3334 -17.4598 0.0000 0.0000 0.0000
# 2 7.3334 74.1634 3.1109 0.0000 0.0000 0.0000
# 3 -17.4598 3.1109 112.5896 0.0000 0.0000 0.0000
# 4 0.0000 0.0000 0.0000 19.3078 0.0000 0.0000
# 5 0.0000 0.0000 0.0000 0.0000 -2.7704 0.0000
# 6 0.0000 0.0000 0.0000 0.0000 0.0000 9.6431
#
#
#
# Elastic Compliance Matrix: (Units=1/GPa)
#
#
# Indices 1 2 3 4 5 6 
#
# 1 0.012688 -0.001339 0.002005 0.000000 0.000000 0.000000
# 2 -0.001339 0.013641 -0.000585 0.000000 0.000000 0.000000
# 3 0.002005 -0.000585 0.009209 0.000000 0.000000 0.000000
# 4 0.000000 0.000000 0.000000 0.051792 0.000000 0.000000
# 5 0.000000 0.000000 0.000000 0.000000 -0.360961 0.000000
# 6 0.000000 0.000000 0.000000 0.000000 0.000000 0.103701
#
#
# Mechanical properties :
#
#
# Convention : Reuss Voigt Hill
#
# Bulk Modulus (GPa) = 28.01070 28.34072 28.17571
# Shear Modulus (GPa) = -31.60716 23.64363 -3.98176
#
# Velocity S-wave (km/s) = -3.68994 3.19142 -1.30968
# Velocity P-wave (km/s) = 2.46735 5.07826 3.13854
#
# Compressibility (1/GPa) = 0.03570064
#
# Stress axis : x y z
#
# Youngs Moduli (GPa) = 78.81225 73.31040 108.59137
#
# Poissons Ratio (x) = 0.09814 -0.21769
# Poissons Ratio (y) = 0.10551 0.06347
# Poissons Ratio (z) = -0.15799 0.04285
#
# Static dielectric constant tensor:
#      x y z
#    x 1.953550 0.000000 0.000000 
#    y 0.000000 1.790160 0.000000 
#    z 0.000000 0.000000 1.971770 
# 
# From -- ./inp_files/35913.got.cif
#   From: 2010.05.17/outbox.cif.g08.bks.cpg/sg74_18_cif.got.tgz:35913.got - 2010.06.03 17:57:02.
