data_PCOD9540240
_publ_section_title
;
Structure prediction by ZEFSAII (Michael W. Deem and Ramdas Pophale) SiO2 
 PCOD9540240
Probable space group: I M M A
;
_chemical_formula_sum "Si O2"
_cell_formula_units_Z 80
_cell_length_a 19.595773
_cell_length_b 13.729819
_cell_length_c 18.200446
_cell_angle_alpha 90.000000
_cell_angle_beta 90.000000
_cell_angle_gamma 90.000000
_cell_volume 4896.764774
_symmetry_space_group_name_H-M "I M M A"
_symmetry_group_IT_number 74
_symmetry_cell_setting 'orthorhombic'
loop_
_space_group_symop_operation_xyz
x,y,z
-x,1/2-y,z
x,-y,-z
-x,1/2+y,-z
-x,-y,-z
x,1/2+y,-z
-x,y,z
x,1/2-y,z
1/2+x,1/2+y,1/2+z
1/2-x,-y,1/2+z
1/2+x,1/2-y,1/2-z
1/2-x,y,1/2-z
1/2-x,1/2-y,1/2-z
1/2+x,y,1/2-z
1/2-x,1/2+y,1/2+z
1/2+x,-y,1/2+z
loop_
_atom_site_type_symbol
_atom_site_label
_atom_site_fract_x
_atom_site_fract_y
_atom_site_fract_z
Si Si1 0.329431 0.862917 0.879544
Si Si2 0.640385 0.362611 0.950382
Si Si3 0.325057 0.135404 0.713218
Si Si4 0.078556 0.474415 0.675774
Si Si5 0.222089 0.518242 0.081771
O O1 0.321632 0.750000 0.860023
O O2 0.378731 0.925365 0.827706
O O3 0.257635 0.920364 0.886743
O O4 0.362365 0.868150 0.961606
O O5 0.637227 0.250000 0.928474
O O6 0.586444 0.424699 0.904657
O O7 0.713509 0.408608 0.929274
O O8 0.332651 0.250000 0.697744
O O9 0.250000 0.121416 0.750000
O O10 0.381889 0.097444 0.769290
O O11 0.326022 0.069861 0.640163
O O12 0.000000 0.488306 0.694323
O O13 0.193908 0.500000 0.000000
#
# Coordination Sequence:
#
# PCOD9540240 Si02
#       5
#    16  16  16  16  16
#     4   9  18  31  48  70 100 139 176 203 236 294
#     4   9  16  28  47  72 101 134 169 203 244 296
#     4  11  20  33  55  78 101 131 167 206 254 302
#     4  11  22  33  46  71 106 137 169 210 252 294
#     4   9  17  31  51  75 101 127 164 211 253 295
#
# _framework density 16.337316999999999
#
# number of rings (size 3 to 8) (size 9 to 14) (size 15 to 20)
#    0.000    2.200    4.000    3.000    0.000    4.400 
#    0.000    4.000    0.000    0.600    0.000    0.000 
#    0.000    0.000    0.000    0.000    0.000    0.000 
#
# Total GULP energy -222994.842195 kJ/mol
# GULP energy per Si atom -5574.871055 kJ/mol
# Density = 1.630013 g / cm^3
# Si number density = 16.337317 Si / 1000 Ang^3
#
#
#
# Elastic Constant Matrix: (Units=GPa)
#
#
# Indices 1 2 3 4 5 6 
#
# 1 25.5479 11.9058 12.6807 0.0000 0.0000 0.0000
# 2 11.9058 129.0795 26.7250 0.0000 0.0000 0.0000
# 3 12.6807 26.7250 52.5688 0.0000 0.0000 0.0000
# 4 0.0000 0.0000 0.0000 27.7708 0.0000 0.0000
# 5 0.0000 0.0000 0.0000 0.0000 14.0617 0.0000
# 6 0.0000 0.0000 0.0000 0.0000 0.0000 3.9223
#
#
#
# Elastic Compliance Matrix: (Units=1/GPa)
#
#
# Indices 1 2 3 4 5 6 
#
# 1 0.044982 -0.002126 -0.009770 0.000000 0.000000 0.000000
# 2 -0.002126 0.008759 -0.003940 0.000000 0.000000 0.000000
# 3 -0.009770 -0.003940 0.023382 0.000000 0.000000 0.000000
# 4 0.000000 0.000000 0.000000 0.036009 0.000000 0.000000
# 5 0.000000 0.000000 0.000000 0.000000 0.071115 0.000000
# 6 0.000000 0.000000 0.000000 0.000000 0.000000 0.254953
#
#
# Mechanical properties :
#
#
# Convention : Reuss Voigt Hill
#
# Bulk Modulus (GPa) = 22.00140 34.42436 28.21288
# Shear Modulus (GPa) = 10.28757 19.54327 14.91542
#
# Velocity S-wave (km/s) = 2.51210 3.46242 3.02481
# Velocity P-wave (km/s) = 4.68085 6.09107 5.43192
#
# Compressibility (1/GPa) = 0.04545166
#
# Stress axis : x y z
#
# Youngs Moduli (GPa) = 22.23103 114.16784 42.76727
#
# Poissons Ratio (x) = 0.24275 0.41782
# Poissons Ratio (y) = 0.04727 0.16850
# Poissons Ratio (z) = 0.21719 0.44983
#
# Static dielectric constant tensor:
#      x y z
#    x 1.519830 0.000000 0.000000 
#    y 0.000000 1.569070 0.000000 
#    z 0.000000 0.000000 1.596830 
# 
# From -- ./inp_files/32127.got.cif
#   From: 2010.05.17/outbox.cif.g08.bks.cpg/sg74_17_cif.got.tgz:32127.got - 2010.06.03 17:57:02.
