data_PCOD9540376
_publ_section_title
;
Structure prediction by ZEFSAII (Michael W. Deem and Ramdas Pophale) SiO2 
 PCOD9540376
Probable space group: I M M A
;
_chemical_formula_sum "Si O2"
_cell_formula_units_Z 116
_cell_length_a 28.196187
_cell_length_b 22.941546
_cell_length_c 9.601364
_cell_angle_alpha 90.000000
_cell_angle_beta 90.000000
_cell_angle_gamma 90.000000
_cell_volume 6210.777885
_symmetry_space_group_name_H-M "I M M A"
_symmetry_group_IT_number 74
_symmetry_cell_setting 'orthorhombic'
loop_
_space_group_symop_operation_xyz
x,y,z
-x,1/2-y,z
x,-y,-z
-x,1/2+y,-z
-x,-y,-z
x,1/2+y,-z
-x,y,z
x,1/2-y,z
1/2+x,1/2+y,1/2+z
1/2-x,-y,1/2+z
1/2+x,1/2-y,1/2-z
1/2-x,y,1/2-z
1/2-x,1/2-y,1/2-z
1/2+x,y,1/2-z
1/2-x,1/2+y,1/2+z
1/2+x,-y,1/2+z
loop_
_atom_site_type_symbol
_atom_site_label
_atom_site_fract_x
_atom_site_fract_y
_atom_site_fract_z
Si Si1 0.649688 0.865860 0.535062
Si Si2 0.806132 0.961325 0.759227
Si Si3 0.444635 0.478847 0.159926
Si Si4 0.914586 0.344231 0.287991
Si Si5 0.162589 0.117918 0.482911
Si Si6 0.130387 0.066054 0.770605
Si Si7 0.753925 0.181729 0.913039
Si Si8 0.000000 0.250000 0.307457
O O1 0.673289 0.917847 0.625128
O O2 0.611784 0.837156 0.639205
O O3 0.623937 0.892462 0.401180
O O4 0.693999 0.829043 0.476477
O O5 0.750000 0.957474 0.750000
O O6 0.828941 0.938845 0.614107
O O7 0.822941 0.026324 0.791570
O O8 0.500000 0.487212 0.189220
O O9 0.431740 0.411413 0.188556
O O10 0.412075 0.520480 0.252778
O O11 0.436540 0.500000 0.000000
O O12 0.872500 0.338852 0.401365
O O13 0.958001 0.300861 0.305983
O O14 0.139027 0.100894 0.628520
O O15 0.213912 0.145861 0.506350
O O16 0.742780 0.250000 0.921744
O O17 0.750000 0.164615 0.750000
#
# Coordination Sequence:
#
# PCOD9540376 Si02
#       8
#    16  16  16  16  16  16  16   4
#     4  11  24  40  61  95 131 169 218 262 318 392
#     4  11  22  33  56  94 136 170 208 249 307 392
#     4  11  21  40  67  98 128 163 207 272 343 400
#     4  11  25  44  67  97 127 168 221 271 327 386
#     4  11  22  40  62  94 130 169 214 260 318 388
#     4  12  22  38  61  94 134 171 200 258 333 389
#     4  11  24  42  62  90 129 182 226 265 315 370
#     4  12  28  52  74  90 124 176 216 284 328 370
#
# _framework density 18.677209999999999
#
# number of rings (size 3 to 8) (size 9 to 14) (size 15 to 20)
#    0.000    0.828    7.586    0.828    3.862    1.103 
#    1.241    3.448    0.000    0.828    0.000    0.000 
#    0.000    0.000    0.000    0.000    0.000    0.000 
#
# Total GULP energy -323502.585850 kJ/mol
# GULP energy per Si atom -5577.630791 kJ/mol
# Density = 1.863470 g / cm^3
# Si number density = 18.677210 Si / 1000 Ang^3
#
#
#
# Elastic Constant Matrix: (Units=GPa)
#
#
# Indices 1 2 3 4 5 6 
#
# 1 112.8206 29.1052 8.5102 0.0000 0.0000 0.0000
# 2 29.1052 57.1954 7.6561 0.0000 0.0000 0.0000
# 3 8.5102 7.6561 57.1368 0.0000 0.0000 0.0000
# 4 0.0000 0.0000 0.0000 3.6626 0.0000 0.0000
# 5 0.0000 0.0000 0.0000 0.0000 14.8707 0.0000
# 6 0.0000 0.0000 0.0000 0.0000 0.0000 28.1707
#
#
#
# Elastic Compliance Matrix: (Units=1/GPa)
#
#
# Indices 1 2 3 4 5 6 
#
# 1 0.010243 -0.005100 -0.000842 0.000000 0.000000 0.000000
# 2 -0.005100 0.020342 -0.001966 0.000000 0.000000 0.000000
# 3 -0.000842 -0.001966 0.017891 0.000000 0.000000 0.000000
# 4 0.000000 0.000000 0.000000 0.273027 0.000000 0.000000
# 5 0.000000 0.000000 0.000000 0.000000 0.067246 0.000000
# 6 0.000000 0.000000 0.000000 0.000000 0.000000 0.035498
#
#
# Mechanical properties :
#
#
# Convention : Reuss Voigt Hill
#
# Bulk Modulus (GPa) = 30.61886 35.29954 32.95920
# Shear Modulus (GPa) = 11.08772 21.46622 16.27697
#
# Velocity S-wave (km/s) = 2.43914 3.39385 2.95530
# Velocity P-wave (km/s) = 4.93577 5.85649 5.41573
#
# Compressibility (1/GPa) = 0.03265960
#
# Stress axis : x y z
#
# Youngs Moduli (GPa) = 97.63030 49.15904 55.89474
#
# Poissons Ratio (x) = 0.25069 0.04708
# Poissons Ratio (y) = 0.49787 0.10990
# Poissons Ratio (z) = 0.08223 0.09666
#
# Static dielectric constant tensor:
#      x y z
#    x 1.700030 0.000000 0.000000 
#    y 0.000000 1.633000 0.000000 
#    z 0.000000 0.000000 1.663570 
# 
# From -- ./inp_files/16336.got.cif
#   From: 2010.05.17/outbox.cif.g08.bks.cpg/sg74_9_cif.got.tgz:16336.got - 2010.06.03 17:57:02.
