data_PCOD9540145
_publ_section_title
;
Structure prediction by ZEFSAII (Michael W. Deem and Ramdas Pophale) SiO2 
 PCOD9540145
Probable space group: I M M A
;
_chemical_formula_sum "Si O2"
_cell_formula_units_Z 88
_cell_length_a 14.127018
_cell_length_b 27.970255
_cell_length_c 11.720827
_cell_angle_alpha 90.000000
_cell_angle_beta 90.000000
_cell_angle_gamma 90.000000
_cell_volume 4631.324165
_symmetry_space_group_name_H-M "I M M A"
_symmetry_group_IT_number 74
_symmetry_cell_setting 'orthorhombic'
loop_
_space_group_symop_operation_xyz
x,y,z
-x,1/2-y,z
x,-y,-z
-x,1/2+y,-z
-x,-y,-z
x,1/2+y,-z
-x,y,z
x,1/2-y,z
1/2+x,1/2+y,1/2+z
1/2-x,-y,1/2+z
1/2+x,1/2-y,1/2-z
1/2-x,y,1/2-z
1/2-x,1/2-y,1/2-z
1/2+x,y,1/2-z
1/2-x,1/2+y,1/2+z
1/2+x,-y,1/2+z
loop_
_atom_site_type_symbol
_atom_site_label
_atom_site_fract_x
_atom_site_fract_y
_atom_site_fract_z
Si Si1 0.894302 0.846635 0.568300
Si Si2 0.137371 0.569672 0.749350
Si Si3 0.393386 0.024251 0.883888
Si Si4 0.265974 0.114662 0.871279
Si Si5 0.371332 0.750000 0.792524
Si Si6 0.394054 0.444367 0.507057
O O1 0.892613 0.890897 0.657384
O O2 0.817619 0.855520 0.469877
O O3 0.874168 0.798785 0.638874
O O4 0.000000 0.843940 0.518485
O O5 0.250000 0.570253 0.750000
O O6 0.106542 0.517428 0.708326
O O7 0.104712 0.576020 0.878396
O O8 0.500000 0.039946 0.909631
O O9 0.333411 0.069198 0.847874
O O10 0.355392 0.000000 0.000000
O O11 0.250000 0.139744 0.750000
O O12 0.172288 0.090111 0.921156
O O13 0.500000 0.750000 0.747820
O O14 0.250000 0.750000 0.750000
O O15 0.361649 0.500000 0.500000
O O16 0.500000 0.445575 0.554786
#
# Coordination Sequence:
#
# PCOD9540145 Si02
#       6
#    16  16  16  16   8  16
#     4  11  23  42  67  95 124 160 212 267 334 405
#     4  12  20  35  60  86 121 159 202 259 317 380
#     4  11  20  32  53  84 120 161 211 258 306 369
#     4  12  24  38  57  84 121 170 213 258 306 373
#     4  10  24  46  75 108 136 168 211 279 352 416
#     4  11  23  37  52  80 122 167 210 257 312 368
#
# _framework density 19.001045000000001
#
# number of rings (size 3 to 8) (size 9 to 14) (size 15 to 20)
#    0.000    0.727    3.636    6.000    0.000    2.909 
#    0.000    0.455    0.000    0.000    0.000    0.000 
#    0.000    0.000    0.000    0.000    0.000    0.000 
#
# Total GULP energy -245095.051229 kJ/mol
# GULP energy per Si atom -5570.342073 kJ/mol
# Density = 1.895780 g / cm^3
# Si number density = 19.001045 Si / 1000 Ang^3
#
#
#
# Elastic Constant Matrix: (Units=GPa)
#
#
# Indices 1 2 3 4 5 6 
#
# 1 134.6931 12.5109 20.2306 0.0000 0.0000 0.0000
# 2 12.5109 55.0172 4.2097 -0.0002 0.0000 -0.0001
# 3 20.2306 4.2097 90.1333 -0.0002 0.0001 -0.0002
# 4 0.0000 -0.0002 -0.0002 16.5582 0.0000 -0.0001
# 5 0.0000 0.0000 0.0001 0.0000 30.6599 0.0000
# 6 0.0000 -0.0001 -0.0002 -0.0001 0.0000 45.4959
#
#
#
# Elastic Compliance Matrix: (Units=1/GPa)
#
#
# Indices 1 2 3 4 5 6 
#
# 1 0.007830 -0.001652 -0.001680 0.000000 0.000000 0.000000
# 2 -0.001652 0.018590 -0.000497 0.000000 0.000000 0.000000
# 3 -0.001680 -0.000497 0.011495 0.000000 0.000000 0.000000
# 4 0.000000 0.000000 0.000000 0.060393 0.000000 0.000000
# 5 0.000000 0.000000 0.000000 0.000000 0.032616 0.000000
# 6 0.000000 0.000000 0.000000 0.000000 0.000000 0.021980
#
#
# Mechanical properties :
#
#
# Convention : Reuss Voigt Hill
#
# Bulk Modulus (GPa) = 33.05185 39.30511 36.17848
# Shear Modulus (GPa) = 29.29999 34.73563 32.01781
#
# Velocity S-wave (km/s) = 3.93112 4.28026 4.10940
# Velocity P-wave (km/s) = 6.16745 6.71998 6.44963
#
# Compressibility (1/GPa) = 0.03025549
#
# Stress axis : x y z
#
# Youngs Moduli (GPa) = 127.71213 53.79277 86.99381
#
# Poissons Ratio (x) = 0.08887 0.14618
# Poissons Ratio (y) = 0.21098 0.04328
# Poissons Ratio (z) = 0.21460 0.02676
#
# Static dielectric constant tensor:
#      x y z
#    x 1.359460 0.000000 0.000000 
#    y 0.000000 1.617110 0.000000 
#    z 0.000000 0.000000 1.725730 
# 
# From -- ./inp_files/20631.got.cif
#   From: 2010.05.17/outbox.cif.g08.bks.cpg/sg74_11_cif.got.tgz:20631.got - 2010.06.03 17:57:02.
