data_PCOD9540723
_publ_section_title
;
Structure prediction by ZEFSAII (Michael W. Deem and Ramdas Pophale) SiO2 
 PCOD9540723
Probable space group: I M M A
;
_chemical_formula_sum "Si O2"
_cell_formula_units_Z 80
_cell_length_a 14.832072
_cell_length_b 9.291901
_cell_length_c 31.177776
_cell_angle_alpha 90.000000
_cell_angle_beta 90.000000
_cell_angle_gamma 90.000000
_cell_volume 4296.863243
_symmetry_space_group_name_H-M "I M M A"
_symmetry_group_IT_number 74
_symmetry_cell_setting 'orthorhombic'
loop_
_space_group_symop_operation_xyz
x,y,z
-x,1/2-y,z
x,-y,-z
-x,1/2+y,-z
-x,-y,-z
x,1/2+y,-z
-x,y,z
x,1/2-y,z
1/2+x,1/2+y,1/2+z
1/2-x,-y,1/2+z
1/2+x,1/2-y,1/2-z
1/2-x,y,1/2-z
1/2-x,1/2-y,1/2-z
1/2+x,y,1/2-z
1/2-x,1/2+y,1/2+z
1/2+x,-y,1/2+z
loop_
_atom_site_type_symbol
_atom_site_label
_atom_site_fract_x
_atom_site_fract_y
_atom_site_fract_z
Si Si1 0.389676 0.914422 0.958378
Si Si2 0.754297 0.574733 0.798817
Si Si3 0.103141 0.925744 0.635436
Si Si4 0.392781 0.579601 0.629123
Si Si5 0.889831 0.584700 0.042613
O O1 0.500000 0.913491 0.958006
O O2 0.359251 0.750000 0.961718
O O3 0.364109 0.973933 0.911646
O O4 0.360140 0.000000 0.000000
O O5 0.754353 0.750000 0.797023
O O6 0.750000 0.522556 0.750000
O O7 0.667578 0.529604 0.826325
O O8 0.839825 0.534333 0.828085
O O9 0.103578 0.750000 0.633681
O O10 0.000000 0.970699 0.641905
O O11 0.500000 0.561204 0.634662
O O12 0.375286 0.750000 0.622130
O O13 0.363687 0.494530 0.586594
O O14 0.860013 0.750000 0.041698
O O15 0.000000 0.584440 0.042165
O O16 0.860860 0.500000 0.000000
#
# Coordination Sequence:
#
# PCOD9540723 Si02
#       5
#    16  16  16  16  16
#     4   8  13  22  38  60  84 110 138 168 206 252
#     4   9  17  28  43  64  89 118 154 196 238 277
#     4   8  14  25  41  61  86 115 146 182 225 270
#     4   9  17  29  45  67  96 126 155 191 235 281
#     4   9  16  27  46  71  97 126 159 192 228 274
#
# _framework density 18.618234000000001
#
# number of rings (size 3 to 8) (size 9 to 14) (size 15 to 20)
#    0.000    3.400    0.000    1.800    0.000    3.200 
#    0.000    5.000    0.000    4.200    0.000    0.000 
#    0.000    6.400    0.000    0.000    0.000    0.000 
#
# Total GULP energy -222920.970298 kJ/mol
# GULP energy per Si atom -5573.024257 kJ/mol
# Density = 1.857586 g / cm^3
# Si number density = 18.618234 Si / 1000 Ang^3
#
#
#
# Elastic Constant Matrix: (Units=GPa)
#
#
# Indices 1 2 3 4 5 6 
#
# 1 61.5927 28.0493 66.9446 0.0000 0.0000 0.0000
# 2 28.0493 42.0702 61.5939 0.0000 0.0000 0.0000
# 3 66.9446 61.5939 236.0335 0.0000 0.0000 0.0000
# 4 0.0000 0.0000 0.0000 22.6406 0.0000 0.0000
# 5 0.0000 0.0000 0.0000 0.0000 36.2691 0.0000
# 6 0.0000 0.0000 0.0000 0.0000 0.0000 4.4410
#
#
#
# Elastic Compliance Matrix: (Units=1/GPa)
#
#
# Indices 1 2 3 4 5 6 
#
# 1 0.026110 -0.010626 -0.004633 0.000000 0.000000 0.000000
# 2 -0.010626 0.042790 -0.008153 0.000000 0.000000 0.000000
# 3 -0.004633 -0.008153 0.007678 0.000000 0.000000 0.000000
# 4 0.000000 0.000000 0.000000 0.044168 0.000000 0.000000
# 5 0.000000 0.000000 0.000000 0.000000 0.027572 0.000000
# 6 0.000000 0.000000 0.000000 0.000000 0.000000 0.225174
#
#
# Mechanical properties :
#
#
# Convention : Reuss Voigt Hill
#
# Bulk Modulus (GPa) = 33.60624 72.54134 53.07379
# Shear Modulus (GPa) = 11.62164 24.87737 18.24951
#
# Velocity S-wave (km/s) = 2.50112 3.65935 3.13420
# Velocity P-wave (km/s) = 5.14103 7.54331 6.45491
#
# Compressibility (1/GPa) = 0.02975638
#
# Stress axis : x y z
#
# Youngs Moduli (GPa) = 38.30003 23.36985 130.24174
#
# Poissons Ratio (x) = 0.24832 0.60335
# Poissons Ratio (y) = 0.40696 1.06181
# Poissons Ratio (z) = 0.17743 0.19052
#
# Static dielectric constant tensor:
#      x y z
#    x 1.687560 0.000000 0.000000 
#    y 0.000000 1.630870 0.000000 
#    z 0.000000 0.000000 1.631440 
# 
# From -- ./inp_files/66886.got.cif
#   From: 2010.05.17/outbox.cif.g08.bks.cpg/sg74_34_cif.got.tgz:66886.got - 2010.06.03 17:57:02.
