data_PCOD9540194
_publ_section_title
;
Structure prediction by ZEFSAII (Michael W. Deem and Ramdas Pophale) SiO2 
 PCOD9540194
Probable space group: I M M A
;
_chemical_formula_sum "Si O2"
_cell_formula_units_Z 100
_cell_length_a 7.839731
_cell_length_b 24.792868
_cell_length_c 20.538118
_cell_angle_alpha 90.000000
_cell_angle_beta 90.000000
_cell_angle_gamma 90.000000
_cell_volume 3991.981998
_symmetry_space_group_name_H-M "I M M A"
_symmetry_group_IT_number 74
_symmetry_cell_setting 'orthorhombic'
loop_
_space_group_symop_operation_xyz
x,y,z
-x,1/2-y,z
x,-y,-z
-x,1/2+y,-z
-x,-y,-z
x,1/2+y,-z
-x,y,z
x,1/2-y,z
1/2+x,1/2+y,1/2+z
1/2-x,-y,1/2+z
1/2+x,1/2-y,1/2-z
1/2-x,y,1/2-z
1/2-x,1/2-y,1/2-z
1/2+x,y,1/2-z
1/2-x,1/2+y,1/2+z
1/2+x,-y,1/2+z
loop_
_atom_site_type_symbol
_atom_site_label
_atom_site_fract_x
_atom_site_fract_y
_atom_site_fract_z
Si Si1 0.000000 0.250000 0.586852
Si Si2 0.812345 0.807826 0.141478
Si Si3 0.796703 0.151164 0.320218
Si Si4 0.304814 0.923926 0.491551
Si Si5 0.293244 0.535789 0.866858
Si Si6 0.209104 0.691411 0.542462
Si Si7 0.693757 0.422243 0.846219
O O1 0.149683 0.296673 0.596412
O O2 0.812817 0.750000 0.180295
O O3 0.785120 0.866472 0.172753
O O4 0.000000 0.810348 0.110608
O O5 0.750000 0.172130 0.250000
O O6 0.729624 0.090332 0.332413
O O7 0.746528 0.186864 0.381313
O O8 0.000000 0.147001 0.323522
O O9 0.500000 0.936634 0.475041
O O10 0.252297 0.957167 0.556211
O O11 0.287697 0.861758 0.512744
O O12 0.197363 0.926440 0.425466
O O13 0.500000 0.534020 0.864283
O O14 0.229286 0.481285 0.832100
O O15 0.264803 0.750000 0.519069
O O16 0.000000 0.690413 0.535950
O O17 0.500000 0.418816 0.822689
#
# Coordination Sequence:
#
# PCOD9540194 Si02
#       7
#     4  16  16  16  16  16  16
#     4   8  14  32  44  62  94 132 160 204 246 294
#     4   9  17  29  45  67  94 125 166 208 240 289
#     4   9  18  34  54  77 101 128 164 212 271 323
#     4  11  22  32  45  69 100 129 162 211 260 307
#     4   9  20  36  52  69  94 129 170 207 247 312
#     4   9  19  37  55  71  95 133 178 217 255 312
#     4  11  19  32  51  69  94 135 176 210 255 306
#
# _framework density 25.050214
#
# number of rings (size 3 to 8) (size 9 to 14) (size 15 to 20)
#    0.480    1.920    0.800    3.360    0.000    7.040 
#    0.000    0.000    0.000    0.000    0.000    0.000 
#    0.000    0.640    0.000    2.720    0.000    5.440 
#
# Total GULP energy -278627.160732 kJ/mol
# GULP energy per Si atom -5572.543215 kJ/mol
# Density = 2.499320 g / cm^3
# Si number density = 25.050214 Si / 1000 Ang^3
#
#
#
# Elastic Constant Matrix: (Units=GPa)
#
#
# Indices 1 2 3 4 5 6 
#
# 1 98.2294 30.6867 1.7785 0.0000 0.0000 0.0000
# 2 30.6867 176.9836 -6.1297 0.0000 0.0000 0.0000
# 3 1.7785 -6.1297 71.9687 0.0000 0.0000 0.0000
# 4 0.0000 0.0000 0.0000 -6.8488 0.0000 0.0000
# 5 0.0000 0.0000 0.0000 0.0000 0.7689 0.0000
# 6 0.0000 0.0000 0.0000 0.0000 0.0000 13.2154
#
#
#
# Elastic Compliance Matrix: (Units=1/GPa)
#
#
# Indices 1 2 3 4 5 6 
#
# 1 0.010776 -0.001883 -0.000427 0.000000 0.000000 0.000000
# 2 -0.001883 0.005996 0.000557 0.000000 0.000000 0.000000
# 3 -0.000427 0.000557 0.013953 0.000000 0.000000 0.000000
# 4 0.000000 0.000000 0.000000 -0.146010 0.000000 0.000000
# 5 0.000000 0.000000 0.000000 0.000000 1.300558 0.000000
# 6 0.000000 0.000000 0.000000 0.000000 0.000000 0.075669
#
#
# Mechanical properties :
#
#
# Convention : Reuss Voigt Hill
#
# Bulk Modulus (GPa) = 36.73789 44.42810 40.58300
# Shear Modulus (GPa) = 3.92612 22.81684 13.37148
#
# Velocity S-wave (km/s) = 1.25328 3.02129 2.31289
# Velocity P-wave (km/s) = 4.09778 5.47221 4.83409
#
# Compressibility (1/GPa) = 0.02721985
#
# Stress axis : x y z
#
# Youngs Moduli (GPa) = 92.79622 166.77588 71.66948
#
# Poissons Ratio (x) = 0.31408 0.03058
# Poissons Ratio (y) = 0.17476 -0.03994
# Poissons Ratio (z) = 0.03960 -0.09293
#
# Static dielectric constant tensor:
#      x y z
#    x 1.987050 0.000000 0.000000 
#    y 0.000000 2.022450 0.000000 
#    z 0.000000 0.000000 2.044830 
# 
# From -- ./inp_files/49326.got.cif
#   From: 2010.05.17/outbox.cif.g08.bks.cpg/sg74_25_cif.got.tgz:49326.got - 2010.06.03 17:57:02.
