data_PCOD9540675
_publ_section_title
;
Structure prediction by ZEFSAII (Michael W. Deem and Ramdas Pophale) SiO2 
 PCOD9540675
Probable space group: I M M A
;
_chemical_formula_sum "Si O2"
_cell_formula_units_Z 64
_cell_length_a 22.935924
_cell_length_b 14.415439
_cell_length_c 7.073633
_cell_angle_alpha 90.000000
_cell_angle_beta 90.000000
_cell_angle_gamma 90.000000
_cell_volume 2338.765276
_symmetry_space_group_name_H-M "I M M A"
_symmetry_group_IT_number 74
_symmetry_cell_setting 'orthorhombic'
loop_
_space_group_symop_operation_xyz
x,y,z
-x,1/2-y,z
x,-y,-z
-x,1/2+y,-z
-x,-y,-z
x,1/2+y,-z
-x,y,z
x,1/2-y,z
1/2+x,1/2+y,1/2+z
1/2-x,-y,1/2+z
1/2+x,1/2-y,1/2-z
1/2-x,y,1/2-z
1/2-x,1/2-y,1/2-z
1/2+x,y,1/2-z
1/2-x,1/2+y,1/2+z
1/2+x,-y,1/2+z
loop_
_atom_site_type_symbol
_atom_site_label
_atom_site_fract_x
_atom_site_fract_y
_atom_site_fract_z
Si Si1 0.061910 0.893128 0.555718
Si Si2 0.062595 0.860858 0.008910
Si Si3 0.187916 0.363561 0.000956
Si Si4 0.189516 0.142060 0.438736
O O1 0.062868 0.875190 0.781379
O O2 0.124596 0.861674 0.481060
O O3 0.000000 0.851901 0.489499
O O4 0.060302 0.000000 0.500000
O O5 0.061670 0.750000 0.041597
O O6 0.125512 0.897800 0.077446
O O7 0.000000 0.899562 0.078279
O O8 0.184554 0.250000 0.980337
O O9 0.186705 0.392078 0.223113
O O10 0.253915 0.393669 0.949797
O O11 0.202136 0.250000 0.416824
#
# Coordination Sequence:
#
# PCOD9540675 Si02
#       4
#    16  16  16  16
#     4   9  15  19  22  31  49  72  94 110 121 137
#     4   8  12  18  28  40  54  72  89 102 121 151
#     4   7  10  16  26  39  50  61  81 106 128 149
#     4   8  12  18  27  36  47  65  87 108 128 148
#
# _framework density 27.364865999999999
#
# number of rings (size 3 to 8) (size 9 to 14) (size 15 to 20)
#    0.000    4.000    0.000    3.750    0.000    1.500 
#    0.000    0.000    0.000    0.000    0.000    0.000 
#    0.000    1.000    0.000   72.750    0.000   63.000 
#
# Total GULP energy -178293.791835 kJ/mol
# GULP energy per Si atom -5571.680995 kJ/mol
# Density = 2.730258 g / cm^3
# Si number density = 27.364866 Si / 1000 Ang^3
#
#
#
# Elastic Constant Matrix: (Units=GPa)
#
#
# Indices 1 2 3 4 5 6 
#
# 1 387.3842 -12.8823 -1.3997 0.0000 0.0000 0.0000
# 2 -12.8823 77.8085 -29.2063 0.0000 0.0000 0.0000
# 3 -1.3997 -29.2063 126.5817 0.0000 0.0000 0.0000
# 4 0.0000 0.0000 0.0000 -1.0455 0.0000 0.0000
# 5 0.0000 0.0000 0.0000 0.0000 -60.0050 0.0000
# 6 0.0000 0.0000 0.0000 0.0000 0.0000 29.1174
#
#
#
# Elastic Compliance Matrix: (Units=1/GPa)
#
#
# Indices 1 2 3 4 5 6 
#
# 1 0.002598 0.000483 0.000140 0.000000 0.000000 0.000000
# 2 0.000483 0.014160 0.003273 0.000000 0.000000 0.000000
# 3 0.000140 0.003273 0.008657 0.000000 0.000000 0.000000
# 4 0.000000 0.000000 0.000000 -0.956460 0.000000 0.000000
# 5 0.000000 0.000000 0.000000 0.000000 -0.016665 0.000000
# 6 0.000000 0.000000 0.000000 0.000000 0.000000 0.034344
#
#
# Mechanical properties :
#
#
# Convention : Reuss Voigt Hill
#
# Bulk Modulus (GPa) = 30.11517 56.08863 43.10190
# Shear Modulus (GPa) = -5.49397 35.96422 15.23513
#
# Velocity S-wave (km/s) = -1.41846 3.62919 2.36209
# Velocity P-wave (km/s) = 2.88898 6.17272 4.81916
#
# Compressibility (1/GPa) = 0.03320586
#
# Stress axis : x y z
#
# Youngs Moduli (GPa) = 384.91505 70.61952 115.51784
#
# Poissons Ratio (x) = -0.03409 -0.01618
# Poissons Ratio (y) = -0.18581 -0.37804
# Poissons Ratio (z) = -0.05393 -0.23111
#
# Static dielectric constant tensor:
#      x y z
#    x 2.264240 0.000000 0.000000 
#    y 0.000000 2.408700 0.000000 
#    z 0.000000 0.000000 2.061060 
# 
# From -- ./inp_files/10576.got.cif
#   From: 2010.05.17/outbox.cif.g08.bks.cpg/sg74_6_cif.got.tgz:10576.got - 2010.06.03 17:57:02.
