data_PCOD9540726
_publ_section_title
;
Structure prediction by ZEFSAII (Michael W. Deem and Ramdas Pophale) SiO2 
 PCOD9540726
Probable space group: I M M A
;
_chemical_formula_sum "Si O2"
_cell_formula_units_Z 112
_cell_length_a 26.687992
_cell_length_b 18.100388
_cell_length_c 9.981760
_cell_angle_alpha 90.000000
_cell_angle_beta 90.000000
_cell_angle_gamma 90.000000
_cell_volume 4821.819032
_symmetry_space_group_name_H-M "I M M A"
_symmetry_group_IT_number 74
_symmetry_cell_setting 'orthorhombic'
loop_
_space_group_symop_operation_xyz
x,y,z
-x,1/2-y,z
x,-y,-z
-x,1/2+y,-z
-x,-y,-z
x,1/2+y,-z
-x,y,z
x,1/2-y,z
1/2+x,1/2+y,1/2+z
1/2-x,-y,1/2+z
1/2+x,1/2-y,1/2-z
1/2-x,y,1/2-z
1/2-x,1/2-y,1/2-z
1/2+x,y,1/2-z
1/2-x,1/2+y,1/2+z
1/2+x,-y,1/2+z
loop_
_atom_site_type_symbol
_atom_site_label
_atom_site_fract_x
_atom_site_fract_y
_atom_site_fract_z
Si Si1 0.346894 0.464017 0.849049
Si Si2 0.056895 0.658989 0.992677
Si Si3 0.719924 0.336966 0.936083
Si Si4 0.191900 0.114603 0.271681
Si Si5 0.166489 0.834556 0.013000
Si Si6 0.059482 0.668096 0.688488
Si Si7 0.554854 0.079997 0.935112
O O1 0.335296 0.535661 0.762852
O O2 0.402277 0.432020 0.828236
O O3 0.342947 0.500000 0.000000
O O4 0.309385 0.395204 0.844384
O O5 0.056532 0.750000 0.993803
O O6 0.111218 0.635090 0.050757
O O7 0.061451 0.635027 0.836364
O O8 0.000000 0.637337 0.039041
O O9 0.717387 0.250000 0.899055
O O10 0.694033 0.346187 0.083344
O O11 0.778288 0.362222 0.944385
O O12 0.250000 0.097885 0.250000
O O13 0.171149 0.162533 0.149497
O O14 0.165826 0.750000 0.058372
O O15 0.080757 0.750000 0.692477
O O16 0.078064 0.626618 0.557701
O O17 0.000000 0.672609 0.662505
O O18 0.500000 0.107319 0.890676
O O19 0.547768 0.000000 0.000000
#
# Coordination Sequence:
#
# PCOD9540726 Si02
#       7
#    16  16  16  16  16  16  16
#     4   9  18  28  39  56  78 105 135 166 201 240
#     4   8  14  22  33  53  80 107 132 157 191 235
#     4   9  17  28  41  59  80 103 133 168 202 234
#     4   9  17  29  42  57  79 104 134 167 203 242
#     4   9  16  25  40  60  82 107 135 166 198 234
#     4   8  14  23  33  46  67 100 135 158 180 219
#     4   9  17  26  34  48  73 102 131 162 192 225
#
# _framework density 23.227748999999999
#
# number of rings (size 3 to 8) (size 9 to 14) (size 15 to 20)
#    0.000    3.286    0.000    1.286    6.000    2.286 
#    0.000    0.000    0.000    0.429    0.000    0.000 
#    0.000   15.429    0.000    0.429    0.000    1.286 
#
# Total GULP energy -311779.973712 kJ/mol
# GULP energy per Si atom -5567.499531 kJ/mol
# Density = 2.317488 g / cm^3
# Si number density = 23.227749 Si / 1000 Ang^3
#
#
#
# Elastic Constant Matrix: (Units=GPa)
#
#
# Indices 1 2 3 4 5 6 
#
# 1 219.1216 34.1323 11.7574 0.0000 0.0000 0.0000
# 2 34.1323 62.2267 21.0378 0.0000 0.0000 0.0000
# 3 11.7574 21.0378 48.6369 0.0000 0.0000 0.0000
# 4 0.0000 0.0000 0.0000 0.1040 0.0000 0.0000
# 5 0.0000 0.0000 0.0000 0.0000 -0.3025 0.0000
# 6 0.0000 0.0000 0.0000 0.0000 0.0000 27.7599
#
#
#
# Elastic Compliance Matrix: (Units=1/GPa)
#
#
# Indices 1 2 3 4 5 6 
#
# 1 0.004990 -0.002728 -0.000026 0.000000 0.000000 0.000000
# 2 -0.002728 0.020315 -0.008128 0.000000 0.000000 0.000000
# 3 -0.000026 -0.008128 0.024082 0.000000 0.000000 0.000000
# 4 0.000000 0.000000 0.000000 9.613703 0.000000 0.000000
# 5 0.000000 0.000000 0.000000 0.000000 -3.305993 0.000000
# 6 0.000000 0.000000 0.000000 0.000000 0.000000 0.036023
#
#
# Mechanical properties :
#
#
# Convention : Reuss Voigt Hill
#
# Bulk Modulus (GPa) = 36.20158 51.53781 43.86970
# Shear Modulus (GPa) = 0.77832 23.04947 11.91389
#
# Velocity S-wave (km/s) = 0.57949 3.15354 2.26722
# Velocity P-wave (km/s) = 4.00837 5.95785 5.07755
#
# Compressibility (1/GPa) = 0.02762310
#
# Stress axis : x y z
#
# Youngs Moduli (GPa) = 200.39833 49.22580 41.52409
#
# Poissons Ratio (x) = 0.13430 0.00109
# Poissons Ratio (y) = 0.54674 0.33749
# Poissons Ratio (z) = 0.00525 0.40008
#
# Static dielectric constant tensor:
#      x y z
#    x 1.978310 0.000000 0.000000 
#    y 0.000000 1.843730 0.000000 
#    z 0.000000 0.000000 1.923850 
# 
# From -- ./inp_files/26466.got.cif
#   From: 2010.05.17/outbox.cif.g08.bks.cpg/sg74_14_cif.got.tgz:26466.got - 2010.06.03 17:57:02.
