data_PCOD9540857
_publ_section_title
;
Structure prediction by ZEFSAII (Michael W. Deem and Ramdas Pophale) SiO2 
 PCOD9540857
Probable space group: I M M A
;
_chemical_formula_sum "Si O2"
_cell_formula_units_Z 52
_cell_length_a 21.000000
_cell_length_b 9.000000
_cell_length_c 30.000000
_cell_angle_alpha 90.000000
_cell_angle_beta 90.000000
_cell_angle_gamma 90.000000
_cell_volume 5670.000000
_symmetry_space_group_name_H-M "I M M A"
_symmetry_group_IT_number 74
_symmetry_cell_setting 'orthorhombic'
loop_
_space_group_symop_operation_xyz
x,y,z
-x,1/2-y,z
x,-y,-z
-x,1/2+y,-z
-x,-y,-z
x,1/2+y,-z
-x,y,z
x,1/2-y,z
1/2+x,1/2+y,1/2+z
1/2-x,-y,1/2+z
1/2+x,1/2-y,1/2-z
1/2-x,y,1/2-z
1/2-x,1/2-y,1/2-z
1/2+x,y,1/2-z
1/2-x,1/2+y,1/2+z
1/2+x,-y,1/2+z
loop_
_atom_site_type_symbol
_atom_site_label
_atom_site_fract_x
_atom_site_fract_y
_atom_site_fract_z
Si Si1 0.190325 0.079281 0.678668
Si Si2 0.068860 0.075130 0.726332
Si Si3 0.305871 0.924411 0.639752
Si Si4 0.637549 0.078931 0.921842
Si Si5 0.757138 0.925671 0.955760
Si Si6 0.071620 0.081079 0.833181
Si Si7 0.000000 0.571836 0.451537
O O1 0.201811 0.250000 0.692361
O O2 0.134632 0.009487 0.708569
O O3 0.160445 0.076987 0.629088
O O4 0.257586 0.999173 0.674578
O O5 0.069390 0.250000 0.712307
O O6 0.069903 0.073396 0.779588
O O7 0.000000 0.013155 0.711398
O O8 0.294416 0.750000 0.640710
O O9 0.289784 0.978815 0.589871
O O10 0.377523 0.965931 0.649945
O O11 0.644251 0.250000 0.937752
O O12 0.564670 0.031808 0.926253
O O13 0.683923 0.974168 0.949540
O O14 0.762499 0.750000 0.959100
O O15 0.783522 0.000000 0.000000
O O16 0.090784 0.250000 0.845067
O O17 0.000000 0.055304 0.849418
O O18 0.000000 0.500000 0.500000
O O19 0.000000 0.750000 0.455951
#
# Coordination Sequence:
#
# PCOD9540857 Si02
#       7
#    16  16  16  16  16  16   8
#     4   9  17  30  50  73  98 131 170 211 250 288
#     4   8  15  28  49  76 102 131 171 215 252 285
#     4  10  21  35  51  74 104 133 162 200 247 299
#     4   9  18  30  45  67  94 126 164 205 248 293
#     4  10  20  34  52  72  95 124 160 201 244 292
#     4   9  18  34  55  78 102 129 164 204 245 293
#     4  10  20  30  40  60  88 120 162 206 248 294
#
# _framework density 9.1710759999999993
#
# number of rings (size 3 to 8) (size 9 to 14) (size 15 to 20)
#    0.000    2.769    0.000    2.308    1.077    4.615 
#    0.000    3.846    0.000    1.846    0.000    0.000 
#    0.000    0.000    0.000    0.000    0.000    0.000 
#
# Total GULP energy -289627.559643 kJ/mol
# GULP energy per Si atom -5569.760762 kJ/mol
# Density = 0.915020 g / cm^3
# Si number density = 9.171076 Si / 1000 Ang^3
#
#
#
# Elastic Constant Matrix: (Units=GPa)
#
#
# Indices 1 2 3 4 5 6 
#
# 1 47.0989 18.6333 12.8767 0.0000 0.0000 0.0000
# 2 18.6333 10.3537 10.4083 0.0000 0.0000 0.0000
# 3 12.8767 10.4083 13.7490 0.0000 0.0000 0.0000
# 4 0.0000 0.0000 0.0000 11.9346 0.0000 0.0000
# 5 0.0000 0.0000 0.0000 0.0000 36.2135 0.0000
# 6 0.0000 0.0000 0.0000 0.0000 0.0000 1.6019
#
#
#
# Elastic Compliance Matrix: (Units=1/GPa)
#
#
# Indices 1 2 3 4 5 6 
#
# 1 0.319292 -1.146578 0.568956 0.000000 0.000000 0.000000
# 2 -1.146578 4.521505 -2.349070 0.000000 0.000000 0.000000
# 3 0.568956 -2.349070 1.318185 0.000000 0.000000 0.000000
# 4 0.000000 0.000000 0.000000 0.083790 0.000000 0.000000
# 5 0.000000 0.000000 0.000000 0.000000 0.027614 0.000000
# 6 0.000000 0.000000 0.000000 0.000000 0.000000 0.624244
#
#
# Mechanical properties :
#
#
# Convention : Reuss Voigt Hill
#
# Bulk Modulus (GPa) = 3.27227 17.22647 10.24937
# Shear Modulus (GPa) = 0.38911 11.90224 6.14567
#
# Velocity S-wave (km/s) = 0.46109 2.55012 1.83244
# Velocity P-wave (km/s) = 1.43922 4.25240 3.17445
#
# Compressibility (1/GPa) = 0.30559800
#
# Stress axis : x y z
#
# Youngs Moduli (GPa) = 3.13192 0.22117 0.75862
#
# Poissons Ratio (x) = 0.25358 -0.43162
# Poissons Ratio (y) = 3.59100 1.78205
# Poissons Ratio (z) = -1.78193 0.51953
#
# Static dielectric constant tensor:
#      x y z
#    x 1.676600 0.000000 0.000000 
#    y 0.000000 1.627780 0.000000 
#    z 0.000000 0.000000 1.643060 
# 
# From -- ./inp_files/73336.got.cif
#   From: 2010.05.17/outbox.ucp.g08.bks.cvg/sg74_37_cif.got.tgz:73336.got - 2010.06.11 16:37:44.
