data_PCOD9540341
_publ_section_title
;
Structure prediction by ZEFSAII (Michael W. Deem and Ramdas Pophale) SiO2 
 PCOD9540341
Probable space group: I M M A
;
_chemical_formula_sum "Si O2"
_cell_formula_units_Z 116
_cell_length_a 7.710450
_cell_length_b 24.697121
_cell_length_c 29.998259
_cell_angle_alpha 90.000000
_cell_angle_beta 90.000000
_cell_angle_gamma 90.000000
_cell_volume 5712.445967
_symmetry_space_group_name_H-M "I M M A"
_symmetry_group_IT_number 74
_symmetry_cell_setting 'orthorhombic'
loop_
_space_group_symop_operation_xyz
x,y,z
-x,1/2-y,z
x,-y,-z
-x,1/2+y,-z
-x,-y,-z
x,1/2+y,-z
-x,y,z
x,1/2-y,z
1/2+x,1/2+y,1/2+z
1/2-x,-y,1/2+z
1/2+x,1/2-y,1/2-z
1/2-x,y,1/2-z
1/2-x,1/2-y,1/2-z
1/2+x,y,1/2-z
1/2-x,1/2+y,1/2+z
1/2+x,-y,1/2+z
loop_
_atom_site_type_symbol
_atom_site_label
_atom_site_fract_x
_atom_site_fract_y
_atom_site_fract_z
Si Si1 0.208421 0.100380 0.200054
Si Si2 0.809399 0.169276 0.564642
Si Si3 0.793037 0.558264 0.106669
Si Si4 0.000000 0.750000 0.087536
Si Si5 0.291830 0.023198 0.700432
Si Si6 0.206829 0.464060 0.457564
Si Si7 0.800217 0.840914 0.965549
Si Si8 0.787857 0.690412 0.868496
O O1 0.250000 0.119577 0.250000
O O2 0.275142 0.038730 0.196316
O O3 0.273901 0.141769 0.162810
O O4 0.000000 0.098008 0.195637
O O5 0.788611 0.106251 0.577975
O O6 0.653006 0.203081 0.585196
O O7 0.794183 0.173818 0.511084
O O8 0.000000 0.187032 0.578967
O O9 0.731820 0.557424 0.157973
O O10 0.751067 0.500027 0.085290
O O11 0.000000 0.565448 0.105146
O O12 0.500000 0.020730 0.697172
O O13 0.250000 0.043270 0.750000
O O14 0.261506 0.500000 0.500000
O O15 0.293615 0.405675 0.459006
O O16 0.000000 0.455792 0.460099
O O17 0.731002 0.816522 0.919597
O O18 0.000000 0.823275 0.971458
O O19 0.739131 0.750000 0.851809
O O20 0.000000 0.687847 0.869395
#
# Coordination Sequence:
#
# PCOD9540341 Si02
#       8
#    16  16  16   4  16  16  16  16
#     4   9  17  33  53  78 108 150 196 244 305 367
#     4  12  25  42  65  93 122 161 210 258 302 365
#     4  11  21  38  61  90 125 163 204 247 306 375
#     4  12  26  48  64  88 122 168 210 248 318 350
#     4   9  19  34  57  87 122 155 194 238 299 375
#     4  11  22  34  52  82 119 159 202 249 302 372
#     4  11  21  36  58  82 116 159 206 254 318 371
#     4   9  19  33  53  76 104 148 205 256 305 364
#
# _framework density 20.306536999999999
#
# number of rings (size 3 to 8) (size 9 to 14) (size 15 to 20)
#    0.000    1.655    2.759    2.276    0.966    4.138 
#    0.000    4.138    0.000    1.655    0.000    0.483 
#    0.000    0.000    0.000    0.000    0.000    0.000 
#
# Total GULP energy -323614.951080 kJ/mol
# GULP energy per Si atom -5579.568122 kJ/mol
# Density = 2.026032 g / cm^3
# Si number density = 20.306537 Si / 1000 Ang^3
#
#
#
# Elastic Constant Matrix: (Units=GPa)
#
#
# Indices 1 2 3 4 5 6 
#
# 1 84.3039 6.1480 1.4897 0.0000 0.0000 0.0000
# 2 6.1480 38.6485 -8.6601 0.0000 0.0000 0.0000
# 3 1.4897 -8.6601 88.3967 0.0000 0.0000 0.0000
# 4 0.0000 0.0000 0.0000 19.6348 0.0000 0.0000
# 5 0.0000 0.0000 0.0000 0.0000 17.6846 0.0000
# 6 0.0000 0.0000 0.0000 0.0000 0.0000 -12.5308
#
#
#
# Elastic Compliance Matrix: (Units=1/GPa)
#
#
# Indices 1 2 3 4 5 6 
#
# 1 0.012015 -0.002001 -0.000398 0.000000 0.000000 0.000000
# 2 -0.002001 0.026788 0.002658 0.000000 0.000000 0.000000
# 3 -0.000398 0.002658 0.011580 0.000000 0.000000 0.000000
# 4 0.000000 0.000000 0.000000 0.050930 0.000000 0.000000
# 5 0.000000 0.000000 0.000000 0.000000 0.056547 0.000000
# 6 0.000000 0.000000 0.000000 0.000000 0.000000 -0.079803
#
#
# Mechanical properties :
#
#
# Convention : Reuss Voigt Hill
#
# Bulk Modulus (GPa) = 19.64604 23.25603 21.45103
# Shear Modulus (GPa) = 52.90749 19.11581 36.01165
#
# Velocity S-wave (km/s) = 5.10989 3.07149 4.21575
# Velocity P-wave (km/s) = 6.67161 4.90470 5.85519
#
# Compressibility (1/GPa) = 0.05090085
#
# Stress axis : x y z
#
# Youngs Moduli (GPa) = 83.23079 37.33001 86.35756
#
# Poissons Ratio (x) = 0.07468 0.03441
# Poissons Ratio (y) = 0.16651 -0.22955
# Poissons Ratio (z) = 0.03317 -0.09923
#
# Static dielectric constant tensor:
#      x y z
#    x 1.742170 0.000000 0.000000 
#    y 0.000000 1.716510 0.000000 
#    z 0.000000 0.000000 1.722010 
# 
# From -- ./inp_files/64871.got.cif
#   From: 2010.05.17/outbox.cif.g08.bks.cpg/sg74_33_cif.got.tgz:64871.got - 2010.06.03 17:57:02.
