data_PCOD9540347
_publ_section_title
;
Structure prediction by ZEFSAII (Michael W. Deem and Ramdas Pophale) SiO2 
 PCOD9540347
Probable space group: I M M A
;
_chemical_formula_sum "Si O2"
_cell_formula_units_Z 112
_cell_length_a 15.843788
_cell_length_b 28.598861
_cell_length_c 12.087447
_cell_angle_alpha 90.000000
_cell_angle_beta 90.000000
_cell_angle_gamma 90.000000
_cell_volume 5476.994974
_symmetry_space_group_name_H-M "I M M A"
_symmetry_group_IT_number 74
_symmetry_cell_setting 'orthorhombic'
loop_
_space_group_symop_operation_xyz
x,y,z
-x,1/2-y,z
x,-y,-z
-x,1/2+y,-z
-x,-y,-z
x,1/2+y,-z
-x,y,z
x,1/2-y,z
1/2+x,1/2+y,1/2+z
1/2-x,-y,1/2+z
1/2+x,1/2-y,1/2-z
1/2-x,y,1/2-z
1/2-x,1/2-y,1/2-z
1/2+x,y,1/2-z
1/2-x,1/2+y,1/2+z
1/2+x,-y,1/2+z
loop_
_atom_site_type_symbol
_atom_site_label
_atom_site_fract_x
_atom_site_fract_y
_atom_site_fract_z
Si Si1 0.351793 0.167470 0.746384
Si Si2 0.253232 0.855252 0.879149
Si Si3 0.406161 0.932925 0.183766
Si Si4 0.907847 0.542365 0.087806
Si Si5 0.263937 0.556160 0.004421
Si Si6 0.403534 0.695781 0.010618
Si Si7 0.598560 0.804784 0.498684
O O1 0.250000 0.164189 0.750000
O O2 0.393267 0.116354 0.755554
O O3 0.381681 0.192433 0.858958
O O4 0.381140 0.190253 0.632122
O O5 0.250000 0.844263 0.750000
O O6 0.266985 0.911109 0.897745
O O7 0.167512 0.835433 0.935347
O O8 0.332536 0.831821 0.942540
O O9 0.500000 0.937296 0.138375
O O10 0.395966 0.970686 0.282802
O O11 0.338669 0.933051 0.088034
O O12 0.000000 0.565273 0.080284
O O13 0.910071 0.500000 0.000000
O O14 0.825351 0.570694 0.057265
O O15 0.264150 0.500000 0.000000
O O16 0.500000 0.678408 0.994484
O O17 0.400515 0.750000 0.977628
O O18 0.500000 0.817533 0.518281
O O19 0.609181 0.750000 0.528797
#
# Coordination Sequence:
#
# PCOD9540347 Si02
#       7
#    16  16  16  16  16  16  16
#     4  12  21  36  66 103 137 173 217 274 342 409
#     4  12  27  46  67  95 133 182 233 286 336 402
#     4  11  21  36  61  91 130 173 215 273 340 403
#     4   9  19  35  58  89 123 159 206 264 331 402
#     4  11  24  42  65  91 124 170 227 283 335 395
#     4  11  24  43  69 100 137 181 226 276 342 419
#     4  11  24  42  67 102 139 173 217 278 346 413
#
# _framework density 20.449168
#
# number of rings (size 3 to 8) (size 9 to 14) (size 15 to 20)
#    0.000    1.000    2.857    4.286    0.000    7.714 
#    0.000    1.429    0.000    0.000    0.000    0.000 
#    0.000    0.000    0.000    0.000    0.000    0.000 
#
# Total GULP energy -312508.826357 kJ/mol
# GULP energy per Si atom -5580.514756 kJ/mol
# Density = 2.040262 g / cm^3
# Si number density = 20.449168 Si / 1000 Ang^3
#
#
#
# Elastic Constant Matrix: (Units=GPa)
#
#
# Indices 1 2 3 4 5 6 
#
# 1 179.0705 29.1455 59.9368 0.0001 0.0000 0.0000
# 2 29.1455 85.4854 36.1931 -0.0001 0.0000 0.0000
# 3 59.9368 36.1931 115.6818 -0.0001 0.0001 -0.0002
# 4 0.0001 -0.0001 -0.0001 24.1180 0.0001 0.0000
# 5 0.0000 0.0000 0.0001 0.0001 11.4623 0.0001
# 6 0.0000 0.0000 -0.0002 0.0000 0.0001 2.2135
#
#
#
# Elastic Compliance Matrix: (Units=1/GPa)
#
#
# Indices 1 2 3 4 5 6 
#
# 1 0.006823 -0.000956 -0.003236 0.000000 0.000000 0.000000
# 2 -0.000956 0.013618 -0.003765 0.000000 0.000000 0.000000
# 3 -0.003236 -0.003765 0.011499 0.000000 0.000000 0.000001
# 4 0.000000 0.000000 0.000000 0.041463 0.000000 0.000001
# 5 0.000000 0.000000 0.000000 0.000000 0.087242 -0.000003
# 6 0.000000 0.000000 0.000001 0.000001 -0.000003 0.451776
#
#
# Mechanical properties :
#
#
# Convention : Reuss Voigt Hill
#
# Bulk Modulus (GPa) = 62.40117 70.08762 66.24439
# Shear Modulus (GPa) = 7.89043 24.55624 16.22334
#
# Velocity S-wave (km/s) = 1.96645 3.46908 2.81970
# Velocity P-wave (km/s) = 5.97808 7.09891 6.56247
#
# Compressibility (1/GPa) = 0.01602534
#
# Stress axis : x y z
#
# Youngs Moduli (GPa) = 146.55964 73.43196 86.96359
#
# Poissons Ratio (x) = 0.07022 0.28142
# Poissons Ratio (y) = 0.14014 0.32744
# Poissons Ratio (z) = 0.47427 0.27649
#
# Static dielectric constant tensor:
#      x y z
#    x 1.737460 0.000000 0.000000 
#    y 0.000000 1.812160 0.000000 
#    z 0.000000 0.000000 1.725630 
# 
# From -- ./inp_files/21170.got.cif
#   From: 2010.05.17/outbox.cif.g08.bks.cpg/sg74_11_cif.got.tgz:21170.got - 2010.06.03 17:57:02.
