data_PCOD9540165
_publ_section_title
;
Structure prediction by ZEFSAII (Michael W. Deem and Ramdas Pophale) SiO2 
 PCOD9540165
Probable space group: I M M A
;
_chemical_formula_sum "Si O2"
_cell_formula_units_Z 60
_cell_length_a 24.446843
_cell_length_b 9.672846
_cell_length_c 11.244043
_cell_angle_alpha 90.000000
_cell_angle_beta 90.000000
_cell_angle_gamma 90.000000
_cell_volume 2658.885005
_symmetry_space_group_name_H-M "I M M A"
_symmetry_group_IT_number 74
_symmetry_cell_setting 'orthorhombic'
loop_
_space_group_symop_operation_xyz
x,y,z
-x,1/2-y,z
x,-y,-z
-x,1/2+y,-z
-x,-y,-z
x,1/2+y,-z
-x,y,z
x,1/2-y,z
1/2+x,1/2+y,1/2+z
1/2-x,-y,1/2+z
1/2+x,1/2-y,1/2-z
1/2-x,y,1/2-z
1/2-x,1/2-y,1/2-z
1/2+x,y,1/2-z
1/2-x,1/2+y,1/2+z
1/2+x,-y,1/2+z
loop_
_atom_site_type_symbol
_atom_site_label
_atom_site_fract_x
_atom_site_fract_y
_atom_site_fract_z
Si Si1 0.938047 0.522479 0.635134
Si Si2 0.578064 0.750000 0.282800
Si Si3 0.500000 0.750000 0.514731
Si Si4 0.398014 0.250000 0.300011
Si Si5 0.717086 0.500000 0.000000
Si Si6 0.277669 0.750000 0.622758
Si Si7 0.692908 0.250000 0.822701
O O1 0.920652 0.500000 0.500000
O O2 0.940036 0.382092 0.707857
O O3 0.899950 0.621452 0.710705
O O4 0.000000 0.581100 0.629931
O O5 0.547990 0.750000 0.409221
O O6 0.643913 0.750000 0.273512
O O7 0.451619 0.750000 0.617489
O O8 0.342754 0.250000 0.373310
O O9 0.755296 0.610319 0.934644
O O10 0.688625 0.390673 0.905158
O O11 0.250000 0.750000 0.750000
O O12 0.750000 0.250000 0.750000
#
# Coordination Sequence:
#
# PCOD9540165 Si02
#       7
#    16   8   4   8   8   8   8
#     4  11  24  47  73 108 144 191 251 320 390 453
#     4  12  28  44  75 108 152 198 258 316 378 490
#     4  12  28  52  72 118 150 214 246 310 406 478
#     4  12  28  47  78 110 159 200 254 323 392 483
#     4  10  26  50  76 110 152 204 262 330 394 460
#     4  11  27  48  76 114 153 200 259 319 396 460
#     4  11  27  48  74 113 151 205 265 327 403 461
#
# _framework density 22.565849
#
# number of rings (size 3 to 8) (size 9 to 14) (size 15 to 20)
#    0.000    0.800    2.667    1.600   13.067    6.400 
#    0.000    0.000    0.000    0.000    0.000    0.000 
#    0.000    0.000    0.000    0.000    0.000    0.000 
#
# Total GULP energy -167165.411017 kJ/mol
# GULP energy per Si atom -5572.180367 kJ/mol
# Density = 2.251449 g / cm^3
# Si number density = 22.565849 Si / 1000 Ang^3
#
#
#
# Elastic Constant Matrix: (Units=GPa)
#
#
# Indices 1 2 3 4 5 6 
#
# 1 160.5190 10.7044 39.9867 0.0000 0.0000 0.0000
# 2 10.7044 166.3429 49.1342 0.0000 0.0000 0.0000
# 3 39.9867 49.1342 156.5361 0.0000 0.0000 0.0000
# 4 0.0000 0.0000 0.0000 19.0040 0.0000 0.0000
# 5 0.0000 0.0000 0.0000 0.0000 36.8268 0.0000
# 6 0.0000 0.0000 0.0000 0.0000 0.0000 -544.5229
#
#
#
# Elastic Compliance Matrix: (Units=1/GPa)
#
#
# Indices 1 2 3 4 5 6 
#
# 1 0.006654 0.000081 -0.001725 0.000000 0.000000 0.000000
# 2 0.000081 0.006627 -0.002101 0.000000 0.000000 0.000000
# 3 -0.001725 -0.002101 0.007488 0.000000 0.000000 0.000000
# 4 0.000000 0.000000 0.000000 0.052621 0.000000 0.000000
# 5 0.000000 0.000000 0.000000 0.000000 0.027154 0.000000
# 6 0.000000 0.000000 0.000000 0.000000 0.000000 -0.001836
#
#
# Mechanical properties :
#
#
# Convention : Reuss Voigt Hill
#
# Bulk Modulus (GPa) = 75.30130 75.89429 75.59779
# Shear Modulus (GPa) = 45.19807 -72.16690 -13.48442
#
# Velocity S-wave (km/s) = 4.48028 -5.66127 -2.44715
# Velocity P-wave (km/s) = 7.75925 3.00466 5.05855
#
# Compressibility (1/GPa) = 0.01327998
#
# Stress axis : x y z
#
# Youngs Moduli (GPa) = 150.28195 150.89783 133.53850
#
# Poissons Ratio (x) = -0.01229 0.23040
# Poissons Ratio (y) = -0.01224 0.28055
# Poissons Ratio (z) = 0.25929 0.31702
#
# Static dielectric constant tensor:
#      x y z
#    x 1.936760 0.000000 0.000000 
#    y 0.000000 1.782590 0.000000 
#    z 0.000000 0.000000 1.767690 
# 
# From -- ./inp_files/25909.got.cif
#   From: 2010.05.17/outbox.cif.g08.bks.cpg/sg74_13_cif.got.tgz:25909.got - 2010.06.03 17:57:02.
