data_PCOD9540965
_publ_section_title
;
Structure prediction by ZEFSAII (Michael W. Deem and Ramdas Pophale) SiO2 
 PCOD9540965
Probable space group: I M M A
;
_chemical_formula_sum "Si O2"
_cell_formula_units_Z 28
_cell_length_a 15.000000
_cell_length_b 30.000000
_cell_length_c 6.000000
_cell_angle_alpha 90.000000
_cell_angle_beta 90.000000
_cell_angle_gamma 90.000000
_cell_volume 2700.000000
_symmetry_space_group_name_H-M "I M M A"
_symmetry_group_IT_number 74
_symmetry_cell_setting 'orthorhombic'
loop_
_space_group_symop_operation_xyz
x,y,z
-x,1/2-y,z
x,-y,-z
-x,1/2+y,-z
-x,-y,-z
x,1/2+y,-z
-x,y,z
x,1/2-y,z
1/2+x,1/2+y,1/2+z
1/2-x,-y,1/2+z
1/2+x,1/2-y,1/2-z
1/2-x,y,1/2-z
1/2-x,1/2-y,1/2-z
1/2+x,y,1/2-z
1/2-x,1/2+y,1/2+z
1/2+x,-y,1/2+z
loop_
_atom_site_type_symbol
_atom_site_label
_atom_site_fract_x
_atom_site_fract_y
_atom_site_fract_z
Si Si1 0.399852 0.383751 0.085776
Si Si2 0.857324 0.980111 0.750750
Si Si3 0.155224 0.199547 0.125818
Si Si4 0.250000 0.147003 0.750000
O O1 0.500000 0.386363 0.984972
O O2 0.384927 0.428087 0.233836
O O3 0.395409 0.338600 0.234322
O O4 0.315936 0.380760 0.913368
O O5 0.750000 0.983954 0.750000
O O6 0.885820 0.000000 0.500000
O O7 0.885452 0.000000 0.000000
O O8 0.117282 0.250000 0.112412
O O9 0.250000 0.203445 0.250000
O O10 0.182501 0.178414 0.889052
#
# Coordination Sequence:
#
# PCOD9540965 Si02
#       4
#    16  16  16   8
#     4  11  25  41  64  98 136 178 227 285 348 417
#     4  10  23  42  70 100 132 180 231 286 351 418
#     4   9  19  38  64  91 126 171 221 277 340 405
#     4  10  21  40  68  96 132 178 230 282 341 416
#
# _framework density 10.370369999999999
#
# number of rings (size 3 to 8) (size 9 to 14) (size 15 to 20)
#    0.000    2.000    0.000    3.000   10.000    4.000 
#    0.000    0.000    0.000    0.000    0.000    0.000 
#    0.000    0.000    0.000    0.000    0.000    0.000 
#
# Total GULP energy -156088.291837 kJ/mol
# GULP energy per Si atom -5574.581851 kJ/mol
# Density = 1.034677 g / cm^3
# Si number density = 10.370370 Si / 1000 Ang^3
#
#
#
# Elastic Constant Matrix: (Units=GPa)
#
#
# Indices 1 2 3 4 5 6 
#
# 1 90.7437 32.6364 28.2598 0.0125 -0.0013 0.0018
# 2 32.6364 162.0087 60.9243 0.0165 -0.0005 0.0165
# 3 28.2598 60.9243 124.4173 0.0897 -0.0083 0.0181
# 4 0.0125 0.0165 0.0897 18.2034 0.0005 0.0297
# 5 -0.0013 -0.0005 -0.0083 0.0005 17.9157 -0.0013
# 6 0.0018 0.0165 0.0181 0.0297 -0.0013 -13.1140
#
#
#
# Elastic Compliance Matrix: (Units=1/GPa)
#
#
# Indices 1 2 3 4 5 6 
#
# 1 0.012247 -0.001742 -0.001929 0.000003 0.000000 -0.000003
# 2 -0.001742 0.007813 -0.003430 0.000011 -0.000002 0.000005
# 3 -0.001929 -0.003430 0.010155 -0.000046 0.000004 0.000009
# 4 0.000003 0.000011 -0.000046 0.054935 -0.000001 0.000124
# 5 0.000000 -0.000002 0.000004 -0.000001 0.055817 -0.000005
# 6 -0.000003 0.000005 0.000009 0.000124 -0.000005 -0.076254
#
#
# Mechanical properties :
#
#
# Convention : Reuss Voigt Hill
#
# Bulk Modulus (GPa) = 62.44610 68.97897 65.71253
# Shear Modulus (GPa) = 59.34435 21.62429 40.48432
#
# Velocity S-wave (km/s) = 5.35486 3.23243 4.42285
# Velocity P-wave (km/s) = 8.27080 6.87469 7.60485
#
# Compressibility (1/GPa) = 0.01601381
#
# Stress axis : x y z
#
# Youngs Moduli (GPa) = 81.65129 127.98473 98.46949
#
# Poissons Ratio (x) = 0.22293 0.18993
# Poissons Ratio (y) = 0.14222 0.33779
# Poissons Ratio (z) = 0.15749 0.43904
#
# Static dielectric constant tensor:
#      x y z
#    x 1.724310 0.000000 0.000010 
#    y 0.000000 1.760120 -0.000010 
#    z 0.000010 -0.000010 1.809790 
# 
# From -- ./inp_files/1469.got.cif
#   From: 2010.05.17/outbox.ucp.g08.bks.cvg/sg74_1_cif.got.tgz:1469.got - 2010.06.11 16:37:44.
