data_PCOD9540210
_publ_section_title
;
Structure prediction by ZEFSAII (Michael W. Deem and Ramdas Pophale) SiO2 
 PCOD9540210
Probable space group: I M M A
;
_chemical_formula_sum "Si O2"
_cell_formula_units_Z 80
_cell_length_a 10.198584
_cell_length_b 21.607934
_cell_length_c 21.905348
_cell_angle_alpha 90.000000
_cell_angle_beta 90.000000
_cell_angle_gamma 90.000000
_cell_volume 4827.288767
_symmetry_space_group_name_H-M "I M M A"
_symmetry_group_IT_number 74
_symmetry_cell_setting 'orthorhombic'
loop_
_space_group_symop_operation_xyz
x,y,z
-x,1/2-y,z
x,-y,-z
-x,1/2+y,-z
-x,-y,-z
x,1/2+y,-z
-x,y,z
x,1/2-y,z
1/2+x,1/2+y,1/2+z
1/2-x,-y,1/2+z
1/2+x,1/2-y,1/2-z
1/2-x,y,1/2-z
1/2-x,1/2-y,1/2-z
1/2+x,y,1/2-z
1/2-x,1/2+y,1/2+z
1/2+x,-y,1/2+z
loop_
_atom_site_type_symbol
_atom_site_label
_atom_site_fract_x
_atom_site_fract_y
_atom_site_fract_z
Si Si1 0.000000 0.521904 0.100047
Si Si2 0.500000 0.022671 0.899779
Si Si3 0.759269 0.993538 0.319518
Si Si4 0.000000 0.102210 0.018920
Si Si5 0.000000 0.600283 0.522315
Si Si6 0.244880 0.678022 0.559798
Si Si7 0.840093 0.638443 0.693161
O O1 0.126210 0.517427 0.143572
O O2 0.000000 0.460507 0.058474
O O3 0.000000 0.579112 0.051837
O O4 0.625869 0.035768 0.859121
O O5 0.500000 0.951089 0.923446
O O6 0.500000 0.062677 0.960278
O O7 0.750000 0.970990 0.250000
O O8 0.800739 0.066078 0.314972
O O9 0.125725 0.141665 0.039255
O O10 0.874248 0.643119 0.527463
O O11 0.254458 0.750000 0.544430
O O12 0.209028 0.671335 0.631597
O O13 0.750000 0.660486 0.750000
O O14 0.000000 0.644277 0.701350
#
# Coordination Sequence:
#
# PCOD9540210 Si02
#       7
#     8   8  16   8   8  16  16
#     4  11  21  36  58  79 116 145 187 230 281 350
#     4  11  19  36  56  81 108 143 183 232 277 346
#     4  11  20  32  54  83 116 145 180 226 278 334
#     4  11  23  38  54  84 109 152 190 228 289 334
#     4  11  21  36  58  78 107 144 192 228 287 324
#     4  12  23  39  56  78 113 148 196 237 273 324
#     4  11  23  37  55  79 114 153 199 237 271 319
#
# _framework density 16.572448999999999
#
# number of rings (size 3 to 8) (size 9 to 14) (size 15 to 20)
#    0.000    0.800    6.000    2.400    5.600    3.600 
#    0.000    0.000    0.000    0.000    0.000    0.000 
#    0.000   56.000    0.000    0.000    0.000    0.000 
#
# Total GULP energy -223259.994108 kJ/mol
# GULP energy per Si atom -5581.499853 kJ/mol
# Density = 1.653473 g / cm^3
# Si number density = 16.572449 Si / 1000 Ang^3
#
#
#
# Elastic Constant Matrix: (Units=GPa)
#
#
# Indices 1 2 3 4 5 6 
#
# 1 200.9638 54.4328 79.4306 0.0000 0.0000 0.0000
# 2 54.4328 78.2650 41.0941 0.0000 0.0000 0.0000
# 3 79.4306 41.0941 130.1882 0.0000 0.0000 0.0000
# 4 0.0000 0.0000 0.0000 17.6098 0.0000 0.0000
# 5 0.0000 0.0000 0.0000 0.0000 36.5257 0.0000
# 6 0.0000 0.0000 0.0000 0.0000 0.0000 79.4569
#
#
#
# Elastic Compliance Matrix: (Units=1/GPa)
#
#
# Indices 1 2 3 4 5 6 
#
# 1 0.007179 -0.003228 -0.003361 0.000000 0.000000 0.000000
# 2 -0.003228 0.016767 -0.003323 0.000000 0.000000 0.000000
# 3 -0.003361 -0.003323 0.010781 0.000000 0.000000 0.000000
# 4 0.000000 0.000000 0.000000 0.056787 0.000000 0.000000
# 5 0.000000 0.000000 0.000000 0.000000 0.027378 0.000000
# 6 0.000000 0.000000 0.000000 0.000000 0.000000 0.012585
#
#
# Mechanical properties :
#
#
# Convention : Reuss Voigt Hill
#
# Bulk Modulus (GPa) = 67.10348 84.37021 75.73685
# Shear Modulus (GPa) = 31.99630 42.34911 37.17270
#
# Velocity S-wave (km/s) = 4.39873 5.06057 4.74121
# Velocity P-wave (km/s) = 8.14723 9.22856 8.70470
#
# Compressibility (1/GPa) = 0.01490236
#
# Stress axis : x y z
#
# Youngs Moduli (GPa) = 139.29908 59.64100 92.75820
#
# Poissons Ratio (x) = 0.19253 0.31176
# Poissons Ratio (y) = 0.44967 0.30824
# Poissons Ratio (z) = 0.46818 0.19819
#
# Static dielectric constant tensor:
#      x y z
#    x 1.579730 0.000000 0.000000 
#    y 0.000000 1.532910 0.000000 
#    z 0.000000 0.000000 1.505860 
# 
# From -- ./inp_files/48667.got.cif
#   From: 2010.05.17/outbox.cif.g08.bks.cpg/sg74_25_cif.got.tgz:48667.got - 2010.06.03 17:57:02.
