data_PCOD9540972
_publ_section_title
;
Structure prediction by ZEFSAII (Michael W. Deem and Ramdas Pophale) SiO2 
 PCOD9540972
Probable space group: I M M A
;
_chemical_formula_sum "Si O2"
_cell_formula_units_Z 56
_cell_length_a 15.000000
_cell_length_b 24.000000
_cell_length_c 15.000000
_cell_angle_alpha 90.000000
_cell_angle_beta 90.000000
_cell_angle_gamma 90.000000
_cell_volume 5400.000000
_symmetry_space_group_name_H-M "I M M A"
_symmetry_group_IT_number 74
_symmetry_cell_setting 'orthorhombic'
loop_
_space_group_symop_operation_xyz
x,y,z
-x,1/2-y,z
x,-y,-z
-x,1/2+y,-z
-x,-y,-z
x,1/2+y,-z
-x,y,z
x,1/2-y,z
1/2+x,1/2+y,1/2+z
1/2-x,-y,1/2+z
1/2+x,1/2-y,1/2-z
1/2-x,y,1/2-z
1/2-x,1/2-y,1/2-z
1/2+x,y,1/2-z
1/2-x,1/2+y,1/2+z
1/2+x,-y,1/2+z
loop_
_atom_site_type_symbol
_atom_site_label
_atom_site_fract_x
_atom_site_fract_y
_atom_site_fract_z
Si Si1 0.840583 0.836607 0.030990
Si Si2 0.101085 0.403714 0.438217
Si Si3 0.822009 0.109862 0.624868
Si Si4 0.407253 0.056405 0.445398
Si Si5 0.233189 0.984533 0.647592
Si Si6 0.895803 0.689438 0.226061
Si Si7 0.734547 0.313719 0.144254
O O1 0.745664 0.848982 0.075635
O O2 0.887464 0.810663 0.118171
O O3 0.895282 0.892286 0.010981
O O4 0.816233 0.815488 0.929878
O O5 0.106888 0.401035 0.546010
O O6 0.146261 0.459553 0.399530
O O7 0.160891 0.355264 0.394503
O O8 0.000000 0.399137 0.409611
O O9 0.771544 0.051093 0.637378
O O10 0.852418 0.138874 0.717029
O O11 0.500000 0.063263 0.392606
O O12 0.413688 0.000000 0.500000
O O13 0.315476 0.048099 0.395432
O O14 0.250000 0.973042 0.750000
O O15 0.860627 0.750000 0.257415
O O16 0.000000 0.686540 0.247580
O O17 0.703012 0.250000 0.143510
O O18 0.750000 0.327455 0.250000
#
# Coordination Sequence:
#
# PCOD9540972 Si02
#       7
#    16  16  16  16  16  16  16
#     4  11  21  40  66  95 127 171 216 279 338 408
#     4  11  24  41  65  94 131 175 221 277 338 400
#     4  11  23  41  65  91 131 176 222 273 337 399
#     4  11  22  39  64  94 128 169 213 268 337 407
#     4  12  23  42  63  96 135 171 221 277 335 414
#     4  11  25  43  63  96 136 177 233 287 337 408
#     4  10  22  42  67  93 127 171 223 277 338 408
#
# _framework density 10.370369999999999
#
# number of rings (size 3 to 8) (size 9 to 14) (size 15 to 20)
#    0.000    1.000    4.286    3.429    0.000    6.000 
#    0.000    0.714    0.000    1.714    0.000    0.000 
#    0.000    0.000    0.000    0.000    0.000    0.000 
#
# Total GULP energy -311750.999695 kJ/mol
# GULP energy per Si atom -5566.982137 kJ/mol
# Density = 1.034677 g / cm^3
# Si number density = 10.370370 Si / 1000 Ang^3
#
#
#
# Elastic Constant Matrix: (Units=GPa)
#
#
# Indices 1 2 3 4 5 6 
#
# 1 85.8882 14.9471 25.6406 0.0000 0.0000 0.0000
# 2 14.9471 95.0067 42.9474 0.0001 0.0000 0.0000
# 3 25.6406 42.9474 129.5994 0.0001 0.0000 -0.0001
# 4 0.0000 0.0001 0.0001 25.3002 0.0000 0.0000
# 5 0.0000 0.0000 0.0000 0.0000 6.5761 0.0000
# 6 0.0000 0.0000 -0.0001 0.0000 0.0000 63.1962
#
#
#
# Elastic Compliance Matrix: (Units=1/GPa)
#
#
# Indices 1 2 3 4 5 6 
#
# 1 0.012453 -0.000994 -0.002134 0.000000 0.000000 0.000000
# 2 -0.000994 0.012460 -0.003932 0.000000 0.000000 0.000000
# 3 -0.002134 -0.003932 0.009441 0.000000 0.000000 0.000000
# 4 0.000000 0.000000 0.000000 0.039525 0.000000 0.000000
# 5 0.000000 0.000000 0.000000 0.000000 0.152067 0.000000
# 6 0.000000 0.000000 0.000000 0.000000 0.000000 0.015824
#
#
# Mechanical properties :
#
#
# Convention : Reuss Voigt Hill
#
# Bulk Modulus (GPa) = 49.42556 53.06272 51.24414
# Shear Modulus (GPa) = 19.03775 34.14510 26.59143
#
# Velocity S-wave (km/s) = 3.03296 4.06184 3.58451
# Velocity P-wave (km/s) = 6.01224 6.90199 6.47242
#
# Compressibility (1/GPa) = 0.02023245
#
# Stress axis : x y z
#
# Youngs Moduli (GPa) = 80.30027 80.25973 105.91645
#
# Poissons Ratio (x) = 0.07981 0.22606
# Poissons Ratio (y) = 0.07985 0.41648
# Poissons Ratio (z) = 0.17138 0.31559
#
# Static dielectric constant tensor:
#      x y z
#    x 1.795480 0.000000 0.000010 
#    y 0.000000 1.774350 0.000000 
#    z 0.000010 0.000000 4.640570 
# 
# From -- ./inp_files/32700.got.cif
#   From: 2010.05.17/outbox.ucp.g08.bks.cvg/sg74_17_cif.got.tgz:32700.got - 2010.06.11 16:37:44.
