data_PCOD9540680
_publ_section_title
;
Structure prediction by ZEFSAII (Michael W. Deem and Ramdas Pophale) SiO2 
 PCOD9540680
Probable space group: I M M A
;
_chemical_formula_sum "Si O2"
_cell_formula_units_Z 80
_cell_length_a 13.911227
_cell_length_b 28.527306
_cell_length_c 6.892983
_cell_angle_alpha 90.000000
_cell_angle_beta 90.000000
_cell_angle_gamma 90.000000
_cell_volume 2735.479128
_symmetry_space_group_name_H-M "I M M A"
_symmetry_group_IT_number 74
_symmetry_cell_setting 'orthorhombic'
loop_
_space_group_symop_operation_xyz
x,y,z
-x,1/2-y,z
x,-y,-z
-x,1/2+y,-z
-x,-y,-z
x,1/2+y,-z
-x,y,z
x,1/2-y,z
1/2+x,1/2+y,1/2+z
1/2-x,-y,1/2+z
1/2+x,1/2-y,1/2-z
1/2-x,y,1/2-z
1/2-x,1/2-y,1/2-z
1/2+x,y,1/2-z
1/2-x,1/2+y,1/2+z
1/2+x,-y,1/2+z
loop_
_atom_site_type_symbol
_atom_site_label
_atom_site_fract_x
_atom_site_fract_y
_atom_site_fract_z
Si Si1 0.886013 0.493690 0.765354
Si Si2 0.109223 0.099223 0.891407
Si Si3 0.653128 0.200633 0.627690
Si Si4 0.116996 0.302276 0.322753
Si Si5 0.118264 0.406291 0.332322
O O1 0.853311 0.439510 0.742550
O O2 0.849904 0.538790 0.646257
O O3 0.000000 0.494703 0.728004
O O4 0.871701 0.500000 0.000000
O O5 0.105860 0.151825 0.819942
O O6 0.000000 0.084801 0.929174
O O7 0.151575 0.099013 0.105894
O O8 0.602969 0.250000 0.667928
O O9 0.750000 0.200840 0.750000
O O10 0.661217 0.199377 0.394054
O O11 0.137886 0.250000 0.408406
O O12 0.143579 0.353725 0.409763
O O13 0.000000 0.303893 0.299556
O O14 0.000000 0.407430 0.353375
#
# Coordination Sequence:
#
# PCOD9540680 Si02
#       5
#    16  16  16  16  16
#     4   7   9  13  21  32  42  49  60  81 106 128
#     4   8  12  17  24  31  38  50  69  90 109 129
#     4   9  15  19  21  26  37  53  74  98 117 126
#     4   8  12  17  24  32  42  58  79  96 105 118
#     4   7   9  13  21  32  43  52  64  84 105 122
#
# _framework density 29.245332999999999
#
# number of rings (size 3 to 8) (size 9 to 14) (size 15 to 20)
#    0.000    4.200    0.000    4.200    0.000    1.200 
#    0.000    0.000    0.000    0.000    0.000    0.000 
#    0.000    0.000    0.000    0.000    0.000  101.000 
#
# Total GULP energy -223020.461274 kJ/mol
# GULP energy per Si atom -5575.511532 kJ/mol
# Density = 2.917877 g / cm^3
# Si number density = 29.245333 Si / 1000 Ang^3
#
#
#
# Elastic Constant Matrix: (Units=GPa)
#
#
# Indices 1 2 3 4 5 6 
#
# 1 105.0186 12.5907 -15.7952 0.0019 0.0051 -0.0013
# 2 12.5907 406.1605 22.4839 -0.0004 0.0114 0.0009
# 3 -15.7952 22.4839 128.0602 0.0039 0.0211 -0.0002
# 4 0.0019 -0.0004 0.0039 6.9129 -0.0007 0.0010
# 5 0.0051 0.0114 0.0211 -0.0007 5.1710 0.0062
# 6 -0.0013 0.0009 -0.0002 0.0010 0.0062 22.6484
#
#
#
# Elastic Compliance Matrix: (Units=1/GPa)
#
#
# Indices 1 2 3 4 5 6 
#
# 1 0.009758 -0.000373 0.001269 -0.000003 -0.000014 0.000001
# 2 -0.000373 0.002500 -0.000485 0.000001 -0.000003 0.000000
# 3 0.001269 -0.000485 0.008051 -0.000005 -0.000033 0.000000
# 4 -0.000003 0.000001 -0.000005 0.144656 0.000019 -0.000007
# 5 -0.000014 -0.000003 -0.000033 0.000019 0.193386 -0.000053
# 6 0.000001 0.000000 0.000000 -0.000007 -0.000053 0.044153
#
#
# Mechanical properties :
#
#
# Convention : Reuss Voigt Hill
#
# Bulk Modulus (GPa) = 47.32347 75.31091 61.31719
# Shear Modulus (GPa) = 12.23316 48.27713 30.25514
#
# Velocity S-wave (km/s) = 2.04744 4.06737 3.21990
# Velocity P-wave (km/s) = 4.66969 6.91847 5.90217
#
# Compressibility (1/GPa) = 0.02113116
#
# Stress axis : x y z
#
# Youngs Moduli (GPa) = 102.48352 399.92275 124.21583
#
# Poissons Ratio (x) = 0.14906 -0.15763
# Poissons Ratio (y) = 0.03820 0.06024
# Poissons Ratio (z) = -0.13005 0.19396
#
# Static dielectric constant tensor:
#      x y z
#    x 2.284800 0.000010 0.000020 
#    y 0.000010 2.353300 -0.000010 
#    z 0.000020 -0.000010 2.219970 
# 
# From -- ./inp_files/18981.got.cif
#   From: 2010.05.17/outbox.cif.g08.bks.cpg/sg74_10_cif.got.tgz:18981.got - 2010.06.03 17:57:02.
