data_PCOD9540139
_publ_section_title
;
Structure prediction by ZEFSAII (Michael W. Deem and Ramdas Pophale) SiO2 
 PCOD9540139
Probable space group: I M M A
;
_chemical_formula_sum "Si O2"
_cell_formula_units_Z 64
_cell_length_a 17.835361
_cell_length_b 31.143564
_cell_length_c 5.093345
_cell_angle_alpha 90.000000
_cell_angle_beta 90.000000
_cell_angle_gamma 90.000000
_cell_volume 2829.132640
_symmetry_space_group_name_H-M "I M M A"
_symmetry_group_IT_number 74
_symmetry_cell_setting 'orthorhombic'
loop_
_space_group_symop_operation_xyz
x,y,z
-x,1/2-y,z
x,-y,-z
-x,1/2+y,-z
-x,-y,-z
x,1/2+y,-z
-x,y,z
x,1/2-y,z
1/2+x,1/2+y,1/2+z
1/2-x,-y,1/2+z
1/2+x,1/2-y,1/2-z
1/2-x,y,1/2-z
1/2-x,1/2-y,1/2-z
1/2+x,y,1/2-z
1/2-x,1/2+y,1/2+z
1/2+x,-y,1/2+z
loop_
_atom_site_type_symbol
_atom_site_label
_atom_site_fract_x
_atom_site_fract_y
_atom_site_fract_z
Si Si1 0.696493 0.700644 0.999825
Si Si2 0.083642 0.958784 0.316022
Si Si3 0.698504 0.914730 0.495962
Si Si4 0.586300 0.870948 0.842519
O O1 0.669569 0.750000 0.985951
O O2 0.750000 0.696659 0.250000
O O3 0.750000 0.692579 0.750000
O O4 0.628553 0.667270 0.991139
O O5 0.088036 0.915441 0.492008
O O6 0.000000 0.959632 0.195757
O O7 0.091998 0.000000 0.500000
O O8 0.149186 0.954347 0.105776
O O9 0.750000 0.923002 0.750000
O O10 0.636231 0.880587 0.586196
O O11 0.750000 0.901727 0.250000
O O12 0.500000 0.861242 0.783208
#
# Coordination Sequence:
#
# PCOD9540139 Si02
#       4
#    16  16  16  16
#     4  10  24  45  72 104 141 185 233 291 367 440
#     4  10  24  48  72 102 147 196 242 294 363 435
#     4  12  25  46  70 104 143 189 243 305 359 431
#     4  11  25  44  72 104 142 191 245 302 362 430
#
# _framework density 22.621773999999998
#
# number of rings (size 3 to 8) (size 9 to 14) (size 15 to 20)
#    0.000    1.250    2.500    1.500    7.000    1.500 
#    4.500    3.750    0.000    4.500    0.000    0.000 
#    0.000    0.000    0.000    0.000    0.000    0.000 
#
# Total GULP energy -179226.953863 kJ/mol
# GULP energy per Si atom -5600.842308 kJ/mol
# Density = 2.257029 g / cm^3
# Si number density = 22.621774 Si / 1000 Ang^3
#
#
#
# Elastic Constant Matrix: (Units=GPa)
#
#
# Indices 1 2 3 4 5 6 
#
# 1 211.7859 84.6605 82.7019 -0.0654 0.0254 0.0193
# 2 84.6605 161.6510 31.3522 -0.0802 -0.0290 0.0278
# 3 82.7019 31.3522 141.2024 -0.3006 0.1139 0.0935
# 4 -0.0654 -0.0802 -0.3006 1.4634 -0.1766 0.0713
# 5 0.0254 -0.0290 0.1139 -0.1766 -22.1502 0.0262
# 6 0.0193 0.0278 0.0935 0.0713 0.0262 36.8233
#
#
#
# Elastic Compliance Matrix: (Units=1/GPa)
#
#
# Indices 1 2 3 4 5 6 
#
# 1 0.007412 -0.003177 -0.003637 -0.000590 -0.000001 0.000009
# 2 -0.003177 0.007826 0.000124 0.000310 -0.000016 -0.000005
# 3 -0.003637 0.000124 0.009188 0.001737 0.000029 -0.000025
# 4 -0.000590 0.000310 0.001737 0.683078 -0.005439 -0.001323
# 5 -0.000001 -0.000016 0.000029 -0.005439 -0.045103 0.000043
# 6 0.000009 -0.000005 -0.000025 -0.001323 0.000043 0.027159
#
#
# Mechanical properties :
#
#
# Convention : Reuss Voigt Hill
#
# Bulk Modulus (GPa) = 90.52940 101.34095 95.93517
# Shear Modulus (GPa) = 7.07592 24.28895 15.68243
#
# Velocity S-wave (km/s) = 1.77051 3.28029 2.63581
# Velocity P-wave (km/s) = 6.65471 7.69690 7.19470
#
# Compressibility (1/GPa) = 0.01104614
#
# Stress axis : x y z
#
# Youngs Moduli (GPa) = 134.92412 127.77927 108.83263
#
# Poissons Ratio (x) = 0.40590 0.39581
# Poissons Ratio (y) = 0.42859 -0.01344
# Poissons Ratio (z) = 0.49070 -0.01578
#
# Static dielectric constant tensor:
#      x y z
#    x 1.832980 0.000010 -0.000040 
#    y 0.000010 1.869430 -0.000050 
#    z -0.000040 -0.000050 1.949490 
# 
# From -- ./inp_files/2357.got.cif
#   From: 2010.05.17/outbox.cif.g08.bks.cpg/sg74_2_cif.got.tgz:2357.got - 2010.06.03 17:57:02.
