data_PCOD9540621
_publ_section_title
;
Structure prediction by ZEFSAII (Michael W. Deem and Ramdas Pophale) SiO2 
 PCOD9540621
Probable space group: I M M A
;
_chemical_formula_sum "Si O2"
_cell_formula_units_Z 52
_cell_length_a 13.588757
_cell_length_b 21.956881
_cell_length_c 7.592790
_cell_angle_alpha 90.000000
_cell_angle_beta 90.000000
_cell_angle_gamma 90.000000
_cell_volume 2265.435851
_symmetry_space_group_name_H-M "I M M A"
_symmetry_group_IT_number 74
_symmetry_cell_setting 'orthorhombic'
loop_
_space_group_symop_operation_xyz
x,y,z
-x,1/2-y,z
x,-y,-z
-x,1/2+y,-z
-x,-y,-z
x,1/2+y,-z
-x,y,z
x,1/2-y,z
1/2+x,1/2+y,1/2+z
1/2-x,-y,1/2+z
1/2+x,1/2-y,1/2-z
1/2-x,y,1/2-z
1/2-x,1/2-y,1/2-z
1/2+x,y,1/2-z
1/2-x,1/2+y,1/2+z
1/2+x,-y,1/2+z
loop_
_atom_site_type_symbol
_atom_site_label
_atom_site_fract_x
_atom_site_fract_y
_atom_site_fract_z
Si Si1 0.000000 0.871101 0.088616
Si Si2 0.500000 0.505699 0.281423
Si Si3 0.665587 0.000000 0.000000
Si Si4 0.500000 0.750000 0.183588
Si Si5 0.711176 0.250000 0.947203
Si Si6 0.216293 0.616472 0.945354
O O1 0.000000 0.921470 0.240471
O O2 0.000000 0.807117 0.185758
O O3 0.900256 0.880854 0.979467
O O4 0.500000 0.500000 0.500000
O O5 0.594727 0.485080 0.168182
O O6 0.732400 0.940675 0.044278
O O7 0.594393 0.750000 0.060805
O O8 0.750000 0.250000 0.750000
O O9 0.746827 0.185260 0.019290
O O10 0.250000 0.603971 0.750000
#
# Coordination Sequence:
#
# PCOD9540621 Si02
#       6
#     8   8   8   4   8  16
#     4  12  25  44  77 103 149 200 248 306 395 457
#     4  11  25  48  75 106 152 203 257 314 386 456
#     4  11  28  47  72 116 154 199 258 319 386 458
#     4  12  24  44  76 112 140 200 254 304 384 460
#     4  12  25  48  75 109 149 201 251 313 379 455
#     4  12  28  47  76 110 154 198 257 320 384 465
#
# _framework density 22.953638000000002
#
# number of rings (size 3 to 8) (size 9 to 14) (size 15 to 20)
#    0.000    0.308    3.077    4.154    6.462    3.692 
#    0.000    0.000    0.000    0.000    0.000    0.000 
#    0.000    0.000    0.000    0.000    0.000    0.000 
#
# Total GULP energy -145289.047047 kJ/mol
# GULP energy per Si atom -5588.040271 kJ/mol
# Density = 2.290139 g / cm^3
# Si number density = 22.953638 Si / 1000 Ang^3
#
#
#
# Elastic Constant Matrix: (Units=GPa)
#
#
# Indices 1 2 3 4 5 6 
#
# 1 255.7054 89.6268 54.2219 0.0000 0.0000 0.0000
# 2 89.6268 188.5378 29.9169 0.0000 0.0000 0.0000
# 3 54.2219 29.9169 104.1308 0.0000 -0.0002 0.0000
# 4 0.0000 0.0000 0.0000 35.1937 0.0000 0.0000
# 5 0.0000 0.0000 -0.0002 0.0000 16.0998 0.0000
# 6 0.0000 0.0000 0.0000 0.0000 0.0000 48.2351
#
#
#
# Elastic Compliance Matrix: (Units=1/GPa)
#
#
# Indices 1 2 3 4 5 6 
#
# 1 0.005076 -0.002089 -0.002043 0.000000 0.000000 0.000000
# 2 -0.002089 0.006417 -0.000756 0.000000 0.000000 0.000000
# 3 -0.002043 -0.000756 0.010884 0.000000 0.000000 0.000000
# 4 0.000000 0.000000 0.000000 0.028414 0.000000 0.000000
# 5 0.000000 0.000000 0.000000 0.000000 0.062112 0.000000
# 6 0.000000 0.000000 0.000000 0.000000 0.000000 0.020732
#
#
# Mechanical properties :
#
#
# Convention : Reuss Voigt Hill
#
# Bulk Modulus (GPa) = 79.35427 99.54502 89.44965
# Shear Modulus (GPa) = 33.87257 44.87963 39.37610
#
# Velocity S-wave (km/s) = 3.84565 4.42659 4.14631
# Velocity P-wave (km/s) = 7.37328 8.34196 7.87253
#
# Compressibility (1/GPa) = 0.01260172
#
# Stress axis : x y z
#
# Youngs Moduli (GPa) = 196.99952 155.83760 91.87539
#
# Poissons Ratio (x) = 0.32553 0.18771
# Poissons Ratio (y) = 0.41151 0.06945
# Poissons Ratio (z) = 0.40248 0.11779
#
# Static dielectric constant tensor:
#      x y z
#    x 1.902970 0.000000 0.000000 
#    y 0.000000 1.412440 0.000000 
#    z 0.000000 0.000000 1.859330 
# 
# From -- ./inp_files/8634.got.cif
#   From: 2010.05.17/outbox.cif.g08.bks.cpg/sg74_5_cif.got.tgz:8634.got - 2010.06.03 17:57:02.
