data_PCOD9540375
_publ_section_title
;
Structure prediction by ZEFSAII (Michael W. Deem and Ramdas Pophale) SiO2 
 PCOD9540375
Probable space group: I M M A
;
_chemical_formula_sum "Si O2"
_cell_formula_units_Z 112
_cell_length_a 28.740453
_cell_length_b 17.795358
_cell_length_c 11.696737
_cell_angle_alpha 90.000000
_cell_angle_beta 90.000000
_cell_angle_gamma 90.000000
_cell_volume 5982.256957
_symmetry_space_group_name_H-M "I M M A"
_symmetry_group_IT_number 74
_symmetry_cell_setting 'orthorhombic'
loop_
_space_group_symop_operation_xyz
x,y,z
-x,1/2-y,z
x,-y,-z
-x,1/2+y,-z
-x,-y,-z
x,1/2+y,-z
-x,y,z
x,1/2-y,z
1/2+x,1/2+y,1/2+z
1/2-x,-y,1/2+z
1/2+x,1/2-y,1/2-z
1/2-x,y,1/2-z
1/2-x,1/2-y,1/2-z
1/2+x,y,1/2-z
1/2-x,1/2+y,1/2+z
1/2+x,-y,1/2+z
loop_
_atom_site_type_symbol
_atom_site_label
_atom_site_fract_x
_atom_site_fract_y
_atom_site_fract_z
Si Si1 0.208827 0.336570 0.667534
Si Si2 0.188391 0.161599 0.098118
Si Si3 0.144125 0.454962 0.250562
Si Si4 0.446806 0.514226 0.134215
Si Si5 0.446350 0.662616 0.271912
Si Si6 0.778460 0.573663 0.558924
Si Si7 0.354688 0.114265 0.640274
O O1 0.220567 0.250000 0.643492
O O2 0.250000 0.368051 0.750000
O O3 0.202862 0.378633 0.548549
O O4 0.163830 0.344033 0.746285
O O5 0.191021 0.250000 0.115700
O O6 0.151860 0.120695 0.180217
O O7 0.238188 0.122248 0.116608
O O8 0.173392 0.143323 0.968166
O O9 0.092925 0.468393 0.300352
O O10 0.181627 0.452099 0.353636
O O11 0.152830 0.526344 0.167247
O O12 0.500000 0.493702 0.165360
O O13 0.440710 0.601904 0.169614
O O14 0.441058 0.500000 0.000000
O O15 0.500000 0.656507 0.310555
O O16 0.438437 0.750000 0.241354
O O17 0.408939 0.635670 0.365684
O O18 0.756984 0.500000 0.500000
#
# Coordination Sequence:
#
# PCOD9540375 Si02
#       7
#    16  16  16  16  16  16  16
#     4  11  22  36  58  86 113 150 199 251 299 348
#     4  12  26  41  58  84 121 163 203 245 298 358
#     4  11  24  39  61  88 119 159 200 242 301 365
#     4   9  19  38  63  88 118 155 197 245 297 357
#     4   9  18  33  58  91 120 146 187 246 305 349
#     4  12  23  38  59  84 119 158 200 250 296 360
#     4  11  21  40  62  86 116 156 202 249 293 354
#
# _framework density 18.722031000000001
#
# number of rings (size 3 to 8) (size 9 to 14) (size 15 to 20)
#    0.000    1.286    2.857    3.857    2.000    1.714 
#    0.000    1.429    0.000    5.571    0.000    0.000 
#    0.000    0.000    0.000    0.000    0.000    0.000 
#
# Total GULP energy -312707.400314 kJ/mol
# GULP energy per Si atom -5584.060720 kJ/mol
# Density = 1.867942 g / cm^3
# Si number density = 18.722031 Si / 1000 Ang^3
#
#
#
# Elastic Constant Matrix: (Units=GPa)
#
#
# Indices 1 2 3 4 5 6 
#
# 1 112.4381 54.5564 34.5358 0.0000 0.0000 0.0000
# 2 54.5564 130.3899 41.0710 0.0000 0.0000 0.0000
# 3 34.5358 41.0710 57.9874 0.0000 0.0000 0.0000
# 4 0.0000 0.0000 0.0000 21.9641 0.0000 0.0000
# 5 0.0000 0.0000 0.0000 0.0000 21.0858 0.0000
# 6 0.0000 0.0000 0.0000 0.0000 0.0000 23.1848
#
#
#
# Elastic Compliance Matrix: (Units=1/GPa)
#
#
# Indices 1 2 3 4 5 6 
#
# 1 0.012059 -0.003583 -0.004644 0.000000 0.000000 0.000000
# 2 -0.003583 0.010936 -0.005612 0.000000 0.000000 0.000000
# 3 -0.004644 -0.005612 0.023986 0.000000 0.000000 0.000000
# 4 0.000000 0.000000 0.000000 0.045529 0.000000 0.000000
# 5 0.000000 0.000000 0.000000 0.000000 0.047425 0.000000
# 6 0.000000 0.000000 0.000000 0.000000 0.000000 0.043132
#
#
# Mechanical properties :
#
#
# Convention : Reuss Voigt Hill
#
# Bulk Modulus (GPa) = 51.80599 62.34909 57.07754
# Shear Modulus (GPa) = 23.02254 24.62377 23.82316
#
# Velocity S-wave (km/s) = 3.51052 3.63054 3.57103
# Velocity P-wave (km/s) = 6.64551 7.13788 6.89609
#
# Compressibility (1/GPa) = 0.01930279
#
# Stress axis : x y z
#
# Youngs Moduli (GPa) = 82.92836 91.44134 41.69092
#
# Poissons Ratio (x) = 0.32759 0.19363
# Poissons Ratio (y) = 0.29709 0.23397
# Poissons Ratio (z) = 0.38515 0.51317
#
# Static dielectric constant tensor:
#      x y z
#    x 1.701920 0.000000 0.000000 
#    y 0.000000 1.661670 0.000000 
#    z 0.000000 0.000000 1.644120 
# 
# From -- ./inp_files/27224.got.cif
#   From: 2010.05.17/outbox.cif.g08.bks.cpg/sg74_14_cif.got.tgz:27224.got - 2010.06.03 17:57:02.
