data_PCOD9540199
_publ_section_title
;
Structure prediction by ZEFSAII (Michael W. Deem and Ramdas Pophale) SiO2 
 PCOD9540199
Probable space group: I M M A
;
_chemical_formula_sum "Si O2"
_cell_formula_units_Z 72
_cell_length_a 15.079346
_cell_length_b 10.419599
_cell_length_c 27.696925
_cell_angle_alpha 90.000000
_cell_angle_beta 90.000000
_cell_angle_gamma 90.000000
_cell_volume 4351.761310
_symmetry_space_group_name_H-M "I M M A"
_symmetry_group_IT_number 74
_symmetry_cell_setting 'orthorhombic'
loop_
_space_group_symop_operation_xyz
x,y,z
-x,1/2-y,z
x,-y,-z
-x,1/2+y,-z
-x,-y,-z
x,1/2+y,-z
-x,y,z
x,1/2-y,z
1/2+x,1/2+y,1/2+z
1/2-x,-y,1/2+z
1/2+x,1/2-y,1/2-z
1/2-x,y,1/2-z
1/2-x,1/2-y,1/2-z
1/2+x,y,1/2-z
1/2-x,1/2+y,1/2+z
1/2+x,-y,1/2+z
loop_
_atom_site_type_symbol
_atom_site_label
_atom_site_fract_x
_atom_site_fract_y
_atom_site_fract_z
Si Si1 0.355668 0.404006 0.371412
Si Si2 0.500000 0.096556 0.454524
Si Si3 0.893167 0.250000 0.454201
Si Si4 0.500000 0.094209 0.294195
Si Si5 0.000000 0.594562 0.682863
Si Si6 0.658878 0.016011 0.113495
Si Si7 0.893254 0.750000 0.434056
O O1 0.342359 0.250000 0.368623
O O2 0.414689 0.426362 0.419613
O O3 0.414709 0.444722 0.325549
O O4 0.260533 0.469293 0.371294
O O5 0.500000 0.250000 0.467411
O O6 0.500000 0.000000 0.500000
O O7 0.858838 0.124311 0.427033
O O8 0.866333 0.250000 0.509880
O O9 0.000000 0.250000 0.451273
O O10 0.500000 0.250000 0.294368
O O11 0.500000 0.053907 0.238773
O O12 0.912497 0.545259 0.655376
O O13 0.000000 0.750000 0.680197
O O14 0.640519 0.877300 0.091680
O O15 0.000000 0.750000 0.432553
#
# Coordination Sequence:
#
# PCOD9540199 Si02
#       7
#    16   8   8   8   8  16   8
#     4   9  18  36  57  80 114 143 180 232 281 319
#     4   9  19  36  56  80 110 149 185 225 273 322
#     4  11  20  36  54  76 110 146 186 225 268 321
#     4   8  18  34  58  87 108 138 180 239 287 318
#     4  11  19  33  58  86 110 138 187 230 279 337
#     4  12  20  36  56  81 114 144 186 230 272 330
#     4  11  24  36  52  78 114 158 182 217 278 335
#
# _framework density 16.545024999999999
#
# number of rings (size 3 to 8) (size 9 to 14) (size 15 to 20)
#    0.000    1.778    4.444    2.000    0.000    4.444 
#    2.000    3.333    0.000    4.000    0.000    0.000 
#    0.000    0.000    0.000    0.000    0.000    0.000 
#
# Total GULP energy -200863.951984 kJ/mol
# GULP energy per Si atom -5579.554222 kJ/mol
# Density = 1.650737 g / cm^3
# Si number density = 16.545025 Si / 1000 Ang^3
#
#
#
# Elastic Constant Matrix: (Units=GPa)
#
#
# Indices 1 2 3 4 5 6 
#
# 1 152.7674 50.6401 90.0403 0.0000 0.0000 0.0000
# 2 50.6401 106.2506 74.0717 0.0000 0.0000 0.0000
# 3 90.0403 74.0717 167.3098 0.0000 0.0000 0.0000
# 4 0.0000 0.0000 0.0000 9.1541 0.0000 0.0000
# 5 0.0000 0.0000 0.0000 0.0000 1.0220 0.0000
# 6 0.0000 0.0000 0.0000 0.0000 0.0000 21.0133
#
#
#
# Elastic Compliance Matrix: (Units=1/GPa)
#
#
# Indices 1 2 3 4 5 6 
#
# 1 0.009734 -0.001428 -0.004606 0.000000 0.000000 0.000000
# 2 -0.001428 0.013823 -0.005351 0.000000 0.000000 0.000000
# 3 -0.004606 -0.005351 0.010825 0.000000 0.000000 0.000000
# 4 0.000000 0.000000 0.000000 0.109240 0.000000 0.000000
# 5 0.000000 0.000000 0.000000 0.000000 0.978498 0.000000
# 6 0.000000 0.000000 0.000000 0.000000 0.000000 0.047589
#
#
# Mechanical properties :
#
#
# Convention : Reuss Voigt Hill
#
# Bulk Modulus (GPa) = 86.12630 95.09245 90.60938
# Shear Modulus (GPa) = 4.17938 20.34293 12.26115
#
# Velocity S-wave (km/s) = 1.59108 3.51030 2.72523
# Velocity P-wave (km/s) = 7.45279 8.60403 8.04902
#
# Compressibility (1/GPa) = 0.01161085
#
# Stress axis : x y z
#
# Youngs Moduli (GPa) = 102.72960 72.34391 92.37893
#
# Poissons Ratio (x) = 0.10332 0.42553
# Poissons Ratio (y) = 0.14671 0.49433
# Poissons Ratio (z) = 0.47321 0.38712
#
# Static dielectric constant tensor:
#      x y z
#    x 1.567780 0.000000 0.000000 
#    y 0.000000 1.514750 0.000000 
#    z 0.000000 0.000000 1.553040 
# 
# From -- ./inp_files/66836.got.cif
#   From: 2010.05.17/outbox.cif.g08.bks.cpg/sg74_34_cif.got.tgz:66836.got - 2010.06.03 17:57:02.
