data_PCOD9540904
_publ_section_title
;
Structure prediction by ZEFSAII (Michael W. Deem and Ramdas Pophale) SiO2 
 PCOD9540904
Probable space group: I M M A
;
_chemical_formula_sum "Si O2"
_cell_formula_units_Z 36
_cell_length_a 30.000000
_cell_length_b 15.000000
_cell_length_c 9.000000
_cell_angle_alpha 90.000000
_cell_angle_beta 90.000000
_cell_angle_gamma 90.000000
_cell_volume 4050.000000
_symmetry_space_group_name_H-M "I M M A"
_symmetry_group_IT_number 74
_symmetry_cell_setting 'orthorhombic'
loop_
_space_group_symop_operation_xyz
x,y,z
-x,1/2-y,z
x,-y,-z
-x,1/2+y,-z
-x,-y,-z
x,1/2+y,-z
-x,y,z
x,1/2-y,z
1/2+x,1/2+y,1/2+z
1/2-x,-y,1/2+z
1/2+x,1/2-y,1/2-z
1/2-x,y,1/2-z
1/2-x,1/2-y,1/2-z
1/2+x,y,1/2-z
1/2-x,1/2+y,1/2+z
1/2+x,-y,1/2+z
loop_
_atom_site_type_symbol
_atom_site_label
_atom_site_fract_x
_atom_site_fract_y
_atom_site_fract_z
Si Si1 0.609440 0.750000 0.294570
Si Si2 0.380211 0.951099 0.347550
Si Si3 0.292661 0.560403 0.141597
Si Si4 0.705364 0.250000 0.845823
Si Si5 0.448363 0.059321 0.149213
Si Si6 0.446157 0.750000 0.987103
O O1 0.603126 0.651994 0.368138
O O2 0.661946 0.750000 0.256942
O O3 0.580529 0.750000 0.142472
O O4 0.337243 0.951192 0.239136
O O5 0.368262 0.000000 0.500000
O O6 0.417988 0.010466 0.268819
O O7 0.250000 0.552480 0.250000
O O8 0.294914 0.658678 0.069754
O O9 0.289761 0.500000 0.000000
O O10 0.750000 0.250000 0.750000
O O11 0.500000 0.061255 0.197095
O O12 0.435218 0.159976 0.103471
O O13 0.445551 0.000000 0.000000
O O14 0.500000 0.750000 0.014707
#
# Coordination Sequence:
#
# PCOD9540904 Si02
#       6
#     8  16  16   8  16   8
#     4  10  20  35  58  78 112 157 189 230 299 349
#     4  11  23  37  56  85 118 153 194 237 292 349
#     4  10  20  37  59  82 112 151 194 239 288 342
#     4   8  18  34  53  78 108 146 185 229 282 340
#     4  10  20  36  58  84 111 146 192 239 281 339
#     4  10  20  35  60  88 114 147 197 242 289 348
#
# _framework density 8.8888890000000007
#
# number of rings (size 3 to 8) (size 9 to 14) (size 15 to 20)
#    0.000    2.000    2.222    1.333    3.111    1.333 
#    0.000    1.667    0.000    0.000    0.000    0.000 
#    0.000    0.000    0.000    0.000    0.000    0.000 
#
# Total GULP energy -200492.402720 kJ/mol
# GULP energy per Si atom -5569.233409 kJ/mol
# Density = 0.886866 g / cm^3
# Si number density = 8.888889 Si / 1000 Ang^3
#
#
#
# Elastic Constant Matrix: (Units=GPa)
#
#
# Indices 1 2 3 4 5 6 
#
# 1 64.5278 36.6481 23.3747 0.0000 0.0000 0.0000
# 2 36.6481 204.6516 65.9654 0.0000 0.0000 0.0000
# 3 23.3747 65.9654 67.8053 0.0000 0.0000 0.0000
# 4 0.0000 0.0000 0.0000 24.5925 0.0000 0.0000
# 5 0.0000 0.0000 0.0000 0.0000 11.5463 0.0000
# 6 0.0000 0.0000 0.0000 0.0000 0.0000 40.6052
#
#
#
# Elastic Compliance Matrix: (Units=1/GPa)
#
#
# Indices 1 2 3 4 5 6 
#
# 1 0.018151 -0.001797 -0.004509 0.000000 0.000000 0.000000
# 2 -0.001797 0.007297 -0.006479 0.000000 0.000000 0.000000
# 3 -0.004509 -0.006479 0.022606 0.000000 0.000000 0.000000
# 4 0.000000 0.000000 0.000000 0.040663 0.000000 0.000000
# 5 0.000000 0.000000 0.000000 0.000000 0.086608 0.000000
# 6 0.000000 0.000000 0.000000 0.000000 0.000000 0.024627
#
#
# Mechanical properties :
#
#
# Convention : Reuss Voigt Hill
#
# Bulk Modulus (GPa) = 44.47756 65.44012 54.95884
# Shear Modulus (GPa) = 21.45774 29.41523 25.43649
#
# Velocity S-wave (km/s) = 3.47796 4.07210 3.78670
# Velocity P-wave (km/s) = 6.41882 7.68110 7.07815
#
# Compressibility (1/GPa) = 0.02248325
#
# Stress axis : x y z
#
# Youngs Moduli (GPa) = 55.09287 137.05089 44.23652
#
# Poissons Ratio (x) = 0.24629 0.19946
# Poissons Ratio (y) = 0.09900 0.28661
# Poissons Ratio (z) = 0.24841 0.88796
#
# Static dielectric constant tensor:
#      x y z
#    x 1.395430 0.000000 0.000000 
#    y 0.000000 1.659380 0.000000 
#    z 0.000000 0.000000 1.534960 
# 
# From -- ./inp_files/9371.got.cif
#   From: 2010.05.17/outbox.ucp.g08.bks.cvg/sg74_5_cif.got.tgz:9371.got - 2010.06.11 16:37:44.
