data_PCOD9540115
_publ_section_title
;
Structure prediction by ZEFSAII (Michael W. Deem and Ramdas Pophale) SiO2 
 PCOD9540115
Probable space group: I M M A
;
_chemical_formula_sum "Si O2"
_cell_formula_units_Z 96
_cell_length_a 15.032282
_cell_length_b 15.288332
_cell_length_c 21.626445
_cell_angle_alpha 90.000000
_cell_angle_beta 90.000000
_cell_angle_gamma 90.000000
_cell_volume 4970.157538
_symmetry_space_group_name_H-M "I M M A"
_symmetry_group_IT_number 74
_symmetry_cell_setting 'orthorhombic'
loop_
_space_group_symop_operation_xyz
x,y,z
-x,1/2-y,z
x,-y,-z
-x,1/2+y,-z
-x,-y,-z
x,1/2+y,-z
-x,y,z
x,1/2-y,z
1/2+x,1/2+y,1/2+z
1/2-x,-y,1/2+z
1/2+x,1/2-y,1/2-z
1/2-x,y,1/2-z
1/2-x,1/2-y,1/2-z
1/2+x,y,1/2-z
1/2-x,1/2+y,1/2+z
1/2+x,-y,1/2+z
loop_
_atom_site_type_symbol
_atom_site_label
_atom_site_fract_x
_atom_site_fract_y
_atom_site_fract_z
Si Si1 0.101335 0.851124 0.529025
Si Si2 0.604207 0.750000 0.552156
Si Si3 0.206297 0.579330 0.416376
Si Si4 0.250000 0.065324 0.250000
Si Si5 0.236671 0.611068 0.888328
Si Si6 0.354117 0.750000 0.272048
Si Si7 0.101101 0.568224 0.289507
Si Si8 0.170514 0.750000 0.085309
O O1 0.101707 0.750000 0.507112
O O2 0.144552 0.910218 0.476073
O O3 0.167801 0.856665 0.586611
O O4 0.000000 0.875664 0.543318
O O5 0.500000 0.750000 0.568959
O O6 0.659049 0.832742 0.579792
O O7 0.613203 0.750000 0.477424
O O8 0.263395 0.490662 0.409583
O O9 0.142485 0.581219 0.357164
O O10 0.269396 0.663223 0.417052
O O11 0.237006 0.116383 0.185876
O O12 0.164910 0.001811 0.257006
O O13 0.250000 0.750000 0.250000
O O14 0.393439 0.661239 0.244479
O O15 0.368936 0.750000 0.345707
O O16 0.000000 0.537873 0.292529
#
# Coordination Sequence:
#
# PCOD9540115 Si02
#       8
#    16   8  16   8  16   8  16   8
#     4  11  22  38  65 102 137 167 205 258 325 398
#     4  12  28  49  66  90 123 170 232 284 318 364
#     4  11  20  38  68  97 131 167 204 251 329 392
#     4  10  24  42  66  90 124 164 210 269 334 383
#     4  11  23  44  69  92 124 169 211 273 325 382
#     4  12  19  35  60  88 129 179 213 244 306 374
#     4  11  22  37  59  96 133 167 211 258 310 386
#     4  12  22  41  64  91 132 172 211 267 307 365
#
# _framework density 19.315283000000001
#
# number of rings (size 3 to 8) (size 9 to 14) (size 15 to 20)
#    0.000    0.833    5.833    2.250    0.000    5.667 
#    0.000    1.667    0.000    0.000    0.000    0.000 
#    0.000    0.000    0.000    0.000    0.000    0.000 
#
# Total GULP energy -268177.634644 kJ/mol
# GULP energy per Si atom -5587.034055 kJ/mol
# Density = 1.927132 g / cm^3
# Si number density = 19.315283 Si / 1000 Ang^3
#
#
#
# Elastic Constant Matrix: (Units=GPa)
#
#
# Indices 1 2 3 4 5 6 
#
# 1 135.3098 46.6628 60.3798 0.0000 0.0000 0.0000
# 2 46.6628 105.1512 40.0813 0.0000 0.0000 0.0000
# 3 60.3798 40.0813 165.9354 0.0000 0.0000 0.0000
# 4 0.0000 0.0000 0.0000 -39.4759 0.0000 0.0000
# 5 0.0000 0.0000 0.0000 0.0000 -7.6685 0.0000
# 6 0.0000 0.0000 0.0000 0.0000 0.0000 -60.7237
#
#
#
# Elastic Compliance Matrix: (Units=1/GPa)
#
#
# Indices 1 2 3 4 5 6 
#
# 1 0.009750 -0.003276 -0.002757 0.000000 0.000000 0.000000
# 2 -0.003276 0.011575 -0.001604 0.000000 0.000000 0.000000
# 3 -0.002757 -0.001604 0.007417 0.000000 0.000000 0.000000
# 4 0.000000 0.000000 0.000000 -0.025332 0.000000 0.000000
# 5 0.000000 0.000000 0.000000 0.000000 -0.130403 0.000000
# 6 0.000000 0.000000 0.000000 0.000000 0.000000 -0.016468
#
#
# Mechanical properties :
#
#
# Convention : Reuss Voigt Hill
#
# Bulk Modulus (GPa) = 74.24249 77.84934 76.04591
# Shear Modulus (GPa) = -40.42108 -4.28877 -22.35492
#
# Velocity S-wave (km/s) = -4.57957 -1.49172 -3.40570
# Velocity P-wave (km/s) = 3.24921 6.11760 4.89808
#
# Compressibility (1/GPa) = 0.01346938
#
# Stress axis : x y z
#
# Youngs Moduli (GPa) = 102.56075 86.39067 134.82723
#
# Poissons Ratio (x) = 0.28303 0.37166
# Poissons Ratio (y) = 0.33600 0.21625
# Poissons Ratio (z) = 0.28271 0.13856
#
# Static dielectric constant tensor:
#      x y z
#    x 1.661860 0.000000 0.000000 
#    y 0.000000 1.702770 0.000000 
#    z 0.000000 0.000000 1.695660 
# 
# From -- ./inp_files/51977.got.cif
#   From: 2010.05.17/outbox.cif.g08.bks.cpg/sg74_26_cif.got.tgz:51977.got - 2010.06.03 17:57:02.
