data_PCOD9540589
_publ_section_title
;
Structure prediction by ZEFSAII (Michael W. Deem and Ramdas Pophale) SiO2 
 PCOD9540589
Probable space group: I M M A
;
_chemical_formula_sum "Si O2"
_cell_formula_units_Z 68
_cell_length_a 22.340019
_cell_length_b 25.601741
_cell_length_c 4.819013
_cell_angle_alpha 90.000000
_cell_angle_beta 90.000000
_cell_angle_gamma 90.000000
_cell_volume 2756.202585
_symmetry_space_group_name_H-M "I M M A"
_symmetry_group_IT_number 74
_symmetry_cell_setting 'orthorhombic'
loop_
_space_group_symop_operation_xyz
x,y,z
-x,1/2-y,z
x,-y,-z
-x,1/2+y,-z
-x,-y,-z
x,1/2+y,-z
-x,y,z
x,1/2-y,z
1/2+x,1/2+y,1/2+z
1/2-x,-y,1/2+z
1/2+x,1/2-y,1/2-z
1/2-x,y,1/2-z
1/2-x,1/2-y,1/2-z
1/2+x,y,1/2-z
1/2-x,1/2+y,1/2+z
1/2+x,-y,1/2+z
loop_
_atom_site_type_symbol
_atom_site_label
_atom_site_fract_x
_atom_site_fract_y
_atom_site_fract_z
Si Si1 0.587053 0.552583 0.344467
Si Si2 0.789661 0.403500 0.013130
Si Si3 0.000000 0.000000 0.500000
Si Si4 0.144540 0.692185 0.674037
Si Si5 0.565346 0.168194 0.649033
O O1 0.565552 0.500000 0.500000
O O2 0.657563 0.560270 0.388901
O O3 0.553881 0.543951 0.053337
O O4 0.563260 0.607848 0.443216
O O5 0.750000 0.431440 0.250000
O O6 0.816067 0.353126 0.179923
O O7 0.750000 0.386985 0.750000
O O8 0.172837 0.750000 0.645314
O O9 0.116425 0.674156 0.382874
O O10 0.088513 0.696964 0.879917
O O11 0.500000 0.184640 0.746854
#
# Coordination Sequence:
#
# PCOD9540589 Si02
#       5
#    16  16   4  16  16
#     4  11  27  43  73 106 147 190 244 295 366 443
#     4  11  26  48  72 101 145 191 245 305 358 427
#     4  12  26  44  80 114 142 192 242 306 374 444
#     4  11  25  44  70 103 138 187 243 297 366 430
#     4  11  24  42  68 103 148 185 231 297 360 438
#
# _framework density 24.671624999999999
#
# number of rings (size 3 to 8) (size 9 to 14) (size 15 to 20)
#    0.000    0.941    1.176    4.588    9.882    4.706 
#    0.000    0.000    0.000    0.000    0.000    0.000 
#    0.000    0.000    0.000    0.000    0.000    0.000 
#
# Total GULP energy -189297.005686 kJ/mol
# GULP energy per Si atom -5567.558991 kJ/mol
# Density = 2.461547 g / cm^3
# Si number density = 24.671625 Si / 1000 Ang^3
#
#
#
# Elastic Constant Matrix: (Units=GPa)
#
#
# Indices 1 2 3 4 5 6 
#
# 1 154.3544 18.8881 33.9425 0.0000 0.0000 0.0000
# 2 18.8881 141.0084 16.4216 0.0000 0.0000 0.0000
# 3 33.9425 16.4216 123.0493 0.0000 0.0000 0.0000
# 4 0.0000 0.0000 0.0000 47.6360 0.0000 0.0000
# 5 0.0000 0.0000 0.0000 0.0000 50.7353 0.0000
# 6 0.0000 0.0000 0.0000 0.0000 0.0000 9.6791
#
#
#
# Elastic Compliance Matrix: (Units=1/GPa)
#
#
# Indices 1 2 3 4 5 6 
#
# 1 0.006968 -0.000721 -0.001826 0.000000 0.000000 0.000000
# 2 -0.000721 0.007278 -0.000773 0.000000 0.000000 0.000000
# 3 -0.001826 -0.000773 0.008734 0.000000 0.000000 0.000000
# 4 0.000000 0.000000 0.000000 0.020993 0.000000 0.000000
# 5 0.000000 0.000000 0.000000 0.000000 0.019710 0.000000
# 6 0.000000 0.000000 0.000000 0.000000 0.000000 0.103315
#
#
# Mechanical properties :
#
#
# Convention : Reuss Voigt Hill
#
# Bulk Modulus (GPa) = 61.19309 61.87961 61.53635
# Shear Modulus (GPa) = 27.91992 44.88740 36.40366
#
# Velocity S-wave (km/s) = 3.36767 4.27006 3.84543
# Velocity P-wave (km/s) = 6.32285 7.03186 6.68676
#
# Compressibility (1/GPa) = 0.01634171
#
# Stress axis : x y z
#
# Youngs Moduli (GPa) = 143.50636 137.39499 114.50025
#
# Poissons Ratio (x) = 0.09903 0.20908
# Poissons Ratio (y) = 0.10343 0.08845
# Poissons Ratio (z) = 0.26204 0.10614
#
# Static dielectric constant tensor:
#      x y z
#    x 1.973260 0.000000 0.000000 
#    y 0.000000 1.804450 0.000000 
#    z 0.000000 0.000000 2.118520 
# 
# From -- ./inp_files/3113.got.cif
#   From: 2010.05.17/outbox.cif.g08.bks.cpg/sg74_2_cif.got.tgz:3113.got - 2010.06.03 17:57:02.
