data_PCOD9540049
_publ_section_title
;
Structure prediction by ZEFSAII (Michael W. Deem and Ramdas Pophale) SiO2 
 PCOD9540049
Probable space group: I M M A
;
_chemical_formula_sum "Si O2"
_cell_formula_units_Z 36
_cell_length_a 14.062026
_cell_length_b 16.728582
_cell_length_c 7.365450
_cell_angle_alpha 90.000000
_cell_angle_beta 90.000000
_cell_angle_gamma 90.000000
_cell_volume 1732.631923
_symmetry_space_group_name_H-M "I M M A"
_symmetry_group_IT_number 74
_symmetry_cell_setting 'orthorhombic'
loop_
_space_group_symop_operation_xyz
x,y,z
-x,1/2-y,z
x,-y,-z
-x,1/2+y,-z
-x,-y,-z
x,1/2+y,-z
-x,y,z
x,1/2-y,z
1/2+x,1/2+y,1/2+z
1/2-x,-y,1/2+z
1/2+x,1/2-y,1/2-z
1/2-x,y,1/2-z
1/2-x,1/2-y,1/2-z
1/2+x,y,1/2-z
1/2-x,1/2+y,1/2+z
1/2+x,-y,1/2+z
loop_
_atom_site_type_symbol
_atom_site_label
_atom_site_fract_x
_atom_site_fract_y
_atom_site_fract_z
Si Si1 0.500000 0.658695 0.970953
Si Si2 0.706865 0.750000 0.457046
Si Si3 0.000000 0.250000 0.107611
Si Si4 0.704084 0.591411 0.052707
O O1 0.500000 0.750000 0.045116
O O2 0.500000 0.675527 0.752152
O O3 0.593208 0.612852 0.036310
O O4 0.750000 0.750000 0.250000
O O5 0.594001 0.750000 0.484936
O O6 0.745684 0.667615 0.542744
O O7 0.750000 0.593773 0.250000
O O8 0.719565 0.500000 0.000000
#
# Coordination Sequence:
#
# PCOD9540049 Si02
#       4
#     8   8   4  16
#     4  10  23  42  70  97 139 181 225 292 335 407
#     4  10  23  44  67  97 136 177 229 280 338 408
#     4  10  24  42  76 102 132 180 238 276 358 400
#     4  11  25  43  70 100 141 182 233 283 344 406
#
# _framework density 20.777639000000001
#
# number of rings (size 3 to 8) (size 9 to 14) (size 15 to 20)
#    0.667    0.889    2.222    0.667    6.222    8.889 
#    0.000    2.222    0.000    0.000    0.000    0.000 
#    0.000    0.000    0.000    0.000    0.000    0.000 
#
# Total GULP energy -100222.817746 kJ/mol
# GULP energy per Si atom -5567.934319 kJ/mol
# Density = 2.073035 g / cm^3
# Si number density = 20.777639 Si / 1000 Ang^3
#
#
#
# Elastic Constant Matrix: (Units=GPa)
#
#
# Indices 1 2 3 4 5 6 
#
# 1 203.0558 61.2117 61.1975 0.0000 0.0000 0.0000
# 2 61.2117 239.7951 37.4979 0.0000 0.0000 0.0000
# 3 61.1975 37.4979 117.7983 0.0000 0.0000 0.0000
# 4 0.0000 0.0000 0.0000 -1.6585 0.0000 0.0000
# 5 0.0000 0.0000 0.0000 0.0000 -0.2631 0.0000
# 6 0.0000 0.0000 0.0000 0.0000 0.0000 -0.9563
#
#
#
# Elastic Compliance Matrix: (Units=1/GPa)
#
#
# Indices 1 2 3 4 5 6 
#
# 1 0.006112 -0.001119 -0.002819 0.000000 0.000000 0.000000
# 2 -0.001119 0.004594 -0.000881 0.000000 0.000000 0.000000
# 3 -0.002819 -0.000881 0.010234 0.000000 0.000000 0.000000
# 4 0.000000 0.000000 0.000000 -0.602961 0.000000 0.000000
# 5 0.000000 0.000000 0.000000 0.000000 -3.801449 0.000000
# 6 0.000000 0.000000 0.000000 0.000000 0.000000 -1.045737
#
#
# Mechanical properties :
#
#
# Convention : Reuss Voigt Hill
#
# Bulk Modulus (GPa) = 88.48414 97.82926 93.15670
# Shear Modulus (GPa) = -0.92322 26.14058 12.60868
#
# Velocity S-wave (km/s) = -0.66731 3.55083 2.46608
# Velocity P-wave (km/s) = 6.48729 7.99984 7.28294
#
# Compressibility (1/GPa) = 0.01130146
#
# Stress axis : x y z
#
# Youngs Moduli (GPa) = 163.62017 217.69020 97.71494
#
# Poissons Ratio (x) = 0.24367 0.27544
# Poissons Ratio (y) = 0.18314 0.08606
# Poissons Ratio (z) = 0.46121 0.19173
#
# Static dielectric constant tensor:
#      x y z
#    x 1.706120 0.000000 0.000000 
#    y 0.000000 1.839500 0.000000 
#    z 0.000000 0.000000 1.736790 
# 
# From -- ./inp_files/6575.got.cif
#   From: 2010.05.17/outbox.cif.g08.bks.cpg/sg74_4_cif.got.tgz:6575.got - 2010.06.03 17:57:02.
