data_PCOD9540877
_publ_section_title
;
Structure prediction by ZEFSAII (Michael W. Deem and Ramdas Pophale) SiO2 
 PCOD9540877
Probable space group: I M M A
;
_chemical_formula_sum "Si O2"
_cell_formula_units_Z 48
_cell_length_a 15.000000
_cell_length_b 15.000000
_cell_length_c 21.000000
_cell_angle_alpha 90.000000
_cell_angle_beta 90.000000
_cell_angle_gamma 90.000000
_cell_volume 4725.000000
_symmetry_space_group_name_H-M "I M M A"
_symmetry_group_IT_number 74
_symmetry_cell_setting 'orthorhombic'
loop_
_space_group_symop_operation_xyz
x,y,z
-x,1/2-y,z
x,-y,-z
-x,1/2+y,-z
-x,-y,-z
x,1/2+y,-z
-x,y,z
x,1/2-y,z
1/2+x,1/2+y,1/2+z
1/2-x,-y,1/2+z
1/2+x,1/2-y,1/2-z
1/2-x,y,1/2-z
1/2-x,1/2-y,1/2-z
1/2+x,y,1/2-z
1/2-x,1/2+y,1/2+z
1/2+x,-y,1/2+z
loop_
_atom_site_type_symbol
_atom_site_label
_atom_site_fract_x
_atom_site_fract_y
_atom_site_fract_z
Si Si1 0.287968 0.646124 0.601412
Si Si2 0.603782 0.600636 0.475591
Si Si3 0.100585 0.352122 0.363447
Si Si4 0.100594 0.904186 0.776554
Si Si5 0.894369 0.106377 0.728433
Si Si6 0.719398 0.851257 0.352074
O O1 0.280594 0.750000 0.618824
O O2 0.342114 0.642673 0.535226
O O3 0.186443 0.608383 0.600155
O O4 0.338818 0.602648 0.661310
O O5 0.595992 0.500000 0.500000
O O6 0.500000 0.633233 0.466163
O O7 0.663860 0.605329 0.411065
O O8 0.092551 0.250000 0.385021
O O9 0.124096 0.351455 0.287934
O O10 0.000000 0.392506 0.369450
O O11 0.000000 0.878101 0.795484
O O12 0.101015 0.004070 0.749899
O O13 0.817639 0.114999 0.672964
O O14 0.846740 0.149578 0.790539
O O15 0.000000 0.133886 0.716593
O O16 0.735012 0.750000 0.372843
#
# Coordination Sequence:
#
# PCOD9540877 Si02
#       6
#    16  16  16  16  16  16
#     4  11  22  35  58  88 120 162 201 240 291 351
#     4  11  25  43  63  87 119 159 197 240 297 358
#     4   9  19  34  52  80 119 160 201 242 288 344
#     4  10  20  33  55  86 120 156 196 243 295 345
#     4  10  22  39  62  91 120 154 197 248 302 355
#     4  11  24  40  63  91 118 156 198 247 303 348
#
# _framework density 10.15873
#
# number of rings (size 3 to 8) (size 9 to 14) (size 15 to 20)
#    0.000    1.667    0.000    4.500    7.000    9.000 
#    0.000    0.833    0.000    3.000    0.000    0.000 
#    0.000    0.000    0.000    0.000    0.000    0.000 
#
# Total GULP energy -267422.625389 kJ/mol
# GULP energy per Si atom -5571.304696 kJ/mol
# Density = 1.013561 g / cm^3
# Si number density = 10.158730 Si / 1000 Ang^3
#
#
#
# Elastic Constant Matrix: (Units=GPa)
#
#
# Indices 1 2 3 4 5 6 
#
# 1 210.5955 16.4294 87.0208 0.0000 0.0000 0.0000
# 2 16.4294 63.0668 11.3292 0.0000 0.0000 0.0000
# 3 87.0208 11.3292 107.6567 0.0000 0.0000 0.0000
# 4 0.0000 0.0000 0.0000 29.3023 0.0000 0.0000
# 5 0.0000 0.0000 0.0000 0.0000 35.3126 0.0000
# 6 0.0000 0.0000 0.0000 0.0000 0.0000 24.0047
#
#
#
# Elastic Compliance Matrix: (Units=1/GPa)
#
#
# Indices 1 2 3 4 5 6 
#
# 1 0.007174 -0.000843 -0.005710 0.000000 0.000000 0.000000
# 2 -0.000843 0.016261 -0.001030 0.000000 0.000000 0.000000
# 3 -0.005710 -0.001030 0.014013 0.000000 0.000000 0.000000
# 4 0.000000 0.000000 0.000000 0.034127 0.000000 0.000000
# 5 0.000000 0.000000 0.000000 0.000000 0.028319 0.000000
# 6 0.000000 0.000000 0.000000 0.000000 0.000000 0.041659
#
#
# Mechanical properties :
#
#
# Convention : Reuss Voigt Hill
#
# Bulk Modulus (GPa) = 44.87997 67.87531 56.37764
# Shear Modulus (GPa) = 30.46117 35.49321 32.97719
#
# Velocity S-wave (km/s) = 3.87623 4.18417 4.03314
# Velocity P-wave (km/s) = 6.49391 7.53810 7.03540
#
# Compressibility (1/GPa) = 0.02228165
#
# Stress axis : x y z
#
# Youngs Moduli (GPa) = 139.40032 61.49755 71.36484
#
# Poissons Ratio (x) = 0.05185 0.40748
# Poissons Ratio (y) = 0.11752 0.07349
# Poissons Ratio (z) = 0.79595 0.06333
#
# Static dielectric constant tensor:
#      x y z
#    x 1.802340 0.000000 0.000000 
#    y 0.000000 1.824450 0.000000 
#    z 0.000000 0.000000 1.685050 
# 
# From -- ./inp_files/51840.got.cif
#   From: 2010.05.17/outbox.ucp.g08.bks.cvg/sg74_26_cif.got.tgz:51840.got - 2010.06.11 16:37:44.
