data_PCOD9540389
_publ_section_title
;
Structure prediction by ZEFSAII (Michael W. Deem and Ramdas Pophale) SiO2 
 PCOD9540389
Probable space group: I M M A
;
_chemical_formula_sum "Si O2"
_cell_formula_units_Z 96
_cell_length_a 27.332043
_cell_length_b 23.400447
_cell_length_c 6.995457
_cell_angle_alpha 90.000000
_cell_angle_beta 90.000000
_cell_angle_gamma 90.000000
_cell_volume 4474.168544
_symmetry_space_group_name_H-M "I M M A"
_symmetry_group_IT_number 74
_symmetry_cell_setting 'orthorhombic'
loop_
_space_group_symop_operation_xyz
x,y,z
-x,1/2-y,z
x,-y,-z
-x,1/2+y,-z
-x,-y,-z
x,1/2+y,-z
-x,y,z
x,1/2-y,z
1/2+x,1/2+y,1/2+z
1/2-x,-y,1/2+z
1/2+x,1/2-y,1/2-z
1/2-x,y,1/2-z
1/2-x,1/2-y,1/2-z
1/2+x,y,1/2-z
1/2-x,1/2+y,1/2+z
1/2+x,-y,1/2+z
loop_
_atom_site_type_symbol
_atom_site_label
_atom_site_fract_x
_atom_site_fract_y
_atom_site_fract_z
Si Si1 0.628089 0.101841 0.134621
Si Si2 0.806954 0.998467 0.223512
Si Si3 0.056607 0.486139 0.270542
Si Si4 0.709616 0.684223 0.972242
Si Si5 0.120896 0.592961 0.217586
Si Si6 0.183346 0.816373 0.073714
O O1 0.663169 0.046259 0.165337
O O2 0.582266 0.075739 0.252439
O O3 0.667981 0.152326 0.149593
O O4 0.604869 0.115525 0.925076
O O5 0.750000 0.005333 0.250000
O O6 0.827175 0.936535 0.274188
O O7 0.817777 0.000000 0.000000
O O8 0.060520 0.500000 0.500000
O O9 0.085285 0.539579 0.173848
O O10 0.000000 0.485414 0.219093
O O11 0.711544 0.750000 0.913330
O O12 0.766025 0.662576 0.974654
O O13 0.694627 0.684374 0.196985
O O14 0.137004 0.640545 0.064961
O O15 0.173825 0.750000 0.021847
#
# Coordination Sequence:
#
# PCOD9540389 Si02
#       6
#    16  16  16  16  16  16
#     4   9  17  30  46  66  89 120 161 194 238 288
#     4  11  22  30  42  64  93 124 151 191 238 289
#     4   8  14  26  43  65  90 121 161 202 246 287
#     4   8  14  24  42  66  92 123 156 193 236 282
#     4   9  17  28  46  66  88 120 159 199 234 287
#     4   8  14  23  40  66  93 123 157 194 234 284
#
# _framework density 21.456500999999999
#
# number of rings (size 3 to 8) (size 9 to 14) (size 15 to 20)
#    0.000    3.167    0.000    3.500    7.000    0.000 
#    0.000    0.000    0.000   10.500    0.000    7.000 
#    0.000    0.000    0.000   12.000    0.000   13.333 
#
# Total GULP energy -267311.406492 kJ/mol
# GULP energy per Si atom -5568.987635 kJ/mol
# Density = 2.140767 g / cm^3
# Si number density = 21.456501 Si / 1000 Ang^3
#
#
#
# Elastic Constant Matrix: (Units=GPa)
#
#
# Indices 1 2 3 4 5 6 
#
# 1 146.5106 59.3470 18.1705 0.0000 0.0000 0.0000
# 2 59.3470 98.9270 14.9795 0.0000 0.0000 0.0000
# 3 18.1705 14.9795 90.7212 0.0000 0.0000 0.0000
# 4 0.0000 0.0000 0.0000 16.7485 0.0000 0.0000
# 5 0.0000 0.0000 0.0000 0.0000 15.0186 0.0000
# 6 0.0000 0.0000 0.0000 0.0000 0.0000 29.0326
#
#
#
# Elastic Compliance Matrix: (Units=1/GPa)
#
#
# Indices 1 2 3 4 5 6 
#
# 1 0.009095 -0.005313 -0.000944 0.000000 0.000000 0.000000
# 2 -0.005313 0.013471 -0.001160 0.000000 0.000000 0.000000
# 3 -0.000944 -0.001160 0.011403 0.000000 0.000000 0.000000
# 4 0.000000 0.000000 0.000000 0.059707 0.000000 0.000000
# 5 0.000000 0.000000 0.000000 0.000000 0.066584 0.000000
# 6 0.000000 0.000000 0.000000 0.000000 0.000000 0.034444
#
#
# Mechanical properties :
#
#
# Convention : Reuss Voigt Hill
#
# Bulk Modulus (GPa) = 52.26135 57.90588 55.08361
# Shear Modulus (GPa) = 23.15697 28.40405 25.78051
#
# Velocity S-wave (km/s) = 3.28876 3.64235 3.47006
# Velocity P-wave (km/s) = 6.23145 6.68843 6.46398
#
# Compressibility (1/GPa) = 0.01913460
#
# Stress axis : x y z
#
# Youngs Moduli (GPa) = 109.95425 74.23107 87.69247
#
# Poissons Ratio (x) = 0.39439 0.08281
# Poissons Ratio (y) = 0.58419 0.10174
# Poissons Ratio (z) = 0.10383 0.08612
#
# Static dielectric constant tensor:
#      x y z
#    x 1.763680 0.000000 0.000000 
#    y 0.000000 1.816060 0.000000 
#    z 0.000000 0.000000 2.021670 
# 
# From -- ./inp_files/15312.got.cif
#   From: 2010.05.17/outbox.cif.g08.bks.cpg/sg74_8_cif.got.tgz:15312.got - 2010.06.03 17:57:02.
