data_PCOD9540853
_publ_section_title
;
Structure prediction by ZEFSAII (Michael W. Deem and Ramdas Pophale) SiO2 
 PCOD9540853
Probable space group: I M M A
;
_chemical_formula_sum "Si O2"
_cell_formula_units_Z 56
_cell_length_a 24.000000
_cell_length_b 15.000000
_cell_length_c 15.000000
_cell_angle_alpha 90.000000
_cell_angle_beta 90.000000
_cell_angle_gamma 90.000000
_cell_volume 5400.000000
_symmetry_space_group_name_H-M "I M M A"
_symmetry_group_IT_number 74
_symmetry_cell_setting 'orthorhombic'
loop_
_space_group_symop_operation_xyz
x,y,z
-x,1/2-y,z
x,-y,-z
-x,1/2+y,-z
-x,-y,-z
x,1/2+y,-z
-x,y,z
x,1/2-y,z
1/2+x,1/2+y,1/2+z
1/2-x,-y,1/2+z
1/2+x,1/2-y,1/2-z
1/2-x,y,1/2-z
1/2-x,1/2-y,1/2-z
1/2+x,y,1/2-z
1/2-x,1/2+y,1/2+z
1/2+x,-y,1/2+z
loop_
_atom_site_type_symbol
_atom_site_label
_atom_site_fract_x
_atom_site_fract_y
_atom_site_fract_z
Si Si1 0.270622 0.106618 0.007325
Si Si2 0.625891 0.501084 0.716956
Si Si3 0.934750 0.645832 0.104166
Si Si4 0.435508 0.898778 0.033990
Si Si5 0.353082 0.147876 0.435452
Si Si6 0.373872 0.348789 0.135293
Si Si7 0.663234 0.851367 0.167468
O O1 0.209809 0.142539 0.028704
O O2 0.315221 0.132073 0.084357
O O3 0.292505 0.141693 0.912498
O O4 0.269278 0.000000 0.000000
O O5 0.581529 0.430324 0.676010
O O6 0.642165 0.569130 0.637658
O O7 0.612047 0.570863 0.796886
O O8 0.669730 0.430151 0.759996
O O9 0.926041 0.750000 0.133625
O O10 0.000000 0.637203 0.081772
O O11 0.896022 0.632171 0.017053
O O12 0.500000 0.887816 0.057568
O O13 0.395055 0.872130 0.115001
O O14 0.418030 0.846421 0.945307
O O15 0.425418 0.000000 0.000000
O O16 0.363199 0.250000 0.402737
O O17 0.371307 0.250000 0.177169
O O18 0.663401 0.750000 0.202606
#
# Coordination Sequence:
#
# PCOD9540853 Si02
#       7
#    16  16  16  16  16  16  16
#     4  11  20  42  68  95 133 179 221 263 326 398
#     4  12  23  41  62 100 131 165 212 272 333 395
#     4  10  24  48  73  96 127 171 226 285 343 400
#     4  10  19  36  59  87 126 175 221 258 311 386
#     4  11  25  45  70  97 126 170 225 275 331 403
#     4  11  22  38  61  92 135 179 217 267 323 387
#     4  11  22  39  64  94 131 173 216 267 325 388
#
# _framework density 10.370369999999999
#
# number of rings (size 3 to 8) (size 9 to 14) (size 15 to 20)
#    0.000    1.143    2.857    5.571    0.000    4.000 
#    2.571    1.429    0.000    6.000    0.000    0.000 
#    0.000    0.000    0.000    0.000    0.000    0.000 
#
# Total GULP energy -312864.530434 kJ/mol
# GULP energy per Si atom -5586.866615 kJ/mol
# Density = 1.034677 g / cm^3
# Si number density = 10.370370 Si / 1000 Ang^3
#
#
#
# Elastic Constant Matrix: (Units=GPa)
#
#
# Indices 1 2 3 4 5 6 
#
# 1 70.2701 23.7511 30.1263 0.0000 0.0000 0.0000
# 2 23.7511 191.1698 50.7252 0.0000 0.0000 0.0000
# 3 30.1263 50.7252 88.3276 0.0000 0.0000 0.0000
# 4 0.0000 0.0000 0.0000 31.4338 0.0000 0.0000
# 5 0.0000 0.0000 0.0000 0.0000 12.1365 0.0000
# 6 0.0000 0.0000 0.0000 0.0000 0.0000 26.1302
#
#
#
# Elastic Compliance Matrix: (Units=1/GPa)
#
#
# Indices 1 2 3 4 5 6 
#
# 1 0.016740 -0.000666 -0.005327 0.000000 0.000000 0.000000
# 2 -0.000666 0.006198 -0.003332 0.000000 0.000000 0.000000
# 3 -0.005327 -0.003332 0.015052 0.000000 0.000000 0.000000
# 4 0.000000 0.000000 0.000000 0.031813 0.000000 0.000000
# 5 0.000000 0.000000 0.000000 0.000000 0.082396 0.000000
# 6 0.000000 0.000000 0.000000 0.000000 0.000000 0.038270
#
#
# Mechanical properties :
#
#
# Convention : Reuss Voigt Hill
#
# Bulk Modulus (GPa) = 51.70888 62.10807 56.90848
# Shear Modulus (GPa) = 23.19480 30.28441 26.73961
#
# Velocity S-wave (km/s) = 3.34776 3.82532 3.59448
# Velocity P-wave (km/s) = 6.31890 7.03710 6.68765
#
# Compressibility (1/GPa) = 0.01933904
#
# Stress axis : x y z
#
# Youngs Moduli (GPa) = 59.73803 161.34557 66.43679
#
# Poissons Ratio (x) = 0.10751 0.35390
# Poissons Ratio (y) = 0.03981 0.22137
# Poissons Ratio (z) = 0.31821 0.53762
#
# Static dielectric constant tensor:
#      x y z
#    x 1.721540 0.000000 0.000000 
#    y 0.000000 1.774280 0.000000 
#    z 0.000000 0.000000 1.745140 
# 
# From -- ./inp_files/36535.got.cif
#   From: 2010.05.17/outbox.ucp.g08.bks.cvg/sg74_19_cif.got.tgz:36535.got - 2010.06.11 16:37:44.
