data_PCOD9540655
_publ_section_title
;
Structure prediction by ZEFSAII (Michael W. Deem and Ramdas Pophale) SiO2 
 PCOD9540655
Probable space group: I M M A
;
_chemical_formula_sum "Si O2"
_cell_formula_units_Z 88
_cell_length_a 19.848814
_cell_length_b 7.588942
_cell_length_c 28.907694
_cell_angle_alpha 90.000000
_cell_angle_beta 90.000000
_cell_angle_gamma 90.000000
_cell_volume 4354.409257
_symmetry_space_group_name_H-M "I M M A"
_symmetry_group_IT_number 74
_symmetry_cell_setting 'orthorhombic'
loop_
_space_group_symop_operation_xyz
x,y,z
-x,1/2-y,z
x,-y,-z
-x,1/2+y,-z
-x,-y,-z
x,1/2+y,-z
-x,y,z
x,1/2-y,z
1/2+x,1/2+y,1/2+z
1/2-x,-y,1/2+z
1/2+x,1/2-y,1/2-z
1/2-x,y,1/2-z
1/2-x,1/2-y,1/2-z
1/2+x,y,1/2-z
1/2-x,1/2+y,1/2+z
1/2+x,-y,1/2+z
loop_
_atom_site_type_symbol
_atom_site_label
_atom_site_fract_x
_atom_site_fract_y
_atom_site_fract_z
Si Si1 0.000000 0.456347 0.053477
Si Si2 0.674816 0.964518 0.153075
Si Si3 0.856203 0.543474 0.091481
Si Si4 0.576931 0.965457 0.229597
Si Si5 0.681946 0.965138 0.308165
Si Si6 0.219304 0.460954 0.551876
O O1 0.931034 0.526305 0.073962
O O2 0.000000 0.250000 0.060798
O O3 0.000000 0.500000 0.000000
O O4 0.676136 0.750000 0.152082
O O5 0.607523 0.017678 0.179874
O O6 0.739654 0.016375 0.184829
O O7 0.683764 0.023693 0.099710
O O8 0.841191 0.750000 0.095819
O O9 0.849610 0.473987 0.143233
O O10 0.796907 0.473604 0.058364
O O11 0.500000 0.023994 0.237506
O O12 0.575759 0.750000 0.231232
O O13 0.632334 0.023944 0.267465
O O14 0.682787 0.750000 0.304722
O O15 0.194640 0.500000 0.500000
O O16 0.217279 0.250000 0.554174
#
# Coordination Sequence:
#
# PCOD9540655 Si02
#       6
#     8  16  16  16  16  16
#     4  12  24  34  44  60  86 122 156 188 231 270
#     4   8  14  25  38  57  89 120 146 180 225 270
#     4   9  18  31  46  64  88 116 149 188 226 267
#     4   9  15  21  35  62  92 120 147 178 221 273
#     4   8  14  24  40  61  86 118 148 178 219 267
#     4   9  17  29  46  66  86 114 149 188 231 269
#
# _framework density 20.209399000000001
#
# number of rings (size 3 to 8) (size 9 to 14) (size 15 to 20)
#    0.000    3.091    0.000    4.091    1.273    4.364 
#    0.000    0.000    0.000    0.545    0.000    1.273 
#    0.000    5.818    0.000    0.000    0.000    0.000 
#
# Total GULP energy -245045.030373 kJ/mol
# GULP energy per Si atom -5569.205236 kJ/mol
# Density = 2.016340 g / cm^3
# Si number density = 20.209399 Si / 1000 Ang^3
#
#
#
# Elastic Constant Matrix: (Units=GPa)
#
#
# Indices 1 2 3 4 5 6 
#
# 1 75.5455 -1.4887 62.1479 0.0000 0.0000 0.0000
# 2 -1.4887 37.7006 6.4561 0.0000 0.0000 0.0000
# 3 62.1479 6.4561 131.7135 0.0000 0.0000 0.0000
# 4 0.0000 0.0000 0.0000 7.1945 0.0000 0.0000
# 5 0.0000 0.0000 0.0000 0.0000 15.7412 0.0000
# 6 0.0000 0.0000 0.0000 0.0000 0.0000 -12.7248
#
#
#
# Elastic Compliance Matrix: (Units=1/GPa)
#
#
# Indices 1 2 3 4 5 6 
#
# 1 0.021896 0.002656 -0.010461 0.000000 0.000000 0.000000
# 2 0.002656 0.027072 -0.002580 0.000000 0.000000 0.000000
# 3 -0.010461 -0.002580 0.012655 0.000000 0.000000 0.000000
# 4 0.000000 0.000000 0.000000 0.138995 0.000000 0.000000
# 5 0.000000 0.000000 0.000000 0.000000 0.063528 0.000000
# 6 0.000000 0.000000 0.000000 0.000000 0.000000 -0.078586
#
#
# Mechanical properties :
#
#
# Convention : Reuss Voigt Hill
#
# Bulk Modulus (GPa) = 24.47931 42.13226 33.30578
# Shear Modulus (GPa) = 22.73286 13.89845 18.31566
#
# Velocity S-wave (km/s) = 3.35754 2.62529 3.01374
# Velocity P-wave (km/s) = 5.21248 5.48477 5.35035
#
# Compressibility (1/GPa) = 0.04085083
#
# Stress axis : x y z
#
# Youngs Moduli (GPa) = 45.67137 36.93917 79.02111
#
# Poissons Ratio (x) = -0.09811 0.82667
# Poissons Ratio (y) = -0.12131 0.20389
# Poissons Ratio (z) = 0.47779 0.09531
#
# Static dielectric constant tensor:
#      x y z
#    x 1.608770 0.000000 0.000000 
#    y 0.000000 1.766520 0.000000 
#    z 0.000000 0.000000 1.737570 
# 
# From -- ./inp_files/70211.got.cif
#   From: 2010.05.17/outbox.cif.g08.bks.cpg/sg74_36_cif.got.tgz:70211.got - 2010.06.03 17:57:02.
