data_PCOD9540122
_publ_section_title
;
Structure prediction by ZEFSAII (Michael W. Deem and Ramdas Pophale) SiO2 
 PCOD9540122
Probable space group: I M M A
;
_chemical_formula_sum "Si O2"
_cell_formula_units_Z 64
_cell_length_a 20.588815
_cell_length_b 19.860824
_cell_length_c 7.715040
_cell_angle_alpha 90.000000
_cell_angle_beta 90.000000
_cell_angle_gamma 90.000000
_cell_volume 3154.763418
_symmetry_space_group_name_H-M "I M M A"
_symmetry_group_IT_number 74
_symmetry_cell_setting 'orthorhombic'
loop_
_space_group_symop_operation_xyz
x,y,z
-x,1/2-y,z
x,-y,-z
-x,1/2+y,-z
-x,-y,-z
x,1/2+y,-z
-x,y,z
x,1/2-y,z
1/2+x,1/2+y,1/2+z
1/2-x,-y,1/2+z
1/2+x,1/2-y,1/2-z
1/2-x,y,1/2-z
1/2-x,1/2-y,1/2-z
1/2+x,y,1/2-z
1/2-x,1/2+y,1/2+z
1/2+x,-y,1/2+z
loop_
_atom_site_type_symbol
_atom_site_label
_atom_site_fract_x
_atom_site_fract_y
_atom_site_fract_z
Si Si1 0.577477 0.172916 0.724019
Si Si2 0.424705 0.092426 0.386223
Si Si3 0.139954 0.827184 0.600463
Si Si4 0.683061 0.535094 0.822798
O O1 0.500000 0.166711 0.749787
O O2 0.590609 0.250000 0.667590
O O3 0.624128 0.963873 0.686498
O O4 0.611970 0.163136 0.907598
O O5 0.500000 0.072371 0.389913
O O6 0.404219 0.122148 0.571271
O O7 0.307497 0.114422 0.131210
O O8 0.160278 0.750000 0.621477
O O9 0.085840 0.847949 0.743485
O O10 0.750000 0.506581 0.750000
O O11 0.663162 0.500000 0.000000
#
# Coordination Sequence:
#
# PCOD9540122 Si02
#       4
#    16  16  16  16
#     4   9  16  29  54  91 130 162 189 230 297 366
#     4   9  19  35  60  93 124 157 198 245 297 355
#     4   9  19  35  60  93 124 157 198 245 297 355
#     4  10  24  43  63  83 118 168 206 252 309 368
#
# _framework density 20.286781000000001
#
# number of rings (size 3 to 8) (size 9 to 14) (size 15 to 20)
#    1.500    1.250    0.000    1.500    0.000    5.500 
#    0.000    0.000    0.000    7.500    0.000    0.000 
#    0.000    0.000    0.000    0.000    0.000    0.000 
#
# Total GULP energy -178227.214361 kJ/mol
# GULP energy per Si atom -5569.600449 kJ/mol
# Density = 2.024061 g / cm^3
# Si number density = 20.286781 Si / 1000 Ang^3
#
#
#
# Elastic Constant Matrix: (Units=GPa)
#
#
# Indices 1 2 3 4 5 6 
#
# 1 28.5114 18.4467 17.0445 0.0000 0.0000 0.0000
# 2 18.4467 68.5289 35.2970 0.0000 0.0000 0.0000
# 3 17.0445 35.2970 102.7254 0.0000 0.0000 0.0000
# 4 0.0000 0.0000 0.0000 35.8212 0.0000 0.0000
# 5 0.0000 0.0000 0.0000 0.0000 30.3284 0.0000
# 6 0.0000 0.0000 0.0000 0.0000 0.0000 11.1270
#
#
#
# Elastic Compliance Matrix: (Units=1/GPa)
#
#
# Indices 1 2 3 4 5 6 
#
# 1 0.043720 -0.009759 -0.003901 0.000000 0.000000 0.000000
# 2 -0.009759 0.019909 -0.005221 0.000000 0.000000 0.000000
# 3 -0.003901 -0.005221 0.012176 0.000000 0.000000 0.000000
# 4 0.000000 0.000000 0.000000 0.027916 0.000000 0.000000
# 5 0.000000 0.000000 0.000000 0.000000 0.032972 0.000000
# 6 0.000000 0.000000 0.000000 0.000000 0.000000 0.089872
#
#
# Mechanical properties :
#
#
# Convention : Reuss Voigt Hill
#
# Bulk Modulus (GPa) = 26.28707 37.92689 32.10698
# Shear Modulus (GPa) = 18.04994 24.05381 21.05188
#
# Velocity S-wave (km/s) = 2.98609 3.44712 3.22485
# Velocity P-wave (km/s) = 4.98746 5.88043 5.45226
#
# Compressibility (1/GPa) = 0.03804151
#
# Stress axis : x y z
#
# Youngs Moduli (GPa) = 22.87288 50.22890 82.12850
#
# Poissons Ratio (x) = 0.49021 0.32036
# Poissons Ratio (y) = 0.22323 0.42883
# Poissons Ratio (z) = 0.08922 0.26227
#
# Static dielectric constant tensor:
#      x y z
#    x 1.678180 0.000000 0.000000 
#    y 0.000000 1.758710 0.000000 
#    z 0.000000 0.000000 1.722400 
# 
# From -- ./inp_files/23481.got.cif
#   From: 2010.05.17/outbox.cif.g08.bks.cpg/sg74_12_cif.got.tgz:23481.got - 2010.06.03 17:57:02.
