data_PCOD9540570
_publ_section_title
;
Structure prediction by ZEFSAII (Michael W. Deem and Ramdas Pophale) SiO2 
 PCOD9540570
Probable space group: I M M A
;
_chemical_formula_sum "Si O2"
_cell_formula_units_Z 112
_cell_length_a 24.592514
_cell_length_b 15.161859
_cell_length_c 16.253147
_cell_angle_alpha 90.000000
_cell_angle_beta 90.000000
_cell_angle_gamma 90.000000
_cell_volume 6060.282149
_symmetry_space_group_name_H-M "I M M A"
_symmetry_group_IT_number 74
_symmetry_cell_setting 'orthorhombic'
loop_
_space_group_symop_operation_xyz
x,y,z
-x,1/2-y,z
x,-y,-z
-x,1/2+y,-z
-x,-y,-z
x,1/2+y,-z
-x,y,z
x,1/2-y,z
1/2+x,1/2+y,1/2+z
1/2-x,-y,1/2+z
1/2+x,1/2-y,1/2-z
1/2-x,y,1/2-z
1/2-x,1/2-y,1/2-z
1/2+x,y,1/2-z
1/2-x,1/2+y,1/2+z
1/2+x,-y,1/2+z
loop_
_atom_site_type_symbol
_atom_site_label
_atom_site_fract_x
_atom_site_fract_y
_atom_site_fract_z
Si Si1 0.170762 0.856538 0.682221
Si Si2 0.292059 0.149691 0.356280
Si Si3 0.763519 0.352847 0.653651
Si Si4 0.937121 0.856688 0.127226
Si Si5 0.667946 0.401240 0.528356
Si Si6 0.434956 0.850867 0.185198
Si Si7 0.361030 0.020070 0.904534
O O1 0.159958 0.750000 0.673985
O O2 0.229519 0.879906 0.640768
O O3 0.176446 0.887457 0.777549
O O4 0.131319 0.925214 0.638987
O O5 0.285429 0.250000 0.329791
O O6 0.322109 0.147967 0.442441
O O7 0.780018 0.250000 0.641026
O O8 0.750000 0.363953 0.750000
O O9 0.710378 0.369827 0.597436
O O10 0.809393 0.422750 0.627634
O O11 0.936189 0.750000 0.122321
O O12 0.892485 0.892630 0.064423
O O13 0.920438 0.878879 0.221151
O O14 0.000000 0.884395 0.113101
O O15 0.680202 0.500000 0.500000
O O16 0.500000 0.849625 0.182536
O O17 0.415685 0.750000 0.173431
O O18 0.410604 0.916606 0.119293
O O19 0.354654 0.000000 0.000000
#
# Coordination Sequence:
#
# PCOD9540570 Si02
#       7
#    16  16  16  16  16  16  16
#     4   9  20  36  54  76 112 159 197 229 272 343
#     4   9  18  34  53  72 104 155 199 226 264 334
#     4  11  24  39  57  84 122 159 192 239 299 350
#     4   9  19  38  61  82 109 148 193 241 292 345
#     4  12  23  32  53  87 117 151 187 239 288 345
#     4   9  20  41  66  87 111 150 194 237 295 360
#     4  12  24  35  58  90 119 149 186 247 298 349
#
# _framework density 18.480988
#
# number of rings (size 3 to 8) (size 9 to 14) (size 15 to 20)
#    0.000    1.857    0.000    6.429    6.000    5.143 
#    0.000    0.000    0.000    0.429    0.000    0.000 
#    0.000    0.000    0.000    0.000    0.000    0.000 
#
# Total GULP energy -312194.267182 kJ/mol
# GULP energy per Si atom -5574.897628 kJ/mol
# Density = 1.843892 g / cm^3
# Si number density = 18.480988 Si / 1000 Ang^3
#
#
#
# Elastic Constant Matrix: (Units=GPa)
#
#
# Indices 1 2 3 4 5 6 
#
# 1 44.2381 20.6282 36.0586 0.0000 0.0000 0.0000
# 2 20.6282 90.5896 47.2010 0.0000 0.0000 0.0000
# 3 36.0586 47.2010 115.4434 0.0000 0.0000 0.0000
# 4 0.0000 0.0000 0.0000 32.9087 0.0000 0.0000
# 5 0.0000 0.0000 0.0000 0.0000 22.1978 0.0000
# 6 0.0000 0.0000 0.0000 0.0000 0.0000 19.8185
#
#
#
# Elastic Compliance Matrix: (Units=1/GPa)
#
#
# Indices 1 2 3 4 5 6 
#
# 1 0.030779 -0.002541 -0.008575 0.000000 0.000000 0.000000
# 2 -0.002541 0.014237 -0.005027 0.000000 0.000000 0.000000
# 3 -0.008575 -0.005027 0.013396 0.000000 0.000000 0.000000
# 4 0.000000 0.000000 0.000000 0.030387 0.000000 0.000000
# 5 0.000000 0.000000 0.000000 0.000000 0.045049 0.000000
# 6 0.000000 0.000000 0.000000 0.000000 0.000000 0.050458
#
#
# Mechanical properties :
#
#
# Convention : Reuss Voigt Hill
#
# Bulk Modulus (GPa) = 38.27617 50.89408 44.58513
# Shear Modulus (GPa) = 22.19246 24.74389 23.46818
#
# Velocity S-wave (km/s) = 3.46905 3.66305 3.56737
# Velocity P-wave (km/s) = 6.06645 6.74455 6.41447
#
# Compressibility (1/GPa) = 0.02612591
#
# Stress axis : x y z
#
# Youngs Moduli (GPa) = 32.48938 70.24046 74.64826
#
# Poissons Ratio (x) = 0.17847 0.64011
# Poissons Ratio (y) = 0.08255 0.37528
# Poissons Ratio (z) = 0.27860 0.35312
#
# Static dielectric constant tensor:
#      x y z
#    x 1.653220 0.000000 0.000000 
#    y 0.000000 2.655820 0.000000 
#    z 0.000000 0.000000 1.675710 
# 
# From -- ./inp_files/32734.got.cif
#   From: 2010.05.17/outbox.cif.g08.bks.cpg/sg74_17_cif.got.tgz:32734.got - 2010.06.03 17:57:02.
