data_PCOD9540773
_publ_section_title
;
Structure prediction by ZEFSAII (Michael W. Deem and Ramdas Pophale) SiO2 
 PCOD9540773
Probable space group: I M M A
;
_chemical_formula_sum "Si O2"
_cell_formula_units_Z 96
_cell_length_a 22.127812
_cell_length_b 7.379374
_cell_length_c 25.611407
_cell_angle_alpha 90.000000
_cell_angle_beta 90.000000
_cell_angle_gamma 90.000000
_cell_volume 4182.071296
_symmetry_space_group_name_H-M "I M M A"
_symmetry_group_IT_number 74
_symmetry_cell_setting 'orthorhombic'
loop_
_space_group_symop_operation_xyz
x,y,z
-x,1/2-y,z
x,-y,-z
-x,1/2+y,-z
-x,-y,-z
x,1/2+y,-z
-x,y,z
x,1/2-y,z
1/2+x,1/2+y,1/2+z
1/2-x,-y,1/2+z
1/2+x,1/2-y,1/2-z
1/2-x,y,1/2-z
1/2-x,1/2-y,1/2-z
1/2+x,y,1/2-z
1/2-x,1/2+y,1/2+z
1/2+x,-y,1/2+z
loop_
_atom_site_type_symbol
_atom_site_label
_atom_site_fract_x
_atom_site_fract_y
_atom_site_fract_z
Si Si1 0.320783 0.970068 0.746172
Si Si2 0.165580 0.528638 0.636854
Si Si3 0.432383 0.966060 0.942615
Si Si4 0.933122 0.971278 0.826518
Si Si5 0.597239 0.533479 0.557878
Si Si6 0.734392 0.533711 0.557857
O O1 0.318128 0.750000 0.740443
O O2 0.250000 0.028272 0.750000
O O3 0.343146 0.021612 0.803650
O O4 0.371673 0.029580 0.704007
O O5 0.167509 0.750000 0.636354
O O6 0.110575 0.464106 0.601845
O O7 0.225817 0.467917 0.606312
O O8 0.500000 0.040393 0.940997
O O9 0.435804 0.750000 0.936152
O O10 0.407022 0.000000 0.000000
O O11 0.931925 0.750000 0.824890
O O12 0.930648 0.028773 0.887439
O O13 0.000000 0.024488 0.805432
O O14 0.571014 0.500000 0.500000
O O15 0.598604 0.750000 0.562129
O O16 0.666206 0.462192 0.557466
O O17 0.760761 0.500000 0.500000
O O18 0.730601 0.750000 0.563663
#
# Coordination Sequence:
#
# PCOD9540773 Si02
#       6
#    16  16  16  16  16  16
#     4   9  16  26  41  61  86 116 147 180 221 266
#     4   9  16  25  39  59  83 112 144 177 216 261
#     4   9  17  28  41  59  85 114 142 175 215 258
#     4   9  17  28  42  62  89 117 144 179 222 264
#     4   9  17  29  45  66  91 117 145 177 215 260
#     4   9  16  26  41  62  88 115 143 178 217 257
#
# _framework density 22.955134000000001
#
# number of rings (size 3 to 8) (size 9 to 14) (size 15 to 20)
#    0.000    3.000    0.000    1.500    0.000    5.000 
#    0.000    3.333    0.000    0.000    0.000    2.333 
#    0.000    8.667    0.000    0.000    0.000    0.000 
#
# Total GULP energy -267639.167899 kJ/mol
# GULP energy per Si atom -5575.815998 kJ/mol
# Density = 2.290289 g / cm^3
# Si number density = 22.955134 Si / 1000 Ang^3
#
#
#
# Elastic Constant Matrix: (Units=GPa)
#
#
# Indices 1 2 3 4 5 6 
#
# 1 158.0070 3.5227 91.6175 0.0000 0.0000 0.0000
# 2 3.5227 80.9004 -2.4662 0.0000 0.0000 0.0000
# 3 91.6175 -2.4662 169.2254 0.0000 0.0000 0.0000
# 4 0.0000 0.0000 0.0000 14.7318 0.0000 0.0000
# 5 0.0000 0.0000 0.0000 0.0000 40.5205 0.0000
# 6 0.0000 0.0000 0.0000 0.0000 0.0000 -2.6349
#
#
#
# Elastic Compliance Matrix: (Units=1/GPa)
#
#
# Indices 1 2 3 4 5 6 
#
# 1 0.009249 -0.000556 -0.005016 0.000000 0.000000 0.000000
# 2 -0.000556 0.012400 0.000482 0.000000 0.000000 0.000000
# 3 -0.005016 0.000482 0.008632 0.000000 0.000000 0.000000
# 4 0.000000 0.000000 0.000000 0.067880 0.000000 0.000000
# 5 0.000000 0.000000 0.000000 0.000000 0.024679 0.000000
# 6 0.000000 0.000000 0.000000 0.000000 0.000000 -0.379515
#
#
# Mechanical properties :
#
#
# Convention : Reuss Voigt Hill
#
# Bulk Modulus (GPa) = 49.74790 65.94231 57.84511
# Shear Modulus (GPa) = -20.85119 31.55406 5.35143
#
# Velocity S-wave (km/s) = -3.01715 3.71158 1.52850
# Velocity P-wave (km/s) = 3.09536 6.86707 5.32626
#
# Compressibility (1/GPa) = 0.02010135
#
# Stress axis : x y z
#
# Youngs Moduli (GPa) = 108.11402 80.64673 115.85114
#
# Poissons Ratio (x) = 0.04481 0.58108
# Poissons Ratio (y) = 0.06007 -0.05579
# Poissons Ratio (z) = 0.54227 -0.03883
#
# Static dielectric constant tensor:
#      x y z
#    x 1.881730 0.000000 0.000000 
#    y 0.000000 1.905520 0.000000 
#    z 0.000000 0.000000 1.817900 
# 
# From -- ./inp_files/41509.got.cif
#   From: 2010.05.17/outbox.cif.g08.bks.cpg/sg74_21_cif.got.tgz:41509.got - 2010.06.03 17:57:02.
