data_PCOD9540671
_publ_section_title
;
Structure prediction by ZEFSAII (Michael W. Deem and Ramdas Pophale) SiO2 
 PCOD9540671
Probable space group: I M M A
;
_chemical_formula_sum "Si O2"
_cell_formula_units_Z 40
_cell_length_a 18.911453
_cell_length_b 9.900069
_cell_length_c 9.101825
_cell_angle_alpha 90.000000
_cell_angle_beta 90.000000
_cell_angle_gamma 90.000000
_cell_volume 1704.086360
_symmetry_space_group_name_H-M "I M M A"
_symmetry_group_IT_number 74
_symmetry_cell_setting 'orthorhombic'
loop_
_space_group_symop_operation_xyz
x,y,z
-x,1/2-y,z
x,-y,-z
-x,1/2+y,-z
-x,-y,-z
x,1/2+y,-z
-x,y,z
x,1/2-y,z
1/2+x,1/2+y,1/2+z
1/2-x,-y,1/2+z
1/2+x,1/2-y,1/2-z
1/2-x,y,1/2-z
1/2-x,1/2-y,1/2-z
1/2+x,y,1/2-z
1/2-x,1/2+y,1/2+z
1/2+x,-y,1/2+z
loop_
_atom_site_type_symbol
_atom_site_label
_atom_site_fract_x
_atom_site_fract_y
_atom_site_fract_z
Si Si1 0.172053 0.250000 0.813280
Si Si2 0.117495 0.022159 0.347973
Si Si3 0.769683 0.250000 0.415909
Si Si4 0.000000 0.891803 0.872759
O O1 0.250000 0.250000 0.750000
O O2 0.138140 0.385386 0.742581
O O3 0.197919 0.250000 0.984661
O O4 0.180775 0.116286 0.416130
O O5 0.068085 0.097049 0.231451
O O6 0.076313 0.000000 0.500000
O O7 0.750000 0.250000 0.250000
O O8 0.000000 0.750000 0.953635
O O9 0.000000 0.000000 0.000000
#
# Coordination Sequence:
#
# PCOD9540671 Si02
#       4
#     8  16   8   8
#     4  12  26  47  76 119 157 194 256 316 385 468
#     4  12  26  50  79 109 152 204 257 322 388 468
#     4  12  28  45  74 113 159 202 248 308 391 466
#     4  12  31  54  76 108 150 202 269 326 390 455
#
# _framework density 23.472991
#
# number of rings (size 3 to 8) (size 9 to 14) (size 15 to 20)
#    0.000    0.000    6.000    1.800    8.400    0.000 
#    0.000    0.000    0.000    0.000    0.000    0.000 
#    0.000    0.000    0.000    0.000    0.000    0.000 
#
# Total GULP energy -111354.941434 kJ/mol
# GULP energy per Si atom -5567.747072 kJ/mol
# Density = 2.341957 g / cm^3
# Si number density = 23.472991 Si / 1000 Ang^3
#
#
#
# Elastic Constant Matrix: (Units=GPa)
#
#
# Indices 1 2 3 4 5 6 
#
# 1 72.7328 67.9966 33.7766 0.0000 0.0000 0.0000
# 2 67.9966 233.8057 66.9716 0.0000 0.0000 0.0000
# 3 33.7766 66.9716 195.4079 0.0000 0.0000 0.0000
# 4 0.0000 0.0000 0.0000 38.6820 0.0000 0.0000
# 5 0.0000 0.0000 0.0000 0.0000 19.0053 0.0000
# 6 0.0000 0.0000 0.0000 0.0000 0.0000 5.5841
#
#
#
# Elastic Compliance Matrix: (Units=1/GPa)
#
#
# Indices 1 2 3 4 5 6 
#
# 1 0.019306 -0.005166 -0.001567 0.000000 0.000000 0.000000
# 2 -0.005166 0.006125 -0.001206 0.000000 0.000000 0.000000
# 3 -0.001567 -0.001206 0.005802 0.000000 0.000000 0.000000
# 4 0.000000 0.000000 0.000000 0.025852 0.000000 0.000000
# 5 0.000000 0.000000 0.000000 0.000000 0.052617 0.000000
# 6 0.000000 0.000000 0.000000 0.000000 0.000000 0.179081
#
#
# Mechanical properties :
#
#
# Convention : Reuss Voigt Hill
#
# Bulk Modulus (GPa) = 65.12477 93.27066 79.19772
# Shear Modulus (GPa) = 16.14056 34.86773 25.50415
#
# Velocity S-wave (km/s) = 2.62510 3.85832 3.29983
# Velocity P-wave (km/s) = 6.08219 7.72466 6.95210
#
# Compressibility (1/GPa) = 0.01535514
#
# Stress axis : x y z
#
# Youngs Moduli (GPa) = 51.79738 163.26643 172.36331
#
# Poissons Ratio (x) = 0.84342 0.27002
# Poissons Ratio (y) = 0.26758 0.20791
# Poissons Ratio (z) = 0.08114 0.19694
#
# Static dielectric constant tensor:
#      x y z
#    x 1.679250 0.000000 0.000000 
#    y 0.000000 1.952400 0.000000 
#    z 0.000000 0.000000 2.155450 
# 
# From -- ./inp_files/5910.got.cif
#   From: 2010.05.17/outbox.cif.g08.bks.cpg/sg74_3_cif.got.tgz:5910.got - 2010.06.03 17:57:02.
