data_PCOD9540796
_publ_section_title
;
Structure prediction by ZEFSAII (Michael W. Deem and Ramdas Pophale) SiO2 
 PCOD9540796
Probable space group: I M M A
;
_chemical_formula_sum "Si O2"
_cell_formula_units_Z 56
_cell_length_a 27.000000
_cell_length_b 15.000000
_cell_length_c 15.000000
_cell_angle_alpha 90.000000
_cell_angle_beta 90.000000
_cell_angle_gamma 90.000000
_cell_volume 6075.000000
_symmetry_space_group_name_H-M "I M M A"
_symmetry_group_IT_number 74
_symmetry_cell_setting 'orthorhombic'
loop_
_space_group_symop_operation_xyz
x,y,z
-x,1/2-y,z
x,-y,-z
-x,1/2+y,-z
-x,-y,-z
x,1/2+y,-z
-x,y,z
x,1/2-y,z
1/2+x,1/2+y,1/2+z
1/2-x,-y,1/2+z
1/2+x,1/2-y,1/2-z
1/2-x,y,1/2-z
1/2-x,1/2-y,1/2-z
1/2+x,y,1/2-z
1/2-x,1/2+y,1/2+z
1/2+x,-y,1/2+z
loop_
_atom_site_type_symbol
_atom_site_label
_atom_site_fract_x
_atom_site_fract_y
_atom_site_fract_z
Si Si1 0.180909 0.146395 0.446859
Si Si2 0.297716 0.647121 0.140961
Si Si3 0.443275 0.140538 0.369496
Si Si4 0.692213 0.082461 0.666765
Si Si5 0.375274 0.352757 0.523300
Si Si6 0.710025 0.117717 0.377501
Si Si7 0.634948 0.647237 0.773817
O O1 0.166509 0.250000 0.458788
O O2 0.184052 0.108970 0.546597
O O3 0.236079 0.147904 0.405757
O O4 0.146373 0.105934 0.369885
O O5 0.313637 0.750000 0.152631
O O6 0.313574 0.591647 0.227544
O O7 0.237579 0.647187 0.140737
O O8 0.500000 0.115471 0.357589
O O9 0.440185 0.250000 0.370192
O O10 0.420409 0.111475 0.464176
O O11 0.407239 0.107915 0.290336
O O12 0.642508 0.099766 0.612276
O O13 0.711916 0.987602 0.635860
O O14 0.384736 0.250000 0.545011
O O15 0.328639 0.358098 0.455288
O O16 0.684949 0.149654 0.285832
O O17 0.620646 0.750000 0.789311
#
# Coordination Sequence:
#
# PCOD9540796 Si02
#       7
#    16  16  16  16  16  16  16
#     4  10  19  31  47  65  92 130 164 194 230 282
#     4  10  21  34  46  60  88 130 171 197 223 265
#     4   8  15  29  50  75  96 116 151 200 250 299
#     4  11  21  31  44  65  91 128 166 202 227 263
#     4  10  18  31  50  68  93 128 160 193 238 289
#     4  11  20  29  43  67  97 124 157 195 232 274
#     4   9  18  30  47  68  94 124 152 188 242 295
#
# _framework density 9.2181069999999998
#
# number of rings (size 3 to 8) (size 9 to 14) (size 15 to 20)
#    0.000    2.143    1.429    4.714    4.000    1.143 
#    0.000    0.000    0.000    6.857    0.000    1.000 
#    0.000   10.286    0.000    0.000    0.000    0.000 
#
# Total GULP energy -312146.821842 kJ/mol
# GULP energy per Si atom -5574.050390 kJ/mol
# Density = 0.919713 g / cm^3
# Si number density = 9.218107 Si / 1000 Ang^3
#
#
#
# Elastic Constant Matrix: (Units=GPa)
#
#
# Indices 1 2 3 4 5 6 
#
# 1 55.7470 -7.1844 41.1131 0.0000 0.0000 0.0000
# 2 -7.1844 47.1705 4.5868 0.0000 0.0000 0.0000
# 3 41.1131 4.5868 143.4488 0.0000 0.0000 0.0000
# 4 0.0000 0.0000 0.0000 -16.2294 0.0000 0.0000
# 5 0.0000 0.0000 0.0000 0.0000 14.4698 0.0000
# 6 0.0000 0.0000 0.0000 0.0000 0.0000 -16.7863
#
#
#
# Elastic Compliance Matrix: (Units=1/GPa)
#
#
# Indices 1 2 3 4 5 6 
#
# 1 0.023570 0.004260 -0.006891 0.000000 0.000000 0.000000
# 2 0.004260 0.022036 -0.001926 0.000000 0.000000 0.000000
# 3 -0.006891 -0.001926 0.009008 0.000000 0.000000 0.000000
# 4 0.000000 0.000000 0.000000 -0.061617 0.000000 0.000000
# 5 0.000000 0.000000 0.000000 0.000000 0.069109 0.000000
# 6 0.000000 0.000000 0.000000 0.000000 0.000000 -0.059572
#
#
# Mechanical properties :
#
#
# Convention : Reuss Voigt Hill
#
# Bulk Modulus (GPa) = 21.97841 35.93303 28.95572
# Shear Modulus (GPa) = 186.47028 10.14753 98.30891
#
# Velocity S-wave (km/s) = 10.06792 2.34863 7.31024
# Velocity P-wave (km/s) = 12.12839 5.18532 9.32699
#
# Compressibility (1/GPa) = 0.04549920
#
# Stress axis : x y z
#
# Youngs Moduli (GPa) = 42.42770 45.38077 111.01499
#
# Poissons Ratio (x) = -0.19332 0.76504
# Poissons Ratio (y) = -0.18074 0.21376
# Poissons Ratio (z) = 0.29238 0.08738
#
# Static dielectric constant tensor:
#      x y z
#    x 1.615500 0.000000 0.000000 
#    y 0.000000 1.739450 0.000000 
#    z 0.000000 0.000000 1.687640 
# 
# From -- ./inp_files/32885.got.cif
#   From: 2010.05.17/outbox.ucp.g08.bks.cvg/sg74_17_cif.got.tgz:32885.got - 2010.06.11 16:37:44.
