data_PCOD9540352
_publ_section_title
;
Structure prediction by ZEFSAII (Michael W. Deem and Ramdas Pophale) SiO2 
 PCOD9540352
Probable space group: I M M A
;
_chemical_formula_sum "Si O2"
_cell_formula_units_Z 88
_cell_length_a 8.501630
_cell_length_b 17.829924
_cell_length_c 29.556613
_cell_angle_alpha 90.000000
_cell_angle_beta 90.000000
_cell_angle_gamma 90.000000
_cell_volume 4480.292387
_symmetry_space_group_name_H-M "I M M A"
_symmetry_group_IT_number 74
_symmetry_cell_setting 'orthorhombic'
loop_
_space_group_symop_operation_xyz
x,y,z
-x,1/2-y,z
x,-y,-z
-x,1/2+y,-z
-x,-y,-z
x,1/2+y,-z
-x,y,z
x,1/2-y,z
1/2+x,1/2+y,1/2+z
1/2-x,-y,1/2+z
1/2+x,1/2-y,1/2-z
1/2-x,y,1/2-z
1/2-x,1/2-y,1/2-z
1/2+x,y,1/2-z
1/2-x,1/2+y,1/2+z
1/2+x,-y,1/2+z
loop_
_atom_site_type_symbol
_atom_site_label
_atom_site_fract_x
_atom_site_fract_y
_atom_site_fract_z
Si Si1 0.307903 0.837671 0.544474
Si Si2 0.813698 0.022778 0.701028
Si Si3 0.818120 0.841355 0.053343
Si Si4 0.187590 0.750000 0.698650
Si Si5 0.309070 0.663052 0.346999
Si Si6 0.188695 0.608954 0.858781
O O1 0.500000 0.839746 0.542454
O O2 0.265028 0.750000 0.550318
O O3 0.249353 0.864727 0.495184
O O4 0.257916 0.881299 0.589215
O O5 0.750000 0.999849 0.750000
O O6 0.759212 0.106658 0.689352
O O7 0.000000 0.017330 0.700898
O O8 0.742861 0.967955 0.663443
O O9 0.821101 0.750000 0.052114
O O10 0.750860 0.860449 0.102496
O O11 0.000000 0.867010 0.054085
O O12 0.250000 0.750000 0.750000
O O13 0.246853 0.677189 0.671462
O O14 0.000000 0.750000 0.699817
O O15 0.500000 0.658864 0.347032
O O16 0.267027 0.750000 0.339534
O O17 0.000000 0.613250 0.858394
#
# Coordination Sequence:
#
# PCOD9540352 Si02
#       6
#    16  16  16   8  16  16
#     4   8  13  25  50  85 117 147 186 231 273 316
#     4  12  26  43  60  80 110 149 189 237 293 348
#     4   7  11  23  49  85 118 144 178 226 272 318
#     4  12  24  38  56  80 112 150 196 242 287 340
#     4   9  18  36  63  92 117 144 183 232 281 336
#     4  11  21  37  59  85 115 150 193 240 285 331
#
# _framework density 19.641575
#
# number of rings (size 3 to 8) (size 9 to 14) (size 15 to 20)
#    0.000    2.364    0.909    5.727    0.000    0.727 
#    0.000    0.909    0.000    7.636    0.000    0.000 
#    0.000    0.000    0.000    0.000    0.000    0.000 
#
# Total GULP energy -245444.376198 kJ/mol
# GULP energy per Si atom -5578.281277 kJ/mol
# Density = 1.959687 g / cm^3
# Si number density = 19.641575 Si / 1000 Ang^3
#
#
#
# Elastic Constant Matrix: (Units=GPa)
#
#
# Indices 1 2 3 4 5 6 
#
# 1 51.2717 10.5339 0.4450 0.0000 0.0000 0.0000
# 2 10.5339 37.8801 -6.4081 0.0001 0.0000 0.0000
# 3 0.4450 -6.4081 30.3403 0.0001 0.0000 0.0000
# 4 0.0000 0.0001 0.0001 -325.1544 0.0000 -0.0001
# 5 0.0000 0.0000 0.0000 0.0000 14.0293 0.0000
# 6 0.0000 0.0000 0.0000 -0.0001 0.0000 -22.3559
#
#
#
# Elastic Compliance Matrix: (Units=1/GPa)
#
#
# Indices 1 2 3 4 5 6 
#
# 1 0.020759 -0.006040 -0.001580 0.000000 0.000000 0.000000
# 2 -0.006040 0.029135 0.006242 0.000000 0.000000 0.000000
# 3 -0.001580 0.006242 0.034301 0.000000 0.000000 0.000000
# 4 0.000000 0.000000 0.000000 -0.003075 0.000000 0.000000
# 5 0.000000 0.000000 0.000000 0.000000 0.071279 0.000000
# 6 0.000000 0.000000 0.000000 0.000000 0.000000 -0.044731
#
#
# Mechanical properties :
#
#
# Convention : Reuss Voigt Hill
#
# Bulk Modulus (GPa) = 12.27927 14.29264 13.28596
# Shear Modulus (GPa) = 36.34532 -59.03477 -11.34472
#
# Velocity S-wave (km/s) = 4.30633 -5.48829 -2.40591
# Velocity P-wave (km/s) = 5.56697 5.73316 0.96902
#
# Compressibility (1/GPa) = 0.08143808
#
# Stress axis : x y z
#
# Youngs Moduli (GPa) = 48.17286 34.32336 29.15364
#
# Poissons Ratio (x) = 0.20731 0.04607
# Poissons Ratio (y) = 0.29096 -0.18198
# Poissons Ratio (z) = 0.07612 -0.21425
#
# Static dielectric constant tensor:
#      x y z
#    x 1.679850 0.000000 0.000000 
#    y 0.000000 1.673230 0.000000 
#    z 0.000000 0.000000 1.721290 
# 
# From -- ./inp_files/70238.got.cif
#   From: 2010.05.17/outbox.cif.g08.bks.cpg/sg74_36_cif.got.tgz:70238.got - 2010.06.03 17:57:02.
