data_PCOD9540664
_publ_section_title
;
Structure prediction by ZEFSAII (Michael W. Deem and Ramdas Pophale) SiO2 
 PCOD9540664
Probable space group: I M M A
;
_chemical_formula_sum "Si O2"
_cell_formula_units_Z 60
_cell_length_a 23.151760
_cell_length_b 13.447084
_cell_length_c 8.994564
_cell_angle_alpha 90.000000
_cell_angle_beta 90.000000
_cell_angle_gamma 90.000000
_cell_volume 2800.220598
_symmetry_space_group_name_H-M "I M M A"
_symmetry_group_IT_number 74
_symmetry_cell_setting 'orthorhombic'
loop_
_space_group_symop_operation_xyz
x,y,z
-x,1/2-y,z
x,-y,-z
-x,1/2+y,-z
-x,-y,-z
x,1/2+y,-z
-x,y,z
x,1/2-y,z
1/2+x,1/2+y,1/2+z
1/2-x,-y,1/2+z
1/2+x,1/2-y,1/2-z
1/2-x,y,1/2-z
1/2-x,1/2-y,1/2-z
1/2+x,y,1/2-z
1/2-x,1/2+y,1/2+z
1/2+x,-y,1/2+z
loop_
_atom_site_type_symbol
_atom_site_label
_atom_site_fract_x
_atom_site_fract_y
_atom_site_fract_z
Si Si1 0.500000 0.035682 0.830833
Si Si2 0.883978 0.250000 0.337317
Si Si3 0.069330 0.750000 0.002503
Si Si4 0.500000 0.750000 0.039741
Si Si5 0.196554 0.555237 0.649347
Si Si6 0.110266 0.050638 0.846187
O O1 0.500000 0.153878 0.855459
O O2 0.444640 0.002608 0.737802
O O3 0.500000 0.000000 0.000000
O O4 0.846168 0.150259 0.370467
O O5 0.942394 0.250000 0.437009
O O6 0.902086 0.250000 0.162371
O O7 0.090338 0.842422 0.100086
O O8 0.000000 0.750000 0.984538
O O9 0.215911 0.500000 0.500000
O O10 0.250000 0.588766 0.750000
O O11 0.162309 0.468006 0.735855
O O12 0.125481 0.000000 0.000000
#
# Coordination Sequence:
#
# PCOD9540664 Si02
#       6
#     8   8   8   4  16  16
#     4  12  25  38  65 103 147 185 225 287 355 417
#     4  12  25  47  75 107 147 188 233 303 364 423
#     4  12  25  43  73 113 147 184 240 288 364 434
#     4  12  24  42  66 104 144 182 226 286 360 426
#     4  12  28  51  75 105 141 189 245 297 357 426
#     4  12  24  44  70 103 146 187 238 293 353 425
#
# _framework density 21.426884999999999
#
# number of rings (size 3 to 8) (size 9 to 14) (size 15 to 20)
#    0.000    0.000    4.667    6.400    0.000    1.067 
#    0.000    1.333    0.000    0.000    0.000    0.000 
#    0.000    0.000    0.000    0.000    0.000    0.000 
#
# Total GULP energy -167797.792796 kJ/mol
# GULP energy per Si atom -5593.259760 kJ/mol
# Density = 2.137812 g / cm^3
# Si number density = 21.426885 Si / 1000 Ang^3
#
#
#
# Elastic Constant Matrix: (Units=GPa)
#
#
# Indices 1 2 3 4 5 6 
#
# 1 105.7039 10.4150 21.4386 0.0000 0.0000 0.0000
# 2 10.4150 84.0824 1.9994 0.0000 0.0000 0.0000
# 3 21.4386 1.9994 103.1730 0.0000 0.0000 0.0000
# 4 0.0000 0.0000 0.0000 21.6805 0.0000 0.0000
# 5 0.0000 0.0000 0.0000 0.0000 36.6681 0.0000
# 6 0.0000 0.0000 0.0000 0.0000 0.0000 -275.2985
#
#
#
# Elastic Compliance Matrix: (Units=1/GPa)
#
#
# Indices 1 2 3 4 5 6 
#
# 1 0.009994 -0.001189 -0.002054 0.000000 0.000000 0.000000
# 2 -0.001189 0.012040 0.000014 0.000000 0.000000 0.000000
# 3 -0.002054 0.000014 0.010119 0.000000 0.000000 0.000000
# 4 0.000000 0.000000 0.000000 0.046124 0.000000 0.000000
# 5 0.000000 0.000000 0.000000 0.000000 0.027272 0.000000
# 6 0.000000 0.000000 0.000000 0.000000 0.000000 -0.003632
#
#
# Mechanical properties :
#
#
# Convention : Reuss Voigt Hill
#
# Bulk Modulus (GPa) = 38.91798 40.07394 39.49596
# Shear Modulus (GPa) = 42.75711 -26.11623 8.32044
#
# Velocity S-wave (km/s) = 4.47194 -3.49500 1.97272
# Velocity P-wave (km/s) = 6.69827 1.56735 4.86433
#
# Compressibility (1/GPa) = 0.02569506
#
# Stress axis : x y z
#
# Youngs Moduli (GPa) = 100.05931 83.05611 98.82473
#
# Poissons Ratio (x) = 0.09876 0.20295
# Poissons Ratio (y) = 0.11898 -0.00136
# Poissons Ratio (z) = 0.20549 -0.00114
#
# Static dielectric constant tensor:
#      x y z
#    x 1.794620 0.000000 0.000000 
#    y 0.000000 1.708280 0.000000 
#    z 0.000000 0.000000 1.755880 
# 
# From -- ./inp_files/8744.got.cif
#   From: 2010.05.17/outbox.cif.g08.bks.cpg/sg74_5_cif.got.tgz:8744.got - 2010.06.03 17:57:02.
