data_PCOD9540365
_publ_section_title
;
Structure prediction by ZEFSAII (Michael W. Deem and Ramdas Pophale) SiO2 
 PCOD9540365
Probable space group: I M M A
;
_chemical_formula_sum "Si O2"
_cell_formula_units_Z 96
_cell_length_a 15.908735
_cell_length_b 22.792062
_cell_length_c 14.727783
_cell_angle_alpha 90.000000
_cell_angle_beta 90.000000
_cell_angle_gamma 90.000000
_cell_volume 5340.189172
_symmetry_space_group_name_H-M "I M M A"
_symmetry_group_IT_number 74
_symmetry_cell_setting 'orthorhombic'
loop_
_space_group_symop_operation_xyz
x,y,z
-x,1/2-y,z
x,-y,-z
-x,1/2+y,-z
-x,-y,-z
x,1/2+y,-z
-x,y,z
x,1/2-y,z
1/2+x,1/2+y,1/2+z
1/2-x,-y,1/2+z
1/2+x,1/2-y,1/2-z
1/2-x,y,1/2-z
1/2-x,1/2-y,1/2-z
1/2+x,y,1/2-z
1/2-x,1/2+y,1/2+z
1/2+x,-y,1/2+z
loop_
_atom_site_type_symbol
_atom_site_label
_atom_site_fract_x
_atom_site_fract_y
_atom_site_fract_z
Si Si1 0.599599 0.750000 0.755080
Si Si2 0.810469 0.634365 0.519369
Si Si3 0.905377 0.971529 0.600631
Si Si4 0.099020 0.750000 0.528350
Si Si5 0.405334 0.513967 0.608371
Si Si6 0.681274 0.132293 0.325952
Si Si7 0.260634 0.557670 0.153469
O O1 0.500000 0.750000 0.741025
O O2 0.615999 0.750000 0.863106
O O3 0.637591 0.809542 0.713329
O O4 0.871388 0.593485 0.581031
O O5 0.859715 0.691657 0.489854
O O6 0.732835 0.649142 0.583946
O O7 0.779955 0.597939 0.432679
O O8 0.000000 0.971717 0.638262
O O9 0.908857 0.000000 0.500000
O O10 0.836267 0.009550 0.653937
O O11 0.000000 0.750000 0.514572
O O12 0.406316 0.500000 0.500000
O O13 0.500000 0.500386 0.640854
O O14 0.380210 0.579549 0.642579
O O15 0.327211 0.475138 0.639847
O O16 0.750000 0.112527 0.250000
O O17 0.250000 0.588981 0.250000
#
# Coordination Sequence:
#
# PCOD9540365 Si02
#       7
#     8  16  16   8  16  16  16
#     4  11  24  38  56  90 121 153 198 239 298 367
#     4  11  21  38  59  84 119 155 197 241 298 356
#     4   9  18  34  58  85 116 150 190 242 301 354
#     4  11  23  39  60  89 118 151 193 242 304 370
#     4  11  22  38  58  84 121 165 205 244 292 351
#     4  12  21  38  59  86 121 159 195 241 300 356
#     4  11  22  39  58  85 118 158 204 250 293 347
#
# _framework density 17.976890999999998
#
# number of rings (size 3 to 8) (size 9 to 14) (size 15 to 20)
#    0.000    1.167    5.000    2.750    0.000    1.333 
#    0.000    0.417    0.000    0.000    0.000    1.167 
#    0.000    0.000    0.000    0.000    0.000    0.000 
#
# Total GULP energy -267912.774131 kJ/mol
# GULP energy per Si atom -5581.516128 kJ/mol
# Density = 1.793597 g / cm^3
# Si number density = 17.976891 Si / 1000 Ang^3
#
#
#
# Elastic Constant Matrix: (Units=GPa)
#
#
# Indices 1 2 3 4 5 6 
#
# 1 143.4443 51.2070 41.4210 0.0000 0.0000 0.0000
# 2 51.2070 94.3587 17.9805 -0.0001 0.0000 0.0000
# 3 41.4210 17.9805 76.7805 -0.0002 0.0000 0.0000
# 4 0.0000 -0.0001 -0.0002 17.4128 0.0000 0.0000
# 5 0.0000 0.0000 0.0000 0.0000 0.2988 0.0000
# 6 0.0000 0.0000 0.0000 0.0000 0.0000 21.7220
#
#
#
# Elastic Compliance Matrix: (Units=1/GPa)
#
#
# Indices 1 2 3 4 5 6 
#
# 1 0.009805 -0.004515 -0.004232 0.000000 -0.000001 0.000000
# 2 -0.004515 0.013172 -0.000649 0.000000 0.000001 0.000000
# 3 -0.004232 -0.000649 0.015459 0.000000 0.000001 0.000000
# 4 0.000000 0.000000 0.000000 0.057429 0.000002 0.000000
# 5 -0.000001 0.000001 0.000001 0.000002 3.346986 0.000000
# 6 0.000000 0.000000 0.000000 0.000000 0.000000 0.046036
#
#
# Mechanical properties :
#
#
# Convention : Reuss Voigt Hill
#
# Bulk Modulus (GPa) = 50.90593 59.53339 55.21966
# Shear Modulus (GPa) = 1.42279 21.48506 11.45392
#
# Velocity S-wave (km/s) = 0.89060 3.46084 2.52692
# Velocity P-wave (km/s) = 5.42554 7.01131 6.26877
#
# Compressibility (1/GPa) = 0.01964408
#
# Stress axis : x y z
#
# Youngs Moduli (GPa) = 101.98762 75.92132 64.68570
#
# Poissons Ratio (x) = 0.34275 0.27377
# Poissons Ratio (y) = 0.46043 0.04198
# Poissons Ratio (z) = 0.43165 0.04927
#
# Static dielectric constant tensor:
#      x y z
#    x 1.627600 0.000000 0.000000 
#    y 0.000000 1.609910 0.000000 
#    z 0.000000 0.000000 1.625930 
# 
# From -- ./inp_files/32434.got.cif
#   From: 2010.05.17/outbox.cif.g08.bks.cpg/sg74_17_cif.got.tgz:32434.got - 2010.06.03 17:57:02.
