data_PCOD9540916
_publ_section_title
;
Structure prediction by ZEFSAII (Michael W. Deem and Ramdas Pophale) SiO2 
 PCOD9540916
Probable space group: I M M A
;
_chemical_formula_sum "Si O2"
_cell_formula_units_Z 44
_cell_length_a 12.000000
_cell_length_b 21.000000
_cell_length_c 18.000000
_cell_angle_alpha 90.000000
_cell_angle_beta 90.000000
_cell_angle_gamma 90.000000
_cell_volume 4536.000000
_symmetry_space_group_name_H-M "I M M A"
_symmetry_group_IT_number 74
_symmetry_cell_setting 'orthorhombic'
loop_
_space_group_symop_operation_xyz
x,y,z
-x,1/2-y,z
x,-y,-z
-x,1/2+y,-z
-x,-y,-z
x,1/2+y,-z
-x,y,z
x,1/2-y,z
1/2+x,1/2+y,1/2+z
1/2-x,-y,1/2+z
1/2+x,1/2-y,1/2-z
1/2-x,y,1/2-z
1/2-x,1/2-y,1/2-z
1/2+x,y,1/2-z
1/2-x,1/2+y,1/2+z
1/2+x,-y,1/2+z
loop_
_atom_site_type_symbol
_atom_site_label
_atom_site_fract_x
_atom_site_fract_y
_atom_site_fract_z
Si Si1 0.632648 0.500803 0.086536
Si Si2 0.190894 0.322987 0.023610
Si Si3 0.127887 0.140352 0.587955
Si Si4 0.000000 0.025211 0.127874
Si Si5 0.629030 0.750000 0.209130
Si Si6 0.000000 0.906505 0.034445
Si Si7 0.285139 0.097337 0.331410
O O1 0.500000 0.493596 0.089888
O O2 0.668015 0.570773 0.113082
O O3 0.689282 0.445561 0.132290
O O4 0.668293 0.500000 0.000000
O O5 0.158793 0.250000 0.022609
O O6 0.189528 0.348777 0.107532
O O7 0.308264 0.333695 0.983586
O O8 0.107812 0.363085 0.972260
O O9 0.132935 0.189149 0.655120
O O10 0.000000 0.131499 0.565414
O O11 0.892493 0.051172 0.170157
O O12 0.000000 0.951322 0.106088
O O13 0.000000 0.055887 0.044657
O O14 0.500000 0.750000 0.243569
O O15 0.750000 0.750000 0.250000
O O16 0.250000 0.119689 0.250000
#
# Coordination Sequence:
#
# PCOD9540916 Si02
#       7
#    16  16  16   8   8   8  16
#     4  10  20  36  63  91 116 152 202 255 301 359
#     4  11  21  37  61  90 120 159 211 251 297 365
#     4  10  20  37  62  90 119 155 201 255 304 358
#     4   9  20  38  60  84 119 158 198 248 314 368
#     4  10  22  42  64  90 131 166 202 256 323 386
#     4   9  19  36  62  90 113 151 200 258 302 357
#     4  11  24  38  60  88 128 163 198 252 315 369
#
# _framework density 9.7001760000000008
#
# number of rings (size 3 to 8) (size 9 to 14) (size 15 to 20)
#    0.000    1.818    2.727    1.364    3.818    1.091 
#    1.636    0.000    0.000    0.000    0.000    0.000 
#    0.000    0.000    0.000    0.000    0.000    0.000 
#
# Total GULP energy -245324.748153 kJ/mol
# GULP energy per Si atom -5575.562458 kJ/mol
# Density = 0.967810 g / cm^3
# Si number density = 9.700176 Si / 1000 Ang^3
#
#
#
# Elastic Constant Matrix: (Units=GPa)
#
#
# Indices 1 2 3 4 5 6 
#
# 1 86.8449 22.9634 34.6515 0.0000 0.0000 0.0000
# 2 22.9634 86.3087 -5.8492 0.0000 0.0000 0.0000
# 3 34.6515 -5.8492 32.8557 0.0000 0.0000 0.0000
# 4 0.0000 0.0000 0.0000 15.6010 0.0000 0.0000
# 5 0.0000 0.0000 0.0000 0.0000 7.1107 0.0000
# 6 0.0000 0.0000 0.0000 0.0000 0.0000 1.5165
#
#
#
# Elastic Compliance Matrix: (Units=1/GPa)
#
#
# Indices 1 2 3 4 5 6 
#
# 1 0.024785 -0.008468 -0.027648 0.000000 0.000000 0.000000
# 2 -0.008468 0.014621 0.011534 0.000000 0.000000 0.000000
# 3 -0.027648 0.011534 0.061648 0.000000 0.000000 0.000000
# 4 0.000000 0.000000 0.000000 0.064098 0.000000 0.000000
# 5 0.000000 0.000000 0.000000 0.000000 0.140632 0.000000
# 6 0.000000 0.000000 0.000000 0.000000 0.000000 0.659420
#
#
# Mechanical properties :
#
#
# Convention : Reuss Voigt Hill
#
# Bulk Modulus (GPa) = 19.27119 34.39340 26.83230
# Shear Modulus (GPa) = 4.84653 15.12856 9.98755
#
# Velocity S-wave (km/s) = 1.58227 2.79553 2.27141
# Velocity P-wave (km/s) = 3.64597 5.30912 4.55411
#
# Compressibility (1/GPa) = 0.05189093
#
# Stress axis : x y z
#
# Youngs Moduli (GPa) = 40.34627 68.39473 16.22104
#
# Poissons Ratio (x) = 0.57918 0.44847
# Poissons Ratio (y) = 0.34166 -0.18709
# Poissons Ratio (z) = 1.11548 -0.78886
#
# Static dielectric constant tensor:
#      x y z
#    x 1.736710 0.000000 0.000000 
#    y 0.000000 1.700960 0.000000 
#    z 0.000000 0.000000 1.641610 
# 
# From -- ./inp_files/41337.got.cif
#   From: 2010.05.17/outbox.ucp.g08.bks.cvg/sg74_21_cif.got.tgz:41337.got - 2010.06.11 16:37:44.
