data_PCOD9540258
_publ_section_title
;
Structure prediction by ZEFSAII (Michael W. Deem and Ramdas Pophale) SiO2 
 PCOD9540258
Probable space group: I M M A
;
_chemical_formula_sum "Si O2"
_cell_formula_units_Z 68
_cell_length_a 7.552749
_cell_length_b 22.843253
_cell_length_c 17.408304
_cell_angle_alpha 90.000000
_cell_angle_beta 90.000000
_cell_angle_gamma 90.000000
_cell_volume 3003.443483
_symmetry_space_group_name_H-M "I M M A"
_symmetry_group_IT_number 74
_symmetry_cell_setting 'orthorhombic'
loop_
_space_group_symop_operation_xyz
x,y,z
-x,1/2-y,z
x,-y,-z
-x,1/2+y,-z
-x,-y,-z
x,1/2+y,-z
-x,y,z
x,1/2-y,z
1/2+x,1/2+y,1/2+z
1/2-x,-y,1/2+z
1/2+x,1/2-y,1/2-z
1/2-x,y,1/2-z
1/2-x,1/2-y,1/2-z
1/2+x,y,1/2-z
1/2-x,1/2+y,1/2+z
1/2+x,-y,1/2+z
loop_
_atom_site_type_symbol
_atom_site_label
_atom_site_fract_x
_atom_site_fract_y
_atom_site_fract_z
Si Si1 0.797902 0.344271 0.374360
Si Si2 0.209463 0.590720 0.336490
Si Si3 0.500000 0.250000 0.328140
Si Si4 0.284695 0.475742 0.084642
Si Si5 0.703451 0.186753 0.540289
O O1 0.657817 0.301511 0.334415
O O2 0.732514 0.411492 0.385949
O O3 0.809569 0.323444 0.463072
O O4 0.000000 0.342177 0.342112
O O5 0.250000 0.607727 0.250000
O O6 0.274065 0.525695 0.356226
O O7 0.279964 0.636273 0.398117
O O8 0.000000 0.590077 0.347268
O O9 0.500000 0.472733 0.081043
O O10 0.228754 0.500000 0.000000
O O11 0.500000 0.188697 0.513971
O O12 0.749264 0.250000 0.574619
#
# Coordination Sequence:
#
# PCOD9540258 Si02
#       5
#    16  16   4  16  16
#     4  11  20  35  58  86 122 158 192 250 302 350
#     4  11  23  40  58  83 119 158 202 249 300 358
#     4  12  22  36  50  94 128 148 200 240 300 376
#     4   9  18  35  60  86 113 152 201 248 301 354
#     4  11  21  36  55  84 119 156 205 247 291 353
#
# _framework density 22.64068
#
# number of rings (size 3 to 8) (size 9 to 14) (size 15 to 20)
#    0.000    1.412    4.706    1.765    0.000    1.882 
#    4.235    1.765    0.000    0.000    0.000    0.824 
#    0.000    0.000    0.000    0.000    0.000    0.000 
#
# Total GULP energy -189467.825381 kJ/mol
# GULP energy per Si atom -5572.583099 kJ/mol
# Density = 2.258915 g / cm^3
# Si number density = 22.640680 Si / 1000 Ang^3
#
#
#
# Elastic Constant Matrix: (Units=GPa)
#
#
# Indices 1 2 3 4 5 6 
#
# 1 109.3406 43.1162 13.9654 0.0000 0.0000 0.0000
# 2 43.1162 187.4844 12.0129 0.0000 0.0000 0.0000
# 3 13.9654 12.0129 59.6193 0.0000 0.0000 0.0000
# 4 0.0000 0.0000 0.0000 -33.4543 0.0000 0.0000
# 5 0.0000 0.0000 0.0000 0.0000 5.4992 0.0000
# 6 0.0000 0.0000 0.0000 0.0000 0.0000 20.3231
#
#
#
# Elastic Compliance Matrix: (Units=1/GPa)
#
#
# Indices 1 2 3 4 5 6 
#
# 1 0.010278 -0.002238 -0.001957 0.000000 0.000000 0.000000
# 2 -0.002238 0.005891 -0.000663 0.000000 0.000000 0.000000
# 3 -0.001957 -0.000663 0.017365 0.000000 0.000000 0.000000
# 4 0.000000 0.000000 0.000000 -0.029892 0.000000 0.000000
# 5 0.000000 0.000000 0.000000 0.000000 0.181845 0.000000
# 6 0.000000 0.000000 0.000000 0.000000 0.000000 0.049205
#
#
# Mechanical properties :
#
#
# Convention : Reuss Voigt Hill
#
# Bulk Modulus (GPa) = 41.98337 54.95927 48.47132
# Shear Modulus (GPa) = 19.81392 17.63025 18.72209
#
# Velocity S-wave (km/s) = 2.96150 2.79354 2.87875
# Velocity P-wave (km/s) = 5.50250 5.89342 5.70132
#
# Compressibility (1/GPa) = 0.02381896
#
# Stress axis : x y z
#
# Youngs Moduli (GPa) = 97.29252 169.75052 57.58728
#
# Poissons Ratio (x) = 0.37996 0.11268
# Poissons Ratio (y) = 0.21778 0.03816
# Poissons Ratio (z) = 0.19036 0.11249
#
# Static dielectric constant tensor:
#      x y z
#    x 1.883710 0.000000 0.000000 
#    y 0.000000 1.930760 0.000000 
#    z 0.000000 0.000000 1.774150 
# 
# From -- ./inp_files/39221.got.cif
#   From: 2010.05.17/outbox.cif.g08.bks.cpg/sg74_20_cif.got.tgz:39221.got - 2010.06.03 17:57:02.
