data_PCOD9540622
_publ_section_title
;
Structure prediction by ZEFSAII (Michael W. Deem and Ramdas Pophale) SiO2 
 PCOD9540622
Probable space group: I M M A
;
_chemical_formula_sum "Si O2"
_cell_formula_units_Z 64
_cell_length_a 21.520376
_cell_length_b 10.026966
_cell_length_c 15.181563
_cell_angle_alpha 90.000000
_cell_angle_beta 90.000000
_cell_angle_gamma 90.000000
_cell_volume 3275.939582
_symmetry_space_group_name_H-M "I M M A"
_symmetry_group_IT_number 74
_symmetry_cell_setting 'orthorhombic'
loop_
_space_group_symop_operation_xyz
x,y,z
-x,1/2-y,z
x,-y,-z
-x,1/2+y,-z
-x,-y,-z
x,1/2+y,-z
-x,y,z
x,1/2-y,z
1/2+x,1/2+y,1/2+z
1/2-x,-y,1/2+z
1/2+x,1/2-y,1/2-z
1/2-x,y,1/2-z
1/2-x,1/2-y,1/2-z
1/2+x,y,1/2-z
1/2-x,1/2+y,1/2+z
1/2+x,-y,1/2+z
loop_
_atom_site_type_symbol
_atom_site_label
_atom_site_fract_x
_atom_site_fract_y
_atom_site_fract_z
Si Si1 0.500000 0.915694 0.319576
Si Si2 0.285354 0.250000 0.343078
Si Si3 0.808589 0.750000 0.492857
Si Si4 0.897044 0.500000 0.500000
Si Si5 0.867751 0.501935 0.105894
Si Si6 0.210654 0.750000 0.162195
Si Si7 0.500000 0.588027 0.859833
O O1 0.500000 0.750000 0.314799
O O2 0.439265 0.971901 0.369517
O O3 0.500000 0.991840 0.225211
O O4 0.250000 0.250000 0.250000
O O5 0.230279 0.250000 0.416126
O O6 0.331844 0.373734 0.357142
O O7 0.852276 0.622875 0.480435
O O8 0.757365 0.750000 0.418487
O O9 0.940798 0.452410 0.419734
O O10 0.832234 0.622975 0.151341
O O11 0.860900 0.500000 0.000000
O O12 0.250000 0.750000 0.250000
O O13 0.500000 0.750000 0.842710
#
# Coordination Sequence:
#
# PCOD9540622 Si02
#       7
#     8   8   8   8  16   8   8
#     4  12  30  46  77 102 140 193 252 303 362 427
#     4  12  28  45  76 110 148 185 238 296 362 433
#     4  12  24  45  72 109 144 196 238 292 368 440
#     4  11  26  42  76  98 150 189 238 296 372 427
#     4  12  25  51  71 105 146 189 240 301 362 430
#     4  12  26  45  74 104 148 191 236 296 360 435
#     4  11  27  50  67 109 143 189 245 310 355 436
#
# _framework density 19.536380000000001
#
# number of rings (size 3 to 8) (size 9 to 14) (size 15 to 20)
#    0.000    0.250    5.000    2.625   10.500    0.000 
#    0.000    0.000    0.000    0.000    0.000    0.000 
#    0.000    0.000    0.000    0.000    0.000    0.000 
#
# Total GULP energy -178830.093169 kJ/mol
# GULP energy per Si atom -5588.440412 kJ/mol
# Density = 1.949191 g / cm^3
# Si number density = 19.536380 Si / 1000 Ang^3
#
#
#
# Elastic Constant Matrix: (Units=GPa)
#
#
# Indices 1 2 3 4 5 6 
#
# 1 165.6593 73.5099 50.2167 0.0000 0.0000 0.0000
# 2 73.5099 191.9274 32.4656 0.0000 0.0000 0.0000
# 3 50.2167 32.4656 133.7542 0.0000 0.0000 0.0000
# 4 0.0000 0.0000 0.0000 35.2919 0.0000 0.0000
# 5 0.0000 0.0000 0.0000 0.0000 431.8093 0.0000
# 6 0.0000 0.0000 0.0000 0.0000 0.0000 57.9830
#
#
#
# Elastic Compliance Matrix: (Units=1/GPa)
#
#
# Indices 1 2 3 4 5 6 
#
# 1 0.007913 -0.002636 -0.002331 0.000000 0.000000 0.000000
# 2 -0.002636 0.006312 -0.000542 0.000000 0.000000 0.000000
# 3 -0.002331 -0.000542 0.008483 0.000000 0.000000 0.000000
# 4 0.000000 0.000000 0.000000 0.028335 0.000000 0.000000
# 5 0.000000 0.000000 0.000000 0.000000 0.002316 0.000000
# 6 0.000000 0.000000 0.000000 0.000000 0.000000 0.017246
#
#
# Mechanical properties :
#
#
# Convention : Reuss Voigt Hill
#
# Bulk Modulus (GPa) = 85.55229 89.30281 87.42755
# Shear Modulus (GPa) = 58.46540 127.36008 92.91274
#
# Velocity S-wave (km/s) = 5.47644 8.08287 6.90377
# Velocity P-wave (km/s) = 9.15832 11.52912 10.41142
#
# Compressibility (1/GPa) = 0.01168876
#
# Stress axis : x y z
#
# Youngs Moduli (GPa) = 126.37490 158.43327 117.88106
#
# Poissons Ratio (x) = 0.41770 0.27477
# Poissons Ratio (y) = 0.33318 0.06392
# Poissons Ratio (z) = 0.29457 0.08590
#
# Static dielectric constant tensor:
#      x y z
#    x 1.662770 0.000000 0.000000 
#    y 0.000000 1.626230 0.000000 
#    z 0.000000 0.000000 1.661610 
# 
# From -- ./inp_files/36032.got.cif
#   From: 2010.05.17/outbox.cif.g08.bks.cpg/sg74_19_cif.got.tgz:36032.got - 2010.06.03 17:57:02.
