data_PCOD9540377
_publ_section_title
;
Structure prediction by ZEFSAII (Michael W. Deem and Ramdas Pophale) SiO2 
 PCOD9540377
Probable space group: I M M A
;
_chemical_formula_sum "Si O2"
_cell_formula_units_Z 48
_cell_length_a 10.019110
_cell_length_b 30.891834
_cell_length_c 6.639211
_cell_angle_alpha 90.000000
_cell_angle_beta 90.000000
_cell_angle_gamma 90.000000
_cell_volume 2054.893452
_symmetry_space_group_name_H-M "I M M A"
_symmetry_group_IT_number 74
_symmetry_cell_setting 'orthorhombic'
loop_
_space_group_symop_operation_xyz
x,y,z
-x,1/2-y,z
x,-y,-z
-x,1/2+y,-z
-x,-y,-z
x,1/2+y,-z
-x,y,z
x,1/2-y,z
1/2+x,1/2+y,1/2+z
1/2-x,-y,1/2+z
1/2+x,1/2-y,1/2-z
1/2-x,y,1/2-z
1/2-x,1/2-y,1/2-z
1/2+x,y,1/2-z
1/2-x,1/2+y,1/2+z
1/2+x,-y,1/2+z
loop_
_atom_site_type_symbol
_atom_site_label
_atom_site_fract_x
_atom_site_fract_y
_atom_site_fract_z
Si Si1 0.500000 0.644419 0.894266
Si Si2 0.500000 0.950768 0.065357
Si Si3 0.250000 0.412530 0.750000
Si Si4 0.828871 0.657813 0.918994
Si Si5 0.500000 0.297222 0.710660
O O1 0.500000 0.591720 0.917829
O O2 0.659777 0.662645 0.839469
O O3 0.500000 0.664789 0.124081
O O4 0.629365 0.942558 0.194253
O O5 0.500000 0.000000 0.000000
O O6 0.206863 0.382779 0.937791
O O7 0.869767 0.697362 0.065916
O O8 0.000000 0.645736 0.871064
O O9 0.500000 0.250000 0.807791
#
# Coordination Sequence:
#
# PCOD9540377 Si02
#       5
#     8   8   8  16   8
#     4  11  22  43  67  99 144 197 237 304 378 450
#     4  12  26  45  78 111 144 194 250 309 381 455
#     4  12  24  50  73 108 154 196 245 316 386 448
#     4  11  21  40  75  95 140 202 245 300 384 447
#     4  11  24  42  66 108 151 196 256 318 378 455
#
# _framework density 23.358874
#
# number of rings (size 3 to 8) (size 9 to 14) (size 15 to 20)
#    0.000    0.667    6.667    1.000    0.000    6.000 
#    0.000    8.333    0.000    0.000    0.000    0.000 
#    0.000    0.000    0.000    0.000    0.000    0.000 
#
# Total GULP energy -133641.725007 kJ/mol
# GULP energy per Si atom -5568.405209 kJ/mol
# Density = 2.330571 g / cm^3
# Si number density = 23.358874 Si / 1000 Ang^3
#
#
#
# Elastic Constant Matrix: (Units=GPa)
#
#
# Indices 1 2 3 4 5 6 
#
# 1 197.9141 21.9296 66.2723 -0.0008 -0.0009 0.0006
# 2 21.9296 130.5060 38.6401 0.0012 -0.0011 0.0047
# 3 66.2723 38.6401 138.5377 0.0014 -0.0172 0.0246
# 4 -0.0008 0.0012 0.0014 10.5593 0.0002 0.0041
# 5 -0.0009 -0.0011 -0.0172 0.0002 81.1785 -0.0008
# 6 0.0006 0.0047 0.0246 0.0041 -0.0008 61.4825
#
#
#
# Elastic Compliance Matrix: (Units=1/GPa)
#
#
# Indices 1 2 3 4 5 6 
#
# 1 0.006020 -0.000173 -0.002831 0.000001 -0.000001 0.000001
# 2 -0.000173 0.008357 -0.002248 -0.000001 0.000000 0.000000
# 3 -0.002831 -0.002248 0.009200 -0.000001 0.000002 -0.000003
# 4 0.000001 -0.000001 -0.000001 0.094704 0.000000 -0.000006
# 5 -0.000001 0.000000 0.000002 0.000000 0.012319 0.000000
# 6 0.000001 0.000000 -0.000003 -0.000006 0.000000 0.016265
#
#
# Mechanical properties :
#
#
# Convention : Reuss Voigt Hill
#
# Bulk Modulus (GPa) = 76.50280 80.07131 78.28705
# Shear Modulus (GPa) = 30.91638 53.31845 42.11741
#
# Velocity S-wave (km/s) = 3.64199 4.78282 4.25085
# Velocity P-wave (km/s) = 7.10687 8.05317 7.59478
#
# Compressibility (1/GPa) = 0.01307142
#
# Stress axis : x y z
#
# Youngs Moduli (GPa) = 166.11231 119.65736 108.69847
#
# Poissons Ratio (x) = 0.02073 0.30778
# Poissons Ratio (y) = 0.02878 0.24436
# Poissons Ratio (z) = 0.47034 0.26900
#
# Static dielectric constant tensor:
#      x y z
#    x 2.123190 -0.000010 -0.000010 
#    y -0.000010 1.725100 0.000000 
#    z -0.000010 0.000000 1.887810 
# 
# From -- ./inp_files/17418.got.cif
#   From: 2010.05.17/outbox.cif.g08.bks.cpg/sg74_9_cif.got.tgz:17418.got - 2010.06.03 17:57:02.
