data_PCOD9540246
_publ_section_title
;
Structure prediction by ZEFSAII (Michael W. Deem and Ramdas Pophale) SiO2 
 PCOD9540246
Probable space group: I M M A
;
_chemical_formula_sum "Si O2"
_cell_formula_units_Z 48
_cell_length_a 13.869634
_cell_length_b 13.013311
_cell_length_c 12.965467
_cell_angle_alpha 90.000000
_cell_angle_beta 90.000000
_cell_angle_gamma 90.000000
_cell_volume 2340.135333
_symmetry_space_group_name_H-M "I M M A"
_symmetry_group_IT_number 74
_symmetry_cell_setting 'orthorhombic'
loop_
_space_group_symop_operation_xyz
x,y,z
-x,1/2-y,z
x,-y,-z
-x,1/2+y,-z
-x,-y,-z
x,1/2+y,-z
-x,y,z
x,1/2-y,z
1/2+x,1/2+y,1/2+z
1/2-x,-y,1/2+z
1/2+x,1/2-y,1/2-z
1/2-x,y,1/2-z
1/2-x,1/2-y,1/2-z
1/2+x,y,1/2-z
1/2-x,1/2+y,1/2+z
1/2+x,-y,1/2+z
loop_
_atom_site_type_symbol
_atom_site_label
_atom_site_fract_x
_atom_site_fract_y
_atom_site_fract_z
Si Si1 0.169251 0.750000 0.156356
Si Si2 0.000000 0.083078 0.589595
Si Si3 0.357905 0.250000 0.217686
Si Si4 0.349467 0.750000 0.025853
Si Si5 0.000000 0.082937 0.827331
Si Si6 0.500000 0.861374 0.651461
O O1 0.250000 0.750000 0.250000
O O2 0.237679 0.750000 0.055887
O O3 0.095752 0.653005 0.157847
O O4 0.905461 0.153109 0.573068
O O5 0.000000 0.049560 0.707329
O O6 0.000000 0.000000 0.500000
O O7 0.250000 0.250000 0.250000
O O8 0.409285 0.154441 0.273049
O O9 0.368576 0.250000 0.095926
O O10 0.000000 0.975765 0.889910
O O11 0.500000 0.750000 0.589046
#
# Coordination Sequence:
#
# PCOD9540246 Si02
#       6
#     8   8   8   8   8   8
#     4  11  21  37  58  89 124 171 186 250 301 372
#     4  11  20  33  61  88 116 154 192 269 297 343
#     4   9  19  38  62  83 113 152 196 256 304 347
#     4  11  20  38  56  89 125 145 211 235 307 373
#     4  11  20  38  58  86 130 158 203 241 311 367
#     4   8  20  39  61  84 115 153 200 259 310 337
#
# _framework density 20.511634000000001
#
# number of rings (size 3 to 8) (size 9 to 14) (size 15 to 20)
#    1.000    0.667    3.333    5.000    0.000    1.333 
#    6.000    3.333    0.000    2.000    0.000    0.000 
#    0.000    0.000    0.000    0.000    0.000    0.000 
#
# Total GULP energy -133705.540921 kJ/mol
# GULP energy per Si atom -5571.064205 kJ/mol
# Density = 2.046495 g / cm^3
# Si number density = 20.511634 Si / 1000 Ang^3
#
#
#
# Elastic Constant Matrix: (Units=GPa)
#
#
# Indices 1 2 3 4 5 6 
#
# 1 162.3083 57.9597 12.4855 0.0000 0.0000 0.0000
# 2 57.9597 171.0734 25.3525 0.0000 0.0000 0.0000
# 3 12.4855 25.3525 68.5427 0.0000 0.0000 0.0000
# 4 0.0000 0.0000 0.0000 8.8765 0.0000 0.0000
# 5 0.0000 0.0000 0.0000 0.0000 24.7105 0.0000
# 6 0.0000 0.0000 0.0000 0.0000 0.0000-2072.5359
#
#
#
# Elastic Compliance Matrix: (Units=1/GPa)
#
#
# Indices 1 2 3 4 5 6 
#
# 1 0.007021 -0.002316 -0.000422 0.000000 0.000000 0.000000
# 2 -0.002316 0.006948 -0.002148 0.000000 0.000000 0.000000
# 3 -0.000422 -0.002148 0.015461 0.000000 0.000000 0.000000
# 4 0.000000 0.000000 0.000000 0.112657 0.000000 0.000000
# 5 0.000000 0.000000 0.000000 0.000000 0.040469 0.000000
# 6 0.000000 0.000000 0.000000 0.000000 0.000000 -0.000483
#
#
# Mechanical properties :
#
#
# Convention : Reuss Voigt Hill
#
# Bulk Modulus (GPa) = 50.87209 65.94666 58.40938
# Shear Modulus (GPa) = 25.20180 -387.38133 -181.08976
#
# Velocity S-wave (km/s) = 3.50903 -13.75752 -9.40628
# Velocity P-wave (km/s) = 6.42441 14.83706 9.45688
#
# Compressibility (1/GPa) = 0.01965714
#
# Stress axis : x y z
#
# Youngs Moduli (GPa) = 142.43729 143.91655 64.67917
#
# Poissons Ratio (x) = 0.33331 0.02731
# Poissons Ratio (y) = 0.32989 0.13894
# Poissons Ratio (z) = 0.06014 0.30916
#
# Static dielectric constant tensor:
#      x y z
#    x 1.681290 0.000000 0.000000 
#    y 0.000000 1.752630 0.000000 
#    z 0.000000 0.000000 1.829700 
# 
# From -- ./inp_files/29857.got.cif
#   From: 2010.05.17/outbox.cif.g08.bks.cpg/sg74_15_cif.got.tgz:29857.got - 2010.06.03 17:57:02.
