data_PCOD9540566
_publ_section_title
;
Structure prediction by ZEFSAII (Michael W. Deem and Ramdas Pophale) SiO2 
 PCOD9540566
Probable space group: I M M A
;
_chemical_formula_sum "Si O2"
_cell_formula_units_Z 88
_cell_length_a 9.326740
_cell_length_b 19.143013
_cell_length_c 27.706757
_cell_angle_alpha 90.000000
_cell_angle_beta 90.000000
_cell_angle_gamma 90.000000
_cell_volume 4946.817178
_symmetry_space_group_name_H-M "I M M A"
_symmetry_group_IT_number 74
_symmetry_cell_setting 'orthorhombic'
loop_
_space_group_symop_operation_xyz
x,y,z
-x,1/2-y,z
x,-y,-z
-x,1/2+y,-z
-x,-y,-z
x,1/2+y,-z
-x,y,z
x,1/2-y,z
1/2+x,1/2+y,1/2+z
1/2-x,-y,1/2+z
1/2+x,1/2-y,1/2-z
1/2-x,y,1/2-z
1/2-x,1/2-y,1/2-z
1/2+x,y,1/2-z
1/2-x,1/2+y,1/2+z
1/2+x,-y,1/2+z
loop_
_atom_site_type_symbol
_atom_site_label
_atom_site_fract_x
_atom_site_fract_y
_atom_site_fract_z
Si Si1 0.831268 0.250000 0.199465
Si Si2 0.163819 0.930067 0.553805
Si Si3 0.829250 0.532126 0.298649
Si Si4 0.662261 0.378368 0.163620
Si Si5 0.172687 0.581156 0.405482
Si Si6 0.671234 0.831240 0.480544
O O1 0.750000 0.250000 0.250000
O O2 0.776228 0.318776 0.172659
O O3 0.000000 0.250000 0.205375
O O4 0.160548 0.898413 0.607525
O O5 0.264562 0.882993 0.520908
O O6 0.000000 0.928163 0.534639
O O7 0.205472 0.010740 0.563346
O O8 0.750000 0.554829 0.250000
O O9 0.804862 0.449294 0.307421
O O10 0.786793 0.568145 0.349487
O O11 0.000000 0.541694 0.293265
O O12 0.500000 0.355288 0.176971
O O13 0.254503 0.644058 0.430923
O O14 0.000000 0.589463 0.406930
O O15 0.500000 0.838688 0.477722
O O16 0.704592 0.750000 0.491103
#
# Coordination Sequence:
#
# PCOD9540566 Si02
#       6
#     8  16  16  16  16  16
#     4  12  24  34  46  66  98 140 182 224 267 310
#     4   9  19  36  58  80 104 139 180 221 263 314
#     4   9  18  33  55  81 106 131 168 218 265 316
#     4   9  19  35  52  73 102 135 175 219 262 313
#     4   9  19  37  58  81 107 138 180 222 260 314
#     4  11  24  37  51  78 114 144 176 221 268 317
#
# _framework density 17.789216
#
# number of rings (size 3 to 8) (size 9 to 14) (size 15 to 20)
#    0.000    2.364    0.000    4.636    1.273    8.000 
#    0.000    3.636    0.000    0.545    0.000    0.000 
#    0.000    0.000    0.000    0.000    0.000    0.000 
#
# Total GULP energy -245517.736145 kJ/mol
# GULP energy per Si atom -5579.948549 kJ/mol
# Density = 1.774873 g / cm^3
# Si number density = 17.789216 Si / 1000 Ang^3
#
#
#
# Elastic Constant Matrix: (Units=GPa)
#
#
# Indices 1 2 3 4 5 6 
#
# 1 57.0082 36.1113 32.6989 0.0000 0.0000 0.0000
# 2 36.1113 53.0271 34.0851 0.0000 0.0000 0.0000
# 3 32.6989 34.0851 94.8976 0.0000 0.0000 0.0000
# 4 0.0000 0.0000 0.0000 6.9408 0.0000 0.0000
# 5 0.0000 0.0000 0.0000 0.0000 33.2214 0.0000
# 6 0.0000 0.0000 0.0000 0.0000 0.0000 17.0712
#
#
#
# Elastic Compliance Matrix: (Units=1/GPa)
#
#
# Indices 1 2 3 4 5 6 
#
# 1 0.032068 -0.019159 -0.004168 0.000000 0.000000 0.000000
# 2 -0.019159 0.035966 -0.006316 0.000000 0.000000 0.000000
# 3 -0.004168 -0.006316 0.014243 0.000000 0.000000 0.000000
# 4 0.000000 0.000000 0.000000 0.144076 0.000000 0.000000
# 5 0.000000 0.000000 0.000000 0.000000 0.030101 0.000000
# 6 0.000000 0.000000 0.000000 0.000000 0.000000 0.058578
#
#
# Mechanical properties :
#
#
# Convention : Reuss Voigt Hill
#
# Bulk Modulus (GPa) = 43.49890 45.63591 44.56740
# Shear Modulus (GPa) = 13.08959 18.24918 15.66939
#
# Velocity S-wave (km/s) = 2.71554 3.20637 2.97111
# Velocity P-wave (km/s) = 5.85983 6.27831 6.07268
#
# Compressibility (1/GPa) = 0.02298909
#
# Stress axis : x y z
#
# Youngs Moduli (GPa) = 31.18337 27.80426 70.21169
#
# Poissons Ratio (x) = 0.53271 0.29266
# Poissons Ratio (y) = 0.59745 0.44348
# Poissons Ratio (z) = 0.12998 0.17562
#
# Static dielectric constant tensor:
#      x y z
#    x 1.597900 0.000000 0.000000 
#    y 0.000000 1.585360 0.000000 
#    z 0.000000 0.000000 1.631670 
# 
# From -- ./inp_files/70277.got.cif
#   From: 2010.05.17/outbox.cif.g08.bks.cpg/sg74_36_cif.got.tgz:70277.got - 2010.06.03 17:57:02.
