data_PCOD9540413
_publ_section_title
;
Structure prediction by ZEFSAII (Michael W. Deem and Ramdas Pophale) SiO2 
 PCOD9540413
Probable space group: I M M A
;
_chemical_formula_sum "Si O2"
_cell_formula_units_Z 88
_cell_length_a 13.546847
_cell_length_b 15.008449
_cell_length_c 24.447129
_cell_angle_alpha 90.000000
_cell_angle_beta 90.000000
_cell_angle_gamma 90.000000
_cell_volume 4970.520895
_symmetry_space_group_name_H-M "I M M A"
_symmetry_group_IT_number 74
_symmetry_cell_setting 'orthorhombic'
loop_
_space_group_symop_operation_xyz
x,y,z
-x,1/2-y,z
x,-y,-z
-x,1/2+y,-z
-x,-y,-z
x,1/2+y,-z
-x,y,z
x,1/2-y,z
1/2+x,1/2+y,1/2+z
1/2-x,-y,1/2+z
1/2+x,1/2-y,1/2-z
1/2-x,y,1/2-z
1/2-x,1/2-y,1/2-z
1/2+x,y,1/2-z
1/2-x,1/2+y,1/2+z
1/2+x,-y,1/2+z
loop_
_atom_site_type_symbol
_atom_site_label
_atom_site_fract_x
_atom_site_fract_y
_atom_site_fract_z
Si Si1 0.882968 0.250000 0.975901
Si Si2 0.619037 0.750000 0.600289
Si Si3 0.611852 0.352592 0.941535
Si Si4 0.750000 0.010367 0.750000
Si Si5 0.119676 0.061361 0.153489
Si Si6 0.311635 0.442179 0.551736
Si Si7 0.113109 0.150232 0.690348
O O1 0.853326 0.158131 0.947422
O O2 0.000000 0.250000 0.979670
O O3 0.842289 0.250000 0.038138
O O4 0.500000 0.750000 0.596988
O O5 0.645511 0.659778 0.631402
O O6 0.500000 0.373358 0.959367
O O7 0.634463 0.250000 0.959086
O O8 0.695369 0.422855 0.956897
O O9 0.612898 0.351368 0.875424
O O10 0.822267 0.956668 0.790369
O O11 0.817537 0.074747 0.713397
O O12 0.000000 0.053629 0.158924
O O13 0.158131 0.993027 0.106851
O O14 0.349226 0.500000 0.500000
O O15 0.144071 0.250000 0.707329
O O16 0.000000 0.136971 0.708681
#
# Coordination Sequence:
#
# PCOD9540413 Si02
#       7
#     8   8  16   8  16  16  16
#     4  11  22  36  58  87 125 159 189 241 301 356
#     4   9  20  41  61  82 115 154 192 240 297 351
#     4   9  18  35  56  78 111 152 191 232 284 348
#     4  12  21  35  58  82 112 154 192 244 286 336
#     4  11  24  40  60  88 118 152 197 244 293 353
#     4  12  22  36  61  90 117 153 196 241 300 358
#     4   9  18  33  52  75 108 149 186 223 276 339
#
# _framework density 17.704381000000001
#
# number of rings (size 3 to 8) (size 9 to 14) (size 15 to 20)
#    0.000    1.636    4.545    2.455    0.000    1.455 
#    1.636    0.000    0.000    0.000    0.000    1.273 
#    0.000    0.000    0.000    0.000    0.000    0.000 
#
# Total GULP energy -245377.841487 kJ/mol
# GULP energy per Si atom -5576.769125 kJ/mol
# Density = 1.766409 g / cm^3
# Si number density = 17.704381 Si / 1000 Ang^3
#
#
#
# Elastic Constant Matrix: (Units=GPa)
#
#
# Indices 1 2 3 4 5 6 
#
# 1 77.9766 46.5094 24.0999 0.0000 0.0000 0.0000
# 2 46.5094 134.4401 44.3870 0.0000 0.0000 0.0000
# 3 24.0999 44.3870 63.8667 0.0000 0.0000 0.0000
# 4 0.0000 0.0000 0.0000 20.7063 0.0000 0.0000
# 5 0.0000 0.0000 0.0000 0.0000 23.4529 0.0000
# 6 0.0000 0.0000 0.0000 0.0000 0.0000 11.1858
#
#
#
# Elastic Compliance Matrix: (Units=1/GPa)
#
#
# Indices 1 2 3 4 5 6 
#
# 1 0.016575 -0.004762 -0.002945 0.000000 0.000000 0.000000
# 2 -0.004762 0.011021 -0.005863 0.000000 0.000000 0.000000
# 3 -0.002945 -0.005863 0.020844 0.000000 0.000000 0.000000
# 4 0.000000 0.000000 0.000000 0.048294 0.000000 0.000000
# 5 0.000000 0.000000 0.000000 0.000000 0.042639 0.000000
# 6 0.000000 0.000000 0.000000 0.000000 0.000000 0.089399
#
#
# Mechanical properties :
#
#
# Convention : Reuss Voigt Hill
#
# Bulk Modulus (GPa) = 46.94778 56.25289 51.60034
# Shear Modulus (GPa) = 19.01061 21.82147 20.41604
#
# Velocity S-wave (km/s) = 3.28041 3.51457 3.39951
# Velocity P-wave (km/s) = 6.39713 6.95069 6.67965
#
# Compressibility (1/GPa) = 0.02130026
#
# Stress axis : x y z
#
# Youngs Moduli (GPa) = 60.33294 90.73377 47.97630
#
# Poissons Ratio (x) = 0.43204 0.14129
# Poissons Ratio (y) = 0.28728 0.28128
# Poissons Ratio (z) = 0.17769 0.53196
#
# Static dielectric constant tensor:
#      x y z
#    x 1.638090 0.000000 0.000000 
#    y 0.000000 1.606540 0.000000 
#    z 0.000000 0.000000 1.585760 
# 
# From -- ./inp_files/51788.got.cif
#   From: 2010.05.17/outbox.cif.g08.bks.cpg/sg74_26_cif.got.tgz:51788.got - 2010.06.03 17:57:02.
