data_PCOD9540330
_publ_section_title
;
Structure prediction by ZEFSAII (Michael W. Deem and Ramdas Pophale) SiO2 
 PCOD9540330
Probable space group: I M M A
;
_chemical_formula_sum "Si O2"
_cell_formula_units_Z 96
_cell_length_a 20.433390
_cell_length_b 8.641130
_cell_length_c 30.239675
_cell_angle_alpha 90.000000
_cell_angle_beta 90.000000
_cell_angle_gamma 90.000000
_cell_volume 5339.346214
_symmetry_space_group_name_H-M "I M M A"
_symmetry_group_IT_number 74
_symmetry_cell_setting 'orthorhombic'
loop_
_space_group_symop_operation_xyz
x,y,z
-x,1/2-y,z
x,-y,-z
-x,1/2+y,-z
-x,-y,-z
x,1/2+y,-z
-x,y,z
x,1/2-y,z
1/2+x,1/2+y,1/2+z
1/2-x,-y,1/2+z
1/2+x,1/2-y,1/2-z
1/2-x,y,1/2-z
1/2-x,1/2-y,1/2-z
1/2+x,y,1/2-z
1/2-x,1/2+y,1/2+z
1/2+x,-y,1/2+z
loop_
_atom_site_type_symbol
_atom_site_label
_atom_site_fract_x
_atom_site_fract_y
_atom_site_fract_z
Si Si1 0.705700 0.566688 0.549466
Si Si2 0.793675 0.935103 0.376369
Si Si3 0.928960 0.064515 0.949762
Si Si4 0.574115 0.563213 0.268373
Si Si5 0.928114 0.062054 0.664452
Si Si6 0.711177 0.434536 0.295533
O O1 0.711611 0.500000 0.500000
O O2 0.702349 0.750000 0.546986
O O3 0.764426 0.511006 0.579991
O O4 0.637149 0.504508 0.569950
O O5 0.794168 0.750000 0.381398
O O6 0.866474 0.990911 0.363751
O O7 0.747409 0.980667 0.335466
O O8 0.923704 0.250000 0.951153
O O9 0.000000 0.024440 0.929567
O O10 0.930375 0.000000 0.000000
O O11 0.500000 0.520516 0.282758
O O12 0.579293 0.750000 0.271974
O O13 0.579775 0.521967 0.216209
O O14 0.635751 0.486401 0.291955
O O15 0.928024 0.250000 0.663110
O O16 0.000000 0.008772 0.649730
O O17 0.715004 0.250000 0.301905
O O18 0.750000 0.472856 0.250000
#
# Coordination Sequence:
#
# PCOD9540330 Si02
#       6
#    16  16  16  16  16  16
#     4  11  22  37  56  79 110 142 181 226 273 325
#     4  11  21  35  58  82 108 142 182 224 272 323
#     4   9  16  28  49  76 103 132 171 215 260 312
#     4   9  17  32  54  78 105 142 187 227 266 317
#     4   8  15  29  52  81 107 134 174 221 266 318
#     4  11  22  34  50  77 114 147 178 218 265 318
#
# _framework density 17.979728999999999
#
# number of rings (size 3 to 8) (size 9 to 14) (size 15 to 20)
#    0.000    2.167    1.667    5.000    0.000    2.000 
#    0.000    0.833    0.000    7.500    0.000    0.000 
#    0.000    0.000    0.000    0.000    0.000    0.000 
#
# Total GULP energy -267771.148316 kJ/mol
# GULP energy per Si atom -5578.565590 kJ/mol
# Density = 1.793881 g / cm^3
# Si number density = 17.979729 Si / 1000 Ang^3
#
#
#
# Elastic Constant Matrix: (Units=GPa)
#
#
# Indices 1 2 3 4 5 6 
#
# 1 163.3566 32.1278 40.8960 0.0000 0.0000 0.0000
# 2 32.1278 63.2176 19.6407 0.0000 0.0000 0.0000
# 3 40.8960 19.6407 42.9090 0.0000 0.0000 0.0000
# 4 0.0000 0.0000 0.0000 21.8410 0.0000 0.0000
# 5 0.0000 0.0000 0.0000 0.0000 24.9122 0.0000
# 6 0.0000 0.0000 0.0000 0.0000 0.0000 -128.3848
#
#
#
# Elastic Compliance Matrix: (Units=1/GPa)
#
#
# Indices 1 2 3 4 5 6 
#
# 1 0.008260 -0.002042 -0.006938 0.000000 0.000000 0.000000
# 2 -0.002042 0.018946 -0.006725 0.000000 0.000000 0.000000
# 3 -0.006938 -0.006725 0.032996 0.000000 0.000000 0.000000
# 4 0.000000 0.000000 0.000000 0.045786 0.000000 0.000000
# 5 0.000000 0.000000 0.000000 0.000000 0.040141 0.000000
# 6 0.000000 0.000000 0.000000 0.000000 0.000000 -0.007789
#
#
# Mechanical properties :
#
#
# Convention : Reuss Voigt Hill
#
# Bulk Modulus (GPa) = 34.73358 50.53468 42.63413
# Shear Modulus (GPa) = 27.87887 -4.53841 11.67023
#
# Velocity S-wave (km/s) = 3.94200 -1.59049 2.55046
# Velocity P-wave (km/s) = 6.33082 4.97942 5.69535
#
# Compressibility (1/GPa) = 0.02879059
#
# Stress axis : x y z
#
# Youngs Moduli (GPa) = 121.06373 52.78198 30.30687
#
# Poissons Ratio (x) = 0.10780 0.21026
# Poissons Ratio (y) = 0.24726 0.20383
# Poissons Ratio (z) = 0.83991 0.35498
#
# Static dielectric constant tensor:
#      x y z
#    x 1.652620 0.000000 0.000000 
#    y 0.000000 1.599280 0.000000 
#    z 0.000000 0.000000 1.607100 
# 
# From -- ./inp_files/68148.got.cif
#   From: 2010.05.17/outbox.cif.g08.bks.cpg/sg74_35_cif.got.tgz:68148.got - 2010.06.03 17:57:02.
