data_PCOD9540205
_publ_section_title
;
Structure prediction by ZEFSAII (Michael W. Deem and Ramdas Pophale) SiO2 
 PCOD9540205
Probable space group: I M M A
;
_chemical_formula_sum "Si O2"
_cell_formula_units_Z 96
_cell_length_a 19.539376
_cell_length_b 25.123742
_cell_length_c 11.281581
_cell_angle_alpha 90.000000
_cell_angle_beta 90.000000
_cell_angle_gamma 90.000000
_cell_volume 5538.153400
_symmetry_space_group_name_H-M "I M M A"
_symmetry_group_IT_number 74
_symmetry_cell_setting 'orthorhombic'
loop_
_space_group_symop_operation_xyz
x,y,z
-x,1/2-y,z
x,-y,-z
-x,1/2+y,-z
-x,-y,-z
x,1/2+y,-z
-x,y,z
x,1/2-y,z
1/2+x,1/2+y,1/2+z
1/2-x,-y,1/2+z
1/2+x,1/2-y,1/2-z
1/2-x,y,1/2-z
1/2-x,1/2-y,1/2-z
1/2+x,y,1/2-z
1/2-x,1/2+y,1/2+z
1/2+x,-y,1/2+z
loop_
_atom_site_type_symbol
_atom_site_label
_atom_site_fract_x
_atom_site_fract_y
_atom_site_fract_z
Si Si1 0.419608 0.559289 0.156477
Si Si2 0.323937 0.341418 0.186056
Si Si3 0.418767 0.435175 0.125716
Si Si4 0.228526 0.688981 0.428378
Si Si5 0.920176 0.250000 0.926787
Si Si6 0.083805 0.750000 0.799903
Si Si7 0.852079 0.153628 0.796205
O O1 0.500000 0.568247 0.177348
O O2 0.406840 0.496106 0.165154
O O3 0.380079 0.597941 0.246396
O O4 0.407451 0.570943 0.016571
O O5 0.250000 0.341731 0.250000
O O6 0.364486 0.396902 0.187169
O O7 0.378099 0.300062 0.240836
O O8 0.306277 0.324704 0.051602
O O9 0.500000 0.423172 0.146785
O O10 0.254549 0.750000 0.430134
O O11 0.176067 0.683276 0.320581
O O12 0.289742 0.649684 0.389930
O O13 0.901263 0.195931 0.858385
O O14 0.000000 0.250000 0.939684
O O15 0.894896 0.250000 0.062145
O O16 0.000000 0.750000 0.786211
#
# Coordination Sequence:
#
# PCOD9540205 Si02
#       7
#    16  16  16  16   8   8  16
#     4   9  18  35  60  85 114 152 194 247 305 357
#     4  12  23  38  60  86 117 162 202 245 295 358
#     4   9  19  38  59  84 118 152 198 252 298 352
#     4  11  21  36  55  82 118 153 190 237 296 359
#     4  11  22  35  55  85 115 145 189 239 294 361
#     4  11  25  42  61  84 118 162 203 248 296 356
#     4  11  19  35  56  84 115 152 187 238 304 359
#
# _framework density 17.334296999999999
#
# number of rings (size 3 to 8) (size 9 to 14) (size 15 to 20)
#    0.000    1.500    4.167    3.750    0.000    0.000 
#    3.000    0.833    0.000    3.000    0.000   11.667 
#    0.000    0.000    0.000    0.000    0.000    0.000 
#
# Total GULP energy -267477.398405 kJ/mol
# GULP energy per Si atom -5572.445800 kJ/mol
# Density = 1.729484 g / cm^3
# Si number density = 17.334297 Si / 1000 Ang^3
#
#
#
# Elastic Constant Matrix: (Units=GPa)
#
#
# Indices 1 2 3 4 5 6 
#
# 1 95.7251 68.1730 51.9220 0.0000 0.0000 0.0000
# 2 68.1730 112.8518 45.1441 0.0000 0.0000 0.0000
# 3 51.9220 45.1441 86.7668 0.0000 0.0000 0.0000
# 4 0.0000 0.0000 0.0000 31.7866 0.0000 0.0000
# 5 0.0000 0.0000 0.0000 0.0000 30.9718 0.0000
# 6 0.0000 0.0000 0.0000 0.0000 0.0000 34.2621
#
#
#
# Elastic Compliance Matrix: (Units=1/GPa)
#
#
# Indices 1 2 3 4 5 6 
#
# 1 0.021883 -0.010079 -0.007851 0.000000 0.000000 0.000000
# 2 -0.010079 0.015832 -0.002206 0.000000 0.000000 0.000000
# 3 -0.007851 -0.002206 0.017371 0.000000 0.000000 0.000000
# 4 0.000000 0.000000 0.000000 0.031460 0.000000 0.000000
# 5 0.000000 0.000000 0.000000 0.000000 0.032287 0.000000
# 6 0.000000 0.000000 0.000000 0.000000 0.000000 0.029187
#
#
# Mechanical properties :
#
#
# Convention : Reuss Voigt Hill
#
# Bulk Modulus (GPa) = 67.50200 69.53577 68.51888
# Shear Modulus (GPa) = 25.87592 28.07773 26.97683
#
# Velocity S-wave (km/s) = 3.86781 4.02901 3.94924
# Velocity P-wave (km/s) = 7.67935 7.86420 7.77233
#
# Compressibility (1/GPa) = 0.01481438
#
# Stress axis : x y z
#
# Youngs Moduli (GPa) = 45.69807 63.16265 57.56678
#
# Poissons Ratio (x) = 0.63659 0.45196
# Poissons Ratio (y) = 0.46057 0.12700
# Poissons Ratio (z) = 0.35878 0.13935
#
# Static dielectric constant tensor:
#      x y z
#    x 1.613630 0.000000 0.000000 
#    y 0.000000 1.604030 0.000000 
#    z 0.000000 0.000000 1.584930 
# 
# From -- ./inp_files/24126.got.cif
#   From: 2010.05.17/outbox.cif.g08.bks.cpg/sg74_13_cif.got.tgz:24126.got - 2010.06.03 17:57:02.
