data_PCOD9540222
_publ_section_title
;
Structure prediction by ZEFSAII (Michael W. Deem and Ramdas Pophale) SiO2 
 PCOD9540222
Probable space group: I M M A
;
_chemical_formula_sum "Si O2"
_cell_formula_units_Z 80
_cell_length_a 23.985208
_cell_length_b 8.787266
_cell_length_c 26.943755
_cell_angle_alpha 90.000000
_cell_angle_beta 90.000000
_cell_angle_gamma 90.000000
_cell_volume 5678.784431
_symmetry_space_group_name_H-M "I M M A"
_symmetry_group_IT_number 74
_symmetry_cell_setting 'orthorhombic'
loop_
_space_group_symop_operation_xyz
x,y,z
-x,1/2-y,z
x,-y,-z
-x,1/2+y,-z
-x,-y,-z
x,1/2+y,-z
-x,y,z
x,1/2-y,z
1/2+x,1/2+y,1/2+z
1/2-x,-y,1/2+z
1/2+x,1/2-y,1/2-z
1/2-x,y,1/2-z
1/2-x,1/2-y,1/2-z
1/2+x,y,1/2-z
1/2-x,1/2+y,1/2+z
1/2+x,-y,1/2+z
loop_
_atom_site_type_symbol
_atom_site_label
_atom_site_fract_x
_atom_site_fract_y
_atom_site_fract_z
Si Si1 0.316008 0.066909 0.351988
Si Si2 0.388760 0.567846 0.553829
Si Si3 0.209647 0.425664 0.298478
Si Si4 0.385141 0.929878 0.260512
Si Si5 0.500000 0.932376 0.397141
Si Si6 0.500000 0.568967 0.713889
O O1 0.319897 0.250000 0.343149
O O2 0.340415 0.035256 0.406047
O O3 0.251637 0.024132 0.342007
O O4 0.354465 0.985839 0.310965
O O5 0.376855 0.500000 0.500000
O O6 0.395786 0.750000 0.550808
O O7 0.445399 0.495062 0.575191
O O8 0.192914 0.250000 0.306062
O O9 0.250000 0.429064 0.250000
O O10 0.156301 0.523907 0.284083
O O11 0.393170 0.750000 0.262474
O O12 0.444199 0.013768 0.258914
O O13 0.500000 0.750000 0.397034
O O14 0.500000 0.993820 0.340866
O O15 0.500000 0.750000 0.708125
#
# Coordination Sequence:
#
# PCOD9540222 Si02
#       6
#    16  16  16  16   8   8
#     4   9  18  32  48  62  83 115 147 178 219 267
#     4  11  22  35  49  64  85 116 151 191 230 266
#     4   8  15  29  46  63  83 111 143 173 211 264
#     4  11  20  29  44  67  89 110 141 181 221 259
#     4  12  23  35  48  64  83 110 150 195 233 269
#     4  12  22  33  47  62  86 120 150 181 220 265
#
# _framework density 14.087522
#
# number of rings (size 3 to 8) (size 9 to 14) (size 15 to 20)
#    0.000    1.800    2.000    5.700    0.000    4.400 
#    0.000    0.000    0.000    0.000    0.000    0.000 
#    0.000    0.000    0.000    0.900    0.000   10.800 
#
# Total GULP energy -223171.808081 kJ/mol
# GULP energy per Si atom -5579.295202 kJ/mol
# Density = 1.405546 g / cm^3
# Si number density = 14.087522 Si / 1000 Ang^3
#
#
#
# Elastic Constant Matrix: (Units=GPa)
#
#
# Indices 1 2 3 4 5 6 
#
# 1 95.1935 49.1772 57.7818 0.0000 0.0000 0.0000
# 2 49.1772 82.5182 36.6051 0.0000 0.0000 0.0000
# 3 57.7818 36.6051 69.5555 0.0000 0.0000 0.0000
# 4 0.0000 0.0000 0.0000 18.5257 0.0000 0.0000
# 5 0.0000 0.0000 0.0000 0.0000 10.3726 0.0000
# 6 0.0000 0.0000 0.0000 0.0000 0.0000 -131.4886
#
#
#
# Elastic Compliance Matrix: (Units=1/GPa)
#
#
# Indices 1 2 3 4 5 6 
#
# 1 0.024025 -0.007128 -0.016207 0.000000 0.000000 0.000000
# 2 -0.007128 0.017924 -0.003511 0.000000 0.000000 0.000000
# 3 -0.016207 -0.003511 0.029688 0.000000 0.000000 0.000000
# 4 0.000000 0.000000 0.000000 0.053979 0.000000 0.000000
# 5 0.000000 0.000000 0.000000 0.000000 0.096408 0.000000
# 6 0.000000 0.000000 0.000000 0.000000 0.000000 -0.007605
#
#
# Mechanical properties :
#
#
# Convention : Reuss Voigt Hill
#
# Bulk Modulus (GPa) = 55.72674 59.37725 57.55200
# Shear Modulus (GPa) = 18.24193 -13.60453 2.31870
#
# Velocity S-wave (km/s) = 3.60238 -3.11097 1.28433
# Velocity P-wave (km/s) = 7.54627 5.41629 6.56820
#
# Compressibility (1/GPa) = 0.01794471
#
# Stress axis : x y z
#
# Youngs Moduli (GPa) = 41.62368 55.78991 33.68350
#
# Poissons Ratio (x) = 0.39770 0.54589
# Poissons Ratio (y) = 0.29671 0.11827
# Poissons Ratio (z) = 0.67458 0.19589
#
# Static dielectric constant tensor:
#      x y z
#    x 1.473010 0.000000 0.000000 
#    y 0.000000 1.470630 0.000000 
#    z 0.000000 0.000000 1.452770 
# 
# From -- ./inp_files/68539.got.cif
#   From: 2010.05.17/outbox.cif.g08.bks.cpg/sg74_35_cif.got.tgz:68539.got - 2010.06.03 17:57:02.
