data_PCOD9540536
_publ_section_title
;
Structure prediction by ZEFSAII (Michael W. Deem and Ramdas Pophale) SiO2 
 PCOD9540536
Probable space group: I M M A
;
_chemical_formula_sum "Si O2"
_cell_formula_units_Z 88
_cell_length_a 29.831408
_cell_length_b 22.149013
_cell_length_c 6.664409
_cell_angle_alpha 90.000000
_cell_angle_beta 90.000000
_cell_angle_gamma 90.000000
_cell_volume 4403.416568
_symmetry_space_group_name_H-M "I M M A"
_symmetry_group_IT_number 74
_symmetry_cell_setting 'orthorhombic'
loop_
_space_group_symop_operation_xyz
x,y,z
-x,1/2-y,z
x,-y,-z
-x,1/2+y,-z
-x,-y,-z
x,1/2+y,-z
-x,y,z
x,1/2-y,z
1/2+x,1/2+y,1/2+z
1/2-x,-y,1/2+z
1/2+x,1/2-y,1/2-z
1/2-x,y,1/2-z
1/2-x,1/2-y,1/2-z
1/2+x,y,1/2-z
1/2-x,1/2+y,1/2+z
1/2+x,-y,1/2+z
loop_
_atom_site_type_symbol
_atom_site_label
_atom_site_fract_x
_atom_site_fract_y
_atom_site_fract_z
Si Si1 0.250000 0.144457 0.750000
Si Si2 0.220006 0.750000 0.951821
Si Si3 0.378066 0.000000 0.500000
Si Si4 0.168260 0.560378 0.362583
Si Si5 0.549364 0.543944 0.809418
Si Si6 0.409565 0.150716 0.005378
Si Si7 0.054001 0.250000 0.798882
Si Si8 0.617633 0.750000 0.680674
O O1 0.268969 0.190225 0.581589
O O2 0.212390 0.101159 0.654453
O O3 0.250000 0.750000 0.750000
O O4 0.167292 0.750000 0.907485
O O5 0.346880 0.959970 0.358899
O O6 0.411520 0.964559 0.648543
O O7 0.173122 0.500000 0.500000
O O8 0.128270 0.603251 0.439131
O O9 0.500000 0.530617 0.726800
O O10 0.556729 0.500000 0.000000
O O11 0.551735 0.610956 0.895750
O O12 0.428689 0.191906 0.827026
O O13 0.388856 0.193105 0.174760
O O14 0.000000 0.250000 0.816147
O O15 0.079763 0.250000 0.009816
#
# Coordination Sequence:
#
# PCOD9540536 Si02
#       8
#     8   8   8  16  16  16   8   8
#     4  11  28  44  72 106 140 177 230 288 348 425
#     4  11  24  49  75 105 136 180 235 291 349 422
#     4  12  23  42  66  98 130 182 226 262 337 412
#     4  12  26  46  68 101 143 178 226 283 349 413
#     4  11  23  41  65  97 133 174 225 281 333 397
#     4  11  23  46  65  94 138 179 222 284 342 396
#     4  11  26  43  66 100 136 180 236 290 341 404
#     4  11  26  42  74  97 131 184 231 283 347 414
#
# _framework density 19.984483000000001
#
# number of rings (size 3 to 8) (size 9 to 14) (size 15 to 20)
#    0.000    0.727    3.636    3.000    6.364    6.545 
#    0.000    0.000    0.000    0.000    0.000    0.000 
#    0.000    0.000    0.000    0.000    0.000    0.000 
#
# Total GULP energy -245989.413275 kJ/mol
# GULP energy per Si atom -5590.668484 kJ/mol
# Density = 1.993900 g / cm^3
# Si number density = 19.984483 Si / 1000 Ang^3
#
#
#
# Elastic Constant Matrix: (Units=GPa)
#
#
# Indices 1 2 3 4 5 6 
#
# 1 158.2839 68.8497 57.6521 0.0000 0.0000 0.0000
# 2 68.8497 147.6221 65.0374 0.0000 0.0000 0.0000
# 3 57.6521 65.0374 117.0515 0.0000 0.0000 0.0000
# 4 0.0000 0.0000 0.0000 9.8112 0.0000 0.0000
# 5 0.0000 0.0000 0.0000 0.0000 17.6946 0.0000
# 6 0.0000 0.0000 0.0000 0.0000 0.0000 20.9997
#
#
#
# Elastic Compliance Matrix: (Units=1/GPa)
#
#
# Indices 1 2 3 4 5 6 
#
# 1 0.008494 -0.002805 -0.002625 0.000000 0.000000 0.000000
# 2 -0.002805 0.009896 -0.004117 0.000000 0.000000 0.000000
# 3 -0.002625 -0.004117 0.012124 0.000000 0.000000 0.000000
# 4 0.000000 0.000000 0.000000 0.101924 0.000000 0.000000
# 5 0.000000 0.000000 0.000000 0.000000 0.056514 0.000000
# 6 0.000000 0.000000 0.000000 0.000000 0.000000 0.047620
#
#
# Mechanical properties :
#
#
# Convention : Reuss Voigt Hill
#
# Bulk Modulus (GPa) = 87.56817 89.55954 88.56386
# Shear Modulus (GPa) = 19.26986 25.12899 22.19943
#
# Velocity S-wave (km/s) = 3.10859 3.54987 3.33653
# Velocity P-wave (km/s) = 7.53642 7.85582 7.69778
#
# Compressibility (1/GPa) = 0.01141967
#
# Stress axis : x y z
#
# Youngs Moduli (GPa) = 117.73004 101.04985 82.48302
#
# Poissons Ratio (x) = 0.28345 0.21652
# Poissons Ratio (y) = 0.33024 0.33958
# Poissons Ratio (z) = 0.30905 0.41602
#
# Static dielectric constant tensor:
#      x y z
#    x 1.696600 0.000000 0.000000 
#    y 0.000000 1.540050 0.000000 
#    z 0.000000 0.000000 1.693470 
# 
# From -- ./inp_files/5189.got.cif
#   From: 2010.05.17/outbox.cif.g08.bks.cpg/sg74_3_cif.got.tgz:5189.got - 2010.06.03 17:57:02.
