data_PCOD9540494
_publ_section_title
;
Structure prediction by ZEFSAII (Michael W. Deem and Ramdas Pophale) SiO2 
 PCOD9540494
Probable space group: I M M A
;
_chemical_formula_sum "Si O2"
_cell_formula_units_Z 64
_cell_length_a 15.861353
_cell_length_b 17.440879
_cell_length_c 12.368920
_cell_angle_alpha 90.000000
_cell_angle_beta 90.000000
_cell_angle_gamma 90.000000
_cell_volume 3421.687792
_symmetry_space_group_name_H-M "I M M A"
_symmetry_group_IT_number 74
_symmetry_cell_setting 'orthorhombic'
loop_
_space_group_symop_operation_xyz
x,y,z
-x,1/2-y,z
x,-y,-z
-x,1/2+y,-z
-x,-y,-z
x,1/2+y,-z
-x,y,z
x,1/2-y,z
1/2+x,1/2+y,1/2+z
1/2-x,-y,1/2+z
1/2+x,1/2-y,1/2-z
1/2-x,y,1/2-z
1/2-x,1/2-y,1/2-z
1/2+x,y,1/2-z
1/2-x,1/2+y,1/2+z
1/2+x,-y,1/2+z
loop_
_atom_site_type_symbol
_atom_site_label
_atom_site_fract_x
_atom_site_fract_y
_atom_site_fract_z
Si Si1 0.666084 0.460941 0.199042
Si Si2 0.763203 0.120871 0.626140
Si Si3 0.907519 0.555923 0.101749
Si Si4 0.595704 0.335685 0.038777
O O1 0.750000 0.422860 0.250000
O O2 0.703663 0.532695 0.131913
O O3 0.613613 0.503358 0.293371
O O4 0.616667 0.401329 0.125720
O O5 0.750000 0.147621 0.750000
O O6 0.668265 0.115361 0.582632
O O7 0.833336 0.161071 0.554395
O O8 0.000000 0.591038 0.115815
O O9 0.908679 0.500000 0.000000
O O10 0.500000 0.347808 0.996732
O O11 0.598496 0.250000 0.086909
#
# Coordination Sequence:
#
# PCOD9540494 Si02
#       4
#    16  16  16  16
#     4   9  18  33  55  80 106 136 176 222 274 328
#     4   9  19  34  54  76 100 134 179 227 275 322
#     4   9  16  28  50  78 104 129 165 217 270 321
#     4  11  23  36  52  78 112 149 186 225 274 331
#
# _framework density 18.704218999999998
#
# number of rings (size 3 to 8) (size 9 to 14) (size 15 to 20)
#    0.000    3.000    0.000    4.500    0.000    7.000 
#    0.000    0.000    0.000    0.750    0.000    0.000 
#    0.000    0.000    0.000    0.000    0.000    0.000 
#
# Total GULP energy -178183.866722 kJ/mol
# GULP energy per Si atom -5568.245835 kJ/mol
# Density = 1.866165 g / cm^3
# Si number density = 18.704219 Si / 1000 Ang^3
#
#
#
# Elastic Constant Matrix: (Units=GPa)
#
#
# Indices 1 2 3 4 5 6 
#
# 1 165.3274 28.8764 31.3775 0.0000 0.0000 0.0000
# 2 28.8764 53.4631 13.1847 0.0000 0.0000 0.0000
# 3 31.3775 13.1847 42.7943 0.0000 0.0000 0.0000
# 4 0.0000 0.0000 0.0000 4.0450 0.0000 0.0000
# 5 0.0000 0.0000 0.0000 0.0000 276.9527 0.0000
# 6 0.0000 0.0000 0.0000 0.0000 0.0000 28.3185
#
#
#
# Elastic Compliance Matrix: (Units=1/GPa)
#
#
# Indices 1 2 3 4 5 6 
#
# 1 0.007416 -0.002883 -0.004549 0.000000 0.000000 0.000000
# 2 -0.002883 0.021364 -0.004468 0.000000 0.000000 0.000000
# 3 -0.004549 -0.004468 0.028079 0.000000 0.000000 0.000000
# 4 0.000000 0.000000 0.000000 0.247220 0.000000 0.000000
# 5 0.000000 0.000000 0.000000 0.000000 0.003611 0.000000
# 6 0.000000 0.000000 0.000000 0.000000 0.000000 0.035313
#
#
# Mechanical properties :
#
#
# Convention : Reuss Voigt Hill
#
# Bulk Modulus (GPa) = 30.24951 45.38468 37.81710
# Shear Modulus (GPa) = 13.23377 74.40631 43.82004
#
# Velocity S-wave (km/s) = 2.66283 6.31402 4.84549
# Velocity P-wave (km/s) = 5.06575 8.80187 7.18104
#
# Compressibility (1/GPa) = 0.03305838
#
# Stress axis : x y z
#
# Youngs Moduli (GPa) = 134.85154 46.80824 35.61330
#
# Poissons Ratio (x) = 0.13497 0.16200
# Poissons Ratio (y) = 0.38884 0.15912
# Poissons Ratio (z) = 0.61342 0.20913
#
# Static dielectric constant tensor:
#      x y z
#    x 1.709870 0.000000 0.000000 
#    y 0.000000 1.623220 0.000000 
#    z 0.000000 0.000000 1.669750 
# 
# From -- ./inp_files/19924.got.cif
#   From: 2010.05.17/outbox.cif.g08.bks.cpg/sg74_10_cif.got.tgz:19924.got - 2010.06.03 17:57:02.
