data_PCOD9540470
_publ_section_title
;
Structure prediction by ZEFSAII (Michael W. Deem and Ramdas Pophale) SiO2 
 PCOD9540470
Probable space group: I M M A
;
_chemical_formula_sum "Si O2"
_cell_formula_units_Z 60
_cell_length_a 21.226863
_cell_length_b 15.489921
_cell_length_c 9.036150
_cell_angle_alpha 90.000000
_cell_angle_beta 90.000000
_cell_angle_gamma 90.000000
_cell_volume 2971.108086
_symmetry_space_group_name_H-M "I M M A"
_symmetry_group_IT_number 74
_symmetry_cell_setting 'orthorhombic'
loop_
_space_group_symop_operation_xyz
x,y,z
-x,1/2-y,z
x,-y,-z
-x,1/2+y,-z
-x,-y,-z
x,1/2+y,-z
-x,y,z
x,1/2-y,z
1/2+x,1/2+y,1/2+z
1/2-x,-y,1/2+z
1/2+x,1/2-y,1/2-z
1/2-x,y,1/2-z
1/2-x,1/2-y,1/2-z
1/2+x,y,1/2-z
1/2-x,1/2+y,1/2+z
1/2+x,-y,1/2+z
loop_
_atom_site_type_symbol
_atom_site_label
_atom_site_fract_x
_atom_site_fract_y
_atom_site_fract_z
Si Si1 0.816897 0.750000 0.670207
Si Si2 0.183457 0.081806 0.826363
Si Si3 0.138781 0.250000 0.655376
Si Si4 0.500000 0.894787 0.493317
Si Si5 0.000000 0.250000 0.738499
Si Si6 0.867038 0.400157 0.139353
O O1 0.750000 0.750000 0.750000
O O2 0.821773 0.750000 0.495024
O O3 0.850012 0.664281 0.731443
O O4 0.250000 0.059877 0.750000
O O5 0.157520 0.165678 0.746519
O O6 0.137208 0.999724 0.811059
O O7 0.182902 0.102780 0.002167
O O8 0.063308 0.250000 0.641647
O O9 0.500000 0.835800 0.344758
O O10 0.434607 0.873744 0.574905
O O11 0.500000 0.000000 0.500000
#
# Coordination Sequence:
#
# PCOD9540470 Si02
#       6
#     8  16   8   8   4  16
#     4  12  26  43  62  94 137 173 215 265 332 397
#     4  11  22  40  65  94 126 169 222 271 324 385
#     4  12  24  40  63  94 134 171 210 270 330 381
#     4  12  20  43  69  97 127 163 234 272 312 398
#     4  12  22  40  68  96 132 170 220 272 322 392
#     4  11  23  41  68  95 125 174 220 269 325 383
#
# _framework density 20.194485
#
# number of rings (size 3 to 8) (size 9 to 14) (size 15 to 20)
#    0.000    0.533    5.333    4.400    0.000    4.267 
#    0.000    0.000    0.000    4.800    0.000    0.000 
#    0.000    0.000    0.000    0.000    0.000    0.000 
#
# Total GULP energy -167582.403533 kJ/mol
# GULP energy per Si atom -5586.080118 kJ/mol
# Density = 2.014852 g / cm^3
# Si number density = 20.194485 Si / 1000 Ang^3
#
#
#
# Elastic Constant Matrix: (Units=GPa)
#
#
# Indices 1 2 3 4 5 6 
#
# 1 89.3361 -9.9344 5.9578 0.0000 0.0000 0.0000
# 2 -9.9344 113.5645 54.1529 0.0000 0.0000 0.0000
# 3 5.9578 54.1529 79.1085 0.0000 0.0000 0.0000
# 4 0.0000 0.0000 0.0000 -28.7169 0.0000 0.0000
# 5 0.0000 0.0000 0.0000 0.0000 33.4233 0.0000
# 6 0.0000 0.0000 0.0000 0.0000 0.0000 127.3565
#
#
#
# Elastic Compliance Matrix: (Units=1/GPa)
#
#
# Indices 1 2 3 4 5 6 
#
# 1 0.011585 0.002122 -0.002325 0.000000 0.000000 0.000000
# 2 0.002122 0.013462 -0.009375 0.000000 0.000000 0.000000
# 3 -0.002325 -0.009375 0.019233 0.000000 0.000000 0.000000
# 4 0.000000 0.000000 0.000000 -0.034823 0.000000 0.000000
# 5 0.000000 0.000000 0.000000 0.000000 0.029919 0.000000
# 6 0.000000 0.000000 0.000000 0.000000 0.000000 0.007852
#
#
# Mechanical properties :
#
#
# Convention : Reuss Voigt Hill
#
# Bulk Modulus (GPa) = 39.80244 42.48463 41.14354
# Shear Modulus (GPa) = 66.88196 41.86811 54.37504
#
# Velocity S-wave (km/s) = 5.76115 4.55823 5.19463
# Velocity P-wave (km/s) = 8.00042 6.98475 7.50978
#
# Compressibility (1/GPa) = 0.02512409
#
# Stress axis : x y z
#
# Youngs Moduli (GPa) = 86.32044 74.28555 51.99282
#
# Poissons Ratio (x) = -0.15765 0.12089
# Poissons Ratio (y) = -0.18319 0.48742
# Poissons Ratio (z) = 0.20071 0.69641
#
# Static dielectric constant tensor:
#      x y z
#    x 1.743610 0.000000 0.000000 
#    y 0.000000 1.725910 0.000000 
#    z 0.000000 0.000000 1.677160 
# 
# From -- ./inp_files/10373.got.cif
#   From: 2010.05.17/outbox.cif.g08.bks.cpg/sg74_6_cif.got.tgz:10373.got - 2010.06.03 17:57:02.
