data_PCOD9540806
_publ_section_title
;
Structure prediction by ZEFSAII (Michael W. Deem and Ramdas Pophale) SiO2 
 PCOD9540806
Probable space group: I M M A
;
_chemical_formula_sum "Si O2"
_cell_formula_units_Z 64
_cell_length_a 24.000000
_cell_length_b 18.000000
_cell_length_c 18.000000
_cell_angle_alpha 90.000000
_cell_angle_beta 90.000000
_cell_angle_gamma 90.000000
_cell_volume 7776.000000
_symmetry_space_group_name_H-M "I M M A"
_symmetry_group_IT_number 74
_symmetry_cell_setting 'orthorhombic'
loop_
_space_group_symop_operation_xyz
x,y,z
-x,1/2-y,z
x,-y,-z
-x,1/2+y,-z
-x,-y,-z
x,1/2+y,-z
-x,y,z
x,1/2-y,z
1/2+x,1/2+y,1/2+z
1/2-x,-y,1/2+z
1/2+x,1/2-y,1/2-z
1/2-x,y,1/2-z
1/2-x,1/2-y,1/2-z
1/2+x,y,1/2-z
1/2-x,1/2+y,1/2+z
1/2+x,-y,1/2+z
loop_
_atom_site_type_symbol
_atom_site_label
_atom_site_fract_x
_atom_site_fract_y
_atom_site_fract_z
Si Si1 0.698317 0.967110 0.660783
Si Si2 0.335317 0.076410 0.042207
Si Si3 0.636064 0.932579 0.455257
Si Si4 0.620891 0.333744 0.816489
Si Si5 0.173643 0.008385 0.683717
Si Si6 0.437227 0.836657 0.031306
Si Si7 0.218287 0.839353 0.940314
Si Si8 0.435288 0.336032 0.655540
O O1 0.701286 0.881335 0.636207
O O2 0.677400 0.018697 0.594850
O O3 0.760956 0.993948 0.674168
O O4 0.661210 0.983423 0.732579
O O5 0.280824 0.129345 0.043174
O O6 0.352783 0.046319 0.123329
O O7 0.387731 0.116549 0.005103
O O8 0.319927 0.000000 0.000000
O O9 0.673797 0.874735 0.502007
O O10 0.594336 0.887602 0.403949
O O11 0.606813 0.000000 0.500000
O O12 0.646141 0.250000 0.823025
O O13 0.660177 0.405032 0.828054
O O14 0.574227 0.338494 0.880290
O O15 0.594789 0.341063 0.735136
O O16 0.500000 0.862571 0.014853
O O17 0.432641 0.750000 0.008678
O O18 0.217260 0.750000 0.938909
O O19 0.500000 0.354666 0.664407
O O20 0.431108 0.250000 0.631618
#
# Coordination Sequence:
#
# PCOD9540806 Si02
#       8
#    16  16  16  16  16  16  16  16
#     4   9  19  34  52  73 106 136 164 211 258 299
#     4  11  20  34  52  76 104 138 173 211 256 300
#     4  10  19  33  54  77 104 134 166 206 260 308
#     4  10  19  33  52  74 102 137 171 207 252 302
#     4  10  18  34  52  74 103 135 170 209 252 303
#     4  10  21  36  52  74 105 138 173 214 256 298
#     4  10  20  34  53  78 104 135 171 208 256 311
#     4  10  20  34  51  74 104 135 169 209 252 301
#
# _framework density 8.2304530000000007
#
# number of rings (size 3 to 8) (size 9 to 14) (size 15 to 20)
#    0.000    2.000    2.500    3.000    0.000    2.000 
#    0.000    7.500    0.000    0.000    0.000    0.000 
#    0.000    2.500    0.000    0.000    0.000    0.000 
#
# Total GULP energy -356319.220437 kJ/mol
# GULP energy per Si atom -5567.487819 kJ/mol
# Density = 0.821172 g / cm^3
# Si number density = 8.230453 Si / 1000 Ang^3
#
#
#
# Elastic Constant Matrix: (Units=GPa)
#
#
# Indices 1 2 3 4 5 6 
#
# 1 16.8649 33.5110 25.0344 0.0000 0.0000 0.0000
# 2 33.5110 129.7510 44.0416 0.0000 0.0000 0.0000
# 3 25.0344 44.0416 57.1180 0.0000 0.0000 0.0000
# 4 0.0000 0.0000 0.0000 26.9988 0.0000 0.0000
# 5 0.0000 0.0000 0.0000 0.0000 12.1432 0.0000
# 6 0.0000 0.0000 0.0000 0.0000 0.0000 20.3863
#
#
#
# Elastic Compliance Matrix: (Units=1/GPa)
#
#
# Indices 1 2 3 4 5 6 
#
# 1 0.264190 -0.039185 -0.085579 0.000000 0.000000 0.000000
# 2 -0.039185 0.016251 0.004644 0.000000 0.000000 0.000000
# 3 -0.085579 0.004644 0.051436 0.000000 0.000000 0.000000
# 4 0.000000 0.000000 0.000000 0.037039 0.000000 0.000000
# 5 0.000000 0.000000 0.000000 0.000000 0.082351 0.000000
# 6 0.000000 0.000000 0.000000 0.000000 0.000000 0.049053
#
#
# Mechanical properties :
#
#
# Convention : Reuss Voigt Hill
#
# Bulk Modulus (GPa) = 10.91260 45.43421 28.17341
# Shear Modulus (GPa) = 6.48421 18.64878 12.56649
#
# Velocity S-wave (km/s) = 1.98688 3.36953 2.76599
# Velocity P-wave (km/s) = 3.45071 6.54213 5.23005
#
# Compressibility (1/GPa) = 0.09163719
#
# Stress axis : x y z
#
# Youngs Moduli (GPa) = 3.78515 61.53418 19.44174
#
# Poissons Ratio (x) = 2.41119 1.66380
# Poissons Ratio (y) = 0.14832 -0.09028
# Poissons Ratio (z) = 0.32393 -0.28575
#
# Static dielectric constant tensor:
#      x y z
#    x 1.526370 0.000000 0.000000 
#    y 0.000000 1.541640 0.000000 
#    z 0.000000 0.000000 1.651230 
# 
# From -- ./inp_files/46296.got.cif
#   From: 2010.05.17/outbox.ucp.g08.bks.cvg/sg74_24_cif.got.tgz:46296.got - 2010.06.11 16:37:44.
