data_PCOD9540350
_publ_section_title
;
Structure prediction by ZEFSAII (Michael W. Deem and Ramdas Pophale) SiO2 
 PCOD9540350
Probable space group: I M M A
;
_chemical_formula_sum "Si O2"
_cell_formula_units_Z 72
_cell_length_a 24.920988
_cell_length_b 10.017038
_cell_length_c 16.161266
_cell_angle_alpha 90.000000
_cell_angle_beta 90.000000
_cell_angle_gamma 90.000000
_cell_volume 4034.409295
_symmetry_space_group_name_H-M "I M M A"
_symmetry_group_IT_number 74
_symmetry_cell_setting 'orthorhombic'
loop_
_space_group_symop_operation_xyz
x,y,z
-x,1/2-y,z
x,-y,-z
-x,1/2+y,-z
-x,-y,-z
x,1/2+y,-z
-x,y,z
x,1/2-y,z
1/2+x,1/2+y,1/2+z
1/2-x,-y,1/2+z
1/2+x,1/2-y,1/2-z
1/2-x,y,1/2-z
1/2-x,1/2-y,1/2-z
1/2+x,y,1/2-z
1/2-x,1/2+y,1/2+z
1/2+x,-y,1/2+z
loop_
_atom_site_type_symbol
_atom_site_label
_atom_site_fract_x
_atom_site_fract_y
_atom_site_fract_z
Si Si1 0.705556 0.750000 0.981204
Si Si2 0.939750 0.476612 0.598329
Si Si3 0.357873 0.750000 0.149805
Si Si4 0.689799 0.750000 0.711259
Si Si5 0.606627 0.250000 0.141219
Si Si6 0.708825 0.027154 0.415114
Si Si7 0.203661 0.250000 0.816336
O O1 0.648046 0.750000 0.936267
O O2 0.739766 0.880819 0.948854
O O3 0.689836 0.750000 0.079153
O O4 0.934959 0.500000 0.500000
O O5 0.893841 0.378068 0.628814
O O6 0.929384 0.619547 0.638552
O O7 0.000000 0.426709 0.614847
O O8 0.344668 0.750000 0.248282
O O9 0.750000 0.750000 0.750000
O O10 0.646570 0.750000 0.782160
O O11 0.684048 0.877664 0.653276
O O12 0.677680 0.000000 0.500000
O O13 0.710886 0.883373 0.370887
O O14 0.250000 0.250000 0.750000
#
# Coordination Sequence:
#
# PCOD9540350 Si02
#       7
#     8  16   8   8   8  16   8
#     4  11  24  36  55  76 113 165 198 221 270 356
#     4  11  23  39  59  84 118 157 200 244 283 338
#     4  12  24  40  60  88 117 157 203 236 293 337
#     4  11  21  37  56  79 116 150 197 240 280 344
#     4  12  22  38  59  81 114 158 204 231 283 342
#     4  11  23  39  53  76 116 156 193 234 288 333
#     4  12  25  34  56  85 117 142 199 250 274 335
#
# _framework density 17.846478000000001
#
# number of rings (size 3 to 8) (size 9 to 14) (size 15 to 20)
#    0.000    0.667    4.444    5.333    6.222    1.778 
#    0.000    0.000    0.000    0.000    0.000    0.000 
#    0.000   62.222    0.000    0.000    0.000    0.000 
#
# Total GULP energy -200674.521199 kJ/mol
# GULP energy per Si atom -5574.292256 kJ/mol
# Density = 1.780586 g / cm^3
# Si number density = 17.846478 Si / 1000 Ang^3
#
#
#
# Elastic Constant Matrix: (Units=GPa)
#
#
# Indices 1 2 3 4 5 6 
#
# 1 65.8370 30.5290 32.4446 0.0000 0.0000 0.0000
# 2 30.5290 162.2533 58.0885 0.0000 0.0000 0.0000
# 3 32.4446 58.0885 138.5881 0.0000 0.0000 0.0000
# 4 0.0000 0.0000 0.0000 46.7175 0.0000 0.0000
# 5 0.0000 0.0000 0.0000 0.0000 18.7737 0.0000
# 6 0.0000 0.0000 0.0000 0.0000 0.0000 41.2425
#
#
#
# Elastic Compliance Matrix: (Units=1/GPa)
#
#
# Indices 1 2 3 4 5 6 
#
# 1 0.017805 -0.002186 -0.003252 0.000000 0.000000 0.000000
# 2 -0.002186 0.007520 -0.002640 0.000000 0.000000 0.000000
# 3 -0.003252 -0.002640 0.009084 0.000000 0.000000 0.000000
# 4 0.000000 0.000000 0.000000 0.021405 0.000000 0.000000
# 5 0.000000 0.000000 0.000000 0.000000 0.053266 0.000000
# 6 0.000000 0.000000 0.000000 0.000000 0.000000 0.024247
#
#
# Mechanical properties :
#
#
# Convention : Reuss Voigt Hill
#
# Bulk Modulus (GPa) = 54.78770 67.64472 61.21621
# Shear Modulus (GPa) = 32.14051 37.72116 34.93083
#
# Velocity S-wave (km/s) = 4.24836 4.60243 4.42893
# Velocity P-wave (km/s) = 7.40478 8.13813 7.78010
#
# Compressibility (1/GPa) = 0.01825227
#
# Stress axis : x y z
#
# Youngs Moduli (GPa) = 56.16304 132.98440 110.08885
#
# Poissons Ratio (x) = 0.29069 0.35803
# Poissons Ratio (y) = 0.12277 0.29065
# Poissons Ratio (z) = 0.18265 0.35109
#
# Static dielectric constant tensor:
#      x y z
#    x 1.634960 0.000000 0.000000 
#    y 0.000000 1.659990 0.000000 
#    z 0.000000 0.000000 1.677450 
# 
# From -- ./inp_files/37102.got.cif
#   From: 2010.05.17/outbox.cif.g08.bks.cpg/sg74_19_cif.got.tgz:37102.got - 2010.06.03 17:57:02.
