data_PCOD9540216
_publ_section_title
;
Structure prediction by ZEFSAII (Michael W. Deem and Ramdas Pophale) SiO2 
 PCOD9540216
Probable space group: I M M A
;
_chemical_formula_sum "Si O2"
_cell_formula_units_Z 104
_cell_length_a 29.624552
_cell_length_b 21.560299
_cell_length_c 7.622521
_cell_angle_alpha 90.000000
_cell_angle_beta 90.000000
_cell_angle_gamma 90.000000
_cell_volume 4868.612394
_symmetry_space_group_name_H-M "I M M A"
_symmetry_group_IT_number 74
_symmetry_cell_setting 'orthorhombic'
loop_
_space_group_symop_operation_xyz
x,y,z
-x,1/2-y,z
x,-y,-z
-x,1/2+y,-z
-x,-y,-z
x,1/2+y,-z
-x,y,z
x,1/2-y,z
1/2+x,1/2+y,1/2+z
1/2-x,-y,1/2+z
1/2+x,1/2-y,1/2-z
1/2-x,y,1/2-z
1/2-x,1/2-y,1/2-z
1/2+x,y,1/2-z
1/2-x,1/2+y,1/2+z
1/2+x,-y,1/2+z
loop_
_atom_site_type_symbol
_atom_site_label
_atom_site_fract_x
_atom_site_fract_y
_atom_site_fract_z
Si Si1 0.072554 0.420418 0.844633
Si Si2 0.783250 0.677504 0.496679
Si Si3 0.312224 0.319149 0.405502
Si Si4 0.593231 0.626538 0.703514
Si Si5 0.356671 0.427847 0.955105
Si Si6 0.000000 0.678567 0.271369
Si Si7 0.000000 0.012076 0.295355
Si Si8 0.000000 0.841384 0.688218
O O1 0.116825 0.424616 0.727214
O O2 0.043725 0.358488 0.797374
O O3 0.041814 0.476248 0.782589
O O4 0.079505 0.420337 0.050650
O O5 0.788188 0.750000 0.431512
O O6 0.730836 0.655880 0.486067
O O7 0.795531 0.682206 0.703533
O O8 0.816516 0.622634 0.437044
O O9 0.317361 0.250000 0.473607
O O10 0.361893 0.345846 0.386691
O O11 0.609758 0.596372 0.887665
O O12 0.550349 0.672691 0.736710
O O13 0.344361 0.500000 0.000000
O O14 0.000000 0.674624 0.483262
O O15 0.000000 0.750000 0.216668
O O16 0.000000 0.000000 0.500000
O O17 0.000000 0.084953 0.279947
#
# Coordination Sequence:
#
# PCOD9540216 Si02
#       8
#    16  16  16  16  16   8   8   8
#     4  11  23  40  61  89 125 167 214 265 319 386
#     4   8  16  35  65  92 121 169 218 263 321 387
#     4   8  16  35  63  90 122 167 218 261 312 392
#     4  11  23  38  63  94 129 168 216 263 324 383
#     4  11  22  38  65  96 131 168 216 268 328 386
#     4  11  24  41  60  90 130 168 213 274 329 382
#     4  11  19  38  63  78 115 167 212 244 300 376
#     4  12  21  38  61  90 120 166 212 257 312 382
#
# _framework density 21.361322999999999
#
# number of rings (size 3 to 8) (size 9 to 14) (size 15 to 20)
#    0.000    1.846    3.077    3.231    0.000    4.923 
#    0.000    1.538   16.923    1.846    0.000    0.000 
#    0.000    0.000    0.000    0.000    0.000    0.000 
#
# Total GULP energy -289824.074094 kJ/mol
# GULP energy per Si atom -5573.539886 kJ/mol
# Density = 2.131270 g / cm^3
# Si number density = 21.361323 Si / 1000 Ang^3
#
#
#
# Elastic Constant Matrix: (Units=GPa)
#
#
# Indices 1 2 3 4 5 6 
#
# 1 150.6410 61.4816 32.0139 0.0000 0.0000 0.0000
# 2 61.4816 117.9562 5.8734 0.0000 0.0000 0.0000
# 3 32.0139 5.8734 80.5459 0.0000 0.0000 0.0000
# 4 0.0000 0.0000 0.0000 11.2953 0.0000 0.0000
# 5 0.0000 0.0000 0.0000 0.0000 97.1885 0.0000
# 6 0.0000 0.0000 0.0000 0.0000 0.0000 18.0975
#
#
#
# Elastic Compliance Matrix: (Units=1/GPa)
#
#
# Indices 1 2 3 4 5 6 
#
# 1 0.009246 -0.004653 -0.003336 0.000000 0.000000 0.000000
# 2 -0.004653 0.010850 0.001058 0.000000 0.000000 0.000000
# 3 -0.003336 0.001058 0.013664 0.000000 0.000000 0.000000
# 4 0.000000 0.000000 0.000000 0.088532 0.000000 0.000000
# 5 0.000000 0.000000 0.000000 0.000000 0.010289 0.000000
# 6 0.000000 0.000000 0.000000 0.000000 0.000000 0.055256
#
#
# Mechanical properties :
#
#
# Convention : Reuss Voigt Hill
#
# Bulk Modulus (GPa) = 50.25327 60.87565 55.56446
# Shear Modulus (GPa) = 24.00001 41.96788 32.98395
#
# Velocity S-wave (km/s) = 3.35554 4.43727 3.93376
# Velocity P-wave (km/s) = 6.21203 7.40354 6.83380
#
# Compressibility (1/GPa) = 0.01989920
#
# Stress axis : x y z
#
# Youngs Moduli (GPa) = 108.15034 92.16200 73.18534
#
# Poissons Ratio (x) = 0.42886 0.24413
# Poissons Ratio (y) = 0.50326 -0.07745
# Poissons Ratio (z) = 0.36076 -0.09754
#
# Static dielectric constant tensor:
#      x y z
#    x 1.948960 0.000000 0.000000 
#    y 0.000000 1.785370 0.000000 
#    z 0.000000 0.000000 1.749550 
# 
# From -- ./inp_files/16299.got.cif
#   From: 2010.05.17/outbox.cif.g08.bks.cpg/sg74_9_cif.got.tgz:16299.got - 2010.06.03 17:57:02.
