data_PCOD9540795
_publ_section_title
;
Structure prediction by ZEFSAII (Michael W. Deem and Ramdas Pophale) SiO2 
 PCOD9540795
Probable space group: I M M A
;
_chemical_formula_sum "Si O2"
_cell_formula_units_Z 48
_cell_length_a 9.000000
_cell_length_b 24.000000
_cell_length_c 27.000000
_cell_angle_alpha 90.000000
_cell_angle_beta 90.000000
_cell_angle_gamma 90.000000
_cell_volume 5832.000000
_symmetry_space_group_name_H-M "I M M A"
_symmetry_group_IT_number 74
_symmetry_cell_setting 'orthorhombic'
loop_
_space_group_symop_operation_xyz
x,y,z
-x,1/2-y,z
x,-y,-z
-x,1/2+y,-z
-x,-y,-z
x,1/2+y,-z
-x,y,z
x,1/2-y,z
1/2+x,1/2+y,1/2+z
1/2-x,-y,1/2+z
1/2+x,1/2-y,1/2-z
1/2-x,y,1/2-z
1/2-x,1/2-y,1/2-z
1/2+x,y,1/2-z
1/2-x,1/2+y,1/2+z
1/2+x,-y,1/2+z
loop_
_atom_site_type_symbol
_atom_site_label
_atom_site_fract_x
_atom_site_fract_y
_atom_site_fract_z
Si Si1 0.822139 0.538696 0.099917
Si Si2 0.676810 0.480051 0.299887
Si Si3 0.179657 0.128291 0.145044
Si Si4 0.676907 0.435062 0.052979
Si Si5 0.319965 0.250000 0.377441
Si Si6 0.678116 0.632633 0.465625
Si Si7 0.680887 0.250000 0.493103
O O1 0.777227 0.518206 0.154058
O O2 0.740080 0.496339 0.063254
O O3 0.792430 0.602745 0.086613
O O4 0.000000 0.529178 0.094975
O O5 0.500000 0.482628 0.295964
O O6 0.750000 0.498913 0.250000
O O7 0.716540 0.415671 0.312105
O O8 0.260029 0.103156 0.097290
O O9 0.224166 0.192687 0.149161
O O10 0.000000 0.125754 0.137483
O O11 0.500000 0.435771 0.052120
O O12 0.744434 0.407312 0.004769
O O13 0.500000 0.250000 0.378771
O O14 0.270962 0.250000 0.435332
O O15 0.500000 0.631229 0.473521
O O16 0.728498 0.694838 0.477770
O O17 0.500000 0.250000 0.491766
#
# Coordination Sequence:
#
# PCOD9540795 Si02
#       7
#    16  16  16  16   8  16   8
#     4   9  19  33  49  67  89 120 154 188 228 275
#     4   9  18  32  49  68  88 113 148 191 240 282
#     4   9  17  31  49  67  89 122 161 192 225 270
#     4  11  20  28  42  67  98 126 154 188 226 265
#     4   9  14  26  49  69  87 118 163 197 216 254
#     4  10  18  31  48  67  93 123 156 187 219 266
#     4   9  16  26  48  73  90 120 159 190 217 252
#
# _framework density 8.2304530000000007
#
# number of rings (size 3 to 8) (size 9 to 14) (size 15 to 20)
#    0.000    2.500    1.667    3.000    0.000    5.333 
#    0.000    2.083    0.000    0.000    0.000    0.583 
#    0.000    0.000    0.000    0.000    0.000    0.000 
#
# Total GULP energy -267232.414078 kJ/mol
# GULP energy per Si atom -5567.341960 kJ/mol
# Density = 0.821172 g / cm^3
# Si number density = 8.230453 Si / 1000 Ang^3
#
#
#
# Elastic Constant Matrix: (Units=GPa)
#
#
# Indices 1 2 3 4 5 6 
#
# 1 -3.2548 15.4693 18.9569 0.0000 0.0000 0.0000
# 2 15.4693 41.9474 56.5614 0.0000 0.0000 0.0000
# 3 18.9569 56.5614 78.9000 0.0000 0.0000 0.0000
# 4 0.0000 0.0000 0.0000 -1.8640 0.0000 0.0000
# 5 0.0000 0.0000 0.0000 0.0000 14.9225 0.0000
# 6 0.0000 0.0000 0.0000 0.0000 0.0000 0.0264
#
#
#
# Elastic Compliance Matrix: (Units=1/GPa)
#
#
# Indices 1 2 3 4 5 6 
#
# 1 -0.096777 0.129931 -0.069892 0.000000 0.000000 0.000000
# 2 0.129931 0.539852 -0.418224 0.000001 0.000000 0.000003
# 3 -0.069892 -0.418224 0.329281 0.000000 0.000000 -0.000002
# 4 0.000000 0.000001 0.000000 -0.536474 0.000000 -0.000007
# 5 0.000000 0.000000 0.000000 0.000000 0.067013 0.000000
# 6 0.000000 0.000003 -0.000002 -0.000007 0.000000 37.810808
#
#
# Mechanical properties :
#
#
# Convention : Reuss Voigt Hill
#
# Bulk Modulus (GPa) = 17.86175 33.28530 25.57353
# Shear Modulus (GPa) = 0.12870 4.39066 2.25968
#
# Velocity S-wave (km/s) = 0.27992 1.63497 1.17292
# Velocity P-wave (km/s) = 3.31346 4.88148 4.17181
#
# Compressibility (1/GPa) = 0.05598555
#
# Stress axis : x y z
#
# Youngs Moduli (GPa) = -10.33298 1.85236 3.03692
#
# Poissons Ratio (x) = -0.24068 0.21226
# Poissons Ratio (y) = 1.34258 1.27011
# Poissons Ratio (z) = -0.72220 0.77470
#
# Static dielectric constant tensor:
#      x y z
#    x 1.547870 0.000000 0.000000 
#    y 0.000000 1.589590 0.000000 
#    z 0.000000 0.000000 1.573540 
# 
# From -- ./inp_files/64729.got.cif
#   From: 2010.05.17/outbox.ucp.g08.bks.cvg/sg74_33_cif.got.tgz:64729.got - 2010.06.11 16:37:44.
