data_PCOD9540253
_publ_section_title
;
Structure prediction by ZEFSAII (Michael W. Deem and Ramdas Pophale) SiO2 
 PCOD9540253
Probable space group: I M M A
;
_chemical_formula_sum "Si O2"
_cell_formula_units_Z 72
_cell_length_a 14.713239
_cell_length_b 22.534757
_cell_length_c 9.482653
_cell_angle_alpha 90.000000
_cell_angle_beta 90.000000
_cell_angle_gamma 90.000000
_cell_volume 3144.061464
_symmetry_space_group_name_H-M "I M M A"
_symmetry_group_IT_number 74
_symmetry_cell_setting 'orthorhombic'
loop_
_space_group_symop_operation_xyz
x,y,z
-x,1/2-y,z
x,-y,-z
-x,1/2+y,-z
-x,-y,-z
x,1/2+y,-z
-x,y,z
x,1/2-y,z
1/2+x,1/2+y,1/2+z
1/2-x,-y,1/2+z
1/2+x,1/2-y,1/2-z
1/2-x,y,1/2-z
1/2-x,1/2-y,1/2-z
1/2+x,y,1/2-z
1/2-x,1/2+y,1/2+z
1/2+x,-y,1/2+z
loop_
_atom_site_type_symbol
_atom_site_label
_atom_site_fract_x
_atom_site_fract_y
_atom_site_fract_z
Si Si1 0.892828 0.056980 0.604631
Si Si2 0.851648 0.815791 0.417465
Si Si3 0.500000 0.687883 0.840003
Si Si4 0.000000 0.401799 0.087962
Si Si5 0.000000 0.314548 0.827806
Si Si6 0.324724 0.521356 0.647112
O O1 0.826410 0.113738 0.574966
O O2 0.000000 0.077003 0.605465
O O3 0.894768 0.000000 0.500000
O O4 0.864012 0.031422 0.755994
O O5 0.802132 0.750000 0.415256
O O6 0.914677 0.812809 0.555636
O O7 0.912871 0.815934 0.275745
O O8 0.500000 0.750000 0.760189
O O9 0.500000 0.636578 0.729472
O O10 0.090651 0.439761 0.100870
O O11 0.000000 0.364254 0.945544
O O12 0.000000 0.250000 0.898397
O O13 0.283681 0.500000 0.500000
O O14 0.250000 0.550848 0.750000
#
# Coordination Sequence:
#
# PCOD9540253 Si02
#       6
#    16  16   8   8   8  16
#     4  11  20  34  61  93 125 167 206 259 315 372
#     4   9  17  31  53  89 127 162 208 253 304 376
#     4   9  17  29  53  91 125 154 199 251 302 375
#     4  12  22  39  66  90 123 164 209 255 327 384
#     4   9  17  30  54  89 122 158 212 264 304 365
#     4  12  27  43  60  91 128 164 211 267 322 380
#
# _framework density 22.900317000000001
#
# number of rings (size 3 to 8) (size 9 to 14) (size 15 to 20)
#    0.000    1.556    3.333    5.333    0.000    0.000 
#    0.000    0.000    0.000    3.333    0.000   12.444 
#    0.000    6.222    0.000    0.000    0.000    0.000 
#
# Total GULP energy -200649.256666 kJ/mol
# GULP energy per Si atom -5573.590463 kJ/mol
# Density = 2.284819 g / cm^3
# Si number density = 22.900317 Si / 1000 Ang^3
#
#
#
# Elastic Constant Matrix: (Units=GPa)
#
#
# Indices 1 2 3 4 5 6 
#
# 1 72.0159 17.1046 17.6581 0.0003 0.0000 0.0000
# 2 17.1046 172.9100 42.3276 -0.0004 0.0000 0.0000
# 3 17.6581 42.3276 135.8807 -0.0121 0.0002 0.0000
# 4 0.0003 -0.0004 -0.0121 1374.5089 -0.0009 0.0007
# 5 0.0000 0.0000 0.0002 -0.0009 -7.9932 0.0000
# 6 0.0000 0.0000 0.0000 0.0007 0.0000 13.9043
#
#
#
# Elastic Compliance Matrix: (Units=1/GPa)
#
#
# Indices 1 2 3 4 5 6 
#
# 1 0.014518 -0.001055 -0.001558 0.000000 0.000000 0.000000
# 2 -0.001055 0.006337 -0.001837 0.000000 0.000000 0.000000
# 3 -0.001558 -0.001837 0.008134 0.000000 0.000000 0.000000
# 4 0.000000 0.000000 0.000000 0.000728 0.000000 0.000000
# 5 0.000000 0.000000 0.000000 0.000000 -0.125106 0.000000
# 6 0.000000 0.000000 0.000000 0.000000 0.000000 0.071920
#
#
# Mechanical properties :
#
#
# Convention : Reuss Voigt Hill
#
# Bulk Modulus (GPa) = 49.77606 59.44305 54.60956
# Shear Modulus (GPa) = -635.21475 296.33174 -169.44151
#
# Velocity S-wave (km/s) = -16.67287 11.38778 -8.61113
# Velocity P-wave (km/s) = 18.67788 14.10399 8.65854
#
# Compressibility (1/GPa) = 0.02008998
#
# Stress axis : x y z
#
# Youngs Moduli (GPa) = 68.87813 157.79340 122.93862
#
# Poissons Ratio (x) = 0.16643 0.19156
# Poissons Ratio (y) = 0.07265 0.22585
# Poissons Ratio (z) = 0.10732 0.28988
#
# Static dielectric constant tensor:
#      x y z
#    x 1.968210 0.000000 0.000000 
#    y 0.000000 1.776770 0.000000 
#    z 0.000000 0.000000 1.798640 
# 
# From -- ./inp_files/10720.got.cif
#   From: 2010.05.17/outbox.cif.g08.bks.cpg/sg74_6_cif.got.tgz:10720.got - 2010.06.03 17:57:02.
