data_PCOD9540788
_publ_section_title
;
Structure prediction by ZEFSAII (Michael W. Deem and Ramdas Pophale) SiO2 
 PCOD9540788
Probable space group: I M M A
;
_chemical_formula_sum "Si O2"
_cell_formula_units_Z 48
_cell_length_a 9.000000
_cell_length_b 24.000000
_cell_length_c 27.000000
_cell_angle_alpha 90.000000
_cell_angle_beta 90.000000
_cell_angle_gamma 90.000000
_cell_volume 5832.000000
_symmetry_space_group_name_H-M "I M M A"
_symmetry_group_IT_number 74
_symmetry_cell_setting 'orthorhombic'
loop_
_space_group_symop_operation_xyz
x,y,z
-x,1/2-y,z
x,-y,-z
-x,1/2+y,-z
-x,-y,-z
x,1/2+y,-z
-x,y,z
x,1/2-y,z
1/2+x,1/2+y,1/2+z
1/2-x,-y,1/2+z
1/2+x,1/2-y,1/2-z
1/2-x,y,1/2-z
1/2-x,1/2-y,1/2-z
1/2+x,y,1/2-z
1/2-x,1/2+y,1/2+z
1/2+x,-y,1/2+z
loop_
_atom_site_type_symbol
_atom_site_label
_atom_site_fract_x
_atom_site_fract_y
_atom_site_fract_z
Si Si1 0.677707 0.413143 0.639180
Si Si2 0.822732 0.816078 0.303807
Si Si3 0.667756 0.904611 0.880241
Si Si4 0.321651 0.684254 0.802738
Si Si5 0.178685 0.504211 0.943057
Si Si6 0.833456 0.497869 0.296169
O O1 0.500000 0.407080 0.638261
O O2 0.753438 0.354363 0.652757
O O3 0.723606 0.450248 0.590702
O O4 0.732489 0.452328 0.683973
O O5 0.796688 0.750000 0.312579
O O6 0.750000 0.829431 0.250000
O O7 0.000000 0.825381 0.301066
O O8 0.500000 0.892089 0.898257
O O9 0.729600 0.851386 0.850370
O O10 0.761558 0.937525 0.921023
O O11 0.656535 0.951419 0.837813
O O12 0.500000 0.675750 0.799204
O O13 0.292983 0.750000 0.809841
O O14 0.250000 0.668094 0.750000
O O15 0.000000 0.505331 0.940972
O O16 0.226598 0.500000 0.000000
O O17 0.750000 0.472243 0.250000
O O18 0.000000 0.517242 0.284408
#
# Coordination Sequence:
#
# PCOD9540788 Si02
#       6
#    16  16  16  16  16  16
#     4  10  19  31  48  68  91 120 153 189 232 279
#     4  10  20  33  49  70  98 130 161 191 223 265
#     4   9  18  30  45  67  92 121 155 190 231 277
#     4   9  17  29  45  67  97 130 162 193 224 264
#     4   9  19  35  53  72  92 116 150 195 244 287
#     4  10  18  27  40  61  91 121 151 186 225 273
#
# _framework density 8.2304530000000007
#
# number of rings (size 3 to 8) (size 9 to 14) (size 15 to 20)
#    0.000    2.500    0.000    2.500    0.000    3.333 
#    0.000    0.000    0.000    1.000    0.000    4.667 
#    0.000    0.000    0.000    0.000    0.000    0.000 
#
# Total GULP energy -267242.807771 kJ/mol
# GULP energy per Si atom -5567.558495 kJ/mol
# Density = 0.821172 g / cm^3
# Si number density = 8.230453 Si / 1000 Ang^3
#
#
#
# Elastic Constant Matrix: (Units=GPa)
#
#
# Indices 1 2 3 4 5 6 
#
# 1 44.8720 30.9119 38.8065 0.0000 0.0000 0.0000
# 2 30.9119 94.9430 46.6941 0.0000 0.0000 0.0000
# 3 38.8065 46.6941 95.7830 0.0000 0.0000 0.0000
# 4 0.0000 0.0000 0.0000 23.4012 0.0000 0.0000
# 5 0.0000 0.0000 0.0000 0.0000 19.6202 0.0000
# 6 0.0000 0.0000 0.0000 0.0000 0.0000 23.3309
#
#
#
# Elastic Compliance Matrix: (Units=1/GPa)
#
#
# Indices 1 2 3 4 5 6 
#
# 1 0.036824 -0.006119 -0.011936 0.000000 0.000000 0.000000
# 2 -0.006119 0.014871 -0.004771 0.000000 0.000000 0.000000
# 3 -0.011936 -0.004771 0.017602 0.000000 0.000000 0.000000
# 4 0.000000 0.000000 0.000000 0.042733 0.000000 0.000000
# 5 0.000000 0.000000 0.000000 0.000000 0.050968 0.000000
# 6 0.000000 0.000000 0.000000 0.000000 0.000000 0.042862
#
#
# Mechanical properties :
#
#
# Convention : Reuss Voigt Hill
#
# Bulk Modulus (GPa) = 42.29162 52.04700 47.16931
# Shear Modulus (GPa) = 19.27586 21.21615 20.24600
#
# Velocity S-wave (km/s) = 3.42571 3.59399 3.51086
# Velocity P-wave (km/s) = 6.43392 6.99354 6.71956
#
# Compressibility (1/GPa) = 0.02364534
#
# Stress axis : x y z
#
# Youngs Moduli (GPa) = 27.15654 67.24473 56.81215
#
# Poissons Ratio (x) = 0.41146 0.67812
# Poissons Ratio (y) = 0.16617 0.27103
# Poissons Ratio (z) = 0.32415 0.32080
#
# Static dielectric constant tensor:
#      x y z
#    x 1.578780 0.000000 0.000000 
#    y 0.000000 1.573950 0.000000 
#    z 0.000000 0.000000 1.572720 
# 
# From -- ./inp_files/64672.got.cif
#   From: 2010.05.17/outbox.ucp.g08.bks.cvg/sg74_33_cif.got.tgz:64672.got - 2010.06.11 16:37:44.
