data_PCOD9540158
_publ_section_title
;
Structure prediction by ZEFSAII (Michael W. Deem and Ramdas Pophale) SiO2 
 PCOD9540158
Probable space group: I M M A
;
_chemical_formula_sum "Si O2"
_cell_formula_units_Z 116
_cell_length_a 26.307751
_cell_length_b 7.803463
_cell_length_c 26.453517
_cell_angle_alpha 90.000000
_cell_angle_beta 90.000000
_cell_angle_gamma 90.000000
_cell_volume 5430.683813
_symmetry_space_group_name_H-M "I M M A"
_symmetry_group_IT_number 74
_symmetry_cell_setting 'orthorhombic'
loop_
_space_group_symop_operation_xyz
x,y,z
-x,1/2-y,z
x,-y,-z
-x,1/2+y,-z
-x,-y,-z
x,1/2+y,-z
-x,y,z
x,1/2-y,z
1/2+x,1/2+y,1/2+z
1/2-x,-y,1/2+z
1/2+x,1/2-y,1/2-z
1/2-x,y,1/2-z
1/2-x,1/2-y,1/2-z
1/2+x,y,1/2-z
1/2-x,1/2+y,1/2+z
1/2+x,-y,1/2+z
loop_
_atom_site_type_symbol
_atom_site_label
_atom_site_fract_x
_atom_site_fract_y
_atom_site_fract_z
Si Si1 0.334445 0.944172 0.853388
Si Si2 0.590800 0.539822 0.943764
Si Si3 0.500000 0.250000 0.937117
Si Si4 0.055625 0.454947 0.923915
Si Si5 0.161795 0.447573 0.241786
Si Si6 0.943907 0.044903 0.803171
Si Si7 0.226670 0.438557 0.853175
Si Si8 0.334356 0.056588 0.445410
O O1 0.352918 0.750000 0.845383
O O2 0.368646 0.005028 0.899831
O O3 0.337811 0.027510 0.797692
O O4 0.274601 0.943509 0.864762
O O5 0.578799 0.750000 0.941540
O O6 0.544105 0.405680 0.937899
O O7 0.611438 0.500000 0.000000
O O8 0.059071 0.250000 0.932375
O O9 0.057826 0.482688 0.863425
O O10 0.104674 0.543124 0.946447
O O11 0.000000 0.514990 0.941159
O O12 0.178557 0.250000 0.244962
O O13 0.104196 0.458102 0.221965
O O14 0.198295 0.528293 0.199598
O O15 0.939859 0.250000 0.795141
O O16 0.000000 0.989535 0.785151
O O17 0.248922 0.250000 0.852305
O O18 0.185980 0.450659 0.898146
O O19 0.319333 0.250000 0.435467
O O20 0.314731 0.000000 0.500000
#
# Coordination Sequence:
#
# PCOD9540158 Si02
#       8
#    16  16   4  16  16  16  16  16
#     4  10  25  46  65  96 137 172 217 273 329 388
#     4  11  24  44  73 107 146 185 228 281 336 406
#     4  12  24  44  78 110 142 190 232 276 330 424
#     4   9  18  35  59  85 120 159 201 255 314 372
#     4  11  22  40  65  93 128 172 219 269 330 397
#     4   9  18  34  57  87 124 165 208 261 315 375
#     4  12  25  42  67  93 125 169 219 275 331 393
#     4  12  25  41  62  90 123 162 213 266 323 388
#
# _framework density 21.360109000000001
#
# number of rings (size 3 to 8) (size 9 to 14) (size 15 to 20)
#    0.000    1.379    2.069    4.552    0.966    4.138 
#    1.241    2.759    0.000    0.000    0.000    0.000 
#    0.000    0.000    0.000    0.000    0.000    0.000 
#
# Total GULP energy -323192.674408 kJ/mol
# GULP energy per Si atom -5572.287490 kJ/mol
# Density = 2.131149 g / cm^3
# Si number density = 21.360109 Si / 1000 Ang^3
#
#
#
# Elastic Constant Matrix: (Units=GPa)
#
#
# Indices 1 2 3 4 5 6 
#
# 1 89.8142 12.8057 61.4784 0.0000 0.0000 0.0000
# 2 12.8057 86.9656 30.7009 0.0000 0.0000 0.0000
# 3 61.4784 30.7009 140.2706 0.0000 0.0000 0.0000
# 4 0.0000 0.0000 0.0000 17.1126 0.0000 0.0000
# 5 0.0000 0.0000 0.0000 0.0000 -0.8464 0.0000
# 6 0.0000 0.0000 0.0000 0.0000 0.0000 33.0561
#
#
#
# Elastic Compliance Matrix: (Units=1/GPa)
#
#
# Indices 1 2 3 4 5 6 
#
# 1 0.015907 0.000129 -0.007000 0.000000 0.000000 0.000000
# 2 0.000129 0.012463 -0.002784 0.000000 0.000000 0.000000
# 3 -0.007000 -0.002784 0.010807 0.000000 0.000000 0.000000
# 4 0.000000 0.000000 0.000000 0.058436 0.000000 0.000000
# 5 0.000000 0.000000 0.000000 0.000000 -1.181418 0.000000
# 6 0.000000 0.000000 0.000000 0.000000 0.000000 0.030252
#
#
# Mechanical properties :
#
#
# Convention : Reuss Voigt Hill
#
# Bulk Modulus (GPa) = 50.33819 58.55782 54.44800
# Shear Modulus (GPa) = -4.86561 24.00215 9.56827
#
# Velocity S-wave (km/s) = -1.51091 3.35579 2.11878
# Velocity P-wave (km/s) = 4.53584 6.51837 5.61529
#
# Compressibility (1/GPa) = 0.01986563
#
# Stress axis : x y z
#
# Youngs Moduli (GPa) = 62.86388 80.23938 92.53686
#
# Poissons Ratio (x) = -0.01034 0.64777
# Poissons Ratio (y) = -0.00810 0.25764
# Poissons Ratio (z) = 0.44006 0.22340
#
# Static dielectric constant tensor:
#      x y z
#    x 1.751090 0.000000 0.000000 
#    y 0.000000 1.896900 0.000000 
#    z 0.000000 0.000000 1.863530 
# 
# From -- ./inp_files/62437.got.cif
#   From: 2010.05.17/outbox.cif.g08.bks.cpg/sg74_32_cif.got.tgz:62437.got - 2010.06.03 17:57:02.
