data_PCOD9540805
_publ_section_title
;
Structure prediction by ZEFSAII (Michael W. Deem and Ramdas Pophale) SiO2 
 PCOD9540805
Probable space group: I M M A
;
_chemical_formula_sum "Si O2"
_cell_formula_units_Z 48
_cell_length_a 18.000000
_cell_length_b 12.000000
_cell_length_c 27.000000
_cell_angle_alpha 90.000000
_cell_angle_beta 90.000000
_cell_angle_gamma 90.000000
_cell_volume 5832.000000
_symmetry_space_group_name_H-M "I M M A"
_symmetry_group_IT_number 74
_symmetry_cell_setting 'orthorhombic'
loop_
_space_group_symop_operation_xyz
x,y,z
-x,1/2-y,z
x,-y,-z
-x,1/2+y,-z
-x,-y,-z
x,1/2+y,-z
-x,y,z
x,1/2-y,z
1/2+x,1/2+y,1/2+z
1/2-x,-y,1/2+z
1/2+x,1/2-y,1/2-z
1/2-x,y,1/2-z
1/2-x,1/2-y,1/2-z
1/2+x,y,1/2-z
1/2-x,1/2+y,1/2+z
1/2+x,-y,1/2+z
loop_
_atom_site_type_symbol
_atom_site_label
_atom_site_fract_x
_atom_site_fract_y
_atom_site_fract_z
Si Si1 0.646490 0.476264 0.302075
Si Si2 0.583230 0.750000 0.537560
Si Si3 0.912909 0.381756 0.886329
Si Si4 0.187942 0.953647 0.950962
Si Si5 0.586856 0.381114 0.203115
Si Si6 0.224764 0.119119 0.354805
Si Si7 0.580569 0.250000 0.344308
O O1 0.612210 0.580294 0.331214
O O2 0.619412 0.458515 0.246560
O O3 0.732975 0.460037 0.315145
O O4 0.616258 0.365503 0.329529
O O5 0.500000 0.750000 0.515410
O O6 0.631797 0.640732 0.528515
O O7 0.575415 0.750000 0.596907
O O8 0.903233 0.250000 0.893757
O O9 0.862170 0.454438 0.922902
O O10 0.000000 0.409800 0.892922
O O11 0.243365 0.907145 0.909065
O O12 0.226889 0.000000 0.000000
O O13 0.500000 0.400878 0.195839
O O14 0.596448 0.250000 0.218258
O O15 0.637604 0.396445 0.154725
O O16 0.240534 0.250000 0.344160
O O17 0.500000 0.250000 0.320349
#
# Coordination Sequence:
#
# PCOD9540805 Si02
#       7
#    16   8  16  16  16  16   8
#     4  11  17  29  48  72 103 137 165 193 231 295
#     4  11  20  32  49  73  99 131 165 203 245 288
#     4  10  21  33  45  67 102 141 173 203 236 281
#     4  11  22  35  51  69  94 131 169 210 251 292
#     4  10  19  28  48  80 107 126 152 200 257 300
#     4  10  18  33  49  72 102 129 161 200 247 296
#     4  11  16  24  44  70 100 132 162 191 229 280
#
# _framework density 8.2304530000000007
#
# number of rings (size 3 to 8) (size 9 to 14) (size 15 to 20)
#    0.000    1.500    5.833    2.500    1.167    2.667 
#    0.000    0.000    0.000    8.500    0.000    0.000 
#    0.000    0.000    0.000    0.000    0.000    0.000 
#
# Total GULP energy -267461.291254 kJ/mol
# GULP energy per Si atom -5572.110234 kJ/mol
# Density = 0.821172 g / cm^3
# Si number density = 8.230453 Si / 1000 Ang^3
#
#
#
# Elastic Constant Matrix: (Units=GPa)
#
#
# Indices 1 2 3 4 5 6 
#
# 1 81.6532 16.5627 44.4160 0.0000 0.0000 0.0000
# 2 16.5627 45.8951 14.7822 0.0000 0.0000 0.0000
# 3 44.4160 14.7822 66.2612 0.0000 0.0000 0.0000
# 4 0.0000 0.0000 0.0000 -19.2525 0.0000 0.0000
# 5 0.0000 0.0000 0.0000 0.0000 5.1984 0.0000
# 6 0.0000 0.0000 0.0000 0.0000 0.0000 15.3764
#
#
#
# Elastic Compliance Matrix: (Units=1/GPa)
#
#
# Indices 1 2 3 4 5 6 
#
# 1 0.019669 -0.003072 -0.012499 0.000000 0.000000 0.000000
# 2 -0.003072 0.023956 -0.003285 0.000000 0.000000 0.000000
# 3 -0.012499 -0.003285 0.024203 0.000000 0.000000 0.000000
# 4 0.000000 0.000000 0.000000 -0.051941 0.000000 0.000000
# 5 0.000000 0.000000 0.000000 0.000000 0.192368 0.000000
# 6 0.000000 0.000000 0.000000 0.000000 0.000000 0.065035
#
#
# Mechanical properties :
#
#
# Convention : Reuss Voigt Hill
#
# Bulk Modulus (GPa) = 33.20598 38.37016 35.78807
# Shear Modulus (GPa) = 15.57436 8.13435 11.85436
#
# Velocity S-wave (km/s) = 3.07928 2.22539 2.68648
# Velocity P-wave (km/s) = 5.73228 5.47390 5.60458
#
# Compressibility (1/GPa) = 0.03011505
#
# Stress axis : x y z
#
# Youngs Moduli (GPa) = 50.84112 41.74391 41.31729
#
# Poissons Ratio (x) = 0.12826 0.51643
# Poissons Ratio (y) = 0.15621 0.13572
# Poissons Ratio (z) = 0.63547 0.13712
#
# Static dielectric constant tensor:
#      x y z
#    x 1.602920 0.000000 0.000000 
#    y 0.000000 1.552640 0.000000 
#    z 0.000000 0.000000 1.579080 
# 
# From -- ./inp_files/67706.got.cif
#   From: 2010.05.17/outbox.ucp.g08.bks.cvg/sg74_34_cif.got.tgz:67706.got - 2010.06.11 16:37:44.
