data_PCOD9540400
_publ_section_title
;
Structure prediction by ZEFSAII (Michael W. Deem and Ramdas Pophale) SiO2 
 PCOD9540400
Probable space group: I M M A
;
_chemical_formula_sum "Si O2"
_cell_formula_units_Z 112
_cell_length_a 14.749968
_cell_length_b 21.874904
_cell_length_c 14.263948
_cell_angle_alpha 90.000000
_cell_angle_beta 90.000000
_cell_angle_gamma 90.000000
_cell_volume 4602.321789
_symmetry_space_group_name_H-M "I M M A"
_symmetry_group_IT_number 74
_symmetry_cell_setting 'orthorhombic'
loop_
_space_group_symop_operation_xyz
x,y,z
-x,1/2-y,z
x,-y,-z
-x,1/2+y,-z
-x,-y,-z
x,1/2+y,-z
-x,y,z
x,1/2-y,z
1/2+x,1/2+y,1/2+z
1/2-x,-y,1/2+z
1/2+x,1/2-y,1/2-z
1/2-x,y,1/2-z
1/2-x,1/2-y,1/2-z
1/2+x,y,1/2-z
1/2-x,1/2+y,1/2+z
1/2+x,-y,1/2+z
loop_
_atom_site_type_symbol
_atom_site_label
_atom_site_fract_x
_atom_site_fract_y
_atom_site_fract_z
Si Si1 0.688225 0.838275 0.376714
Si Si2 0.093907 0.608277 0.587975
Si Si3 0.831425 0.483037 0.889829
Si Si4 0.129330 0.489098 0.687501
Si Si5 0.401434 0.823544 0.713774
Si Si6 0.603544 0.157195 0.814177
Si Si7 0.758721 0.318644 0.065298
O O1 0.622983 0.820852 0.292113
O O2 0.796004 0.824783 0.356165
O O3 0.672471 0.813360 0.479489
O O4 0.669141 0.910169 0.384948
O O5 0.088148 0.538389 0.617419
O O6 0.100783 0.646062 0.684919
O O7 0.183175 0.631712 0.537708
O O8 0.000000 0.625692 0.539076
O O9 0.888601 0.505428 0.797816
O O10 0.732068 0.497629 0.849273
O O11 0.847059 0.500000 0.000000
O O12 0.105290 0.417511 0.677973
O O13 0.500000 0.838631 0.671438
O O14 0.396195 0.750000 0.721611
O O15 0.315711 0.842450 0.652886
O O16 0.500000 0.176373 0.841035
O O17 0.721660 0.250000 0.083082
#
# Coordination Sequence:
#
# PCOD9540400 Si02
#       7
#    16  16  16  16  16  16  16
#     4   9  20  35  55  84 108 140 191 234 284 342
#     4  11  22  34  53  82 116 152 190 229 269 327
#     4   9  17  30  51  79 113 151 182 237 285 329
#     4   9  19  31  52  83 113 150 193 229 273 347
#     4   9  20  37  54  76 107 144 189 232 270 320
#     4   9  18  38  60  79 111 148 182 229 292 344
#     4  11  23  38  59  82 111 151 189 236 290 338
#
# _framework density 24.335543999999999
#
# number of rings (size 3 to 8) (size 9 to 14) (size 15 to 20)
#    0.000    2.429    0.000    3.857    6.000    3.143 
#    0.000    1.429    0.000    7.714    0.000    0.000 
#    0.000    0.000    0.000    0.000    0.000    0.000 
#
# Total GULP energy -311861.910437 kJ/mol
# GULP energy per Si atom -5568.962686 kJ/mol
# Density = 2.428016 g / cm^3
# Si number density = 24.335544 Si / 1000 Ang^3
#
#
#
# Elastic Constant Matrix: (Units=GPa)
#
#
# Indices 1 2 3 4 5 6 
#
# 1 74.0995 16.4874 6.8639 0.0000 0.0000 0.0000
# 2 16.4874 74.4495 2.9503 0.0002 -0.0001 0.0000
# 3 6.8639 2.9503 109.9060 0.0005 -0.0003 0.0000
# 4 0.0000 0.0002 0.0005 -79.8138 -0.0001 0.0000
# 5 0.0000 -0.0001 -0.0003 -0.0001 99.8697 0.0001
# 6 0.0000 0.0000 0.0000 0.0000 0.0001 67.4997
#
#
#
# Elastic Compliance Matrix: (Units=1/GPa)
#
#
# Indices 1 2 3 4 5 6 
#
# 1 0.014266 -0.003127 -0.000807 0.000000 0.000000 0.000000
# 2 -0.003127 0.014132 -0.000184 0.000000 0.000000 0.000000
# 3 -0.000807 -0.000184 0.009154 0.000000 0.000000 0.000000
# 4 0.000000 0.000000 0.000000 -0.012529 0.000000 0.000000
# 5 0.000000 0.000000 0.000000 0.000000 0.010013 0.000000
# 6 0.000000 0.000000 0.000000 0.000000 0.000000 0.014815
#
#
# Mechanical properties :
#
#
# Convention : Reuss Voigt Hill
#
# Bulk Modulus (GPa) = 34.11219 34.56204 34.33711
# Shear Modulus (GPa) = 73.68217 32.98798 53.33508
#
# Velocity S-wave (km/s) = 5.50848 3.68577 4.68659
# Velocity P-wave (km/s) = 7.38279 5.68738 6.58984
#
# Compressibility (1/GPa) = 0.02931503
#
# Stress axis : x y z
#
# Youngs Moduli (GPa) = 70.09688 70.76240 109.24153
#
# Poissons Ratio (x) = 0.22130 0.08816
# Poissons Ratio (y) = 0.21922 0.02011
# Poissons Ratio (z) = 0.05657 0.01302
#
# Static dielectric constant tensor:
#      x y z
#    x 2.102650 0.000000 0.000000 
#    y 0.000000 1.989980 0.000000 
#    z 0.000000 0.000000 1.951190 
# 
# From -- ./inp_files/32773.got.cif
#   From: 2010.05.17/outbox.cif.g08.bks.cpg/sg74_17_cif.got.tgz:32773.got - 2010.06.03 17:57:02.
