data_PCOD9540390
_publ_section_title
;
Structure prediction by ZEFSAII (Michael W. Deem and Ramdas Pophale) SiO2 
 PCOD9540390
Probable space group: I M M A
;
_chemical_formula_sum "Si O2"
_cell_formula_units_Z 64
_cell_length_a 28.209974
_cell_length_b 14.188713
_cell_length_c 8.947872
_cell_angle_alpha 90.000000
_cell_angle_beta 90.000000
_cell_angle_gamma 90.000000
_cell_volume 3581.504102
_symmetry_space_group_name_H-M "I M M A"
_symmetry_group_IT_number 74
_symmetry_cell_setting 'orthorhombic'
loop_
_space_group_symop_operation_xyz
x,y,z
-x,1/2-y,z
x,-y,-z
-x,1/2+y,-z
-x,-y,-z
x,1/2+y,-z
-x,y,z
x,1/2-y,z
1/2+x,1/2+y,1/2+z
1/2-x,-y,1/2+z
1/2+x,1/2-y,1/2-z
1/2-x,y,1/2-z
1/2-x,1/2-y,1/2-z
1/2+x,y,1/2-z
1/2-x,1/2+y,1/2+z
1/2+x,-y,1/2+z
loop_
_atom_site_type_symbol
_atom_site_label
_atom_site_fract_x
_atom_site_fract_y
_atom_site_fract_z
Si Si1 0.882316 0.479390 0.327896
Si Si2 0.945717 0.858978 0.871004
Si Si3 0.858914 0.359602 0.901646
Si Si4 0.800960 0.863123 0.808572
O O1 0.889597 0.500000 0.500000
O O2 0.928529 0.433737 0.251229
O O3 0.864369 0.570754 0.236501
O O4 0.841115 0.403101 0.299848
O O5 0.941704 0.750000 0.816848
O O6 0.000000 0.874411 0.916600
O O7 0.907987 0.867577 0.004992
O O8 0.852194 0.250000 0.859916
O O9 0.818049 0.386995 0.022141
O O10 0.801352 0.750000 0.803472
O O11 0.750000 0.896712 0.750000
#
# Coordination Sequence:
#
# PCOD9540390 Si02
#       4
#    16  16  16  16
#     4  11  22  32  50  78 109 141 169 205 255 312
#     4   9  18  35  57  76  97 131 175 219 260 303
#     4   9  19  35  54  76 102 135 174 213 254 302
#     4   9  18  35  57  77  99 131 173 218 259 300
#
# _framework density 17.869586999999999
#
# number of rings (size 3 to 8) (size 9 to 14) (size 15 to 20)
#    0.000    2.500    0.000    5.250    0.000    6.500 
#    0.000    0.000    0.000    8.250    0.000    0.000 
#    0.000    0.000    0.000    0.000    0.000    0.000 
#
# Total GULP energy -178390.489196 kJ/mol
# GULP energy per Si atom -5574.702787 kJ/mol
# Density = 1.782892 g / cm^3
# Si number density = 17.869587 Si / 1000 Ang^3
#
#
#
# Elastic Constant Matrix: (Units=GPa)
#
#
# Indices 1 2 3 4 5 6 
#
# 1 94.4681 16.7938 16.2190 0.0000 0.0000 0.0000
# 2 16.7938 62.4633 41.9975 0.0000 0.0000 0.0000
# 3 16.2190 41.9975 85.7377 0.0000 0.0000 0.0000
# 4 0.0000 0.0000 0.0000 11.1089 0.0000 0.0000
# 5 0.0000 0.0000 0.0000 0.0000 1.7811 0.0000
# 6 0.0000 0.0000 0.0000 0.0000 0.0000 18.4900
#
#
#
# Elastic Compliance Matrix: (Units=1/GPa)
#
#
# Indices 1 2 3 4 5 6 
#
# 1 0.011169 -0.002359 -0.000957 0.000000 0.000000 0.000000
# 2 -0.002359 0.024370 -0.011491 0.000000 0.000000 0.000000
# 3 -0.000957 -0.011491 0.017473 0.000000 0.000000 0.000000
# 4 0.000000 0.000000 0.000000 0.090018 0.000000 0.000000
# 5 0.000000 0.000000 0.000000 0.000000 0.561462 0.000000
# 6 0.000000 0.000000 0.000000 0.000000 0.000000 0.054083
#
#
# Mechanical properties :
#
#
# Convention : Reuss Voigt Hill
#
# Bulk Modulus (GPa) = 42.73991 43.63222 43.18606
# Shear Modulus (GPa) = 6.28149 17.45324 11.86736
#
# Velocity S-wave (km/s) = 1.87692 3.12861 2.57983
# Velocity P-wave (km/s) = 5.35413 6.12544 5.75272
#
# Compressibility (1/GPa) = 0.02339734
#
# Stress axis : x y z
#
# Youngs Moduli (GPa) = 89.53069 41.03462 57.23054
#
# Poissons Ratio (x) = 0.09682 0.05478
# Poissons Ratio (y) = 0.21124 0.65763
# Poissons Ratio (z) = 0.08570 0.47152
#
# Static dielectric constant tensor:
#      x y z
#    x 1.621870 0.000000 0.000000 
#    y 0.000000 1.646410 0.000000 
#    z 0.000000 0.000000 1.586160 
# 
# From -- ./inp_files/8814.got.cif
#   From: 2010.05.17/outbox.cif.g08.bks.cpg/sg74_5_cif.got.tgz:8814.got - 2010.06.03 17:57:02.
