data_PCOD9540213
_publ_section_title
;
Structure prediction by ZEFSAII (Michael W. Deem and Ramdas Pophale) SiO2 
 PCOD9540213
Probable space group: I M M A
;
_chemical_formula_sum "Si O2"
_cell_formula_units_Z 112
_cell_length_a 17.104105
_cell_length_b 18.097682
_cell_length_c 18.414292
_cell_angle_alpha 90.000000
_cell_angle_beta 90.000000
_cell_angle_gamma 90.000000
_cell_volume 5700.045631
_symmetry_space_group_name_H-M "I M M A"
_symmetry_group_IT_number 74
_symmetry_cell_setting 'orthorhombic'
loop_
_space_group_symop_operation_xyz
x,y,z
-x,1/2-y,z
x,-y,-z
-x,1/2+y,-z
-x,-y,-z
x,1/2+y,-z
-x,y,z
x,1/2-y,z
1/2+x,1/2+y,1/2+z
1/2-x,-y,1/2+z
1/2+x,1/2-y,1/2-z
1/2-x,y,1/2-z
1/2-x,1/2-y,1/2-z
1/2+x,y,1/2-z
1/2-x,1/2+y,1/2+z
1/2+x,-y,1/2+z
loop_
_atom_site_type_symbol
_atom_site_label
_atom_site_fract_x
_atom_site_fract_y
_atom_site_fract_z
Si Si1 0.370840 0.477915 0.580906
Si Si2 0.907556 0.667093 0.164159
Si Si3 0.665075 0.925120 0.209740
Si Si4 0.751230 0.335932 0.424806
Si Si5 0.165813 0.403920 0.289458
Si Si6 0.912552 0.125457 0.150069
Si Si7 0.701659 0.940428 0.052290
O O1 0.396626 0.500000 0.500000
O O2 0.385629 0.394082 0.603889
O O3 0.408393 0.536972 0.634854
O O4 0.276849 0.486222 0.582921
O O5 0.873645 0.750000 0.155263
O O6 0.884224 0.629627 0.240407
O O7 0.000000 0.673288 0.161117
O O8 0.750000 0.923569 0.250000
O O9 0.665801 0.905686 0.124508
O O10 0.639503 0.010938 0.207099
O O11 0.765553 0.250000 0.433041
O O12 0.813228 0.368177 0.366264
O O13 0.661555 0.345780 0.396334
O O14 0.764592 0.378212 0.499723
O O15 0.250000 0.404088 0.250000
O O16 0.108050 0.361934 0.234537
O O17 0.000000 0.151462 0.131425
O O18 0.658291 0.000000 0.000000
#
# Coordination Sequence:
#
# PCOD9540213 Si02
#       7
#    16  16  16  16  16  16  16
#     4  11  20  38  59  83 117 163 199 233 285 354
#     4  11  25  41  58  88 126 160 197 249 308 354
#     4  11  19  36  63  86 115 152 203 248 290 349
#     4  11  23  39  58  84 119 157 195 244 307 352
#     4   9  18  34  59  84 109 150 198 242 283 347
#     4  11  21  35  59  87 115 155 203 238 279 355
#     4  11  19  37  61  88 116 150 199 252 292 355
#
# _framework density 19.648965
#
# number of rings (size 3 to 8) (size 9 to 14) (size 15 to 20)
#    0.000    1.286    7.143    1.286    0.000    5.429 
#    0.000    0.000    0.000    1.286    0.000    0.000 
#    0.000    0.000    0.000    0.000    0.000    0.000 
#
# Total GULP energy -312251.349124 kJ/mol
# GULP energy per Si atom -5575.916949 kJ/mol
# Density = 1.960424 g / cm^3
# Si number density = 19.648965 Si / 1000 Ang^3
#
#
#
# Elastic Constant Matrix: (Units=GPa)
#
#
# Indices 1 2 3 4 5 6 
#
# 1 14.6818 11.7265 24.6873 0.0000 0.0000 0.0000
# 2 11.7265 117.6295 48.5120 0.0000 0.0000 0.0000
# 3 24.6873 48.5120 150.0695 0.0000 0.0000 0.0000
# 4 0.0000 0.0000 0.0000 -23.2736 0.0000 0.0000
# 5 0.0000 0.0000 0.0000 0.0000 12.2304 0.0000
# 6 0.0000 0.0000 0.0000 0.0000 0.0000 11.9445
#
#
#
# Elastic Compliance Matrix: (Units=1/GPa)
#
#
# Indices 1 2 3 4 5 6 
#
# 1 0.095393 -0.003505 -0.014560 0.000000 0.000000 0.000000
# 2 -0.003505 0.009938 -0.002636 0.000000 0.000000 0.000000
# 3 -0.014560 -0.002636 0.009911 0.000000 0.000000 0.000000
# 4 0.000000 0.000000 0.000000 -0.042967 0.000000 0.000000
# 5 0.000000 0.000000 0.000000 0.000000 0.081764 0.000000
# 6 0.000000 0.000000 0.000000 0.000000 0.000000 0.083720
#
#
# Mechanical properties :
#
#
# Convention : Reuss Voigt Hill
#
# Bulk Modulus (GPa) = 13.54278 50.24805 31.89541
# Shear Modulus (GPa) = 16.45967 13.34394 14.90181
#
# Velocity S-wave (km/s) = 2.89742 2.60881 2.75690
# Velocity P-wave (km/s) = 4.25449 5.89092 5.13827
#
# Compressibility (1/GPa) = 0.07384011
#
# Stress axis : x y z
#
# Youngs Moduli (GPa) = 10.48298 100.62615 100.89997
#
# Poissons Ratio (x) = 0.35271 1.46906
# Poissons Ratio (y) = 0.03674 0.26596
# Poissons Ratio (z) = 0.15263 0.26524
#
# Static dielectric constant tensor:
#      x y z
#    x 1.707290 0.000000 0.000000 
#    y 0.000000 1.744880 0.000000 
#    z 0.000000 0.000000 1.754040 
# 
# From -- ./inp_files/45444.got.cif
#   From: 2010.05.17/outbox.cif.g08.bks.cpg/sg74_23_cif.got.tgz:45444.got - 2010.06.03 17:57:02.
