data_PCOD9540527
_publ_section_title
;
Structure prediction by ZEFSAII (Michael W. Deem and Ramdas Pophale) SiO2 
 PCOD9540527
Probable space group: I M M A
;
_chemical_formula_sum "Si O2"
_cell_formula_units_Z 112
_cell_length_a 15.232038
_cell_length_b 13.589574
_cell_length_c 26.535539
_cell_angle_alpha 90.000000
_cell_angle_beta 90.000000
_cell_angle_gamma 90.000000
_cell_volume 5492.774514
_symmetry_space_group_name_H-M "I M M A"
_symmetry_group_IT_number 74
_symmetry_cell_setting 'orthorhombic'
loop_
_space_group_symop_operation_xyz
x,y,z
-x,1/2-y,z
x,-y,-z
-x,1/2+y,-z
-x,-y,-z
x,1/2+y,-z
-x,y,z
x,1/2-y,z
1/2+x,1/2+y,1/2+z
1/2-x,-y,1/2+z
1/2+x,1/2-y,1/2-z
1/2-x,y,1/2-z
1/2-x,1/2-y,1/2-z
1/2+x,y,1/2-z
1/2-x,1/2+y,1/2+z
1/2+x,-y,1/2+z
loop_
_atom_site_type_symbol
_atom_site_label
_atom_site_fract_x
_atom_site_fract_y
_atom_site_fract_z
Si Si1 0.725919 0.632100 0.020313
Si Si2 0.603142 0.866930 0.928783
Si Si3 0.602536 0.513965 0.638469
Si Si4 0.598921 0.494833 0.170102
Si Si5 0.353515 0.136801 0.262780
Si Si6 0.400502 0.367048 0.464847
Si Si7 0.240131 0.632475 0.365200
O O1 0.717507 0.750000 0.019128
O O2 0.708009 0.606409 0.077905
O O3 0.662890 0.598014 0.975234
O O4 0.826101 0.609375 0.005418
O O5 0.500000 0.879861 0.941034
O O6 0.618376 0.750000 0.920865
O O7 0.621526 0.923759 0.877062
O O8 0.500000 0.487707 0.642741
O O9 0.628123 0.587884 0.683442
O O10 0.614775 0.571582 0.585807
O O11 0.666485 0.420579 0.641154
O O12 0.500000 0.532521 0.162309
O O13 0.602406 0.429057 0.219875
O O14 0.669870 0.581477 0.171341
O O15 0.383513 0.250000 0.261794
O O16 0.250000 0.135652 0.250000
O O17 0.500000 0.384594 0.483021
O O18 0.393196 0.250000 0.453327
O O19 0.245154 0.750000 0.360057
#
# Coordination Sequence:
#
# PCOD9540527 Si02
#       7
#    16  16  16  16  16  16  16
#     4   9  19  35  57  80 115 163 204 248 300 350
#     4   9  18  33  56  89 125 157 192 239 298 367
#     4  11  23  40  63  91 123 160 201 244 299 362
#     4  11  23  40  63  91 123 160 201 244 299 362
#     4  11  23  41  69 101 131 158 183 226 296 374
#     4   9  18  33  56  89 125 157 192 239 298 367
#     4  11  25  44  60  82 117 160 214 267 302 336
#
# _framework density 20.390425
#
# number of rings (size 3 to 8) (size 9 to 14) (size 15 to 20)
#    0.000    1.857    1.429    2.143    0.000    6.286 
#    0.000    7.143    0.000    1.714    0.000    0.000 
#    0.000    0.000    0.000    0.000    0.000    0.000 
#
# Total GULP energy -313071.066843 kJ/mol
# GULP energy per Si atom -5590.554765 kJ/mol
# Density = 2.034402 g / cm^3
# Si number density = 20.390425 Si / 1000 Ang^3
#
#
#
# Elastic Constant Matrix: (Units=GPa)
#
#
# Indices 1 2 3 4 5 6 
#
# 1 45.9362 26.4374 -8.6112 0.0000 0.0000 0.0000
# 2 26.4374 117.2697 11.5603 0.0000 0.0000 0.0000
# 3 -8.6112 11.5603 47.9113 0.0000 0.0000 0.0000
# 4 0.0000 0.0000 0.0000 29.8137 0.0000 0.0000
# 5 0.0000 0.0000 0.0000 0.0000 40.0861 0.0000
# 6 0.0000 0.0000 0.0000 0.0000 0.0000 -4.4486
#
#
#
# Elastic Compliance Matrix: (Units=1/GPa)
#
#
# Indices 1 2 3 4 5 6 
#
# 1 0.026820 -0.006680 0.006432 0.000000 0.000000 0.000000
# 2 -0.006680 0.010399 -0.003710 0.000000 0.000000 0.000000
# 3 0.006432 -0.003710 0.022923 0.000000 0.000000 0.000000
# 4 0.000000 0.000000 0.000000 0.033542 0.000000 0.000000
# 5 0.000000 0.000000 0.000000 0.000000 0.024946 0.000000
# 6 0.000000 0.000000 0.000000 0.000000 0.000000 -0.224792
#
#
# Mechanical properties :
#
#
# Convention : Reuss Voigt Hill
#
# Bulk Modulus (GPa) = 19.14751 29.98782 24.56766
# Shear Modulus (GPa) = -61.85286 25.20561 -18.32362
#
# Velocity S-wave (km/s) = -5.51363 3.51971 -3.00098
# Velocity P-wave (km/s) = 5.57877 5.59075 0.25869
#
# Compressibility (1/GPa) = 0.05222612
#
# Stress axis : x y z
#
# Youngs Moduli (GPa) = 37.28581 96.16215 43.62413
#
# Poissons Ratio (x) = 0.64240 -0.28060
# Poissons Ratio (y) = 0.24908 0.16184
# Poissons Ratio (z) = -0.23983 0.35675
#
# Static dielectric constant tensor:
#      x y z
#    x 1.729720 0.000000 0.000000 
#    y 0.000000 1.718420 0.000000 
#    z 0.000000 0.000000 1.690850 
# 
# From -- ./inp_files/60107.got.cif
#   From: 2010.05.17/outbox.cif.g08.bks.cpg/sg74_31_cif.got.tgz:60107.got - 2010.06.03 17:57:02.
