data_PCOD9540607
_publ_section_title
;
Structure prediction by ZEFSAII (Michael W. Deem and Ramdas Pophale) SiO2 
 PCOD9540607
Probable space group: I M M A
;
_chemical_formula_sum "Si O2"
_cell_formula_units_Z 64
_cell_length_a 26.455835
_cell_length_b 10.102673
_cell_length_c 12.086962
_cell_angle_alpha 90.000000
_cell_angle_beta 90.000000
_cell_angle_gamma 90.000000
_cell_volume 3230.538537
_symmetry_space_group_name_H-M "I M M A"
_symmetry_group_IT_number 74
_symmetry_cell_setting 'orthorhombic'
loop_
_space_group_symop_operation_xyz
x,y,z
-x,1/2-y,z
x,-y,-z
-x,1/2+y,-z
-x,-y,-z
x,1/2+y,-z
-x,y,z
x,1/2-y,z
1/2+x,1/2+y,1/2+z
1/2-x,-y,1/2+z
1/2+x,1/2-y,1/2-z
1/2-x,y,1/2-z
1/2-x,1/2-y,1/2-z
1/2+x,y,1/2-z
1/2-x,1/2+y,1/2+z
1/2+x,-y,1/2+z
loop_
_atom_site_type_symbol
_atom_site_label
_atom_site_fract_x
_atom_site_fract_y
_atom_site_fract_z
Si Si1 0.190355 0.750000 0.757180
Si Si2 0.440342 0.407401 0.211979
Si Si3 0.685008 0.750000 0.005339
Si Si4 0.215460 0.750000 0.141903
Si Si5 0.621030 0.000000 0.000000
Si Si6 0.859433 0.996457 0.129646
O O1 0.250000 0.750000 0.750000
O O2 0.176427 0.750000 0.627130
O O3 0.170059 0.623394 0.822319
O O4 0.500000 0.432593 0.208515
O O5 0.433236 0.250000 0.236972
O O6 0.414224 0.440413 0.095269
O O7 0.411183 0.497572 0.301003
O O8 0.657137 0.616861 0.046297
O O9 0.743728 0.750000 0.041305
O O10 0.250000 0.750000 0.250000
O O11 0.178598 0.625034 0.143892
O O12 0.870887 0.000000 0.000000
#
# Coordination Sequence:
#
# PCOD9540607 Si02
#       6
#     8  16   8   8   8  16
#     4  12  24  44  66  93 132 193 232 261 338 424
#     4  11  24  46  73 100 134 184 231 285 352 414
#     4  12  26  42  71  97 142 190 225 276 349 418
#     4  12  28  40  62 106 143 175 225 286 337 400
#     4  12  21  46  68 106 138 174 235 284 344 414
#     4  12  24  45  66  97 136 176 230 285 333 404
#
# _framework density 19.810938
#
# number of rings (size 3 to 8) (size 9 to 14) (size 15 to 20)
#    0.000    0.250    5.000    4.875    5.250    0.500 
#    0.000    1.875    0.000    0.000    0.000    0.000 
#    0.000    0.000    0.000    0.000    0.000    0.000 
#
# Total GULP energy -178930.745804 kJ/mol
# GULP energy per Si atom -5591.585806 kJ/mol
# Density = 1.976585 g / cm^3
# Si number density = 19.810938 Si / 1000 Ang^3
#
#
#
# Elastic Constant Matrix: (Units=GPa)
#
#
# Indices 1 2 3 4 5 6 
#
# 1 177.7083 77.2926 48.6982 0.0000 0.0000 0.0000
# 2 77.2926 134.1845 26.7830 0.0000 0.0000 0.0000
# 3 48.6982 26.7830 117.3993 0.0000 0.0000 0.0000
# 4 0.0000 0.0000 0.0000 32.1201 0.0000 0.0000
# 5 0.0000 0.0000 0.0000 0.0000 36.5470 0.0000
# 6 0.0000 0.0000 0.0000 0.0000 0.0000 36.1439
#
#
#
# Elastic Compliance Matrix: (Units=1/GPa)
#
#
# Indices 1 2 3 4 5 6 
#
# 1 0.008110 -0.004191 -0.002408 0.000000 0.000000 0.000000
# 2 -0.004191 0.009974 -0.000537 0.000000 0.000000 0.000000
# 3 -0.002408 -0.000537 0.009639 0.000000 0.000000 0.000000
# 4 0.000000 0.000000 0.000000 0.031133 0.000000 0.000000
# 5 0.000000 0.000000 0.000000 0.000000 0.027362 0.000000
# 6 0.000000 0.000000 0.000000 0.000000 0.000000 0.027667
#
#
# Mechanical properties :
#
#
# Convention : Reuss Voigt Hill
#
# Bulk Modulus (GPa) = 74.34236 81.64886 77.99561
# Shear Modulus (GPa) = 37.69599 39.39675 38.54637
#
# Velocity S-wave (km/s) = 4.36683 4.46425 4.41581
# Velocity P-wave (km/s) = 7.93933 8.23870 8.09040
#
# Compressibility (1/GPa) = 0.01345128
#
# Stress axis : x y z
#
# Youngs Moduli (GPa) = 123.30773 100.26517 103.74222
#
# Poissons Ratio (x) = 0.42019 0.24981
# Poissons Ratio (y) = 0.51675 0.05571
# Poissons Ratio (z) = 0.29692 0.05384
#
# Static dielectric constant tensor:
#      x y z
#    x 1.684970 0.000000 0.000000 
#    y 0.000000 1.427500 0.000000 
#    z 0.000000 0.000000 1.694420 
# 
# From -- ./inp_files/26812.got.cif
#   From: 2010.05.17/outbox.cif.g08.bks.cpg/sg74_14_cif.got.tgz:26812.got - 2010.06.03 17:57:02.
