data_PCOD9540674
_publ_section_title
;
Structure prediction by ZEFSAII (Michael W. Deem and Ramdas Pophale) SiO2 
 PCOD9540674
Probable space group: I M M A
;
_chemical_formula_sum "Si O2"
_cell_formula_units_Z 80
_cell_length_a 7.276953
_cell_length_b 14.639732
_cell_length_c 35.768977
_cell_angle_alpha 90.000000
_cell_angle_beta 90.000000
_cell_angle_gamma 90.000000
_cell_volume 3810.563611
_symmetry_space_group_name_H-M "I M M A"
_symmetry_group_IT_number 74
_symmetry_cell_setting 'orthorhombic'
loop_
_space_group_symop_operation_xyz
x,y,z
-x,1/2-y,z
x,-y,-z
-x,1/2+y,-z
-x,-y,-z
x,1/2+y,-z
-x,y,z
x,1/2-y,z
1/2+x,1/2+y,1/2+z
1/2-x,-y,1/2+z
1/2+x,1/2-y,1/2-z
1/2-x,y,1/2-z
1/2-x,1/2-y,1/2-z
1/2+x,y,1/2-z
1/2-x,1/2+y,1/2+z
1/2+x,-y,1/2+z
loop_
_atom_site_type_symbol
_atom_site_label
_atom_site_fract_x
_atom_site_fract_y
_atom_site_fract_z
Si Si1 0.775453 0.145973 0.098974
Si Si2 0.275996 0.968693 0.362713
Si Si3 0.281065 0.853984 0.292521
Si Si4 0.286874 0.361612 0.483358
Si Si5 0.275832 0.143770 0.564331
O O1 0.717596 0.250000 0.105547
O O2 0.712308 0.115008 0.057473
O O3 0.000000 0.146887 0.097448
O O4 0.720002 0.072654 0.129714
O O5 0.500000 0.967658 0.362204
O O6 0.211999 0.920488 0.324892
O O7 0.219503 0.911727 0.399353
O O8 0.500000 0.848517 0.297505
O O9 0.209668 0.750000 0.296129
O O10 0.250000 0.884897 0.250000
O O11 0.500000 0.390439 0.482747
O O12 0.283066 0.250000 0.484502
O O13 0.211984 0.391498 0.523599
O O14 0.500000 0.141501 0.563110
O O15 0.223546 0.250000 0.568235
#
# Coordination Sequence:
#
# PCOD9540674 Si02
#       5
#    16  16  16  16  16
#     4   8  13  20  28  40  62  93 127 157 182 213
#     4   9  15  21  32  49  67  91 123 155 185 219
#     4   9  17  29  44  61  80 100 122 150 186 229
#     4   7  10  16  24  35  56  88 122 151 178 211
#     4   8  12  17  25  39  61  88 118 151 183 216
#
# _framework density 20.99427
#
# number of rings (size 3 to 8) (size 9 to 14) (size 15 to 20)
#    0.000    3.800    0.000    3.000    0.000    3.200 
#    0.000    4.000    0.000    0.600    0.000    0.000 
#    0.000    0.000    0.000    3.600    0.000   23.600 
#
# Total GULP energy -223112.135009 kJ/mol
# GULP energy per Si atom -5577.803375 kJ/mol
# Density = 2.094649 g / cm^3
# Si number density = 20.994270 Si / 1000 Ang^3
#
#
#
# Elastic Constant Matrix: (Units=GPa)
#
#
# Indices 1 2 3 4 5 6 
#
# 1 89.7131 2.5512 6.3278 0.0000 0.0000 0.0000
# 2 2.5512 114.4663 111.6365 0.0000 0.0000 0.0000
# 3 6.3278 111.6365 197.7062 0.0000 0.0000 0.0000
# 4 0.0000 0.0000 0.0000 30.6216 0.0000 0.0000
# 5 0.0000 0.0000 0.0000 0.0000 -16.4544 0.0000
# 6 0.0000 0.0000 0.0000 0.0000 0.0000 -21.0761
#
#
#
# Elastic Compliance Matrix: (Units=1/GPa)
#
#
# Indices 1 2 3 4 5 6 
#
# 1 0.011174 0.000222 -0.000483 0.000000 0.000000 0.000000
# 2 0.000222 0.019448 -0.010989 0.000000 0.000000 0.000000
# 3 -0.000483 -0.010989 0.011278 0.000000 0.000000 0.000000
# 4 0.000000 0.000000 0.000000 0.032657 0.000000 0.000000
# 5 0.000000 0.000000 0.000000 0.000000 -0.060774 0.000000
# 6 0.000000 0.000000 0.000000 0.000000 0.000000 -0.047447
#
#
# Mechanical properties :
#
#
# Convention : Reuss Voigt Hill
#
# Bulk Modulus (GPa) = 51.54215 71.43515 61.48865
# Shear Modulus (GPa) = -1064.64598 17.37622 -523.63488
#
# Velocity S-wave (km/s) = -22.54359 2.88004 -15.81011
# Velocity P-wave (km/s) = 25.55414 6.72007 17.43351
#
# Compressibility (1/GPa) = 0.01940160
#
# Stress axis : x y z
#
# Youngs Moduli (GPa) = 89.49025 51.41814 88.66517
#
# Poissons Ratio (x) = -0.01142 0.04283
# Poissons Ratio (y) = -0.01987 0.97432
# Poissons Ratio (z) = 0.04323 0.56502
#
# Static dielectric constant tensor:
#      x y z
#    x 1.963160 0.000000 0.000000 
#    y 0.000000 1.757760 0.000000 
#    z 0.000000 0.000000 1.731260 
# 
# From -- ./inp_files/65842.got.cif
#   From: 2010.05.17/outbox.cif.g08.bks.cpg/sg74_33_cif.got.tgz:65842.got - 2010.06.03 17:57:02.
