data_PCOD9540323
_publ_section_title
;
Structure prediction by ZEFSAII (Michael W. Deem and Ramdas Pophale) SiO2 
 PCOD9540323
Probable space group: I M M A
;
_chemical_formula_sum "Si O2"
_cell_formula_units_Z 64
_cell_length_a 14.831591
_cell_length_b 8.298792
_cell_length_c 31.086686
_cell_angle_alpha 90.000000
_cell_angle_beta 90.000000
_cell_angle_gamma 90.000000
_cell_volume 3826.282636
_symmetry_space_group_name_H-M "I M M A"
_symmetry_group_IT_number 74
_symmetry_cell_setting 'orthorhombic'
loop_
_space_group_symop_operation_xyz
x,y,z
-x,1/2-y,z
x,-y,-z
-x,1/2+y,-z
-x,-y,-z
x,1/2+y,-z
-x,y,z
x,1/2-y,z
1/2+x,1/2+y,1/2+z
1/2-x,-y,1/2+z
1/2+x,1/2-y,1/2-z
1/2-x,y,1/2-z
1/2-x,1/2-y,1/2-z
1/2+x,y,1/2-z
1/2-x,1/2+y,1/2+z
1/2+x,-y,1/2+z
loop_
_atom_site_type_symbol
_atom_site_label
_atom_site_fract_x
_atom_site_fract_y
_atom_site_fract_z
Si Si1 0.185482 0.559248 0.865265
Si Si2 0.603851 0.555554 0.547757
Si Si3 0.000000 0.064578 0.266085
Si Si4 0.500000 0.937484 0.327006
Si Si5 0.811367 0.059323 0.708963
O O1 0.204039 0.750000 0.865114
O O2 0.170840 0.501924 0.914390
O O3 0.257621 0.473760 0.834887
O O4 0.088464 0.525326 0.844077
O O5 0.628556 0.500000 0.500000
O O6 0.500000 0.500290 0.556044
O O7 0.602214 0.750000 0.548881
O O8 0.000000 0.250000 0.251797
O O9 0.000000 0.951749 0.224282
O O10 0.092563 0.028112 0.290655
O O11 0.500000 0.750000 0.339815
O O12 0.825979 0.250000 0.714246
O O13 0.750000 0.005363 0.750000
#
# Coordination Sequence:
#
# PCOD9540323 Si02
#       5
#    16  16   8   8  16
#     4  11  21  35  53  76 105 141 182 218 259 312
#     4   9  18  32  49  74 105 138 174 215 259 309
#     4  12  24  38  56  75 102 141 180 220 263 305
#     4  12  22  32  49  75 106 141 178 218 262 307
#     4  11  23  37  54  78 107 138 177 219 262 309
#
# _framework density 16.726417000000001
#
# number of rings (size 3 to 8) (size 9 to 14) (size 15 to 20)
#    0.000    1.250    3.750    3.750    0.000    3.000 
#    0.000    0.000    0.000    0.000    0.000    0.875 
#    0.000    0.000    0.000    0.000    0.000    0.000 
#
# Total GULP energy -178673.644111 kJ/mol
# GULP energy per Si atom -5583.551378 kJ/mol
# Density = 1.668835 g / cm^3
# Si number density = 16.726417 Si / 1000 Ang^3
#
#
#
# Elastic Constant Matrix: (Units=GPa)
#
#
# Indices 1 2 3 4 5 6 
#
# 1 90.2540 9.0540 40.8866 0.0000 0.0000 0.0000
# 2 9.0540 34.8095 1.9825 0.0000 0.0000 0.0000
# 3 40.8866 1.9825 116.4683 0.0000 0.0000 0.0000
# 4 0.0000 0.0000 0.0000 26.0299 0.0000 0.0000
# 5 0.0000 0.0000 0.0000 0.0000 131.0920 0.0000
# 6 0.0000 0.0000 0.0000 0.0000 0.0000 2.7929
#
#
#
# Elastic Compliance Matrix: (Units=1/GPa)
#
#
# Indices 1 2 3 4 5 6 
#
# 1 0.013533 -0.003253 -0.004696 0.000000 0.000000 0.000000
# 2 -0.003253 0.029537 0.000639 0.000000 0.000000 0.000000
# 3 -0.004696 0.000639 0.010224 0.000000 0.000000 0.000000
# 4 0.000000 0.000000 0.000000 0.038417 0.000000 0.000000
# 5 0.000000 0.000000 0.000000 0.000000 0.007628 0.000000
# 6 0.000000 0.000000 0.000000 0.000000 0.000000 0.358048
#
#
# Mechanical properties :
#
#
# Convention : Reuss Voigt Hill
#
# Bulk Modulus (GPa) = 25.85581 38.37535 32.11558
# Shear Modulus (GPa) = 10.31144 44.62354 27.46749
#
# Velocity S-wave (km/s) = 2.48559 5.17073 4.05676
# Velocity P-wave (km/s) = 4.87126 7.65776 6.41757
#
# Compressibility (1/GPa) = 0.03867602
#
# Stress axis : x y z
#
# Youngs Moduli (GPa) = 73.89184 33.85540 97.81351
#
# Poissons Ratio (x) = 0.11012 0.45929
# Poissons Ratio (y) = 0.24034 -0.06251
# Poissons Ratio (z) = 0.34696 -0.02164
#
# Static dielectric constant tensor:
#      x y z
#    x 1.533400 0.000000 0.000000 
#    y 0.000000 1.569840 0.000000 
#    z 0.000000 0.000000 1.581170 
# 
# From -- ./inp_files/63510.got.cif
#   From: 2010.05.17/outbox.cif.g08.bks.cpg/sg74_32_cif.got.tgz:63510.got - 2010.06.03 17:57:02.
