data_PCOD9540077
_publ_section_title
;
Structure prediction by ZEFSAII (Michael W. Deem and Ramdas Pophale) SiO2 
 PCOD9540077
Probable space group: I M M A
;
_chemical_formula_sum "Si O2"
_cell_formula_units_Z 80
_cell_length_a 11.208693
_cell_length_b 24.847388
_cell_length_c 14.507695
_cell_angle_alpha 90.000000
_cell_angle_beta 90.000000
_cell_angle_gamma 90.000000
_cell_volume 4040.490897
_symmetry_space_group_name_H-M "I M M A"
_symmetry_group_IT_number 74
_symmetry_cell_setting 'orthorhombic'
loop_
_space_group_symop_operation_xyz
x,y,z
-x,1/2-y,z
x,-y,-z
-x,1/2+y,-z
-x,-y,-z
x,1/2+y,-z
-x,y,z
x,1/2-y,z
1/2+x,1/2+y,1/2+z
1/2-x,-y,1/2+z
1/2+x,1/2-y,1/2-z
1/2-x,y,1/2-z
1/2-x,1/2-y,1/2-z
1/2+x,y,1/2-z
1/2-x,1/2+y,1/2+z
1/2+x,-y,1/2+z
loop_
_atom_site_type_symbol
_atom_site_label
_atom_site_fract_x
_atom_site_fract_y
_atom_site_fract_z
Si Si1 0.257493 0.005738 0.610865
Si Si2 0.247986 0.116945 0.355658
Si Si3 0.858717 0.189845 0.990442
Si Si4 0.000000 0.968709 0.376164
Si Si5 0.500000 0.091523 0.053277
Si Si6 0.139260 0.888778 0.180131
O O1 0.289726 0.945741 0.642503
O O2 0.236844 0.000000 0.500000
O O3 0.135264 0.027043 0.661163
O O4 0.350448 0.052567 0.631506
O O5 0.250000 0.134499 0.250000
O O6 0.321939 0.155583 0.420935
O O7 0.117089 0.116252 0.402083
O O8 0.805196 0.250000 0.988680
O O9 0.834994 0.155111 0.899264
O O10 0.000000 0.195168 0.993603
O O11 0.000000 0.916524 0.443096
O O12 0.000000 0.028946 0.418838
O O13 0.250000 0.882168 0.250000
O O14 0.000000 0.883076 0.213866
#
# Coordination Sequence:
#
# PCOD9540077 Si02
#       6
#    16  16  16   8   8  16
#     4  11  18  36  59  93 128 172 203 244 308 382
#     4  11  22  36  60  92 126 165 206 251 303 376
#     4  10  23  45  68  87 119 166 211 261 320 375
#     4   9  14  30  58  78 123 171 198 239 303 358
#     4   9  16  32  51  84 116 158 202 243 297 357
#     4  11  25  43  65  97 128 164 211 268 322 384
#
# _framework density 19.799575999999998
#
# number of rings (size 3 to 8) (size 9 to 14) (size 15 to 20)
#    0.000    1.600    6.000    0.600    2.800    2.000 
#    5.400    0.500    0.000    0.000    0.000    0.000 
#    0.000    0.000    0.000    0.000    0.000    0.000 
#
# Total GULP energy -222850.205844 kJ/mol
# GULP energy per Si atom -5571.255146 kJ/mol
# Density = 1.975451 g / cm^3
# Si number density = 19.799576 Si / 1000 Ang^3
#
#
#
# Elastic Constant Matrix: (Units=GPa)
#
#
# Indices 1 2 3 4 5 6 
#
# 1 37.9493 48.0735 49.7191 0.0000 0.0000 0.0000
# 2 48.0735 120.9531 69.1300 0.0000 0.0000 0.0000
# 3 49.7191 69.1300 115.2415 0.0000 0.0000 0.0000
# 4 0.0000 0.0000 0.0000 -17.8285 0.0000 0.0000
# 5 0.0000 0.0000 0.0000 0.0000 19.8778 0.0000
# 6 0.0000 0.0000 0.0000 0.0000 0.0000 -3.0448
#
#
#
# Elastic Compliance Matrix: (Units=1/GPa)
#
#
# Indices 1 2 3 4 5 6 
#
# 1 0.081240 -0.018652 -0.023861 0.000000 0.000000 0.000000
# 2 -0.018652 0.016863 -0.002069 0.000000 0.000000 0.000000
# 3 -0.023861 -0.002069 0.020213 0.000000 0.000000 0.000000
# 4 0.000000 0.000000 0.000000 -0.056090 0.000000 0.000000
# 5 0.000000 0.000000 0.000000 0.000000 0.050307 0.000000
# 6 0.000000 0.000000 0.000000 0.000000 0.000000 -0.328428
#
#
# Mechanical properties :
#
#
# Convention : Reuss Voigt Hill
#
# Bulk Modulus (GPa) = 34.30165 67.55434 50.92800
# Shear Modulus (GPa) = -42.73033 6.94898 -17.89067
#
# Velocity S-wave (km/s) = -4.65062 1.87544 -3.00924
# Velocity P-wave (km/s) = 3.38758 6.23561 3.70184
#
# Compressibility (1/GPa) = 0.02915312
#
# Stress axis : x y z
#
# Youngs Moduli (GPa) = 12.30914 59.30027 49.47299
#
# Poissons Ratio (x) = 1.10605 1.18049
# Poissons Ratio (y) = 0.22959 0.10235
# Poissons Ratio (z) = 0.29371 0.12268
#
# Static dielectric constant tensor:
#      x y z
#    x 1.797840 0.000000 0.000000 
#    y 0.000000 1.699380 0.000000 
#    z 0.000000 0.000000 1.796040 
# 
# From -- ./inp_files/30739.got.cif
#   From: 2010.05.17/outbox.cif.g08.bks.cpg/sg74_16_cif.got.tgz:30739.got - 2010.06.03 17:57:02.
