data_PCOD9540792
_publ_section_title
;
Structure prediction by ZEFSAII (Michael W. Deem and Ramdas Pophale) SiO2 
 PCOD9540792
Probable space group: I M M A
;
_chemical_formula_sum "Si O2"
_cell_formula_units_Z 36
_cell_length_a 9.000000
_cell_length_b 15.000000
_cell_length_c 30.000000
_cell_angle_alpha 90.000000
_cell_angle_beta 90.000000
_cell_angle_gamma 90.000000
_cell_volume 4050.000000
_symmetry_space_group_name_H-M "I M M A"
_symmetry_group_IT_number 74
_symmetry_cell_setting 'orthorhombic'
loop_
_space_group_symop_operation_xyz
x,y,z
-x,1/2-y,z
x,-y,-z
-x,1/2+y,-z
-x,-y,-z
x,1/2+y,-z
-x,y,z
x,1/2-y,z
1/2+x,1/2+y,1/2+z
1/2-x,-y,1/2+z
1/2+x,1/2-y,1/2-z
1/2-x,y,1/2-z
1/2-x,1/2-y,1/2-z
1/2+x,y,1/2-z
1/2-x,1/2+y,1/2+z
1/2+x,-y,1/2+z
loop_
_atom_site_type_symbol
_atom_site_label
_atom_site_fract_x
_atom_site_fract_y
_atom_site_fract_z
Si Si1 0.177311 0.147076 0.446347
Si Si2 0.177916 0.931970 0.798115
Si Si3 0.322549 0.003798 0.611759
Si Si4 0.675866 0.354605 0.539599
Si Si5 0.820560 0.750000 0.700433
O O1 0.223949 0.250000 0.438715
O O2 0.245682 0.080215 0.411085
O O3 0.235099 0.120233 0.495321
O O4 0.000000 0.143705 0.444866
O O5 0.250000 0.949952 0.750000
O O6 0.208235 0.005811 0.835596
O O7 0.253297 0.841692 0.817470
O O8 0.000000 0.918853 0.792972
O O9 0.500000 0.992271 0.607650
O O10 0.279576 0.088892 0.582556
O O11 0.500000 0.369264 0.531061
O O12 0.698472 0.250000 0.547465
O O13 0.750000 0.750000 0.750000
O O14 0.000000 0.750000 0.700168
#
# Coordination Sequence:
#
# PCOD9540792 Si02
#       5
#    16  16  16  16   8
#     4  10  21  34  49  75 108 137 165 201 247 299
#     4  10  20  34  50  71  99 131 167 207 248 294
#     4  10  21  34  52  76 100 131 172 210 247 296
#     4   9  18  35  56  75  98 131 169 209 252 297
#     4  10  18  30  48  68  94 128 164 198 240 292
#
# _framework density 8.8888890000000007
#
# number of rings (size 3 to 8) (size 9 to 14) (size 15 to 20)
#    0.000    2.222    0.000    4.333    1.556    6.667 
#    0.000    0.000    0.000    0.667    0.000    0.000 
#    0.000    0.000    0.000    0.000    0.000    0.889 
#
# Total GULP energy -200744.104204 kJ/mol
# GULP energy per Si atom -5576.225117 kJ/mol
# Density = 0.886866 g / cm^3
# Si number density = 8.888889 Si / 1000 Ang^3
#
#
#
# Elastic Constant Matrix: (Units=GPa)
#
#
# Indices 1 2 3 4 5 6 
#
# 1 37.8298 16.7713 34.1762 0.0000 0.0000 0.0000
# 2 16.7713 34.5012 47.9106 0.0000 0.0000 0.0000
# 3 34.1762 47.9106 117.8756 0.0000 0.0000 0.0000
# 4 0.0000 0.0000 0.0000 26.9126 0.0000 0.0000
# 5 0.0000 0.0000 0.0000 0.0000 16.4903 0.0000
# 6 0.0000 0.0000 0.0000 0.0000 0.0000 15.3169
#
#
#
# Elastic Compliance Matrix: (Units=1/GPa)
#
#
# Indices 1 2 3 4 5 6 
#
# 1 0.036538 -0.007003 -0.007747 0.000000 0.000000 0.000000
# 2 -0.007003 0.067885 -0.025562 0.000000 0.000000 0.000000
# 3 -0.007747 -0.025562 0.021119 0.000000 0.000000 0.000000
# 4 0.000000 0.000000 0.000000 0.037157 0.000000 0.000000
# 5 0.000000 0.000000 0.000000 0.000000 0.060642 0.000000
# 6 0.000000 0.000000 0.000000 0.000000 0.000000 0.065287
#
#
# Mechanical properties :
#
#
# Convention : Reuss Voigt Hill
#
# Bulk Modulus (GPa) = 22.26243 43.10253 32.68248
# Shear Modulus (GPa) = 13.01321 17.83388 15.42354
#
# Velocity S-wave (km/s) = 2.70847 3.17070 2.94866
# Velocity P-wave (km/s) = 4.72556 6.14022 5.47874
#
# Compressibility (1/GPa) = 0.04491872
#
# Stress axis : x y z
#
# Youngs Moduli (GPa) = 27.36891 14.73072 47.35022
#
# Poissons Ratio (x) = 0.10316 0.36683
# Poissons Ratio (y) = 0.19167 1.21035
# Poissons Ratio (z) = 0.21203 0.37654
#
# Static dielectric constant tensor:
#      x y z
#    x 1.594090 0.000000 0.000000 
#    y 0.000000 1.633960 0.000000 
#    z 0.000000 0.000000 1.655970 
# 
# From -- ./inp_files/66763.got.cif
#   From: 2010.05.17/outbox.ucp.g08.bks.cvg/sg74_34_cif.got.tgz:66763.got - 2010.06.11 16:37:44.
