data_PCOD9540329
_publ_section_title
;
Structure prediction by ZEFSAII (Michael W. Deem and Ramdas Pophale) SiO2 
 PCOD9540329
Probable space group: I M M A
;
_chemical_formula_sum "Si O2"
_cell_formula_units_Z 64
_cell_length_a 14.594382
_cell_length_b 11.510789
_cell_length_c 18.072543
_cell_angle_alpha 90.000000
_cell_angle_beta 90.000000
_cell_angle_gamma 90.000000
_cell_volume 3036.058038
_symmetry_space_group_name_H-M "I M M A"
_symmetry_group_IT_number 74
_symmetry_cell_setting 'orthorhombic'
loop_
_space_group_symop_operation_xyz
x,y,z
-x,1/2-y,z
x,-y,-z
-x,1/2+y,-z
-x,-y,-z
x,1/2+y,-z
-x,y,z
x,1/2-y,z
1/2+x,1/2+y,1/2+z
1/2-x,-y,1/2+z
1/2+x,1/2-y,1/2-z
1/2-x,y,1/2-z
1/2-x,1/2-y,1/2-z
1/2+x,y,1/2-z
1/2-x,1/2+y,1/2+z
1/2+x,-y,1/2+z
loop_
_atom_site_type_symbol
_atom_site_label
_atom_site_fract_x
_atom_site_fract_y
_atom_site_fract_z
Si Si1 0.000000 0.882793 0.736797
Si Si2 0.500000 0.119245 0.413555
Si Si3 0.139942 0.121685 0.535071
Si Si4 0.820010 0.023488 0.685768
Si Si5 0.303256 0.882989 0.571901
O O1 0.000000 0.874431 0.825047
O O2 0.907966 0.952160 0.714548
O O3 0.000000 0.750000 0.706562
O O4 0.500000 0.250000 0.446945
O O5 0.403432 0.062950 0.433154
O O6 0.103428 0.250000 0.512808
O O7 0.243698 0.120143 0.502783
O O8 0.101084 0.000000 0.500000
O O9 0.142235 0.112185 0.623627
O O10 0.750000 0.065894 0.750000
O O11 0.757938 0.939993 0.634932
O O12 0.317913 0.750000 0.595354
#
# Coordination Sequence:
#
# PCOD9540329 Si02
#       5
#     8   8  16  16  16
#     4  11  22  34  55  93 130 161 204 255 309 367
#     4   9  16  28  54  90 120 152 197 255 310 357
#     4   9  20  39  62  88 119 163 208 250 303 361
#     4  11  21  35  56  85 123 163 203 250 307 371
#     4   9  17  33  56  84 119 158 203 255 305 356
#
# _framework density 21.079967
#
# number of rings (size 3 to 8) (size 9 to 14) (size 15 to 20)
#    0.000    2.250    2.500    0.750    0.000    2.500 
#    0.000   13.125    0.000    6.000    0.000    0.000 
#    0.000    0.000    0.000    0.000    0.000    0.000 
#
# Total GULP energy -178145.487421 kJ/mol
# GULP energy per Si atom -5567.046482 kJ/mol
# Density = 2.103199 g / cm^3
# Si number density = 21.079967 Si / 1000 Ang^3
#
#
#
# Elastic Constant Matrix: (Units=GPa)
#
#
# Indices 1 2 3 4 5 6 
#
# 1 158.5630 18.1151 26.9368 0.0000 0.0000 0.0000
# 2 18.1151 117.6479 23.6209 0.0000 0.0000 0.0000
# 3 26.9368 23.6209 104.7079 0.0000 0.0000 0.0000
# 4 0.0000 0.0000 0.0000 20.5019 0.0000 0.0000
# 5 0.0000 0.0000 0.0000 0.0000 -70.5906 0.0000
# 6 0.0000 0.0000 0.0000 0.0000 0.0000 -28.8480
#
#
#
# Elastic Compliance Matrix: (Units=1/GPa)
#
#
# Indices 1 2 3 4 5 6 
#
# 1 0.006651 -0.000713 -0.001550 0.000000 0.000000 0.000000
# 2 -0.000713 0.008980 -0.001842 0.000000 0.000000 0.000000
# 3 -0.001550 -0.001842 0.010365 0.000000 0.000000 0.000000
# 4 0.000000 0.000000 0.000000 0.048776 0.000000 0.000000
# 5 0.000000 0.000000 0.000000 0.000000 -0.014166 0.000000
# 6 0.000000 0.000000 0.000000 0.000000 0.000000 -0.034664
#
#
# Mechanical properties :
#
#
# Convention : Reuss Voigt Hill
#
# Bulk Modulus (GPa) = 56.22766 57.58493 56.90629
# Shear Modulus (GPa) = 124.74906 5.02905 64.88906
#
# Velocity S-wave (km/s) = 7.70113 1.54625 5.55420
# Velocity P-wave (km/s) = 10.28630 5.52852 8.25750
#
# Compressibility (1/GPa) = 0.01778484
#
# Stress axis : x y z
#
# Youngs Moduli (GPa) = 150.34298 111.36357 96.48033
#
# Poissons Ratio (x) = 0.07939 0.14957
# Poissons Ratio (y) = 0.10718 0.17774
# Poissons Ratio (z) = 0.23308 0.20516
#
# Static dielectric constant tensor:
#      x y z
#    x 1.789170 0.000000 0.000000 
#    y 0.000000 1.860570 0.000000 
#    z 0.000000 0.000000 1.761430 
# 
# From -- ./inp_files/42262.got.cif
#   From: 2010.05.17/outbox.cif.g08.bks.cpg/sg74_22_cif.got.tgz:42262.got - 2010.06.03 17:57:02.
