data_PCOD9540432
_publ_section_title
;
Structure prediction by ZEFSAII (Michael W. Deem and Ramdas Pophale) SiO2 
 PCOD9540432
Probable space group: I M M A
;
_chemical_formula_sum "Si O2"
_cell_formula_units_Z 64
_cell_length_a 16.327145
_cell_length_b 20.360055
_cell_length_c 9.889674
_cell_angle_alpha 90.000000
_cell_angle_beta 90.000000
_cell_angle_gamma 90.000000
_cell_volume 3287.540960
_symmetry_space_group_name_H-M "I M M A"
_symmetry_group_IT_number 74
_symmetry_cell_setting 'orthorhombic'
loop_
_space_group_symop_operation_xyz
x,y,z
-x,1/2-y,z
x,-y,-z
-x,1/2+y,-z
-x,-y,-z
x,1/2+y,-z
-x,y,z
x,1/2-y,z
1/2+x,1/2+y,1/2+z
1/2-x,-y,1/2+z
1/2+x,1/2-y,1/2-z
1/2-x,y,1/2-z
1/2-x,1/2-y,1/2-z
1/2+x,y,1/2-z
1/2-x,1/2+y,1/2+z
1/2+x,-y,1/2+z
loop_
_atom_site_type_symbol
_atom_site_label
_atom_site_fract_x
_atom_site_fract_y
_atom_site_fract_z
Si Si1 0.593990 0.325594 0.800681
Si Si2 0.096403 0.949479 0.809260
Si Si3 0.833732 0.914414 0.083556
Si Si4 0.648295 0.925120 0.978442
O O1 0.500000 0.329960 0.752313
O O2 0.612676 0.250000 0.832032
O O3 0.651737 0.354532 0.683943
O O4 0.602214 0.371907 0.931363
O O5 0.137473 0.914702 0.681181
O O6 0.000000 0.958946 0.785042
O O7 0.139431 0.020066 0.834838
O O8 0.110466 0.911747 0.949889
O O9 0.741698 0.921902 0.030240
O O10 0.618107 0.000000 0.000000
#
# Coordination Sequence:
#
# PCOD9540432 Si02
#       4
#    16  16  16  16
#     4  11  25  44  65  92 129 173 216 259 315 383
#     4  11  22  37  60  93 126 161 207 264 315 366
#     4  11  22  37  62  93 127 166 208 259 315 376
#     4  12  23  37  63  96 130 165 208 267 319 376
#
# _framework density 19.467437
#
# number of rings (size 3 to 8) (size 9 to 14) (size 15 to 20)
#    0.000    0.750    5.000    5.250    0.000    3.000 
#    0.000    1.250    0.000    7.500    0.000    0.000 
#    0.000    0.000    0.000    0.000    0.000    0.000 
#
# Total GULP energy -178916.995805 kJ/mol
# GULP energy per Si atom -5591.156119 kJ/mol
# Density = 1.942313 g / cm^3
# Si number density = 19.467437 Si / 1000 Ang^3
#
#
#
# Elastic Constant Matrix: (Units=GPa)
#
#
# Indices 1 2 3 4 5 6 
#
# 1 104.2777 30.4516 32.1187 0.0000 0.0000 0.0000
# 2 30.4516 113.0157 60.9080 0.0000 0.0000 0.0000
# 3 32.1187 60.9080 138.3107 0.0000 0.0000 0.0000
# 4 0.0000 0.0000 0.0000 27.4932 0.0000 0.0000
# 5 0.0000 0.0000 0.0000 0.0000 123.6400 0.0000
# 6 0.0000 0.0000 0.0000 0.0000 0.0000 18.9739
#
#
#
# Elastic Compliance Matrix: (Units=1/GPa)
#
#
# Indices 1 2 3 4 5 6 
#
# 1 0.010669 -0.002018 -0.001589 0.000000 0.000000 0.000000
# 2 -0.002018 0.011984 -0.004809 0.000000 0.000000 0.000000
# 3 -0.001589 -0.004809 0.009717 0.000000 0.000000 0.000000
# 4 0.000000 0.000000 0.000000 0.036373 0.000000 0.000000
# 5 0.000000 0.000000 0.000000 0.000000 0.008088 0.000000
# 6 0.000000 0.000000 0.000000 0.000000 0.000000 0.052704
#
#
# Mechanical properties :
#
#
# Convention : Reuss Voigt Hill
#
# Bulk Modulus (GPa) = 64.36004 66.95118 65.65561
# Shear Modulus (GPa) = 32.99378 49.49647 41.24512
#
# Velocity S-wave (km/s) = 4.12128 5.04782 4.60790
# Velocity P-wave (km/s) = 7.46852 8.27285 7.88095
#
# Compressibility (1/GPa) = 0.01553759
#
# Stress axis : x y z
#
# Youngs Moduli (GPa) = 93.73380 83.44691 102.91731
#
# Poissons Ratio (x) = 0.16843 0.16349
# Poissons Ratio (y) = 0.18920 0.49488
# Poissons Ratio (z) = 0.14890 0.40126
#
# Static dielectric constant tensor:
#      x y z
#    x 1.710540 0.000000 0.000000 
#    y 0.000000 1.669110 0.000000 
#    z 0.000000 0.000000 1.705090 
# 
# From -- ./inp_files/10253.got.cif
#   From: 2010.05.17/outbox.cif.g08.bks.cpg/sg74_6_cif.got.tgz:10253.got - 2010.06.03 17:57:02.
