data_PCOD9540209
_publ_section_title
;
Structure prediction by ZEFSAII (Michael W. Deem and Ramdas Pophale) SiO2 
 PCOD9540209
Probable space group: I M M A
;
_chemical_formula_sum "Si O2"
_cell_formula_units_Z 64
_cell_length_a 17.664691
_cell_length_b 21.099083
_cell_length_c 10.538096
_cell_angle_alpha 90.000000
_cell_angle_beta 90.000000
_cell_angle_gamma 90.000000
_cell_volume 3927.640920
_symmetry_space_group_name_H-M "I M M A"
_symmetry_group_IT_number 74
_symmetry_cell_setting 'orthorhombic'
loop_
_space_group_symop_operation_xyz
x,y,z
-x,1/2-y,z
x,-y,-z
-x,1/2+y,-z
-x,-y,-z
x,1/2+y,-z
-x,y,z
x,1/2-y,z
1/2+x,1/2+y,1/2+z
1/2-x,-y,1/2+z
1/2+x,1/2-y,1/2-z
1/2-x,y,1/2-z
1/2-x,1/2-y,1/2-z
1/2+x,y,1/2-z
1/2-x,1/2+y,1/2+z
1/2+x,-y,1/2+z
loop_
_atom_site_type_symbol
_atom_site_label
_atom_site_fract_x
_atom_site_fract_y
_atom_site_fract_z
Si Si1 0.913579 0.067549 0.943649
Si Si2 0.500000 0.540660 0.203163
Si Si3 0.000000 0.094482 0.422298
Si Si4 0.145172 0.176470 0.359021
Si Si5 0.187237 0.675851 0.938225
O O1 0.929127 0.058576 0.793589
O O2 0.000000 0.078295 0.995675
O O3 0.860110 0.125474 0.980735
O O4 0.887258 0.000000 0.000000
O O5 0.500000 0.466904 0.168180
O O6 0.500000 0.575029 0.069391
O O7 0.924781 0.133791 0.395464
O O8 0.127908 0.250000 0.384433
O O9 0.160704 0.170803 0.208388
O O10 0.223169 0.161241 0.432384
O O11 0.177104 0.750000 0.976188
#
# Coordination Sequence:
#
# PCOD9540209 Si02
#       5
#    16   8   8  16  16
#     4   9  18  34  55  78 105 132 172 227 266 313
#     4   9  21  34  51  76 105 135 184 220 254 326
#     4  11  19  36  55  70 109 147 172 220 266 318
#     4   9  19  33  54  81 106 137 177 217 263 321
#     4   9  18  34  54  82 110 133 177 227 266 315
#
# _framework density 16.294768999999999
#
# number of rings (size 3 to 8) (size 9 to 14) (size 15 to 20)
#    0.750    2.000    0.000    3.375    1.750    0.500 
#    4.500    3.750    0.000    3.000    0.000    0.000 
#    0.000    0.000    0.000    0.000    0.000    0.000 
#
# Total GULP energy -178142.676314 kJ/mol
# GULP energy per Si atom -5566.958635 kJ/mol
# Density = 1.625768 g / cm^3
# Si number density = 16.294769 Si / 1000 Ang^3
#
#
#
# Elastic Constant Matrix: (Units=GPa)
#
#
# Indices 1 2 3 4 5 6 
#
# 1 120.3241 111.1245 51.2465 0.0000 0.0000 0.0000
# 2 111.1245 138.7107 63.6164 0.0000 0.0000 0.0000
# 3 51.2465 63.6164 71.3272 0.0000 0.0000 0.0000
# 4 0.0000 0.0000 0.0000 24.9558 0.0000 0.0000
# 5 0.0000 0.0000 0.0000 0.0000 18.1297 0.0000
# 6 0.0000 0.0000 0.0000 0.0000 0.0000 29.0345
#
#
#
# Elastic Compliance Matrix: (Units=1/GPa)
#
#
# Indices 1 2 3 4 5 6 
#
# 1 0.031951 -0.025499 -0.000214 0.000000 0.000000 0.000000
# 2 -0.025499 0.032549 -0.010710 0.000000 0.000000 0.000000
# 3 -0.000214 -0.010710 0.023726 0.000000 0.000000 0.000000
# 4 0.000000 0.000000 0.000000 0.040071 0.000000 0.000000
# 5 0.000000 0.000000 0.000000 0.000000 0.055158 0.000000
# 6 0.000000 0.000000 0.000000 0.000000 0.000000 0.034442
#
#
# Mechanical properties :
#
#
# Convention : Reuss Voigt Hill
#
# Bulk Modulus (GPa) = 65.01698 86.92629 75.97163
# Shear Modulus (GPa) = 16.89941 21.38232 19.14086
#
# Velocity S-wave (km/s) = 3.22391 3.62639 3.43105
# Velocity P-wave (km/s) = 7.33793 8.42592 7.90068
#
# Compressibility (1/GPa) = 0.01538060
#
# Stress axis : x y z
#
# Youngs Moduli (GPa) = 31.29776 30.72299 42.14855
#
# Poissons Ratio (x) = 0.78340 0.00900
# Poissons Ratio (y) = 0.79806 0.45141
# Poissons Ratio (z) = 0.00669 0.32904
#
# Static dielectric constant tensor:
#      x y z
#    x 1.542680 0.000000 0.000000 
#    y 0.000000 1.532690 0.000000 
#    z 0.000000 0.000000 1.540920 
# 
# From -- ./inp_files/10298.got.cif
#   From: 2010.05.17/outbox.cif.g08.bks.cpg/sg74_6_cif.got.tgz:10298.got - 2010.06.03 17:57:02.
