data_PCOD9540203
_publ_section_title
;
Structure prediction by ZEFSAII (Michael W. Deem and Ramdas Pophale) SiO2 
 PCOD9540203
Probable space group: I M M A
;
_chemical_formula_sum "Si O2"
_cell_formula_units_Z 72
_cell_length_a 22.661117
_cell_length_b 13.942002
_cell_length_c 9.375918
_cell_angle_alpha 90.000000
_cell_angle_beta 90.000000
_cell_angle_gamma 90.000000
_cell_volume 2962.240083
_symmetry_space_group_name_H-M "I M M A"
_symmetry_group_IT_number 74
_symmetry_cell_setting 'orthorhombic'
loop_
_space_group_symop_operation_xyz
x,y,z
-x,1/2-y,z
x,-y,-z
-x,1/2+y,-z
-x,-y,-z
x,1/2+y,-z
-x,y,z
x,1/2-y,z
1/2+x,1/2+y,1/2+z
1/2-x,-y,1/2+z
1/2+x,1/2-y,1/2-z
1/2-x,y,1/2-z
1/2-x,1/2-y,1/2-z
1/2+x,y,1/2-z
1/2-x,1/2+y,1/2+z
1/2+x,-y,1/2+z
loop_
_atom_site_type_symbol
_atom_site_label
_atom_site_fract_x
_atom_site_fract_y
_atom_site_fract_z
Si Si1 0.175115 0.750000 0.386615
Si Si2 0.936892 0.420291 0.177961
Si Si3 0.150764 0.531658 0.347696
Si Si4 0.432820 0.250000 0.544503
Si Si5 0.064045 0.250000 0.406446
Si Si6 0.750000 0.901022 0.750000
Si Si7 0.698941 0.750000 0.534961
O O1 0.164295 0.643151 0.327647
O O2 0.124054 0.750000 0.507539
O O3 0.242256 0.750000 0.440441
O O4 0.887650 0.496639 0.214047
O O5 0.934812 0.349495 0.044271
O O6 0.935131 0.342845 0.306212
O O7 0.000000 0.470682 0.178438
O O8 0.121758 0.500000 0.500000
O O9 0.209318 0.467824 0.345086
O O10 0.500000 0.250000 0.618985
O O11 0.359958 0.250000 0.561569
O O12 0.000000 0.250000 0.484402
O O13 0.707957 0.837956 0.646969
#
# Coordination Sequence:
#
# PCOD9540203 Si02
#       7
#     8  16  16   8   8   8   8
#     4  12  24  34  52  83 108 143 196 230 272 337
#     4   9  17  30  49  75 110 145 172 213 271 330
#     4  12  22  35  52  77 111 147 186 225 273 335
#     4   9  17  31  56  86 108 135 185 240 286 331
#     4   9  16  28  45  71 107 143 179 211 251 325
#     4  11  22  35  56  76 108 151 178 221 290 324
#     4  11  19  34  60  83 104 138 193 238 273 322
#
# _framework density 24.305931000000001
#
# number of rings (size 3 to 8) (size 9 to 14) (size 15 to 20)
#    0.000    1.556    6.667    1.333    3.111    1.778 
#    0.000    0.000    0.000    0.000    0.000    4.667 
#    0.000    0.000    0.000    0.000    0.000    0.000 
#
# Total GULP energy -200722.605651 kJ/mol
# GULP energy per Si atom -5575.627935 kJ/mol
# Density = 2.425061 g / cm^3
# Si number density = 24.305931 Si / 1000 Ang^3
#
#
#
# Elastic Constant Matrix: (Units=GPa)
#
#
# Indices 1 2 3 4 5 6 
#
# 1 154.9447 46.5121 19.5208 0.0000 0.0000 0.0000
# 2 46.5121 172.1727 44.0573 0.0000 0.0000 0.0000
# 3 19.5208 44.0573 39.2226 0.0000 0.0000 0.0000
# 4 0.0000 0.0000 0.0000 10.8647 0.0000 0.0000
# 5 0.0000 0.0000 0.0000 0.0000 19.6357 0.0000
# 6 0.0000 0.0000 0.0000 0.0000 0.0000 35.0145
#
#
#
# Elastic Compliance Matrix: (Units=1/GPa)
#
#
# Indices 1 2 3 4 5 6 
#
# 1 0.007127 -0.001428 -0.001943 0.000000 0.000000 0.000000
# 2 -0.001428 0.008437 -0.008766 0.000000 0.000000 0.000000
# 3 -0.001943 -0.008766 0.036309 0.000000 0.000000 0.000000
# 4 0.000000 0.000000 0.000000 0.092041 0.000000 0.000000
# 5 0.000000 0.000000 0.000000 0.000000 0.050928 0.000000
# 6 0.000000 0.000000 0.000000 0.000000 0.000000 0.028560
#
#
# Mechanical properties :
#
#
# Convention : Reuss Voigt Hill
#
# Bulk Modulus (GPa) = 36.23329 65.16891 50.70110
# Shear Modulus (GPa) = 19.46456 30.18630 24.82543
#
# Velocity S-wave (km/s) = 2.83294 3.52793 3.19936
# Velocity P-wave (km/s) = 5.06362 6.59281 5.87816
#
# Compressibility (1/GPa) = 0.02759893
#
# Stress axis : x y z
#
# Youngs Moduli (GPa) = 140.30272 118.52297 27.54109
#
# Poissons Ratio (x) = 0.16928 0.05351
# Poissons Ratio (y) = 0.20039 0.24143
# Poissons Ratio (z) = 0.27260 1.03901
#
# Static dielectric constant tensor:
#      x y z
#    x 1.920170 0.000000 0.000000 
#    y 0.000000 1.905390 0.000000 
#    z 0.000000 0.000000 2.079670 
# 
# From -- ./inp_files/24856.got.cif
#   From: 2010.05.17/outbox.cif.g08.bks.cpg/sg74_13_cif.got.tgz:24856.got - 2010.06.03 17:57:02.
