data_PCOD9540893
_publ_section_title
;
Structure prediction by ZEFSAII (Michael W. Deem and Ramdas Pophale) SiO2 
 PCOD9540893
Probable space group: I M M A
;
_chemical_formula_sum "Si O2"
_cell_formula_units_Z 44
_cell_length_a 9.000000
_cell_length_b 21.000000
_cell_length_c 24.000000
_cell_angle_alpha 90.000000
_cell_angle_beta 90.000000
_cell_angle_gamma 90.000000
_cell_volume 4536.000000
_symmetry_space_group_name_H-M "I M M A"
_symmetry_group_IT_number 74
_symmetry_cell_setting 'orthorhombic'
loop_
_space_group_symop_operation_xyz
x,y,z
-x,1/2-y,z
x,-y,-z
-x,1/2+y,-z
-x,-y,-z
x,1/2+y,-z
-x,y,z
x,1/2-y,z
1/2+x,1/2+y,1/2+z
1/2-x,-y,1/2+z
1/2+x,1/2-y,1/2-z
1/2-x,y,1/2-z
1/2-x,1/2-y,1/2-z
1/2+x,y,1/2-z
1/2-x,1/2+y,1/2+z
1/2+x,-y,1/2+z
loop_
_atom_site_type_symbol
_atom_site_label
_atom_site_fract_x
_atom_site_fract_y
_atom_site_fract_z
Si Si1 0.823960 0.990180 0.190747
Si Si2 0.319524 0.073616 0.998709
Si Si3 0.178627 0.121233 0.622023
Si Si4 0.323994 0.360671 0.309103
Si Si5 0.680264 0.250000 0.811964
Si Si6 0.178688 0.318986 0.418467
O O1 0.750000 0.977337 0.250000
O O2 0.750662 0.940541 0.149533
O O3 0.000000 0.980603 0.193475
O O4 0.795957 0.064319 0.178015
O O5 0.500000 0.070256 0.001643
O O6 0.267233 0.118993 0.048378
O O7 0.283376 0.112737 0.942775
O O8 0.266511 0.000000 0.000000
O O9 0.223578 0.186426 0.653277
O O10 0.000000 0.117466 0.626907
O O11 0.500000 0.350683 0.306285
O O12 0.250000 0.346648 0.250000
O O13 0.249429 0.321657 0.357952
O O14 0.500000 0.250000 0.806964
O O15 0.750000 0.250000 0.750000
O O16 0.212922 0.250000 0.445152
O O17 0.000000 0.323216 0.414410
#
# Coordination Sequence:
#
# PCOD9540893 Si02
#       6
#    16  16  16  16   8  16
#     4  10  20  34  54  81 110 142 184 233 285 336
#     4   9  18  33  56  84 112 145 187 233 281 336
#     4  10  20  34  55  80 111 150 190 233 285 341
#     4  10  21  37  58  83 112 146 184 230 281 337
#     4  10  22  36  52  78 112 152 193 236 283 340
#     4  10  21  36  57  84 114 148 186 230 277 331
#
# _framework density 9.7001760000000008
#
# number of rings (size 3 to 8) (size 9 to 14) (size 15 to 20)
#    0.000    2.182    0.000    2.727    1.273    6.545 
#    0.000    0.909    0.000    3.273    0.000    0.000 
#    0.000    0.000    0.000    0.000    0.000    0.000 
#
# Total GULP energy -245455.173860 kJ/mol
# GULP energy per Si atom -5578.526679 kJ/mol
# Density = 0.967810 g / cm^3
# Si number density = 9.700176 Si / 1000 Ang^3
#
#
#
# Elastic Constant Matrix: (Units=GPa)
#
#
# Indices 1 2 3 4 5 6 
#
# 1 -0.2901 25.3445 25.4807 0.0000 0.0000 0.0000
# 2 25.3445 97.3150 78.8225 0.0000 0.0000 0.0000
# 3 25.4807 78.8225 116.6714 0.0000 0.0000 0.0000
# 4 0.0000 0.0000 0.0000 35.1303 0.0000 0.0000
# 5 0.0000 0.0000 0.0000 0.0000 19.8228 0.0000
# 6 0.0000 0.0000 0.0000 0.0000 0.0000 42.5411
#
#
#
# Elastic Compliance Matrix: (Units=1/GPa)
#
#
# Indices 1 2 3 4 5 6 
#
# 1 -0.135961 0.025086 0.012746 0.000000 0.000000 0.000000
# 2 0.025086 0.018066 -0.017684 0.000000 0.000000 0.000000
# 3 0.012746 -0.017684 0.017735 0.000000 0.000000 0.000000
# 4 0.000000 0.000000 0.000000 0.028465 0.000000 0.000000
# 5 0.000000 0.000000 0.000000 0.000000 0.050447 0.000000
# 6 0.000000 0.000000 0.000000 0.000000 0.000000 0.023507
#
#
# Mechanical properties :
#
#
# Convention : Reuss Voigt Hill
#
# Bulk Modulus (GPa) = -16.70421 52.55466 17.92522
# Shear Modulus (GPa) = -86.22154 25.10206 -30.55974
#
# Velocity S-wave (km/s) = -6.67381 3.60098 -3.97320
# Velocity P-wave (km/s) = 8.24714 6.66617 3.43348
#
# Compressibility (1/GPa) = -0.05986514
#
# Stress axis : x y z
#
# Youngs Moduli (GPa) = -7.35507 55.35157 56.38654
#
# Poissons Ratio (x) = -1.38853 -0.71869
# Poissons Ratio (y) = 0.18451 0.99715
# Poissons Ratio (z) = 0.09375 0.97885
#
# Static dielectric constant tensor:
#      x y z
#    x 1.644160 0.000000 0.000000 
#    y 0.000000 1.631760 0.000000 
#    z 0.000000 0.000000 1.712860 
# 
# From -- ./inp_files/56946.got.cif
#   From: 2010.05.17/outbox.ucp.g08.bks.cvg/sg74_29_cif.got.tgz:56946.got - 2010.06.11 16:37:44.
