data_PCOD9540879
_publ_section_title
;
Structure prediction by ZEFSAII (Michael W. Deem and Ramdas Pophale) SiO2 
 PCOD9540879
Probable space group: I M M A
;
_chemical_formula_sum "Si O2"
_cell_formula_units_Z 60
_cell_length_a 21.000000
_cell_length_b 15.000000
_cell_length_c 24.000000
_cell_angle_alpha 90.000000
_cell_angle_beta 90.000000
_cell_angle_gamma 90.000000
_cell_volume 7560.000000
_symmetry_space_group_name_H-M "I M M A"
_symmetry_group_IT_number 74
_symmetry_cell_setting 'orthorhombic'
loop_
_space_group_symop_operation_xyz
x,y,z
-x,1/2-y,z
x,-y,-z
-x,1/2+y,-z
-x,-y,-z
x,1/2+y,-z
-x,y,z
x,1/2-y,z
1/2+x,1/2+y,1/2+z
1/2-x,-y,1/2+z
1/2+x,1/2-y,1/2-z
1/2-x,y,1/2-z
1/2-x,1/2-y,1/2-z
1/2+x,y,1/2-z
1/2-x,1/2+y,1/2+z
1/2+x,-y,1/2+z
loop_
_atom_site_type_symbol
_atom_site_label
_atom_site_fract_x
_atom_site_fract_y
_atom_site_fract_z
Si Si1 0.819972 0.091947 0.593146
Si Si2 0.221102 0.354228 0.091554
Si Si3 0.927514 0.854029 0.491527
Si Si4 0.722654 0.348778 0.687243
Si Si5 0.133262 0.096632 0.393827
Si Si6 0.268407 0.500000 0.500000
Si Si7 0.575470 0.145471 0.223400
Si Si8 0.811936 0.951416 0.791879
O O1 0.878292 0.136554 0.559733
O O2 0.777785 0.141318 0.639796
O O3 0.848738 0.004302 0.622123
O O4 0.773698 0.056419 0.543922
O O5 0.202094 0.250000 0.083631
O O6 0.298598 0.357100 0.094444
O O7 0.198892 0.393645 0.151562
O O8 0.201306 0.423500 0.041331
O O9 0.928012 0.750000 0.507543
O O10 0.903721 0.904271 0.547187
O O11 0.000000 0.880490 0.476948
O O12 0.691888 0.250000 0.677682
O O13 0.750000 0.345267 0.750000
O O14 0.685129 0.443968 0.688634
O O15 0.095014 0.136875 0.342011
O O16 0.500000 0.122467 0.230168
O O17 0.583331 0.250000 0.239070
O O18 0.625742 0.085704 0.259042
O O19 0.750000 0.942821 0.750000
#
# Coordination Sequence:
#
# PCOD9540879 Si02
#       8
#    16  16  16  16  16   8  16  16
#     4  11  19  35  49  71 104 139 181 232 278 319
#     4  11  20  32  53  78 109 145 180 229 277 319
#     4  11  22  32  45  68 102 151 200 230 263 314
#     4  10  20  35  55  76 101 134 177 234 288 326
#     4  11  19  32  49  73 107 143 189 229 259 315
#     4  10  20  34  45  78 105 132 176 218 264 336
#     4  11  23  36  53  80 113 147 180 220 275 333
#     4  11  20  36  56  83 110 141 187 227 274 336
#
# _framework density 7.9365079999999999
#
# number of rings (size 3 to 8) (size 9 to 14) (size 15 to 20)
#    0.000    1.200    6.667    3.200    0.000    3.733 
#    0.000    0.000    0.000    0.400    0.000    0.467 
#    0.000    0.000    0.000    0.000    0.000    0.133 
#
# Total GULP energy -334269.813652 kJ/mol
# GULP energy per Si atom -5571.163561 kJ/mol
# Density = 0.791844 g / cm^3
# Si number density = 7.936508 Si / 1000 Ang^3
#
#
#
# Elastic Constant Matrix: (Units=GPa)
#
#
# Indices 1 2 3 4 5 6 
#
# 1 66.2494 23.5426 32.2795 0.0000 0.0000 0.0000
# 2 23.5426 114.5489 27.2035 0.0000 0.0000 0.0000
# 3 32.2795 27.2035 104.8424 0.0000 0.0000 0.0000
# 4 0.0000 0.0000 0.0000 27.9219 0.0000 0.0000
# 5 0.0000 0.0000 0.0000 0.0000 24.9366 0.0000
# 6 0.0000 0.0000 0.0000 0.0000 0.0000 18.7888
#
#
#
# Elastic Compliance Matrix: (Units=1/GPa)
#
#
# Indices 1 2 3 4 5 6 
#
# 1 0.018460 -0.002605 -0.005008 0.000000 0.000000 0.000000
# 2 -0.002605 0.009671 -0.001707 0.000000 0.000000 0.000000
# 3 -0.005008 -0.001707 0.011523 0.000000 0.000000 0.000000
# 4 0.000000 0.000000 0.000000 0.035814 0.000000 0.000000
# 5 0.000000 0.000000 0.000000 0.000000 0.040102 0.000000
# 6 0.000000 0.000000 0.000000 0.000000 0.000000 0.053223
#
#
# Mechanical properties :
#
#
# Convention : Reuss Voigt Hill
#
# Bulk Modulus (GPa) = 47.58698 50.18798 48.88748
# Shear Modulus (GPa) = 25.71525 27.83713 26.77619
#
# Velocity S-wave (km/s) = 4.02936 4.19231 4.11164
# Velocity P-wave (km/s) = 7.18976 7.42435 7.30800
#
# Compressibility (1/GPa) = 0.02101415
#
# Stress axis : x y z
#
# Youngs Moduli (GPa) = 54.17087 103.40528 86.78349
#
# Poissons Ratio (x) = 0.26934 0.43459
# Poissons Ratio (y) = 0.14110 0.14816
# Poissons Ratio (z) = 0.27127 0.17654
#
# Static dielectric constant tensor:
#      x y z
#    x 1.517150 0.000000 0.000000 
#    y 0.000000 1.597960 0.000000 
#    z 0.000000 0.000000 1.528720 
# 
# From -- ./inp_files/61736.got.cif
#   From: 2010.05.17/outbox.ucp.g08.bks.cvg/sg74_31_cif.got.tgz:61736.got - 2010.06.11 16:37:44.
