data_PCOD9540694
_publ_section_title
;
Structure prediction by ZEFSAII (Michael W. Deem and Ramdas Pophale) SiO2 
 PCOD9540694
Probable space group: I M M A
;
_chemical_formula_sum "Si O2"
_cell_formula_units_Z 96
_cell_length_a 24.883990
_cell_length_b 14.703750
_cell_length_c 9.830483
_cell_angle_alpha 90.000000
_cell_angle_beta 90.000000
_cell_angle_gamma 90.000000
_cell_volume 3596.855449
_symmetry_space_group_name_H-M "I M M A"
_symmetry_group_IT_number 74
_symmetry_cell_setting 'orthorhombic'
loop_
_space_group_symop_operation_xyz
x,y,z
-x,1/2-y,z
x,-y,-z
-x,1/2+y,-z
-x,-y,-z
x,1/2+y,-z
-x,y,z
x,1/2-y,z
1/2+x,1/2+y,1/2+z
1/2-x,-y,1/2+z
1/2+x,1/2-y,1/2-z
1/2-x,y,1/2-z
1/2-x,1/2-y,1/2-z
1/2+x,y,1/2-z
1/2-x,1/2+y,1/2+z
1/2+x,-y,1/2+z
loop_
_atom_site_type_symbol
_atom_site_label
_atom_site_fract_x
_atom_site_fract_y
_atom_site_fract_z
Si Si1 0.193019 0.097591 0.759633
Si Si2 0.673869 0.852663 0.956204
Si Si3 0.058725 0.860260 0.487168
Si Si4 0.290710 0.149961 0.438871
Si Si5 0.916659 0.142130 0.079513
Si Si6 0.577194 0.541510 0.296109
O O1 0.250000 0.049622 0.750000
O O2 0.180269 0.149277 0.620694
O O3 0.201722 0.152985 0.897457
O O4 0.141660 0.037577 0.783781
O O5 0.670386 0.750000 0.904229
O O6 0.613726 0.891986 0.937727
O O7 0.731567 0.895155 0.914046
O O8 0.063462 0.750000 0.469454
O O9 0.058276 0.910823 0.341761
O O10 0.000000 0.877009 0.550686
O O11 0.281396 0.250000 0.386323
O O12 0.352021 0.130195 0.398125
O O13 0.929317 0.250000 0.101771
O O14 0.941462 0.060081 0.168046
O O15 0.930930 0.109980 0.925035
#
# Coordination Sequence:
#
# PCOD9540694 Si02
#       6
#    16  16  16  16  16  16
#     4   8  12  18  30  48  67  86 109 141 178 219
#     4   8  12  18  30  49  70  90 113 142 179 220
#     4   9  16  25  37  53  74 100 128 156 184 213
#     4   8  12  18  30  48  68  88 111 142 180 222
#     4   9  16  25  36  50  69  94 123 152 182 216
#     4   9  16  25  37  51  68  94 122 151 183 216
#
# _framework density 26.689979000000001
#
# number of rings (size 3 to 8) (size 9 to 14) (size 15 to 20)
#    0.000    3.500    0.000    1.000    0.000    6.000 
#    0.000    1.667    0.000    2.000    0.000    0.000 
#    0.000    0.000    0.000   48.000    0.000   58.833 
#
# Total GULP energy -267433.518023 kJ/mol
# GULP energy per Si atom -5571.531625 kJ/mol
# Density = 2.662923 g / cm^3
# Si number density = 26.689979 Si / 1000 Ang^3
#
#
#
# Elastic Constant Matrix: (Units=GPa)
#
#
# Indices 1 2 3 4 5 6 
#
# 1 228.3190 29.8318 25.8382 0.0000 0.0000 0.0000
# 2 29.8318 161.5839 58.0621 0.0000 0.0000 0.0000
# 3 25.8382 58.0621 91.8047 0.0000 0.0000 0.0000
# 4 0.0000 0.0000 0.0000 -45.1645 0.0000 0.0000
# 5 0.0000 0.0000 0.0000 0.0000 5.6950 0.0000
# 6 0.0000 0.0000 0.0000 0.0000 0.0000 -4.6553
#
#
#
# Elastic Compliance Matrix: (Units=1/GPa)
#
#
# Indices 1 2 3 4 5 6 
#
# 1 0.004554 -0.000492 -0.000971 0.000000 0.000000 0.000000
# 2 -0.000492 0.008062 -0.004960 0.000000 0.000000 0.000000
# 3 -0.000971 -0.004960 0.014303 0.000000 0.000000 0.000000
# 4 0.000000 0.000000 0.000000 -0.022141 0.000000 0.000000
# 5 0.000000 0.000000 0.000000 0.000000 0.175593 0.000000
# 6 0.000000 0.000000 0.000000 0.000000 0.000000 -0.214807
#
#
# Mechanical properties :
#
#
# Convention : Reuss Voigt Hill
#
# Bulk Modulus (GPa) = 71.05708 78.79687 74.92698
# Shear Modulus (GPa) = -295.86410 15.70674 -140.07868
#
# Velocity S-wave (km/s) = -10.54006 2.42851 -7.25242
# Velocity P-wave (km/s) = 11.02011 6.11969 6.48044
#
# Compressibility (1/GPa) = 0.01407319
#
# Stress axis : x y z
#
# Youngs Moduli (GPa) = 219.58943 124.03906 69.91536
#
# Poissons Ratio (x) = 0.06103 0.06785
# Poissons Ratio (y) = 0.10804 0.34680
# Poissons Ratio (z) = 0.21312 0.61528
#
# Static dielectric constant tensor:
#      x y z
#    x 2.150950 0.000000 0.000000 
#    y 0.000000 2.045730 0.000000 
#    z 0.000000 0.000000 2.082290 
# 
# From -- ./inp_files/46216.got.cif
#   From: 2010.05.17/outbox.cif.g08.bks.cpg/sg74_24_cif.got.tgz:46216.got - 2010.06.03 17:57:02.
