data_PCOD9540768
_publ_section_title
;
Structure prediction by ZEFSAII (Michael W. Deem and Ramdas Pophale) SiO2 
 PCOD9540768
Probable space group: I M M A
;
_chemical_formula_sum "Si O2"
_cell_formula_units_Z 112
_cell_length_a 23.829665
_cell_length_b 15.196535
_cell_length_c 21.855181
_cell_angle_alpha 90.000000
_cell_angle_beta 90.000000
_cell_angle_gamma 90.000000
_cell_volume 7914.380377
_symmetry_space_group_name_H-M "I M M A"
_symmetry_group_IT_number 74
_symmetry_cell_setting 'orthorhombic'
loop_
_space_group_symop_operation_xyz
x,y,z
-x,1/2-y,z
x,-y,-z
-x,1/2+y,-z
-x,-y,-z
x,1/2+y,-z
-x,y,z
x,1/2-y,z
1/2+x,1/2+y,1/2+z
1/2-x,-y,1/2+z
1/2+x,1/2-y,1/2-z
1/2-x,y,1/2-z
1/2-x,1/2-y,1/2-z
1/2+x,y,1/2-z
1/2-x,1/2+y,1/2+z
1/2+x,-y,1/2+z
loop_
_atom_site_type_symbol
_atom_site_label
_atom_site_fract_x
_atom_site_fract_y
_atom_site_fract_z
Si Si1 0.064229 0.142755 0.499633
Si Si2 0.642529 0.646506 0.887747
Si Si3 0.666679 0.000400 0.795670
Si Si4 0.797361 0.499619 0.838081
Si Si5 0.228187 0.852881 0.929263
Si Si6 0.142401 0.853563 0.388433
Si Si7 0.271666 0.352942 0.570100
O O1 0.064785 0.250000 0.499660
O O2 0.098237 0.116812 0.439014
O O3 0.098077 0.116720 0.560342
O O4 0.000000 0.113312 0.499537
O O5 0.634021 0.750000 0.874208
O O6 0.641129 0.585560 0.828164
O O7 0.704889 0.637896 0.916847
O O8 0.732698 0.000475 0.814392
O O9 0.664936 0.000721 0.722479
O O10 0.640956 0.085818 0.828684
O O11 0.802624 0.584966 0.880991
O O12 0.802557 0.414824 0.881517
O O13 0.214632 0.750000 0.920970
O O14 0.217282 0.877506 0.999692
O O15 0.134005 0.750000 0.375043
O O16 0.204749 0.862424 0.417536
O O17 0.285044 0.250000 0.578383
#
# Coordination Sequence:
#
# PCOD9540768 Si02
#       7
#    16  16  16  16  16  16  16
#     4   9  16  27  43  61  78  97 129 170 203 227
#     4   9  16  27  40  53  72  98 125 156 195 229
#     4   9  18  27  36  51  70  95 126 156 191 229
#     4   9  17  26  35  52  72  92 123 161 190 218
#     4   9  15  24  39  55  72  96 125 154 190 229
#     4   9  16  27  40  53  72  98 125 156 195 229
#     4   9  15  24  39  55  72  96 125 154 190 229
#
# _framework density 14.151455
#
# number of rings (size 3 to 8) (size 9 to 14) (size 15 to 20)
#    0.000    3.000    1.429    0.429    0.000    1.714 
#    0.000    7.143    0.000    0.000    0.000    0.000 
#    0.000    0.000    0.000    0.000    0.000   11.429 
#
# Total GULP energy -311856.829257 kJ/mol
# GULP energy per Si atom -5568.871951 kJ/mol
# Density = 1.411925 g / cm^3
# Si number density = 14.151455 Si / 1000 Ang^3
#
#
#
# Elastic Constant Matrix: (Units=GPa)
#
#
# Indices 1 2 3 4 5 6 
#
# 1 30.8307 22.8317 36.6431 0.0000 0.0000 0.0000
# 2 22.8317 75.2707 77.0502 0.0000 0.0000 0.0000
# 3 36.6431 77.0502 153.2007 0.0000 0.0000 0.0000
# 4 0.0000 0.0000 0.0000 8.2487 0.0000 0.0000
# 5 0.0000 0.0000 0.0000 0.0000 9.5297 0.0000
# 6 0.0000 0.0000 0.0000 0.0000 0.0000 6.3282
#
#
#
# Elastic Compliance Matrix: (Units=1/GPa)
#
#
# Indices 1 2 3 4 5 6 
#
# 1 0.046435 -0.005598 -0.008291 0.000000 0.000000 0.000000
# 2 -0.005598 0.028058 -0.012772 0.000000 0.000000 0.000000
# 3 -0.008291 -0.012772 0.014934 0.000000 0.000000 0.000000
# 4 0.000000 0.000000 0.000000 0.121231 0.000000 0.000000
# 5 0.000000 0.000000 0.000000 0.000000 0.104935 0.000000
# 6 0.000000 0.000000 0.000000 0.000000 0.000000 0.158023
#
#
# Mechanical properties :
#
#
# Convention : Reuss Voigt Hill
#
# Bulk Modulus (GPa) = 27.69768 59.15025 43.42397
# Shear Modulus (GPa) = 9.27689 13.00645 11.14167
#
# Velocity S-wave (km/s) = 2.56314 3.03494 2.80896
# Velocity P-wave (km/s) = 5.32676 7.36002 6.42434
#
# Compressibility (1/GPa) = 0.03610410
#
# Stress axis : x y z
#
# Youngs Moduli (GPa) = 21.53551 35.64093 66.96081
#
# Poissons Ratio (x) = 0.19952 0.55518
# Poissons Ratio (y) = 0.12055 0.85524
# Poissons Ratio (z) = 0.17855 0.45522
#
# Static dielectric constant tensor:
#      x y z
#    x 1.431310 0.000000 0.000000 
#    y 0.000000 1.498040 0.000000 
#    z 0.000000 0.000000 1.458510 
# 
# From -- ./inp_files/45445.got.cif
#   From: 2010.05.17/outbox.cif.g08.bks.cpg/sg74_23_cif.got.tgz:45445.got - 2010.06.03 17:57:02.
