data_PCOD9540025
_publ_section_title
;
Structure prediction by ZEFSAII (Michael W. Deem and Ramdas Pophale) SiO2 
 PCOD9540025
Probable space group: I M M A
;
_chemical_formula_sum "Si O2"
_cell_formula_units_Z 104
_cell_length_a 8.749278
_cell_length_b 24.222123
_cell_length_c 25.045354
_cell_angle_alpha 90.000000
_cell_angle_beta 90.000000
_cell_angle_gamma 90.000000
_cell_volume 5307.763893
_symmetry_space_group_name_H-M "I M M A"
_symmetry_group_IT_number 74
_symmetry_cell_setting 'orthorhombic'
loop_
_space_group_symop_operation_xyz
x,y,z
-x,1/2-y,z
x,-y,-z
-x,1/2+y,-z
-x,-y,-z
x,1/2+y,-z
-x,y,z
x,1/2-y,z
1/2+x,1/2+y,1/2+z
1/2-x,-y,1/2+z
1/2+x,1/2-y,1/2-z
1/2-x,y,1/2-z
1/2-x,1/2-y,1/2-z
1/2+x,y,1/2-z
1/2-x,1/2+y,1/2+z
1/2+x,-y,1/2+z
loop_
_atom_site_type_symbol
_atom_site_label
_atom_site_fract_x
_atom_site_fract_y
_atom_site_fract_z
Si Si1 0.315213 0.628815 0.309634
Si Si2 0.682592 0.451222 0.596342
Si Si3 0.681662 0.750000 0.991170
Si Si4 0.181212 0.133805 0.000119
Si Si5 0.319028 0.570569 0.899795
Si Si6 0.682103 0.359241 0.308974
Si Si7 0.315745 0.250000 0.690030
Si Si8 0.182503 0.750000 0.636296
O O1 0.500000 0.627971 0.306764
O O2 0.250000 0.622636 0.250000
O O3 0.268595 0.580490 0.349776
O O4 0.269633 0.689862 0.331994
O O5 0.500000 0.462553 0.599167
O O6 0.706753 0.409118 0.547689
O O7 0.769882 0.508155 0.588005
O O8 0.500000 0.750000 0.999249
O O9 0.755439 0.694190 0.013273
O O10 0.711609 0.750000 0.927137
O O11 0.263439 0.110136 0.052510
O O12 0.000000 0.137272 0.010313
O O13 0.500000 0.575588 0.893817
O O14 0.237071 0.590576 0.845969
O O15 0.500000 0.356932 0.306842
O O16 0.750000 0.363652 0.250000
O O17 0.746247 0.303938 0.336717
O O18 0.500000 0.250000 0.691453
O O19 0.250000 0.250000 0.750000
O O20 0.000000 0.750000 0.644357
#
# Coordination Sequence:
#
# PCOD9540025 Si02
#       8
#    16  16   8  16  16  16   8   8
#     4   9  18  34  57  84 117 152 192 240 296 357
#     4  10  23  41  61  88 120 160 207 257 308 368
#     4  11  23  39  65  96 131 165 201 254 316 377
#     4  11  23  41  66  92 121 160 208 254 308 373
#     4  12  25  42  63  88 121 162 206 256 312 368
#     4  12  25  42  66  95 128 166 211 260 310 372
#     4   8  14  27  50  78 106 141 180 222 275 335
#     4  11  22  40  64  94 131 168 206 253 314 377
#
# _framework density 19.593938999999999
#
# number of rings (size 3 to 8) (size 9 to 14) (size 15 to 20)
#    0.000    1.385    1.538    4.385    0.000    5.538 
#    0.000    3.846    0.000    3.692    0.000    0.000 
#    0.000    0.000    0.000    0.000    0.000    0.000 
#
# Total GULP energy -290702.394363 kJ/mol
# GULP energy per Si atom -5590.430661 kJ/mol
# Density = 1.954934 g / cm^3
# Si number density = 19.593939 Si / 1000 Ang^3
#
#
#
# Elastic Constant Matrix: (Units=GPa)
#
#
# Indices 1 2 3 4 5 6 
#
# 1 91.3857 39.1771 34.7719 0.0000 0.0000 0.0000
# 2 39.1771 108.8515 6.9106 0.0000 0.0000 0.0000
# 3 34.7719 6.9106 41.3384 0.0000 0.0000 0.0000
# 4 0.0000 0.0000 0.0000 18.5010 0.0000 0.0000
# 5 0.0000 0.0000 0.0000 0.0000 25.1622 0.0000
# 6 0.0000 0.0000 0.0000 0.0000 0.0000 25.3011
#
#
#
# Elastic Compliance Matrix: (Units=1/GPa)
#
#
# Indices 1 2 3 4 5 6 
#
# 1 0.019305 -0.005981 -0.015238 0.000000 0.000000 0.000000
# 2 -0.005981 0.011138 0.003169 0.000000 0.000000 0.000000
# 3 -0.015238 0.003169 0.036479 0.000000 0.000000 0.000000
# 4 0.000000 0.000000 0.000000 0.054051 0.000000 0.000000
# 5 0.000000 0.000000 0.000000 0.000000 0.039742 0.000000
# 6 0.000000 0.000000 0.000000 0.000000 0.000000 0.039524
#
#
# Mechanical properties :
#
#
# Convention : Reuss Voigt Hill
#
# Bulk Modulus (GPa) = 32.44563 44.81053 38.62808
# Shear Modulus (GPa) = 20.27467 24.50726 22.39096
#
# Velocity S-wave (km/s) = 3.22023 3.54044 3.38413
# Velocity P-wave (km/s) = 5.51557 6.29541 5.91835
#
# Compressibility (1/GPa) = 0.03082079
#
# Stress axis : x y z
#
# Youngs Moduli (GPa) = 51.80096 89.78153 27.41325
#
# Poissons Ratio (x) = 0.53694 0.41773
# Poissons Ratio (y) = 0.30980 -0.08686
# Poissons Ratio (z) = 0.78936 -0.28448
#
# Static dielectric constant tensor:
#      x y z
#    x 1.655490 0.000000 0.000000 
#    y 0.000000 1.693080 0.000000 
#    z 0.000000 0.000000 1.661700 
# 
# From -- ./inp_files/64577.got.cif
#   From: 2010.05.17/outbox.cif.g08.bks.cpg/sg74_33_cif.got.tgz:64577.got - 2010.06.03 17:57:02.
