data_PCOD9540391
_publ_section_title
;
Structure prediction by ZEFSAII (Michael W. Deem and Ramdas Pophale) SiO2 
 PCOD9540391
Probable space group: I M M A
;
_chemical_formula_sum "Si O2"
_cell_formula_units_Z 72
_cell_length_a 16.015091
_cell_length_b 8.576062
_cell_length_c 29.575688
_cell_angle_alpha 90.000000
_cell_angle_beta 90.000000
_cell_angle_gamma 90.000000
_cell_volume 4062.114669
_symmetry_space_group_name_H-M "I M M A"
_symmetry_group_IT_number 74
_symmetry_cell_setting 'orthorhombic'
loop_
_space_group_symop_operation_xyz
x,y,z
-x,1/2-y,z
x,-y,-z
-x,1/2+y,-z
-x,-y,-z
x,1/2+y,-z
-x,y,z
x,1/2-y,z
1/2+x,1/2+y,1/2+z
1/2-x,-y,1/2+z
1/2+x,1/2-y,1/2-z
1/2-x,y,1/2-z
1/2-x,1/2-y,1/2-z
1/2+x,y,1/2-z
1/2-x,1/2+y,1/2+z
1/2+x,-y,1/2+z
loop_
_atom_site_type_symbol
_atom_site_label
_atom_site_fract_x
_atom_site_fract_y
_atom_site_fract_z
Si Si1 0.906488 0.937748 0.200068
Si Si2 0.905619 0.438379 0.694185
Si Si3 0.183659 0.561590 0.550718
Si Si4 0.000000 0.437730 0.448883
Si Si5 0.754559 0.436326 0.141708
O O1 0.904524 0.750000 0.198505
O O2 0.894468 0.980614 0.252821
O O3 0.000000 0.989086 0.186699
O O4 0.833874 0.000807 0.168568
O O5 0.902020 0.250000 0.691039
O O6 0.830260 0.509943 0.666270
O O7 0.000000 0.486819 0.680422
O O8 0.196845 0.500000 0.500000
O O9 0.183811 0.750000 0.548188
O O10 0.248093 0.511350 0.589322
O O11 0.090817 0.511229 0.568235
O O12 0.000000 0.500000 0.500000
O O13 0.000000 0.250000 0.447858
O O14 0.757028 0.250000 0.142141
#
# Coordination Sequence:
#
# PCOD9540391 Si02
#       5
#    16  16  16   8  16
#     4   9  19  37  57  74  98 135 177 217 254 297
#     4   9  19  35  53  75 104 139 177 211 244 295
#     4   9  19  33  49  70  99 134 169 206 249 297
#     4   8  14  28  46  62  88 126 162 194 232 282
#     4  11  22  32  50  80 109 135 166 210 263 311
#
# _framework density 17.724758000000001
#
# number of rings (size 3 to 8) (size 9 to 14) (size 15 to 20)
#    0.000    2.667    0.000    2.667    1.556    6.222 
#    0.000    2.222    0.000    0.667    0.000    0.000 
#    0.000    0.000    0.000    0.000    0.000    0.000 
#
# Total GULP energy -200655.725860 kJ/mol
# GULP energy per Si atom -5573.770163 kJ/mol
# Density = 1.768442 g / cm^3
# Si number density = 17.724758 Si / 1000 Ang^3
#
#
#
# Elastic Constant Matrix: (Units=GPa)
#
#
# Indices 1 2 3 4 5 6 
#
# 1 114.9395 21.9212 84.2595 0.0000 0.0000 0.0000
# 2 21.9212 10.6383 21.5380 0.0000 0.0000 0.0000
# 3 84.2595 21.5380 106.7637 0.0000 0.0000 0.0000
# 4 0.0000 0.0000 0.0000 22.6541 0.0000 0.0000
# 5 0.0000 0.0000 0.0000 0.0000 29.5021 0.0000
# 6 0.0000 0.0000 0.0000 0.0000 0.0000 8.5429
#
#
#
# Elastic Compliance Matrix: (Units=1/GPa)
#
#
# Indices 1 2 3 4 5 6 
#
# 1 0.022427 -0.017544 -0.014160 0.000000 0.000000 0.000000
# 2 -0.017544 0.172624 -0.020979 0.000000 0.000000 0.000000
# 3 -0.014160 -0.020979 0.024774 0.000000 0.000000 0.000000
# 4 0.000000 0.000000 0.000000 0.044142 0.000000 0.000000
# 5 0.000000 0.000000 0.000000 0.000000 0.033896 0.000000
# 6 0.000000 0.000000 0.000000 0.000000 0.000000 0.117057
#
#
# Mechanical properties :
#
#
# Convention : Reuss Voigt Hill
#
# Bulk Modulus (GPa) = 8.73672 54.19764 31.46718
# Shear Modulus (GPa) = 8.95355 19.11468 14.03411
#
# Velocity S-wave (km/s) = 2.24998 3.28749 2.81691
# Velocity P-wave (km/s) = 3.41902 6.71222 5.32652
#
# Compressibility (1/GPa) = 0.11445944
#
# Stress axis : x y z
#
# Youngs Moduli (GPa) = 44.58954 5.79294 40.36467
#
# Poissons Ratio (x) = 0.10163 0.57158
# Poissons Ratio (y) = 0.78227 0.84679
# Poissons Ratio (z) = 0.63140 0.12153
#
# Static dielectric constant tensor:
#      x y z
#    x 1.613280 0.000000 0.000000 
#    y 0.000000 1.609330 0.000000 
#    z 0.000000 0.000000 1.608130 
# 
# From -- ./inp_files/63628.got.cif
#   From: 2010.05.17/outbox.cif.g08.bks.cpg/sg74_32_cif.got.tgz:63628.got - 2010.06.03 17:57:02.
