data_PCOD9540385
_publ_section_title
;
Structure prediction by ZEFSAII (Michael W. Deem and Ramdas Pophale) SiO2 
 PCOD9540385
Probable space group: I M M A
;
_chemical_formula_sum "Si O2"
_cell_formula_units_Z 80
_cell_length_a 19.255506
_cell_length_b 16.477490
_cell_length_c 11.814167
_cell_angle_alpha 90.000000
_cell_angle_beta 90.000000
_cell_angle_gamma 90.000000
_cell_volume 3748.427349
_symmetry_space_group_name_H-M "I M M A"
_symmetry_group_IT_number 74
_symmetry_cell_setting 'orthorhombic'
loop_
_space_group_symop_operation_xyz
x,y,z
-x,1/2-y,z
x,-y,-z
-x,1/2+y,-z
-x,-y,-z
x,1/2+y,-z
-x,y,z
x,1/2-y,z
1/2+x,1/2+y,1/2+z
1/2-x,-y,1/2+z
1/2+x,1/2-y,1/2-z
1/2-x,y,1/2-z
1/2-x,1/2-y,1/2-z
1/2+x,y,1/2-z
1/2-x,1/2+y,1/2+z
1/2+x,-y,1/2+z
loop_
_atom_site_type_symbol
_atom_site_label
_atom_site_fract_x
_atom_site_fract_y
_atom_site_fract_z
Si Si1 0.080976 0.344275 0.670520
Si Si2 0.849042 0.909667 0.550656
Si Si3 0.184506 0.925364 0.167193
Si Si4 0.422006 0.159389 0.249211
Si Si5 0.303711 0.388365 0.412559
O O1 0.121597 0.359397 0.553908
O O2 0.116742 0.399920 0.764498
O O3 0.137021 0.657433 0.844530
O O4 0.000000 0.363103 0.654691
O O5 0.912216 0.750000 0.296816
O O6 0.903742 0.905472 0.652221
O O7 0.778298 0.873140 0.603298
O O8 0.250000 0.909196 0.250000
O O9 0.186482 0.019179 0.130990
O O10 0.187684 0.879875 0.047419
O O11 0.500000 0.145769 0.293766
O O12 0.420728 0.250000 0.196819
O O13 0.164705 0.500000 0.500000
#
# Coordination Sequence:
#
# PCOD9540385 Si02
#       5
#    16  16  16  16  16
#     4  11  25  42  63  96 135 173 216 267 326 389
#     4  12  22  42  70  97 130 167 220 279 327 381
#     4  11  21  43  65  96 131 168 215 271 322 384
#     4  11  26  44  62  94 139 178 216 264 322 391
#     4  11  23  40  70  96 127 171 219 269 324 388
#
# _framework density 21.342283999999999
#
# number of rings (size 3 to 8) (size 9 to 14) (size 15 to 20)
#    0.000    0.800    4.000    4.200    0.000   10.000 
#    0.000    4.000    0.000    0.000    0.000    0.000 
#    0.000    0.000    0.000    0.000    0.000    0.000 
#
# Total GULP energy -223567.069140 kJ/mol
# GULP energy per Si atom -5589.176728 kJ/mol
# Density = 2.129371 g / cm^3
# Si number density = 21.342284 Si / 1000 Ang^3
#
#
#
# Elastic Constant Matrix: (Units=GPa)
#
#
# Indices 1 2 3 4 5 6 
#
# 1 158.3615 44.4357 49.3583 0.0000 0.0000 0.0000
# 2 44.4357 37.6701 25.0593 0.0000 0.0000 0.0000
# 3 49.3583 25.0593 114.6902 0.0000 0.0000 0.0000
# 4 0.0000 0.0000 0.0000 25.0788 0.0000 0.0000
# 5 0.0000 0.0000 0.0000 0.0000 32.8581 0.0000
# 6 0.0000 0.0000 0.0000 0.0000 0.0000 33.7450
#
#
#
# Elastic Compliance Matrix: (Units=1/GPa)
#
#
# Indices 1 2 3 4 5 6 
#
# 1 0.009809 -0.010253 -0.001981 0.000000 0.000000 0.000000
# 2 -0.010253 0.041777 -0.004716 0.000000 0.000000 0.000000
# 3 -0.001981 -0.004716 0.010602 0.000000 0.000000 0.000000
# 4 0.000000 0.000000 0.000000 0.039874 0.000000 0.000000
# 5 0.000000 0.000000 0.000000 0.000000 0.030434 0.000000
# 6 0.000000 0.000000 0.000000 0.000000 0.000000 0.029634
#
#
# Mechanical properties :
#
#
# Convention : Reuss Voigt Hill
#
# Bulk Modulus (GPa) = 35.34935 60.93650 48.14292
# Shear Modulus (GPa) = 24.33558 31.12760 27.73159
#
# Velocity S-wave (km/s) = 3.38042 3.82317 3.60859
# Velocity P-wave (km/s) = 5.64228 6.93562 6.32211
#
# Compressibility (1/GPa) = 0.02828907
#
# Stress axis : x y z
#
# Youngs Moduli (GPa) = 101.94630 23.93633 94.32026
#
# Poissons Ratio (x) = 0.24541 0.18687
# Poissons Ratio (y) = 1.04523 0.44479
# Poissons Ratio (z) = 0.20198 0.11288
#
# Static dielectric constant tensor:
#      x y z
#    x 1.769380 0.000000 0.000000 
#    y 0.000000 1.792730 0.000000 
#    z 0.000000 0.000000 1.759560 
# 
# From -- ./inp_files/24892.got.cif
#   From: 2010.05.17/outbox.cif.g08.bks.cpg/sg74_13_cif.got.tgz:24892.got - 2010.06.03 17:57:02.
