data_PCOD9540938
_publ_section_title
;
Structure prediction by ZEFSAII (Michael W. Deem and Ramdas Pophale) SiO2 
 PCOD9540938
Probable space group: I M M A
;
_chemical_formula_sum "Si O2"
_cell_formula_units_Z 48
_cell_length_a 21.000000
_cell_length_b 9.000000
_cell_length_c 27.000000
_cell_angle_alpha 90.000000
_cell_angle_beta 90.000000
_cell_angle_gamma 90.000000
_cell_volume 5103.000000
_symmetry_space_group_name_H-M "I M M A"
_symmetry_group_IT_number 74
_symmetry_cell_setting 'orthorhombic'
loop_
_space_group_symop_operation_xyz
x,y,z
-x,1/2-y,z
x,-y,-z
-x,1/2+y,-z
-x,-y,-z
x,1/2+y,-z
-x,y,z
x,1/2-y,z
1/2+x,1/2+y,1/2+z
1/2-x,-y,1/2+z
1/2+x,1/2-y,1/2-z
1/2-x,y,1/2-z
1/2-x,1/2-y,1/2-z
1/2+x,y,1/2-z
1/2-x,1/2+y,1/2+z
1/2+x,-y,1/2+z
loop_
_atom_site_type_symbol
_atom_site_label
_atom_site_fract_x
_atom_site_fract_y
_atom_site_fract_z
Si Si1 0.144379 0.582611 0.775940
Si Si2 0.302105 0.578850 0.083008
Si Si3 0.427699 0.428117 0.639888
Si Si4 0.568538 0.926981 0.946109
Si Si5 0.336373 0.929901 0.449584
Si Si6 0.786078 0.419581 0.321681
O O1 0.119401 0.750000 0.781335
O O2 0.099873 0.476425 0.807242
O O3 0.158754 0.554182 0.718519
O O4 0.215833 0.580639 0.798221
O O5 0.312531 0.750000 0.069637
O O6 0.366534 0.488534 0.075850
O O7 0.237722 0.524132 0.056409
O O8 0.286220 0.552447 0.139988
O O9 0.500000 0.482029 0.632351
O O10 0.428661 0.250000 0.637345
O O11 0.378775 0.479428 0.597138
O O12 0.500000 0.963635 0.921264
O O13 0.572332 0.750000 0.949991
O O14 0.566253 0.000000 0.000000
O O15 0.337352 0.750000 0.451538
O O16 0.361660 0.000000 0.500000
O O17 0.795086 0.250000 0.341956
#
# Coordination Sequence:
#
# PCOD9540938 Si02
#       6
#    16  16  16  16  16  16
#     4   9  18  34  56  82 108 138 179 223 269 327
#     4  11  21  34  55  84 113 145 184 227 275 328
#     4  10  21  38  57  78 111 150 187 232 284 334
#     4  10  21  37  56  78 107 144 183 223 271 328
#     4  10  22  37  53  79 110 143 186 233 280 326
#     4   9  18  33  55  82 111 140 174 221 274 324
#
# _framework density 9.4062319999999993
#
# number of rings (size 3 to 8) (size 9 to 14) (size 15 to 20)
#    0.000    2.167    1.667    2.500    0.000    5.667 
#    0.000    2.500    0.000    1.000    0.000    0.000 
#    0.000    0.000    0.000    0.000    0.000    0.000 
#
# Total GULP energy -267265.079042 kJ/mol
# GULP energy per Si atom -5568.022480 kJ/mol
# Density = 0.938482 g / cm^3
# Si number density = 9.406232 Si / 1000 Ang^3
#
#
#
# Elastic Constant Matrix: (Units=GPa)
#
#
# Indices 1 2 3 4 5 6 
#
# 1 90.7907 24.2032 10.9904 0.0000 0.0000 0.0000
# 2 24.2032 9.4540 5.8921 0.0000 0.0000 0.0000
# 3 10.9904 5.8921 34.6035 0.0000 0.0000 0.0000
# 4 0.0000 0.0000 0.0000 29.0645 0.0000 0.0000
# 5 0.0000 0.0000 0.0000 0.0000 -16.7831 0.0000
# 6 0.0000 0.0000 0.0000 0.0000 0.0000 26.2704
#
#
#
# Elastic Compliance Matrix: (Units=1/GPa)
#
#
# Indices 1 2 3 4 5 6 
#
# 1 0.035353 -0.093423 0.004679 0.000000 0.000000 0.000000
# 2 -0.093423 0.365213 -0.032515 0.000000 0.000000 0.000000
# 3 0.004679 -0.032515 0.032949 0.000000 0.000000 0.000000
# 4 0.000000 0.000000 0.000000 0.034406 0.000000 0.000000
# 5 0.000000 0.000000 0.000000 0.000000 -0.059584 0.000000
# 6 0.000000 0.000000 0.000000 0.000000 0.000000 0.038066
#
#
# Mechanical properties :
#
#
# Convention : Reuss Voigt Hill
#
# Bulk Modulus (GPa) = 5.23567 24.11328 14.67447
# Shear Modulus (GPa) = 6.64375 13.96118 10.30247
#
# Velocity S-wave (km/s) = 1.88129 2.72715 2.34271
# Velocity P-wave (km/s) = 2.74009 4.77095 3.89038
#
# Compressibility (1/GPa) = 0.19099767
#
# Stress axis : x y z
#
# Youngs Moduli (GPa) = 28.28624 2.73813 30.34983
#
# Poissons Ratio (x) = 0.25580 -0.14202
# Poissons Ratio (y) = 2.64259 0.98682
# Poissons Ratio (z) = -0.13236 0.08903
#
# Static dielectric constant tensor:
#      x y z
#    x 1.696450 0.000000 0.000000 
#    y 0.000000 1.644920 0.000000 
#    z 0.000000 0.000000 1.728250 
# 
# From -- ./inp_files/64260.got.cif
#   From: 2010.05.17/outbox.ucp.g08.bks.cvg/sg74_33_cif.got.tgz:64260.got - 2010.06.11 16:37:44.
