data_PCOD9540573
_publ_section_title
;
Structure prediction by ZEFSAII (Michael W. Deem and Ramdas Pophale) SiO2 
 PCOD9540573
Probable space group: I M M A
;
_chemical_formula_sum "Si O2"
_cell_formula_units_Z 48
_cell_length_a 21.546308
_cell_length_b 21.354772
_cell_length_c 4.844874
_cell_angle_alpha 90.000000
_cell_angle_beta 90.000000
_cell_angle_gamma 90.000000
_cell_volume 2229.206443
_symmetry_space_group_name_H-M "I M M A"
_symmetry_group_IT_number 74
_symmetry_cell_setting 'orthorhombic'
loop_
_space_group_symop_operation_xyz
x,y,z
-x,1/2-y,z
x,-y,-z
-x,1/2+y,-z
-x,-y,-z
x,1/2+y,-z
-x,y,z
x,1/2-y,z
1/2+x,1/2+y,1/2+z
1/2-x,-y,1/2+z
1/2+x,1/2-y,1/2-z
1/2-x,y,1/2-z
1/2-x,1/2-y,1/2-z
1/2+x,y,1/2-z
1/2-x,1/2+y,1/2+z
1/2+x,-y,1/2+z
loop_
_atom_site_type_symbol
_atom_site_label
_atom_site_fract_x
_atom_site_fract_y
_atom_site_fract_z
Si Si1 0.431655 0.250000 0.419894
Si Si2 0.317732 0.750000 0.145291
Si Si3 0.323517 0.561727 0.319857
Si Si4 0.865657 0.138276 0.325639
O O1 0.500000 0.250000 0.547143
O O2 0.375425 0.250000 0.640513
O O3 0.423238 0.314716 0.243613
O O4 0.250000 0.750000 0.250000
O O5 0.321419 0.688204 0.964187
O O6 0.339728 0.500000 0.500000
O O7 0.250000 0.557698 0.250000
O O8 0.338377 0.615480 0.538531
O O9 0.363210 0.580405 0.045593
#
# Coordination Sequence:
#
# PCOD9540573 Si02
#       4
#     8   8  16  16
#     4  11  26  46  71 101 138 192 238 292 356 425
#     4  11  24  39  69 104 140 174 225 297 369 414
#     4  12  24  40  66 101 144 185 224 278 351 420
#     4  11  24  42  64 101 137 177 227 286 342 422
#
# _framework density 21.532325
#
# number of rings (size 3 to 8) (size 9 to 14) (size 15 to 20)
#    0.000    0.667    3.333    5.000    4.667    4.000 
#    0.000    2.500    0.000    6.000    0.000    0.000 
#    0.000    0.000    0.000    0.000    0.000    0.000 
#
# Total GULP energy -133760.820916 kJ/mol
# GULP energy per Si atom -5573.367538 kJ/mol
# Density = 2.148332 g / cm^3
# Si number density = 21.532325 Si / 1000 Ang^3
#
#
#
# Elastic Constant Matrix: (Units=GPa)
#
#
# Indices 1 2 3 4 5 6 
#
# 1 106.1397 21.7351 37.4145 0.0000 0.0000 0.0000
# 2 21.7351 112.7125 36.4230 0.0000 0.0000 0.0000
# 3 37.4145 36.4230 140.8258 0.0000 0.0000 0.0000
# 4 0.0000 0.0000 0.0000 76.1834 0.0000 0.0000
# 5 0.0000 0.0000 0.0000 0.0000 20.4084 0.0000
# 6 0.0000 0.0000 0.0000 0.0000 0.0000 65.2969
#
#
#
# Elastic Compliance Matrix: (Units=1/GPa)
#
#
# Indices 1 2 3 4 5 6 
#
# 1 0.010549 -0.001232 -0.002484 0.000000 0.000000 0.000000
# 2 -0.001232 0.009825 -0.002214 0.000000 0.000000 0.000000
# 3 -0.002484 -0.002214 0.008334 0.000000 0.000000 0.000000
# 4 0.000000 0.000000 0.000000 0.013126 0.000000 0.000000
# 5 0.000000 0.000000 0.000000 0.000000 0.049000 0.000000
# 6 0.000000 0.000000 0.000000 0.000000 0.000000 0.015315
#
#
# Mechanical properties :
#
#
# Convention : Reuss Voigt Hill
#
# Bulk Modulus (GPa) = 59.35199 61.20258 60.27729
# Shear Modulus (GPa) = 40.44518 49.98477 45.21498
#
# Velocity S-wave (km/s) = 4.33869 4.82330 4.58740
# Velocity P-wave (km/s) = 7.26106 7.71390 7.49090
#
# Compressibility (1/GPa) = 0.01684863
#
# Stress axis : x y z
#
# Youngs Moduli (GPa) = 94.79181 101.78060 119.99626
#
# Poissons Ratio (x) = 0.12535 0.29810
# Poissons Ratio (y) = 0.11674 0.26567
# Poissons Ratio (z) = 0.23549 0.22534
#
# Static dielectric constant tensor:
#      x y z
#    x 1.840750 0.000000 0.000000 
#    y 0.000000 1.819850 0.000000 
#    z 0.000000 0.000000 1.868040 
# 
# From -- ./inp_files/2696.got.cif
#   From: 2010.05.17/outbox.cif.g08.bks.cpg/sg74_2_cif.got.tgz:2696.got - 2010.06.03 17:57:02.
