data_PCOD9540715
_publ_section_title
;
Structure prediction by ZEFSAII (Michael W. Deem and Ramdas Pophale) SiO2 
 PCOD9540715
Probable space group: I M M A
;
_chemical_formula_sum "Si O2"
_cell_formula_units_Z 112
_cell_length_a 33.358796
_cell_length_b 7.355685
_cell_length_c 21.558783
_cell_angle_alpha 90.000000
_cell_angle_beta 90.000000
_cell_angle_gamma 90.000000
_cell_volume 5290.025084
_symmetry_space_group_name_H-M "I M M A"
_symmetry_group_IT_number 74
_symmetry_cell_setting 'orthorhombic'
loop_
_space_group_symop_operation_xyz
x,y,z
-x,1/2-y,z
x,-y,-z
-x,1/2+y,-z
-x,-y,-z
x,1/2+y,-z
-x,y,z
x,1/2-y,z
1/2+x,1/2+y,1/2+z
1/2-x,-y,1/2+z
1/2+x,1/2-y,1/2-z
1/2-x,y,1/2-z
1/2-x,1/2-y,1/2-z
1/2+x,y,1/2-z
1/2-x,1/2+y,1/2+z
1/2+x,-y,1/2+z
loop_
_atom_site_type_symbol
_atom_site_label
_atom_site_fract_x
_atom_site_fract_y
_atom_site_fract_z
Si Si1 0.455972 0.471401 0.794253
Si Si2 0.432717 0.532721 0.069548
Si Si3 0.192720 0.470686 0.803856
Si Si4 0.658526 0.533897 0.068593
Si Si5 0.722096 0.028343 0.833670
Si Si6 0.601735 0.027468 0.683830
Si Si7 0.954355 0.032963 0.928839
O O1 0.500000 0.524027 0.770382
O O2 0.454757 0.250000 0.794766
O O3 0.451977 0.531855 0.865987
O O4 0.420919 0.528632 0.747313
O O5 0.432434 0.750000 0.074380
O O6 0.386876 0.462554 0.070861
O O7 0.449362 0.500000 0.000000
O O8 0.191486 0.250000 0.806586
O O9 0.231818 0.529742 0.842643
O O10 0.205229 0.520101 0.733879
O O11 0.147954 0.533082 0.818916
O O12 0.655043 0.750000 0.079257
O O13 0.690069 0.461317 0.117204
O O14 0.674028 0.500000 0.000000
O O15 0.722633 0.250000 0.835552
O O16 0.602134 0.250000 0.684266
O O17 0.575770 0.967714 0.624385
O O18 0.956407 0.250000 0.921043
O O19 0.000000 0.962596 0.921945
O O20 0.941506 0.000000 0.000000
#
# Coordination Sequence:
#
# PCOD9540715 Si02
#       7
#    16  16  16  16  16  16  16
#     4   9  16  25  39  60  83 107 137 174 212 244
#     4   9  17  28  42  60  83 112 143 172 204 243
#     4   8  13  21  36  58  81 104 129 162 204 241
#     4   9  16  26  40  58  80 106 135 165 196 232
#     4   8  13  22  36  56  81 104 129 163 201 239
#     4   9  15  24  40  62  85 106 134 173 210 243
#     4   9  17  29  45  64  85 110 138 167 202 246
#
# _framework density 21.171921999999999
#
# number of rings (size 3 to 8) (size 9 to 14) (size 15 to 20)
#    0.000    3.286    0.000    2.143    0.000    5.429 
#    0.000    0.714    0.000    0.857    0.000    3.000 
#    0.000    0.000    0.000    0.000    0.000    0.000 
#
# Total GULP energy -312224.555921 kJ/mol
# GULP energy per Si atom -5575.438499 kJ/mol
# Density = 2.112373 g / cm^3
# Si number density = 21.171922 Si / 1000 Ang^3
#
#
#
# Elastic Constant Matrix: (Units=GPa)
#
#
# Indices 1 2 3 4 5 6 
#
# 1 136.8173 4.2729 62.2464 0.0000 0.0000 0.0000
# 2 4.2729 77.8567 -2.3982 0.0000 0.0000 0.0000
# 3 62.2464 -2.3982 93.9405 0.0000 0.0000 0.0000
# 4 0.0000 0.0000 0.0000 12.8324 0.0000 0.0000
# 5 0.0000 0.0000 0.0000 0.0000 34.3959 0.0000
# 6 0.0000 0.0000 0.0000 0.0000 0.0000 -92.0834
#
#
#
# Elastic Compliance Matrix: (Units=1/GPa)
#
#
# Indices 1 2 3 4 5 6 
#
# 1 0.010512 -0.000792 -0.006986 0.000000 0.000000 0.000000
# 2 -0.000792 0.012914 0.000855 0.000000 0.000000 0.000000
# 3 -0.006986 0.000855 0.015296 0.000000 0.000000 0.000000
# 4 0.000000 0.000000 0.000000 0.077928 0.000000 0.000000
# 5 0.000000 0.000000 0.000000 0.000000 0.029073 0.000000
# 6 0.000000 0.000000 0.000000 0.000000 0.000000 -0.010860
#
#
# Mechanical properties :
#
#
# Convention : Reuss Voigt Hill
#
# Bulk Modulus (GPa) = 40.20077 48.53964 44.37020
# Shear Modulus (GPa) = 31.84699 7.32854 19.58776
#
# Velocity S-wave (km/s) = 3.88262 1.86251 3.04497
# Velocity P-wave (km/s) = 6.25529 5.25371 5.77625
#
# Compressibility (1/GPa) = 0.02487515
#
# Stress axis : x y z
#
# Youngs Moduli (GPa) = 95.13017 77.43589 65.37828
#
# Poissons Ratio (x) = 0.06134 0.45670
# Poissons Ratio (y) = 0.07535 -0.05587
# Poissons Ratio (z) = 0.66454 -0.06617
#
# Static dielectric constant tensor:
#      x y z
#    x 1.762560 0.000000 0.000000 
#    y 0.000000 1.829370 0.000000 
#    z 0.000000 0.000000 1.736540 
# 
# From -- ./inp_files/55402.got.cif
#   From: 2010.05.17/outbox.cif.g08.bks.cpg/sg74_28_cif.got.tgz:55402.got - 2010.06.03 17:57:02.
