data_PCOD9540790
_publ_section_title
;
Structure prediction by ZEFSAII (Michael W. Deem and Ramdas Pophale) SiO2 
 PCOD9540790
Probable space group: I M M A
;
_chemical_formula_sum "Si O2"
_cell_formula_units_Z 64
_cell_length_a 18.000000
_cell_length_b 24.000000
_cell_length_c 21.000000
_cell_angle_alpha 90.000000
_cell_angle_beta 90.000000
_cell_angle_gamma 90.000000
_cell_volume 9072.000000
_symmetry_space_group_name_H-M "I M M A"
_symmetry_group_IT_number 74
_symmetry_cell_setting 'orthorhombic'
loop_
_space_group_symop_operation_xyz
x,y,z
-x,1/2-y,z
x,-y,-z
-x,1/2+y,-z
-x,-y,-z
x,1/2+y,-z
-x,y,z
x,1/2-y,z
1/2+x,1/2+y,1/2+z
1/2-x,-y,1/2+z
1/2+x,1/2-y,1/2-z
1/2-x,y,1/2-z
1/2-x,1/2-y,1/2-z
1/2+x,y,1/2-z
1/2-x,1/2+y,1/2+z
1/2+x,-y,1/2+z
loop_
_atom_site_type_symbol
_atom_site_label
_atom_site_fract_x
_atom_site_fract_y
_atom_site_fract_z
Si Si1 0.226221 0.473735 0.598244
Si Si2 0.777578 0.415877 0.025310
Si Si3 0.819525 0.984485 0.791257
Si Si4 0.913059 0.864085 0.677226
Si Si5 0.914079 0.911493 0.892059
Si Si6 0.412991 0.998475 0.827682
Si Si7 0.135627 0.184431 0.187144
Si Si8 0.278902 0.685348 0.894614
O O1 0.254451 0.429517 0.546581
O O2 0.239865 0.534525 0.566472
O O3 0.277420 0.473754 0.661091
O O4 0.140576 0.473078 0.620251
O O5 0.864934 0.419206 0.044206
O O6 0.748748 0.357146 0.051558
O O7 0.750000 0.958620 0.750000
O O8 0.867765 0.944067 0.836697
O O9 0.876206 0.010944 0.740933
O O10 0.905705 0.930837 0.668437
O O11 0.885115 0.844922 0.746779
O O12 0.860109 0.832853 0.627922
O O13 0.000000 0.850206 0.671306
O O14 0.909201 0.847720 0.868106
O O15 0.000000 0.928849 0.896321
O O16 0.500000 0.012278 0.832151
O O17 0.119189 0.250000 0.191537
O O18 0.221460 0.178412 0.164856
O O19 0.276158 0.750000 0.913138
#
# Coordination Sequence:
#
# PCOD9540790 Si02
#       8
#    16  16  16  16  16  16  16  16
#     4   9  17  31  47  61  81 117 145 178 213 260
#     4   9  18  32  46  60  81 111 153 181 213 257
#     4   9  17  27  44  62  83 110 138 165 214 268
#     4  11  20  28  40  61  87 115 146 187 223 248
#     4  10  18  28  42  59  83 112 144 183 222 251
#     4  10  18  28  44  67  90 112 142 180 220 259
#     4  10  20  29  40  58  82 117 157 185 211 247
#     4  10  20  32  45  59  81 115 152 189 217 250
#
# _framework density 7.0546740000000003
#
# number of rings (size 3 to 8) (size 9 to 14) (size 15 to 20)
#    0.000    2.250    2.500    1.500    1.750    2.750 
#    0.000    7.500    0.000    0.000    0.000    0.000 
#    0.000    4.500    0.000    0.250    0.000    0.500 
#
# Total GULP energy -356444.529784 kJ/mol
# GULP energy per Si atom -5569.445778 kJ/mol
# Density = 0.703862 g / cm^3
# Si number density = 7.054674 Si / 1000 Ang^3
#
#
#
# Elastic Constant Matrix: (Units=GPa)
#
#
# Indices 1 2 3 4 5 6 
#
# 1 133.0045 34.9519 54.8524 0.0000 0.0000 0.0000
# 2 34.9519 44.3654 34.3048 0.0000 0.0000 0.0000
# 3 54.8524 34.3048 68.0932 0.0000 0.0000 0.0000
# 4 0.0000 0.0000 0.0000 13.9067 0.0000 0.0000
# 5 0.0000 0.0000 0.0000 0.0000 13.7069 0.0000
# 6 0.0000 0.0000 0.0000 0.0000 0.0000 11.5039
#
#
#
# Elastic Compliance Matrix: (Units=1/GPa)
#
#
# Indices 1 2 3 4 5 6 
#
# 1 0.011515 -0.003111 -0.007709 0.000000 0.000000 0.000000
# 2 -0.003111 0.037764 -0.016519 0.000000 0.000000 0.000000
# 3 -0.007709 -0.016519 0.029218 0.000000 0.000000 0.000000
# 4 0.000000 0.000000 0.000000 0.071908 0.000000 0.000000
# 5 0.000000 0.000000 0.000000 0.000000 0.072956 0.000000
# 6 0.000000 0.000000 0.000000 0.000000 0.000000 0.086927
#
#
# Mechanical properties :
#
#
# Convention : Reuss Voigt Hill
#
# Bulk Modulus (GPa) = 41.98301 54.85348 48.41824
# Shear Modulus (GPa) = 13.40821 15.91376 14.66099
#
# Velocity S-wave (km/s) = 3.08605 3.36205 3.22700
# Velocity P-wave (km/s) = 6.52061 7.35071 6.94807
#
# Compressibility (1/GPa) = 0.02381916
#
# Stress axis : x y z
#
# Youngs Moduli (GPa) = 86.84095 26.48000 34.22594
#
# Poissons Ratio (x) = 0.08239 0.26384
# Poissons Ratio (y) = 0.27020 0.56538
# Poissons Ratio (z) = 0.66943 0.43742
#
# Static dielectric constant tensor:
#      x y z
#    x 1.491460 0.000000 0.000000 
#    y 0.000000 1.458920 0.000000 
#    z 0.000000 0.000000 1.475530 
# 
# From -- ./inp_files/53452.got.cif
#   From: 2010.05.17/outbox.ucp.g08.bks.cvg/sg74_27_cif.got.tgz:53452.got - 2010.06.11 16:37:44.
