data_PCOD9540152
_publ_section_title
;
Structure prediction by ZEFSAII (Michael W. Deem and Ramdas Pophale) SiO2 
 PCOD9540152
Probable space group: I M M A
;
_chemical_formula_sum "Si O2"
_cell_formula_units_Z 44
_cell_length_a 10.341824
_cell_length_b 22.758468
_cell_length_c 7.055572
_cell_angle_alpha 90.000000
_cell_angle_beta 90.000000
_cell_angle_gamma 90.000000
_cell_volume 1660.628146
_symmetry_space_group_name_H-M "I M M A"
_symmetry_group_IT_number 74
_symmetry_cell_setting 'orthorhombic'
loop_
_space_group_symop_operation_xyz
x,y,z
-x,1/2-y,z
x,-y,-z
-x,1/2+y,-z
-x,-y,-z
x,1/2+y,-z
-x,y,z
x,1/2-y,z
1/2+x,1/2+y,1/2+z
1/2-x,-y,1/2+z
1/2+x,1/2-y,1/2-z
1/2-x,y,1/2-z
1/2-x,1/2-y,1/2-z
1/2+x,y,1/2-z
1/2-x,1/2+y,1/2+z
1/2+x,-y,1/2+z
loop_
_atom_site_type_symbol
_atom_site_label
_atom_site_fract_x
_atom_site_fract_y
_atom_site_fract_z
Si Si1 0.715077 0.000000 0.500000
Si Si2 0.500000 0.534339 0.800551
Si Si3 0.000000 0.326990 0.312928
Si Si4 0.500000 0.183113 0.738575
Si Si5 0.750000 0.395204 0.750000
Si Si6 0.250000 0.250000 0.250000
O O1 0.622169 0.985536 0.676825
O O2 0.775058 0.937537 0.431633
O O3 0.500000 0.603652 0.801779
O O4 0.500000 0.688742 0.035016
O O5 0.866365 0.300197 0.235181
O O6 0.000000 0.250000 0.838264
O O7 0.371795 0.145524 0.697343
O O8 0.500000 0.000000 0.000000
#
# Coordination Sequence:
#
# PCOD9540152 Si02
#       6
#     8   8   8   8   8   4
#     4  11  28  47  78 124 162 216 278 342 430 490
#     4  11  25  49  79 117 168 219 268 342 419 506
#     4  11  25  46  79 112 160 206 276 337 402 502
#     4  12  27  52  77 116 167 219 278 336 415 502
#     4  12  29  51  82 120 164 222 274 350 424 494
#     4  10  24  48  72 114 146 212 264 332 410 464
#
# _framework density 26.495996000000002
#
# number of rings (size 3 to 8) (size 9 to 14) (size 15 to 20)
#    0.000    0.727    1.818    4.909   12.727    0.727 
#    0.000    0.000    0.000    0.000    0.000    0.000 
#    0.000    0.000    0.000    0.000    0.000    0.000 
#
# Total GULP energy -122746.557621 kJ/mol
# GULP energy per Si atom -5579.388983 kJ/mol
# Density = 2.643569 g / cm^3
# Si number density = 26.495996 Si / 1000 Ang^3
#
#
#
# Elastic Constant Matrix: (Units=GPa)
#
#
# Indices 1 2 3 4 5 6 
#
# 1 272.5005 138.1901 23.0036 -0.0005 -0.0001 -0.0007
# 2 138.1901 289.0573 64.1430 0.0008 -0.0002 -0.0004
# 3 23.0036 64.1430 124.0042 0.0058 -0.0019 -0.0036
# 4 -0.0005 0.0008 0.0058 14.6797 -0.0012 -0.0033
# 5 -0.0001 -0.0002 -0.0019 -0.0012 16.7090 0.0007
# 6 -0.0007 -0.0004 -0.0036 -0.0033 0.0007 24.3456
#
#
#
# Elastic Compliance Matrix: (Units=1/GPa)
#
#
# Indices 1 2 3 4 5 6 
#
# 1 0.004857 -0.002397 0.000339 0.000000 0.000000 0.000000
# 2 -0.002397 0.005091 -0.002189 0.000001 0.000000 0.000000
# 3 0.000339 -0.002189 0.009134 -0.000003 0.000001 0.000001
# 4 0.000000 0.000001 -0.000003 0.068121 0.000005 0.000009
# 5 0.000000 0.000000 0.000001 0.000005 0.059848 -0.000002
# 6 0.000000 0.000000 0.000001 0.000009 -0.000002 0.041075
#
#
# Mechanical properties :
#
#
# Convention : Reuss Voigt Hill
#
# Bulk Modulus (GPa) = 94.45001 126.24839 110.34920
# Shear Modulus (GPa) = 24.98135 41.82852 33.40494
#
# Velocity S-wave (km/s) = 3.07389 3.97756 3.55456
# Velocity P-wave (km/s) = 6.95145 8.29736 7.65405
#
# Compressibility (1/GPa) = 0.01058761
#
# Stress axis : x y z
#
# Youngs Moduli (GPa) = 205.90099 196.41720 109.48630
#
# Poissons Ratio (x) = 0.47083 -0.03711
# Poissons Ratio (y) = 0.49356 0.23965
# Poissons Ratio (z) = -0.06979 0.42992
#
# Static dielectric constant tensor:
#      x y z
#    x 2.201240 0.000000 0.000000 
#    y 0.000000 2.035210 0.000000 
#    z 0.000000 0.000000 2.141680 
# 
# From -- ./inp_files/7006.got.cif
#   From: 2010.05.17/outbox.cif.g08.bks.cpg/sg74_4_cif.got.tgz:7006.got - 2010.06.03 17:57:02.
