data_PCOD9540928
_publ_section_title
;
Structure prediction by ZEFSAII (Michael W. Deem and Ramdas Pophale) SiO2 
 PCOD9540928
Probable space group: I M M A
;
_chemical_formula_sum "Si O2"
_cell_formula_units_Z 44
_cell_length_a 9.000000
_cell_length_b 18.000000
_cell_length_c 30.000000
_cell_angle_alpha 90.000000
_cell_angle_beta 90.000000
_cell_angle_gamma 90.000000
_cell_volume 4860.000000
_symmetry_space_group_name_H-M "I M M A"
_symmetry_group_IT_number 74
_symmetry_cell_setting 'orthorhombic'
loop_
_space_group_symop_operation_xyz
x,y,z
-x,1/2-y,z
x,-y,-z
-x,1/2+y,-z
-x,-y,-z
x,1/2+y,-z
-x,y,z
x,1/2-y,z
1/2+x,1/2+y,1/2+z
1/2-x,-y,1/2+z
1/2+x,1/2-y,1/2-z
1/2-x,y,1/2-z
1/2-x,1/2-y,1/2-z
1/2+x,y,1/2-z
1/2-x,1/2+y,1/2+z
1/2+x,-y,1/2+z
loop_
_atom_site_type_symbol
_atom_site_label
_atom_site_fract_x
_atom_site_fract_y
_atom_site_fract_z
Si Si1 0.318854 0.250000 0.200059
Si Si2 0.678599 0.559005 0.131574
Si Si3 0.675952 0.833671 0.298319
Si Si4 0.680404 0.386360 0.134565
Si Si5 0.170073 0.661020 0.536371
Si Si6 0.822174 0.162271 0.943581
O O1 0.500000 0.250000 0.203504
O O2 0.250000 0.250000 0.250000
O O3 0.274307 0.176022 0.171176
O O4 0.500000 0.561176 0.128307
O O5 0.738816 0.607136 0.172382
O O6 0.723093 0.472863 0.139720
O O7 0.747155 0.602453 0.089167
O O8 0.500000 0.849196 0.295795
O O9 0.692078 0.750000 0.317390
O O10 0.750000 0.833275 0.250000
O O11 0.500000 0.383160 0.134821
O O12 0.727360 0.364991 0.084373
O O13 0.162392 0.750000 0.538808
O O14 0.269800 0.643299 0.493716
O O15 0.000000 0.633127 0.529919
O O16 0.779538 0.250000 0.935101
O O17 0.000000 0.158314 0.939121
#
# Coordination Sequence:
#
# PCOD9540928 Si02
#       6
#     8  16  16  16  16  16
#     4  10  20  40  64  86 112 144 184 232 285 340
#     4  11  22  35  54  83 115 147 185 229 275 330
#     4  10  21  38  59  81 107 143 184 225 272 327
#     4   9  19  36  59  83 109 143 183 230 281 331
#     4   9  16  32  59  82 102 141 192 234 273 328
#     4  10  21  36  53  78 114 153 187 228 279 329
#
# _framework density 9.0534979999999994
#
# number of rings (size 3 to 8) (size 9 to 14) (size 15 to 20)
#    0.000    2.182    0.909    2.182    0.000    5.818 
#    0.000   10.000    0.000    0.000    0.000    0.000 
#    0.000    0.000    0.000    0.000    0.000    0.000 
#
# Total GULP energy -245330.516837 kJ/mol
# GULP energy per Si atom -5575.693564 kJ/mol
# Density = 0.903289 g / cm^3
# Si number density = 9.053498 Si / 1000 Ang^3
#
#
#
# Elastic Constant Matrix: (Units=GPa)
#
#
# Indices 1 2 3 4 5 6 
#
# 1 58.2332 48.3652 34.9632 0.0000 0.0000 0.0000
# 2 48.3652 143.0288 92.5896 0.0000 0.0000 0.0000
# 3 34.9632 92.5896 137.0512 0.0000 0.0000 0.0000
# 4 0.0000 0.0000 0.0000 9.4470 0.0000 0.0000
# 5 0.0000 0.0000 0.0000 0.0000 33.6876 0.0000
# 6 0.0000 0.0000 0.0000 0.0000 0.0000 21.1134
#
#
#
# Elastic Compliance Matrix: (Units=1/GPa)
#
#
# Indices 1 2 3 4 5 6 
#
# 1 0.023978 -0.007373 -0.001136 0.000000 0.000000 0.000000
# 2 -0.007373 0.014693 -0.008045 0.000000 0.000000 0.000000
# 3 -0.001136 -0.008045 0.013022 0.000000 0.000000 0.000000
# 4 0.000000 0.000000 0.000000 0.105854 0.000000 0.000000
# 5 0.000000 0.000000 0.000000 0.000000 0.029685 0.000000
# 6 0.000000 0.000000 0.000000 0.000000 0.000000 0.047363
#
#
# Mechanical properties :
#
#
# Convention : Reuss Voigt Hill
#
# Bulk Modulus (GPa) = 53.80978 76.68322 65.24650
# Shear Modulus (GPa) = 18.25503 23.67593 20.96548
#
# Velocity S-wave (km/s) = 3.17862 3.61994 3.40644
# Velocity P-wave (km/s) = 6.57676 7.74041 7.18219
#
# Compressibility (1/GPa) = 0.01858398
#
# Stress axis : x y z
#
# Youngs Moduli (GPa) = 41.70536 68.06043 76.79461
#
# Poissons Ratio (x) = 0.50178 0.08725
# Poissons Ratio (y) = 0.30748 0.61784
# Poissons Ratio (z) = 0.04738 0.54757
#
# Static dielectric constant tensor:
#      x y z
#    x 1.609340 0.000000 0.000000 
#    y 0.000000 1.621890 0.000000 
#    z 0.000000 0.000000 1.692980 
# 
# From -- ./inp_files/70299.got.cif
#   From: 2010.05.17/outbox.ucp.g08.bks.cvg/sg74_36_cif.got.tgz:70299.got - 2010.06.11 16:37:44.
