data_PCOD9540442
_publ_section_title
;
Structure prediction by ZEFSAII (Michael W. Deem and Ramdas Pophale) SiO2 
 PCOD9540442
Probable space group: I M M A
;
_chemical_formula_sum "Si O2"
_cell_formula_units_Z 88
_cell_length_a 23.067772
_cell_length_b 8.682825
_cell_length_c 24.880255
_cell_angle_alpha 90.000000
_cell_angle_beta 90.000000
_cell_angle_gamma 90.000000
_cell_volume 4983.351549
_symmetry_space_group_name_H-M "I M M A"
_symmetry_group_IT_number 74
_symmetry_cell_setting 'orthorhombic'
loop_
_space_group_symop_operation_xyz
x,y,z
-x,1/2-y,z
x,-y,-z
-x,1/2+y,-z
-x,-y,-z
x,1/2+y,-z
-x,y,z
x,1/2-y,z
1/2+x,1/2+y,1/2+z
1/2-x,-y,1/2+z
1/2+x,1/2-y,1/2-z
1/2-x,y,1/2-z
1/2-x,1/2-y,1/2-z
1/2+x,y,1/2-z
1/2-x,1/2+y,1/2+z
1/2+x,-y,1/2+z
loop_
_atom_site_type_symbol
_atom_site_label
_atom_site_fract_x
_atom_site_fract_y
_atom_site_fract_z
Si Si1 0.069024 0.433383 0.231693
Si Si2 0.500000 0.934680 0.560363
Si Si3 0.932061 0.564651 0.644969
Si Si4 0.217372 0.565754 0.940761
Si Si5 0.389074 0.432744 0.623639
Si Si6 0.844301 0.933436 0.441391
O O1 0.078724 0.250000 0.224704
O O2 0.083395 0.474242 0.293228
O O3 0.102393 0.524814 0.185985
O O4 0.000000 0.459448 0.224733
O O5 0.500000 0.750000 0.559436
O O6 0.500000 0.000000 0.500000
O O7 0.556742 0.994138 0.591583
O O8 0.926446 0.750000 0.639461
O O9 0.891309 0.482161 0.602474
O O10 0.000000 0.526935 0.636975
O O11 0.217195 0.750000 0.942496
O O12 0.169581 0.503976 0.899863
O O13 0.281648 0.505220 0.927437
O O14 0.203179 0.500000 0.000000
O O15 0.389445 0.250000 0.615880
O O16 0.838981 0.750000 0.445022
O O17 0.860361 0.000000 0.500000
#
# Coordination Sequence:
#
# PCOD9540442 Si02
#       6
#    16   8  16  16  16  16
#     4   9  18  35  58  82 112 151 191 231 280 338
#     4  12  24  38  54  78 112 148 191 240 289 334
#     4   9  19  37  61  88 117 150 187 229 279 338
#     4  11  22  39  60  81 110 149 190 234 283 342
#     4  12  23  36  55  83 114 148 190 236 284 335
#     4  11  22  38  60  86 116 149 186 231 281 339
#
# _framework density 17.658798999999998
#
# number of rings (size 3 to 8) (size 9 to 14) (size 15 to 20)
#    0.000    1.455    0.909    8.455    0.000    1.455 
#    0.000    2.727    0.000    5.455    0.000    0.000 
#    0.000    0.000    0.000    0.000    0.000    0.000 
#
# Total GULP energy -245927.439531 kJ/mol
# GULP energy per Si atom -5589.259989 kJ/mol
# Density = 1.761861 g / cm^3
# Si number density = 17.658799 Si / 1000 Ang^3
#
#
#
# Elastic Constant Matrix: (Units=GPa)
#
#
# Indices 1 2 3 4 5 6 
#
# 1 88.5544 70.1934 91.1657 0.0000 0.0000 0.0000
# 2 70.1934 162.7177 82.7629 0.0000 0.0000 0.0000
# 3 91.1657 82.7629 129.0866 0.0000 0.0000 0.0000
# 4 0.0000 0.0000 0.0000 33.9200 0.0000 0.0000
# 5 0.0000 0.0000 0.0000 0.0000 9.0362 0.0000
# 6 0.0000 0.0000 0.0000 0.0000 0.0000 29.1196
#
#
#
# Elastic Compliance Matrix: (Units=1/GPa)
#
#
# Indices 1 2 3 4 5 6 
#
# 1 0.043645 -0.004674 -0.027827 0.000000 0.000000 0.000000
# 2 -0.004674 0.009620 -0.002867 0.000000 0.000000 0.000000
# 3 -0.027827 -0.002867 0.029237 0.000000 0.000000 0.000000
# 4 0.000000 0.000000 0.000000 0.029481 0.000000 0.000000
# 5 0.000000 0.000000 0.000000 0.000000 0.110666 0.000000
# 6 0.000000 0.000000 0.000000 0.000000 0.000000 0.034341
#
#
# Mechanical properties :
#
#
# Convention : Reuss Voigt Hill
#
# Bulk Modulus (GPa) = 84.98671 96.51143 90.74907
# Shear Modulus (GPa) = 15.07623 23.49762 19.28693
#
# Velocity S-wave (km/s) = 2.92507 3.65176 3.30843
# Velocity P-wave (km/s) = 7.72267 8.51778 8.12995
#
# Compressibility (1/GPa) = 0.01176655
#
# Stress axis : x y z
#
# Youngs Moduli (GPa) = 22.91219 103.94930 34.20303
#
# Poissons Ratio (x) = 0.48586 0.95176
# Poissons Ratio (y) = 0.10709 0.09806
# Poissons Ratio (z) = 0.63758 0.29801
#
# Static dielectric constant tensor:
#      x y z
#    x 1.575140 0.000000 0.000000 
#    y 0.000000 1.591170 0.000000 
#    z 0.000000 0.000000 1.589140 
# 
# From -- ./inp_files/61438.got.cif
#   From: 2010.05.17/outbox.cif.g08.bks.cpg/sg74_31_cif.got.tgz:61438.got - 2010.06.03 17:57:02.
