data_PCOD9540091
_publ_section_title
;
Structure prediction by ZEFSAII (Michael W. Deem and Ramdas Pophale) SiO2 
 PCOD9540091
Probable space group: I M M A
;
_chemical_formula_sum "Si O2"
_cell_formula_units_Z 60
_cell_length_a 9.044477
_cell_length_b 19.065585
_cell_length_c 16.717874
_cell_angle_alpha 90.000000
_cell_angle_beta 90.000000
_cell_angle_gamma 90.000000
_cell_volume 2882.800853
_symmetry_space_group_name_H-M "I M M A"
_symmetry_group_IT_number 74
_symmetry_cell_setting 'orthorhombic'
loop_
_space_group_symop_operation_xyz
x,y,z
-x,1/2-y,z
x,-y,-z
-x,1/2+y,-z
-x,-y,-z
x,1/2+y,-z
-x,y,z
x,1/2-y,z
1/2+x,1/2+y,1/2+z
1/2-x,-y,1/2+z
1/2+x,1/2-y,1/2-z
1/2-x,y,1/2-z
1/2-x,1/2-y,1/2-z
1/2+x,y,1/2-z
1/2-x,1/2+y,1/2+z
1/2+x,-y,1/2+z
loop_
_atom_site_type_symbol
_atom_site_label
_atom_site_fract_x
_atom_site_fract_y
_atom_site_fract_z
Si Si1 0.250000 0.142351 0.750000
Si Si2 0.000000 0.250000 0.698653
Si Si3 0.168065 0.055405 0.900144
Si Si4 0.322802 0.169741 0.464371
Si Si5 0.324328 0.921693 0.837242
O O1 0.129454 0.189653 0.705823
O O2 0.171820 0.094913 0.815835
O O3 0.000000 0.031136 0.915899
O O4 0.273452 0.988981 0.889567
O O5 0.210242 0.113356 0.966136
O O6 0.500000 0.166998 0.451109
O O7 0.285579 0.250000 0.487510
O O8 0.237765 0.145142 0.385419
O O9 0.500000 0.919857 0.829380
O O10 0.250000 0.926653 0.750000
#
# Coordination Sequence:
#
# PCOD9540091 Si02
#       5
#     8   4  16  16  16
#     4  11  22  38  58  94 131 180 218 264 319 390
#     4  10  24  34  56  90 140 174 220 262 320 382
#     4  11  23  41  67  98 134 174 219 268 325 391
#     4  10  24  45  70  98 132 175 218 271 332 395
#     4  12  26  45  69  98 131 173 224 276 331 391
#
# _framework density 20.813091
#
# number of rings (size 3 to 8) (size 9 to 14) (size 15 to 20)
#    0.000    1.067    2.667    3.200    5.600    5.333 
#    0.000    0.000    0.000    0.000    0.000    0.000 
#    0.000    0.000    0.000    0.000    0.000    0.000 
#
# Total GULP energy -167207.119469 kJ/mol
# GULP energy per Si atom -5573.570649 kJ/mol
# Density = 2.076572 g / cm^3
# Si number density = 20.813091 Si / 1000 Ang^3
#
#
#
# Elastic Constant Matrix: (Units=GPa)
#
#
# Indices 1 2 3 4 5 6 
#
# 1 90.2301 26.5938 48.9164 0.0000 0.0000 0.0000
# 2 26.5938 70.7620 52.6472 0.0000 0.0000 0.0000
# 3 48.9164 52.6472 113.3678 0.0000 0.0000 0.0000
# 4 0.0000 0.0000 0.0000 -23.3914 0.0000 0.0000
# 5 0.0000 0.0000 0.0000 0.0000 24.8729 0.0000
# 6 0.0000 0.0000 0.0000 0.0000 0.0000 30.2726
#
#
#
# Elastic Compliance Matrix: (Units=1/GPa)
#
#
# Indices 1 2 3 4 5 6 
#
# 1 0.014535 -0.001217 -0.005707 0.000000 0.000000 0.000000
# 2 -0.001217 0.021694 -0.009549 0.000000 0.000000 0.000000
# 3 -0.005707 -0.009549 0.015718 0.000000 0.000000 0.000000
# 4 0.000000 0.000000 0.000000 -0.042751 0.000000 0.000000
# 5 0.000000 0.000000 0.000000 0.000000 0.040204 0.000000
# 6 0.000000 0.000000 0.000000 0.000000 0.000000 0.033033
#
#
# Mechanical properties :
#
#
# Convention : Reuss Voigt Hill
#
# Bulk Modulus (GPa) = 52.62841 58.96384 55.79612
# Shear Modulus (GPa) = 41.08006 16.09764 28.58885
#
# Velocity S-wave (km/s) = 4.44752 2.78409 3.71023
# Velocity P-wave (km/s) = 7.19132 6.22307 6.72464
#
# Compressibility (1/GPa) = 0.01900114
#
# Stress axis : x y z
#
# Youngs Moduli (GPa) = 68.79883 46.09560 63.62199
#
# Poissons Ratio (x) = 0.05609 0.36306
# Poissons Ratio (y) = 0.08372 0.60756
# Poissons Ratio (z) = 0.39260 0.44019
#
# Static dielectric constant tensor:
#      x y z
#    x 1.715590 0.000000 0.000000 
#    y 0.000000 1.751700 0.000000 
#    z 0.000000 0.000000 1.754400 
# 
# From -- ./inp_files/38876.got.cif
#   From: 2010.05.17/outbox.cif.g08.bks.cpg/sg74_20_cif.got.tgz:38876.got - 2010.06.03 17:57:02.
