data_PCOD9540191
_publ_section_title
;
Structure prediction by ZEFSAII (Michael W. Deem and Ramdas Pophale) SiO2 
 PCOD9540191
Probable space group: I M M A
;
_chemical_formula_sum "Si O2"
_cell_formula_units_Z 60
_cell_length_a 10.137733
_cell_length_b 16.461951
_cell_length_c 16.112251
_cell_angle_alpha 90.000000
_cell_angle_beta 90.000000
_cell_angle_gamma 90.000000
_cell_volume 2688.923040
_symmetry_space_group_name_H-M "I M M A"
_symmetry_group_IT_number 74
_symmetry_cell_setting 'orthorhombic'
loop_
_space_group_symop_operation_xyz
x,y,z
-x,1/2-y,z
x,-y,-z
-x,1/2+y,-z
-x,-y,-z
x,1/2+y,-z
-x,y,z
x,1/2-y,z
1/2+x,1/2+y,1/2+z
1/2-x,-y,1/2+z
1/2+x,1/2-y,1/2-z
1/2-x,y,1/2-z
1/2-x,1/2-y,1/2-z
1/2+x,y,1/2-z
1/2-x,1/2+y,1/2+z
1/2+x,-y,1/2+z
loop_
_atom_site_type_symbol
_atom_site_label
_atom_site_fract_x
_atom_site_fract_y
_atom_site_fract_z
Si Si1 0.000000 0.632011 0.186300
Si Si2 0.282429 0.750000 0.347183
Si Si3 0.500000 0.409808 0.862968
Si Si4 0.000000 0.750000 0.428751
Si Si5 0.784638 0.962658 0.591777
Si Si6 0.500000 0.057880 0.331562
Si Si7 0.000000 0.846921 0.657676
O O1 0.125501 0.671134 0.142019
O O2 0.000000 0.652089 0.284784
O O3 0.000000 0.536761 0.192007
O O4 0.250000 0.750000 0.250000
O O5 0.154015 0.750000 0.401097
O O6 0.500000 0.350258 0.942295
O O7 0.369834 0.466530 0.860549
O O8 0.637812 0.937958 0.619291
O O9 0.873322 0.884274 0.611524
O O10 0.781424 0.000000 0.500000
O O11 0.500000 0.116905 0.251881
O O12 0.000000 0.750000 0.656380
#
# Coordination Sequence:
#
# PCOD9540191 Si02
#       7
#     8   8   8   4  16   8   8
#     4  11  21  33  57  89 125 165 217 272 327 385
#     4  11  19  31  47  85 135 163 195 258 319 375
#     4  11  20  37  61  86 126 168 227 268 327 398
#     4  12  20  30  54  86 122 166 210 258 312 382
#     4  11  25  46  66  98 139 180 224 281 363 436
#     4  12  24  40  74 101 133 173 229 297 353 410
#     4  11  25  46  78 109 134 180 246 306 348 405
#
# _framework density 22.313766999999999
#
# number of rings (size 3 to 8) (size 9 to 14) (size 15 to 20)
#    0.000    0.800    5.333    4.400    0.000    2.133 
#    4.800    0.000    0.000    0.000    0.000    0.000 
#    0.000    0.000    0.000    0.000    0.000    0.000 
#
# Total GULP energy -167153.200633 kJ/mol
# GULP energy per Si atom -5571.773354 kJ/mol
# Density = 2.226298 g / cm^3
# Si number density = 22.313767 Si / 1000 Ang^3
#
#
#
# Elastic Constant Matrix: (Units=GPa)
#
#
# Indices 1 2 3 4 5 6 
#
# 1 233.4532 71.1537 74.1638 0.0000 0.0000 0.0000
# 2 71.1537 181.5607 40.1485 0.0000 0.0000 0.0000
# 3 74.1638 40.1485 88.5568 0.0000 0.0000 0.0000
# 4 0.0000 0.0000 0.0000 4.2069 0.0000 0.0000
# 5 0.0000 0.0000 0.0000 0.0000 15.4988 0.0000
# 6 0.0000 0.0000 0.0000 0.0000 0.0000 43.5422
#
#
#
# Elastic Compliance Matrix: (Units=1/GPa)
#
#
# Indices 1 2 3 4 5 6 
#
# 1 0.006145 -0.001412 -0.004507 0.000000 0.000000 0.000000
# 2 -0.001412 0.006446 -0.001740 0.000000 0.000000 0.000000
# 3 -0.004507 -0.001740 0.015855 0.000000 0.000000 0.000000
# 4 0.000000 0.000000 0.000000 0.237704 0.000000 0.000000
# 5 0.000000 0.000000 0.000000 0.000000 0.064521 0.000000
# 6 0.000000 0.000000 0.000000 0.000000 0.000000 0.022966
#
#
# Mechanical properties :
#
#
# Convention : Reuss Voigt Hill
#
# Bulk Modulus (GPa) = 76.16298 97.16698 86.66498
# Shear Modulus (GPa) = 13.39293 33.85658 23.62476
#
# Velocity S-wave (km/s) = 2.45258 3.89947 3.25738
# Velocity P-wave (km/s) = 6.49823 7.99467 7.28498
#
# Compressibility (1/GPa) = 0.01312974
#
# Stress axis : x y z
#
# Youngs Moduli (GPa) = 162.72078 155.13827 63.07105
#
# Poissons Ratio (x) = 0.21904 0.28423
# Poissons Ratio (y) = 0.22974 0.10974
# Poissons Ratio (z) = 0.73331 0.26993
#
# Static dielectric constant tensor:
#      x y z
#    x 1.820630 0.000000 0.000000 
#    y 0.000000 1.867930 0.000000 
#    z 0.000000 0.000000 2.000310 
# 
# From -- ./inp_files/38937.got.cif
#   From: 2010.05.17/outbox.cif.g08.bks.cpg/sg74_20_cif.got.tgz:38937.got - 2010.06.03 17:57:02.
