data_PCOD9540892
_publ_section_title
;
Structure prediction by ZEFSAII (Michael W. Deem and Ramdas Pophale) SiO2 
 PCOD9540892
Probable space group: I M M A
;
_chemical_formula_sum "Si O2"
_cell_formula_units_Z 36
_cell_length_a 9.000000
_cell_length_b 15.000000
_cell_length_c 27.000000
_cell_angle_alpha 90.000000
_cell_angle_beta 90.000000
_cell_angle_gamma 90.000000
_cell_volume 3645.000000
_symmetry_space_group_name_H-M "I M M A"
_symmetry_group_IT_number 74
_symmetry_cell_setting 'orthorhombic'
loop_
_space_group_symop_operation_xyz
x,y,z
-x,1/2-y,z
x,-y,-z
-x,1/2+y,-z
-x,-y,-z
x,1/2+y,-z
-x,y,z
x,1/2-y,z
1/2+x,1/2+y,1/2+z
1/2-x,-y,1/2+z
1/2+x,1/2-y,1/2-z
1/2-x,y,1/2-z
1/2-x,1/2-y,1/2-z
1/2+x,y,1/2-z
1/2-x,1/2+y,1/2+z
1/2+x,-y,1/2+z
loop_
_atom_site_type_symbol
_atom_site_label
_atom_site_fract_x
_atom_site_fract_y
_atom_site_fract_z
Si Si1 0.825268 0.594564 0.608036
Si Si2 0.167084 0.250000 0.940721
Si Si3 0.678538 0.389248 0.877286
Si Si4 0.662546 0.250000 0.443792
Si Si5 0.165470 0.645030 0.795519
Si Si6 0.821857 0.750000 0.196403
O O1 0.780691 0.491639 0.613560
O O2 0.744409 0.658892 0.569919
O O3 0.776993 0.637219 0.659539
O O4 0.000000 0.597932 0.599492
O O5 0.261861 0.165651 0.923853
O O6 0.000000 0.250000 0.917861
O O7 0.148576 0.250000 0.998268
O O8 0.500000 0.382481 0.871345
O O9 0.759747 0.337083 0.832709
O O10 0.500000 0.250000 0.418469
O O11 0.147182 0.750000 0.785359
O O12 0.250000 0.600274 0.750000
O O13 0.000000 0.608588 0.804926
O O14 0.750000 0.750000 0.250000
O O15 0.000000 0.750000 0.198684
#
# Coordination Sequence:
#
# PCOD9540892 Si02
#       6
#    16   8  16   8  16   8
#     4  11  23  38  59  87 119 155 196 242 294 348
#     4  10  22  41  63  87 114 151 194 242 299 353
#     4  10  22  40  62  89 120 154 194 243 295 350
#     4  11  24  40  60  86 118 154 196 243 293 351
#     4  10  20  34  54  79 111 152 192 232 280 334
#     4  11  22  39  65  93 122 159 198 241 291 344
#
# _framework density 9.8765429999999999
#
# number of rings (size 3 to 8) (size 9 to 14) (size 15 to 20)
#    0.000    1.556    1.111    5.000    0.000    8.000 
#    0.000    4.444    0.000    0.000    0.000    0.000 
#    0.000    0.000    0.000    0.000    0.000    0.000 
#
# Total GULP energy -200566.635519 kJ/mol
# GULP energy per Si atom -5571.295431 kJ/mol
# Density = 0.985406 g / cm^3
# Si number density = 9.876543 Si / 1000 Ang^3
#
#
#
# Elastic Constant Matrix: (Units=GPa)
#
#
# Indices 1 2 3 4 5 6 
#
# 1 85.6685 91.9574 31.3484 0.0000 0.0000 0.0000
# 2 91.9574 126.0429 40.7699 0.0000 0.0000 0.0000
# 3 31.3484 40.7699 103.1141 0.0000 0.0000 0.0000
# 4 0.0000 0.0000 0.0000 -35.1618 0.0000 0.0000
# 5 0.0000 0.0000 0.0000 0.0000 21.0593 0.0000
# 6 0.0000 0.0000 0.0000 0.0000 0.0000 -6.3044
#
#
#
# Elastic Compliance Matrix: (Units=1/GPa)
#
#
# Indices 1 2 3 4 5 6 
#
# 1 0.053908 -0.039018 -0.000961 0.000000 0.000000 0.000000
# 2 -0.039018 0.037339 -0.002901 0.000000 0.000000 0.000000
# 3 -0.000961 -0.002901 0.011137 0.000000 0.000000 0.000000
# 4 0.000000 0.000000 0.000000 -0.028440 0.000000 0.000000
# 5 0.000000 0.000000 0.000000 0.000000 0.047485 0.000000
# 6 0.000000 0.000000 0.000000 0.000000 0.000000 -0.158619
#
#
# Mechanical properties :
#
#
# Convention : Reuss Voigt Hill
#
# Bulk Modulus (GPa) = 60.16145 71.44189 65.80167
# Shear Modulus (GPa) = 92.39980 5.96859 49.18420
#
# Velocity S-wave (km/s) = 6.84682 1.74016 4.99535
# Velocity P-wave (km/s) = 9.64511 6.34693 8.16430
#
# Compressibility (1/GPa) = 0.01662194
#
# Stress axis : x y z
#
# Youngs Moduli (GPa) = 18.55027 26.78167 89.78817
#
# Poissons Ratio (x) = 1.04498 0.08633
# Poissons Ratio (y) = 0.72380 0.26048
# Poissons Ratio (z) = 0.01784 0.07769
#
# Static dielectric constant tensor:
#      x y z
#    x 1.746650 0.000000 0.000000 
#    y 0.000000 1.669430 0.000000 
#    z 0.000000 0.000000 1.537980 
# 
# From -- ./inp_files/63705.got.cif
#   From: 2010.05.17/outbox.ucp.g08.bks.cvg/sg74_32_cif.got.tgz:63705.got - 2010.06.11 16:37:44.
