data_PCOD9540515
_publ_section_title
;
Structure prediction by ZEFSAII (Michael W. Deem and Ramdas Pophale) SiO2 
 PCOD9540515
Probable space group: I M M A
;
_chemical_formula_sum "Si O2"
_cell_formula_units_Z 64
_cell_length_a 16.970392
_cell_length_b 24.820893
_cell_length_c 8.388920
_cell_angle_alpha 90.000000
_cell_angle_beta 90.000000
_cell_angle_gamma 90.000000
_cell_volume 3533.583265
_symmetry_space_group_name_H-M "I M M A"
_symmetry_group_IT_number 74
_symmetry_cell_setting 'orthorhombic'
loop_
_space_group_symop_operation_xyz
x,y,z
-x,1/2-y,z
x,-y,-z
-x,1/2+y,-z
-x,-y,-z
x,1/2+y,-z
-x,y,z
x,1/2-y,z
1/2+x,1/2+y,1/2+z
1/2-x,-y,1/2+z
1/2+x,1/2-y,1/2-z
1/2-x,y,1/2-z
1/2-x,1/2-y,1/2-z
1/2+x,y,1/2-z
1/2-x,1/2+y,1/2+z
1/2+x,-y,1/2+z
loop_
_atom_site_type_symbol
_atom_site_label
_atom_site_fract_x
_atom_site_fract_y
_atom_site_fract_z
Si Si1 0.408761 0.750000 0.079154
Si Si2 0.406863 0.868432 0.458156
Si Si3 0.730567 0.439642 0.434825
Si Si4 0.091139 0.750000 0.031907
Si Si5 0.323218 0.147710 0.861091
O O1 0.500000 0.750000 0.027295
O O2 0.408758 0.750000 0.274191
O O3 0.361097 0.803950 0.038052
O O4 0.500000 0.872078 0.483786
O O5 0.355826 0.914408 0.538765
O O6 0.377266 0.808716 0.514885
O O7 0.387609 0.871055 0.268962
O O8 0.734986 0.500000 0.500000
O O9 0.750000 0.438887 0.250000
O O10 0.788986 0.400624 0.534286
O O11 0.000000 0.750000 0.981126
O O12 0.250000 0.167517 0.750000
#
# Coordination Sequence:
#
# PCOD9540515 Si02
#       5
#     8  16  16   8  16
#     4   9  15  27  51  82 112 137 170 213 255 309
#     4   9  17  33  58  84 110 140 178 220 260 308
#     4  11  23  39  55  74 104 143 184 224 269 320
#     4   7  12  25  49  80 108 135 166 205 254 307
#     4   9  17  31  54  81 109 140 176 215 261 314
#
# _framework density 18.111927000000001
#
# number of rings (size 3 to 8) (size 9 to 14) (size 15 to 20)
#    0.000    2.750    0.000    4.875    0.000    3.500 
#    0.000    5.000    0.000    6.750    0.000    0.000 
#    0.000    0.000    0.000    0.000    0.000    0.000 
#
# Total GULP energy -178254.560268 kJ/mol
# GULP energy per Si atom -5570.455008 kJ/mol
# Density = 1.807070 g / cm^3
# Si number density = 18.111927 Si / 1000 Ang^3
#
#
#
# Elastic Constant Matrix: (Units=GPa)
#
#
# Indices 1 2 3 4 5 6 
#
# 1 95.7084 91.1891 32.9938 0.0000 0.0000 0.0000
# 2 91.1891 163.3683 46.0545 0.0000 0.0000 0.0000
# 3 32.9938 46.0545 51.8914 0.0000 0.0000 0.0000
# 4 0.0000 0.0000 0.0000 17.4826 0.0000 0.0000
# 5 0.0000 0.0000 0.0000 0.0000 9.5632 0.0000
# 6 0.0000 0.0000 0.0000 0.0000 0.0000 22.9167
#
#
#
# Elastic Compliance Matrix: (Units=1/GPa)
#
#
# Indices 1 2 3 4 5 6 
#
# 1 0.023018 -0.011633 -0.004311 0.000000 0.000000 0.000000
# 2 -0.011633 0.014043 -0.005067 0.000000 0.000000 0.000000
# 3 -0.004311 -0.005067 0.026509 0.000000 0.000000 0.000000
# 4 0.000000 0.000000 0.000000 0.057200 0.000000 0.000000
# 5 0.000000 0.000000 0.000000 0.000000 0.104568 0.000000
# 6 0.000000 0.000000 0.000000 0.000000 0.000000 0.043636
#
#
# Mechanical properties :
#
#
# Convention : Reuss Voigt Hill
#
# Bulk Modulus (GPa) = 46.40714 72.38256 59.39485
# Shear Modulus (GPa) = 15.71448 19.37455 17.54451
#
# Velocity S-wave (km/s) = 2.94875 3.27419 3.11573
# Velocity P-wave (km/s) = 6.10505 7.37188 6.76817
#
# Compressibility (1/GPa) = 0.02154841
#
# Stress axis : x y z
#
# Youngs Moduli (GPa) = 43.44353 71.21068 37.72328
#
# Poissons Ratio (x) = 0.82840 0.16263
# Poissons Ratio (y) = 0.50538 0.19113
# Poissons Ratio (z) = 0.18729 0.36080
#
# Static dielectric constant tensor:
#      x y z
#    x 1.641370 0.000000 0.000000 
#    y 0.000000 1.656410 0.000000 
#    z 0.000000 0.000000 1.617700 
# 
# From -- ./inp_files/10260.got.cif
#   From: 2010.05.17/outbox.cif.g08.bks.cpg/sg74_6_cif.got.tgz:10260.got - 2010.06.03 17:57:02.
