data_PCOD9540168
_publ_section_title
;
Structure prediction by ZEFSAII (Michael W. Deem and Ramdas Pophale) SiO2 
 PCOD9540168
Probable space group: I M M A
;
_chemical_formula_sum "Si O2"
_cell_formula_units_Z 80
_cell_length_a 10.370207
_cell_length_b 19.926938
_cell_length_c 30.090931
_cell_angle_alpha 90.000000
_cell_angle_beta 90.000000
_cell_angle_gamma 90.000000
_cell_volume 6218.184728
_symmetry_space_group_name_H-M "I M M A"
_symmetry_group_IT_number 74
_symmetry_cell_setting 'orthorhombic'
loop_
_space_group_symop_operation_xyz
x,y,z
-x,1/2-y,z
x,-y,-z
-x,1/2+y,-z
-x,-y,-z
x,1/2+y,-z
-x,y,z
x,1/2-y,z
1/2+x,1/2+y,1/2+z
1/2-x,-y,1/2+z
1/2+x,1/2-y,1/2-z
1/2-x,y,1/2-z
1/2-x,1/2-y,1/2-z
1/2+x,y,1/2-z
1/2-x,1/2+y,1/2+z
1/2+x,-y,1/2+z
loop_
_atom_site_type_symbol
_atom_site_label
_atom_site_fract_x
_atom_site_fract_y
_atom_site_fract_z
Si Si1 0.736666 0.873808 0.855096
Si Si2 0.654066 0.250000 0.980371
Si Si3 0.500000 0.330938 0.204737
Si Si4 0.343761 0.466803 0.070179
Si Si5 0.843350 0.897378 0.477195
Si Si6 0.653806 0.750000 0.913960
Si Si7 0.500000 0.669198 0.689456
O O1 0.625028 0.862735 0.818588
O O2 0.718029 0.940310 0.884515
O O3 0.712910 0.814526 0.890620
O O4 0.873395 0.862864 0.832224
O O5 0.500000 0.250000 0.971414
O O6 0.704306 0.177163 0.965153
O O7 0.671901 0.250000 0.033517
O O8 0.500000 0.250000 0.197158
O O9 0.500000 0.340970 0.257498
O O10 0.500000 0.462111 0.074566
O O11 0.308554 0.542509 0.056080
O O12 0.307858 0.420891 0.027257
O O13 0.000000 0.895207 0.477792
O O14 0.500000 0.750000 0.906427
O O15 0.500000 0.750000 0.681697
#
# Coordination Sequence:
#
# PCOD9540168 Si02
#       7
#    16   8   8  16  16   8   8
#     4  12  18  30  44  57  79 109 140 171 200 238
#     4   9  14  20  35  60  91 105 129 176 208 225
#     4  11  20  32  46  57  74 105 141 174 205 239
#     4   9  15  24  39  59  80 105 138 169 197 235
#     4   8  14  21  34  60  86 104 131 171 204 228
#     4  11  16  23  40  65  75 104 146 165 192 240
#     4  11  24  32  38  59  84 103 133 178 215 235
#
# _framework density 12.865491
#
# number of rings (size 3 to 8) (size 9 to 14) (size 15 to 20)
#    0.000    2.000    6.000    1.800    0.000    1.600 
#    0.000    0.000    0.000    2.400    0.000    0.000 
#    0.000    0.000    0.000    5.400    0.000    0.100 
#
# Total GULP energy -222738.976654 kJ/mol
# GULP energy per Si atom -5568.474416 kJ/mol
# Density = 1.283621 g / cm^3
# Si number density = 12.865491 Si / 1000 Ang^3
#
#
#
# Elastic Constant Matrix: (Units=GPa)
#
#
# Indices 1 2 3 4 5 6 
#
# 1 67.9061 25.6966 39.4278 0.0000 0.0000 0.0000
# 2 25.6966 107.0987 47.9516 0.0000 0.0000 0.0000
# 3 39.4278 47.9516 77.8019 0.0000 0.0000 0.0000
# 4 0.0000 0.0000 0.0000 25.8442 0.0000 0.0000
# 5 0.0000 0.0000 0.0000 0.0000 -1.2338 0.0000
# 6 0.0000 0.0000 0.0000 0.0000 0.0000 10.1936
#
#
#
# Elastic Compliance Matrix: (Units=1/GPa)
#
#
# Indices 1 2 3 4 5 6 
#
# 1 0.020877 -0.000376 -0.010348 0.000000 0.000000 0.000000
# 2 -0.000376 0.012903 -0.007762 0.000000 0.000000 0.000000
# 3 -0.010348 -0.007762 0.022881 0.000000 0.000000 0.000000
# 4 0.000000 0.000000 0.000000 0.038693 0.000000 0.000000
# 5 0.000000 0.000000 0.000000 0.000000 -0.810530 0.000000
# 6 0.000000 0.000000 0.000000 0.000000 0.000000 0.098101
#
#
# Mechanical properties :
#
#
# Convention : Reuss Voigt Hill
#
# Bulk Modulus (GPa) = 50.78981 53.21764 52.00372
# Shear Modulus (GPa) = -8.71778 16.27618 3.77920
#
# Velocity S-wave (km/s) = -2.60592 3.56069 1.71576
# Velocity P-wave (km/s) = 5.52348 7.63931 6.66588
#
# Compressibility (1/GPa) = 0.01968899
#
# Stress axis : x y z
#
# Youngs Moduli (GPa) = 47.90009 77.50406 43.70426
#
# Poissons Ratio (x) = 0.02913 0.45226
# Poissons Ratio (y) = 0.01800 0.33922
# Poissons Ratio (z) = 0.49567 0.60157
#
# Static dielectric constant tensor:
#      x y z
#    x 1.406910 0.000000 0.000000 
#    y 0.000000 1.452690 0.000000 
#    z 0.000000 0.000000 1.410440 
# 
# From -- ./inp_files/68326.got.cif
#   From: 2010.05.17/outbox.cif.g08.bks.cpg/sg74_35_cif.got.tgz:68326.got - 2010.06.03 17:57:02.
