data_PCOD9540497
_publ_section_title
;
Structure prediction by ZEFSAII (Michael W. Deem and Ramdas Pophale) SiO2 
 PCOD9540497
Probable space group: I M M A
;
_chemical_formula_sum "Si O2"
_cell_formula_units_Z 96
_cell_length_a 19.575318
_cell_length_b 16.434993
_cell_length_c 14.858777
_cell_angle_alpha 90.000000
_cell_angle_beta 90.000000
_cell_angle_gamma 90.000000
_cell_volume 4780.368921
_symmetry_space_group_name_H-M "I M M A"
_symmetry_group_IT_number 74
_symmetry_cell_setting 'orthorhombic'
loop_
_space_group_symop_operation_xyz
x,y,z
-x,1/2-y,z
x,-y,-z
-x,1/2+y,-z
-x,-y,-z
x,1/2+y,-z
-x,y,z
x,1/2-y,z
1/2+x,1/2+y,1/2+z
1/2-x,-y,1/2+z
1/2+x,1/2-y,1/2-z
1/2-x,y,1/2-z
1/2-x,1/2-y,1/2-z
1/2+x,y,1/2-z
1/2-x,1/2+y,1/2+z
1/2+x,-y,1/2+z
loop_
_atom_site_type_symbol
_atom_site_label
_atom_site_fract_x
_atom_site_fract_y
_atom_site_fract_z
Si Si1 0.697495 0.845655 0.832059
Si Si2 0.820656 0.661889 0.305999
Si Si3 0.131089 0.426114 0.853202
Si Si4 0.919161 0.750000 0.082798
Si Si5 0.735969 0.587480 0.020564
Si Si6 0.580314 0.586862 0.723606
Si Si7 0.917839 0.750000 0.884377
O O1 0.678151 0.750000 0.836392
O O2 0.750000 0.857491 0.750000
O O3 0.632146 0.902440 0.807883
O O4 0.736036 0.868846 0.924433
O O5 0.855695 0.750000 0.298864
O O6 0.750000 0.669518 0.250000
O O7 0.853114 0.587857 0.252653
O O8 0.805667 0.641169 0.408323
O O9 0.099995 0.337576 0.876173
O O10 0.194121 0.431770 0.923305
O O11 0.091723 0.511185 0.845358
O O12 0.000000 0.750000 0.079099
O O13 0.886831 0.750000 0.983337
O O14 0.703886 0.500000 0.000000
O O15 0.500000 0.587948 0.748838
O O16 0.598472 0.668441 0.668223
O O17 0.000000 0.750000 0.893657
#
# Coordination Sequence:
#
# PCOD9540497 Si02
#       7
#    16  16  16   8  16  16   8
#     4  11  24  39  64  97 130 173 222 277 338 396
#     4   9  18  37  59  87 121 164 211 258 329 388
#     4  11  23  37  65  92 127 172 212 269 330 395
#     4  11  24  38  56  89 127 169 214 260 321 392
#     4  11  23  36  59  94 130 162 213 274 328 392
#     4  11  23  44  68  95 134 180 226 275 335 404
#     4   9  22  40  60  86 126 172 215 264 319 390
#
# _framework density 20.082132000000001
#
# number of rings (size 3 to 8) (size 9 to 14) (size 15 to 20)
#    0.000    1.500    1.667    3.000    7.000    1.333 
#    0.000    2.500    0.000    5.500    0.000    0.000 
#    0.000    0.000    0.000    0.000    0.000    0.000 
#
# Total GULP energy -267321.703894 kJ/mol
# GULP energy per Si atom -5569.202164 kJ/mol
# Density = 2.003642 g / cm^3
# Si number density = 20.082132 Si / 1000 Ang^3
#
#
#
# Elastic Constant Matrix: (Units=GPa)
#
#
# Indices 1 2 3 4 5 6 
#
# 1 62.5006 22.3027 23.0407 0.0000 0.0000 0.0000
# 2 22.3027 134.9621 38.2581 0.0000 0.0000 0.0000
# 3 23.0407 38.2581 140.5768 0.0000 0.0000 0.0000
# 4 0.0000 0.0000 0.0000 -2.7848 0.0000 0.0000
# 5 0.0000 0.0000 0.0000 0.0000 18.3253 0.0000
# 6 0.0000 0.0000 0.0000 0.0000 0.0000 18.6189
#
#
#
# Elastic Compliance Matrix: (Units=1/GPa)
#
#
# Indices 1 2 3 4 5 6 
#
# 1 0.017649 -0.002272 -0.002274 0.000000 0.000000 0.000000
# 2 -0.002272 0.008321 -0.001892 0.000000 0.000000 0.000000
# 3 -0.002274 -0.001892 0.008001 0.000000 0.000000 0.000000
# 4 0.000000 0.000000 0.000000 -0.359090 0.000000 0.000000
# 5 0.000000 0.000000 0.000000 0.000000 0.054570 0.000000
# 6 0.000000 0.000000 0.000000 0.000000 0.000000 0.053709
#
#
# Mechanical properties :
#
#
# Convention : Reuss Voigt Hill
#
# Bulk Modulus (GPa) = 47.40552 56.13807 51.77179
# Shear Modulus (GPa) = -25.38956 23.79439 -0.79758
#
# Velocity S-wave (km/s) = -3.55954 3.44590 -0.63089
# Velocity P-wave (km/s) = 2.60064 6.62173 5.03044
#
# Compressibility (1/GPa) = 0.02109459
#
# Stress axis : x y z
#
# Youngs Moduli (GPa) = 56.66049 120.17323 124.97930
#
# Poissons Ratio (x) = 0.27301 0.28426
# Poissons Ratio (y) = 0.12872 0.23650
# Poissons Ratio (z) = 0.12887 0.22740
#
# Static dielectric constant tensor:
#      x y z
#    x 1.747710 0.000000 0.000000 
#    y 0.000000 1.809390 0.000000 
#    z 0.000000 0.000000 1.763350 
# 
# From -- ./inp_files/35318.got.cif
#   From: 2010.05.17/outbox.cif.g08.bks.cpg/sg74_18_cif.got.tgz:35318.got - 2010.06.03 17:57:02.
