data_PCOD9540108
_publ_section_title
;
Structure prediction by ZEFSAII (Michael W. Deem and Ramdas Pophale) SiO2 
 PCOD9540108
Probable space group: I M M A
;
_chemical_formula_sum "Si O2"
_cell_formula_units_Z 92
_cell_length_a 19.636071
_cell_length_b 19.116203
_cell_length_c 11.328798
_cell_angle_alpha 90.000000
_cell_angle_beta 90.000000
_cell_angle_gamma 90.000000
_cell_volume 4252.458271
_symmetry_space_group_name_H-M "I M M A"
_symmetry_group_IT_number 74
_symmetry_cell_setting 'orthorhombic'
loop_
_space_group_symop_operation_xyz
x,y,z
-x,1/2-y,z
x,-y,-z
-x,1/2+y,-z
-x,-y,-z
x,1/2+y,-z
-x,y,z
x,1/2-y,z
1/2+x,1/2+y,1/2+z
1/2-x,-y,1/2+z
1/2+x,1/2-y,1/2-z
1/2-x,y,1/2-z
1/2-x,1/2-y,1/2-z
1/2+x,y,1/2-z
1/2-x,1/2+y,1/2+z
1/2+x,-y,1/2+z
loop_
_atom_site_type_symbol
_atom_site_label
_atom_site_fract_x
_atom_site_fract_y
_atom_site_fract_z
Si Si1 0.118242 0.410790 0.896054
Si Si2 0.421494 0.069160 0.345251
Si Si3 0.882083 0.500000 0.500000
Si Si4 0.258254 0.330554 0.941536
Si Si5 0.500000 0.750000 0.070689
Si Si6 0.402646 0.871413 0.146307
Si Si7 0.313145 0.892654 0.830244
O O1 0.114404 0.492695 0.857627
O O2 0.193502 0.380299 0.920128
O O3 0.083728 0.372171 0.785538
O O4 0.080690 0.403080 0.020872
O O5 0.500000 0.061089 0.307429
O O6 0.377919 0.117169 0.256040
O O7 0.920088 0.444130 0.581595
O O8 0.835527 0.455808 0.412946
O O9 0.241826 0.250000 0.913235
O O10 0.321814 0.358302 0.865866
O O11 0.285770 0.335523 0.076955
O O12 0.441331 0.810723 0.079752
O O13 0.250000 0.912030 0.750000
#
# Coordination Sequence:
#
# PCOD9540108 Si02
#       7
#    16  16   8  16   4  16  16
#     4  11  23  41  72  97 141 179 236 297 356 424
#     4  11  25  45  68 106 144 182 228 304 373 421
#     4  10  24  41  70 102 135 172 242 292 346 414
#     4  11  25  45  68 102 139 190 241 292 352 427
#     4  12  28  46  66  94 160 192 236 290 356 454
#     4  11  25  43  68 105 139 191 235 295 359 423
#     4  11  23  42  69 107 135 180 236 292 351 413
#
# _framework density 21.634546
#
# number of rings (size 3 to 8) (size 9 to 14) (size 15 to 20)
#    0.000    1.043    4.348    1.565    8.522    1.391 
#    6.261    0.000    0.000    1.043    0.000    0.000 
#    0.000    0.000    0.000    0.000    0.000    0.000 
#
# Total GULP energy -256395.693082 kJ/mol
# GULP energy per Si atom -5573.819415 kJ/mol
# Density = 2.158530 g / cm^3
# Si number density = 21.634546 Si / 1000 Ang^3
#
#
#
# Elastic Constant Matrix: (Units=GPa)
#
#
# Indices 1 2 3 4 5 6 
#
# 1 141.3775 38.7424 15.4453 0.0000 0.0000 0.0000
# 2 38.7424 79.0585 5.9527 0.0000 0.0000 0.0000
# 3 15.4453 5.9527 112.6843 0.0000 0.0000 0.0000
# 4 0.0000 0.0000 0.0000 2.4556 0.0000 0.0000
# 5 0.0000 0.0000 0.0000 0.0000 18.5144 0.0000
# 6 0.0000 0.0000 0.0000 0.0000 0.0000 0.0756
#
#
#
# Elastic Compliance Matrix: (Units=1/GPa)
#
#
# Indices 1 2 3 4 5 6 
#
# 1 0.008265 -0.003981 -0.000923 0.000000 0.000000 0.000000
# 2 -0.003981 0.014617 -0.000227 0.000000 0.000000 0.000000
# 3 -0.000923 -0.000227 0.009013 0.000000 0.000000 0.000000
# 4 0.000000 0.000000 0.000000 0.407232 0.000000 0.000000
# 5 0.000000 0.000000 0.000000 0.000000 0.054012 0.000000
# 6 0.000000 0.000000 0.000000 0.000000 0.000000 13.225430
#
#
# Mechanical properties :
#
#
# Convention : Reuss Voigt Hill
#
# Bulk Modulus (GPa) = 46.22200 50.37791 48.29995
# Shear Modulus (GPa) = 0.36401 22.40778 11.38589
#
# Velocity S-wave (km/s) = 0.41063 3.22178 2.29657
# Velocity P-wave (km/s) = 4.65146 6.09723 5.42275
#
# Compressibility (1/GPa) = 0.02163472
#
# Stress axis : x y z
#
# Youngs Moduli (GPa) = 120.99346 68.41503 110.95370
#
# Poissons Ratio (x) = 0.27234 0.10236
# Poissons Ratio (y) = 0.48164 0.02513
# Poissons Ratio (z) = 0.11162 0.01550
#
# Static dielectric constant tensor:
#      x y z
#    x 1.795640 0.000000 0.000000 
#    y 0.000000 1.553980 0.000000 
#    z 0.000000 0.000000 1.872840 
# 
# From -- ./inp_files/22262.got.cif
#   From: 2010.05.17/outbox.cif.g08.bks.cpg/sg74_12_cif.got.tgz:22262.got - 2010.06.03 17:57:02.
