data_PCOD9540093
_publ_section_title
;
Structure prediction by ZEFSAII (Michael W. Deem and Ramdas Pophale) SiO2 
 PCOD9540093
Probable space group: I M M A
;
_chemical_formula_sum "Si O2"
_cell_formula_units_Z 56
_cell_length_a 23.521012
_cell_length_b 10.351000
_cell_length_c 12.338850
_cell_angle_alpha 90.000000
_cell_angle_beta 90.000000
_cell_angle_gamma 90.000000
_cell_volume 3004.090395
_symmetry_space_group_name_H-M "I M M A"
_symmetry_group_IT_number 74
_symmetry_cell_setting 'orthorhombic'
loop_
_space_group_symop_operation_xyz
x,y,z
-x,1/2-y,z
x,-y,-z
-x,1/2+y,-z
-x,-y,-z
x,1/2+y,-z
-x,y,z
x,1/2-y,z
1/2+x,1/2+y,1/2+z
1/2-x,-y,1/2+z
1/2+x,1/2-y,1/2-z
1/2-x,y,1/2-z
1/2-x,1/2-y,1/2-z
1/2+x,y,1/2-z
1/2-x,1/2+y,1/2+z
1/2+x,-y,1/2+z
loop_
_atom_site_type_symbol
_atom_site_label
_atom_site_fract_x
_atom_site_fract_y
_atom_site_fract_z
Si Si1 0.721890 0.000000 0.000000
Si Si2 0.865512 0.005200 0.687960
Si Si3 0.433761 0.750000 0.829204
Si Si4 0.433154 0.750000 0.091014
Si Si5 0.167110 0.893411 0.079600
O O1 0.681878 0.035220 0.100113
O O2 0.766719 0.894134 0.042707
O O3 0.902415 0.121922 0.636397
O O4 0.837988 0.057872 0.797977
O O5 0.903600 0.880024 0.710691
O O6 0.500000 0.750000 0.801259
O O7 0.429108 0.750000 0.960670
O O8 0.500000 0.750000 0.119889
O O9 0.143325 0.750000 0.069015
O O10 0.139884 0.000000 0.000000
#
# Coordination Sequence:
#
# PCOD9540093 Si02
#       5
#     8  16   8   8  16
#     4  10  24  36  63  96 125 166 204 244 304 374
#     4  12  22  39  66  91 129 167 199 255 314 363
#     4  11  24  40  62  96 128 155 206 263 314 367
#     4  11  22  40  64  94 124 161 210 257 312 367
#     4  10  25  41  61  90 131 166 211 246 299 370
#
# _framework density 18.641249999999999
#
# number of rings (size 3 to 8) (size 9 to 14) (size 15 to 20)
#    0.857    0.286    4.286    1.714    6.000    3.429 
#    0.000    2.857    0.000    5.143    0.000    0.000 
#    0.000    0.000    0.000    0.000    0.000    0.000 
#
# Total GULP energy -156153.737265 kJ/mol
# GULP energy per Si atom -5576.919188 kJ/mol
# Density = 1.859882 g / cm^3
# Si number density = 18.641250 Si / 1000 Ang^3
#
#
#
# Elastic Constant Matrix: (Units=GPa)
#
#
# Indices 1 2 3 4 5 6 
#
# 1 55.0649 52.0936 30.8620 0.0000 0.0000 0.0000
# 2 52.0936 146.7718 33.7403 0.0000 0.0000 0.0000
# 3 30.8620 33.7403 100.7469 0.0000 0.0000 0.0000
# 4 0.0000 0.0000 0.0000 15.4168 0.0000 0.0000
# 5 0.0000 0.0000 0.0000 0.0000 -11.9004 0.0000
# 6 0.0000 0.0000 0.0000 0.0000 0.0000 11.0608
#
#
#
# Elastic Compliance Matrix: (Units=1/GPa)
#
#
# Indices 1 2 3 4 5 6 
#
# 1 0.030544 -0.009415 -0.006204 0.000000 0.000000 0.000000
# 2 -0.009415 0.010284 -0.000560 0.000000 0.000000 0.000000
# 3 -0.006204 -0.000560 0.012014 0.000000 0.000000 0.000000
# 4 0.000000 0.000000 0.000000 0.064864 0.000000 0.000000
# 5 0.000000 0.000000 0.000000 0.000000 -0.084031 0.000000
# 6 0.000000 0.000000 0.000000 0.000000 0.000000 0.090409
#
#
# Mechanical properties :
#
#
# Convention : Reuss Voigt Hill
#
# Bulk Modulus (GPa) = 48.81688 59.55280 54.18484
# Shear Modulus (GPa) = 30.62416 15.30795 22.96606
#
# Velocity S-wave (km/s) = 4.05756 2.86874 3.51380
# Velocity P-wave (km/s) = 6.94235 6.55660 6.75223
#
# Compressibility (1/GPa) = 0.02048472
#
# Stress axis : x y z
#
# Youngs Moduli (GPa) = 32.73943 97.24178 83.23801
#
# Poissons Ratio (x) = 0.91552 0.51637
# Poissons Ratio (y) = 0.30824 0.04661
# Poissons Ratio (z) = 0.20310 0.05445
#
# Static dielectric constant tensor:
#      x y z
#    x 1.629990 0.000000 0.000000 
#    y 0.000000 1.637410 0.000000 
#    z 0.000000 0.000000 1.621640 
# 
# From -- ./inp_files/34830.got.cif
#   From: 2010.05.17/outbox.cif.g08.bks.cpg/sg74_18_cif.got.tgz:34830.got - 2010.06.03 17:57:02.
