data_PCOD9540939
_publ_section_title
;
Structure prediction by ZEFSAII (Michael W. Deem and Ramdas Pophale) SiO2 
 PCOD9540939
Probable space group: I M M A
;
_chemical_formula_sum "Si O2"
_cell_formula_units_Z 52
_cell_length_a 30.000000
_cell_length_b 9.000000
_cell_length_c 21.000000
_cell_angle_alpha 90.000000
_cell_angle_beta 90.000000
_cell_angle_gamma 90.000000
_cell_volume 5670.000000
_symmetry_space_group_name_H-M "I M M A"
_symmetry_group_IT_number 74
_symmetry_cell_setting 'orthorhombic'
loop_
_space_group_symop_operation_xyz
x,y,z
-x,1/2-y,z
x,-y,-z
-x,1/2+y,-z
-x,-y,-z
x,1/2+y,-z
-x,y,z
x,1/2-y,z
1/2+x,1/2+y,1/2+z
1/2-x,-y,1/2+z
1/2+x,1/2-y,1/2-z
1/2-x,y,1/2-z
1/2-x,1/2-y,1/2-z
1/2+x,y,1/2-z
1/2-x,1/2+y,1/2+z
1/2+x,-y,1/2+z
loop_
_atom_site_type_symbol
_atom_site_label
_atom_site_fract_x
_atom_site_fract_y
_atom_site_fract_z
Si Si1 0.182097 0.085968 0.560729
Si Si2 0.165596 0.071928 0.173459
Si Si3 0.500000 0.574361 0.567375
Si Si4 0.851951 0.425355 0.317621
Si Si5 0.928122 0.074197 0.846360
Si Si6 0.451095 0.074743 0.215906
Si Si7 0.211649 0.917763 0.062942
O O1 0.163202 0.250000 0.561671
O O2 0.235388 0.093785 0.554123
O O3 0.163938 0.000000 0.500000
O O4 0.171844 0.007220 0.626110
O O5 0.161765 0.250000 0.168950
O O6 0.167472 0.033149 0.248298
O O7 0.121256 0.990147 0.150105
O O8 0.203086 0.011126 0.126698
O O9 0.500000 0.750000 0.564918
O O10 0.500000 0.500000 0.500000
O O11 0.457438 0.513226 0.603850
O O12 0.845651 0.250000 0.324393
O O13 0.905192 0.454787 0.320765
O O14 0.929846 0.250000 0.855334
O O15 0.947392 0.028028 0.777628
O O16 0.500000 0.054320 0.185644
O O17 0.448386 0.250000 0.235611
O O18 0.193671 0.750000 0.068518
O O19 0.193284 0.000000 0.000000
#
# Coordination Sequence:
#
# PCOD9540939 Si02
#       7
#    16  16   8  16  16  16  16
#     4  10  21  37  58  81 109 144 180 223 274 329
#     4  10  21  37  56  80 110 145 181 224 275 323
#     4  12  24  38  52  70  98 134 179 226 271 322
#     4   9  19  34  54  83 113 143 182 223 270 324
#     4  11  21  34  52  76 103 135 175 220 269 316
#     4   9  17  32  55  79 107 143 177 214 262 318
#     4  10  21  37  56  79 106 142 186 228 274 329
#
# _framework density 9.1710759999999993
#
# number of rings (size 3 to 8) (size 9 to 14) (size 15 to 20)
#    0.000    2.000    0.769    4.385    0.000    6.154 
#    0.000    6.154    0.000    0.462    0.000    0.000 
#    0.000    0.000    0.000    0.000    0.000    0.000 
#
# Total GULP energy -289770.285331 kJ/mol
# GULP energy per Si atom -5572.505487 kJ/mol
# Density = 0.915020 g / cm^3
# Si number density = 9.171076 Si / 1000 Ang^3
#
#
#
# Elastic Constant Matrix: (Units=GPa)
#
#
# Indices 1 2 3 4 5 6 
#
# 1 5.9137 27.3036 24.0781 0.0000 0.0000 0.0000
# 2 27.3036 69.1568 70.6279 0.0000 0.0000 0.0000
# 3 24.0781 70.6279 92.3458 0.0000 0.0000 0.0000
# 4 0.0000 0.0000 0.0000 22.8094 0.0000 0.0000
# 5 0.0000 0.0000 0.0000 0.0000 -12.3218 0.0000
# 6 0.0000 0.0000 0.0000 0.0000 0.0000 21.4601
#
#
#
# Elastic Compliance Matrix: (Units=1/GPa)
#
#
# Indices 1 2 3 4 5 6 
#
# 1 -0.179128 0.105166 -0.033728 0.000000 0.000000 0.000000
# 2 0.105166 0.004311 -0.030718 0.000000 0.000000 0.000000
# 3 -0.033728 -0.030718 0.043117 0.000000 0.000000 0.000000
# 4 0.000000 0.000000 0.000000 0.043842 0.000000 0.000000
# 5 0.000000 0.000000 0.000000 0.000000 -0.081157 0.000000
# 6 0.000000 0.000000 0.000000 0.000000 0.000000 0.046598
#
#
# Mechanical properties :
#
#
# Convention : Reuss Voigt Hill
#
# Bulk Modulus (GPa) = -19.89677 45.71504 12.90913
# Shear Modulus (GPa) = -22.66423 9.41665 -6.62379
#
# Velocity S-wave (km/s) = -3.51898 2.26827 -1.90239
# Velocity P-wave (km/s) = 5.23278 5.64248 1.49258
#
# Compressibility (1/GPa) = -0.05025941
#
# Stress axis : x y z
#
# Youngs Moduli (GPa) = -5.58260 231.96802 23.19296
#
# Poissons Ratio (x) = -24.39512 0.78224
# Poissons Ratio (y) = 0.58710 0.71244
# Poissons Ratio (z) = -0.18829 7.12556
#
# Static dielectric constant tensor:
#      x y z
#    x 1.645310 0.000000 0.000000 
#    y 0.000000 1.630030 0.000000 
#    z 0.000000 0.000000 1.591050 
# 
# From -- ./inp_files/55635.got.cif
#   From: 2010.05.17/outbox.ucp.g08.bks.cvg/sg74_28_cif.got.tgz:55635.got - 2010.06.11 16:37:44.
