data_PCOD9540677
_publ_section_title
;
Structure prediction by ZEFSAII (Michael W. Deem and Ramdas Pophale) SiO2 
 PCOD9540677
Probable space group: I M M A
;
_chemical_formula_sum "Si O2"
_cell_formula_units_Z 64
_cell_length_a 25.777148
_cell_length_b 14.283779
_cell_length_c 6.622785
_cell_angle_alpha 90.000000
_cell_angle_beta 90.000000
_cell_angle_gamma 90.000000
_cell_volume 2438.476888
_symmetry_space_group_name_H-M "I M M A"
_symmetry_group_IT_number 74
_symmetry_cell_setting 'orthorhombic'
loop_
_space_group_symop_operation_xyz
x,y,z
-x,1/2-y,z
x,-y,-z
-x,1/2+y,-z
-x,-y,-z
x,1/2+y,-z
-x,y,z
x,1/2-y,z
1/2+x,1/2+y,1/2+z
1/2-x,-y,1/2+z
1/2+x,1/2-y,1/2-z
1/2-x,y,1/2-z
1/2-x,1/2-y,1/2-z
1/2+x,y,1/2-z
1/2-x,1/2+y,1/2+z
1/2+x,-y,1/2+z
loop_
_atom_site_type_symbol
_atom_site_label
_atom_site_fract_x
_atom_site_fract_y
_atom_site_fract_z
Si Si1 0.346380 0.641595 0.613547
Si Si2 0.876124 0.858326 0.363802
Si Si3 0.057598 0.476461 0.238985
Si Si4 0.762471 0.863813 0.480390
O O1 0.344144 0.750000 0.670188
O O2 0.359603 0.638706 0.373823
O O3 0.394081 0.594540 0.729663
O O4 0.287137 0.603285 0.612588
O O5 0.889682 0.750000 0.406044
O O6 0.823783 0.886055 0.487600
O O7 0.923580 0.930973 0.359860
O O8 0.000000 0.443620 0.296194
O O9 0.053609 0.500000 0.000000
O O10 0.760065 0.750000 0.492626
O O11 0.750000 0.890176 0.250000
#
# Coordination Sequence:
#
# PCOD9540677 Si02
#       4
#    16  16  16  16
#     4   8  13  21  32  45  62  85 114 146 174 202
#     4   8  13  21  32  45  62  85 114 146 174 202
#     4   9  16  22  28  44  70  96 117 133 161 213
#     4   7  10  18  32  46  57  75 109 149 182 204
#
# _framework density 26.245892000000001
#
# number of rings (size 3 to 8) (size 9 to 14) (size 15 to 20)
#    0.000    4.000    0.000    3.000    0.000    1.000 
#    0.000    5.000    0.000    0.000    0.000    1.750 
#    0.000   14.000    0.000    2.250    0.000   77.000 
#
# Total GULP energy -178830.351271 kJ/mol
# GULP energy per Si atom -5588.448477 kJ/mol
# Density = 2.618616 g / cm^3
# Si number density = 26.245892 Si / 1000 Ang^3
#
#
#
# Elastic Constant Matrix: (Units=GPa)
#
#
# Indices 1 2 3 4 5 6 
#
# 1 301.2386 104.6024 93.1235 0.0000 0.0000 0.0000
# 2 104.6024 120.8695 27.5918 0.0000 0.0000 0.0000
# 3 93.1235 27.5918 96.5164 0.0000 0.0000 0.0000
# 4 0.0000 0.0000 0.0000 34.7874 0.0000 0.0000
# 5 0.0000 0.0000 0.0000 0.0000 57.9500 0.0000
# 6 0.0000 0.0000 0.0000 0.0000 0.0000 32.1994
#
#
#
# Elastic Compliance Matrix: (Units=1/GPa)
#
#
# Indices 1 2 3 4 5 6 
#
# 1 0.006347 -0.004380 -0.004871 0.000000 0.000000 0.000000
# 2 -0.004380 0.011874 0.000832 0.000000 0.000000 0.000000
# 3 -0.004871 0.000832 0.014823 0.000000 0.000000 0.000000
# 4 0.000000 0.000000 0.000000 0.028746 0.000000 0.000000
# 5 0.000000 0.000000 0.000000 0.000000 0.017256 0.000000
# 6 0.000000 0.000000 0.000000 0.000000 0.000000 0.031056
#
#
# Mechanical properties :
#
#
# Convention : Reuss Voigt Hill
#
# Bulk Modulus (GPa) = 61.71146 107.69553 84.70349
# Shear Modulus (GPa) = 37.78039 44.54115 41.16077
#
# Velocity S-wave (km/s) = 3.79816 4.12402 3.96444
# Velocity P-wave (km/s) = 6.54206 7.98743 7.30061
#
# Compressibility (1/GPa) = 0.01620445
#
# Stress axis : x y z
#
# Youngs Moduli (GPa) = 157.56624 84.21491 67.46240
#
# Poissons Ratio (x) = 0.36890 0.32862
# Poissons Ratio (y) = 0.69021 -0.05612
# Poissons Ratio (z) = 0.76753 -0.07005
#
# Static dielectric constant tensor:
#      x y z
#    x 1.994450 0.000000 0.000000 
#    y 0.000000 2.011160 0.000000 
#    z 0.000000 0.000000 2.389540 
# 
# From -- ./inp_files/10581.got.cif
#   From: 2010.05.17/outbox.cif.g08.bks.cpg/sg74_6_cif.got.tgz:10581.got - 2010.06.03 17:57:02.
