data_PCOD9540625
_publ_section_title
;
Structure prediction by ZEFSAII (Michael W. Deem and Ramdas Pophale) SiO2 
 PCOD9540625
Probable space group: I M M A
;
_chemical_formula_sum "Si O2"
_cell_formula_units_Z 56
_cell_length_a 27.684941
_cell_length_b 9.776249
_cell_length_c 9.890701
_cell_angle_alpha 90.000000
_cell_angle_beta 90.000000
_cell_angle_gamma 90.000000
_cell_volume 2676.966460
_symmetry_space_group_name_H-M "I M M A"
_symmetry_group_IT_number 74
_symmetry_cell_setting 'orthorhombic'
loop_
_space_group_symop_operation_xyz
x,y,z
-x,1/2-y,z
x,-y,-z
-x,1/2+y,-z
-x,-y,-z
x,1/2+y,-z
-x,y,z
x,1/2-y,z
1/2+x,1/2+y,1/2+z
1/2-x,-y,1/2+z
1/2+x,1/2-y,1/2-z
1/2-x,y,1/2-z
1/2-x,1/2-y,1/2-z
1/2+x,y,1/2-z
1/2-x,1/2+y,1/2+z
1/2+x,-y,1/2+z
loop_
_atom_site_type_symbol
_atom_site_label
_atom_site_fract_x
_atom_site_fract_y
_atom_site_fract_z
Si Si1 0.553330 0.250000 0.887382
Si Si2 0.112560 0.512592 0.300754
Si Si3 0.782618 0.093539 0.382627
Si Si4 0.057934 0.250000 0.189999
Si Si5 0.405739 0.250000 0.616441
O O1 0.500000 0.250000 0.948587
O O2 0.585905 0.115750 0.905966
O O3 0.549536 0.250000 0.722516
O O4 0.163960 0.459860 0.348327
O O5 0.078534 0.385832 0.261768
O O6 0.120236 0.611904 0.168849
O O7 0.785967 0.250000 0.428849
O O8 0.750000 0.087758 0.250000
O O9 0.761576 0.000000 0.500000
O O10 0.000000 0.250000 0.188088
O O11 0.078774 0.250000 0.037175
#
# Coordination Sequence:
#
# PCOD9540625 Si02
#       5
#     8  16  16   8   8
#     4   8  17  34  55  85 127 174 222 262 320 386
#     4   9  21  37  56  91 129 172 218 271 334 398
#     4  11  26  49  74 102 134 173 224 283 345 412
#     4  12  19  30  57  92 137 177 227 285 330 385
#     4   8  21  30  53  85 129 178 216 260 328 385
#
# _framework density 20.9192
#
# number of rings (size 3 to 8) (size 9 to 14) (size 15 to 20)
#    1.714    0.286    1.429    2.143    4.000    4.000 
#    0.000    0.000    0.000    5.143    0.000    0.000 
#    0.000    0.000    0.000    0.000    0.000    0.000 
#
# Total GULP energy -156104.363381 kJ/mol
# GULP energy per Si atom -5575.155835 kJ/mol
# Density = 2.087159 g / cm^3
# Si number density = 20.919200 Si / 1000 Ang^3
#
#
#
# Elastic Constant Matrix: (Units=GPa)
#
#
# Indices 1 2 3 4 5 6 
#
# 1 69.8064 47.1043 11.0465 0.0000 0.0000 0.0000
# 2 47.1043 197.2448 49.4529 0.0000 0.0000 0.0000
# 3 11.0465 49.4529 73.1461 0.0000 0.0000 0.0000
# 4 0.0000 0.0000 0.0000 35.1319 0.0000 0.0000
# 5 0.0000 0.0000 0.0000 0.0000 5.2731 0.0000
# 6 0.0000 0.0000 0.0000 0.0000 0.0000 14.9220
#
#
#
# Elastic Compliance Matrix: (Units=1/GPa)
#
#
# Indices 1 2 3 4 5 6 
#
# 1 0.017080 -0.004133 0.000215 0.000000 0.000000 0.000000
# 2 -0.004133 0.007105 -0.004179 0.000000 0.000000 0.000000
# 3 0.000215 -0.004179 0.016464 0.000000 0.000000 0.000000
# 4 0.000000 0.000000 0.000000 0.028464 0.000000 0.000000
# 5 0.000000 0.000000 0.000000 0.000000 0.189641 0.000000
# 6 0.000000 0.000000 0.000000 0.000000 0.000000 0.067015
#
#
# Mechanical properties :
#
#
# Convention : Reuss Voigt Hill
#
# Bulk Modulus (GPa) = 40.89230 61.71163 51.30196
# Shear Modulus (GPa) = 14.28101 26.57165 20.42633
#
# Velocity S-wave (km/s) = 2.61564 3.56786 3.12819
# Velocity P-wave (km/s) = 5.35838 6.82179 6.13389
#
# Compressibility (1/GPa) = 0.02445448
#
# Stress axis : x y z
#
# Youngs Moduli (GPa) = 58.54774 140.75427 60.73740
#
# Poissons Ratio (x) = 0.58170 -0.01304
# Poissons Ratio (y) = 0.24196 0.25383
# Poissons Ratio (z) = -0.01257 0.58824
#
# Static dielectric constant tensor:
#      x y z
#    x 1.691650 0.000000 0.000000 
#    y 0.000000 1.794760 0.000000 
#    z 0.000000 0.000000 1.796240 
# 
# From -- ./inp_files/25887.got.cif
#   From: 2010.05.17/outbox.cif.g08.bks.cpg/sg74_13_cif.got.tgz:25887.got - 2010.06.03 17:57:02.
