data_PCOD9540797
_publ_section_title
;
Structure prediction by ZEFSAII (Michael W. Deem and Ramdas Pophale) SiO2 
 PCOD9540797
Probable space group: I M M A
;
_chemical_formula_sum "Si O2"
_cell_formula_units_Z 40
_cell_length_a 9.000000
_cell_length_b 24.000000
_cell_length_c 21.000000
_cell_angle_alpha 90.000000
_cell_angle_beta 90.000000
_cell_angle_gamma 90.000000
_cell_volume 4536.000000
_symmetry_space_group_name_H-M "I M M A"
_symmetry_group_IT_number 74
_symmetry_cell_setting 'orthorhombic'
loop_
_space_group_symop_operation_xyz
x,y,z
-x,1/2-y,z
x,-y,-z
-x,1/2+y,-z
-x,-y,-z
x,1/2+y,-z
-x,y,z
x,1/2-y,z
1/2+x,1/2+y,1/2+z
1/2-x,-y,1/2+z
1/2+x,1/2-y,1/2-z
1/2-x,y,1/2-z
1/2-x,1/2-y,1/2-z
1/2+x,y,1/2-z
1/2-x,1/2+y,1/2+z
1/2+x,-y,1/2+z
loop_
_atom_site_type_symbol
_atom_site_label
_atom_site_fract_x
_atom_site_fract_y
_atom_site_fract_z
Si Si1 0.678960 0.865755 0.645184
Si Si2 0.679828 0.367494 0.005236
Si Si3 0.172136 0.535721 0.065046
Si Si4 0.828319 0.750000 0.651534
Si Si5 0.831452 0.250000 0.503515
Si Si6 0.821452 0.977462 0.685963
O O1 0.500000 0.870050 0.649034
O O2 0.734836 0.874379 0.572144
O O3 0.738521 0.805703 0.667799
O O4 0.763716 0.914071 0.682162
O O5 0.500000 0.366733 0.016667
O O6 0.726606 0.412854 0.954963
O O7 0.734941 0.308318 0.978401
O O8 0.249944 0.505112 0.123545
O O9 0.000000 0.548957 0.080080
O O10 0.169881 0.500000 0.000000
O O11 0.835742 0.750000 0.573888
O O12 0.000000 0.750000 0.674009
O O13 0.000000 0.250000 0.527163
O O14 0.750000 0.002450 0.750000
O O15 0.000000 0.980115 0.685982
#
# Coordination Sequence:
#
# PCOD9540797 Si02
#       6
#    16  16  16   8   8  16
#     4  11  20  33  52  78 109 143 183 229 277 325
#     4  10  18  31  53  80 110 146 184 225 275 326
#     4  11  22  36  56  83 114 144 185 233 276 326
#     4   9  17  31  50  74 103 142 186 228 272 321
#     4   7  14  27  45  74 109 138 173 220 267 319
#     4  12  25  41  59  79 108 146 186 229 281 335
#
# _framework density 8.8183419999999995
#
# number of rings (size 3 to 8) (size 9 to 14) (size 15 to 20)
#    0.000    1.600    2.000    6.300    0.000    0.800 
#    0.000    2.000    0.000    0.000    0.000    0.700 
#    0.000    0.000    0.000    0.000    0.000    0.000 
#
# Total GULP energy -223029.692420 kJ/mol
# GULP energy per Si atom -5575.742310 kJ/mol
# Density = 0.879827 g / cm^3
# Si number density = 8.818342 Si / 1000 Ang^3
#
#
#
# Elastic Constant Matrix: (Units=GPa)
#
#
# Indices 1 2 3 4 5 6 
#
# 1 122.9660 -2.2754 28.7287 0.0000 0.0000 0.0000
# 2 -2.2754 58.7002 29.5041 0.0000 0.0000 0.0000
# 3 28.7287 29.5041 82.5825 0.0000 0.0000 0.0000
# 4 0.0000 0.0000 0.0000 4.8799 0.0000 0.0000
# 5 0.0000 0.0000 0.0000 0.0000 21.1090 0.0000
# 6 0.0000 0.0000 0.0000 0.0000 0.0000 21.5147
#
#
#
# Elastic Compliance Matrix: (Units=1/GPa)
#
#
# Indices 1 2 3 4 5 6 
#
# 1 0.009115 0.002373 -0.004019 0.000000 0.000000 0.000000
# 2 0.002373 0.021382 -0.008465 0.000000 0.000000 0.000000
# 3 -0.004019 -0.008465 0.016531 0.000000 0.000000 0.000000
# 4 0.000000 0.000000 0.000000 0.204921 0.000000 0.000000
# 5 0.000000 0.000000 0.000000 0.000000 0.047373 0.000000
# 6 0.000000 0.000000 0.000000 0.000000 0.000000 0.046480
#
#
# Mechanical properties :
#
#
# Convention : Reuss Voigt Hill
#
# Bulk Modulus (GPa) = 37.30217 41.79594 39.54906
# Shear Modulus (GPa) = 13.33476 23.38683 18.36080
#
# Velocity S-wave (km/s) = 2.75268 3.64542 3.23004
# Velocity P-wave (km/s) = 5.59457 6.43961 6.03191
#
# Compressibility (1/GPa) = 0.02680809
#
# Stress axis : x y z
#
# Youngs Moduli (GPa) = 109.70711 46.76759 60.49096
#
# Poissons Ratio (x) = -0.11099 0.24311
# Poissons Ratio (y) = -0.26037 0.51205
# Poissons Ratio (z) = 0.44090 0.39588
#
# Static dielectric constant tensor:
#      x y z
#    x 1.577600 0.000000 0.000000 
#    y 0.000000 1.681790 0.000000 
#    z 0.000000 0.000000 1.625290 
# 
# From -- ./inp_files/48601.got.cif
#   From: 2010.05.17/outbox.ucp.g08.bks.cvg/sg74_25_cif.got.tgz:48601.got - 2010.06.11 16:37:44.
