data_PCOD9540398
_publ_section_title
;
Structure prediction by ZEFSAII (Michael W. Deem and Ramdas Pophale) SiO2 
 PCOD9540398
Probable space group: I M M A
;
_chemical_formula_sum "Si O2"
_cell_formula_units_Z 64
_cell_length_a 14.519901
_cell_length_b 8.901775
_cell_length_c 28.810442
_cell_angle_alpha 90.000000
_cell_angle_beta 90.000000
_cell_angle_gamma 90.000000
_cell_volume 3723.832940
_symmetry_space_group_name_H-M "I M M A"
_symmetry_group_IT_number 74
_symmetry_cell_setting 'orthorhombic'
loop_
_space_group_symop_operation_xyz
x,y,z
-x,1/2-y,z
x,-y,-z
-x,1/2+y,-z
-x,-y,-z
x,1/2+y,-z
-x,y,z
x,1/2-y,z
1/2+x,1/2+y,1/2+z
1/2-x,-y,1/2+z
1/2+x,1/2-y,1/2-z
1/2-x,y,1/2-z
1/2-x,1/2-y,1/2-z
1/2+x,y,1/2-z
1/2-x,1/2+y,1/2+z
1/2+x,-y,1/2+z
loop_
_atom_site_type_symbol
_atom_site_label
_atom_site_fract_x
_atom_site_fract_y
_atom_site_fract_z
Si Si1 0.500000 0.428548 0.302282
Si Si2 0.500000 0.071490 0.798236
Si Si3 0.357442 0.930386 0.121343
Si Si4 0.143889 0.068888 0.871503
Si Si5 0.000000 0.070671 0.448960
Si Si6 0.500000 0.570273 0.449546
O O1 0.500000 0.250000 0.305357
O O2 0.500000 0.482368 0.249356
O O3 0.588662 0.494350 0.329337
O O4 0.500000 0.250000 0.788142
O O5 0.412136 0.038298 0.830935
O O6 0.363893 0.750000 0.113478
O O7 0.250725 0.972254 0.125262
O O8 0.411903 0.012700 0.080298
O O9 0.137633 0.250000 0.866189
O O10 0.088477 0.027996 0.918342
O O11 0.000000 0.250000 0.451596
O O12 0.000000 0.000000 0.500000
O O13 0.500000 0.750000 0.454105
O O14 0.500000 0.500000 0.500000
#
# Coordination Sequence:
#
# PCOD9540398 Si02
#       6
#     8   8  16  16   8   8
#     4  11  22  34  51  77 109 141 175 215 258 312
#     4   9  18  34  55  77 103 135 171 215 268 322
#     4   9  19  37  59  80 102 134 179 224 266 315
#     4   9  19  37  57  76 102 137 177 219 263 311
#     4  11  22  36  55  79 111 145 177 217 262 312
#     4   9  18  32  51  75 103 133 165 207 256 306
#
# _framework density 17.186592000000001
#
# number of rings (size 3 to 8) (size 9 to 14) (size 15 to 20)
#    0.000    2.500    0.000    3.750    0.000    7.000 
#    0.000    7.500    0.000    0.000    0.000    0.000 
#    0.000    0.000    0.000    0.000    0.000    0.000 
#
# Total GULP energy -178555.325812 kJ/mol
# GULP energy per Si atom -5579.853932 kJ/mol
# Density = 1.714747 g / cm^3
# Si number density = 17.186592 Si / 1000 Ang^3
#
#
#
# Elastic Constant Matrix: (Units=GPa)
#
#
# Indices 1 2 3 4 5 6 
#
# 1 192.3356 64.6288 96.2459 0.0000 0.0000 0.0000
# 2 64.6288 61.1474 72.2186 0.0000 0.0000 0.0000
# 3 96.2459 72.2186 164.9263 0.0000 0.0000 0.0000
# 4 0.0000 0.0000 0.0000 35.1525 0.0000 0.0000
# 5 0.0000 0.0000 0.0000 0.0000 4.4799 0.0000
# 6 0.0000 0.0000 0.0000 0.0000 0.0000 17.1511
#
#
#
# Elastic Compliance Matrix: (Units=1/GPa)
#
#
# Indices 1 2 3 4 5 6 
#
# 1 0.008400 -0.006397 -0.002101 0.000000 0.000000 0.000000
# 2 -0.006397 0.038743 -0.013232 0.000000 0.000000 0.000000
# 3 -0.002101 -0.013232 0.013083 0.000000 0.000000 0.000000
# 4 0.000000 0.000000 0.000000 0.028447 0.000000 0.000000
# 5 0.000000 0.000000 0.000000 0.000000 0.223222 0.000000
# 6 0.000000 0.000000 0.000000 0.000000 0.000000 0.058305
#
#
# Mechanical properties :
#
#
# Convention : Reuss Voigt Hill
#
# Bulk Modulus (GPa) = 59.64193 98.28844 78.96519
# Shear Modulus (GPa) = 11.92611 23.71109 17.81860
#
# Velocity S-wave (km/s) = 2.63709 3.71836 3.22339
# Velocity P-wave (km/s) = 6.63704 8.70334 7.73946
#
# Compressibility (1/GPa) = 0.01676673
#
# Stress axis : x y z
#
# Youngs Moduli (GPa) = 119.04633 25.81141 76.43399
#
# Poissons Ratio (x) = 0.16512 0.16057
# Poissons Ratio (y) = 0.76156 1.01134
# Poissons Ratio (z) = 0.25009 0.34153
#
# Static dielectric constant tensor:
#      x y z
#    x 1.575320 0.000000 0.000000 
#    y 0.000000 1.576670 0.000000 
#    z 0.000000 0.000000 1.548790 
# 
# From -- ./inp_files/56508.got.cif
#   From: 2010.05.17/outbox.cif.g08.bks.cpg/sg74_29_cif.got.tgz:56508.got - 2010.06.03 17:57:02.
