data_PCOD9540285
_publ_section_title
;
Structure prediction by ZEFSAII (Michael W. Deem and Ramdas Pophale) SiO2 
 PCOD9540285
Probable space group: I M M A
;
_chemical_formula_sum "Si O2"
_cell_formula_units_Z 112
_cell_length_a 28.144976
_cell_length_b 14.306386
_cell_length_c 14.244886
_cell_angle_alpha 90.000000
_cell_angle_beta 90.000000
_cell_angle_gamma 90.000000
_cell_volume 5735.744524
_symmetry_space_group_name_H-M "I M M A"
_symmetry_group_IT_number 74
_symmetry_cell_setting 'orthorhombic'
loop_
_space_group_symop_operation_xyz
x,y,z
-x,1/2-y,z
x,-y,-z
-x,1/2+y,-z
-x,-y,-z
x,1/2+y,-z
-x,y,z
x,1/2-y,z
1/2+x,1/2+y,1/2+z
1/2-x,-y,1/2+z
1/2+x,1/2-y,1/2-z
1/2-x,y,1/2-z
1/2-x,1/2-y,1/2-z
1/2+x,y,1/2-z
1/2-x,1/2+y,1/2+z
1/2+x,-y,1/2+z
loop_
_atom_site_type_symbol
_atom_site_label
_atom_site_fract_x
_atom_site_fract_y
_atom_site_fract_z
Si Si1 0.700848 0.352499 0.695735
Si Si2 0.870946 0.994916 0.728089
Si Si3 0.709620 0.143063 0.172386
Si Si4 0.443860 0.139715 0.785489
Si Si5 0.383288 0.641375 0.608379
Si Si6 0.447302 0.637560 0.436471
Si Si7 0.217020 0.890072 0.982102
O O1 0.682802 0.250000 0.725547
O O2 0.750000 0.370473 0.750000
O O3 0.663433 0.431913 0.718980
O O4 0.710424 0.349268 0.585186
O O5 0.834519 0.927324 0.673130
O O6 0.894292 0.925753 0.804843
O O7 0.908870 0.060288 0.673789
O O8 0.695086 0.250000 0.194237
O O9 0.750000 0.116013 0.250000
O O10 0.736245 0.139940 0.073050
O O11 0.500000 0.126758 0.806516
O O12 0.432930 0.250000 0.804155
O O13 0.437604 0.122344 0.673112
O O14 0.395240 0.750000 0.627176
O O15 0.409883 0.607555 0.514236
O O16 0.327593 0.635380 0.583486
O O17 0.500000 0.602120 0.458074
O O18 0.448245 0.750000 0.444379
O O19 0.218054 0.000000 0.000000
#
# Coordination Sequence:
#
# PCOD9540285 Si02
#       7
#    16  16  16  16  16  16  16
#     4  11  23  37  52  77 109 139 175 229 289 338
#     4  12  21  34  52  77 105 142 193 238 275 329
#     4  11  22  37  54  76 109 149 192 236 275 322
#     4   9  19  35  53  74 104 143 187 236 291 345
#     4  11  21  31  48  71 101 143 190 231 271 318
#     4   8  16  30  45  66  98 135 179 230 276 321
#     4  12  21  36  55  75 105 143 189 230 281 333
#
# _framework density 19.526672000000001
#
# number of rings (size 3 to 8) (size 9 to 14) (size 15 to 20)
#    0.000    1.429    2.857    5.143    0.000    1.714 
#    0.000    1.429    0.000    1.286    0.000    0.000 
#    0.000    5.143    0.000    7.571    0.000    2.286 
#
# Total GULP energy -312705.774025 kJ/mol
# GULP energy per Si atom -5584.031679 kJ/mol
# Density = 1.948223 g / cm^3
# Si number density = 19.526672 Si / 1000 Ang^3
#
#
#
# Elastic Constant Matrix: (Units=GPa)
#
#
# Indices 1 2 3 4 5 6 
#
# 1 86.0349 44.0243 4.9217 0.0000 0.0000 0.0000
# 2 44.0243 141.6558 1.7278 0.0000 0.0000 0.0000
# 3 4.9217 1.7278 5.2253 0.0000 0.0000 0.0000
# 4 0.0000 0.0000 0.0000 16.4834 0.0000 0.0000
# 5 0.0000 0.0000 0.0000 0.0000 24.8965 0.0000
# 6 0.0000 0.0000 0.0000 0.0000 0.0000 75.7787
#
#
#
# Elastic Compliance Matrix: (Units=1/GPa)
#
#
# Indices 1 2 3 4 5 6 
#
# 1 0.014565 -0.004377 -0.012271 0.000000 0.000000 0.000000
# 2 -0.004377 0.008403 0.001344 0.000000 0.000000 0.000000
# 3 -0.012271 0.001344 0.202489 0.000000 0.000000 0.000000
# 4 0.000000 0.000000 0.000000 0.060667 0.000000 0.000000
# 5 0.000000 0.000000 0.000000 0.000000 0.040166 0.000000
# 6 0.000000 0.000000 0.000000 0.000000 0.000000 0.013196
#
#
# Mechanical properties :
#
#
# Convention : Reuss Voigt Hill
#
# Bulk Modulus (GPa) = 5.13218 37.14039 21.13628
# Shear Modulus (GPa) = 11.49307 35.58121 23.53714
#
# Velocity S-wave (km/s) = 2.42870 4.27334 3.47563
# Velocity P-wave (km/s) = 3.24019 6.58864 5.19177
#
# Compressibility (1/GPa) = 0.19484903
#
# Stress axis : x y z
#
# Youngs Moduli (GPa) = 68.65855 119.00198 4.93853
#
# Poissons Ratio (x) = 0.52085 0.06060
# Poissons Ratio (y) = 0.30051 -0.00664
# Poissons Ratio (z) = 0.84253 -0.15994
#
# Static dielectric constant tensor:
#      x y z
#    x 1.723620 0.000000 0.000000 
#    y 0.000000 1.743450 0.000000 
#    z 0.000000 0.000000 1.681380 
# 
# From -- ./inp_files/33126.got.cif
#   From: 2010.05.17/outbox.cif.g08.bks.cpg/sg74_17_cif.got.tgz:33126.got - 2010.06.03 17:57:02.
