data_PCOD9540058
_publ_section_title
;
Structure prediction by ZEFSAII (Michael W. Deem and Ramdas Pophale) SiO2 
 PCOD9540058
Probable space group: I M M A
;
_chemical_formula_sum "Si O2"
_cell_formula_units_Z 48
_cell_length_a 19.477529
_cell_length_b 10.066833
_cell_length_c 10.760673
_cell_angle_alpha 90.000000
_cell_angle_beta 90.000000
_cell_angle_gamma 90.000000
_cell_volume 2109.920821
_symmetry_space_group_name_H-M "I M M A"
_symmetry_group_IT_number 74
_symmetry_cell_setting 'orthorhombic'
loop_
_space_group_symop_operation_xyz
x,y,z
-x,1/2-y,z
x,-y,-z
-x,1/2+y,-z
-x,-y,-z
x,1/2+y,-z
-x,y,z
x,1/2-y,z
1/2+x,1/2+y,1/2+z
1/2-x,-y,1/2+z
1/2+x,1/2-y,1/2-z
1/2-x,y,1/2-z
1/2-x,1/2-y,1/2-z
1/2+x,y,1/2-z
1/2-x,1/2+y,1/2+z
1/2+x,-y,1/2+z
loop_
_atom_site_type_symbol
_atom_site_label
_atom_site_fract_x
_atom_site_fract_y
_atom_site_fract_z
Si Si1 0.581232 0.398405 0.102410
Si Si2 0.771246 0.900923 0.108233
Si Si3 0.576614 0.103949 0.679599
O O1 0.500000 0.383830 0.075688
O O2 0.610848 0.250000 0.106502
O O3 0.584788 0.479444 0.230049
O O4 0.608344 0.500000 0.000000
O O5 0.745148 0.750000 0.091678
O O6 0.750000 0.940430 0.250000
O O7 0.854449 0.894841 0.100597
O O8 0.749736 0.000000 0.000000
O O9 0.500000 0.096352 0.621812
O O10 0.577501 0.250000 0.746448
#
# Coordination Sequence:
#
# PCOD9540058 Si02
#       3
#    16  16  16
#     4   9  16  26  43  71 109 152 195 239 291 352
#     4  10  23  43  65  91 124 163 207 253 304 364
#     4   9  18  34  56  83 116 152 193 246 303 357
#
# _framework density 22.749669000000001
#
# number of rings (size 3 to 8) (size 9 to 14) (size 15 to 20)
#    0.000    2.667    0.000    1.000    0.000    8.000 
#    0.000    3.333    0.000    0.000    0.000    0.000 
#    0.000    0.000    0.000    0.000    0.000    0.000 
#
# Total GULP energy -133762.639136 kJ/mol
# GULP energy per Si atom -5573.443297 kJ/mol
# Density = 2.269789 g / cm^3
# Si number density = 22.749669 Si / 1000 Ang^3
#
#
#
# Elastic Constant Matrix: (Units=GPa)
#
#
# Indices 1 2 3 4 5 6 
#
# 1 130.9117 16.6735 17.3689 0.0000 0.0000 0.0000
# 2 16.6735 214.2764 86.1177 0.0000 0.0000 0.0000
# 3 17.3689 86.1177 96.4103 0.0000 0.0000 0.0000
# 4 0.0000 0.0000 0.0000 27.1026 0.0000 0.0000
# 5 0.0000 0.0000 0.0000 0.0000 9.9646 0.0000
# 6 0.0000 0.0000 0.0000 0.0000 0.0000 -45.3379
#
#
#
# Elastic Compliance Matrix: (Units=1/GPa)
#
#
# Indices 1 2 3 4 5 6 
#
# 1 0.007826 -0.000066 -0.001351 0.000000 0.000000 0.000000
# 2 -0.000066 0.007281 -0.006492 0.000000 0.000000 0.000000
# 3 -0.001351 -0.006492 0.016415 0.000000 0.000000 0.000000
# 4 0.000000 0.000000 0.000000 0.036897 0.000000 0.000000
# 5 0.000000 0.000000 0.000000 0.000000 0.100355 0.000000
# 6 0.000000 0.000000 0.000000 0.000000 0.000000 -0.022057
#
#
# Mechanical properties :
#
#
# Convention : Reuss Voigt Hill
#
# Bulk Modulus (GPa) = 63.67717 75.76875 69.72296
# Shear Modulus (GPa) = 29.80268 19.77509 24.78888
#
# Velocity S-wave (km/s) = 3.62336 2.95150 3.30455
# Velocity P-wave (km/s) = 6.74952 6.70767 6.72863
#
# Compressibility (1/GPa) = 0.01570422
#
# Stress axis : x y z
#
# Youngs Moduli (GPa) = 127.77282 137.34189 60.92157
#
# Poissons Ratio (x) = 0.00907 0.08230
# Poissons Ratio (y) = 0.00844 0.39550
# Poissons Ratio (z) = 0.17262 0.89161
#
# Static dielectric constant tensor:
#      x y z
#    x 1.889770 0.000000 0.000000 
#    y 0.000000 1.851100 0.000000 
#    z 0.000000 0.000000 1.887900 
# 
# From -- ./inp_files/17058.got.cif
#   From: 2010.05.17/outbox.cif.g08.bks.cpg/sg74_9_cif.got.tgz:17058.got - 2010.06.03 17:57:02.
