data_PCOD9540214
_publ_section_title
;
Structure prediction by ZEFSAII (Michael W. Deem and Ramdas Pophale) SiO2 
 PCOD9540214
Probable space group: I M M A
;
_chemical_formula_sum "Si O2"
_cell_formula_units_Z 64
_cell_length_a 14.257587
_cell_length_b 10.417957
_cell_length_c 25.109321
_cell_angle_alpha 90.000000
_cell_angle_beta 90.000000
_cell_angle_gamma 90.000000
_cell_volume 3729.611194
_symmetry_space_group_name_H-M "I M M A"
_symmetry_group_IT_number 74
_symmetry_cell_setting 'orthorhombic'
loop_
_space_group_symop_operation_xyz
x,y,z
-x,1/2-y,z
x,-y,-z
-x,1/2+y,-z
-x,-y,-z
x,1/2+y,-z
-x,y,z
x,1/2-y,z
1/2+x,1/2+y,1/2+z
1/2-x,-y,1/2+z
1/2+x,1/2-y,1/2-z
1/2-x,y,1/2-z
1/2-x,1/2-y,1/2-z
1/2+x,y,1/2-z
1/2-x,1/2+y,1/2+z
1/2+x,-y,1/2+z
loop_
_atom_site_type_symbol
_atom_site_label
_atom_site_fract_x
_atom_site_fract_y
_atom_site_fract_z
Si Si1 0.357501 0.605335 0.268681
Si Si2 0.807246 0.992738 0.119872
Si Si3 0.110926 0.250000 0.941996
Si Si4 0.396998 0.905682 0.151283
Si Si5 0.387904 0.750000 0.569321
O O1 0.390304 0.750000 0.281650
O O2 0.250000 0.615464 0.250000
O O3 0.356295 0.523136 0.322086
O O4 0.402918 0.559346 0.213996
O O5 0.839055 0.124710 0.093763
O O6 0.843103 0.875177 0.084017
O O7 0.694934 0.973778 0.127617
O O8 0.000000 0.250000 0.930706
O O9 0.123250 0.250000 0.005516
O O10 0.500000 0.932261 0.127134
O O11 0.381697 0.750000 0.149423
O O12 0.500000 0.750000 0.580497
#
# Coordination Sequence:
#
# PCOD9540214 Si02
#       5
#    16  16   8  16   8
#     4   8  14  28  51  81 109 136 177 219 255 306
#     4  11  19  37  58  80 110 146 178 219 274 324
#     4  11  22  38  60  79  97 135 192 236 272 321
#     4   9  17  31  56  88 115 140 177 222 262 312
#     4  11  26  40  52  77 111 141 178 232 284 321
#
# _framework density 17.159965
#
# number of rings (size 3 to 8) (size 9 to 14) (size 15 to 20)
#    0.000    2.250    2.500    3.000    0.000    4.000 
#    0.000    6.250    0.000    4.500    0.000    0.000 
#    0.000    0.000    0.000    0.000    0.000    0.000 
#
# Total GULP energy -178283.372857 kJ/mol
# GULP energy per Si atom -5571.355402 kJ/mol
# Density = 1.712091 g / cm^3
# Si number density = 17.159965 Si / 1000 Ang^3
#
#
#
# Elastic Constant Matrix: (Units=GPa)
#
#
# Indices 1 2 3 4 5 6 
#
# 1 158.6987 63.1343 61.2957 0.0000 0.0000 0.0000
# 2 63.1343 122.1497 60.8505 0.0000 0.0000 0.0000
# 3 61.2957 60.8505 90.8067 0.0000 0.0000 0.0000
# 4 0.0000 0.0000 0.0000 2.1638 0.0000 0.0000
# 5 0.0000 0.0000 0.0000 0.0000 20.8484 0.0000
# 6 0.0000 0.0000 0.0000 0.0000 0.0000 9.0058
#
#
#
# Elastic Compliance Matrix: (Units=1/GPa)
#
#
# Indices 1 2 3 4 5 6 
#
# 1 0.008981 -0.002435 -0.004431 0.000000 0.000000 0.000000
# 2 -0.002435 0.012949 -0.007034 0.000000 0.000000 0.000000
# 3 -0.004431 -0.007034 0.018717 0.000000 0.000000 0.000000
# 4 0.000000 0.000000 0.000000 0.462140 0.000000 0.000000
# 5 0.000000 0.000000 0.000000 0.000000 0.047965 0.000000
# 6 0.000000 0.000000 0.000000 0.000000 0.000000 0.111040
#
#
# Mechanical properties :
#
#
# Convention : Reuss Voigt Hill
#
# Bulk Modulus (GPa) = 77.83232 82.46845 80.15039
# Shear Modulus (GPa) = 7.20592 18.82857 13.01724
#
# Velocity S-wave (km/s) = 2.05143 3.31605 2.75722
# Velocity P-wave (km/s) = 7.14609 7.92620 7.54623
#
# Compressibility (1/GPa) = 0.01284813
#
# Stress axis : x y z
#
# Youngs Moduli (GPa) = 111.34324 77.22543 53.42792
#
# Poissons Ratio (x) = 0.18802 0.23673
# Poissons Ratio (y) = 0.27109 0.37580
# Poissons Ratio (z) = 0.49335 0.54319
#
# Static dielectric constant tensor:
#      x y z
#    x 1.670350 0.000000 0.000000 
#    y 0.000000 1.551300 0.000000 
#    z 0.000000 0.000000 1.584730 
# 
# From -- ./inp_files/59520.got.cif
#   From: 2010.05.17/outbox.cif.g08.bks.cpg/sg74_30_cif.got.tgz:59520.got - 2010.06.03 17:57:02.
