data_PCOD9540363
_publ_section_title
;
Structure prediction by ZEFSAII (Michael W. Deem and Ramdas Pophale) SiO2 
 PCOD9540363
Probable space group: I M M A
;
_chemical_formula_sum "Si O2"
_cell_formula_units_Z 56
_cell_length_a 10.974112
_cell_length_b 19.596083
_cell_length_c 14.562222
_cell_angle_alpha 90.000000
_cell_angle_beta 90.000000
_cell_angle_gamma 90.000000
_cell_volume 3131.600156
_symmetry_space_group_name_H-M "I M M A"
_symmetry_group_IT_number 74
_symmetry_cell_setting 'orthorhombic'
loop_
_space_group_symop_operation_xyz
x,y,z
-x,1/2-y,z
x,-y,-z
-x,1/2+y,-z
-x,-y,-z
x,1/2+y,-z
-x,y,z
x,1/2-y,z
1/2+x,1/2+y,1/2+z
1/2-x,-y,1/2+z
1/2+x,1/2-y,1/2-z
1/2-x,y,1/2-z
1/2-x,1/2-y,1/2-z
1/2+x,y,1/2-z
1/2-x,1/2+y,1/2+z
1/2+x,-y,1/2+z
loop_
_atom_site_type_symbol
_atom_site_label
_atom_site_fract_x
_atom_site_fract_y
_atom_site_fract_z
Si Si1 0.141687 0.040151 0.414137
Si Si2 0.000000 0.596743 0.929646
Si Si3 0.500000 0.441027 0.645066
Si Si4 0.757996 0.329304 0.139329
Si Si5 0.750000 0.544244 0.250000
O O1 0.161778 0.120641 0.408816
O O2 0.000000 0.025573 0.412315
O O3 0.198493 0.000000 0.500000
O O4 0.199099 0.004910 0.327342
O O5 0.000000 0.522885 0.878170
O O6 0.115900 0.639066 0.895435
O O7 0.000000 0.589451 0.040923
O O8 0.625799 0.423001 0.702408
O O9 0.744940 0.250000 0.115697
O O10 0.750000 0.334979 0.250000
#
# Coordination Sequence:
#
# PCOD9540363 Si02
#       5
#    16   8   8  16   8
#     4  11  22  36  56  85 125 159 199 249 306 362
#     4  11  21  38  54  86 117 170 203 252 306 381
#     4  11  22  34  63  82 127 154 217 264 311 359
#     4  11  23  36  57  87 124 160 195 244 306 379
#     4  12  20  36  55  92 117 162 198 262 310 362
#
# _framework density 17.882232999999999
#
# number of rings (size 3 to 8) (size 9 to 14) (size 15 to 20)
#    0.000    0.857    5.714    2.143    2.000    0.571 
#    0.000    0.000    0.000    0.000    0.000   25.000 
#    0.000    0.000    0.000    0.000    0.000    0.000 
#
# Total GULP energy -156001.352053 kJ/mol
# GULP energy per Si atom -5571.476859 kJ/mol
# Density = 1.784153 g / cm^3
# Si number density = 17.882233 Si / 1000 Ang^3
#
#
#
# Elastic Constant Matrix: (Units=GPa)
#
#
# Indices 1 2 3 4 5 6 
#
# 1 101.8936 8.3314 48.3397 0.0000 0.0000 0.0000
# 2 8.3314 76.7231 53.9491 0.0001 0.0000 0.0000
# 3 48.3397 53.9491 128.7082 0.0001 0.0000 0.0000
# 4 0.0000 0.0001 0.0001 23.9400 0.0000 0.0000
# 5 0.0000 0.0000 0.0000 0.0000 28.1972 0.0000
# 6 0.0000 0.0000 0.0000 0.0000 0.0000 8.0901
#
#
#
# Elastic Compliance Matrix: (Units=1/GPa)
#
#
# Indices 1 2 3 4 5 6 
#
# 1 0.012329 0.002718 -0.005770 0.000000 0.000000 0.000000
# 2 0.002718 0.019080 -0.009019 0.000000 0.000000 0.000000
# 3 -0.005770 -0.009019 0.013717 0.000000 0.000000 0.000000
# 4 0.000000 0.000000 0.000000 0.041771 0.000000 0.000000
# 5 0.000000 0.000000 0.000000 0.000000 0.035464 0.000000
# 6 0.000000 0.000000 0.000000 0.000000 0.000000 0.123608
#
#
# Mechanical properties :
#
#
# Convention : Reuss Voigt Hill
#
# Bulk Modulus (GPa) = 47.65095 58.72947 53.19021
# Shear Modulus (GPa) = 18.04368 25.15911 21.60140
#
# Velocity S-wave (km/s) = 3.17997 3.75498 3.47937
# Velocity P-wave (km/s) = 6.33939 7.19121 6.77869
#
# Compressibility (1/GPa) = 0.02098594
#
# Stress axis : x y z
#
# Youngs Moduli (GPa) = 81.10782 52.41010 72.90307
#
# Poissons Ratio (x) = -0.14247 0.42065
# Poissons Ratio (y) = -0.22049 0.65749
# Poissons Ratio (z) = 0.46800 0.47267
#
# Static dielectric constant tensor:
#      x y z
#    x 1.721730 0.000000 0.000000 
#    y 0.000000 1.586260 0.000000 
#    z 0.000000 0.000000 1.553820 
# 
# From -- ./inp_files/18381.got.cif
#   From: 2010.05.17/outbox.cif.g08.bks.cpg/sg74_10_cif.got.tgz:18381.got - 2010.06.03 17:57:02.
