data_PCOD9540867
_publ_section_title
;
Structure prediction by ZEFSAII (Michael W. Deem and Ramdas Pophale) SiO2 
 PCOD9540867
Probable space group: I M M A
;
_chemical_formula_sum "Si O2"
_cell_formula_units_Z 48
_cell_length_a 9.000000
_cell_length_b 27.000000
_cell_length_c 21.000000
_cell_angle_alpha 90.000000
_cell_angle_beta 90.000000
_cell_angle_gamma 90.000000
_cell_volume 5103.000000
_symmetry_space_group_name_H-M "I M M A"
_symmetry_group_IT_number 74
_symmetry_cell_setting 'orthorhombic'
loop_
_space_group_symop_operation_xyz
x,y,z
-x,1/2-y,z
x,-y,-z
-x,1/2+y,-z
-x,-y,-z
x,1/2+y,-z
-x,y,z
x,1/2-y,z
1/2+x,1/2+y,1/2+z
1/2-x,-y,1/2+z
1/2+x,1/2-y,1/2-z
1/2-x,y,1/2-z
1/2-x,1/2-y,1/2-z
1/2+x,y,1/2-z
1/2-x,1/2+y,1/2+z
1/2+x,-y,1/2+z
loop_
_atom_site_type_symbol
_atom_site_label
_atom_site_fract_x
_atom_site_fract_y
_atom_site_fract_z
Si Si1 0.322962 0.644029 0.052580
Si Si2 0.829618 0.466980 0.686128
Si Si3 0.175774 0.037713 0.943139
Si Si4 0.670243 0.810537 0.814330
Si Si5 0.169009 0.845886 0.312290
Si Si6 0.665411 0.809080 0.560969
O O1 0.500000 0.638722 0.057982
O O2 0.252392 0.590183 0.043437
O O3 0.265598 0.666789 0.119101
O O4 0.276071 0.677624 0.994824
O O5 0.750000 0.484273 0.750000
O O6 0.742879 0.481698 0.622945
O O7 0.828838 0.406391 0.687939
O O8 0.000000 0.482629 0.683616
O O9 0.000000 0.045001 0.936051
O O10 0.204291 0.000000 0.000000
O O11 0.500000 0.826666 0.818006
O O12 0.669011 0.750000 0.815091
O O13 0.750000 0.826012 0.750000
O O14 0.766461 0.828224 0.873560
O O15 0.250000 0.827840 0.250000
O O16 0.000000 0.829276 0.309324
O O17 0.500000 0.828812 0.548720
O O18 0.655647 0.750000 0.566389
#
# Coordination Sequence:
#
# PCOD9540867 Si02
#       6
#    16  16  16  16  16  16
#     4  10  20  33  50  73 100 130 164 202 246 294
#     4   9  16  27  45  69  96 125 160 202 244 286
#     4  10  20  33  50  73 101 132 165 202 245 293
#     4   9  16  27  45  69  96 125 159 200 242 284
#     4   8  15  26  42  66  92 119 153 194 237 279
#     4  10  20  33  50  73 100 130 164 202 245 293
#
# _framework density 9.4062319999999993
#
# number of rings (size 3 to 8) (size 9 to 14) (size 15 to 20)
#    0.000    2.667    0.000    3.500    0.000    9.000 
#    0.000    0.000    0.000    1.500    0.000    2.333 
#    0.000    0.000    0.000    0.000    0.000    0.000 
#
# Total GULP energy -267431.962526 kJ/mol
# GULP energy per Si atom -5571.499219 kJ/mol
# Density = 0.938482 g / cm^3
# Si number density = 9.406232 Si / 1000 Ang^3
#
#
#
# Elastic Constant Matrix: (Units=GPa)
#
#
# Indices 1 2 3 4 5 6 
#
# 1 -18.4761 9.3337 44.2019 0.0000 0.0000 0.0000
# 2 9.3337 -6.1705 13.9437 0.0000 0.0000 0.0000
# 3 44.2019 13.9437 139.7350 0.0000 0.0000 0.0000
# 4 0.0000 0.0000 0.0000 -27.7423 0.0000 0.0000
# 5 0.0000 0.0000 0.0000 0.0000 13.2552 0.0000
# 6 0.0000 0.0000 0.0000 0.0000 0.0000 22.0954
#
#
#
# Elastic Compliance Matrix: (Units=1/GPa)
#
#
# Indices 1 2 3 4 5 6 
#
# 1 -0.034184 -0.022254 0.013034 0.000000 0.000000 0.000000
# 2 -0.022254 -0.146730 0.021681 0.000000 0.000000 0.000000
# 3 0.013034 0.021681 0.000870 0.000000 0.000000 0.000000
# 4 0.000000 0.000000 0.000000 -0.036046 0.000000 0.000000
# 5 0.000000 0.000000 0.000000 0.000000 0.075442 0.000000
# 6 0.000000 0.000000 0.000000 0.000000 0.000000 0.045258
#
#
# Mechanical properties :
#
#
# Convention : Reuss Voigt Hill
#
# Bulk Modulus (GPa) = -6.44651 27.78300 10.66824
# Shear Modulus (GPa) = -29.06647 4.69561 -12.18543
#
# Velocity S-wave (km/s) = -3.93500 1.58159 -2.54782
# Velocity P-wave (km/s) = 4.90711 4.25860 1.72396
#
# Compressibility (1/GPa) = -0.15512263
#
# Stress axis : x y z
#
# Youngs Moduli (GPa) = -29.25343 -6.81522 1149.58814
#
# Poissons Ratio (x) = -0.15167 -14.98376
# Poissons Ratio (y) = -0.65102 -24.92471
# Poissons Ratio (z) = 0.38129 0.14776
#
# Static dielectric constant tensor:
#      x y z
#    x 1.644260 0.000000 0.000000 
#    y 0.000000 1.641860 0.000000 
#    z 0.000000 0.000000 1.679740 
# 
# From -- ./inp_files/49143.got.cif
#   From: 2010.05.17/outbox.ucp.g08.bks.cvg/sg74_25_cif.got.tgz:49143.got - 2010.06.11 16:37:44.
