data_PCOD9540496
_publ_section_title
;
Structure prediction by ZEFSAII (Michael W. Deem and Ramdas Pophale) SiO2 
 PCOD9540496
Probable space group: I M M A
;
_chemical_formula_sum "Si O2"
_cell_formula_units_Z 96
_cell_length_a 14.993980
_cell_length_b 15.142066
_cell_length_c 18.330199
_cell_angle_alpha 90.000000
_cell_angle_beta 90.000000
_cell_angle_gamma 90.000000
_cell_volume 4161.685352
_symmetry_space_group_name_H-M "I M M A"
_symmetry_group_IT_number 74
_symmetry_cell_setting 'orthorhombic'
loop_
_space_group_symop_operation_xyz
x,y,z
-x,1/2-y,z
x,-y,-z
-x,1/2+y,-z
-x,-y,-z
x,1/2+y,-z
-x,y,z
x,1/2-y,z
1/2+x,1/2+y,1/2+z
1/2-x,-y,1/2+z
1/2+x,1/2-y,1/2-z
1/2-x,y,1/2-z
1/2-x,1/2-y,1/2-z
1/2+x,y,1/2-z
1/2-x,1/2+y,1/2+z
1/2+x,-y,1/2+z
loop_
_atom_site_type_symbol
_atom_site_label
_atom_site_fract_x
_atom_site_fract_y
_atom_site_fract_z
Si Si1 0.142705 0.650157 0.339598
Si Si2 0.094876 0.401071 0.973474
Si Si3 0.264631 0.850025 0.585326
Si Si4 0.899047 0.043539 0.373555
Si Si5 0.396276 0.145050 0.279650
Si Si6 0.642808 0.651457 0.326825
O O1 0.119488 0.750000 0.365086
O O2 0.108743 0.562456 0.378127
O O3 0.250208 0.645731 0.333317
O O4 0.112517 0.640538 0.255487
O O5 0.102479 0.409715 0.886988
O O6 0.000000 0.359657 0.993594
O O7 0.097430 0.500000 0.000000
O O8 0.176504 0.353406 0.012341
O O9 0.233712 0.750000 0.597722
O O10 0.180113 0.913333 0.580660
O O11 0.328776 0.874437 0.653972
O O12 0.882434 0.082380 0.290949
O O13 0.000000 0.070021 0.393058
O O14 0.500000 0.134913 0.302292
O O15 0.384025 0.250000 0.260549
O O16 0.617150 0.750000 0.350122
#
# Coordination Sequence:
#
# PCOD9540496 Si02
#       6
#    16  16  16  16  16  16
#     4   9  20  38  62  90 121 161 206 253 312 373
#     4  11  24  38  59  93 130 167 205 248 309 381
#     4  11  23  39  60  86 125 172 210 254 311 371
#     4  11  23  36  59  89 120 160 209 264 312 361
#     4   9  19  35  56  85 118 155 203 254 308 371
#     4   9  19  37  60  86 118 159 203 248 299 367
#
# _framework density 23.067578000000001
#
# number of rings (size 3 to 8) (size 9 to 14) (size 15 to 20)
#    0.000    2.000    0.000    4.000    7.000    5.333 
#    0.000    1.667    0.000    4.500    0.000    4.667 
#    0.000    0.000    0.000    0.000    0.000    0.000 
#
# Total GULP energy -268343.439235 kJ/mol
# GULP energy per Si atom -5590.488317 kJ/mol
# Density = 2.301508 g / cm^3
# Si number density = 23.067578 Si / 1000 Ang^3
#
#
#
# Elastic Constant Matrix: (Units=GPa)
#
#
# Indices 1 2 3 4 5 6 
#
# 1 118.8698 49.0891 24.8114 0.0000 0.0000 0.0000
# 2 49.0891 115.6204 18.3294 0.0000 0.0000 0.0000
# 3 24.8114 18.3294 28.8212 0.0000 0.0000 0.0000
# 4 0.0000 0.0000 0.0000 26.9934 0.0000 0.0000
# 5 0.0000 0.0000 0.0000 0.0000 -0.8543 0.0000
# 6 0.0000 0.0000 0.0000 0.0000 0.0000 -24.9383
#
#
#
# Elastic Compliance Matrix: (Units=1/GPa)
#
#
# Indices 1 2 3 4 5 6 
#
# 1 0.011516 -0.003690 -0.007567 0.000000 0.000000 0.000000
# 2 -0.003690 0.010801 -0.003693 0.000000 0.000000 0.000000
# 3 -0.007567 -0.003693 0.043559 0.000000 0.000000 0.000000
# 4 0.000000 0.000000 0.000000 0.037046 0.000000 0.000000
# 5 0.000000 0.000000 0.000000 0.000000 -1.170614 0.000000
# 6 0.000000 0.000000 0.000000 0.000000 0.000000 -0.040099
#
#
# Mechanical properties :
#
#
# Convention : Reuss Voigt Hill
#
# Bulk Modulus (GPa) = 27.79540 49.75234 38.77387
# Shear Modulus (GPa) = -4.69087 11.64560 3.47737
#
# Velocity S-wave (km/s) = -1.42757 2.24932 1.22912
# Velocity P-wave (km/s) = 3.05916 5.32549 4.34277
#
# Compressibility (1/GPa) = 0.03597718
#
# Stress axis : x y z
#
# Youngs Moduli (GPa) = 86.83788 92.58476 22.95713
#
# Poissons Ratio (x) = 0.34160 0.17372
# Poissons Ratio (y) = 0.32040 0.08477
# Poissons Ratio (z) = 0.65711 0.34189
#
# Static dielectric constant tensor:
#      x y z
#    x 1.866190 0.000000 0.000000 
#    y 0.000000 1.865310 0.000000 
#    z 0.000000 0.000000 1.886290 
# 
# From -- ./inp_files/51910.got.cif
#   From: 2010.05.17/outbox.cif.g08.bks.cpg/sg74_26_cif.got.tgz:51910.got - 2010.06.03 17:57:02.
