data_PCOD9540758
_publ_section_title
;
Structure prediction by ZEFSAII (Michael W. Deem and Ramdas Pophale) SiO2 
 PCOD9540758
Probable space group: I M M A
;
_chemical_formula_sum "Si O2"
_cell_formula_units_Z 96
_cell_length_a 7.314620
_cell_length_b 19.893539
_cell_length_c 30.788183
_cell_angle_alpha 90.000000
_cell_angle_beta 90.000000
_cell_angle_gamma 90.000000
_cell_volume 4480.101755
_symmetry_space_group_name_H-M "I M M A"
_symmetry_group_IT_number 74
_symmetry_cell_setting 'orthorhombic'
loop_
_space_group_symop_operation_xyz
x,y,z
-x,1/2-y,z
x,-y,-z
-x,1/2+y,-z
-x,-y,-z
x,1/2+y,-z
-x,y,z
x,1/2-y,z
1/2+x,1/2+y,1/2+z
1/2-x,-y,1/2+z
1/2+x,1/2-y,1/2-z
1/2-x,y,1/2-z
1/2-x,1/2-y,1/2-z
1/2+x,y,1/2-z
1/2-x,1/2+y,1/2+z
1/2+x,-y,1/2+z
loop_
_atom_site_type_symbol
_atom_site_label
_atom_site_fract_x
_atom_site_fract_y
_atom_site_fract_z
Si Si1 0.718359 0.672965 0.200262
Si Si2 0.777554 0.571781 0.478304
Si Si3 0.722825 0.075731 0.131096
Si Si4 0.723144 0.423002 0.878489
Si Si5 0.777440 0.172772 0.447534
Si Si6 0.717493 0.822209 0.800816
O O1 0.500000 0.675852 0.195580
O O2 0.787867 0.750000 0.197673
O O3 0.750000 0.648380 0.250000
O O4 0.784502 0.626919 0.160102
O O5 0.719634 0.500000 0.500000
O O6 0.720815 0.586547 0.428800
O O7 0.724021 0.633683 0.508879
O O8 0.000000 0.568290 0.477915
O O9 0.500000 0.073172 0.129414
O O10 0.779141 0.123306 0.091331
O O11 0.786430 0.114216 0.173720
O O12 0.781812 0.999285 0.130661
O O13 0.500000 0.420281 0.878222
O O14 0.715980 0.250000 0.444091
O O15 0.000000 0.174804 0.446419
O O16 0.500000 0.820655 0.807919
O O17 0.789223 0.750000 0.816552
O O18 0.750000 0.826679 0.750000
#
# Coordination Sequence:
#
# PCOD9540758 Si02
#       6
#    16  16  16  16  16  16
#     4   9  18  32  48  66  90 119 150 186 227 268
#     4   9  14  22  34  51  79 112 142 173 212 259
#     4   9  15  24  37  54  77 106 138 172 209 252
#     4   9  16  25  40  59  82 113 145 176 215 260
#     4   9  15  21  32  51  75 106 141 173 208 255
#     4   9  17  28  41  57  79 107 138 173 210 246
#
# _framework density 21.428083000000001
#
# number of rings (size 3 to 8) (size 9 to 14) (size 15 to 20)
#    0.000    3.000    1.667    0.500    0.000    3.333 
#    0.000    3.333    0.000    0.000    0.000    0.000 
#    0.000    2.000    0.000    9.000    0.000    9.000 
#
# Total GULP energy -267714.036032 kJ/mol
# GULP energy per Si atom -5577.375751 kJ/mol
# Density = 2.137931 g / cm^3
# Si number density = 21.428083 Si / 1000 Ang^3
#
#
#
# Elastic Constant Matrix: (Units=GPa)
#
#
# Indices 1 2 3 4 5 6 
#
# 1 85.6030 4.0370 -2.0721 0.0000 0.0000 0.0000
# 2 4.0370 159.5258 102.9832 0.0000 0.0000 0.0000
# 3 -2.0721 102.9832 157.5301 0.0000 0.0000 0.0000
# 4 0.0000 0.0000 0.0000 47.3255 0.0000 0.0000
# 5 0.0000 0.0000 0.0000 0.0000 -0.6968 0.0000
# 6 0.0000 0.0000 0.0000 0.0000 0.0000 -6.8398
#
#
#
# Elastic Compliance Matrix: (Units=1/GPa)
#
#
# Indices 1 2 3 4 5 6 
#
# 1 0.011729 -0.000686 0.000603 0.000000 0.000000 0.000000
# 2 -0.000686 0.010886 -0.007126 0.000000 0.000000 0.000000
# 3 0.000603 -0.007126 0.011014 0.000000 0.000000 0.000000
# 4 0.000000 0.000000 0.000000 0.021130 0.000000 0.000000
# 5 0.000000 0.000000 0.000000 0.000000 -1.435214 0.000000
# 6 0.000000 0.000000 0.000000 0.000000 0.000000 -0.146204
#
#
# Mechanical properties :
#
#
# Convention : Reuss Voigt Hill
#
# Bulk Modulus (GPa) = 52.05265 68.06167 60.05716
# Shear Modulus (GPa) = -3.32041 27.80519 12.24239
#
# Velocity S-wave (km/s) = -1.24616 3.60614 2.39283
# Velocity P-wave (km/s) = 4.71953 7.01219 5.97682
#
# Compressibility (1/GPa) = 0.01921132
#
# Stress axis : x y z
#
# Youngs Moduli (GPa) = 85.26048 91.86226 90.79249
#
# Poissons Ratio (x) = 0.06300 -0.05471
# Poissons Ratio (y) = 0.05848 0.64694
# Poissons Ratio (z) = -0.05138 0.65457
#
# Static dielectric constant tensor:
#      x y z
#    x 1.860930 0.000000 0.000000 
#    y 0.000000 1.747460 0.000000 
#    z 0.000000 0.000000 1.741190 
# 
# From -- ./inp_files/58979.got.cif
#   From: 2010.05.17/outbox.cif.g08.bks.cpg/sg74_30_cif.got.tgz:58979.got - 2010.06.03 17:57:02.
