data_PCOD9540311
_publ_section_title
;
Structure prediction by ZEFSAII (Michael W. Deem and Ramdas Pophale) SiO2 
 PCOD9540311
Probable space group: I M M A
;
_chemical_formula_sum "Si O2"
_cell_formula_units_Z 96
_cell_length_a 11.228659
_cell_length_b 14.500179
_cell_length_c 32.506982
_cell_angle_alpha 90.000000
_cell_angle_beta 90.000000
_cell_angle_gamma 90.000000
_cell_volume 5292.707669
_symmetry_space_group_name_H-M "I M M A"
_symmetry_group_IT_number 74
_symmetry_cell_setting 'orthorhombic'
loop_
_space_group_symop_operation_xyz
x,y,z
-x,1/2-y,z
x,-y,-z
-x,1/2+y,-z
-x,-y,-z
x,1/2+y,-z
-x,y,z
x,1/2-y,z
1/2+x,1/2+y,1/2+z
1/2-x,-y,1/2+z
1/2+x,1/2-y,1/2-z
1/2-x,y,1/2-z
1/2-x,1/2-y,1/2-z
1/2+x,y,1/2-z
1/2-x,1/2+y,1/2+z
1/2+x,-y,1/2+z
loop_
_atom_site_type_symbol
_atom_site_label
_atom_site_fract_x
_atom_site_fract_y
_atom_site_fract_z
Si Si1 0.240343 0.855240 0.432067
Si Si2 0.365494 0.138335 0.015735
Si Si3 0.255589 0.356771 0.401415
Si Si4 0.360700 0.483640 0.860803
Si Si5 0.500000 0.112839 0.544910
Si Si6 0.362756 0.357978 0.780271
Si Si7 0.000000 0.607786 0.948894
O O1 0.195501 0.750000 0.429431
O O2 0.212216 0.894332 0.477612
O O3 0.180703 0.915430 0.397136
O O4 0.382526 0.854996 0.431606
O O5 0.500000 0.113289 0.006852
O O6 0.354539 0.250000 0.016696
O O7 0.327991 0.109836 0.060935
O O8 0.231904 0.250000 0.391058
O O9 0.223979 0.426814 0.365032
O O10 0.385119 0.363263 0.422539
O O11 0.500000 0.509140 0.865635
O O12 0.349450 0.426845 0.818585
O O13 0.500000 0.142715 0.496464
O O14 0.500000 0.002251 0.546737
O O15 0.500000 0.370463 0.763711
O O16 0.356319 0.250000 0.793427
O O17 0.250000 0.372562 0.750000
#
# Coordination Sequence:
#
# PCOD9540311 Si02
#       7
#    16  16  16  16   8  16   8
#     4  11  21  34  52  77 110 148 190 235 289 345
#     4   9  18  31  48  71 102 144 191 234 275 326
#     4  11  22  37  56  77 107 151 201 244 285 335
#     4  11  23  38  58  86 118 147 182 235 289 336
#     4  11  21  35  53  74 107 153 202 253 295 340
#     4   9  19  40  68  95 123 154 183 216 274 353
#     4  11  21  37  55  72 105 157 208 249 297 336
#
# _framework density 18.138164
#
# number of rings (size 3 to 8) (size 9 to 14) (size 15 to 20)
#    0.000    1.667    3.333    2.000    0.000    4.000 
#    3.000    1.667    0.000    0.500    0.000    0.000 
#    0.000    0.000    0.000    0.000    0.000    0.000 
#
# Total GULP energy -267831.576480 kJ/mol
# GULP energy per Si atom -5579.824510 kJ/mol
# Density = 1.809688 g / cm^3
# Si number density = 18.138164 Si / 1000 Ang^3
#
#
#
# Elastic Constant Matrix: (Units=GPa)
#
#
# Indices 1 2 3 4 5 6 
#
# 1 81.6013 13.0511 33.5937 0.0000 0.0000 0.0000
# 2 13.0511 103.3391 35.9401 0.0000 0.0000 0.0000
# 3 33.5937 35.9401 56.2554 0.0000 0.0000 0.0000
# 4 0.0000 0.0000 0.0000 13.0005 0.0000 0.0000
# 5 0.0000 0.0000 0.0000 0.0000 26.4813 0.0000
# 6 0.0000 0.0000 0.0000 0.0000 0.0000 10.5361
#
#
#
# Elastic Compliance Matrix: (Units=1/GPa)
#
#
# Indices 1 2 3 4 5 6 
#
# 1 0.016485 0.001725 -0.010947 0.000000 0.000000 0.000000
# 2 0.001725 0.012622 -0.009094 0.000000 0.000000 0.000000
# 3 -0.010947 -0.009094 0.030123 0.000000 0.000000 0.000000
# 4 0.000000 0.000000 0.000000 0.076920 0.000000 0.000000
# 5 0.000000 0.000000 0.000000 0.000000 0.037763 0.000000
# 6 0.000000 0.000000 0.000000 0.000000 0.000000 0.094912
#
#
# Mechanical properties :
#
#
# Convention : Reuss Voigt Hill
#
# Bulk Modulus (GPa) = 44.24936 45.15172 44.70054
# Shear Modulus (GPa) = 15.97505 20.57763 18.27634
#
# Velocity S-wave (km/s) = 2.97095 3.37188 3.17774
# Velocity P-wave (km/s) = 6.01809 6.33298 6.17754
#
# Compressibility (1/GPa) = 0.02259920
#
# Stress axis : x y z
#
# Youngs Moduli (GPa) = 60.66020 79.22829 33.19746
#
# Poissons Ratio (x) = -0.13668 0.36340
# Poissons Ratio (y) = -0.10464 0.30189
# Poissons Ratio (z) = 0.66402 0.72049
#
# Static dielectric constant tensor:
#      x y z
#    x 1.657380 0.000000 0.000000 
#    y 0.000000 1.664350 0.000000 
#    z 0.000000 0.000000 1.605840 
# 
# From -- ./inp_files/71821.got.cif
#   From: 2010.05.17/outbox.cif.g08.bks.cpg/sg74_36_cif.got.tgz:71821.got - 2010.06.03 17:57:02.
