data_PCOD9540668
_publ_section_title
;
Structure prediction by ZEFSAII (Michael W. Deem and Ramdas Pophale) SiO2 
 PCOD9540668
Probable space group: I M M A
;
_chemical_formula_sum "Si O2"
_cell_formula_units_Z 72
_cell_length_a 28.080218
_cell_length_b 12.940213
_cell_length_c 9.095398
_cell_angle_alpha 90.000000
_cell_angle_beta 90.000000
_cell_angle_gamma 90.000000
_cell_volume 3304.940217
_symmetry_space_group_name_H-M "I M M A"
_symmetry_group_IT_number 74
_symmetry_cell_setting 'orthorhombic'
loop_
_space_group_symop_operation_xyz
x,y,z
-x,1/2-y,z
x,-y,-z
-x,1/2+y,-z
-x,-y,-z
x,1/2+y,-z
-x,y,z
x,1/2-y,z
1/2+x,1/2+y,1/2+z
1/2-x,-y,1/2+z
1/2+x,1/2-y,1/2-z
1/2-x,y,1/2-z
1/2-x,1/2-y,1/2-z
1/2+x,y,1/2-z
1/2-x,1/2+y,1/2+z
1/2+x,-y,1/2+z
loop_
_atom_site_type_symbol
_atom_site_label
_atom_site_fract_x
_atom_site_fract_y
_atom_site_fract_z
Si Si1 0.604901 0.750000 0.523931
Si Si2 0.599968 0.250000 0.966567
Si Si3 0.677760 0.250000 0.214808
Si Si4 0.000000 0.250000 0.030756
Si Si5 0.104653 0.926590 0.221908
Si Si6 0.797374 0.022571 0.325749
Si Si7 0.000000 0.428893 0.785827
Si Si8 0.500000 0.250000 0.959702
O O1 0.648002 0.750000 0.635520
O O2 0.552556 0.750000 0.598709
O O3 0.607935 0.648780 0.419119
O O4 0.602876 0.349073 0.861029
O O5 0.548852 0.250000 0.043830
O O6 0.640512 0.250000 0.082514
O O7 0.705305 0.144676 0.194676
O O8 0.000000 0.148711 0.924777
O O9 0.052319 0.981908 0.215523
O O10 0.152839 0.990109 0.247264
O O11 0.750000 0.974820 0.250000
O O12 0.799241 0.000000 0.500000
O O13 0.000000 0.349943 0.647356
#
# Coordination Sequence:
#
# PCOD9540668 Si02
#       8
#     8   8   8   4  16  16   8   4
#     4   9  20  35  68 101 137 177 213 265 316 392
#     4   9  16  35  60  94 128 168 206 262 309 378
#     4  12  25  43  63  96 134 159 217 277 327 373
#     4   7  12  31  54  96 140 176 212 248 314 378
#     4   9  18  40  67  95 130 173 220 251 322 388
#     4  12  28  48  69  93 129 170 218 275 329 390
#     4   7  12  28  63  95 123 168 214 260 296 385
#     4   7  12  23  54  90 128 162 204 246 316 370
#
# _framework density 21.785568999999999
#
# number of rings (size 3 to 8) (size 9 to 14) (size 15 to 20)
#    0.000    2.444    2.222    3.000    3.111    0.444 
#    0.000    5.556    0.000    4.000    0.000    0.000 
#    0.000    0.000    0.000    0.000    0.000    0.000 
#
# Total GULP energy -200806.653157 kJ/mol
# GULP energy per Si atom -5577.962588 kJ/mol
# Density = 2.173598 g / cm^3
# Si number density = 21.785569 Si / 1000 Ang^3
#
#
#
# Elastic Constant Matrix: (Units=GPa)
#
#
# Indices 1 2 3 4 5 6 
#
# 1 164.2190 53.4097 49.9335 0.0000 0.0000 0.0000
# 2 53.4097 72.9663 15.6622 0.0000 0.0000 0.0000
# 3 49.9335 15.6622 98.3025 0.0000 0.0000 0.0000
# 4 0.0000 0.0000 0.0000 16.7687 0.0000 0.0000
# 5 0.0000 0.0000 0.0000 0.0000 255.4157 0.0000
# 6 0.0000 0.0000 0.0000 0.0000 0.0000 -136.1318
#
#
#
# Elastic Compliance Matrix: (Units=1/GPa)
#
#
# Indices 1 2 3 4 5 6 
#
# 1 0.009129 -0.005888 -0.003699 0.000000 0.000000 0.000000
# 2 -0.005888 0.017988 0.000125 0.000000 0.000000 0.000000
# 3 -0.003699 0.000125 0.012032 0.000000 0.000000 0.000000
# 4 0.000000 0.000000 0.000000 0.059635 0.000000 0.000000
# 5 0.000000 0.000000 0.000000 0.000000 0.003915 0.000000
# 6 0.000000 0.000000 0.000000 0.000000 0.000000 -0.007346
#
#
# Mechanical properties :
#
#
# Convention : Reuss Voigt Hill
#
# Bulk Modulus (GPa) = 49.44524 63.72204 56.58364
# Shear Modulus (GPa) = 41.31541 41.64268 41.47904
#
# Velocity S-wave (km/s) = 4.35956 4.37679 4.36818
# Velocity P-wave (km/s) = 6.93445 7.40641 7.17431
#
# Compressibility (1/GPa) = 0.02022439
#
# Stress axis : x y z
#
# Youngs Moduli (GPa) = 109.53698 55.59159 83.11336
#
# Poissons Ratio (x) = 0.32735 0.30745
# Poissons Ratio (y) = 0.64500 -0.01039
# Poissons Ratio (z) = 0.40519 -0.00695
#
# Static dielectric constant tensor:
#      x y z
#    x 1.752300 0.000000 0.000000 
#    y 0.000000 1.797970 0.000000 
#    z 0.000000 0.000000 1.765650 
# 
# From -- ./inp_files/14804.got.cif
#   From: 2010.05.17/outbox.cif.g08.bks.cpg/sg74_8_cif.got.tgz:14804.got - 2010.06.03 17:57:02.
