data_PCOD9540703
_publ_section_title
;
Structure prediction by ZEFSAII (Michael W. Deem and Ramdas Pophale) SiO2 
 PCOD9540703
Probable space group: I M M A
;
_chemical_formula_sum "Si O2"
_cell_formula_units_Z 96
_cell_length_a 29.461931
_cell_length_b 17.152357
_cell_length_c 7.026550
_cell_angle_alpha 90.000000
_cell_angle_beta 90.000000
_cell_angle_gamma 90.000000
_cell_volume 3550.807727
_symmetry_space_group_name_H-M "I M M A"
_symmetry_group_IT_number 74
_symmetry_cell_setting 'orthorhombic'
loop_
_space_group_symop_operation_xyz
x,y,z
-x,1/2-y,z
x,-y,-z
-x,1/2+y,-z
-x,-y,-z
x,1/2+y,-z
-x,y,z
x,1/2-y,z
1/2+x,1/2+y,1/2+z
1/2-x,-y,1/2+z
1/2+x,1/2-y,1/2-z
1/2-x,y,1/2-z
1/2-x,1/2-y,1/2-z
1/2+x,y,1/2-z
1/2-x,1/2+y,1/2+z
1/2+x,-y,1/2+z
loop_
_atom_site_type_symbol
_atom_site_label
_atom_site_fract_x
_atom_site_fract_y
_atom_site_fract_z
Si Si1 0.446176 0.334420 0.688983
Si Si2 0.178737 0.502075 0.784169
Si Si3 0.929167 0.003218 0.215669
Si Si4 0.922426 0.166249 0.248874
Si Si5 0.683587 0.833956 0.767690
Si Si6 0.802359 0.332176 0.809539
O O1 0.500000 0.334190 0.653163
O O2 0.434624 0.250000 0.776934
O O3 0.435846 0.415999 0.791384
O O4 0.421638 0.336964 0.483515
O O5 0.124889 0.516144 0.793565
O O6 0.199466 0.578024 0.681222
O O7 0.181133 0.412764 0.720602
O O8 0.197442 0.500000 0.000000
O O9 0.945841 0.084600 0.303109
O O10 0.947362 0.000000 0.000000
O O11 0.944078 0.250000 0.295727
O O12 0.870022 0.168847 0.312539
O O13 0.703279 0.750000 0.835242
O O14 0.690254 0.834241 0.537559
O O15 0.823955 0.250000 0.746702
O O16 0.750000 0.329702 0.750000
#
# Coordination Sequence:
#
# PCOD9540703 Si02
#       6
#    16  16  16  16  16  16
#     4   9  15  19  22  30  45  63  80 100 129 159
#     4   8  13  21  31  41  51  66  88 108 127 154
#     4   8  13  19  27  36  44  58  81 105 125 147
#     4   8  13  20  28  37  47  59  79 106 130 152
#     4   8  13  22  34  43  51  66  89 112 131 156
#     4   9  15  20  27  41  58  70  79  99 134 165
#
# _framework density 27.036103000000001
#
# number of rings (size 3 to 8) (size 9 to 14) (size 15 to 20)
#    0.000    3.667    0.000    3.000    0.000    5.000 
#    0.000    0.000    0.000    0.500    0.000    0.000 
#    0.000    0.000    0.000    0.000    0.000    0.000 
#
# Total GULP energy -267555.026433 kJ/mol
# GULP energy per Si atom -5574.063051 kJ/mol
# Density = 2.697457 g / cm^3
# Si number density = 27.036103 Si / 1000 Ang^3
#
#
#
# Elastic Constant Matrix: (Units=GPa)
#
#
# Indices 1 2 3 4 5 6 
#
# 1 87.2076 -0.2180 -22.5014 0.0000 0.0000 0.0000
# 2 -0.2180 397.4854 3.5378 0.0000 0.0000 0.0000
# 3 -22.5014 3.5378 124.8364 0.0000 0.0000 0.0000
# 4 0.0000 0.0000 0.0000 843.6405 0.0000 0.0000
# 5 0.0000 0.0000 0.0000 0.0000 13.8240 0.0000
# 6 0.0000 0.0000 0.0000 0.0000 0.0000 39.3366
#
#
#
# Elastic Compliance Matrix: (Units=1/GPa)
#
#
# Indices 1 2 3 4 5 6 
#
# 1 0.012026 -0.000013 0.002168 0.000000 0.000000 0.000000
# 2 -0.000013 0.002516 -0.000074 0.000000 0.000000 0.000000
# 3 0.002168 -0.000074 0.008403 0.000000 0.000000 0.000000
# 4 0.000000 0.000000 0.000000 0.001185 0.000000 0.000000
# 5 0.000000 0.000000 0.000000 0.000000 0.072338 0.000000
# 6 0.000000 0.000000 0.000000 0.000000 0.000000 0.025422
#
#
# Mechanical properties :
#
#
# Convention : Reuss Voigt Hill
#
# Bulk Modulus (GPa) = 36.88733 63.46292 50.17513
# Shear Modulus (GPa) = 39.44340 221.27430 130.35885
#
# Velocity S-wave (km/s) = 3.82372 9.05658 6.95135
# Velocity P-wave (km/s) = 5.75915 11.52765 9.11193
#
# Compressibility (1/GPa) = 0.02710958
#
# Stress axis : x y z
#
# Youngs Moduli (GPa) = 83.15139 397.38306 119.00008
#
# Poissons Ratio (x) = 0.00505 -0.25800
# Poissons Ratio (y) = 0.00106 0.00876
# Poissons Ratio (z) = -0.18028 0.02925
#
# Static dielectric constant tensor:
#      x y z
#    x 2.121890 0.000000 0.000000 
#    y 0.000000 2.258300 0.000000 
#    z 0.000000 0.000000 2.042630 
# 
# From -- ./inp_files/26253.got.cif
#   From: 2010.05.17/outbox.cif.g08.bks.cpg/sg74_14_cif.got.tgz:26253.got - 2010.06.03 17:57:02.
