data_PCOD9540983
_publ_section_title
;
Structure prediction by ZEFSAII (Michael W. Deem and Ramdas Pophale) SiO2 
 PCOD9540983
Probable space group: I M M A
;
_chemical_formula_sum "Si O2"
_cell_formula_units_Z 32
_cell_length_a 9.000000
_cell_length_b 21.000000
_cell_length_c 18.000000
_cell_angle_alpha 90.000000
_cell_angle_beta 90.000000
_cell_angle_gamma 90.000000
_cell_volume 3402.000000
_symmetry_space_group_name_H-M "I M M A"
_symmetry_group_IT_number 74
_symmetry_cell_setting 'orthorhombic'
loop_
_space_group_symop_operation_xyz
x,y,z
-x,1/2-y,z
x,-y,-z
-x,1/2+y,-z
-x,-y,-z
x,1/2+y,-z
-x,y,z
x,1/2-y,z
1/2+x,1/2+y,1/2+z
1/2-x,-y,1/2+z
1/2+x,1/2-y,1/2-z
1/2-x,y,1/2-z
1/2-x,1/2-y,1/2-z
1/2+x,y,1/2-z
1/2-x,1/2+y,1/2+z
1/2+x,-y,1/2+z
loop_
_atom_site_type_symbol
_atom_site_label
_atom_site_fract_x
_atom_site_fract_y
_atom_site_fract_z
Si Si1 0.821705 0.616929 0.114158
Si Si2 0.319924 0.612503 0.951565
Si Si3 0.830332 0.750000 0.562123
Si Si4 0.322340 0.009027 0.175200
Si Si5 0.828070 0.250000 0.618956
O O1 0.754234 0.558808 0.160455
O O2 0.755775 0.685056 0.139946
O O3 0.000000 0.617756 0.116320
O O4 0.762583 0.605367 0.029906
O O5 0.500000 0.616146 0.965420
O O6 0.268429 0.680745 0.917822
O O7 0.294074 0.555338 0.894776
O O8 0.829989 0.750000 0.471741
O O9 0.000000 0.750000 0.588995
O O10 0.500000 0.001910 0.182817
O O11 0.250000 0.036311 0.250000
O O12 0.000000 0.250000 0.643506
#
# Coordination Sequence:
#
# PCOD9540983 Si02
#       5
#    16  16   8  16   8
#     4  11  21  34  56  85 112 139 177 224 271 321
#     4   9  18  34  57  81 107 143 184 223 268 323
#     4   7  12  27  52  79 103 131 171 216 259 309
#     4  11  23  38  54  75 107 147 188 228 273 323
#     4   9  17  33  56  81 110 141 174 216 267 321
#
# _framework density 9.4062319999999993
#
# number of rings (size 3 to 8) (size 9 to 14) (size 15 to 20)
#    0.000    2.250    0.000    5.625    0.000    5.000 
#    0.000    1.250    0.000    0.000    0.000    0.000 
#    0.000    0.000    0.000    0.000    0.000    0.000 
#
# Total GULP energy -178548.619514 kJ/mol
# GULP energy per Si atom -5579.644360 kJ/mol
# Density = 0.938482 g / cm^3
# Si number density = 9.406232 Si / 1000 Ang^3
#
#
#
# Elastic Constant Matrix: (Units=GPa)
#
#
# Indices 1 2 3 4 5 6 
#
# 1 99.6950 32.5287 16.9307 0.0000 0.0000 0.0000
# 2 32.5287 97.9695 8.6995 0.0000 0.0000 0.0000
# 3 16.9307 8.6995 31.6844 0.0000 0.0000 0.0000
# 4 0.0000 0.0000 0.0000 -3.3073 0.0000 0.0000
# 5 0.0000 0.0000 0.0000 0.0000 24.5058 0.0000
# 6 0.0000 0.0000 0.0000 0.0000 0.0000 22.5074
#
#
#
# Elastic Compliance Matrix: (Units=1/GPa)
#
#
# Indices 1 2 3 4 5 6 
#
# 1 0.012119 -0.003535 -0.005505 0.000000 0.000000 0.000000
# 2 -0.003535 0.011493 -0.001267 0.000000 0.000000 0.000000
# 3 -0.005505 -0.001267 0.034851 0.000000 0.000000 0.000000
# 4 0.000000 0.000000 0.000000 -0.302366 0.000000 0.000000
# 5 0.000000 0.000000 0.000000 0.000000 0.040807 0.000000
# 6 0.000000 0.000000 0.000000 0.000000 0.000000 0.044430
#
#
# Mechanical properties :
#
#
# Convention : Reuss Voigt Hill
#
# Bulk Modulus (GPa) = 26.42063 38.40742 32.41403
# Shear Modulus (GPa) = -39.86103 20.15387 -9.85358
#
# Velocity S-wave (km/s) = -4.60810 3.27663 -2.29111
# Velocity P-wave (km/s) = 3.77334 5.89706 3.20447
#
# Compressibility (1/GPa) = 0.03784921
#
# Stress axis : x y z
#
# Youngs Moduli (GPa) = 82.51564 87.00598 28.69377
#
# Poissons Ratio (x) = 0.30756 0.15796
# Poissons Ratio (y) = 0.29169 0.03635
# Poissons Ratio (z) = 0.45426 0.11022
#
# Static dielectric constant tensor:
#      x y z
#    x 1.626590 0.000000 0.000000 
#    y 0.000000 1.693860 0.000000 
#    z 0.000000 0.000000 1.640650 
# 
# From -- ./inp_files/28860.got.cif
#   From: 2010.05.17/outbox.ucp.g08.bks.cvg/sg74_15_cif.got.tgz:28860.got - 2010.06.11 16:37:44.
