data_PCOD9540314
_publ_section_title
;
Structure prediction by ZEFSAII (Michael W. Deem and Ramdas Pophale) SiO2 
 PCOD9540314
Probable space group: I M M A
;
_chemical_formula_sum "Si O2"
_cell_formula_units_Z 64
_cell_length_a 7.400087
_cell_length_b 23.282536
_cell_length_c 22.935350
_cell_angle_alpha 90.000000
_cell_angle_beta 90.000000
_cell_angle_gamma 90.000000
_cell_volume 3951.595487
_symmetry_space_group_name_H-M "I M M A"
_symmetry_group_IT_number 74
_symmetry_cell_setting 'orthorhombic'
loop_
_space_group_symop_operation_xyz
x,y,z
-x,1/2-y,z
x,-y,-z
-x,1/2+y,-z
-x,-y,-z
x,1/2+y,-z
-x,y,z
x,1/2-y,z
1/2+x,1/2+y,1/2+z
1/2-x,-y,1/2+z
1/2+x,1/2-y,1/2-z
1/2-x,y,1/2-z
1/2-x,1/2-y,1/2-z
1/2+x,y,1/2-z
1/2-x,1/2+y,1/2+z
1/2+x,-y,1/2+z
loop_
_atom_site_type_symbol
_atom_site_label
_atom_site_fract_x
_atom_site_fract_y
_atom_site_fract_z
Si Si1 0.500000 0.514737 0.596687
Si Si2 0.218058 0.312415 0.346546
Si Si3 0.500000 0.905498 0.481640
Si Si4 0.285087 0.684885 0.984717
Si Si5 0.213870 0.562062 0.684928
O O1 0.500000 0.557758 0.541530
O O2 0.500000 0.450973 0.570472
O O3 0.326950 0.528300 0.636731
O O4 0.285518 0.250000 0.325679
O O5 0.259296 0.317503 0.415507
O O6 0.279056 0.371204 0.317233
O O7 0.000000 0.311022 0.341525
O O8 0.672287 0.863600 0.483188
O O9 0.500000 0.676388 0.989981
O O10 0.242246 0.750000 0.003957
O O11 0.250000 0.540149 0.750000
O O12 0.000000 0.560747 0.672517
#
# Coordination Sequence:
#
# PCOD9540314 Si02
#       5
#     8  16   8  16  16
#     4  11  24  36  48  80 100 145 188 218 266 301
#     4   8  15  28  46  70  99 132 175 218 259 302
#     4  11  21  34  54  74 113 135 184 222 250 329
#     4   9  17  31  52  77 105 137 169 211 268 316
#     4  11  21  36  54  69 100 140 183 228 265 304
#
# _framework density 16.195989000000001
#
# number of rings (size 3 to 8) (size 9 to 14) (size 15 to 20)
#    0.000    2.250    3.750    1.875    0.000    1.500 
#    0.000    3.125    0.000    0.000    0.000    0.000 
#    0.000    4.000    0.000    0.000    0.000    0.000 
#
# Total GULP energy -178544.952909 kJ/mol
# GULP energy per Si atom -5579.529778 kJ/mol
# Density = 1.615913 g / cm^3
# Si number density = 16.195989 Si / 1000 Ang^3
#
#
#
# Elastic Constant Matrix: (Units=GPa)
#
#
# Indices 1 2 3 4 5 6 
#
# 1 92.7567 47.1548 35.3513 0.0000 0.0000 0.0000
# 2 47.1548 111.3774 56.4779 0.0000 0.0000 0.0000
# 3 35.3513 56.4779 77.0929 0.0000 0.0000 0.0000
# 4 0.0000 0.0000 0.0000 18.7573 0.0000 0.0000
# 5 0.0000 0.0000 0.0000 0.0000 15.7269 0.0000
# 6 0.0000 0.0000 0.0000 0.0000 0.0000 22.2825
#
#
#
# Elastic Compliance Matrix: (Units=1/GPa)
#
#
# Indices 1 2 3 4 5 6 
#
# 1 0.014267 -0.004332 -0.003368 0.000000 0.000000 0.000000
# 2 -0.004332 0.015601 -0.009443 0.000000 0.000000 0.000000
# 3 -0.003368 -0.009443 0.021434 0.000000 0.000000 0.000000
# 4 0.000000 0.000000 0.000000 0.053312 0.000000 0.000000
# 5 0.000000 0.000000 0.000000 0.000000 0.063585 0.000000
# 6 0.000000 0.000000 0.000000 0.000000 0.000000 0.044878
#
#
# Mechanical properties :
#
#
# Convention : Reuss Voigt Hill
#
# Bulk Modulus (GPa) = 58.77175 62.13279 60.45227
# Shear Modulus (GPa) = 19.76006 20.83621 20.29814
#
# Velocity S-wave (km/s) = 3.49672 3.59068 3.54401
# Velocity P-wave (km/s) = 7.25737 7.45902 7.35889
#
# Compressibility (1/GPa) = 0.01701498
#
# Stress axis : x y z
#
# Youngs Moduli (GPa) = 70.09150 64.09903 46.65589
#
# Poissons Ratio (x) = 0.27770 0.15716
# Poissons Ratio (y) = 0.30366 0.44055
# Poissons Ratio (z) = 0.23610 0.60526
#
# Static dielectric constant tensor:
#      x y z
#    x 1.579690 0.000000 0.000000 
#    y 0.000000 1.545830 0.000000 
#    z 0.000000 0.000000 1.516260 
# 
# From -- ./inp_files/48292.got.cif
#   From: 2010.05.17/outbox.cif.g08.bks.cpg/sg74_25_cif.got.tgz:48292.got - 2010.06.03 17:57:02.
