data_PCOD9540532
_publ_section_title
;
Structure prediction by ZEFSAII (Michael W. Deem and Ramdas Pophale) SiO2 
 PCOD9540532
Probable space group: I M M A
;
_chemical_formula_sum "Si O2"
_cell_formula_units_Z 68
_cell_length_a 16.739681
_cell_length_b 7.576425
_cell_length_c 23.521256
_cell_angle_alpha 90.000000
_cell_angle_beta 90.000000
_cell_angle_gamma 90.000000
_cell_volume 2983.128867
_symmetry_space_group_name_H-M "I M M A"
_symmetry_group_IT_number 74
_symmetry_cell_setting 'orthorhombic'
loop_
_space_group_symop_operation_xyz
x,y,z
-x,1/2-y,z
x,-y,-z
-x,1/2+y,-z
-x,-y,-z
x,1/2+y,-z
-x,y,z
x,1/2-y,z
1/2+x,1/2+y,1/2+z
1/2-x,-y,1/2+z
1/2+x,1/2-y,1/2-z
1/2-x,y,1/2-z
1/2-x,1/2-y,1/2-z
1/2+x,y,1/2-z
1/2-x,1/2+y,1/2+z
1/2+x,-y,1/2+z
loop_
_atom_site_type_symbol
_atom_site_label
_atom_site_fract_x
_atom_site_fract_y
_atom_site_fract_z
Si Si1 0.000000 0.250000 0.550369
Si Si2 0.908647 0.039020 0.289763
Si Si3 0.590834 0.459306 0.665723
Si Si4 0.694878 0.960486 0.439008
Si Si5 0.372498 0.953298 0.916171
O O1 0.069592 0.405541 0.555401
O O2 0.912034 0.250000 0.288406
O O3 0.868222 0.992704 0.349154
O O4 0.000000 0.969284 0.293129
O O5 0.874243 0.984104 0.229032
O O6 0.500000 0.531892 0.665975
O O7 0.584659 0.250000 0.656798
O O8 0.644112 0.529080 0.614429
O O9 0.704237 0.750000 0.433309
O O10 0.656072 0.000000 0.500000
O O11 0.782929 0.041820 0.438564
O O12 0.403205 0.750000 0.920226
#
# Coordination Sequence:
#
# PCOD9540532 Si02
#       5
#     4  16  16  16  16
#     4  12  22  40  70  96 132 172 214 250 322 380
#     4   9  18  33  57  90 129 163 201 254 312 373
#     4   9  20  37  62  93 125 166 213 257 318 386
#     4  11  24  43  63  87 125 169 215 273 324 371
#     4  11  23  40  66  97 131 169 213 259 317 380
#
# _framework density 22.794857
#
# number of rings (size 3 to 8) (size 9 to 14) (size 15 to 20)
#    0.000    1.882    2.353    1.059    1.647    3.294 
#    0.000    5.294    0.000    0.000    0.000    0.000 
#    0.000    0.000    0.000    0.000    0.000    0.000 
#
# Total GULP energy -189545.057207 kJ/mol
# GULP energy per Si atom -5574.854624 kJ/mol
# Density = 2.274297 g / cm^3
# Si number density = 22.794857 Si / 1000 Ang^3
#
#
#
# Elastic Constant Matrix: (Units=GPa)
#
#
# Indices 1 2 3 4 5 6 
#
# 1 51.7208 21.4339 40.3557 0.0000 0.0000 0.0000
# 2 21.4339 119.9810 13.5916 0.0000 0.0000 0.0000
# 3 40.3557 13.5916 172.4034 0.0000 0.0000 0.0000
# 4 0.0000 0.0000 0.0000 24.9909 0.0000 0.0000
# 5 0.0000 0.0000 0.0000 0.0000 46.4435 0.0000
# 6 0.0000 0.0000 0.0000 0.0000 0.0000 -0.7409
#
#
#
# Elastic Compliance Matrix: (Units=1/GPa)
#
#
# Indices 1 2 3 4 5 6 
#
# 1 0.025334 -0.003889 -0.005624 0.000000 0.000000 0.000000
# 2 -0.003889 0.009007 0.000200 0.000000 0.000000 0.000000
# 3 -0.005624 0.000200 0.007101 0.000000 0.000000 0.000000
# 4 0.000000 0.000000 0.000000 0.040015 0.000000 0.000000
# 5 0.000000 0.000000 0.000000 0.000000 0.021532 0.000000
# 6 0.000000 0.000000 0.000000 0.000000 0.000000 -1.349718
#
#
# Mechanical properties :
#
#
# Convention : Reuss Voigt Hill
#
# Bulk Modulus (GPa) = 43.82612 54.98529 49.40571
# Shear Modulus (GPa) = -4.09668 32.05361 13.97847
#
# Velocity S-wave (km/s) = -1.34205 3.75397 2.47903
# Velocity P-wave (km/s) = 4.10690 6.55469 5.46948
#
# Compressibility (1/GPa) = 0.02281744
#
# Stress axis : x y z
#
# Youngs Moduli (GPa) = 39.47273 111.02880 140.82703
#
# Poissons Ratio (x) = 0.43176 0.79195
# Poissons Ratio (y) = 0.15350 -0.02819
# Poissons Ratio (z) = 0.22198 -0.02223
#
# Static dielectric constant tensor:
#      x y z
#    x 1.808660 0.000000 0.000000 
#    y 0.000000 1.841580 0.000000 
#    z 0.000000 0.000000 1.920350 
# 
# From -- ./inp_files/52604.got.cif
#   From: 2010.05.17/outbox.cif.g08.bks.cpg/sg74_27_cif.got.tgz:52604.got - 2010.06.03 17:57:02.
