data_PCOD9540924
_publ_section_title
;
Structure prediction by ZEFSAII (Michael W. Deem and Ramdas Pophale) SiO2 
 PCOD9540924
Probable space group: I M M A
;
_chemical_formula_sum "Si O2"
_cell_formula_units_Z 36
_cell_length_a 21.000000
_cell_length_b 9.000000
_cell_length_c 21.000000
_cell_angle_alpha 90.000000
_cell_angle_beta 90.000000
_cell_angle_gamma 90.000000
_cell_volume 3969.000000
_symmetry_space_group_name_H-M "I M M A"
_symmetry_group_IT_number 74
_symmetry_cell_setting 'orthorhombic'
loop_
_space_group_symop_operation_xyz
x,y,z
-x,1/2-y,z
x,-y,-z
-x,1/2+y,-z
-x,-y,-z
x,1/2+y,-z
-x,y,z
x,1/2-y,z
1/2+x,1/2+y,1/2+z
1/2-x,-y,1/2+z
1/2+x,1/2-y,1/2-z
1/2-x,y,1/2-z
1/2-x,1/2-y,1/2-z
1/2+x,y,1/2-z
1/2-x,1/2+y,1/2+z
1/2+x,-y,1/2+z
loop_
_atom_site_type_symbol
_atom_site_label
_atom_site_fract_x
_atom_site_fract_y
_atom_site_fract_z
Si Si1 0.901730 0.075841 0.680529
Si Si2 0.163403 0.426508 0.070464
Si Si3 0.000000 0.070125 0.571057
Si Si4 0.273359 0.421719 0.176393
Si Si5 0.074771 0.080026 0.183009
O O1 0.914182 0.250000 0.688429
O O2 0.941632 0.026873 0.618221
O O3 0.829237 0.037645 0.666712
O O4 0.915672 0.999612 0.748942
O O5 0.154191 0.250000 0.059323
O O6 0.223256 0.442820 0.119003
O O7 0.107864 0.481907 0.119008
O O8 0.167745 0.500000 0.000000
O O9 0.000000 0.250000 0.563345
O O10 0.000000 0.000000 0.500000
O O11 0.295805 0.250000 0.172437
O O12 0.250000 0.440515 0.250000
O O13 0.099603 0.250000 0.190749
O O14 0.000000 0.084493 0.171562
#
# Coordination Sequence:
#
# PCOD9540924 Si02
#       5
#    16  16   8  16  16
#     4  11  22  37  59  89 120 147 190 245 293 339
#     4  10  22  39  58  85 120 153 191 240 290 342
#     4  10  24  42  58  84 121 154 189 240 293 344
#     4  10  20  38  61  84 114 153 198 238 280 344
#     4  10  20  37  62  87 113 154 201 235 279 348
#
# _framework density 9.0702949999999998
#
# number of rings (size 3 to 8) (size 9 to 14) (size 15 to 20)
#    0.000    1.778    3.333    0.667    0.000    5.333 
#    0.000    4.444    0.000    0.000    0.000    0.000 
#    0.000    0.000    0.000    0.000    0.000    0.000 
#
# Total GULP energy -200458.584537 kJ/mol
# GULP energy per Si atom -5568.294015 kJ/mol
# Density = 0.904965 g / cm^3
# Si number density = 9.070295 Si / 1000 Ang^3
#
#
#
# Elastic Constant Matrix: (Units=GPa)
#
#
# Indices 1 2 3 4 5 6 
#
# 1 52.1607 21.4657 41.6285 0.0000 0.0000 0.0000
# 2 21.4657 45.2155 56.0043 0.0000 0.0000 0.0000
# 3 41.6285 56.0043 205.9721 0.0000 0.0000 0.0000
# 4 0.0000 0.0000 0.0000 43.4962 0.0000 0.0000
# 5 0.0000 0.0000 0.0000 0.0000 31.7352 0.0000
# 6 0.0000 0.0000 0.0000 0.0000 0.0000 14.1981
#
#
#
# Elastic Compliance Matrix: (Units=1/GPa)
#
#
# Indices 1 2 3 4 5 6 
#
# 1 0.024805 -0.008393 -0.002731 0.000000 0.000000 0.000000
# 2 -0.008393 0.036187 -0.008143 0.000000 0.000000 0.000000
# 3 -0.002731 -0.008143 0.007621 0.000000 0.000000 0.000000
# 4 0.000000 0.000000 0.000000 0.022991 0.000000 0.000000
# 5 0.000000 0.000000 0.000000 0.000000 0.031511 0.000000
# 6 0.000000 0.000000 0.000000 0.000000 0.000000 0.070432
#
#
# Mechanical properties :
#
#
# Convention : Reuss Voigt Hill
#
# Bulk Modulus (GPa) = 33.24637 60.17171 46.70904
# Shear Modulus (GPa) = 20.65200 30.16923 25.41061
#
# Velocity S-wave (km/s) = 3.37774 4.08251 3.74673
# Velocity P-wave (km/s) = 5.79474 7.44743 6.67245
#
# Compressibility (1/GPa) = 0.03007847
#
# Stress axis : x y z
#
# Youngs Moduli (GPa) = 40.31391 27.63435 131.21453
#
# Poissons Ratio (x) = 0.23194 0.35837
# Poissons Ratio (y) = 0.33837 1.06847
# Poissons Ratio (z) = 0.11011 0.22502
#
# Static dielectric constant tensor:
#      x y z
#    x 1.702990 0.000000 0.000000 
#    y 0.000000 1.633290 0.000000 
#    z 0.000000 0.000000 1.584670 
# 
# From -- ./inp_files/39432.got.cif
#   From: 2010.05.17/outbox.ucp.g08.bks.cvg/sg74_20_cif.got.tgz:39432.got - 2010.06.11 16:37:44.
