data_PCOD9540992
_publ_section_title
;
Structure prediction by ZEFSAII (Michael W. Deem and Ramdas Pophale) SiO2 
 PCOD9540992
Probable space group: P 4
;
_chemical_formula_sum "Si O2"
_cell_formula_units_Z 25
_cell_length_a 11.557694
_cell_length_b 11.557694
_cell_length_c 9.173618
_cell_angle_alpha 90.000000
_cell_angle_beta 90.000000
_cell_angle_gamma 90.000000
_cell_volume 1225.414558
_symmetry_space_group_name_H-M "P 4"
_symmetry_group_IT_number 75
_symmetry_cell_setting 'tetragonal'
loop_
_space_group_symop_operation_xyz
x,y,z
-y,x,z
-x,-y,z
y,-x,z
loop_
_atom_site_type_symbol
_atom_site_label
_atom_site_fract_x
_atom_site_fract_y
_atom_site_fract_z
Si Si1 0.283808 0.972920 0.139240
Si Si2 0.626904 0.265883 0.108855
Si Si3 0.038430 0.626593 0.666830
Si Si4 0.815286 0.949373 0.434348
Si Si5 0.500000 0.500000 0.207458
Si Si6 0.404726 0.168264 0.964179
Si Si7 0.180552 0.944876 0.830714
O O1 0.333829 0.849971 0.194559
O O2 0.220675 0.043770 0.265415
O O3 0.201116 0.942357 0.003283
O O4 0.378047 0.056372 0.064029
O O5 0.570620 0.373485 0.195322
O O6 0.529949 0.218969 0.997998
O O7 0.734330 0.315073 0.016756
O O8 0.077506 0.704280 0.531782
O O9 0.130292 0.610115 0.797573
O O10 0.000000 0.500000 0.619077
O O11 0.934572 0.699834 0.744591
O O12 0.921480 0.864010 0.464365
O O13 0.075128 0.862077 0.793554
#
# Coordination Sequence:
#
# PCOD9540992 Si02
#       7
#     4   4   4   4   1   4   4
#     4  11  20  34  58  89 119 146 185 238 291 348
#     4  10  19  36  59  87 121 150 191 240 287 344
#     4  11  23  36  52  79 112 152 196 238 283 334
#     4  11  24  41  58  81 117 157 194 235 292 355
#     4   8  20  36  56  88 120 158 188 232 292 334
#     4  10  21  36  60  88 116 152 193 240 291 339
#     4  10  19  34  58  86 114 145 184 235 296 356
#
# _framework density 20.401260000000001
#
# number of rings (size 3 to 8) (size 9 to 14) (size 15 to 20)
#    0.000    1.600    0.000    7.200    0.000    6.400 
#    0.000    0.000    0.000    0.000    0.000    2.240 
#    0.000   12.800    0.000    0.000    0.000    0.000 
#
# Total GULP energy -139358.434236 kJ/mol
# GULP energy per Si atom -5574.337369 kJ/mol
# Density = 2.035483 g / cm^3
# Si number density = 20.401260 Si / 1000 Ang^3
#
#
#
# Elastic Constant Matrix: (Units=GPa)
#
#
# Indices 1 2 3 4 5 6 
#
# 1 114.6039 16.2816 -0.1727 0.0000 0.0000 10.2825
# 2 16.2816 114.6039 -0.1727 0.0000 0.0000 -10.2825
# 3 -0.1727 -0.1727 49.7184 0.0000 0.0000 0.0000
# 4 0.0000 0.0000 0.0000 19.5915 0.0000 0.0000
# 5 0.0000 0.0000 0.0000 0.0000 19.5915 0.0000
# 6 10.2825 -10.2825 0.0000 0.0000 0.0000 46.7440
#
#
#
# Elastic Compliance Matrix: (Units=1/GPa)
#
#
# Indices 1 2 3 4 5 6 
#
# 1 0.009151 -0.001510 0.000027 0.000000 0.000000 -0.002345
# 2 -0.001510 0.009151 0.000027 0.000000 0.000000 0.002345
# 3 0.000027 0.000027 0.020113 0.000000 0.000000 0.000000
# 4 0.000000 0.000000 0.000000 0.051042 0.000000 0.000000
# 5 0.000000 0.000000 0.000000 0.000000 0.051042 0.000000
# 6 -0.002345 0.002345 0.000000 0.000000 0.000000 0.022425
#
#
# Mechanical properties :
#
#
# Convention : Reuss Voigt Hill
#
# Bulk Modulus (GPa) = 28.16878 34.53317 31.35098
# Shear Modulus (GPa) = 28.14163 34.71809 31.42986
#
# Velocity S-wave (km/s) = 3.71807 4.12972 3.92929
# Velocity P-wave (km/s) = 5.68061 6.30104 5.99885
#
# Compressibility (1/GPa) = 0.03550029
#
# Stress axis : x y z
#
# Youngs Moduli (GPa) = 109.28080 109.28080 49.71798
#
# Poissons Ratio (x) = 0.16506 -0.00132
# Poissons Ratio (y) = 0.16506 -0.00132
# Poissons Ratio (z) = -0.00290 -0.00290
#
# Static dielectric constant tensor:
#      x y z
#    x 1.757620 0.000000 0.000000 
#    y 0.000000 1.757620 0.000000 
#    z 0.000000 0.000000 1.735590 
# 
# From -- ./inp_files/384.got.cif
#   From: 2010.05.17/outbox.cif.g08.bks.cpg/sg75_cif.got.tgz:384.got - 2010.06.03 18:42:43.
