data_PCOD9540087
_publ_section_title
;
Structure prediction by ZEFSAII (Michael W. Deem and Ramdas Pophale) SiO2 
 PCOD9540087
Probable space group: I M M A
;
_chemical_formula_sum "Si O2"
_cell_formula_units_Z 72
_cell_length_a 9.831169
_cell_length_b 20.726253
_cell_length_c 19.380095
_cell_angle_alpha 90.000000
_cell_angle_beta 90.000000
_cell_angle_gamma 90.000000
_cell_volume 3948.952034
_symmetry_space_group_name_H-M "I M M A"
_symmetry_group_IT_number 74
_symmetry_cell_setting 'orthorhombic'
loop_
_space_group_symop_operation_xyz
x,y,z
-x,1/2-y,z
x,-y,-z
-x,1/2+y,-z
-x,-y,-z
x,1/2+y,-z
-x,y,z
x,1/2-y,z
1/2+x,1/2+y,1/2+z
1/2-x,-y,1/2+z
1/2+x,1/2-y,1/2-z
1/2-x,y,1/2-z
1/2-x,1/2-y,1/2-z
1/2+x,y,1/2-z
1/2-x,1/2+y,1/2+z
1/2+x,-y,1/2+z
loop_
_atom_site_type_symbol
_atom_site_label
_atom_site_fract_x
_atom_site_fract_y
_atom_site_fract_z
Si Si1 0.000000 0.955807 0.281518
Si Si2 0.000000 0.534588 0.572766
Si Si3 0.000000 0.821348 0.702625
Si Si4 0.735865 0.368525 0.103686
Si Si5 0.000000 0.424607 0.177681
Si Si6 0.163542 0.750000 0.988126
Si Si7 0.163105 0.750000 0.147373
Si Si8 0.750000 0.362455 0.750000
O O1 0.129148 0.909278 0.273462
O O2 0.000000 0.993095 0.355530
O O3 0.000000 0.006936 0.217565
O O4 0.000000 0.500000 0.500000
O O5 0.866680 0.579142 0.573220
O O6 0.862299 0.832722 0.658997
O O7 0.000000 0.873621 0.761047
O O8 0.000000 0.750000 0.732113
O O9 0.784940 0.313889 0.050882
O O10 0.864247 0.407144 0.134964
O O11 0.000000 0.750000 0.985805
O O12 0.208389 0.750000 0.067905
O O13 0.211279 0.813764 0.187959
O O14 0.000000 0.750000 0.148747
#
# Coordination Sequence:
#
# PCOD9540087 Si02
#       8
#     8   8   8  16   8   8   8   8
#     4  12  24  42  68  94 130 174 211 272 322 379
#     4  11  27  45  62  92 135 169 218 263 331 404
#     4  11  23  36  61  89 131 170 216 269 312 354
#     4  11  23  42  62  93 129 172 217 264 320 384
#     4  12  24  41  63  96 130 175 225 262 308 389
#     4  11  23  42  67  96 132 172 215 273 328 379
#     4  10  23  46  68  99 130 157 215 275 329 401
#     4  11  24  44  72 100 121 166 216 270 339 384
#
# _framework density 18.232686000000001
#
# number of rings (size 3 to 8) (size 9 to 14) (size 15 to 20)
#    0.000    0.889    5.556    2.000    4.667    0.889 
#    0.000    2.778    0.000    0.000    0.000    0.000 
#    0.000    0.000    0.000    0.000    0.000    0.000 
#
# Total GULP energy -200984.637493 kJ/mol
# GULP energy per Si atom -5582.906597 kJ/mol
# Density = 1.819119 g / cm^3
# Si number density = 18.232686 Si / 1000 Ang^3
#
#
#
# Elastic Constant Matrix: (Units=GPa)
#
#
# Indices 1 2 3 4 5 6 
#
# 1 135.0302 69.5994 67.1868 0.0000 0.0000 0.0000
# 2 69.5994 162.8216 85.4960 0.0000 0.0000 0.0000
# 3 67.1868 85.4960 140.8967 0.0000 0.0000 0.0000
# 4 0.0000 0.0000 0.0000 5.6833 0.0000 0.0000
# 5 0.0000 0.0000 0.0000 0.0000 14.0093 0.0000
# 6 0.0000 0.0000 0.0000 0.0000 0.0000 68.2099
#
#
#
# Elastic Compliance Matrix: (Units=1/GPa)
#
#
# Indices 1 2 3 4 5 6 
#
# 1 0.010471 -0.002721 -0.003342 0.000000 0.000000 0.000000
# 2 -0.002721 0.009721 -0.004601 0.000000 0.000000 0.000000
# 3 -0.003342 -0.004601 0.011483 0.000000 0.000000 0.000000
# 4 0.000000 0.000000 0.000000 0.175954 0.000000 0.000000
# 5 0.000000 0.000000 0.000000 0.000000 0.071381 0.000000
# 6 0.000000 0.000000 0.000000 0.000000 0.000000 0.014661
#
#
# Mechanical properties :
#
#
# Convention : Reuss Voigt Hill
#
# Bulk Modulus (GPa) = 96.64994 98.14589 97.39792
# Shear Modulus (GPa) = 15.70116 32.01158 23.85637
#
# Velocity S-wave (km/s) = 2.93773 4.19468 3.62116
# Velocity P-wave (km/s) = 8.03936 8.79812 8.42728
#
# Compressibility (1/GPa) = 0.01034662
#
# Stress axis : x y z
#
# Youngs Moduli (GPa) = 95.49992 102.87227 87.08579
#
# Poissons Ratio (x) = 0.27993 0.29104
# Poissons Ratio (y) = 0.25987 0.40068
# Poissons Ratio (z) = 0.31916 0.47331
#
# Static dielectric constant tensor:
#      x y z
#    x 1.473370 0.000000 0.000000 
#    y 0.000000 1.663270 0.000000 
#    z 0.000000 0.000000 1.629310 
# 
# From -- ./inp_files/48469.got.cif
#   From: 2010.05.17/outbox.cif.g08.bks.cpg/sg74_25_cif.got.tgz:48469.got - 2010.06.03 17:57:02.
