data_PCOD9540102
_publ_section_title
;
Structure prediction by ZEFSAII (Michael W. Deem and Ramdas Pophale) SiO2 
 PCOD9540102
Probable space group: I M M A
;
_chemical_formula_sum "Si O2"
_cell_formula_units_Z 72
_cell_length_a 17.054455
_cell_length_b 22.931803
_cell_length_c 8.735781
_cell_angle_alpha 90.000000
_cell_angle_beta 90.000000
_cell_angle_gamma 90.000000
_cell_volume 3416.471370
_symmetry_space_group_name_H-M "I M M A"
_symmetry_group_IT_number 74
_symmetry_cell_setting 'orthorhombic'
loop_
_space_group_symop_operation_xyz
x,y,z
-x,1/2-y,z
x,-y,-z
-x,1/2+y,-z
-x,-y,-z
x,1/2+y,-z
-x,y,z
x,1/2-y,z
1/2+x,1/2+y,1/2+z
1/2-x,-y,1/2+z
1/2+x,1/2-y,1/2-z
1/2-x,y,1/2-z
1/2-x,1/2-y,1/2-z
1/2+x,y,1/2-z
1/2-x,1/2+y,1/2+z
1/2+x,-y,1/2+z
loop_
_atom_site_type_symbol
_atom_site_label
_atom_site_fract_x
_atom_site_fract_y
_atom_site_fract_z
Si Si1 0.625831 0.250000 0.772420
Si Si2 0.410054 0.085249 0.167589
Si Si3 0.334222 0.981779 0.323204
Si Si4 0.728998 0.750000 0.500690
Si Si5 0.250000 0.151600 0.250000
Si Si6 0.085632 0.618000 0.311947
O O1 0.648963 0.250000 0.594150
O O2 0.587850 0.187903 0.809687
O O3 0.702291 0.250000 0.878017
O O4 0.500000 0.103912 0.209014
O O5 0.332584 0.117429 0.234517
O O6 0.396911 0.019537 0.226708
O O7 0.403465 0.094991 0.985163
O O8 0.250000 0.994605 0.250000
O O9 0.352017 0.913683 0.296181
O O10 0.336016 0.000000 0.500000
O O11 0.739568 0.693426 0.604551
O O12 0.000000 0.599786 0.256511
#
# Coordination Sequence:
#
# PCOD9540102 Si02
#       6
#     8  16  16   8   8  16
#     4  11  23  42  67 101 131 185 227 287 337 410
#     4  11  24  44  72 103 139 182 231 286 350 416
#     4  12  27  44  71 103 137 182 232 286 352 415
#     4  10  24  40  67  95 141 178 238 275 340 411
#     4  11  22  46  66 106 136 187 226 288 346 409
#     4  11  25  45  69 100 140 182 232 285 346 418
#
# _framework density 21.074376000000001
#
# number of rings (size 3 to 8) (size 9 to 14) (size 15 to 20)
#    0.000    0.889    3.333    3.000    6.222    3.556 
#    0.000    3.333    0.000    0.000    0.000    0.000 
#    0.000    0.000    0.000    0.000    0.000    0.000 
#
# Total GULP energy -200988.267367 kJ/mol
# GULP energy per Si atom -5583.007427 kJ/mol
# Density = 2.102641 g / cm^3
# Si number density = 21.074376 Si / 1000 Ang^3
#
#
#
# Elastic Constant Matrix: (Units=GPa)
#
#
# Indices 1 2 3 4 5 6 
#
# 1 135.1357 43.6429 40.8062 0.0000 0.0000 0.0000
# 2 43.6429 121.1485 52.1157 0.0000 0.0000 0.0000
# 3 40.8062 52.1157 90.4361 0.0000 0.0000 0.0000
# 4 0.0000 0.0000 0.0000 22.4898 0.0000 0.0000
# 5 0.0000 0.0000 0.0000 0.0000 10.1240 0.0000
# 6 0.0000 0.0000 0.0000 0.0000 0.0000 12.3555
#
#
#
# Elastic Compliance Matrix: (Units=1/GPa)
#
#
# Indices 1 2 3 4 5 6 
#
# 1 0.008907 -0.001967 -0.002885 0.000000 0.000000 0.000000
# 2 -0.001967 0.011410 -0.005687 0.000000 0.000000 0.000000
# 3 -0.002885 -0.005687 0.015637 0.000000 0.000000 0.000000
# 4 0.000000 0.000000 0.000000 0.044465 0.000000 0.000000
# 5 0.000000 0.000000 0.000000 0.000000 0.098775 0.000000
# 6 0.000000 0.000000 0.000000 0.000000 0.000000 0.080936
#
#
# Mechanical properties :
#
#
# Convention : Reuss Voigt Hill
#
# Bulk Modulus (GPa) = 67.23406 68.87222 68.05314
# Shear Modulus (GPa) = 17.47240 23.00422 20.23831
#
# Velocity S-wave (km/s) = 2.88250 3.30748 3.10228
# Velocity P-wave (km/s) = 6.56132 6.88022 6.72266
#
# Compressibility (1/GPa) = 0.01487341
#
# Stress axis : x y z
#
# Youngs Moduli (GPa) = 112.27715 87.64500 63.95201
#
# Poissons Ratio (x) = 0.17244 0.18450
# Poissons Ratio (y) = 0.22090 0.36372
# Poissons Ratio (z) = 0.32392 0.49847
#
# Static dielectric constant tensor:
#      x y z
#    x 1.763010 0.000000 0.000000 
#    y 0.000000 1.789950 0.000000 
#    z 0.000000 0.000000 1.722140 
# 
# From -- ./inp_files/10713.got.cif
#   From: 2010.05.17/outbox.cif.g08.bks.cpg/sg74_6_cif.got.tgz:10713.got - 2010.06.03 17:57:02.
