data_PCOD9540444
_publ_section_title
;
Structure prediction by ZEFSAII (Michael W. Deem and Ramdas Pophale) SiO2 
 PCOD9540444
Probable space group: I M M A
;
_chemical_formula_sum "Si O2"
_cell_formula_units_Z 120
_cell_length_a 14.241448
_cell_length_b 29.868823
_cell_length_c 14.557778
_cell_angle_alpha 90.000000
_cell_angle_beta 90.000000
_cell_angle_gamma 90.000000
_cell_volume 6192.519032
_symmetry_space_group_name_H-M "I M M A"
_symmetry_group_IT_number 74
_symmetry_cell_setting 'orthorhombic'
loop_
_space_group_symop_operation_xyz
x,y,z
-x,1/2-y,z
x,-y,-z
-x,1/2+y,-z
-x,-y,-z
x,1/2+y,-z
-x,y,z
x,1/2-y,z
1/2+x,1/2+y,1/2+z
1/2-x,-y,1/2+z
1/2+x,1/2-y,1/2-z
1/2-x,y,1/2-z
1/2-x,1/2-y,1/2-z
1/2+x,y,1/2-z
1/2-x,1/2+y,1/2+z
1/2+x,-y,1/2+z
loop_
_atom_site_type_symbol
_atom_site_label
_atom_site_fract_x
_atom_site_fract_y
_atom_site_fract_z
Si Si1 0.265301 0.336031 0.356282
Si Si2 0.395457 0.594052 0.889034
Si Si3 0.250000 0.444416 0.750000
Si Si4 0.705378 0.299723 0.545543
Si Si5 0.105212 0.698843 0.343075
Si Si6 0.238411 0.515655 0.597349
Si Si7 0.104254 0.919019 0.828616
Si Si8 0.890608 0.369885 0.825534
O O1 0.250000 0.321452 0.250000
O O2 0.173495 0.363477 0.390987
O O3 0.289444 0.301533 0.435618
O O4 0.349523 0.372017 0.355723
O O5 0.500000 0.602082 0.925360
O O6 0.344727 0.550236 0.928258
O O7 0.401455 0.582566 0.781116
O O8 0.211054 0.476520 0.668553
O O9 0.172966 0.412446 0.798640
O O10 0.671829 0.250000 0.574542
O O11 0.810405 0.305889 0.585736
O O12 0.646484 0.340703 0.588385
O O13 0.110160 0.750000 0.307694
O O14 0.117765 0.664151 0.260669
O O15 0.000000 0.692564 0.382086
O O16 0.276431 0.500000 0.500000
O O17 0.320954 0.543622 0.645219
O O18 0.000000 0.925676 0.866713
O O19 0.000000 0.381807 0.837477
#
# Coordination Sequence:
#
# PCOD9540444 Si02
#       8
#    16  16   8  16  16  16  16  16
#     4   9  20  37  57  87 119 154 201 256 302 357
#     4   9  18  37  61  80 108 151 195 244 300 357
#     4  12  24  42  57  90 130 160 203 258 294 360
#     4  11  22  38  61  89 124 162 205 252 303 367
#     4   9  18  36  61  85 111 149 198 249 306 367
#     4  11  23  37  58  84 120 156 195 248 299 354
#     4   9  18  37  60  79 107 150 197 242 296 357
#     4  11  24  39  60  89 124 164 202 250 309 364
#
# _framework density 19.378221
#
# number of rings (size 3 to 8) (size 9 to 14) (size 15 to 20)
#    0.000    2.000    2.667    1.200    3.733    4.800 
#    0.000    1.333    0.000    0.000    0.000    5.600 
#    0.000    0.000    0.000    0.000    0.000    0.000 
#
# Total GULP energy -334559.700176 kJ/mol
# GULP energy per Si atom -5575.995003 kJ/mol
# Density = 1.933412 g / cm^3
# Si number density = 19.378221 Si / 1000 Ang^3
#
#
#
# Elastic Constant Matrix: (Units=GPa)
#
#
# Indices 1 2 3 4 5 6 
#
# 1 79.8815 11.2686 5.2370 0.0000 0.0000 0.0000
# 2 11.2686 35.2953 33.2631 -0.0002 0.0000 0.0001
# 3 5.2370 33.2631 66.3473 -0.0002 -0.0001 0.0001
# 4 0.0000 -0.0002 -0.0002 25.9460 0.0000 0.0001
# 5 0.0000 0.0000 -0.0001 0.0000 10.7277 0.0000
# 6 0.0000 0.0001 0.0001 0.0001 0.0000 3.5031
#
#
#
# Elastic Compliance Matrix: (Units=1/GPa)
#
#
# Indices 1 2 3 4 5 6 
#
# 1 0.013253 -0.006152 0.002038 0.000000 0.000000 0.000000
# 2 -0.006152 0.056565 -0.027873 0.000000 0.000000 0.000000
# 3 0.002038 -0.027873 0.028885 0.000000 0.000000 0.000000
# 4 0.000000 0.000000 0.000000 0.038542 0.000000 -0.000001
# 5 0.000000 0.000000 0.000000 0.000000 0.093216 0.000000
# 6 0.000000 0.000000 0.000000 -0.000001 0.000000 0.285462
#
#
# Mechanical properties :
#
#
# Convention : Reuss Voigt Hill
#
# Bulk Modulus (GPa) = 28.79419 31.22905 30.01162
# Shear Modulus (GPa) = 8.45347 16.81905 12.63626
#
# Velocity S-wave (km/s) = 2.09089 2.94927 2.55637
# Velocity P-wave (km/s) = 4.55197 5.26765 4.92283
#
# Compressibility (1/GPa) = 0.03472923
#
# Stress axis : x y z
#
# Youngs Moduli (GPa) = 75.45595 17.67887 34.61953
#
# Poissons Ratio (x) = 0.10876 -0.07056
# Poissons Ratio (y) = 0.46421 0.96495
# Poissons Ratio (z) = -0.15380 0.49276
#
# Static dielectric constant tensor:
#      x y z
#    x 1.699490 0.000000 0.000000 
#    y 0.000000 1.703640 0.000000 
#    z 0.000000 0.000000 1.682960 
# 
# From -- ./inp_files/33222.got.cif
#   From: 2010.05.17/outbox.cif.g08.bks.cpg/sg74_17_cif.got.tgz:33222.got - 2010.06.03 17:57:02.
