data_PCOD9540643
_publ_section_title
;
Structure prediction by ZEFSAII (Michael W. Deem and Ramdas Pophale) SiO2 
 PCOD9540643
Probable space group: I M M A
;
_chemical_formula_sum "Si O2"
_cell_formula_units_Z 80
_cell_length_a 7.604222
_cell_length_b 20.460102
_cell_length_c 29.770329
_cell_angle_alpha 90.000000
_cell_angle_beta 90.000000
_cell_angle_gamma 90.000000
_cell_volume 4631.761793
_symmetry_space_group_name_H-M "I M M A"
_symmetry_group_IT_number 74
_symmetry_cell_setting 'orthorhombic'
loop_
_space_group_symop_operation_xyz
x,y,z
-x,1/2-y,z
x,-y,-z
-x,1/2+y,-z
-x,-y,-z
x,1/2+y,-z
-x,y,z
x,1/2-y,z
1/2+x,1/2+y,1/2+z
1/2-x,-y,1/2+z
1/2+x,1/2-y,1/2-z
1/2-x,y,1/2-z
1/2-x,1/2-y,1/2-z
1/2+x,y,1/2-z
1/2-x,1/2+y,1/2+z
1/2+x,-y,1/2+z
loop_
_atom_site_type_symbol
_atom_site_label
_atom_site_fract_x
_atom_site_fract_y
_atom_site_fract_z
Si Si1 0.793473 0.357833 0.602751
Si Si2 0.210169 0.493495 0.297922
Si Si3 0.789295 0.857436 0.298516
Si Si4 0.293904 0.516916 0.895551
Si Si5 0.500000 0.677066 0.468682
Si Si6 0.500000 0.441961 0.463889
O O1 0.734197 0.332679 0.652315
O O2 0.780248 0.437415 0.603234
O O3 0.668519 0.333090 0.563630
O O4 0.000000 0.341629 0.596307
O O5 0.250000 0.461620 0.250000
O O6 0.281940 0.567934 0.296040
O O7 0.266268 0.463339 0.345164
O O8 0.000000 0.498952 0.301443
O O9 0.750000 0.826390 0.250000
O O10 0.000000 0.859694 0.301540
O O11 0.500000 0.532730 0.902017
O O12 0.170167 0.548169 0.932626
O O13 0.500000 0.750000 0.486827
O O14 0.500000 0.624324 0.508089
O O15 0.500000 0.500000 0.500000
#
# Coordination Sequence:
#
# PCOD9540643 Si02
#       6
#    16  16  16  16   8   8
#     4   9  18  34  53  75 103 135 174 217 262 310
#     4   8  14  23  38  68 107 142 159 192 253 306
#     4   8  14  23  40  70  97 127 168 207 254 304
#     4   9  18  32  52  79 111 135 172 217 258 310
#     4  12  26  40  54  76 102 134 180 226 269 316
#     4  12  22  36  56  82  98 138 184 220 268 311
#
# _framework density 17.272044999999999
#
# number of rings (size 3 to 8) (size 9 to 14) (size 15 to 20)
#    0.000    2.800    2.000    2.400    2.800    1.600 
#    0.000    0.000    0.000    0.600    0.000    0.000 
#    0.000    0.800    0.000    0.000    0.000    0.000 
#
# Total GULP energy -222822.640880 kJ/mol
# GULP energy per Si atom -5570.566022 kJ/mol
# Density = 1.723273 g / cm^3
# Si number density = 17.272045 Si / 1000 Ang^3
#
#
#
# Elastic Constant Matrix: (Units=GPa)
#
#
# Indices 1 2 3 4 5 6 
#
# 1 75.6047 26.1231 58.1939 0.0000 0.0000 0.0000
# 2 26.1231 57.3793 57.8702 0.0000 0.0000 0.0000
# 3 58.1939 57.8702 169.4477 0.0000 0.0000 0.0000
# 4 0.0000 0.0000 0.0000 -3.8607 0.0000 0.0000
# 5 0.0000 0.0000 0.0000 0.0000 36.7608 0.0000
# 6 0.0000 0.0000 0.0000 0.0000 0.0000 -3.5072
#
#
#
# Elastic Compliance Matrix: (Units=1/GPa)
#
#
# Indices 1 2 3 4 5 6 
#
# 1 0.018321 -0.003043 -0.005253 0.000000 0.000000 0.000000
# 2 -0.003043 0.027091 -0.008207 0.000000 0.000000 0.000000
# 3 -0.005253 -0.008207 0.010508 0.000000 0.000000 0.000000
# 4 0.000000 0.000000 0.000000 -0.259020 0.000000 0.000000
# 5 0.000000 0.000000 0.000000 0.000000 0.027203 0.000000
# 6 0.000000 0.000000 0.000000 0.000000 0.000000 -0.285124
#
#
# Mechanical properties :
#
#
# Convention : Reuss Voigt Hill
#
# Bulk Modulus (GPa) = 43.64118 65.20068 54.42093
# Shear Modulus (GPa) = -11.89408 16.56153 2.33373
#
# Velocity S-wave (km/s) = -2.62703 3.09991 1.16365
# Velocity P-wave (km/s) = 4.01498 7.11645 5.77771
#
# Compressibility (1/GPa) = 0.02291414
#
# Stress axis : x y z
#
# Youngs Moduli (GPa) = 54.58100 36.91331 95.16292
#
# Poissons Ratio (x) = 0.11235 0.49987
# Poissons Ratio (y) = 0.16612 0.78098
# Poissons Ratio (z) = 0.28670 0.30294
#
# Static dielectric constant tensor:
#      x y z
#    x 1.606070 0.000000 0.000000 
#    y 0.000000 1.568440 0.000000 
#    z 0.000000 0.000000 1.637710 
# 
# From -- ./inp_files/64007.got.cif
#   From: 2010.05.17/outbox.cif.g08.bks.cpg/sg74_33_cif.got.tgz:64007.got - 2010.06.03 17:57:02.
