data_PCOD9540955
_publ_section_title
;
Structure prediction by ZEFSAII (Michael W. Deem and Ramdas Pophale) SiO2 
 PCOD9540955
Probable space group: I M M A
;
_chemical_formula_sum "Si O2"
_cell_formula_units_Z 48
_cell_length_a 9.000000
_cell_length_b 21.000000
_cell_length_c 27.000000
_cell_angle_alpha 90.000000
_cell_angle_beta 90.000000
_cell_angle_gamma 90.000000
_cell_volume 5103.000000
_symmetry_space_group_name_H-M "I M M A"
_symmetry_group_IT_number 74
_symmetry_cell_setting 'orthorhombic'
loop_
_space_group_symop_operation_xyz
x,y,z
-x,1/2-y,z
x,-y,-z
-x,1/2+y,-z
-x,-y,-z
x,1/2+y,-z
-x,y,z
x,1/2-y,z
1/2+x,1/2+y,1/2+z
1/2-x,-y,1/2+z
1/2+x,1/2-y,1/2-z
1/2-x,y,1/2-z
1/2-x,1/2-y,1/2-z
1/2+x,y,1/2-z
1/2-x,1/2+y,1/2+z
1/2+x,-y,1/2+z
loop_
_atom_site_type_symbol
_atom_site_label
_atom_site_fract_x
_atom_site_fract_y
_atom_site_fract_z
Si Si1 0.677210 0.537684 0.941734
Si Si2 0.823149 0.675943 0.390438
Si Si3 0.320889 0.048847 0.336499
Si Si4 0.322219 0.403278 0.525750
Si Si5 0.678605 0.819533 0.803621
Si Si6 0.321126 0.579598 0.200699
O O1 0.500000 0.538607 0.948390
O O2 0.728474 0.541062 0.886242
O O3 0.744470 0.468898 0.956557
O O4 0.755799 0.596001 0.970582
O O5 0.790999 0.750000 0.378468
O O6 0.732721 0.652058 0.438224
O O7 0.791929 0.626547 0.345774
O O8 0.000000 0.671069 0.400875
O O9 0.500000 0.045297 0.341175
O O10 0.268165 0.118813 0.321025
O O11 0.261974 0.988262 0.305431
O O12 0.500000 0.408942 0.525916
O O13 0.500000 0.831808 0.802087
O O14 0.698476 0.750000 0.829407
O O15 0.750000 0.811698 0.750000
O O16 0.500000 0.570991 0.204478
O O17 0.250000 0.609323 0.250000
#
# Coordination Sequence:
#
# PCOD9540955 Si02
#       6
#    16  16  16  16  16  16
#     4  11  21  36  60  87 118 153 191 237 290 349
#     4  10  22  41  63  86 118 163 208 252 306 366
#     4  12  23  37  59  89 122 155 196 248 299 353
#     4  11  21  36  59  89 119 150 192 240 291 348
#     4  10  21  38  59  83 114 154 197 239 289 352
#     4  11  23  39  60  86 120 158 204 257 306 361
#
# _framework density 9.4062319999999993
#
# number of rings (size 3 to 8) (size 9 to 14) (size 15 to 20)
#    0.000    1.167    1.667    7.000    0.000    2.333 
#    0.000    0.833    0.000    5.000    0.000    0.000 
#    0.000    0.000    0.000    0.000    0.000    0.000 
#
# Total GULP energy -267415.314731 kJ/mol
# GULP energy per Si atom -5571.152390 kJ/mol
# Density = 0.938482 g / cm^3
# Si number density = 9.406232 Si / 1000 Ang^3
#
#
#
# Elastic Constant Matrix: (Units=GPa)
#
#
# Indices 1 2 3 4 5 6 
#
# 1 131.2590 28.3234 10.9628 0.0000 0.0000 0.0000
# 2 28.3234 83.8129 4.3905 0.0000 0.0000 0.0000
# 3 10.9628 4.3905 54.9436 0.0000 0.0000 0.0000
# 4 0.0000 0.0000 0.0000 58.6638 0.0000 0.0000
# 5 0.0000 0.0000 0.0000 0.0000 28.5325 0.0000
# 6 0.0000 0.0000 0.0000 0.0000 0.0000 16.5269
#
#
#
# Elastic Compliance Matrix: (Units=1/GPa)
#
#
# Indices 1 2 3 4 5 6 
#
# 1 0.008330 -0.002739 -0.001443 0.000000 0.000000 0.000000
# 2 -0.002739 0.012882 -0.000483 0.000000 0.000000 0.000000
# 3 -0.001443 -0.000483 0.018527 0.000000 0.000000 0.000000
# 4 0.000000 0.000000 0.000000 0.017046 0.000000 0.000000
# 5 0.000000 0.000000 0.000000 0.000000 0.035048 0.000000
# 6 0.000000 0.000000 0.000000 0.000000 0.000000 0.060507
#
#
# Mechanical properties :
#
#
# Convention : Reuss Voigt Hill
#
# Bulk Modulus (GPa) = 32.88540 39.70767 36.29653
# Shear Modulus (GPa) = 29.10222 35.83388 32.46805
#
# Velocity S-wave (km/s) = 3.93741 4.36913 4.15888
# Velocity P-wave (km/s) = 6.17977 6.82681 6.51133
#
# Compressibility (1/GPa) = 0.03040863
#
# Stress axis : x y z
#
# Youngs Moduli (GPa) = 120.04528 77.62531 53.97518
#
# Poissons Ratio (x) = 0.21265 0.07790
# Poissons Ratio (y) = 0.32886 0.02606
# Poissons Ratio (z) = 0.17325 0.03748
#
# Static dielectric constant tensor:
#      x y z
#    x 1.590550 0.000000 0.000000 
#    y 0.000000 1.767330 0.000000 
#    z 0.000000 0.000000 1.651810 
# 
# From -- ./inp_files/64255.got.cif
#   From: 2010.05.17/outbox.ucp.g08.bks.cvg/sg74_33_cif.got.tgz:64255.got - 2010.06.11 16:37:44.
