data_PCOD9540291
_publ_section_title
;
Structure prediction by ZEFSAII (Michael W. Deem and Ramdas Pophale) SiO2 
 PCOD9540291
Probable space group: I M M A
;
_chemical_formula_sum "Si O2"
_cell_formula_units_Z 80
_cell_length_a 20.268946
_cell_length_b 17.314538
_cell_length_c 13.163634
_cell_angle_alpha 90.000000
_cell_angle_beta 90.000000
_cell_angle_gamma 90.000000
_cell_volume 4619.743597
_symmetry_space_group_name_H-M "I M M A"
_symmetry_group_IT_number 74
_symmetry_cell_setting 'orthorhombic'
loop_
_space_group_symop_operation_xyz
x,y,z
-x,1/2-y,z
x,-y,-z
-x,1/2+y,-z
-x,-y,-z
x,1/2+y,-z
-x,y,z
x,1/2-y,z
1/2+x,1/2+y,1/2+z
1/2-x,-y,1/2+z
1/2+x,1/2-y,1/2-z
1/2-x,y,1/2-z
1/2-x,1/2-y,1/2-z
1/2+x,y,1/2-z
1/2-x,1/2+y,1/2+z
1/2+x,-y,1/2+z
loop_
_atom_site_type_symbol
_atom_site_label
_atom_site_fract_x
_atom_site_fract_y
_atom_site_fract_z
Si Si1 0.322438 0.089269 0.471618
Si Si2 0.575443 0.155930 0.862168
Si Si3 0.075471 0.656989 0.131417
Si Si4 0.175339 0.156335 0.463839
Si Si5 0.170250 0.161025 0.239446
O O1 0.372465 0.128020 0.550286
O O2 0.248820 0.124308 0.479358
O O3 0.345841 0.108035 0.356584
O O4 0.319568 0.000000 0.500000
O O5 0.500000 0.132595 0.883897
O O6 0.576338 0.250000 0.863487
O O7 0.592165 0.132214 0.746917
O O8 0.627069 0.130030 0.946681
O O9 0.075833 0.750000 0.130731
O O10 0.000000 0.632110 0.109617
O O11 0.179578 0.250000 0.464179
O O12 0.148173 0.135300 0.351634
O O13 0.149251 0.250000 0.219851
O O14 0.250000 0.162445 0.250000
#
# Coordination Sequence:
#
# PCOD9540291 Si02
#       5
#    16  16  16  16  16
#     4  11  21  32  47  76 103 135 167 210 254 304
#     4   8  15  30  53  79 102 125 159 207 259 301
#     4   9  18  34  54  74 100 134 170 209 255 304
#     4   9  17  33  55  75  98 132 173 213 252 300
#     4   8  15  31  52  69  95 132 168 205 249 296
#
# _framework density 17.316979
#
# number of rings (size 3 to 8) (size 9 to 14) (size 15 to 20)
#    0.000    3.000    0.000    4.200    0.000    1.200 
#   10.800    4.000    0.000    4.200    0.000    0.000 
#    0.000    0.000    0.000    0.000    0.000    0.000 
#
# Total GULP energy -222781.050955 kJ/mol
# GULP energy per Si atom -5569.526274 kJ/mol
# Density = 1.727756 g / cm^3
# Si number density = 17.316979 Si / 1000 Ang^3
#
#
#
# Elastic Constant Matrix: (Units=GPa)
#
#
# Indices 1 2 3 4 5 6 
#
# 1 77.9255 22.4434 94.8596 0.0000 0.0000 0.0000
# 2 22.4434 37.0199 49.5786 0.0000 0.0000 0.0000
# 3 94.8596 49.5786 183.8029 0.0000 0.0000 0.0000
# 4 0.0000 0.0000 0.0000 9.4012 0.0000 0.0000
# 5 0.0000 0.0000 0.0000 0.0000 12.2430 0.0000
# 6 0.0000 0.0000 0.0000 0.0000 0.0000 -5.2692
#
#
#
# Elastic Compliance Matrix: (Units=1/GPa)
#
#
# Indices 1 2 3 4 5 6 
#
# 1 0.035025 0.004657 -0.019332 0.000000 0.000000 0.000000
# 2 0.004657 0.042908 -0.013977 0.000000 0.000000 0.000000
# 3 -0.019332 -0.013977 0.019188 0.000000 0.000000 0.000000
# 4 0.000000 0.000000 0.000000 0.106369 0.000000 0.000000
# 5 0.000000 0.000000 0.000000 0.000000 0.081680 0.000000
# 6 0.000000 0.000000 0.000000 0.000000 0.000000 -0.189783
#
#
# Mechanical properties :
#
#
# Convention : Reuss Voigt Hill
#
# Bulk Modulus (GPa) = 25.11575 70.27908 47.69741
# Shear Modulus (GPa) = 30.12676 12.06610 21.09643
#
# Velocity S-wave (km/s) = 4.17552 2.64252 3.49413
# Velocity P-wave (km/s) = 6.14668 7.06984 6.62436
#
# Compressibility (1/GPa) = 0.03981565
#
# Stress axis : x y z
#
# Youngs Moduli (GPa) = 28.55094 23.30545 52.11556
#
# Poissons Ratio (x) = -0.10852 1.00752
# Poissons Ratio (y) = -0.13295 0.72843
# Poissons Ratio (z) = 0.55196 0.32575
#
# Static dielectric constant tensor:
#      x y z
#    x 1.566090 0.000000 0.000000 
#    y 0.000000 1.587290 0.000000 
#    z 0.000000 0.000000 1.615870 
# 
# From -- ./inp_files/24875.got.cif
#   From: 2010.05.17/outbox.cif.g08.bks.cpg/sg74_13_cif.got.tgz:24875.got - 2010.06.03 17:57:02.
