data_PCOD9540068
_publ_section_title
;
Structure prediction by ZEFSAII (Michael W. Deem and Ramdas Pophale) SiO2 
 PCOD9540068
Probable space group: I M M A
;
_chemical_formula_sum "Si O2"
_cell_formula_units_Z 64
_cell_length_a 24.157626
_cell_length_b 8.691585
_cell_length_c 15.746462
_cell_angle_alpha 90.000000
_cell_angle_beta 90.000000
_cell_angle_gamma 90.000000
_cell_volume 3306.254074
_symmetry_space_group_name_H-M "I M M A"
_symmetry_group_IT_number 74
_symmetry_cell_setting 'orthorhombic'
loop_
_space_group_symop_operation_xyz
x,y,z
-x,1/2-y,z
x,-y,-z
-x,1/2+y,-z
-x,-y,-z
x,1/2+y,-z
-x,y,z
x,1/2-y,z
1/2+x,1/2+y,1/2+z
1/2-x,-y,1/2+z
1/2+x,1/2-y,1/2-z
1/2-x,y,1/2-z
1/2-x,1/2-y,1/2-z
1/2+x,y,1/2-z
1/2-x,1/2+y,1/2+z
1/2+x,-y,1/2+z
loop_
_atom_site_type_symbol
_atom_site_label
_atom_site_fract_x
_atom_site_fract_y
_atom_site_fract_z
Si Si1 0.000000 0.434333 0.345314
Si Si2 0.000000 0.065883 0.845963
Si Si3 0.814616 0.565283 0.743832
Si Si4 0.114893 0.434205 0.088942
Si Si5 0.115303 0.933049 0.410336
O O1 0.055095 0.495526 0.390429
O O2 0.000000 0.250000 0.344212
O O3 0.000000 0.496852 0.248999
O O4 0.000000 0.250000 0.841984
O O5 0.054921 0.006495 0.892384
O O6 0.819631 0.750000 0.731017
O O7 0.750000 0.526682 0.750000
O O8 0.845851 0.527540 0.831545
O O9 0.844705 0.482247 0.666177
O O10 0.109857 0.250000 0.083970
O O11 0.136225 0.500000 0.000000
O O12 0.110703 0.750000 0.414848
O O13 0.135240 0.000000 0.500000
#
# Coordination Sequence:
#
# PCOD9540068 Si02
#       5
#     8   8  16  16  16
#     4  12  23  40  65  95 131 167 206 256 319 384
#     4  12  23  38  63  95 129 163 206 254 315 384
#     4  10  23  44  67  92 126 169 215 266 317 371
#     4  11  23  40  64  92 128 167 209 259 315 374
#     4  12  25  42  66  96 130 169 212 261 317 379
#
# _framework density 19.357254000000001
#
# number of rings (size 3 to 8) (size 9 to 14) (size 15 to 20)
#    0.000    0.750    2.500    6.000    0.000    2.500 
#    0.000    2.500    0.000    0.000    0.000    0.000 
#    0.000    0.000    0.000    0.000    0.000    0.000 
#
# Total GULP energy -179139.496444 kJ/mol
# GULP energy per Si atom -5598.109264 kJ/mol
# Density = 1.931320 g / cm^3
# Si number density = 19.357254 Si / 1000 Ang^3
#
#
#
# Elastic Constant Matrix: (Units=GPa)
#
#
# Indices 1 2 3 4 5 6 
#
# 1 127.0922 69.9110 65.0594 0.0000 0.0000 0.0000
# 2 69.9110 139.0498 89.3816 0.0000 0.0000 0.0000
# 3 65.0594 89.3816 180.0177 0.0000 0.0000 0.0000
# 4 0.0000 0.0000 0.0000 39.1274 0.0000 0.0000
# 5 0.0000 0.0000 0.0000 0.0000 -11.2332 0.0000
# 6 0.0000 0.0000 0.0000 0.0000 0.0000 1.7845
#
#
#
# Elastic Compliance Matrix: (Units=1/GPa)
#
#
# Indices 1 2 3 4 5 6 
#
# 1 0.011282 -0.004482 -0.001852 0.000000 0.000000 0.000000
# 2 -0.004482 0.012343 -0.004509 0.000000 0.000000 0.000000
# 3 -0.001852 -0.004509 0.008463 0.000000 0.000000 0.000000
# 4 0.000000 0.000000 0.000000 0.025558 0.000000 0.000000
# 5 0.000000 0.000000 0.000000 0.000000 -0.089022 0.000000
# 6 0.000000 0.000000 0.000000 0.000000 0.000000 0.560389
#
#
# Mechanical properties :
#
#
# Convention : Reuss Voigt Hill
#
# Bulk Modulus (GPa) = 96.12815 99.42928 97.77871
# Shear Modulus (GPa) = 9.02258 20.72293 14.87276
#
# Velocity S-wave (km/s) = 2.16130 3.27548 2.77488
# Velocity P-wave (km/s) = 7.48305 8.11060 7.80314
#
# Compressibility (1/GPa) = 0.01040278
#
# Stress axis : x y z
#
# Youngs Moduli (GPa) = 88.63959 81.01566 118.15992
#
# Poissons Ratio (x) = 0.36308 0.21884
# Poissons Ratio (y) = 0.39725 0.53278
# Poissons Ratio (z) = 0.16416 0.36530
#
# Static dielectric constant tensor:
#      x y z
#    x 1.645880 0.000000 0.000000 
#    y 0.000000 1.645890 0.000000 
#    z 0.000000 0.000000 1.680320 
# 
# From -- ./inp_files/28838.got.cif
#   From: 2010.05.17/outbox.cif.g08.bks.cpg/sg74_15_cif.got.tgz:28838.got - 2010.06.03 17:57:02.
