data_PCOD9540551
_publ_section_title
;
Structure prediction by ZEFSAII (Michael W. Deem and Ramdas Pophale) SiO2 
 PCOD9540551
Probable space group: I M M A
;
_chemical_formula_sum "Si O2"
_cell_formula_units_Z 64
_cell_length_a 11.643206
_cell_length_b 17.243315
_cell_length_c 14.043451
_cell_angle_alpha 90.000000
_cell_angle_beta 90.000000
_cell_angle_gamma 90.000000
_cell_volume 2819.468109
_symmetry_space_group_name_H-M "I M M A"
_symmetry_group_IT_number 74
_symmetry_cell_setting 'orthorhombic'
loop_
_space_group_symop_operation_xyz
x,y,z
-x,1/2-y,z
x,-y,-z
-x,1/2+y,-z
-x,-y,-z
x,1/2+y,-z
-x,y,z
x,1/2-y,z
1/2+x,1/2+y,1/2+z
1/2-x,-y,1/2+z
1/2+x,1/2-y,1/2-z
1/2-x,y,1/2-z
1/2-x,1/2-y,1/2-z
1/2+x,y,1/2-z
1/2-x,1/2+y,1/2+z
1/2+x,-y,1/2+z
loop_
_atom_site_type_symbol
_atom_site_label
_atom_site_fract_x
_atom_site_fract_y
_atom_site_fract_z
Si Si1 0.327988 0.937074 0.337422
Si Si2 0.500000 0.340466 0.781306
Si Si3 0.763101 0.838077 0.509922
Si Si4 0.131954 0.110457 0.184137
Si Si5 0.500000 0.406972 0.996090
O O1 0.250000 0.960101 0.250000
O O2 0.398452 0.869381 0.285897
O O3 0.271301 0.898409 0.427984
O O4 0.378548 0.021887 0.356167
O O5 0.500000 0.250000 0.798541
O O6 0.500000 0.382542 0.883916
O O7 0.776989 0.750000 0.474214
O O8 0.668176 0.840370 0.591885
O O9 0.886653 0.870588 0.543240
O O10 0.250000 0.119380 0.250000
O O11 0.000000 0.128785 0.220050
O O12 0.500000 0.500000 0.000000
#
# Coordination Sequence:
#
# PCOD9540551 Si02
#       5
#    16   8  16  16   8
#     4  11  23  42  71 103 146 186 234 300 373 450
#     4  12  24  40  69 108 148 185 239 305 379 440
#     4  12  27  45  70 106 148 192 249 312 375 440
#     4  11  27  49  76 106 141 194 257 307 371 452
#     4  12  26  44  72 104 150 200 250 298 369 460
#
# _framework density 22.699317000000001
#
# number of rings (size 3 to 8) (size 9 to 14) (size 15 to 20)
#    0.000    0.500    3.750    4.125    7.000    3.000 
#    0.000    0.000    0.000    0.000    0.000    0.000 
#    0.000    0.000    0.000    0.000    0.000    0.000 
#
# Total GULP energy -178242.411243 kJ/mol
# GULP energy per Si atom -5570.075351 kJ/mol
# Density = 2.264765 g / cm^3
# Si number density = 22.699317 Si / 1000 Ang^3
#
#
#
# Elastic Constant Matrix: (Units=GPa)
#
#
# Indices 1 2 3 4 5 6 
#
# 1 141.3106 21.5238 34.3685 0.0000 0.0000 0.0000
# 2 21.5238 91.9491 14.3865 -0.0001 0.0000 0.0000
# 3 34.3685 14.3865 65.9526 -0.0002 0.0000 0.0000
# 4 0.0000 -0.0001 -0.0002 25.0993 0.0000 0.0000
# 5 0.0000 0.0000 0.0000 0.0000 30.3033 0.0000
# 6 0.0000 0.0000 0.0000 0.0000 0.0000 26.7720
#
#
#
# Elastic Compliance Matrix: (Units=1/GPa)
#
#
# Indices 1 2 3 4 5 6 
#
# 1 0.008252 -0.001303 -0.004016 0.000000 0.000000 0.000000
# 2 -0.001303 0.011466 -0.001822 0.000000 0.000000 0.000000
# 3 -0.004016 -0.001822 0.017652 0.000000 0.000000 0.000000
# 4 0.000000 0.000000 0.000000 0.039842 0.000000 0.000000
# 5 0.000000 0.000000 0.000000 0.000000 0.033000 0.000000
# 6 0.000000 0.000000 0.000000 0.000000 0.000000 0.037353
#
#
# Mechanical properties :
#
#
# Convention : Reuss Voigt Hill
#
# Bulk Modulus (GPa) = 43.31249 48.86332 46.08790
# Shear Modulus (GPa) = 29.49122 31.69715 30.59418
#
# Velocity S-wave (km/s) = 3.60837 3.74089 3.67523
# Velocity P-wave (km/s) = 6.04010 6.34287 6.19334
#
# Compressibility (1/GPa) = 0.02308803
#
# Stress axis : x y z
#
# Youngs Moduli (GPa) = 121.18540 87.21645 56.64920
#
# Poissons Ratio (x) = 0.11367 0.22749
# Poissons Ratio (y) = 0.15794 0.10321
# Poissons Ratio (z) = 0.48666 0.15890
#
# Static dielectric constant tensor:
#      x y z
#    x 1.951920 0.000000 0.000000 
#    y 0.000000 1.801200 0.000000 
#    z 0.000000 0.000000 1.737920 
# 
# From -- ./inp_files/30255.got.cif
#   From: 2010.05.17/outbox.cif.g08.bks.cpg/sg74_16_cif.got.tgz:30255.got - 2010.06.03 17:57:02.
