data_PCOD9540869
_publ_section_title
;
Structure prediction by ZEFSAII (Michael W. Deem and Ramdas Pophale) SiO2 
 PCOD9540869
Probable space group: I M M A
;
_chemical_formula_sum "Si O2"
_cell_formula_units_Z 40
_cell_length_a 27.000000
_cell_length_b 18.000000
_cell_length_c 9.000000
_cell_angle_alpha 90.000000
_cell_angle_beta 90.000000
_cell_angle_gamma 90.000000
_cell_volume 4374.000000
_symmetry_space_group_name_H-M "I M M A"
_symmetry_group_IT_number 74
_symmetry_cell_setting 'orthorhombic'
loop_
_space_group_symop_operation_xyz
x,y,z
-x,1/2-y,z
x,-y,-z
-x,1/2+y,-z
-x,-y,-z
x,1/2+y,-z
-x,y,z
x,1/2-y,z
1/2+x,1/2+y,1/2+z
1/2-x,-y,1/2+z
1/2+x,1/2-y,1/2-z
1/2-x,y,1/2-z
1/2-x,1/2-y,1/2-z
1/2+x,y,1/2-z
1/2-x,1/2+y,1/2+z
1/2+x,-y,1/2+z
loop_
_atom_site_type_symbol
_atom_site_label
_atom_site_fract_x
_atom_site_fract_y
_atom_site_fract_z
Si Si1 0.942126 0.950563 0.862052
Si Si2 0.381778 0.928176 0.921811
Si Si3 0.558863 0.160083 0.827714
Si Si4 0.614148 0.661863 0.477402
Si Si5 0.192769 0.339759 0.216704
O O1 0.915565 0.963175 0.707887
O O2 0.000000 0.962463 0.848323
O O3 0.928089 0.867372 0.910991
O O4 0.923068 0.000000 0.000000
O O5 0.341449 0.876090 0.843354
O O6 0.416932 0.880937 0.031470
O O7 0.358274 0.000000 0.000000
O O8 0.500000 0.140957 0.805488
O O9 0.560776 0.250000 0.845524
O O10 0.593634 0.139847 0.685585
O O11 0.616202 0.750000 0.473398
O O12 0.665982 0.637643 0.558585
O O13 0.190207 0.250000 0.223947
O O14 0.250000 0.360512 0.250000
#
# Coordination Sequence:
#
# PCOD9540869 Si02
#       5
#    16  16  16  16  16
#     4  10  20  33  50  73 104 144 184 217 257 317
#     4  11  22  35  52  78 110 142 176 221 277 333
#     4  10  20  34  53  80 114 147 179 219 269 329
#     4   9  18  33  54  78 103 134 175 222 268 314
#     4   9  19  39  62  79 100 136 184 233 276 319
#
# _framework density 9.1449470000000002
#
# number of rings (size 3 to 8) (size 9 to 14) (size 15 to 20)
#    0.000    2.200    0.000    3.000    0.000    5.200 
#    0.000    7.000    0.000    4.800    0.000    0.000 
#    0.000    0.000    0.000    0.000    0.000    0.000 
#
# Total GULP energy -222751.214223 kJ/mol
# GULP energy per Si atom -5568.780356 kJ/mol
# Density = 0.912413 g / cm^3
# Si number density = 9.144947 Si / 1000 Ang^3
#
#
#
# Elastic Constant Matrix: (Units=GPa)
#
#
# Indices 1 2 3 4 5 6 
#
# 1 126.7343 44.2441 71.1901 0.0000 0.0000 0.0000
# 2 44.2441 29.3833 40.7866 0.0000 0.0000 0.0000
# 3 71.1901 40.7866 125.7366 0.0000 0.0000 0.0000
# 4 0.0000 0.0000 0.0000 30.8579 0.0000 0.0000
# 5 0.0000 0.0000 0.0000 0.0000 26.0961 0.0000
# 6 0.0000 0.0000 0.0000 0.0000 0.0000 8.6638
#
#
#
# Elastic Compliance Matrix: (Units=1/GPa)
#
#
# Indices 1 2 3 4 5 6 
#
# 1 0.017027 -0.022296 -0.002408 0.000000 0.000000 0.000000
# 2 -0.022296 0.091103 -0.016929 0.000000 0.000000 0.000000
# 3 -0.002408 -0.016929 0.014808 0.000000 0.000000 0.000000
# 4 0.000000 0.000000 0.000000 0.032407 0.000000 0.000000
# 5 0.000000 0.000000 0.000000 0.000000 0.038320 0.000000
# 6 0.000000 0.000000 0.000000 0.000000 0.000000 0.115423
#
#
# Mechanical properties :
#
#
# Convention : Reuss Voigt Hill
#
# Bulk Modulus (GPa) = 25.20599 66.03287 45.61943
# Shear Modulus (GPa) = 12.32812 21.49912 16.91362
#
# Velocity S-wave (km/s) = 2.59904 3.43222 3.04427
# Velocity P-wave (km/s) = 4.77682 7.20338 6.11174
#
# Compressibility (1/GPa) = 0.03967311
#
# Stress axis : x y z
#
# Youngs Moduli (GPa) = 58.73104 10.97656 67.53159
#
# Poissons Ratio (x) = 0.24473 0.16262
# Poissons Ratio (y) = 1.30944 1.14323
# Poissons Ratio (z) = 0.14142 0.18582
#
# Static dielectric constant tensor:
#      x y z
#    x 1.600810 0.000000 0.000000 
#    y 0.000000 1.668300 0.000000 
#    z 0.000000 0.000000 1.664420 
# 
# From -- ./inp_files/10908.got.cif
#   From: 2010.05.17/outbox.ucp.g08.bks.cvg/sg74_6_cif.got.tgz:10908.got - 2010.06.11 16:37:44.
