data_PCOD9540231
_publ_section_title
;
Structure prediction by ZEFSAII (Michael W. Deem and Ramdas Pophale) SiO2 
 PCOD9540231
Probable space group: I M M A
;
_chemical_formula_sum "Si O2"
_cell_formula_units_Z 96
_cell_length_a 15.090347
_cell_length_b 14.181534
_cell_length_c 26.651321
_cell_angle_alpha 90.000000
_cell_angle_beta 90.000000
_cell_angle_gamma 90.000000
_cell_volume 5703.496470
_symmetry_space_group_name_H-M "I M M A"
_symmetry_group_IT_number 74
_symmetry_cell_setting 'orthorhombic'
loop_
_space_group_symop_operation_xyz
x,y,z
-x,1/2-y,z
x,-y,-z
-x,1/2+y,-z
-x,-y,-z
x,1/2+y,-z
-x,y,z
x,1/2-y,z
1/2+x,1/2+y,1/2+z
1/2-x,-y,1/2+z
1/2+x,1/2-y,1/2-z
1/2-x,y,1/2-z
1/2-x,1/2-y,1/2-z
1/2+x,y,1/2-z
1/2-x,1/2+y,1/2+z
1/2+x,-y,1/2+z
loop_
_atom_site_type_symbol
_atom_site_label
_atom_site_fract_x
_atom_site_fract_y
_atom_site_fract_z
Si Si1 0.156810 0.853800 0.602016
Si Si2 0.601241 0.509528 0.626271
Si Si3 0.596705 0.038796 0.943325
Si Si4 0.338593 0.357659 0.460315
Si Si5 0.217069 0.638028 0.072568
Si Si6 0.215000 0.140920 0.195102
O O1 0.115158 0.750000 0.596463
O O2 0.239078 0.858639 0.562748
O O3 0.203313 0.860445 0.656018
O O4 0.100166 0.945272 0.590864
O O5 0.500000 0.482968 0.635482
O O6 0.607626 0.574130 0.575983
O O7 0.664277 0.421066 0.614092
O O8 0.642256 0.572134 0.671083
O O9 0.500000 0.085423 0.938576
O O10 0.681761 0.102059 0.931054
O O11 0.605054 0.000000 0.000000
O O12 0.371332 0.250000 0.456343
O O13 0.329186 0.382913 0.518584
O O14 0.214205 0.750000 0.080092
O O15 0.182768 0.250000 0.196405
O O16 0.250000 0.115141 0.250000
#
# Coordination Sequence:
#
# PCOD9540231 Si02
#       6
#    16  16  16  16  16  16
#     4   9  16  30  50  74 105 137 168 207 260 320
#     4  11  21  34  55  80 107 142 181 217 262 316
#     4  11  20  31  50  76 105 140 184 224 263 314
#     4   9  17  30  50  74 108 146 176 210 259 317
#     4  11  21  35  51  72 109 148 185 225 262 304
#     4   9  18  34  58  82 107 136 166 208 265 324
#
# _framework density 16.831782
#
# number of rings (size 3 to 8) (size 9 to 14) (size 15 to 20)
#    0.000    2.000    5.000    2.000    0.000    3.667 
#    0.000    4.167    0.000    3.500    0.000    0.000 
#    0.000    0.000    0.000    0.000    0.000    0.000 
#
# Total GULP energy -267610.563441 kJ/mol
# GULP energy per Si atom -5575.220072 kJ/mol
# Density = 1.679347 g / cm^3
# Si number density = 16.831782 Si / 1000 Ang^3
#
#
#
# Elastic Constant Matrix: (Units=GPa)
#
#
# Indices 1 2 3 4 5 6 
#
# 1 100.8931 44.8117 30.9875 0.0000 0.0000 0.0000
# 2 44.8117 82.0859 33.3473 0.0000 0.0000 0.0000
# 3 30.9875 33.3473 72.8834 0.0000 0.0000 0.0000
# 4 0.0000 0.0000 0.0000 20.5391 0.0000 0.0000
# 5 0.0000 0.0000 0.0000 0.0000 8.2319 0.0000
# 6 0.0000 0.0000 0.0000 0.0000 0.0000 1.3065
#
#
#
# Elastic Compliance Matrix: (Units=1/GPa)
#
#
# Indices 1 2 3 4 5 6 
#
# 1 0.013573 -0.006222 -0.002924 0.000000 0.000000 0.000000
# 2 -0.006222 0.017816 -0.005506 0.000000 0.000000 0.000000
# 3 -0.002924 -0.005506 0.017483 0.000000 0.000000 0.000000
# 4 0.000000 0.000000 0.000000 0.048688 0.000000 0.000000
# 5 0.000000 0.000000 0.000000 0.000000 0.121479 0.000000
# 6 0.000000 0.000000 0.000000 0.000000 0.000000 0.765383
#
#
# Mechanical properties :
#
#
# Convention : Reuss Voigt Hill
#
# Bulk Modulus (GPa) = 51.10432 52.68391 51.89411
# Shear Modulus (GPa) = 4.90077 15.79656 10.34867
#
# Velocity S-wave (km/s) = 1.70820 3.06681 2.48226
# Velocity P-wave (km/s) = 5.85818 6.62636 6.25408
#
# Compressibility (1/GPa) = 0.01956782
#
# Stress axis : x y z
#
# Youngs Moduli (GPa) = 73.67605 56.13001 57.19824
#
# Poissons Ratio (x) = 0.34923 0.16725
# Poissons Ratio (y) = 0.45839 0.31495
# Poissons Ratio (z) = 0.21543 0.30906
#
# Static dielectric constant tensor:
#      x y z
#    x 1.595450 0.000000 0.000000 
#    y 0.000000 1.589160 0.000000 
#    z 0.000000 0.000000 1.556350 
# 
# From -- ./inp_files/72607.got.cif
#   From: 2010.05.17/outbox.cif.g08.bks.cpg/sg74_37_cif.got.tgz:72607.got - 2010.06.03 17:57:02.
