data_PCOD9540029
_publ_section_title
;
Structure prediction by ZEFSAII (Michael W. Deem and Ramdas Pophale) SiO2 
 PCOD9540029
Probable space group: I M M A
;
_chemical_formula_sum "Si O2"
_cell_formula_units_Z 64
_cell_length_a 14.498493
_cell_length_b 21.235422
_cell_length_c 10.062292
_cell_angle_alpha 90.000000
_cell_angle_beta 90.000000
_cell_angle_gamma 90.000000
_cell_volume 3097.994734
_symmetry_space_group_name_H-M "I M M A"
_symmetry_group_IT_number 74
_symmetry_cell_setting 'orthorhombic'
loop_
_space_group_symop_operation_xyz
x,y,z
-x,1/2-y,z
x,-y,-z
-x,1/2+y,-z
-x,-y,-z
x,1/2+y,-z
-x,y,z
x,1/2-y,z
1/2+x,1/2+y,1/2+z
1/2-x,-y,1/2+z
1/2+x,1/2-y,1/2-z
1/2-x,y,1/2-z
1/2-x,1/2-y,1/2-z
1/2+x,y,1/2-z
1/2-x,1/2+y,1/2+z
1/2+x,-y,1/2+z
loop_
_atom_site_type_symbol
_atom_site_label
_atom_site_fract_x
_atom_site_fract_y
_atom_site_fract_z
Si Si1 0.500000 0.846531 0.599933
Si Si2 0.344446 0.000000 0.000000
Si Si3 0.141873 0.750000 0.795398
Si Si4 0.000000 0.963076 0.709668
Si Si5 0.396156 0.250000 0.994700
Si Si6 0.000000 0.906445 0.190595
Si Si7 0.678683 0.373693 0.863443
O O1 0.595355 0.807768 0.624044
O O2 0.500000 0.898378 0.714473
O O3 0.500000 0.873595 0.451373
O O4 0.293601 0.938389 0.059363
O O5 0.411654 0.027599 0.114404
O O6 0.250000 0.750000 0.750000
O O7 0.095274 0.750000 0.651803
O O8 0.000000 0.018218 0.818438
O O9 0.500000 0.250000 0.935316
O O10 0.342781 0.186604 0.953542
O O11 0.086319 0.889176 0.282349
O O12 0.750000 0.356385 0.750000
#
# Coordination Sequence:
#
# PCOD9540029 Si02
#       7
#     8   8   8   8   8   8  16
#     4  11  22  42  63  90 136 165 213 276 322 395
#     4   9  20  40  66  91 130 162 230 273 322 401
#     4  11  27  41  62  98 124 180 220 260 342 385
#     4   9  18  39  68  89 116 174 215 272 326 382
#     4  12  23  44  70  94 129 178 240 272 318 410
#     4  10  23  41  63  97 128 167 218 267 339 388
#     4  11  24  43  67 100 132 178 222 277 339 390
#
# _framework density 20.658524
#
# number of rings (size 3 to 8) (size 9 to 14) (size 15 to 20)
#    0.000    1.500    2.500    3.000    3.500    2.000 
#    9.000    2.500    0.000    0.000    0.000    0.000 
#    0.000    0.000    0.000    0.000    0.000    0.000 
#
# Total GULP energy -178528.794350 kJ/mol
# GULP energy per Si atom -5579.024823 kJ/mol
# Density = 2.061150 g / cm^3
# Si number density = 20.658524 Si / 1000 Ang^3
#
#
#
# Elastic Constant Matrix: (Units=GPa)
#
#
# Indices 1 2 3 4 5 6 
#
# 1 67.8462 -3.2898 -7.5380 0.0000 0.0000 0.0000
# 2 -3.2898 113.0288 39.2659 0.0000 0.0000 0.0000
# 3 -7.5380 39.2659 95.2557 0.0000 0.0000 0.0000
# 4 0.0000 0.0000 0.0000 34.8957 0.0000 0.0000
# 5 0.0000 0.0000 0.0000 0.0000 19.1155 0.0000
# 6 0.0000 0.0000 0.0000 0.0000 0.0000 -13.0531
#
#
#
# Elastic Compliance Matrix: (Units=1/GPa)
#
#
# Indices 1 2 3 4 5 6 
#
# 1 0.014870 0.000028 0.001165 0.000000 0.000000 0.000000
# 2 0.000028 0.010326 -0.004254 0.000000 0.000000 0.000000
# 3 0.001165 -0.004254 0.012344 0.000000 0.000000 0.000000
# 4 0.000000 0.000000 0.000000 0.028657 0.000000 0.000000
# 5 0.000000 0.000000 0.000000 0.000000 0.052314 0.000000
# 6 0.000000 0.000000 0.000000 0.000000 0.000000 -0.076610
#
#
# Mechanical properties :
#
#
# Convention : Reuss Voigt Hill
#
# Bulk Modulus (GPa) = 31.82909 37.00075 34.41492
# Shear Modulus (GPa) = 85.47711 24.70446 55.09079
#
# Velocity S-wave (km/s) = 6.43941 3.46186 5.16965
# Velocity P-wave (km/s) = 8.41004 5.82484 7.23386
#
# Compressibility (1/GPa) = 0.03141780
#
# Stress axis : x y z
#
# Youngs Moduli (GPa) = 67.24930 96.84227 81.01118
#
# Poissons Ratio (x) = -0.00271 -0.09439
# Poissons Ratio (y) = -0.00188 0.34465
# Poissons Ratio (z) = -0.07836 0.41200
#
# Static dielectric constant tensor:
#      x y z
#    x 1.713930 0.000000 0.000000 
#    y 0.000000 1.770840 0.000000 
#    z 0.000000 0.000000 1.682820 
# 
# From -- ./inp_files/8947.got.cif
#   From: 2010.05.17/outbox.cif.g08.bks.cpg/sg74_5_cif.got.tgz:8947.got - 2010.06.03 17:57:02.
