data_PCOD9540300
_publ_section_title
;
Structure prediction by ZEFSAII (Michael W. Deem and Ramdas Pophale) SiO2 
 PCOD9540300
Probable space group: I M M A
;
_chemical_formula_sum "Si O2"
_cell_formula_units_Z 112
_cell_length_a 15.302918
_cell_length_b 29.017622
_cell_length_c 14.571217
_cell_angle_alpha 90.000000
_cell_angle_beta 90.000000
_cell_angle_gamma 90.000000
_cell_volume 6470.411420
_symmetry_space_group_name_H-M "I M M A"
_symmetry_group_IT_number 74
_symmetry_cell_setting 'orthorhombic'
loop_
_space_group_symop_operation_xyz
x,y,z
-x,1/2-y,z
x,-y,-z
-x,1/2+y,-z
-x,-y,-z
x,1/2+y,-z
-x,y,z
x,1/2-y,z
1/2+x,1/2+y,1/2+z
1/2-x,-y,1/2+z
1/2+x,1/2-y,1/2-z
1/2-x,y,1/2-z
1/2-x,1/2-y,1/2-z
1/2+x,y,1/2-z
1/2-x,1/2+y,1/2+z
1/2+x,-y,1/2+z
loop_
_atom_site_type_symbol
_atom_site_label
_atom_site_fract_x
_atom_site_fract_y
_atom_site_fract_z
Si Si1 0.395505 0.030248 0.759174
Si Si2 0.600961 0.123314 0.425331
Si Si3 0.141150 0.949563 0.462107
Si Si4 0.894881 0.429084 0.252912
Si Si5 0.756588 0.804146 0.861630
Si Si6 0.346593 0.953421 0.448408
Si Si7 0.898866 0.863121 0.588464
O O1 0.500000 0.029153 0.745061
O O2 0.377972 0.056056 0.854003
O O3 0.355767 0.043600 0.661395
O O4 0.360676 0.978692 0.779087
O O5 0.500000 0.136786 0.410789
O O6 0.625602 0.084569 0.349866
O O7 0.665342 0.165259 0.404520
O O8 0.610029 0.094145 0.518067
O O9 0.245117 0.950056 0.474797
O O10 0.105871 0.904667 0.514825
O O11 0.108204 0.000000 0.500000
O O12 0.866408 0.389288 0.319973
O O13 0.000000 0.430921 0.262340
O O14 0.770912 0.750000 0.876700
O O15 0.750000 0.810197 0.750000
O O16 0.668977 0.821346 0.914409
O O17 0.381759 0.000000 0.500000
O O18 0.000000 0.848495 0.596748
#
# Coordination Sequence:
#
# PCOD9540300 Si02
#       7
#    16  16  16  16  16  16  16
#     4  11  21  33  49  77 116 156 196 233 268 319
#     4  11  21  37  58  81 112 155 194 228 279 337
#     4  11  22  34  52  80 115 155 195 232 274 329
#     4   9  18  30  50  77 113 153 191 228 265 322
#     4  11  24  40  59  85 115 145 185 240 293 341
#     4  11  22  34  52  80 115 155 195 232 274 329
#     4  11  21  37  58  81 112 155 194 228 279 337
#
# _framework density 17.309564000000002
#
# number of rings (size 3 to 8) (size 9 to 14) (size 15 to 20)
#    0.000    1.286    5.714    1.286    0.000    1.714 
#    2.571    1.429    0.000    0.000    0.000    2.000 
#    0.000    3.429    0.000    0.000    0.000    0.000 
#
# Total GULP energy -312226.681443 kJ/mol
# GULP energy per Si atom -5575.476454 kJ/mol
# Density = 1.727017 g / cm^3
# Si number density = 17.309564 Si / 1000 Ang^3
#
#
#
# Elastic Constant Matrix: (Units=GPa)
#
#
# Indices 1 2 3 4 5 6 
#
# 1 84.0124 31.7378 -2.0826 0.0000 0.0000 0.0000
# 2 31.7378 88.3840 19.2925 0.0000 0.0000 0.0003
# 3 -2.0826 19.2925 66.4529 0.0000 0.0000 0.0001
# 4 0.0000 0.0000 0.0000 20.9697 0.0000 0.0002
# 5 0.0000 0.0000 0.0000 0.0000 19.9479 -0.0001
# 6 0.0000 0.0003 0.0001 0.0002 -0.0001 108.6444
#
#
#
# Elastic Compliance Matrix: (Units=1/GPa)
#
#
# Indices 1 2 3 4 5 6 
#
# 1 0.014023 -0.005479 0.002030 0.000000 0.000000 0.000000
# 2 -0.005479 0.014220 -0.004300 0.000000 0.000000 0.000000
# 3 0.002030 -0.004300 0.016360 0.000000 0.000000 0.000000
# 4 0.000000 0.000000 0.000000 0.047688 0.000000 0.000000
# 5 0.000000 0.000000 0.000000 0.000000 0.050131 0.000000
# 6 0.000000 0.000000 0.000000 0.000000 0.000000 0.009204
#
#
# Mechanical properties :
#
#
# Convention : Reuss Voigt Hill
#
# Bulk Modulus (GPa) = 34.35710 37.41610 35.88660
# Shear Modulus (GPa) = 28.27642 42.57249 35.42445
#
# Velocity S-wave (km/s) = 4.04613 4.96469 4.52876
# Velocity P-wave (km/s) = 6.45910 7.38424 6.93711
#
# Compressibility (1/GPa) = 0.02910607
#
# Stress axis : x y z
#
# Youngs Moduli (GPa) = 71.31135 70.32241 61.12376
#
# Poissons Ratio (x) = 0.38527 -0.12408
# Poissons Ratio (y) = 0.39069 0.26284
# Poissons Ratio (z) = -0.14476 0.30239
#
# Static dielectric constant tensor:
#      x y z
#    x 1.629100 0.000000 0.000000 
#    y 0.000000 1.593300 0.000000 
#    z 0.000000 0.000000 1.609100 
# 
# From -- ./inp_files/32935.got.cif
#   From: 2010.05.17/outbox.cif.g08.bks.cpg/sg74_17_cif.got.tgz:32935.got - 2010.06.03 17:57:02.
