data_PCOD9540584
_publ_section_title
;
Structure prediction by ZEFSAII (Michael W. Deem and Ramdas Pophale) SiO2 
 PCOD9540584
Probable space group: I M M A
;
_chemical_formula_sum "Si O2"
_cell_formula_units_Z 104
_cell_length_a 24.915376
_cell_length_b 20.933733
_cell_length_c 9.568998
_cell_angle_alpha 90.000000
_cell_angle_beta 90.000000
_cell_angle_gamma 90.000000
_cell_volume 4990.919786
_symmetry_space_group_name_H-M "I M M A"
_symmetry_group_IT_number 74
_symmetry_cell_setting 'orthorhombic'
loop_
_space_group_symop_operation_xyz
x,y,z
-x,1/2-y,z
x,-y,-z
-x,1/2+y,-z
-x,-y,-z
x,1/2+y,-z
-x,y,z
x,1/2-y,z
1/2+x,1/2+y,1/2+z
1/2-x,-y,1/2+z
1/2+x,1/2-y,1/2-z
1/2-x,y,1/2-z
1/2-x,1/2-y,1/2-z
1/2+x,y,1/2-z
1/2-x,1/2+y,1/2+z
1/2+x,-y,1/2+z
loop_
_atom_site_type_symbol
_atom_site_label
_atom_site_fract_x
_atom_site_fract_y
_atom_site_fract_z
Si Si1 0.184856 0.177478 0.949124
Si Si2 0.796809 0.319997 0.397785
Si Si3 0.941701 0.092128 0.607517
Si Si4 0.176812 0.611027 0.334317
Si Si5 0.334128 0.584991 0.659269
Si Si6 0.244255 0.000000 0.500000
Si Si7 0.058557 0.446536 0.301343
O O1 0.170384 0.250000 0.912808
O O2 0.199407 0.136102 0.812943
O O3 0.234401 0.180433 0.058844
O O4 0.145840 0.134459 0.040530
O O5 0.811731 0.250000 0.343142
O O6 0.820222 0.334174 0.549225
O O7 0.812887 0.376302 0.294287
O O8 0.887113 0.107492 0.686979
O O9 0.932799 0.097285 0.439648
O O10 0.000000 0.122020 0.641756
O O11 0.946684 0.017554 0.640688
O O12 0.293947 0.548172 0.093916
O O13 0.286281 0.540739 0.596184
O O14 0.388392 0.551439 0.708296
O O15 0.000000 0.429226 0.238597
#
# Coordination Sequence:
#
# PCOD9540584 Si02
#       7
#    16  16  16  16  16   8  16
#     4  11  26  44  63  91 129 176 217 255 315 383
#     4  11  24  42  64  90 122 173 222 255 304 376
#     4   9  19  37  63  94 125 163 212 261 312 378
#     4  12  24  42  65  94 135 166 206 267 321 384
#     4  12  25  42  63  94 136 166 210 270 317 388
#     4  12  30  40  60 104 138 166 200 252 340 388
#     4   9  19  38  64  92 124 167 212 257 316 380
#
# _framework density 20.837841999999998
#
# number of rings (size 3 to 8) (size 9 to 14) (size 15 to 20)
#    0.000    1.231    3.077    3.692    2.154    3.692 
#    0.000    1.154    0.000    5.538    0.000    0.000 
#    0.000    0.000    0.000    0.000    0.000    0.000 
#
# Total GULP energy -289629.950283 kJ/mol
# GULP energy per Si atom -5569.806736 kJ/mol
# Density = 2.079041 g / cm^3
# Si number density = 20.837842 Si / 1000 Ang^3
#
#
#
# Elastic Constant Matrix: (Units=GPa)
#
#
# Indices 1 2 3 4 5 6 
#
# 1 105.5773 14.2584 14.1507 0.0000 0.0000 0.0000
# 2 14.2584 62.5998 17.3864 0.0000 0.0000 0.0000
# 3 14.1507 17.3864 74.6688 0.0000 0.0000 0.0000
# 4 0.0000 0.0000 0.0000 33.6738 0.0000 0.0000
# 5 0.0000 0.0000 0.0000 0.0000 16.6895 0.0000
# 6 0.0000 0.0000 0.0000 0.0000 0.0000 13.0275
#
#
#
# Elastic Compliance Matrix: (Units=1/GPa)
#
#
# Indices 1 2 3 4 5 6 
#
# 1 0.009916 -0.001857 -0.001447 0.000000 0.000000 0.000000
# 2 -0.001857 0.017427 -0.003706 0.000000 0.000000 0.000000
# 3 -0.001447 -0.003706 0.014530 0.000000 0.000000 0.000000
# 4 0.000000 0.000000 0.000000 0.029697 0.000000 0.000000
# 5 0.000000 0.000000 0.000000 0.000000 0.059918 0.000000
# 6 0.000000 0.000000 0.000000 0.000000 0.000000 0.076761
#
#
# Mechanical properties :
#
#
# Convention : Reuss Voigt Hill
#
# Bulk Modulus (GPa) = 35.90211 37.15963 36.53087
# Shear Modulus (GPa) = 21.59346 25.81486 23.70416
#
# Velocity S-wave (km/s) = 3.22259 3.52354 3.37642
# Velocity P-wave (km/s) = 5.57795 5.86731 5.72446
#
# Compressibility (1/GPa) = 0.02785351
#
# Stress axis : x y z
#
# Youngs Moduli (GPa) = 100.84274 57.38329 68.82509
#
# Poissons Ratio (x) = 0.10655 0.09959
# Poissons Ratio (y) = 0.18724 0.25506
# Poissons Ratio (z) = 0.14591 0.21265
#
# Static dielectric constant tensor:
#      x y z
#    x 1.860440 0.000000 0.000000 
#    y 0.000000 1.831280 0.000000 
#    z 0.000000 0.000000 1.790540 
# 
# From -- ./inp_files/15367.got.cif
#   From: 2010.05.17/outbox.cif.g08.bks.cpg/sg74_8_cif.got.tgz:15367.got - 2010.06.03 17:57:02.
