data_PCOD9540464
_publ_section_title
;
Structure prediction by ZEFSAII (Michael W. Deem and Ramdas Pophale) SiO2 
 PCOD9540464
Probable space group: I M M A
;
_chemical_formula_sum "Si O2"
_cell_formula_units_Z 64
_cell_length_a 14.644513
_cell_length_b 22.335269
_cell_length_c 8.686388
_cell_angle_alpha 90.000000
_cell_angle_beta 90.000000
_cell_angle_gamma 90.000000
_cell_volume 2841.223157
_symmetry_space_group_name_H-M "I M M A"
_symmetry_group_IT_number 74
_symmetry_cell_setting 'orthorhombic'
loop_
_space_group_symop_operation_xyz
x,y,z
-x,1/2-y,z
x,-y,-z
-x,1/2+y,-z
-x,-y,-z
x,1/2+y,-z
-x,y,z
x,1/2-y,z
1/2+x,1/2+y,1/2+z
1/2-x,-y,1/2+z
1/2+x,1/2-y,1/2-z
1/2-x,y,1/2-z
1/2-x,1/2-y,1/2-z
1/2+x,y,1/2-z
1/2-x,1/2+y,1/2+z
1/2+x,-y,1/2+z
loop_
_atom_site_type_symbol
_atom_site_label
_atom_site_fract_x
_atom_site_fract_y
_atom_site_fract_z
Si Si1 0.500000 0.930518 0.142677
Si Si2 0.312717 0.630402 0.110811
Si Si3 0.000000 0.564576 0.733159
Si Si4 0.393190 0.750000 0.460095
Si Si5 0.106058 0.750000 0.413446
Si Si6 0.177423 0.371622 0.118919
O O1 0.596018 0.899258 0.177142
O O2 0.500000 0.992591 0.234882
O O3 0.500000 0.928275 0.954062
O O4 0.250000 0.649825 0.250000
O O5 0.348283 0.689941 0.026638
O O6 0.244142 0.593351 0.002103
O O7 0.090090 0.593366 0.811939
O O8 0.500000 0.750000 0.494722
O O9 0.385294 0.750000 0.273548
O O10 0.354254 0.689160 0.534093
O O11 0.000000 0.750000 0.452308
O O12 0.250000 0.357023 0.250000
#
# Coordination Sequence:
#
# PCOD9540464 Si02
#       6
#     8  16   8   8   8  16
#     4  11  26  50  71  96 142 191 234 303 360 433
#     4  12  24  44  73 106 142 187 241 291 362 434
#     4  11  26  50  69 100 144 185 240 301 370 414
#     4  11  22  39  69 103 151 187 226 297 359 423
#     4  11  22  40  71 102 149 195 226 282 366 436
#     4  12  24  43  72 106 140 185 238 295 360 436
#
# _framework density 22.525507999999999
#
# number of rings (size 3 to 8) (size 9 to 14) (size 15 to 20)
#    0.000    0.500    7.500    1.500    0.000    2.000 
#    0.000    3.750    0.000    0.000    0.000    0.000 
#    0.000    0.000    0.000    0.000    0.000    0.000 
#
# Total GULP energy -178618.611827 kJ/mol
# GULP energy per Si atom -5581.831620 kJ/mol
# Density = 2.247424 g / cm^3
# Si number density = 22.525508 Si / 1000 Ang^3
#
#
#
# Elastic Constant Matrix: (Units=GPa)
#
#
# Indices 1 2 3 4 5 6 
#
# 1 240.7122 76.0766 50.8017 0.0000 0.0000 0.0000
# 2 76.0766 107.5175 8.4684 0.0000 0.0000 0.0000
# 3 50.8017 8.4684 31.5716 -0.0004 -0.0003 0.0000
# 4 0.0000 0.0000 -0.0004 15.4972 -0.0001 0.0000
# 5 0.0000 0.0000 -0.0003 -0.0001 21.9946 0.0000
# 6 0.0000 0.0000 0.0000 0.0000 0.0000 -23.8826
#
#
#
# Elastic Compliance Matrix: (Units=1/GPa)
#
#
# Indices 1 2 3 4 5 6 
#
# 1 0.008203 -0.004867 -0.011893 0.000000 0.000000 0.000000
# 2 -0.004867 0.012390 0.004509 0.000000 0.000000 0.000000
# 3 -0.011893 0.004509 0.049602 0.000001 0.000001 0.000000
# 4 0.000000 0.000000 0.000001 0.064528 0.000000 0.000000
# 5 0.000000 0.000000 0.000001 0.000000 0.045466 0.000000
# 6 0.000000 0.000000 0.000000 0.000000 0.000000 -0.041871
#
#
# Mechanical properties :
#
#
# Convention : Reuss Voigt Hill
#
# Bulk Modulus (GPa) = 21.88635 72.27716 47.08176
# Shear Modulus (GPa) = 28.08190 19.01882 23.55036
#
# Velocity S-wave (km/s) = 3.53465 2.90888 3.23692
# Velocity P-wave (km/s) = 5.13768 6.59079 5.90907
#
# Compressibility (1/GPa) = 0.04569058
#
# Stress axis : x y z
#
# Youngs Moduli (GPa) = 121.91128 80.71256 20.16039
#
# Poissons Ratio (x) = 0.39285 0.23977
# Poissons Ratio (y) = 0.59337 -0.09090
# Poissons Ratio (z) = 1.44993 -0.36390
#
# Static dielectric constant tensor:
#      x y z
#    x 1.851440 0.000000 0.000000 
#    y 0.000000 1.833410 0.000000 
#    z 0.000000 0.000000 1.894770 
# 
# From -- ./inp_files/8898.got.cif
#   From: 2010.05.17/outbox.cif.g08.bks.cpg/sg74_5_cif.got.tgz:8898.got - 2010.06.03 17:57:02.
