data_PCOD9540373
_publ_section_title
;
Structure prediction by ZEFSAII (Michael W. Deem and Ramdas Pophale) SiO2 
 PCOD9540373
Probable space group: I M M A
;
_chemical_formula_sum "Si O2"
_cell_formula_units_Z 48
_cell_length_a 15.402182
_cell_length_b 13.696604
_cell_length_c 9.192050
_cell_angle_alpha 90.000000
_cell_angle_beta 90.000000
_cell_angle_gamma 90.000000
_cell_volume 1939.132693
_symmetry_space_group_name_H-M "I M M A"
_symmetry_group_IT_number 74
_symmetry_cell_setting 'orthorhombic'
loop_
_space_group_symop_operation_xyz
x,y,z
-x,1/2-y,z
x,-y,-z
-x,1/2+y,-z
-x,-y,-z
x,1/2+y,-z
-x,y,z
x,1/2-y,z
1/2+x,1/2+y,1/2+z
1/2-x,-y,1/2+z
1/2+x,1/2-y,1/2-z
1/2-x,y,1/2-z
1/2-x,1/2-y,1/2-z
1/2+x,y,1/2-z
1/2-x,1/2+y,1/2+z
1/2+x,-y,1/2+z
loop_
_atom_site_type_symbol
_atom_site_label
_atom_site_fract_x
_atom_site_fract_y
_atom_site_fract_z
Si Si1 0.878829 0.750000 0.221837
Si Si2 0.260874 0.250000 0.006839
Si Si3 0.674811 0.445837 0.150691
Si Si4 0.000000 0.626137 0.138626
Si Si5 0.500000 0.632053 0.698571
O O1 0.834175 0.750000 0.063259
O O2 0.822613 0.750000 0.366464
O O3 0.912694 0.631460 0.227406
O O4 0.279336 0.154840 0.099007
O O5 0.750000 0.494460 0.250000
O O6 0.586117 0.413891 0.231586
O O7 0.655663 0.500000 0.000000
O O8 0.000000 0.750000 0.148671
O O9 0.000000 0.602119 0.972204
O O10 0.500000 0.750000 0.711593
#
# Coordination Sequence:
#
# PCOD9540373 Si02
#       5
#     8   8  16   8   8
#     4   8  18  31  62  98 131 170 238 284 345 429
#     4  11  21  39  70  94 139 190 233 294 365 423
#     4  12  28  46  72 108 149 192 249 305 372 441
#     4   7  16  33  59 100 131 170 231 281 353 424
#     4  11  21  45  74 104 141 195 243 296 367 446
#
# _framework density 24.753333999999999
#
# number of rings (size 3 to 8) (size 9 to 14) (size 15 to 20)
#    1.000    0.667    1.667    3.000    4.667    2.667 
#    0.000    0.833    0.000    0.000    0.000    0.000 
#    0.000    0.000    0.000    0.000    0.000    0.000 
#
# Total GULP energy -133654.513149 kJ/mol
# GULP energy per Si atom -5568.938048 kJ/mol
# Density = 2.469699 g / cm^3
# Si number density = 24.753334 Si / 1000 Ang^3
#
#
#
# Elastic Constant Matrix: (Units=GPa)
#
#
# Indices 1 2 3 4 5 6 
#
# 1 126.0049 13.5881 47.2794 0.0000 0.0000 0.0000
# 2 13.5881 97.9673 17.0741 0.0000 0.0000 0.0000
# 3 47.2794 17.0741 132.9956 0.0000 0.0000 0.0000
# 4 0.0000 0.0000 0.0000 50.9748 0.0000 0.0000
# 5 0.0000 0.0000 0.0000 0.0000 46.0413 0.0000
# 6 0.0000 0.0000 0.0000 0.0000 0.0000 6.3948
#
#
#
# Elastic Compliance Matrix: (Units=1/GPa)
#
#
# Indices 1 2 3 4 5 6 
#
# 1 0.009208 -0.000723 -0.003180 0.000000 0.000000 0.000000
# 2 -0.000723 0.010498 -0.001091 0.000000 0.000000 0.000000
# 3 -0.003180 -0.001091 0.008790 0.000000 0.000000 0.000000
# 4 0.000000 0.000000 0.000000 0.019618 0.000000 0.000000
# 5 0.000000 0.000000 0.000000 0.000000 0.021720 0.000000
# 6 0.000000 0.000000 0.000000 0.000000 0.000000 0.156378
#
#
# Mechanical properties :
#
#
# Convention : Reuss Voigt Hill
#
# Bulk Modulus (GPa) = 54.03343 56.98345 55.50844
# Shear Modulus (GPa) = 20.62983 39.28393 29.95688
#
# Velocity S-wave (km/s) = 2.89003 3.98806 3.48259
# Velocity P-wave (km/s) = 5.74565 6.65407 6.21647
#
# Compressibility (1/GPa) = 0.01850706
#
# Stress axis : x y z
#
# Youngs Moduli (GPa) = 108.60710 95.25765 113.76936
#
# Poissons Ratio (x) = 0.06885 0.36184
# Poissons Ratio (y) = 0.07850 0.12410
# Poissons Ratio (z) = 0.34542 0.10390
#
# Static dielectric constant tensor:
#      x y z
#    x 0.230960 0.000000 0.000000 
#    y 0.000000 2.155530 0.000000 
#    z 0.000000 0.000000 1.753180 
# 
# From -- ./inp_files/9773.got.cif
#   From: 2010.05.17/outbox.cif.g08.bks.cpg/sg74_5_cif.got.tgz:9773.got - 2010.06.03 17:57:02.
