data_PCOD9540051
_publ_section_title
;
Structure prediction by ZEFSAII (Michael W. Deem and Ramdas Pophale) SiO2 
 PCOD9540051
Probable space group: I M M A
;
_chemical_formula_sum "Si O2"
_cell_formula_units_Z 64
_cell_length_a 14.714976
_cell_length_b 10.259798
_cell_length_c 22.245891
_cell_angle_alpha 90.000000
_cell_angle_beta 90.000000
_cell_angle_gamma 90.000000
_cell_volume 3358.521813
_symmetry_space_group_name_H-M "I M M A"
_symmetry_group_IT_number 74
_symmetry_cell_setting 'orthorhombic'
loop_
_space_group_symop_operation_xyz
x,y,z
-x,1/2-y,z
x,-y,-z
-x,1/2+y,-z
-x,-y,-z
x,1/2+y,-z
-x,y,z
x,1/2-y,z
1/2+x,1/2+y,1/2+z
1/2-x,-y,1/2+z
1/2+x,1/2-y,1/2-z
1/2-x,y,1/2-z
1/2-x,1/2-y,1/2-z
1/2+x,y,1/2-z
1/2-x,1/2+y,1/2+z
1/2+x,-y,1/2+z
loop_
_atom_site_type_symbol
_atom_site_label
_atom_site_fract_x
_atom_site_fract_y
_atom_site_fract_z
Si Si1 0.662932 0.500000 0.500000
Si Si2 0.500000 0.901785 0.719362
Si Si3 0.500000 0.598752 0.577191
Si Si4 0.792828 0.750000 0.491437
Si Si5 0.335145 0.508770 0.794626
Si Si6 0.389728 0.750000 0.135724
Si Si7 0.611582 0.250000 0.121376
O O1 0.591703 0.531314 0.553370
O O2 0.727425 0.623770 0.489722
O O3 0.500000 0.750000 0.738327
O O4 0.500000 0.903845 0.648331
O O5 0.584205 0.972946 0.747830
O O6 0.500000 0.750000 0.556176
O O7 0.858232 0.750000 0.433615
O O8 0.850452 0.750000 0.553363
O O9 0.250000 0.515857 0.750000
O O10 0.348153 0.375887 0.831141
O O11 0.348156 0.625414 0.842882
O O12 0.500000 0.750000 0.139911
O O13 0.500000 0.250000 0.121744
#
# Coordination Sequence:
#
# PCOD9540051 Si02
#       7
#     8   8   8   8  16   8   8
#     4  11  24  46  63 106 132 176 225 280 324 405
#     4  11  23  42  70 105 130 174 226 277 333 398
#     4  10  23  42  72  94 143 174 217 275 345 389
#     4  12  27  41  72  96 132 178 234 275 329 392
#     4  12  25  43  70 101 135 175 220 278 337 400
#     4  12  26  49  64  93 141 178 217 275 341 402
#     4  12  24  47  70  99 131 172 233 281 327 390
#
# _framework density 19.056001999999999
#
# number of rings (size 3 to 8) (size 9 to 14) (size 15 to 20)
#    0.000    0.500    5.000    2.625    7.000    0.000 
#    0.000    5.000    0.000    0.000    0.000    0.000 
#    0.000    0.000    0.000    0.000    0.000    0.000 
#
# Total GULP energy -178789.461330 kJ/mol
# GULP energy per Si atom -5587.170667 kJ/mol
# Density = 1.901263 g / cm^3
# Si number density = 19.056002 Si / 1000 Ang^3
#
#
#
# Elastic Constant Matrix: (Units=GPa)
#
#
# Indices 1 2 3 4 5 6 
#
# 1 167.9334 66.2483 87.8499 0.0000 0.0000 0.0000
# 2 66.2483 174.0663 73.7540 0.0000 0.0000 0.0000
# 3 87.8499 73.7540 157.5328 0.0000 0.0000 0.0000
# 4 0.0000 0.0000 0.0000 33.2851 0.0000 0.0000
# 5 0.0000 0.0000 0.0000 0.0000 12.5463 0.0000
# 6 0.0000 0.0000 0.0000 0.0000 0.0000 25.1610
#
#
#
# Elastic Compliance Matrix: (Units=1/GPa)
#
#
# Indices 1 2 3 4 5 6 
#
# 1 0.008740 -0.001573 -0.004137 0.000000 0.000000 0.000000
# 2 -0.001573 0.007450 -0.002611 0.000000 0.000000 0.000000
# 3 -0.004137 -0.002611 0.009877 0.000000 0.000000 0.000000
# 4 0.000000 0.000000 0.000000 0.030043 0.000000 0.000000
# 5 0.000000 0.000000 0.000000 0.000000 0.079704 0.000000
# 6 0.000000 0.000000 0.000000 0.000000 0.000000 0.039744
#
#
# Mechanical properties :
#
#
# Convention : Reuss Voigt Hill
#
# Bulk Modulus (GPa) = 106.10361 106.13742 106.12051
# Shear Modulus (GPa) = 25.59612 32.31053 28.95332
#
# Velocity S-wave (km/s) = 3.66895 4.12218 3.90215
# Velocity P-wave (km/s) = 8.58773 8.85861 8.72422
#
# Compressibility (1/GPa) = 0.00942475
#
# Stress axis : x y z
#
# Youngs Moduli (GPa) = 114.42127 134.23145 101.24303
#
# Poissons Ratio (x) = 0.21118 0.41886
# Poissons Ratio (y) = 0.18001 0.26430
# Poissons Ratio (z) = 0.47338 0.35041
#
# Static dielectric constant tensor:
#      x y z
#    x 1.621100 0.000000 0.000000 
#    y 0.000000 1.642600 0.000000 
#    z 0.000000 0.000000 1.632560 
# 
# From -- ./inp_files/59573.got.cif
#   From: 2010.05.17/outbox.cif.g08.bks.cpg/sg74_30_cif.got.tgz:59573.got - 2010.06.03 17:57:02.
