data_PCOD9540441
_publ_section_title
;
Structure prediction by ZEFSAII (Michael W. Deem and Ramdas Pophale) SiO2 
 PCOD9540441
Probable space group: I M M A
;
_chemical_formula_sum "Si O2"
_cell_formula_units_Z 64
_cell_length_a 14.182215
_cell_length_b 10.453478
_cell_length_c 24.918418
_cell_angle_alpha 90.000000
_cell_angle_beta 90.000000
_cell_angle_gamma 90.000000
_cell_volume 3694.241998
_symmetry_space_group_name_H-M "I M M A"
_symmetry_group_IT_number 74
_symmetry_cell_setting 'orthorhombic'
loop_
_space_group_symop_operation_xyz
x,y,z
-x,1/2-y,z
x,-y,-z
-x,1/2+y,-z
-x,-y,-z
x,1/2+y,-z
-x,y,z
x,1/2-y,z
1/2+x,1/2+y,1/2+z
1/2-x,-y,1/2+z
1/2+x,1/2-y,1/2-z
1/2-x,y,1/2-z
1/2-x,1/2-y,1/2-z
1/2+x,y,1/2-z
1/2-x,1/2+y,1/2+z
1/2+x,-y,1/2+z
loop_
_atom_site_type_symbol
_atom_site_label
_atom_site_fract_x
_atom_site_fract_y
_atom_site_fract_z
Si Si1 0.609409 0.097081 0.153143
Si Si2 0.112224 0.897268 0.779560
Si Si3 0.611650 0.250000 0.566433
Si Si4 0.110576 0.750000 0.937744
Si Si5 0.298749 0.998253 0.617158
O O1 0.500000 0.067357 0.141697
O O2 0.622648 0.250000 0.144612
O O3 0.626231 0.074676 0.216800
O O4 0.686256 0.019146 0.119940
O O5 0.143404 0.750000 0.788942
O O6 0.163995 0.986379 0.821735
O O7 0.000000 0.902395 0.789309
O O8 0.500000 0.250000 0.580302
O O9 0.618279 0.250000 0.501975
O O10 0.662277 0.374786 0.590015
O O11 0.157981 0.876124 0.913521
O O12 0.000000 0.750000 0.923098
#
# Coordination Sequence:
#
# PCOD9540441 Si02
#       5
#    16  16   8   8  16
#     4   9  18  33  55  86 115 140 180 230 264 304
#     4   9  16  28  52  85 113 137 177 224 266 319
#     4  11  26  40  52  79 117 141 172 230 284 325
#     4  11  22  38  60  81 101 137 188 232 272 325
#     4  12  20  35  59  81 108 149 182 216 273 329
#
# _framework density 17.324258
#
# number of rings (size 3 to 8) (size 9 to 14) (size 15 to 20)
#    0.000    1.750    2.500    5.250    0.000    4.000 
#    0.000    3.125    0.000    7.500    0.000    0.000 
#    0.000    0.000    0.000    0.000    0.000    0.000 
#
# Total GULP energy -178707.895349 kJ/mol
# GULP energy per Si atom -5584.621730 kJ/mol
# Density = 1.728483 g / cm^3
# Si number density = 17.324258 Si / 1000 Ang^3
#
#
#
# Elastic Constant Matrix: (Units=GPa)
#
#
# Indices 1 2 3 4 5 6 
#
# 1 137.8722 66.5169 66.3386 0.0000 0.0000 0.0000
# 2 66.5169 109.4865 41.5106 0.0000 0.0000 0.0000
# 3 66.3386 41.5106 46.7932 0.0000 0.0000 0.0000
# 4 0.0000 0.0000 0.0000 1.9654 0.0000 0.0000
# 5 0.0000 0.0000 0.0000 0.0000 24.6634 0.0000
# 6 0.0000 0.0000 0.0000 0.0000 0.0000 26.2343
#
#
#
# Elastic Compliance Matrix: (Units=1/GPa)
#
#
# Indices 1 2 3 4 5 6 
#
# 1 0.023248 -0.002453 -0.030782 0.000000 0.000000 0.000000
# 2 -0.002453 0.014021 -0.008961 0.000000 0.000000 0.000000
# 3 -0.030782 -0.008961 0.072960 0.000000 0.000000 0.000000
# 4 0.000000 0.000000 0.000000 0.508804 0.000000 0.000000
# 5 0.000000 0.000000 0.000000 0.000000 0.040546 0.000000
# 6 0.000000 0.000000 0.000000 0.000000 0.000000 0.038118
#
#
# Mechanical properties :
#
#
# Convention : Reuss Voigt Hill
#
# Bulk Modulus (GPa) = 38.70446 71.43156 55.06801
# Shear Modulus (GPa) = 6.32350 18.55835 12.44093
#
# Velocity S-wave (km/s) = 1.91259 3.27652 2.68269
# Velocity P-wave (km/s) = 5.22179 7.45894 6.43828
#
# Compressibility (1/GPa) = 0.02583682
#
# Stress axis : x y z
#
# Youngs Moduli (GPa) = 43.01480 71.32064 13.70622
#
# Poissons Ratio (x) = 0.17496 0.42191
# Poissons Ratio (y) = 0.10552 0.12281
# Poissons Ratio (z) = 1.32409 0.63907
#
# Static dielectric constant tensor:
#      x y z
#    x 1.617370 0.000000 0.000000 
#    y 0.000000 1.551830 0.000000 
#    z 0.000000 0.000000 1.585620 
# 
# From -- ./inp_files/56431.got.cif
#   From: 2010.05.17/outbox.cif.g08.bks.cpg/sg74_29_cif.got.tgz:56431.got - 2010.06.03 17:57:02.
