data_PCOD9540921
_publ_section_title
;
Structure prediction by ZEFSAII (Michael W. Deem and Ramdas Pophale) SiO2 
 PCOD9540921
Probable space group: I M M A
;
_chemical_formula_sum "Si O2"
_cell_formula_units_Z 36
_cell_length_a 21.000000
_cell_length_b 21.000000
_cell_length_c 9.000000
_cell_angle_alpha 90.000000
_cell_angle_beta 90.000000
_cell_angle_gamma 90.000000
_cell_volume 3969.000000
_symmetry_space_group_name_H-M "I M M A"
_symmetry_group_IT_number 74
_symmetry_cell_setting 'orthorhombic'
loop_
_space_group_symop_operation_xyz
x,y,z
-x,1/2-y,z
x,-y,-z
-x,1/2+y,-z
-x,-y,-z
x,1/2+y,-z
-x,y,z
x,1/2-y,z
1/2+x,1/2+y,1/2+z
1/2-x,-y,1/2+z
1/2+x,1/2-y,1/2-z
1/2-x,y,1/2-z
1/2-x,1/2-y,1/2-z
1/2+x,y,1/2-z
1/2-x,1/2+y,1/2+z
1/2+x,-y,1/2+z
loop_
_atom_site_type_symbol
_atom_site_label
_atom_site_fract_x
_atom_site_fract_y
_atom_site_fract_z
Si Si1 0.804621 0.592992 0.151557
Si Si2 0.000000 0.034631 0.242846
Si Si3 0.500000 0.405706 0.939477
Si Si4 0.598852 0.500000 0.500000
Si Si5 0.377661 0.322692 0.882646
Si Si6 0.262813 0.320726 0.077748
O O1 0.750000 0.559634 0.250000
O O2 0.858568 0.547079 0.095612
O O3 0.832701 0.648293 0.255725
O O4 0.773281 0.625102 0.009682
O O5 0.000000 0.082025 0.382577
O O6 0.000000 0.968136 0.335004
O O7 0.942156 0.036374 0.125536
O O8 0.438347 0.366037 0.898008
O O9 0.394014 0.250000 0.850607
O O10 0.336557 0.325559 0.033480
O O11 0.242252 0.250000 0.025626
O O12 0.250000 0.325322 0.250000
#
# Coordination Sequence:
#
# PCOD9540921 Si02
#       6
#    16   8   8   8  16  16
#     4  10  21  37  57  87 116 150 187 234 286 346
#     4  10  24  40  61  75 117 157 192 239 281 334
#     4  11  21  40  59  85 108 153 198 236 284 332
#     4  11  22  42  58  84 114 155 198 232 278 343
#     4  10  20  37  61  86 115 149 192 237 286 347
#     4   9  19  35  57  86 116 147 180 231 298 346
#
# _framework density 9.0702949999999998
#
# number of rings (size 3 to 8) (size 9 to 14) (size 15 to 20)
#    0.000    2.000    2.222    1.000    3.111    3.556 
#    4.000    0.000    0.000    0.000    0.000    0.000 
#    0.000    0.000    0.000    0.000    0.000    0.000 
#
# Total GULP energy -200510.903850 kJ/mol
# GULP energy per Si atom -5569.747329 kJ/mol
# Density = 0.904965 g / cm^3
# Si number density = 9.070295 Si / 1000 Ang^3
#
#
#
# Elastic Constant Matrix: (Units=GPa)
#
#
# Indices 1 2 3 4 5 6 
#
# 1 65.6301 23.9948 23.1484 0.0000 0.0000 0.0000
# 2 23.9948 31.2550 6.9066 0.0000 0.0000 0.0000
# 3 23.1484 6.9066 69.1646 0.0000 0.0000 0.0000
# 4 0.0000 0.0000 0.0000 10.8384 0.0000 0.0000
# 5 0.0000 0.0000 0.0000 0.0000 23.8433 0.0000
# 6 0.0000 0.0000 0.0000 0.0000 0.0000 22.0828
#
#
#
# Elastic Compliance Matrix: (Units=1/GPa)
#
#
# Indices 1 2 3 4 5 6 
#
# 1 0.023529 -0.016692 -0.006208 0.000000 0.000000 0.000000
# 2 -0.016692 0.044558 0.001137 0.000000 0.000000 0.000000
# 3 -0.006208 0.001137 0.016422 0.000000 0.000000 0.000000
# 4 0.000000 0.000000 0.000000 0.092264 0.000000 0.000000
# 5 0.000000 0.000000 0.000000 0.000000 0.041940 0.000000
# 6 0.000000 0.000000 0.000000 0.000000 0.000000 0.045284
#
#
# Mechanical properties :
#
#
# Convention : Reuss Voigt Hill
#
# Bulk Modulus (GPa) = 24.39971 30.46103 27.43037
# Shear Modulus (GPa) = 15.56732 18.81957 17.19345
#
# Velocity S-wave (km/s) = 2.93260 3.22441 3.08196
# Velocity P-wave (km/s) = 4.99463 5.53990 5.27432
#
# Compressibility (1/GPa) = 0.04098409
#
# Stress axis : x y z
#
# Youngs Moduli (GPa) = 42.50046 22.44264 60.89223
#
# Poissons Ratio (x) = 0.37461 0.37802
# Poissons Ratio (y) = 0.70941 -0.06923
# Poissons Ratio (z) = 0.26384 -0.02552
#
# Static dielectric constant tensor:
#      x y z
#    x 1.759450 0.000000 0.000000 
#    y 0.000000 1.624390 0.000000 
#    z 0.000000 0.000000 1.586660 
# 
# From -- ./inp_files/12173.got.cif
#   From: 2010.05.17/outbox.ucp.g08.bks.cvg/sg74_7_cif.got.tgz:12173.got - 2010.06.11 16:37:44.
