data_PCOD9540978
_publ_section_title
;
Structure prediction by ZEFSAII (Michael W. Deem and Ramdas Pophale) SiO2 
 PCOD9540978
Probable space group: I M M A
;
_chemical_formula_sum "Si O2"
_cell_formula_units_Z 56
_cell_length_a 27.000000
_cell_length_b 15.000000
_cell_length_c 15.000000
_cell_angle_alpha 90.000000
_cell_angle_beta 90.000000
_cell_angle_gamma 90.000000
_cell_volume 6075.000000
_symmetry_space_group_name_H-M "I M M A"
_symmetry_group_IT_number 74
_symmetry_cell_setting 'orthorhombic'
loop_
_space_group_symop_operation_xyz
x,y,z
-x,1/2-y,z
x,-y,-z
-x,1/2+y,-z
-x,-y,-z
x,1/2+y,-z
-x,y,z
x,1/2-y,z
1/2+x,1/2+y,1/2+z
1/2-x,-y,1/2+z
1/2+x,1/2-y,1/2-z
1/2-x,y,1/2-z
1/2-x,1/2-y,1/2-z
1/2+x,y,1/2-z
1/2-x,1/2+y,1/2+z
1/2+x,-y,1/2+z
loop_
_atom_site_type_symbol
_atom_site_label
_atom_site_fract_x
_atom_site_fract_y
_atom_site_fract_z
Si Si1 0.776003 0.648840 0.654693
Si Si2 0.923943 0.356647 0.062911
Si Si3 0.322366 0.524110 0.102058
Si Si4 0.816223 0.397359 0.029759
Si Si5 0.230847 0.348962 0.859370
Si Si6 0.137826 0.357009 0.741313
Si Si7 0.555932 0.054434 0.631342
O O1 0.792750 0.750000 0.633170
O O2 0.750000 0.650031 0.750000
O O3 0.816499 0.570719 0.651725
O O4 0.732965 0.619329 0.586315
O O5 0.938924 0.250000 0.074565
O O6 0.864858 0.361256 0.076937
O O7 0.941575 0.445808 0.118038
O O8 0.936010 0.392143 0.962511
O O9 0.269915 0.576809 0.110831
O O10 0.360976 0.591380 0.147350
O O11 0.331997 0.500000 0.000000
O O12 0.823518 0.500000 0.000000
O O13 0.808703 0.345372 0.938670
O O14 0.253296 0.250000 0.851164
O O15 0.194728 0.371087 0.777256
O O16 0.129657 0.250000 0.738388
O O17 0.098420 0.407032 0.804124
O O18 0.500000 0.074910 0.662049
#
# Coordination Sequence:
#
# PCOD9540978 Si02
#       7
#    16  16  16  16  16  16  16
#     4  11  23  34  49  75 113 160 205 238 273 333
#     4  11  21  35  59  88 125 165 201 239 289 350
#     4  12  24  37  56  81 114 152 191 244 293 347
#     4  12  19  34  53  81 120 165 198 240 285 332
#     4  11  19  34  57  83 114 155 196 236 287 340
#     4  11  24  41  62  88 117 151 199 251 302 359
#     4  11  24  40  60  88 120 154 198 248 301 360
#
# _framework density 9.2181069999999998
#
# number of rings (size 3 to 8) (size 9 to 14) (size 15 to 20)
#    0.000    0.714    5.714    4.286    2.000    3.714 
#    0.000    0.000    0.000    0.429    0.000    0.000 
#    0.000    0.000    0.000    0.000    0.000    0.000 
#
# Total GULP energy -312318.727539 kJ/mol
# GULP energy per Si atom -5577.120135 kJ/mol
# Density = 0.919713 g / cm^3
# Si number density = 9.218107 Si / 1000 Ang^3
#
#
#
# Elastic Constant Matrix: (Units=GPa)
#
#
# Indices 1 2 3 4 5 6 
#
# 1 48.6990 30.7212 16.0124 0.0000 0.0000 0.0000
# 2 30.7212 171.0820 40.6596 0.0000 0.0000 0.0000
# 3 16.0124 40.6596 86.5580 0.0000 0.0000 0.0000
# 4 0.0000 0.0000 0.0000 37.1871 0.0000 0.0000
# 5 0.0000 0.0000 0.0000 0.0000 1.6880 0.0000
# 6 0.0000 0.0000 0.0000 0.0000 0.0000 11.9893
#
#
#
# Elastic Compliance Matrix: (Units=1/GPa)
#
#
# Indices 1 2 3 4 5 6 
#
# 1 0.023699 -0.003618 -0.002685 0.000000 0.000000 0.000000
# 2 -0.003618 0.007132 -0.002681 0.000000 0.000000 0.000000
# 3 -0.002685 -0.002681 0.013309 0.000000 0.000000 0.000000
# 4 0.000000 0.000000 0.000000 0.026891 0.000000 0.000000
# 5 0.000000 0.000000 0.000000 0.000000 0.592408 0.000000
# 6 0.000000 0.000000 0.000000 0.000000 0.000000 0.083408
#
#
# Mechanical properties :
#
#
# Convention : Reuss Voigt Hill
#
# Bulk Modulus (GPa) = 38.20669 53.45840 45.83254
# Shear Modulus (GPa) = 6.46381 24.76927 15.61654
#
# Velocity S-wave (km/s) = 1.87447 3.66937 2.91358
# Velocity P-wave (km/s) = 5.04515 6.85651 6.01936
#
# Compressibility (1/GPa) = 0.02617343
#
# Stress axis : x y z
#
# Youngs Moduli (GPa) = 42.19547 140.21480 75.13746
#
# Poissons Ratio (x) = 0.50724 0.20173
# Poissons Ratio (y) = 0.15265 0.20144
# Poissons Ratio (z) = 0.11329 0.37590
#
# Static dielectric constant tensor:
#      x y z
#    x 1.645160 0.000000 0.000000 
#    y 0.000000 1.698080 0.000000 
#    z 0.000000 0.000000 1.714150 
# 
# From -- ./inp_files/37364.got.cif
#   From: 2010.05.17/outbox.ucp.g08.bks.cvg/sg74_19_cif.got.tgz:37364.got - 2010.06.11 16:37:44.
