data_PCOD9540727
_publ_section_title
;
Structure prediction by ZEFSAII (Michael W. Deem and Ramdas Pophale) SiO2 
 PCOD9540727
Probable space group: I M M A
;
_chemical_formula_sum "Si O2"
_cell_formula_units_Z 88
_cell_length_a 20.771446
_cell_length_b 14.210760
_cell_length_c 12.675806
_cell_angle_alpha 90.000000
_cell_angle_beta 90.000000
_cell_angle_gamma 90.000000
_cell_volume 3741.619494
_symmetry_space_group_name_H-M "I M M A"
_symmetry_group_IT_number 74
_symmetry_cell_setting 'orthorhombic'
loop_
_space_group_symop_operation_xyz
x,y,z
-x,1/2-y,z
x,-y,-z
-x,1/2+y,-z
-x,-y,-z
x,1/2+y,-z
-x,y,z
x,1/2-y,z
1/2+x,1/2+y,1/2+z
1/2-x,-y,1/2+z
1/2+x,1/2-y,1/2-z
1/2-x,y,1/2-z
1/2-x,1/2-y,1/2-z
1/2+x,y,1/2-z
1/2-x,1/2+y,1/2+z
1/2+x,-y,1/2+z
loop_
_atom_site_type_symbol
_atom_site_label
_atom_site_fract_x
_atom_site_fract_y
_atom_site_fract_z
Si Si1 0.000000 0.439960 0.253562
Si Si2 0.356515 0.350618 0.817732
Si Si3 0.500000 0.888001 0.521935
Si Si4 0.719439 0.611330 0.977820
Si Si5 0.642929 0.934684 0.777608
Si Si6 0.639455 0.608976 0.534091
Si Si7 0.000000 0.650174 0.260280
O O1 0.000000 0.376403 0.149429
O O2 0.932321 0.429114 0.313525
O O3 0.000000 0.547758 0.208140
O O4 0.337924 0.250000 0.764924
O O5 0.339179 0.453061 0.768306
O O6 0.433776 0.350593 0.823533
O O7 0.327551 0.350497 0.933785
O O8 0.500000 0.000000 0.500000
O O9 0.428637 0.853336 0.490289
O O10 0.689807 0.616113 0.860348
O O11 0.791320 0.648152 0.996832
O O12 0.722146 0.500000 0.000000
O O13 0.642410 0.891431 0.661369
O O14 0.638798 0.500000 0.500000
O O15 0.000000 0.750000 0.199775
#
# Coordination Sequence:
#
# PCOD9540727 Si02
#       7
#     8  16   8  16  16  16   8
#     4   8  14  23  38  63  90 113 147 185 217 265
#     4   9  17  29  45  68  96 124 153 183 220 269
#     4   8  14  24  39  61  81 103 138 188 236 266
#     4   9  17  27  43  65  90 119 147 180 221 269
#     4   9  16  27  44  66  91 120 150 185 228 269
#     4   9  16  27  44  63  85 111 146 188 230 270
#     4   8  14  25  41  62  94 128 148 171 213 265
#
# _framework density 23.519227999999998
#
# number of rings (size 3 to 8) (size 9 to 14) (size 15 to 20)
#    0.000    3.273    0.000    0.545    0.000    0.727 
#    0.000    3.636    0.000   21.818    0.000    9.545 
#    0.000    5.818    0.000    1.091    0.000    0.000 
#
# Total GULP energy -245021.593445 kJ/mol
# GULP energy per Si atom -5568.672578 kJ/mol
# Density = 2.346570 g / cm^3
# Si number density = 23.519228 Si / 1000 Ang^3
#
#
#
# Elastic Constant Matrix: (Units=GPa)
#
#
# Indices 1 2 3 4 5 6 
#
# 1 156.0090 21.6011 52.5941 0.0000 0.0000 0.0000
# 2 21.6011 72.6295 -7.1802 0.0000 0.0000 0.0000
# 3 52.5941 -7.1802 59.9547 0.0000 0.0000 0.0000
# 4 0.0000 0.0000 0.0000 -2.3798 0.0000 0.0000
# 5 0.0000 0.0000 0.0000 0.0000 19.1487 0.0000
# 6 0.0000 0.0000 0.0000 0.0000 0.0000 -778.7453
#
#
#
# Elastic Compliance Matrix: (Units=1/GPa)
#
#
# Indices 1 2 3 4 5 6 
#
# 1 0.010098 -0.003926 -0.009329 0.000000 0.000000 0.000000
# 2 -0.003926 0.015460 0.005295 0.000000 0.000000 0.000000
# 3 -0.009329 0.005295 0.025497 0.000000 0.000000 0.000000
# 4 0.000000 0.000000 0.000000 -0.420204 0.000000 0.000000
# 5 0.000000 0.000000 0.000000 0.000000 0.052223 0.000000
# 6 0.000000 0.000000 0.000000 0.000000 0.000000 -0.001284
#
#
# Mechanical properties :
#
#
# Convention : Reuss Voigt Hill
#
# Bulk Modulus (GPa) = 28.46063 46.95815 37.70939
# Shear Modulus (GPa) = -17.20696 -137.62341 -77.41519
#
# Velocity S-wave (km/s) = -2.70777 -7.65783 -5.74344
# Velocity P-wave (km/s) = 1.53338 7.62762 5.28343
#
# Compressibility (1/GPa) = 0.03513626
#
# Stress axis : x y z
#
# Youngs Moduli (GPa) = 99.02601 64.68504 39.22050
#
# Poissons Ratio (x) = 0.25393 0.36588
# Poissons Ratio (y) = 0.38874 -0.20768
# Poissons Ratio (z) = 0.92379 -0.34252
#
# Static dielectric constant tensor:
#      x y z
#    x 1.921830 0.000000 0.000000 
#    y 0.000000 1.959080 0.000000 
#    z 0.000000 0.000000 1.857190 
# 
# From -- ./inp_files/34275.got.cif
#   From: 2010.05.17/outbox.cif.g08.bks.cpg/sg74_18_cif.got.tgz:34275.got - 2010.06.03 17:57:02.
