data_PCOD9540136
_publ_section_title
;
Structure prediction by ZEFSAII (Michael W. Deem and Ramdas Pophale) SiO2 
 PCOD9540136
Probable space group: I M M A
;
_chemical_formula_sum "Si O2"
_cell_formula_units_Z 52
_cell_length_a 14.931840
_cell_length_b 20.962593
_cell_length_c 7.214833
_cell_angle_alpha 90.000000
_cell_angle_beta 90.000000
_cell_angle_gamma 90.000000
_cell_volume 2258.315488
_symmetry_space_group_name_H-M "I M M A"
_symmetry_group_IT_number 74
_symmetry_cell_setting 'orthorhombic'
loop_
_space_group_symop_operation_xyz
x,y,z
-x,1/2-y,z
x,-y,-z
-x,1/2+y,-z
-x,-y,-z
x,1/2+y,-z
-x,y,z
x,1/2-y,z
1/2+x,1/2+y,1/2+z
1/2-x,-y,1/2+z
1/2+x,1/2-y,1/2-z
1/2-x,y,1/2-z
1/2-x,1/2-y,1/2-z
1/2+x,y,1/2-z
1/2-x,1/2+y,1/2+z
1/2+x,-y,1/2+z
loop_
_atom_site_type_symbol
_atom_site_label
_atom_site_fract_x
_atom_site_fract_y
_atom_site_fract_z
Si Si1 0.750000 0.250000 0.750000
Si Si2 0.853597 0.677282 0.695772
Si Si3 0.606887 0.564929 0.083965
Si Si4 0.398424 0.850802 0.395944
O O1 0.679272 0.304228 0.672704
O O2 0.881796 0.750000 0.644832
O O3 0.750000 0.681394 0.750000
O O4 0.864991 0.627011 0.532897
O O5 0.899486 0.652334 0.882321
O O6 0.500000 0.560990 0.061780
O O7 0.622732 0.581373 0.299410
O O8 0.646377 0.500000 0.000000
O O9 0.500000 0.832567 0.334246
#
# Coordination Sequence:
#
# PCOD9540136 Si02
#       4
#     4  16  16  16
#     4  12  22  40  66  98 142 166 222 290 334 408
#     4  11  24  42  67 101 134 176 232 290 344 405
#     4  10  24  45  67  97 136 180 230 280 338 414
#     4  11  24  42  70 101 139 185 229 283 351 413
#
# _framework density 23.026012999999999
#
# number of rings (size 3 to 8) (size 9 to 14) (size 15 to 20)
#    0.000    1.231    1.538    3.231    6.462    3.077 
#    8.308    4.615    0.000    0.000    0.000    0.000 
#    0.000    0.000    0.000    0.000    0.000    0.000 
#
# Total GULP energy -144754.648147 kJ/mol
# GULP energy per Si atom -5567.486467 kJ/mol
# Density = 2.297360 g / cm^3
# Si number density = 23.026013 Si / 1000 Ang^3
#
#
#
# Elastic Constant Matrix: (Units=GPa)
#
#
# Indices 1 2 3 4 5 6 
#
# 1 66.2073 -20.5937 8.3686 0.0000 0.0000 0.0000
# 2 -20.5937 138.3020 64.7251 0.0000 0.0000 0.0000
# 3 8.3686 64.7251 83.9126 0.0000 0.0000 0.0000
# 4 0.0000 0.0000 0.0000 15.2007 0.0000 0.0000
# 5 0.0000 0.0000 0.0000 0.0000 31.4957 0.0000
# 6 0.0000 0.0000 0.0000 0.0000 0.0000 -5.0274
#
#
#
# Elastic Compliance Matrix: (Units=1/GPa)
#
#
# Indices 1 2 3 4 5 6 
#
# 1 0.017515 0.005361 -0.005882 0.000000 0.000000 0.000000
# 2 0.005361 0.012956 -0.010528 0.000000 0.000000 0.000000
# 3 -0.005882 -0.010528 0.020624 0.000000 0.000000 0.000000
# 4 0.000000 0.000000 0.000000 0.065787 0.000000 0.000000
# 5 0.000000 0.000000 0.000000 0.000000 0.031750 0.000000
# 6 0.000000 0.000000 0.000000 0.000000 0.000000 -0.198909
#
#
# Mechanical properties :
#
#
# Convention : Reuss Voigt Hill
#
# Bulk Modulus (GPa) = 34.48608 43.71354 39.09981
# Shear Modulus (GPa) = -270.07528 24.06192 -123.00668
#
# Velocity S-wave (km/s) = -10.84186 3.23614 -7.31688
# Velocity P-wave (km/s) = 11.90456 5.74361 7.37324
#
# Compressibility (1/GPa) = 0.02899720
#
# Stress axis : x y z
#
# Youngs Moduli (GPa) = 57.09422 77.18535 48.48640
#
# Poissons Ratio (x) = -0.41376 0.28518
# Poissons Ratio (y) = -0.30606 0.51046
# Poissons Ratio (z) = 0.33581 0.81260
#
# Static dielectric constant tensor:
#      x y z
#    x 1.882580 0.000000 0.000000 
#    y 0.000000 1.875970 0.000000 
#    z 0.000000 0.000000 1.975880 
# 
# From -- ./inp_files/8340.got.cif
#   From: 2010.05.17/outbox.cif.g08.bks.cpg/sg74_5_cif.got.tgz:8340.got - 2010.06.03 17:57:02.
