data_PCOD9540114
_publ_section_title
;
Structure prediction by ZEFSAII (Michael W. Deem and Ramdas Pophale) SiO2 
 PCOD9540114
Probable space group: I M M A
;
_chemical_formula_sum "Si O2"
_cell_formula_units_Z 84
_cell_length_a 24.492976
_cell_length_b 12.800075
_cell_length_c 14.185849
_cell_angle_alpha 90.000000
_cell_angle_beta 90.000000
_cell_angle_gamma 90.000000
_cell_volume 4447.432895
_symmetry_space_group_name_H-M "I M M A"
_symmetry_group_IT_number 74
_symmetry_cell_setting 'orthorhombic'
loop_
_space_group_symop_operation_xyz
x,y,z
-x,1/2-y,z
x,-y,-z
-x,1/2+y,-z
-x,-y,-z
x,1/2+y,-z
-x,y,z
x,1/2-y,z
1/2+x,1/2+y,1/2+z
1/2-x,-y,1/2+z
1/2+x,1/2-y,1/2-z
1/2-x,y,1/2-z
1/2-x,1/2-y,1/2-z
1/2+x,y,1/2-z
1/2-x,1/2+y,1/2+z
1/2+x,-y,1/2+z
loop_
_atom_site_type_symbol
_atom_site_label
_atom_site_fract_x
_atom_site_fract_y
_atom_site_fract_z
Si Si1 0.314800 0.250000 0.499922
Si Si2 0.397569 0.519995 0.728151
Si Si3 0.500000 0.873002 0.325265
Si Si4 0.219557 0.250000 0.352538
Si Si5 0.906499 0.750000 0.842161
Si Si6 0.178124 0.980237 0.610959
Si Si7 0.500000 0.750000 0.505989
Si Si8 0.296411 0.546750 0.396267
O O1 0.256811 0.250000 0.446767
O O2 0.352180 0.250000 0.406831
O O3 0.320117 0.343302 0.573157
O O4 0.446687 0.442207 0.699871
O O5 0.412755 0.642559 0.716298
O O6 0.374937 0.488342 0.830479
O O7 0.342884 0.508764 0.663864
O O8 0.500000 0.750000 0.287972
O O9 0.500000 0.849635 0.437200
O O10 0.250000 0.250000 0.250000
O O11 0.187485 0.141503 0.362321
O O12 0.949762 0.750000 0.925430
O O13 0.171008 0.000000 0.500000
O O14 0.234571 0.038552 0.642155
O O15 0.289996 0.500000 0.500000
#
# Coordination Sequence:
#
# PCOD9540114 Si02
#       8
#     8  16   8   8   8  16   4  16
#     4  12  20  34  53  94 132 168 208 254 315 394
#     4  12  24  42  65  93 131 171 220 267 323 385
#     4  10  27  47  63  92 130 168 212 249 331 405
#     4  12  20  36  62  90 133 170 217 269 325 384
#     4  12  22  36  66  97 124 166 210 269 324 369
#     4  11  23  41  61  96 128 173 223 268 323 378
#     4  10  24  42  64  96 128 162 206 260 332 394
#     4  11  21  35  59  93 135 169 210 256 324 398
#
# _framework density 18.8873
#
# number of rings (size 3 to 8) (size 9 to 14) (size 15 to 20)
#    0.286    0.381    5.714    5.143    1.333    0.762 
#    3.429    1.429    0.000    0.000    0.000    0.000 
#    0.000    0.000    0.000    0.000    0.000    0.000 
#
# Total GULP energy -233911.393448 kJ/mol
# GULP energy per Si atom -5569.318892 kJ/mol
# Density = 1.884431 g / cm^3
# Si number density = 18.887300 Si / 1000 Ang^3
#
#
#
# Elastic Constant Matrix: (Units=GPa)
#
#
# Indices 1 2 3 4 5 6 
#
# 1 99.8306 18.3382 43.8321 0.0000 0.0000 0.0000
# 2 18.3382 98.9364 25.6325 0.0000 0.0000 0.0000
# 3 43.8321 25.6325 108.7133 0.0000 0.0000 0.0000
# 4 0.0000 0.0000 0.0000 10.3520 0.0000 0.0000
# 5 0.0000 0.0000 0.0000 0.0000 34.9468 0.0000
# 6 0.0000 0.0000 0.0000 0.0000 0.0000 5.9542
#
#
#
# Elastic Compliance Matrix: (Units=1/GPa)
#
#
# Indices 1 2 3 4 5 6 
#
# 1 0.012275 -0.001058 -0.004700 0.000000 0.000000 0.000000
# 2 -0.001058 0.010856 -0.002133 0.000000 0.000000 0.000000
# 3 -0.004700 -0.002133 0.011596 0.000000 0.000000 0.000000
# 4 0.000000 0.000000 0.000000 0.096600 0.000000 0.000000
# 5 0.000000 0.000000 0.000000 0.000000 0.028615 0.000000
# 6 0.000000 0.000000 0.000000 0.000000 0.000000 0.167949
#
#
# Mechanical properties :
#
#
# Convention : Reuss Voigt Hill
#
# Bulk Modulus (GPa) = 52.78100 53.67621 53.22861
# Shear Modulus (GPa) = 14.28623 24.89577 19.59100
#
# Velocity S-wave (km/s) = 2.75324 3.63453 3.22414
# Velocity P-wave (km/s) = 6.17358 6.78926 6.48872
#
# Compressibility (1/GPa) = 0.01894621
#
# Stress axis : x y z
#
# Youngs Moduli (GPa) = 81.46845 92.11315 86.23405
#
# Poissons Ratio (x) = 0.09742 0.40527
# Poissons Ratio (y) = 0.08616 0.18396
# Poissons Ratio (z) = 0.38287 0.19650
#
# Static dielectric constant tensor:
#      x y z
#    x 1.583670 0.000000 0.000000 
#    y 0.000000 1.619970 0.000000 
#    z 0.000000 0.000000 1.635910 
# 
# From -- ./inp_files/36308.got.cif
#   From: 2010.05.17/outbox.cif.g08.bks.cpg/sg74_19_cif.got.tgz:36308.got - 2010.06.03 17:57:02.
