data_PCOD9540597
_publ_section_title
;
Structure prediction by ZEFSAII (Michael W. Deem and Ramdas Pophale) SiO2 
 PCOD9540597
Probable space group: I M M A
;
_chemical_formula_sum "Si O2"
_cell_formula_units_Z 56
_cell_length_a 23.872532
_cell_length_b 18.962195
_cell_length_c 5.051033
_cell_angle_alpha 90.000000
_cell_angle_beta 90.000000
_cell_angle_gamma 90.000000
_cell_volume 2286.479429
_symmetry_space_group_name_H-M "I M M A"
_symmetry_group_IT_number 74
_symmetry_cell_setting 'orthorhombic'
loop_
_space_group_symop_operation_xyz
x,y,z
-x,1/2-y,z
x,-y,-z
-x,1/2+y,-z
-x,-y,-z
x,1/2+y,-z
-x,y,z
x,1/2-y,z
1/2+x,1/2+y,1/2+z
1/2-x,-y,1/2+z
1/2+x,1/2-y,1/2-z
1/2-x,y,1/2-z
1/2-x,1/2-y,1/2-z
1/2+x,y,1/2-z
1/2-x,1/2+y,1/2+z
1/2+x,-y,1/2+z
loop_
_atom_site_type_symbol
_atom_site_label
_atom_site_fract_x
_atom_site_fract_y
_atom_site_fract_z
Si Si1 0.177371 0.250000 0.479100
Si Si2 0.899440 0.250000 0.975771
Si Si3 0.398999 0.000000 0.000000
Si Si4 0.750000 0.124270 0.250000
Si Si5 0.500000 0.095238 0.959736
Si Si6 0.321801 0.000000 0.500000
Si Si7 0.500000 0.152025 0.456843
O O1 0.150627 0.250000 0.767674
O O2 0.212787 0.321206 0.422467
O O3 0.127920 0.250000 0.263481
O O4 0.942394 0.185881 0.940220
O O5 0.360022 0.016333 0.752734
O O6 0.442730 0.938519 0.933045
O O7 0.714036 0.069564 0.426902
O O8 0.500000 0.164160 0.142615
O O9 0.500000 0.083718 0.645945
#
# Coordination Sequence:
#
# PCOD9540597 Si02
#       7
#     8   8   8   8   8   8   8
#     4  11  28  51  80 105 151 201 252 316 373 442
#     4  11  26  45  74 111 141 195 247 306 382 442
#     4  11  27  44  75 108 151 196 245 299 392 442
#     4  11  30  52  76 113 150 196 268 313 372 442
#     4  11  24  45  70 113 145 191 241 304 361 485
#     4  12  27  49  77 110 151 199 247 326 368 444
#     4  11  24  43  74 109 147 184 245 305 367 466
#
# _framework density 24.491802
#
# number of rings (size 3 to 8) (size 9 to 14) (size 15 to 20)
#    0.000    0.857    0.000    4.286   12.000   11.429 
#    0.000    0.000    0.000    0.000    0.000    0.000 
#    0.000    0.000    0.000    0.000    0.000    0.000 
#
# Total GULP energy -156446.312724 kJ/mol
# GULP energy per Si atom -5587.368312 kJ/mol
# Density = 2.443606 g / cm^3
# Si number density = 24.491802 Si / 1000 Ang^3
#
#
#
# Elastic Constant Matrix: (Units=GPa)
#
#
# Indices 1 2 3 4 5 6 
#
# 1 134.2128 50.7868 36.4752 0.0000 0.0000 0.0000
# 2 50.7868 112.6476 16.2910 0.0000 0.0000 0.0000
# 3 36.4752 16.2910 127.2301 0.0000 0.0000 0.0000
# 4 0.0000 0.0000 0.0000 27.9763 0.0000 0.0000
# 5 0.0000 0.0000 0.0000 0.0000 53.8781 0.0000
# 6 0.0000 0.0000 0.0000 0.0000 0.0000 33.8114
#
#
#
# Elastic Compliance Matrix: (Units=1/GPa)
#
#
# Indices 1 2 3 4 5 6 
#
# 1 0.009568 -0.003991 -0.002232 0.000000 0.000000 0.000000
# 2 -0.003991 0.010709 -0.000227 0.000000 0.000000 0.000000
# 3 -0.002232 -0.000227 0.008529 0.000000 0.000000 0.000000
# 4 0.000000 0.000000 0.000000 0.035744 0.000000 0.000000
# 5 0.000000 0.000000 0.000000 0.000000 0.018560 0.000000
# 6 0.000000 0.000000 0.000000 0.000000 0.000000 0.029576
#
#
# Mechanical properties :
#
#
# Convention : Reuss Voigt Hill
#
# Bulk Modulus (GPa) = 62.86946 64.57739 63.72342
# Shear Modulus (GPa) = 38.20063 41.16899 39.68481
#
# Velocity S-wave (km/s) = 3.95363 4.10436 4.02970
# Velocity P-wave (km/s) = 6.82399 6.99180 6.90840
#
# Compressibility (1/GPa) = 0.01590597
#
# Stress axis : x y z
#
# Youngs Moduli (GPa) = 104.52017 93.37678 117.25091
#
# Poissons Ratio (x) = 0.37264 0.26169
# Poissons Ratio (y) = 0.41711 0.02664
# Poissons Ratio (z) = 0.23328 0.02121
#
# Static dielectric constant tensor:
#      x y z
#    x 1.880390 0.000000 0.000000 
#    y 0.000000 1.592540 0.000000 
#    z 0.000000 0.000000 2.435040 
# 
# From -- ./inp_files/3543.got.cif
#   From: 2010.05.17/outbox.cif.g08.bks.cpg/sg74_2_cif.got.tgz:3543.got - 2010.06.03 17:57:02.
