data_PCOD9540129
_publ_section_title
;
Structure prediction by ZEFSAII (Michael W. Deem and Ramdas Pophale) SiO2 
 PCOD9540129
Probable space group: I M M A
;
_chemical_formula_sum "Si O2"
_cell_formula_units_Z 72
_cell_length_a 8.470353
_cell_length_b 27.659784
_cell_length_c 15.135387
_cell_angle_alpha 90.000000
_cell_angle_beta 90.000000
_cell_angle_gamma 90.000000
_cell_volume 3546.041583
_symmetry_space_group_name_H-M "I M M A"
_symmetry_group_IT_number 74
_symmetry_cell_setting 'orthorhombic'
loop_
_space_group_symop_operation_xyz
x,y,z
-x,1/2-y,z
x,-y,-z
-x,1/2+y,-z
-x,-y,-z
x,1/2+y,-z
-x,y,z
x,1/2-y,z
1/2+x,1/2+y,1/2+z
1/2-x,-y,1/2+z
1/2+x,1/2-y,1/2-z
1/2-x,y,1/2-z
1/2-x,1/2-y,1/2-z
1/2+x,y,1/2-z
1/2-x,1/2+y,1/2+z
1/2+x,-y,1/2+z
loop_
_atom_site_type_symbol
_atom_site_label
_atom_site_fract_x
_atom_site_fract_y
_atom_site_fract_z
Si Si1 0.691932 0.982475 0.402671
Si Si2 0.811446 0.339628 0.473893
Si Si3 0.189153 0.624607 0.152854
Si Si4 0.309038 0.750000 0.851050
Si Si5 0.188579 0.584112 0.840744
O O1 0.500000 0.979794 0.403509
O O2 0.748191 0.930092 0.371003
O O3 0.740879 0.000000 0.500000
O O4 0.739513 0.028197 0.344068
O O5 0.744318 0.341119 0.572864
O O6 0.758198 0.296345 0.409200
O O7 0.756109 0.388100 0.424610
O O8 0.000000 0.337951 0.479050
O O9 0.250000 0.637812 0.250000
O O10 0.000000 0.623790 0.154036
O O11 0.500000 0.750000 0.847272
O O12 0.250000 0.750000 0.750000
O O13 0.250000 0.606817 0.750000
O O14 0.000000 0.586376 0.844146
#
# Coordination Sequence:
#
# PCOD9540129 Si02
#       5
#    16  16  16   8  16
#     4   9  17  33  55  81 117 159 200 241 288 342
#     4  11  23  41  62  88 118 152 196 246 299 357
#     4  11  22  39  62  88 121 162 203 246 294 347
#     4  10  24  44  67  92 121 152 189 240 300 362
#     4  11  21  35  56  84 119 157 196 241 291 348
#
# _framework density 20.304331000000001
#
# number of rings (size 3 to 8) (size 9 to 14) (size 15 to 20)
#    0.000    1.556    2.222    3.333    0.000    3.556 
#    0.000    5.000    0.000    0.000    0.000    0.000 
#    0.000    0.000    0.000    0.000    0.000    0.000 
#
# Total GULP energy -201025.190918 kJ/mol
# GULP energy per Si atom -5584.033081 kJ/mol
# Density = 2.025812 g / cm^3
# Si number density = 20.304331 Si / 1000 Ang^3
#
#
#
# Elastic Constant Matrix: (Units=GPa)
#
#
# Indices 1 2 3 4 5 6 
#
# 1 37.9788 24.1738 34.9236 0.0000 0.0000 0.0000
# 2 24.1738 85.4584 56.4780 0.0001 0.0000 0.0000
# 3 34.9236 56.4780 208.1316 0.0003 0.0000 0.0001
# 4 0.0000 0.0001 0.0003 30.3026 0.0000 0.0001
# 5 0.0000 0.0000 0.0000 0.0000 33.2112 0.0000
# 6 0.0000 0.0000 0.0001 0.0001 0.0000 16.1010
#
#
#
# Elastic Compliance Matrix: (Units=1/GPa)
#
#
# Indices 1 2 3 4 5 6 
#
# 1 0.034437 -0.007217 -0.003820 0.000000 0.000000 0.000000
# 2 -0.007217 0.015771 -0.003069 0.000000 0.000000 0.000000
# 3 -0.003820 -0.003069 0.006278 0.000000 0.000000 0.000000
# 4 0.000000 0.000000 0.000000 0.033000 0.000000 0.000000
# 5 0.000000 0.000000 0.000000 0.000000 0.030110 0.000000
# 6 0.000000 0.000000 0.000000 0.000000 0.000000 0.062108
#
#
# Mechanical properties :
#
#
# Convention : Reuss Voigt Hill
#
# Bulk Modulus (GPa) = 35.36639 62.52441 48.94540
# Shear Modulus (GPa) = 22.79561 30.32251 26.55906
#
# Velocity S-wave (km/s) = 3.35430 3.86865 3.62062
# Velocity P-wave (km/s) = 5.69717 7.12851 6.45265
#
# Compressibility (1/GPa) = 0.02827543
#
# Stress axis : x y z
#
# Youngs Moduli (GPa) = 29.03883 63.40753 159.27755
#
# Poissons Ratio (x) = 0.45758 0.60845
# Poissons Ratio (y) = 0.20956 0.48877
# Poissons Ratio (z) = 0.11093 0.19458
#
# Static dielectric constant tensor:
#      x y z
#    x 1.684500 0.000000 0.000000 
#    y 0.000000 1.751080 0.000000 
#    z 0.000000 0.000000 1.718510 
# 
# From -- ./inp_files/29147.got.cif
#   From: 2010.05.17/outbox.cif.g08.bks.cpg/sg74_15_cif.got.tgz:29147.got - 2010.06.03 17:57:02.
