data_PCOD9540937
_publ_section_title
;
Structure prediction by ZEFSAII (Michael W. Deem and Ramdas Pophale) SiO2 
 PCOD9540937
Probable space group: I M M A
;
_chemical_formula_sum "Si O2"
_cell_formula_units_Z 48
_cell_length_a 24.000000
_cell_length_b 18.000000
_cell_length_c 12.000000
_cell_angle_alpha 90.000000
_cell_angle_beta 90.000000
_cell_angle_gamma 90.000000
_cell_volume 5184.000000
_symmetry_space_group_name_H-M "I M M A"
_symmetry_group_IT_number 74
_symmetry_cell_setting 'orthorhombic'
loop_
_space_group_symop_operation_xyz
x,y,z
-x,1/2-y,z
x,-y,-z
-x,1/2+y,-z
-x,-y,-z
x,1/2+y,-z
-x,y,z
x,1/2-y,z
1/2+x,1/2+y,1/2+z
1/2-x,-y,1/2+z
1/2+x,1/2-y,1/2-z
1/2-x,y,1/2-z
1/2-x,1/2-y,1/2-z
1/2+x,y,1/2-z
1/2-x,1/2+y,1/2+z
1/2+x,-y,1/2+z
loop_
_atom_site_type_symbol
_atom_site_label
_atom_site_fract_x
_atom_site_fract_y
_atom_site_fract_z
Si Si1 0.066095 0.664351 0.499561
Si Si2 0.269354 0.588431 0.020045
Si Si3 0.353592 0.107038 0.177924
Si Si4 0.932239 0.422508 0.928473
Si Si5 0.869406 0.430019 0.685150
Si Si6 0.657736 0.838708 0.566177
O O1 0.078768 0.750000 0.468276
O O2 0.094409 0.647445 0.618803
O O3 0.090597 0.608865 0.406045
O O4 0.000000 0.655479 0.506589
O O5 0.307626 0.596215 0.133791
O O6 0.262093 0.500000 0.000000
O O7 0.304323 0.618608 0.913064
O O8 0.208777 0.626213 0.006853
O O9 0.341010 0.132150 0.304625
O O10 0.365904 0.019009 0.175936
O O11 0.897395 0.419186 0.809523
O O12 0.000000 0.411418 0.911905
O O13 0.926296 0.500000 0.000000
O O14 0.900143 0.363718 0.007719
O O15 0.663004 0.750000 0.567485
#
# Coordination Sequence:
#
# PCOD9540937 Si02
#       6
#    16  16  16  16  16  16
#     4  10  21  36  58  91 131 171 212 268 331 385
#     4   9  21  39  65  95 125 161 205 263 316 381
#     4  10  21  39  63  95 125 166 215 263 322 383
#     4  11  24  43  66  91 124 170 223 270 314 379
#     4  10  21  41  67  93 122 164 222 273 320 376
#     4  12  25  41  63  94 134 171 208 261 325 392
#
# _framework density 9.2592590000000001
#
# number of rings (size 3 to 8) (size 9 to 14) (size 15 to 20)
#    0.000    1.667    1.667    3.500    0.000    8.333 
#    0.000    0.833    0.000    0.000    0.000    0.000 
#    0.000    0.000    0.000    0.000    0.000    0.000 
#
# Total GULP energy -267506.442183 kJ/mol
# GULP energy per Si atom -5573.050879 kJ/mol
# Density = 0.923818 g / cm^3
# Si number density = 9.259259 Si / 1000 Ang^3
#
#
#
# Elastic Constant Matrix: (Units=GPa)
#
#
# Indices 1 2 3 4 5 6 
#
# 1 118.6744 54.3582 52.1906 0.0000 0.0000 0.0000
# 2 54.3582 89.3993 28.5806 0.0000 0.0000 0.0000
# 3 52.1906 28.5806 127.6397 0.0000 0.0000 0.0000
# 4 0.0000 0.0000 0.0000 24.5079 0.0000 0.0000
# 5 0.0000 0.0000 0.0000 0.0000 35.8507 0.0000
# 6 0.0000 0.0000 0.0000 0.0000 0.0000 24.0274
#
#
#
# Elastic Compliance Matrix: (Units=1/GPa)
#
#
# Indices 1 2 3 4 5 6 
#
# 1 0.013263 -0.006819 -0.003896 0.000000 0.000000 0.000000
# 2 -0.006819 0.015554 -0.000695 0.000000 0.000000 0.000000
# 3 -0.003896 -0.000695 0.009583 0.000000 0.000000 0.000000
# 4 0.000000 0.000000 0.000000 0.040803 0.000000 0.000000
# 5 0.000000 0.000000 0.000000 0.000000 0.027893 0.000000
# 6 0.000000 0.000000 0.000000 0.000000 0.000000 0.041619
#
#
# Mechanical properties :
#
#
# Convention : Reuss Voigt Hill
#
# Bulk Modulus (GPa) = 64.18164 67.33023 65.75593
# Shear Modulus (GPa) = 28.29175 30.24946 29.27061
#
# Velocity S-wave (km/s) = 3.91289 4.04601 3.98001
# Velocity P-wave (km/s) = 7.42614 7.63310 7.53033
#
# Compressibility (1/GPa) = 0.01558078
#
# Stress axis : x y z
#
# Youngs Moduli (GPa) = 75.39573 64.29206 104.34848
#
# Poissons Ratio (x) = 0.43841 0.40658
# Poissons Ratio (y) = 0.51412 0.07248
# Poissons Ratio (z) = 0.29377 0.04466
#
# Static dielectric constant tensor:
#      x y z
#    x 1.672150 0.000000 0.000000 
#    y 0.000000 1.630820 0.000000 
#    z 0.000000 0.000000 1.640570 
# 
# From -- ./inp_files/25158.got.cif
#   From: 2010.05.17/outbox.ucp.g08.bks.cvg/sg74_13_cif.got.tgz:25158.got - 2010.06.11 16:37:44.
