data_PCOD9540263
_publ_section_title
;
Structure prediction by ZEFSAII (Michael W. Deem and Ramdas Pophale) SiO2 
 PCOD9540263
Probable space group: I M M A
;
_chemical_formula_sum "Si O2"
_cell_formula_units_Z 88
_cell_length_a 27.853524
_cell_length_b 12.223439
_cell_length_c 15.150221
_cell_angle_alpha 90.000000
_cell_angle_beta 90.000000
_cell_angle_gamma 90.000000
_cell_volume 5158.132894
_symmetry_space_group_name_H-M "I M M A"
_symmetry_group_IT_number 74
_symmetry_cell_setting 'orthorhombic'
loop_
_space_group_symop_operation_xyz
x,y,z
-x,1/2-y,z
x,-y,-z
-x,1/2+y,-z
-x,-y,-z
x,1/2+y,-z
-x,y,z
x,1/2-y,z
1/2+x,1/2+y,1/2+z
1/2-x,-y,1/2+z
1/2+x,1/2-y,1/2-z
1/2-x,y,1/2-z
1/2-x,1/2-y,1/2-z
1/2+x,y,1/2-z
1/2-x,1/2+y,1/2+z
1/2+x,-y,1/2+z
loop_
_atom_site_type_symbol
_atom_site_label
_atom_site_fract_x
_atom_site_fract_y
_atom_site_fract_z
Si Si1 0.555685 0.750000 0.509017
Si Si2 0.359837 0.514467 0.724428
Si Si3 0.854197 0.750000 0.859131
Si Si4 0.744779 0.250000 0.141731
Si Si5 0.555811 0.628733 0.334993
Si Si6 0.192651 0.522927 0.593320
Si Si7 0.724942 0.125826 0.653236
O O1 0.500000 0.750000 0.543134
O O2 0.600451 0.750000 0.574574
O O3 0.560205 0.647464 0.440884
O O4 0.357695 0.640595 0.698491
O O5 0.411134 0.463443 0.704220
O O6 0.342089 0.500461 0.824383
O O7 0.322415 0.446303 0.664162
O O8 0.799343 0.750000 0.895510
O O9 0.750000 0.250000 0.250000
O O10 0.716239 0.141776 0.111549
O O11 0.500000 0.611011 0.316407
O O12 0.569815 0.750000 0.299302
O O13 0.167964 0.500000 0.500000
O O14 0.236555 0.436437 0.594244
O O15 0.714862 0.250000 0.626073
O O16 0.750000 0.128578 0.750000
#
# Coordination Sequence:
#
# PCOD9540263 Si02
#       7
#     8  16   8   8  16  16  16
#     4   8  20  40  57  90 120 139 184 243 289 344
#     4  11  20  36  57  79 112 152 193 231 285 351
#     4  12  22  34  60  77 113 167 192 217 285 355
#     4  12  20  44  55  73 120 168 195 228 295 353
#     4   8  18  39  61  82 114 144 176 233 302 353
#     4  11  23  36  55  80 112 154 199 244 281 335
#     4   9  18  33  52  75 105 141 183 243 286 321
#
# _framework density 17.060435999999999
#
# number of rings (size 3 to 8) (size 9 to 14) (size 15 to 20)
#    0.545    1.455    3.636    1.091    1.273    3.636 
#    0.000    1.818    0.000    0.545    0.000    0.000 
#    0.000    0.000    0.000    0.000    0.000    0.000 
#
# Total GULP energy -245219.723956 kJ/mol
# GULP energy per Si atom -5573.175544 kJ/mol
# Density = 1.702161 g / cm^3
# Si number density = 17.060436 Si / 1000 Ang^3
#
#
#
# Elastic Constant Matrix: (Units=GPa)
#
#
# Indices 1 2 3 4 5 6 
#
# 1 64.9469 29.5167 26.4593 0.0000 0.0000 0.0000
# 2 29.5167 111.6878 22.9142 0.0000 0.0000 0.0000
# 3 26.4593 22.9142 64.2992 0.0000 0.0000 0.0000
# 4 0.0000 0.0000 0.0000 8.7027 0.0000 0.0000
# 5 0.0000 0.0000 0.0000 0.0000 24.7269 0.0000
# 6 0.0000 0.0000 0.0000 0.0000 0.0000 24.9972
#
#
#
# Elastic Compliance Matrix: (Units=1/GPa)
#
#
# Indices 1 2 3 4 5 6 
#
# 1 0.019936 -0.003868 -0.006825 0.000000 0.000000 0.000000
# 2 -0.003868 0.010410 -0.002118 0.000000 0.000000 0.000000
# 3 -0.006825 -0.002118 0.019116 0.000000 0.000000 0.000000
# 4 0.000000 0.000000 0.000000 0.114907 0.000000 0.000000
# 5 0.000000 0.000000 0.000000 0.000000 0.040442 0.000000
# 6 0.000000 0.000000 0.000000 0.000000 0.000000 0.040005
#
#
# Mechanical properties :
#
#
# Convention : Reuss Voigt Hill
#
# Bulk Modulus (GPa) = 41.94844 44.30161 43.12502
# Shear Modulus (GPa) = 17.96078 22.48827 20.22453
#
# Velocity S-wave (km/s) = 3.24817 3.63458 3.44679
# Velocity P-wave (km/s) = 6.22165 6.60586 6.41663
#
# Compressibility (1/GPa) = 0.02383879
#
# Stress axis : x y z
#
# Youngs Moduli (GPa) = 50.16108 96.05769 52.31319
#
# Poissons Ratio (x) = 0.37158 0.35704
# Poissons Ratio (y) = 0.19404 0.11080
# Poissons Ratio (z) = 0.34235 0.20346
#
# Static dielectric constant tensor:
#      x y z
#    x 1.569720 0.000000 0.000000 
#    y 0.000000 1.592980 0.000000 
#    z 0.000000 0.000000 1.607500 
# 
# From -- ./inp_files/37245.got.cif
#   From: 2010.05.17/outbox.cif.g08.bks.cpg/sg74_19_cif.got.tgz:37245.got - 2010.06.03 17:57:02.
