data_PCOD9540868
_publ_section_title
;
Structure prediction by ZEFSAII (Michael W. Deem and Ramdas Pophale) SiO2 
 PCOD9540868
Probable space group: I M M A
;
_chemical_formula_sum "Si O2"
_cell_formula_units_Z 40
_cell_length_a 9.000000
_cell_length_b 27.000000
_cell_length_c 18.000000
_cell_angle_alpha 90.000000
_cell_angle_beta 90.000000
_cell_angle_gamma 90.000000
_cell_volume 4374.000000
_symmetry_space_group_name_H-M "I M M A"
_symmetry_group_IT_number 74
_symmetry_cell_setting 'orthorhombic'
loop_
_space_group_symop_operation_xyz
x,y,z
-x,1/2-y,z
x,-y,-z
-x,1/2+y,-z
-x,-y,-z
x,1/2+y,-z
-x,y,z
x,1/2-y,z
1/2+x,1/2+y,1/2+z
1/2-x,-y,1/2+z
1/2+x,1/2-y,1/2-z
1/2-x,y,1/2-z
1/2-x,1/2-y,1/2-z
1/2+x,y,1/2-z
1/2-x,1/2+y,1/2+z
1/2+x,-y,1/2+z
loop_
_atom_site_type_symbol
_atom_site_label
_atom_site_fract_x
_atom_site_fract_y
_atom_site_fract_z
Si Si1 0.675822 0.388778 0.451074
Si Si2 0.168692 0.810149 0.175895
Si Si3 0.832242 0.542076 0.435959
Si Si4 0.830394 0.691106 0.478530
Si Si5 0.177414 0.030624 0.170789
O O1 0.500000 0.388169 0.456468
O O2 0.744637 0.414711 0.523574
O O3 0.741983 0.334383 0.454920
O O4 0.717296 0.422493 0.381151
O O5 0.162831 0.750000 0.181361
O O6 0.250000 0.828447 0.250000
O O7 0.257277 0.820726 0.101012
O O8 0.000000 0.828361 0.171391
O O9 0.840113 0.500000 0.500000
O O10 0.743291 0.517811 0.368880
O O11 0.000000 0.555428 0.414825
O O12 0.826963 0.750000 0.485585
O O13 0.000000 0.674097 0.479639
O O14 0.250000 0.036733 0.250000
O O15 0.000000 0.027304 0.174795
#
# Coordination Sequence:
#
# PCOD9540868 Si02
#       5
#    16  16  16  16  16
#     4  10  20  34  53  77 105 137 173 213 257 306
#     4   9  16  27  44  65  90 121 158 201 248 296
#     4   9  17  31  52  76 102 132 164 200 246 301
#     4  10  20  33  50  73 101 136 179 222 262 307
#     4  10  20  34  54  80 108 137 170 209 255 309
#
# _framework density 9.1449470000000002
#
# number of rings (size 3 to 8) (size 9 to 14) (size 15 to 20)
#    0.000    2.400    0.000    3.000    0.000    8.400 
#    0.000    1.000    0.000    0.600    0.000    0.000 
#    0.000    0.000    0.000    0.000    0.000    0.000 
#
# Total GULP energy -222994.589522 kJ/mol
# GULP energy per Si atom -5574.864738 kJ/mol
# Density = 0.912413 g / cm^3
# Si number density = 9.144947 Si / 1000 Ang^3
#
#
#
# Elastic Constant Matrix: (Units=GPa)
#
#
# Indices 1 2 3 4 5 6 
#
# 1 70.9512 22.4241 62.5474 0.0000 0.0000 0.0000
# 2 22.4241 35.4003 40.2532 0.0000 0.0000 0.0000
# 3 62.5474 40.2532 105.8874 -0.0002 0.0000 0.0000
# 4 0.0000 0.0000 -0.0002 15.8568 0.0000 0.0000
# 5 0.0000 0.0000 0.0000 0.0000 24.7943 0.0000
# 6 0.0000 0.0000 0.0000 0.0000 0.0000 30.2967
#
#
#
# Elastic Compliance Matrix: (Units=1/GPa)
#
#
# Indices 1 2 3 4 5 6 
#
# 1 0.029487 0.001986 -0.018173 0.000000 0.000000 0.000000
# 2 0.001986 0.049890 -0.020139 0.000000 0.000000 0.000000
# 3 -0.018173 -0.020139 0.027834 0.000000 0.000000 0.000000
# 4 0.000000 0.000000 0.000000 0.063064 0.000000 0.000000
# 5 0.000000 0.000000 0.000000 0.000000 0.040332 0.000000
# 6 0.000000 0.000000 0.000000 0.000000 0.000000 0.033007
#
#
# Mechanical properties :
#
#
# Convention : Reuss Voigt Hill
#
# Bulk Modulus (GPa) = 28.93545 51.40982 40.17264
# Shear Modulus (GPa) = 15.25391 19.99050 17.62220
#
# Velocity S-wave (km/s) = 2.89105 3.30961 3.10739
# Velocity P-wave (km/s) = 5.19606 6.54019 5.90648
#
# Compressibility (1/GPa) = 0.03455968
#
# Stress axis : x y z
#
# Youngs Moduli (GPa) = 33.91356 20.04417 35.92710
#
# Poissons Ratio (x) = -0.03980 0.65289
# Poissons Ratio (y) = -0.06734 0.72352
# Poissons Ratio (z) = 0.61630 0.40366
#
# Static dielectric constant tensor:
#      x y z
#    x 1.619430 0.000000 0.000000 
#    y 0.000000 1.720920 0.000000 
#    z 0.000000 0.000000 1.606430 
# 
# From -- ./inp_files/39703.got.cif
#   From: 2010.05.17/outbox.ucp.g08.bks.cvg/sg74_20_cif.got.tgz:39703.got - 2010.06.11 16:37:44.
