data_PCOD9540872
_publ_section_title
;
Structure prediction by ZEFSAII (Michael W. Deem and Ramdas Pophale) SiO2 
 PCOD9540872
Probable space group: I M M A
;
_chemical_formula_sum "Si O2"
_cell_formula_units_Z 48
_cell_length_a 9.000000
_cell_length_b 24.000000
_cell_length_c 24.000000
_cell_angle_alpha 90.000000
_cell_angle_beta 90.000000
_cell_angle_gamma 90.000000
_cell_volume 5184.000000
_symmetry_space_group_name_H-M "I M M A"
_symmetry_group_IT_number 74
_symmetry_cell_setting 'orthorhombic'
loop_
_space_group_symop_operation_xyz
x,y,z
-x,1/2-y,z
x,-y,-z
-x,1/2+y,-z
-x,-y,-z
x,1/2+y,-z
-x,y,z
x,1/2-y,z
1/2+x,1/2+y,1/2+z
1/2-x,-y,1/2+z
1/2+x,1/2-y,1/2-z
1/2-x,y,1/2-z
1/2-x,1/2-y,1/2-z
1/2+x,y,1/2-z
1/2-x,1/2+y,1/2+z
1/2+x,-y,1/2+z
loop_
_atom_site_type_symbol
_atom_site_label
_atom_site_fract_x
_atom_site_fract_y
_atom_site_fract_z
Si Si1 0.821596 0.688672 0.188243
Si Si2 0.322443 0.424361 0.811272
Si Si3 0.170326 0.817869 0.806558
Si Si4 0.676986 0.314613 0.077448
Si Si5 0.823319 0.590055 0.985732
Si Si6 0.177311 0.014915 0.908202
O O1 0.794598 0.750000 0.162266
O O2 0.750000 0.691385 0.250000
O O3 0.744761 0.633719 0.164064
O O4 0.000000 0.680921 0.191767
O O5 0.500000 0.420951 0.806683
O O6 0.250000 0.431506 0.750000
O O7 0.269361 0.472331 0.853084
O O8 0.170627 0.750000 0.804773
O O9 0.250000 0.837096 0.750000
O O10 0.253353 0.833124 0.863392
O O11 0.000000 0.836608 0.808192
O O12 0.500000 0.317495 0.081306
O O13 0.719779 0.250000 0.068474
O O14 0.736940 0.354392 0.029362
O O15 0.792258 0.543905 0.937994
O O16 0.000000 0.600591 0.985078
O O17 0.787685 0.561174 0.044516
O O18 0.000000 0.017919 0.896782
#
# Coordination Sequence:
#
# PCOD9540872 Si02
#       6
#    16  16  16  16  16  16
#     4   9  16  27  45  69  99 136 175 213 255 306
#     4  11  21  33  53  80 110 143 176 216 266 315
#     4   9  16  27  45  69  99 136 176 214 255 308
#     4  10  20  33  51  78 112 144 174 215 264 312
#     4   9  19  37  61  82 102 135 176 219 264 312
#     4   9  19  38  60  81 105 134 174 220 265 314
#
# _framework density 9.2592590000000001
#
# number of rings (size 3 to 8) (size 9 to 14) (size 15 to 20)
#    0.000    2.500    0.000    5.000    0.000    5.333 
#    0.000    3.333    0.000    5.000    0.000    0.000 
#    0.000    0.000    0.000    0.000    0.000    0.000 
#
# Total GULP energy -267677.405411 kJ/mol
# GULP energy per Si atom -5576.612613 kJ/mol
# Density = 0.923818 g / cm^3
# Si number density = 9.259259 Si / 1000 Ang^3
#
#
#
# Elastic Constant Matrix: (Units=GPa)
#
#
# Indices 1 2 3 4 5 6 
#
# 1 90.1567 38.1409 39.3108 0.0000 0.0000 0.0000
# 2 38.1409 45.5101 31.7655 0.0000 0.0000 0.0000
# 3 39.3108 31.7655 54.0674 0.0000 0.0000 0.0000
# 4 0.0000 0.0000 0.0000 19.0420 0.0000 0.0000
# 5 0.0000 0.0000 0.0000 0.0000 28.1106 0.0000
# 6 0.0000 0.0000 0.0000 0.0000 0.0000 17.8824
#
#
#
# Elastic Compliance Matrix: (Units=1/GPa)
#
#
# Indices 1 2 3 4 5 6 
#
# 1 0.018817 -0.010545 -0.007486 0.000000 0.000000 0.000000
# 2 -0.010545 0.043157 -0.017689 0.000000 0.000000 0.000000
# 3 -0.007486 -0.017689 0.034331 0.000000 0.000000 0.000000
# 4 0.000000 0.000000 0.000000 0.052516 0.000000 0.000000
# 5 0.000000 0.000000 0.000000 0.000000 0.035574 0.000000
# 6 0.000000 0.000000 0.000000 0.000000 0.000000 0.055921
#
#
# Mechanical properties :
#
#
# Convention : Reuss Voigt Hill
#
# Bulk Modulus (GPa) = 40.21607 45.35206 42.78406
# Shear Modulus (GPa) = 15.62293 18.37478 16.99886
#
# Velocity S-wave (km/s) = 2.90770 3.15340 3.03304
# Velocity P-wave (km/s) = 5.74776 6.14832 5.95141
#
# Compressibility (1/GPa) = 0.02486568
#
# Stress axis : x y z
#
# Youngs Moduli (GPa) = 53.14368 23.17115 29.12853
#
# Poissons Ratio (x) = 0.24434 0.21805
# Poissons Ratio (y) = 0.56040 0.51524
# Poissons Ratio (z) = 0.39783 0.40987
#
# Static dielectric constant tensor:
#      x y z
#    x 1.615530 0.000000 0.000000 
#    y 0.000000 1.681640 0.000000 
#    z 0.000000 0.000000 1.632220 
# 
# From -- ./inp_files/57287.got.cif
#   From: 2010.05.17/outbox.ucp.g08.bks.cvg/sg74_29_cif.got.tgz:57287.got - 2010.06.11 16:37:44.
