data_PCOD9540982
_publ_section_title
;
Structure prediction by ZEFSAII (Michael W. Deem and Ramdas Pophale) SiO2 
 PCOD9540982
Probable space group: I M M A
;
_chemical_formula_sum "Si O2"
_cell_formula_units_Z 40
_cell_length_a 9.000000
_cell_length_b 18.000000
_cell_length_c 27.000000
_cell_angle_alpha 90.000000
_cell_angle_beta 90.000000
_cell_angle_gamma 90.000000
_cell_volume 4374.000000
_symmetry_space_group_name_H-M "I M M A"
_symmetry_group_IT_number 74
_symmetry_cell_setting 'orthorhombic'
loop_
_space_group_symop_operation_xyz
x,y,z
-x,1/2-y,z
x,-y,-z
-x,1/2+y,-z
-x,-y,-z
x,1/2+y,-z
-x,y,z
x,1/2-y,z
1/2+x,1/2+y,1/2+z
1/2-x,-y,1/2+z
1/2+x,1/2-y,1/2-z
1/2-x,y,1/2-z
1/2-x,1/2-y,1/2-z
1/2+x,y,1/2-z
1/2-x,1/2+y,1/2+z
1/2+x,-y,1/2+z
loop_
_atom_site_type_symbol
_atom_site_label
_atom_site_fract_x
_atom_site_fract_y
_atom_site_fract_z
Si Si1 0.178107 0.831150 0.195197
Si Si2 0.833403 0.057607 0.545978
Si Si3 0.823926 0.019305 0.696254
Si Si4 0.675336 0.663219 0.963329
Si Si5 0.172714 0.053026 0.111403
O O1 0.203639 0.750000 0.171445
O O2 0.250000 0.826584 0.250000
O O3 0.000000 0.842684 0.198543
O O4 0.258905 0.903277 0.174189
O O5 0.794413 0.133929 0.518896
O O6 0.000000 0.060478 0.568660
O O7 0.843238 0.000000 0.500000
O O8 0.711833 0.021585 0.580793
O O9 0.750000 0.010696 0.750000
O O10 0.770403 0.953872 0.660595
O O11 0.000000 0.023522 0.700497
O O12 0.500000 0.646465 0.954327
O O13 0.698612 0.750000 0.959349
O O14 0.772741 0.618976 0.923884
O O15 0.000000 0.057673 0.122870
#
# Coordination Sequence:
#
# PCOD9540982 Si02
#       5
#    16  16  16  16  16
#     4   9  16  27  44  66  92 121 156 200 249 298
#     4   8  15  30  51  74 100 131 165 202 248 302
#     4  11  21  34  52  73 100 136 180 224 264 308
#     4   9  18  34  56  80 106 136 170 210 258 312
#     4  11  21  33  51  76 106 139 175 214 258 308
#
# _framework density 9.1449470000000002
#
# number of rings (size 3 to 8) (size 9 to 14) (size 15 to 20)
#    0.000    2.400    0.000    6.600    0.000    5.200 
#    0.000    1.000    0.000    4.200    0.000    0.000 
#    0.000    0.000    0.000    0.000    0.000    0.000 
#
# Total GULP energy -222805.140401 kJ/mol
# GULP energy per Si atom -5570.128510 kJ/mol
# Density = 0.912413 g / cm^3
# Si number density = 9.144947 Si / 1000 Ang^3
#
#
#
# Elastic Constant Matrix: (Units=GPa)
#
#
# Indices 1 2 3 4 5 6 
#
# 1 113.4608 38.2892 25.3122 0.0000 0.0000 0.0000
# 2 38.2892 67.6666 28.7774 0.0000 0.0000 0.0000
# 3 25.3122 28.7774 38.6820 0.0000 0.0000 0.0000
# 4 0.0000 0.0000 0.0000 19.3567 0.0000 0.0000
# 5 0.0000 0.0000 0.0000 0.0000 21.2198 0.0000
# 6 0.0000 0.0000 0.0000 0.0000 0.0000 24.7899
#
#
#
# Elastic Compliance Matrix: (Units=1/GPa)
#
#
# Indices 1 2 3 4 5 6 
#
# 1 0.011272 -0.004742 -0.003849 0.000000 0.000000 0.000000
# 2 -0.004742 0.023613 -0.014464 0.000000 0.000000 0.000000
# 3 -0.003849 -0.014464 0.039131 0.000000 0.000000 0.000000
# 4 0.000000 0.000000 0.000000 0.051662 0.000000 0.000000
# 5 0.000000 0.000000 0.000000 0.000000 0.047126 0.000000
# 6 0.000000 0.000000 0.000000 0.000000 0.000000 0.040339
#
#
# Mechanical properties :
#
#
# Convention : Reuss Voigt Hill
#
# Bulk Modulus (GPa) = 35.83297 44.95190 40.39244
# Shear Modulus (GPa) = 18.61830 21.56864 20.09347
#
# Velocity S-wave (km/s) = 3.19400 3.43777 3.31813
# Velocity P-wave (km/s) = 5.76510 6.35519 6.06733
#
# Compressibility (1/GPa) = 0.02790726
#
# Stress axis : x y z
#
# Youngs Moduli (GPa) = 88.71223 42.35021 25.55544
#
# Poissons Ratio (x) = 0.20081 0.09836
# Poissons Ratio (y) = 0.42065 0.36963
# Poissons Ratio (z) = 0.34143 0.61254
#
# Static dielectric constant tensor:
#      x y z
#    x 1.613490 0.000000 0.000000 
#    y 0.000000 1.678750 0.000000 
#    z 0.000000 0.000000 1.675560 
# 
# From -- ./inp_files/63934.got.cif
#   From: 2010.05.17/outbox.ucp.g08.bks.cvg/sg74_32_cif.got.tgz:63934.got - 2010.06.11 16:37:44.
