data_PCOD9540056
_publ_section_title
;
Structure prediction by ZEFSAII (Michael W. Deem and Ramdas Pophale) SiO2 
 PCOD9540056
Probable space group: I M M A
;
_chemical_formula_sum "Si O2"
_cell_formula_units_Z 64
_cell_length_a 24.610110
_cell_length_b 16.644042
_cell_length_c 7.811233
_cell_angle_alpha 90.000000
_cell_angle_beta 90.000000
_cell_angle_gamma 90.000000
_cell_volume 3199.572463
_symmetry_space_group_name_H-M "I M M A"
_symmetry_group_IT_number 74
_symmetry_cell_setting 'orthorhombic'
loop_
_space_group_symop_operation_xyz
x,y,z
-x,1/2-y,z
x,-y,-z
-x,1/2+y,-z
-x,-y,-z
x,1/2+y,-z
-x,y,z
x,1/2-y,z
1/2+x,1/2+y,1/2+z
1/2-x,-y,1/2+z
1/2+x,1/2-y,1/2-z
1/2-x,y,1/2-z
1/2-x,1/2-y,1/2-z
1/2+x,y,1/2-z
1/2-x,1/2+y,1/2+z
1/2+x,-y,1/2+z
loop_
_atom_site_type_symbol
_atom_site_label
_atom_site_fract_x
_atom_site_fract_y
_atom_site_fract_z
Si Si1 0.136945 0.593183 0.948099
Si Si2 0.438496 0.653637 0.250029
Si Si3 0.629392 0.845095 0.921308
Si Si4 0.255938 0.594265 0.045966
O O1 0.118765 0.608495 0.754804
O O2 0.138861 0.500000 0.000000
O O3 0.097442 0.633302 0.085247
O O4 0.199164 0.623212 0.965294
O O5 0.500000 0.622408 0.263862
O O6 0.440917 0.750000 0.237863
O O7 0.408264 0.625773 0.077620
O O8 0.620595 0.750000 0.893336
O O9 0.691448 0.859935 0.978819
O O10 0.250000 0.601563 0.250000
O O11 0.263326 0.500000 0.000000
#
# Coordination Sequence:
#
# PCOD9540056 Si02
#       4
#    16  16  16  16
#     4  11  23  40  64  93 124 163 205 255 312 377
#     4  10  23  43  64  89 124 166 212 261 310 361
#     4  11  24  40  63  92 125 164 209 257 311 373
#     4  11  21  38  62  92 129 165 201 253 316 375
#
# _framework density 20.002672
#
# number of rings (size 3 to 8) (size 9 to 14) (size 15 to 20)
#    0.000    1.250    2.500    4.500    0.000    5.000 
#    0.000    3.750    0.000    0.000    0.000    0.000 
#    0.000    0.000    0.000    0.000    0.000    0.000 
#
# Total GULP energy -178913.880183 kJ/mol
# GULP energy per Si atom -5591.058756 kJ/mol
# Density = 1.995714 g / cm^3
# Si number density = 20.002672 Si / 1000 Ang^3
#
#
#
# Elastic Constant Matrix: (Units=GPa)
#
#
# Indices 1 2 3 4 5 6 
#
# 1 119.7370 15.9020 35.0240 0.0000 0.0000 0.0000
# 2 15.9020 24.2693 21.5022 0.0000 0.0000 0.0000
# 3 35.0240 21.5022 157.1693 0.0000 0.0000 0.0000
# 4 0.0000 0.0000 0.0000 33.7686 0.0000 0.0000
# 5 0.0000 0.0000 0.0000 0.0000 -2.5285 0.0000
# 6 0.0000 0.0000 0.0000 0.0000 0.0000 41.0782
#
#
#
# Elastic Compliance Matrix: (Units=1/GPa)
#
#
# Indices 1 2 3 4 5 6 
#
# 1 0.009421 -0.004908 -0.001428 0.000000 0.000000 0.000000
# 2 -0.004908 0.049444 -0.005671 0.000000 0.000000 0.000000
# 3 -0.001428 -0.005671 0.007457 0.000000 0.000000 0.000000
# 4 0.000000 0.000000 0.000000 0.029613 0.000000 0.000000
# 5 0.000000 0.000000 0.000000 0.000000 -0.395488 0.000000
# 6 0.000000 0.000000 0.000000 0.000000 0.000000 0.024344
#
#
# Mechanical properties :
#
#
# Convention : Reuss Voigt Hill
#
# Bulk Modulus (GPa) = 23.63569 49.55911 36.59740
# Shear Modulus (GPa) = -21.08886 29.71346 4.31230
#
# Velocity S-wave (km/s) = -3.25052 3.85837 1.46988
# Velocity P-wave (km/s) = 1.49865 6.68426 4.60616
#
# Compressibility (1/GPa) = 0.04230890
#
# Stress axis : x y z
#
# Youngs Moduli (GPa) = 106.14433 20.22472 134.10940
#
# Poissons Ratio (x) = 0.09926 0.19151
# Poissons Ratio (y) = 0.52094 0.76051
# Poissons Ratio (z) = 0.15157 0.11469
#
# Static dielectric constant tensor:
#      x y z
#    x 1.709680 0.000000 0.000000 
#    y 0.000000 1.720150 0.000000 
#    z 0.000000 0.000000 1.691610 
# 
# From -- ./inp_files/2903.got.cif
#   From: 2010.05.17/outbox.cif.g08.bks.cpg/sg74_2_cif.got.tgz:2903.got - 2010.06.03 17:57:02.
