data_PCOD9540545
_publ_section_title
;
Structure prediction by ZEFSAII (Michael W. Deem and Ramdas Pophale) SiO2 
 PCOD9540545
Probable space group: I M M A
;
_chemical_formula_sum "Si O2"
_cell_formula_units_Z 68
_cell_length_a 17.567420
_cell_length_b 23.210805
_cell_length_c 8.267802
_cell_angle_alpha 90.000000
_cell_angle_beta 90.000000
_cell_angle_gamma 90.000000
_cell_volume 3371.229006
_symmetry_space_group_name_H-M "I M M A"
_symmetry_group_IT_number 74
_symmetry_cell_setting 'orthorhombic'
loop_
_space_group_symop_operation_xyz
x,y,z
-x,1/2-y,z
x,-y,-z
-x,1/2+y,-z
-x,-y,-z
x,1/2+y,-z
-x,y,z
x,1/2-y,z
1/2+x,1/2+y,1/2+z
1/2-x,-y,1/2+z
1/2+x,1/2-y,1/2-z
1/2-x,y,1/2-z
1/2-x,1/2-y,1/2-z
1/2+x,y,1/2-z
1/2-x,1/2+y,1/2+z
1/2+x,-y,1/2+z
loop_
_atom_site_type_symbol
_atom_site_label
_atom_site_fract_x
_atom_site_fract_y
_atom_site_fract_z
Si Si1 0.000000 0.750000 0.647386
Si Si2 0.133370 0.152889 0.900798
Si Si3 0.500000 0.488209 0.188629
Si Si4 0.000000 0.366880 0.145925
Si Si5 0.884334 0.750000 0.356588
Si Si6 0.667658 0.973037 0.322803
Si Si7 0.767252 0.250000 0.058585
O O1 0.000000 0.806567 0.758368
O O2 0.931269 0.750000 0.521161
O O3 0.102845 0.194520 0.757784
O O4 0.170960 0.096259 0.828338
O O5 0.186149 0.193343 0.010426
O O6 0.070295 0.130876 0.024418
O O7 0.500000 0.420845 0.235060
O O8 0.416982 0.512031 0.250137
O O9 0.500000 0.500000 0.000000
O O10 0.800032 0.750000 0.427615
O O11 0.750000 0.993150 0.250000
O O12 0.665583 0.000000 0.500000
O O13 0.750000 0.250000 0.250000
#
# Coordination Sequence:
#
# PCOD9540545 Si02
#       7
#     4  16   8   8   8  16   8
#     4  12  26  40  66 104 130 172 236 278 352 424
#     4  11  23  43  70  95 136 178 229 285 349 419
#     4  12  28  49  71 102 148 190 232 297 362 429
#     4  12  24  46  68 101 137 182 225 296 358 414
#     4  11  23  42  66 101 132 182 226 283 350 419
#     4  12  25  47  72 106 139 186 241 291 352 426
#     4  11  23  42  64  99 141 178 223 287 356 417
#
# _framework density 20.170686
#
# number of rings (size 3 to 8) (size 9 to 14) (size 15 to 20)
#    0.000    0.471    2.353    8.118    3.294    0.941 
#    8.471    0.000    0.000    0.000    0.000    0.000 
#    0.000    0.000    0.000    0.000    0.000    0.000 
#
# Total GULP energy -189719.986364 kJ/mol
# GULP energy per Si atom -5579.999599 kJ/mol
# Density = 2.012478 g / cm^3
# Si number density = 20.170686 Si / 1000 Ang^3
#
#
#
# Elastic Constant Matrix: (Units=GPa)
#
#
# Indices 1 2 3 4 5 6 
#
# 1 154.3669 36.7292 63.9886 0.0000 0.0000 0.0000
# 2 36.7292 122.7557 33.7025 0.0000 0.0000 0.0000
# 3 63.9886 33.7025 136.3364 0.0000 0.0000 0.0000
# 4 0.0000 0.0000 0.0000 39.3763 0.0000 0.0000
# 5 0.0000 0.0000 0.0000 0.0000 52.5995 0.0000
# 6 0.0000 0.0000 0.0000 0.0000 0.0000 13.1717
#
#
#
# Elastic Compliance Matrix: (Units=1/GPa)
#
#
# Indices 1 2 3 4 5 6 
#
# 1 0.008298 -0.001516 -0.003520 0.000000 0.000000 0.000000
# 2 -0.001516 0.009017 -0.001517 0.000000 0.000000 0.000000
# 3 -0.003520 -0.001517 0.009362 0.000000 0.000000 0.000000
# 4 0.000000 0.000000 0.000000 0.025396 0.000000 0.000000
# 5 0.000000 0.000000 0.000000 0.000000 0.019012 0.000000
# 6 0.000000 0.000000 0.000000 0.000000 0.000000 0.075921
#
#
# Mechanical properties :
#
#
# Convention : Reuss Voigt Hill
#
# Bulk Modulus (GPa) = 73.69414 75.81107 74.75260
# Shear Modulus (GPa) = 30.37038 39.63207 35.00122
#
# Velocity S-wave (km/s) = 3.88450 4.43745 4.17015
# Velocity P-wave (km/s) = 7.53218 7.99506 7.76707
#
# Compressibility (1/GPa) = 0.01356960
#
# Stress axis : x y z
#
# Youngs Moduli (GPa) = 120.51270 110.90749 106.81727
#
# Poissons Ratio (x) = 0.16819 0.37596
# Poissons Ratio (y) = 0.18275 0.16206
# Poissons Ratio (z) = 0.42417 0.16826
#
# Static dielectric constant tensor:
#      x y z
#    x 1.674970 0.000000 0.000000 
#    y 0.000000 1.682540 0.000000 
#    z 0.000000 0.000000 1.623540 
# 
# From -- ./inp_files/10513.got.cif
#   From: 2010.05.17/outbox.cif.g08.bks.cpg/sg74_6_cif.got.tgz:10513.got - 2010.06.03 17:57:02.
