data_PCOD9540279
_publ_section_title
;
Structure prediction by ZEFSAII (Michael W. Deem and Ramdas Pophale) SiO2 
 PCOD9540279
Probable space group: I M M A
;
_chemical_formula_sum "Si O2"
_cell_formula_units_Z 80
_cell_length_a 24.685792
_cell_length_b 8.207759
_cell_length_c 27.235885
_cell_angle_alpha 90.000000
_cell_angle_beta 90.000000
_cell_angle_gamma 90.000000
_cell_volume 5518.399696
_symmetry_space_group_name_H-M "I M M A"
_symmetry_group_IT_number 74
_symmetry_cell_setting 'orthorhombic'
loop_
_space_group_symop_operation_xyz
x,y,z
-x,1/2-y,z
x,-y,-z
-x,1/2+y,-z
-x,-y,-z
x,1/2+y,-z
-x,y,z
x,1/2-y,z
1/2+x,1/2+y,1/2+z
1/2-x,-y,1/2+z
1/2+x,1/2-y,1/2-z
1/2-x,y,1/2-z
1/2-x,1/2-y,1/2-z
1/2+x,y,1/2-z
1/2-x,1/2+y,1/2+z
1/2+x,-y,1/2+z
loop_
_atom_site_type_symbol
_atom_site_label
_atom_site_fract_x
_atom_site_fract_y
_atom_site_fract_z
Si Si1 0.616879 0.946859 0.258438
Si Si2 0.715008 0.939636 0.199389
Si Si3 0.000000 0.555099 0.895705
Si Si4 0.111933 0.055433 0.944440
Si Si5 0.500000 0.944323 0.717123
Si Si6 0.683438 0.449740 0.644871
O O1 0.619349 0.750000 0.257488
O O2 0.657006 0.009575 0.215493
O O3 0.643073 0.998099 0.310731
O O4 0.555025 0.999396 0.257073
O O5 0.706028 0.750000 0.186244
O O6 0.750000 0.940377 0.250000
O O7 0.756286 0.009212 0.159057
O O8 0.053769 0.499283 0.923750
O O9 0.000000 0.492410 0.839416
O O10 0.000000 0.750000 0.894254
O O11 0.112810 0.250000 0.943397
O O12 0.157793 0.995941 0.906288
O O13 0.119785 0.000000 0.000000
O O14 0.500000 0.750000 0.715026
O O15 0.685104 0.250000 0.645357
#
# Coordination Sequence:
#
# PCOD9540279 Si02
#       6
#    16  16   8  16   8  16
#     4   9  15  26  44  61  76  98 132 163 192 235
#     4   7  11  21  40  63  78  90 119 163 198 229
#     4  11  22  34  43  53  74 106 142 177 207 233
#     4  11  21  32  45  59  77 102 135 172 207 242
#     4  11  21  28  38  57  85 110 131 165 202 235
#     4   8  14  25  42  61  77  96 125 164 204 235
#
# _framework density 14.496957999999999
#
# number of rings (size 3 to 8) (size 9 to 14) (size 15 to 20)
#    0.000    2.800    2.000    3.900    0.000    0.800 
#    0.000    0.000    0.000    7.800    0.000    0.000 
#    0.000    0.000    0.000    0.900    0.000    8.400 
#
# Total GULP energy -222709.219849 kJ/mol
# GULP energy per Si atom -5567.730496 kJ/mol
# Density = 1.446396 g / cm^3
# Si number density = 14.496958 Si / 1000 Ang^3
#
#
#
# Elastic Constant Matrix: (Units=GPa)
#
#
# Indices 1 2 3 4 5 6 
#
# 1 142.7077 12.9077 75.3727 0.0000 0.0000 0.0000
# 2 12.9077 15.0127 11.0017 0.0000 0.0000 0.0000
# 3 75.3727 11.0017 77.0102 0.0000 0.0000 0.0000
# 4 0.0000 0.0000 0.0000 9.9445 0.0000 0.0000
# 5 0.0000 0.0000 0.0000 0.0000 15.8386 0.0000
# 6 0.0000 0.0000 0.0000 0.0000 0.0000 -5.8664
#
#
#
# Elastic Compliance Matrix: (Units=1/GPa)
#
#
# Indices 1 2 3 4 5 6 
#
# 1 0.014578 -0.002321 -0.013936 0.000000 0.000000 0.000000
# 2 -0.002321 0.074769 -0.008410 0.000000 0.000000 0.000000
# 3 -0.013936 -0.008410 0.027827 0.000000 0.000000 0.000000
# 4 0.000000 0.000000 0.000000 0.100558 0.000000 0.000000
# 5 0.000000 0.000000 0.000000 0.000000 0.063137 0.000000
# 6 0.000000 0.000000 0.000000 0.000000 0.000000 -0.170461
#
#
# Mechanical properties :
#
#
# Convention : Reuss Voigt Hill
#
# Bulk Modulus (GPa) = 14.74074 48.14385 31.44230
# Shear Modulus (GPa) = 27.41907 13.01324 20.21615
#
# Velocity S-wave (km/s) = 4.35370 2.99934 3.73837
# Velocity P-wave (km/s) = 5.95510 6.72877 6.35372
#
# Compressibility (1/GPa) = 0.06783921
#
# Stress axis : x y z
#
# Youngs Moduli (GPa) = 68.59711 13.37452 35.93667
#
# Poissons Ratio (x) = 0.03104 0.50083
# Poissons Ratio (y) = 0.15921 0.30223
# Poissons Ratio (z) = 0.95599 0.11248
#
# Static dielectric constant tensor:
#      x y z
#    x 1.501370 0.000000 0.000000 
#    y 0.000000 1.503810 0.000000 
#    z 0.000000 0.000000 1.479050 
# 
# From -- ./inp_files/57173.got.cif
#   From: 2010.05.17/outbox.cif.g08.bks.cpg/sg74_29_cif.got.tgz:57173.got - 2010.06.03 17:57:02.
