data_PCOD9540176
_publ_section_title
;
Structure prediction by ZEFSAII (Michael W. Deem and Ramdas Pophale) SiO2 
 PCOD9540176
Probable space group: I M M A
;
_chemical_formula_sum "Si O2"
_cell_formula_units_Z 64
_cell_length_a 17.293576
_cell_length_b 10.502936
_cell_length_c 18.291562
_cell_angle_alpha 90.000000
_cell_angle_beta 90.000000
_cell_angle_gamma 90.000000
_cell_volume 3322.357170
_symmetry_space_group_name_H-M "I M M A"
_symmetry_group_IT_number 74
_symmetry_cell_setting 'orthorhombic'
loop_
_space_group_symop_operation_xyz
x,y,z
-x,1/2-y,z
x,-y,-z
-x,1/2+y,-z
-x,-y,-z
x,1/2+y,-z
-x,y,z
x,1/2-y,z
1/2+x,1/2+y,1/2+z
1/2-x,-y,1/2+z
1/2+x,1/2-y,1/2-z
1/2-x,y,1/2-z
1/2-x,1/2-y,1/2-z
1/2+x,y,1/2-z
1/2-x,1/2+y,1/2+z
1/2+x,-y,1/2+z
loop_
_atom_site_type_symbol
_atom_site_label
_atom_site_fract_x
_atom_site_fract_y
_atom_site_fract_z
Si Si1 0.586110 0.750000 0.085616
Si Si2 0.175848 0.900295 0.148343
Si Si3 0.146317 0.466657 0.689952
Si Si4 0.226354 0.250000 0.474714
Si Si5 0.826119 0.500000 0.000000
Si Si6 0.821013 0.750000 0.691452
O O1 0.500000 0.750000 0.056073
O O2 0.599648 0.875556 0.135543
O O3 0.648331 0.750000 0.021221
O O4 0.179459 0.750000 0.132791
O O5 0.137515 0.917243 0.227372
O O6 0.264025 0.949156 0.162751
O O7 0.136985 0.974691 0.080124
O O8 0.132379 0.617672 0.695051
O O9 0.273458 0.123941 0.492943
O O10 0.213839 0.250000 0.388996
O O11 0.750000 0.750000 0.750000
#
# Coordination Sequence:
#
# PCOD9540176 Si02
#       6
#     8  16  16   8   8   8
#     4  12  24  40  58  74 108 171 219 233 257 322
#     4  11  18  30  56  79 113 143 178 235 301 347
#     4  11  19  35  53  80 108 147 193 238 281 348
#     4  12  20  33  48  76 111 140 193 233 273 339
#     4  12  18  30  51  80 111 146 162 232 300 354
#     4  12  20  32  55  85 110 142 172 237 316 351
#
# _framework density 19.263432000000002
#
# number of rings (size 3 to 8) (size 9 to 14) (size 15 to 20)
#    0.000    0.500   11.250    0.750    0.000    0.000 
#    0.000    6.250    0.000    0.000    0.000    0.875 
#    0.000    0.000    0.000    0.000    0.000    0.000 
#
# Total GULP energy -178442.597737 kJ/mol
# GULP energy per Si atom -5576.331179 kJ/mol
# Density = 1.921959 g / cm^3
# Si number density = 19.263432 Si / 1000 Ang^3
#
#
#
# Elastic Constant Matrix: (Units=GPa)
#
#
# Indices 1 2 3 4 5 6 
#
# 1 6.0585 7.8146 -4.4976 0.0000 0.0000 0.0000
# 2 7.8146 166.5122 23.6503 0.0000 0.0000 0.0000
# 3 -4.4976 23.6503 139.4226 0.0000 0.0000 0.0000
# 4 0.0000 0.0000 0.0000 40.6308 0.0000 0.0000
# 5 0.0000 0.0000 0.0000 0.0000 2.8350 0.0000
# 6 0.0000 0.0000 0.0000 0.0000 0.0000 2.5727
#
#
#
# Elastic Compliance Matrix: (Units=1/GPa)
#
#
# Indices 1 2 3 4 5 6 
#
# 1 0.183129 -0.009666 0.007547 0.000000 0.000000 0.000000
# 2 -0.009666 0.006664 -0.001442 0.000000 0.000000 0.000000
# 3 0.007547 -0.001442 0.007661 0.000000 0.000000 0.000000
# 4 0.000000 0.000000 0.000000 0.024612 0.000000 0.000000
# 5 0.000000 0.000000 0.000000 0.000000 0.352738 0.000000
# 6 0.000000 0.000000 0.000000 0.000000 0.000000 0.388704
#
#
# Mechanical properties :
#
#
# Convention : Reuss Voigt Hill
#
# Bulk Modulus (GPa) = 5.25400 40.65865 22.95633
# Shear Modulus (GPa) = 4.83524 28.20940 16.52232
#
# Velocity S-wave (km/s) = 1.58604 3.83090 2.93184
# Velocity P-wave (km/s) = 2.46726 6.38124 4.83775
#
# Compressibility (1/GPa) = 0.19033113
#
# Stress axis : x y z
#
# Youngs Moduli (GPa) = 5.46062 150.05836 130.53890
#
# Poissons Ratio (x) = 1.45053 -0.98521
# Poissons Ratio (y) = 0.05278 0.18827
# Poissons Ratio (z) = -0.04121 0.21642
#
# Static dielectric constant tensor:
#      x y z
#    x 1.696900 0.000000 0.000000 
#    y 0.000000 1.657170 0.000000 
#    z 0.000000 0.000000 1.758400 
# 
# From -- ./inp_files/44967.got.cif
#   From: 2010.05.17/outbox.cif.g08.bks.cpg/sg74_23_cif.got.tgz:44967.got - 2010.06.03 17:57:02.
