data_PCOD9540728
_publ_section_title
;
Structure prediction by ZEFSAII (Michael W. Deem and Ramdas Pophale) SiO2 
 PCOD9540728
Probable space group: I M M A
;
_chemical_formula_sum "Si O2"
_cell_formula_units_Z 64
_cell_length_a 23.437576
_cell_length_b 10.547014
_cell_length_c 12.442181
_cell_angle_alpha 90.000000
_cell_angle_beta 90.000000
_cell_angle_gamma 90.000000
_cell_volume 3075.662876
_symmetry_space_group_name_H-M "I M M A"
_symmetry_group_IT_number 74
_symmetry_cell_setting 'orthorhombic'
loop_
_space_group_symop_operation_xyz
x,y,z
-x,1/2-y,z
x,-y,-z
-x,1/2+y,-z
-x,-y,-z
x,1/2+y,-z
-x,y,z
x,1/2-y,z
1/2+x,1/2+y,1/2+z
1/2-x,-y,1/2+z
1/2+x,1/2-y,1/2-z
1/2-x,y,1/2-z
1/2-x,1/2-y,1/2-z
1/2+x,y,1/2-z
1/2-x,1/2+y,1/2+z
1/2+x,-y,1/2+z
loop_
_atom_site_type_symbol
_atom_site_label
_atom_site_fract_x
_atom_site_fract_y
_atom_site_fract_z
Si Si1 0.067420 0.385789 0.571424
Si Si2 0.566541 0.103666 0.670166
Si Si3 0.158016 0.395948 0.179962
Si Si4 0.285932 0.104225 0.089470
O O1 0.088990 0.500000 0.500000
O O2 0.093176 0.250000 0.541928
O O3 0.070544 0.400225 0.699418
O O4 0.000000 0.378512 0.547674
O O5 0.500000 0.077631 0.641769
O O6 0.579529 0.250000 0.637757
O O7 0.612061 0.997145 0.637375
O O8 0.138417 0.250000 0.165414
O O9 0.219873 0.410473 0.126067
O O10 0.173424 0.413273 0.306564
O O11 0.291001 0.250000 0.053291
O O12 0.295322 0.000000 0.000000
#
# Coordination Sequence:
#
# PCOD9540728 Si02
#       4
#    16  16  16  16
#     4   8  14  24  36  52  79 116 156 195 233 276
#     4   9  18  31  46  68 100 135 170 209 251 297
#     4   9  19  35  53  76 106 136 169 211 258 309
#     4   9  19  36  56  78 104 133 168 214 264 309
#
# _framework density 20.808520999999999
#
# number of rings (size 3 to 8) (size 9 to 14) (size 15 to 20)
#    0.000    3.250    0.000    3.000    0.000    4.500 
#    0.000   10.000    0.000    0.750    0.000    0.000 
#    0.000    0.000    0.000    0.000    0.000    0.000 
#
# Total GULP energy -178483.316580 kJ/mol
# GULP energy per Si atom -5577.603643 kJ/mol
# Density = 2.076116 g / cm^3
# Si number density = 20.808521 Si / 1000 Ang^3
#
#
#
# Elastic Constant Matrix: (Units=GPa)
#
#
# Indices 1 2 3 4 5 6 
#
# 1 142.1396 86.8255 10.6221 0.0000 0.0000 0.0000
# 2 86.8255 135.6579 29.1661 0.0000 0.0000 0.0000
# 3 10.6221 29.1661 37.8444 0.0000 0.0000 0.0000
# 4 0.0000 0.0000 0.0000 19.1455 0.0000 0.0000
# 5 0.0000 0.0000 0.0000 0.0000 11.6904 0.0000
# 6 0.0000 0.0000 0.0000 0.0000 0.0000 156.5391
#
#
#
# Elastic Compliance Matrix: (Units=1/GPa)
#
#
# Indices 1 2 3 4 5 6 
#
# 1 0.011832 -0.008221 0.003015 0.000000 0.000000 0.000000
# 2 -0.008221 0.014547 -0.008904 0.000000 0.000000 0.000000
# 3 0.003015 -0.008904 0.032440 0.000000 0.000000 0.000000
# 4 0.000000 0.000000 0.000000 0.052232 0.000000 0.000000
# 5 0.000000 0.000000 0.000000 0.000000 0.085540 0.000000
# 6 0.000000 0.000000 0.000000 0.000000 0.000000 0.006388
#
#
# Mechanical properties :
#
#
# Convention : Reuss Voigt Hill
#
# Bulk Modulus (GPa) = 32.68091 63.20769 47.94430
# Shear Modulus (GPa) = 20.71258 50.07690 35.39474
#
# Velocity S-wave (km/s) = 3.15840 4.91099 4.12876
# Velocity P-wave (km/s) = 5.38891 7.91195 6.76902
#
# Compressibility (1/GPa) = 0.03059890
#
# Stress axis : x y z
#
# Youngs Moduli (GPa) = 84.51858 68.74061 30.82612
#
# Poissons Ratio (x) = 0.56511 -0.09293
# Poissons Ratio (y) = 0.69481 0.27448
# Poissons Ratio (z) = -0.25481 0.61207
#
# Static dielectric constant tensor:
#      x y z
#    x 1.744140 0.000000 0.000000 
#    y 0.000000 1.749510 0.000000 
#    z 0.000000 0.000000 1.774390 
# 
# From -- ./inp_files/18628.got.cif
#   From: 2010.05.17/outbox.cif.g08.bks.cpg/sg74_10_cif.got.tgz:18628.got - 2010.06.03 17:57:02.
