data_PCOD9540281
_publ_section_title
;
Structure prediction by ZEFSAII (Michael W. Deem and Ramdas Pophale) SiO2 
 PCOD9540281
Probable space group: I M M A
;
_chemical_formula_sum "Si O2"
_cell_formula_units_Z 96
_cell_length_a 9.565801
_cell_length_b 28.750137
_cell_length_c 26.670089
_cell_angle_alpha 90.000000
_cell_angle_beta 90.000000
_cell_angle_gamma 90.000000
_cell_volume 7334.756917
_symmetry_space_group_name_H-M "I M M A"
_symmetry_group_IT_number 74
_symmetry_cell_setting 'orthorhombic'
loop_
_space_group_symop_operation_xyz
x,y,z
-x,1/2-y,z
x,-y,-z
-x,1/2+y,-z
-x,-y,-z
x,1/2+y,-z
-x,y,z
x,1/2-y,z
1/2+x,1/2+y,1/2+z
1/2-x,-y,1/2+z
1/2+x,1/2-y,1/2-z
1/2-x,y,1/2-z
1/2-x,1/2-y,1/2-z
1/2+x,y,1/2-z
1/2-x,1/2+y,1/2+z
1/2+x,-y,1/2+z
loop_
_atom_site_type_symbol
_atom_site_label
_atom_site_fract_x
_atom_site_fract_y
_atom_site_fract_z
Si Si1 0.152540 0.910890 0.053269
Si Si2 0.500000 0.804430 0.167266
Si Si3 0.000000 0.806136 0.212722
Si Si4 0.161489 0.490731 0.112189
Si Si5 0.264880 0.139224 0.651910
Si Si6 0.330485 0.460009 0.802371
Si Si7 0.839638 0.550709 0.527587
O O1 0.170818 0.874877 0.098553
O O2 0.000000 0.905088 0.029288
O O3 0.153492 0.961134 0.080637
O O4 0.273701 0.913539 0.012227
O O5 0.500000 0.750000 0.160049
O O6 0.500000 0.813143 0.227470
O O7 0.365857 0.827972 0.144025
O O8 0.869269 0.832582 0.187890
O O9 0.000000 0.750000 0.203556
O O10 0.261014 0.503519 0.158866
O O11 0.238962 0.454785 0.075457
O O12 0.000000 0.478780 0.125209
O O13 0.210891 0.091480 0.677476
O O14 0.500000 0.463617 0.799050
O O15 0.250000 0.465807 0.750000
O O16 0.840332 0.500000 0.500000
O O17 0.000000 0.561193 0.540634
#
# Coordination Sequence:
#
# PCOD9540281 Si02
#       7
#    16   8   8  16  16  16  16
#     4   9  17  28  41  57  75  97 121 150 192 236
#     4  11  22  34  46  60  75  96 126 164 210 255
#     4  11  22  36  48  58  73  98 128 162 206 257
#     4   9  17  28  41  58  80 102 125 151 185 228
#     4  11  21  32  46  60  77  96 126 165 205 249
#     4  11  21  30  43  59  79 104 133 164 200 235
#     4   9  16  25  41  59  79  98 120 147 183 228
#
# _framework density 13.088369
#
# number of rings (size 3 to 8) (size 9 to 14) (size 15 to 20)
#    0.000    2.000    1.667    3.500    3.500    5.333 
#    0.000    0.000    0.000    0.000    0.000    0.000 
#    0.000    0.000    0.000    0.000    0.000    0.000 
#
# Total GULP energy -267422.151494 kJ/mol
# GULP energy per Si atom -5571.294823 kJ/mol
# Density = 1.305858 g / cm^3
# Si number density = 13.088369 Si / 1000 Ang^3
#
#
#
# Elastic Constant Matrix: (Units=GPa)
#
#
# Indices 1 2 3 4 5 6 
#
# 1 116.6849 15.0803 33.6086 0.0000 0.0000 0.0000
# 2 15.0803 22.1792 20.9004 0.0000 0.0000 0.0000
# 3 33.6086 20.9004 52.8544 0.0000 0.0000 0.0000
# 4 0.0000 0.0000 0.0000 16.6764 0.0000 0.0000
# 5 0.0000 0.0000 0.0000 0.0000 21.7740 0.0000
# 6 0.0000 0.0000 0.0000 0.0000 0.0000 17.1759
#
#
#
# Elastic Compliance Matrix: (Units=1/GPa)
#
#
# Indices 1 2 3 4 5 6 
#
# 1 0.010517 -0.001353 -0.006152 0.000000 0.000000 0.000000
# 2 -0.001353 0.072042 -0.027627 0.000000 0.000000 0.000000
# 3 -0.006152 -0.027627 0.033757 0.000000 0.000000 0.000000
# 4 0.000000 0.000000 0.000000 0.059965 0.000000 0.000000
# 5 0.000000 0.000000 0.000000 0.000000 0.045926 0.000000
# 6 0.000000 0.000000 0.000000 0.000000 0.000000 0.058221
#
#
# Mechanical properties :
#
#
# Convention : Reuss Voigt Hill
#
# Bulk Modulus (GPa) = 21.71559 36.76635 29.24097
# Shear Modulus (GPa) = 13.65955 19.26720 16.46338
#
# Velocity S-wave (km/s) = 3.23405 3.84094 3.55048
# Velocity P-wave (km/s) = 5.52928 6.91536 6.26080
#
# Compressibility (1/GPa) = 0.04604986
#
# Stress axis : x y z
#
# Youngs Moduli (GPa) = 95.08386 13.88081 29.62362
#
# Poissons Ratio (x) = 0.01878 0.18226
# Poissons Ratio (y) = 0.12867 0.81842
# Poissons Ratio (z) = 0.58499 0.38349
#
# Static dielectric constant tensor:
#      x y z
#    x 1.436570 0.000000 0.000000 
#    y 0.000000 1.396320 0.000000 
#    z 0.000000 0.000000 1.426200 
# 
# From -- ./inp_files/64707.got.cif
#   From: 2010.05.17/outbox.cif.g08.bks.cpg/sg74_33_cif.got.tgz:64707.got - 2010.06.03 17:57:02.
