data_PCOD9540017
_publ_section_title
;
Structure prediction by ZEFSAII (Michael W. Deem and Ramdas Pophale) SiO2 
 PCOD9540017
Probable space group: I M M A
;
_chemical_formula_sum "Si O2"
_cell_formula_units_Z 60
_cell_length_a 14.427664
_cell_length_b 9.737275
_cell_length_c 20.711804
_cell_angle_alpha 90.000000
_cell_angle_beta 90.000000
_cell_angle_gamma 90.000000
_cell_volume 2909.721230
_symmetry_space_group_name_H-M "I M M A"
_symmetry_group_IT_number 74
_symmetry_cell_setting 'orthorhombic'
loop_
_space_group_symop_operation_xyz
x,y,z
-x,1/2-y,z
x,-y,-z
-x,1/2+y,-z
-x,-y,-z
x,1/2+y,-z
-x,y,z
x,1/2-y,z
1/2+x,1/2+y,1/2+z
1/2-x,-y,1/2+z
1/2+x,1/2-y,1/2-z
1/2-x,y,1/2-z
1/2-x,1/2-y,1/2-z
1/2+x,y,1/2-z
1/2-x,1/2+y,1/2+z
1/2+x,-y,1/2+z
loop_
_atom_site_type_symbol
_atom_site_label
_atom_site_fract_x
_atom_site_fract_y
_atom_site_fract_z
Si Si1 0.605348 0.750000 0.076656
Si Si2 0.000000 0.250000 0.782774
Si Si3 0.889912 0.750000 0.866762
Si Si4 0.102287 0.548171 0.627562
Si Si5 0.775285 0.250000 0.451554
Si Si6 0.144493 0.004001 0.231952
O O1 0.500000 0.750000 0.047810
O O2 0.611432 0.885017 0.119730
O O3 0.685842 0.750000 0.023693
O O4 0.080739 0.127540 0.781362
O O5 0.832357 0.750000 0.933646
O O6 0.861402 0.615013 0.825553
O O7 0.000000 0.750000 0.875831
O O8 0.178050 0.621015 0.584378
O O9 0.109694 0.579179 0.702762
O O10 0.000000 0.586448 0.603470
O O11 0.250000 0.966029 0.250000
#
# Coordination Sequence:
#
# PCOD9540017 Si02
#       6
#     8   4   8  16   8  16
#     4  10  23  40  62  95 134 168 209 260 328 398
#     4  12  24  38  62  88 140 170 196 266 320 396
#     4  12  24  44  64  94 134 174 223 272 311 378
#     4  11  21  37  64  93 130 166 204 263 328 389
#     4  12  23  39  63  91 125 176 215 263 313 373
#     4  12  23  41  64  98 133 171 211 259 330 396
#
# _framework density 20.620532000000001
#
# number of rings (size 3 to 8) (size 9 to 14) (size 15 to 20)
#    0.000    0.533    5.333    4.400    1.867    2.133 
#    0.000    0.000    0.000    3.200    3.467    0.000 
#    0.000    0.000    0.000    0.000    0.000    0.000 
#
# Total GULP energy -167163.336984 kJ/mol
# GULP energy per Si atom -5572.111233 kJ/mol
# Density = 2.057360 g / cm^3
# Si number density = 20.620532 Si / 1000 Ang^3
#
#
#
# Elastic Constant Matrix: (Units=GPa)
#
#
# Indices 1 2 3 4 5 6 
#
# 1 182.5643 36.3452 11.6838 0.0000 0.0000 0.0000
# 2 36.3452 120.3503 -6.0438 0.0000 0.0000 0.0000
# 3 11.6838 -6.0438 59.8750 0.0000 0.0000 0.0000
# 4 0.0000 0.0000 0.0000 16.3159 0.0000 0.0000
# 5 0.0000 0.0000 0.0000 0.0000 24.4872 0.0000
# 6 0.0000 0.0000 0.0000 0.0000 0.0000 16.1800
#
#
#
# Elastic Compliance Matrix: (Units=1/GPa)
#
#
# Indices 1 2 3 4 5 6 
#
# 1 0.005934 -0.001860 -0.001346 0.000000 0.000000 0.000000
# 2 -0.001860 0.008934 0.001265 0.000000 0.000000 0.000000
# 3 -0.001346 0.001265 0.017092 0.000000 0.000000 0.000000
# 4 0.000000 0.000000 0.000000 0.061290 0.000000 0.000000
# 5 0.000000 0.000000 0.000000 0.000000 0.040838 0.000000
# 6 0.000000 0.000000 0.000000 0.000000 0.000000 0.061805
#
#
# Mechanical properties :
#
#
# Convention : Reuss Voigt Hill
#
# Bulk Modulus (GPa) = 35.61414 49.63999 42.62706
# Shear Modulus (GPa) = 23.90830 32.78359 28.34594
#
# Velocity S-wave (km/s) = 3.40875 3.99162 3.71164
# Velocity P-wave (km/s) = 5.72726 6.73568 6.25183
#
# Compressibility (1/GPa) = 0.02807874
#
# Stress axis : x y z
#
# Youngs Moduli (GPa) = 168.52480 111.92978 58.50792
#
# Poissons Ratio (x) = 0.20814 0.07873
# Poissons Ratio (y) = 0.31338 -0.07399
# Poissons Ratio (z) = 0.22677 -0.14156
#
# Static dielectric constant tensor:
#      x y z
#    x 1.786250 0.000000 0.000000 
#    y 0.000000 1.700440 0.000000 
#    z 0.000000 0.000000 1.716060 
# 
# From -- ./inp_files/56360.got.cif
#   From: 2010.05.17/outbox.cif.g08.bks.cpg/sg74_29_cif.got.tgz:56360.got - 2010.06.03 17:57:02.
