data_PCOD9540010
_publ_section_title
;
Structure prediction by ZEFSAII (Michael W. Deem and Ramdas Pophale) SiO2 
 PCOD9540010
Probable space group: I M M A
;
_chemical_formula_sum "Si O2"
_cell_formula_units_Z 112
_cell_length_a 32.012615
_cell_length_b 13.789729
_cell_length_c 12.805594
_cell_angle_alpha 90.000000
_cell_angle_beta 90.000000
_cell_angle_gamma 90.000000
_cell_volume 5652.969098
_symmetry_space_group_name_H-M "I M M A"
_symmetry_group_IT_number 74
_symmetry_cell_setting 'orthorhombic'
loop_
_space_group_symop_operation_xyz
x,y,z
-x,1/2-y,z
x,-y,-z
-x,1/2+y,-z
-x,-y,-z
x,1/2+y,-z
-x,y,z
x,1/2-y,z
1/2+x,1/2+y,1/2+z
1/2-x,-y,1/2+z
1/2+x,1/2-y,1/2-z
1/2-x,y,1/2-z
1/2-x,1/2-y,1/2-z
1/2+x,y,1/2-z
1/2-x,1/2+y,1/2+z
1/2+x,-y,1/2+z
loop_
_atom_site_type_symbol
_atom_site_label
_atom_site_fract_x
_atom_site_fract_y
_atom_site_fract_z
Si Si1 0.218253 0.367808 0.158778
Si Si2 0.877602 0.364804 0.215771
Si Si3 0.547261 0.984398 0.623108
Si Si4 0.762765 0.632300 0.076240
Si Si5 0.549175 0.861524 0.199344
Si Si6 0.616413 0.487927 0.884804
Si Si7 0.314598 0.366603 0.774605
O O1 0.220704 0.250000 0.159163
O O2 0.250000 0.401476 0.250000
O O3 0.169730 0.390790 0.181016
O O4 0.232042 0.400875 0.043027
O O5 0.880876 0.250000 0.212088
O O6 0.914741 0.413458 0.150290
O O7 0.884907 0.407840 0.330867
O O8 0.500000 0.950004 0.652339
O O9 0.547382 0.000000 0.500000
O O10 0.554419 0.082983 0.689610
O O11 0.763872 0.750000 0.071822
O O12 0.720355 0.608664 0.138112
O O13 0.798748 0.604671 0.159188
O O14 0.500000 0.859601 0.177388
O O15 0.564253 0.750000 0.201287
O O16 0.572934 0.929952 0.117146
O O17 0.644597 0.421665 0.810037
O O18 0.633517 0.500000 0.000000
O O19 0.319617 0.250000 0.775298
#
# Coordination Sequence:
#
# PCOD9540010 Si02
#       7
#    16  16  16  16  16  16  16
#     4   9  18  33  55  81 113 159 204 245 295 356
#     4  10  23  40  56  82 122 163 204 245 301 369
#     4   9  19  37  63  95 129 158 194 247 302 362
#     4   8  16  33  56  82 112 148 192 243 300 357
#     4   9  19  38  62  87 116 151 192 238 296 366
#     4  11  24  38  56  85 114 147 199 254 310 362
#     4   9  18  35  58  83 112 146 190 249 308 362
#
# _framework density 19.812598000000001
#
# number of rings (size 3 to 8) (size 9 to 14) (size 15 to 20)
#    0.000    2.714    0.000    1.286    2.000    4.571 
#    2.571    2.857    0.000    0.000    0.000    0.000 
#    0.000    0.000    0.000    0.000    0.000    0.000 
#
# Total GULP energy -312429.310442 kJ/mol
# GULP energy per Si atom -5579.094829 kJ/mol
# Density = 1.976750 g / cm^3
# Si number density = 19.812598 Si / 1000 Ang^3
#
#
#
# Elastic Constant Matrix: (Units=GPa)
#
#
# Indices 1 2 3 4 5 6 
#
# 1 104.1098 38.4480 47.0590 0.0000 0.0000 0.0000
# 2 38.4480 82.7922 20.6078 0.0000 0.0000 0.0000
# 3 47.0590 20.6078 116.9326 0.0000 0.0000 0.0000
# 4 0.0000 0.0000 0.0000 12.3717 0.0000 0.0000
# 5 0.0000 0.0000 0.0000 0.0000 -1.3630 0.0000
# 6 0.0000 0.0000 0.0000 0.0000 0.0000 31.8698
#
#
#
# Elastic Compliance Matrix: (Units=1/GPa)
#
#
# Indices 1 2 3 4 5 6 
#
# 1 0.013571 -0.005170 -0.004551 0.000000 0.000000 0.000000
# 2 -0.005170 0.014602 -0.000493 0.000000 0.000000 0.000000
# 3 -0.004551 -0.000493 0.010470 0.000000 0.000000 0.000000
# 4 0.000000 0.000000 0.000000 0.080829 0.000000 0.000000
# 5 0.000000 0.000000 0.000000 0.000000 -0.733661 0.000000
# 6 0.000000 0.000000 0.000000 0.000000 0.000000 0.031378
#
#
# Mechanical properties :
#
#
# Convention : Reuss Voigt Hill
#
# Bulk Modulus (GPa) = 54.89382 57.34047 56.11714
# Shear Modulus (GPa) = -8.98777 21.75703 6.38463
#
# Velocity S-wave (km/s) = -2.13219 3.31742 1.79708
# Velocity P-wave (km/s) = 4.65886 6.60893 5.71765
#
# Compressibility (1/GPa) = 0.01821699
#
# Stress axis : x y z
#
# Youngs Moduli (GPa) = 73.68447 68.48432 95.50939
#
# Poissons Ratio (x) = 0.35405 0.43463
# Poissons Ratio (y) = 0.38093 0.04707
# Poissons Ratio (z) = 0.33531 0.03375
#
# Static dielectric constant tensor:
#      x y z
#    x 1.717780 0.000000 0.000000 
#    y 0.000000 1.728240 0.000000 
#    z 0.000000 0.000000 1.681900 
# 
# From -- ./inp_files/27225.got.cif
#   From: 2010.05.17/outbox.cif.g08.bks.cpg/sg74_14_cif.got.tgz:27225.got - 2010.06.03 17:57:02.
