data_PCOD9540270
_publ_section_title
;
Structure prediction by ZEFSAII (Michael W. Deem and Ramdas Pophale) SiO2 
 PCOD9540270
Probable space group: I M M A
;
_chemical_formula_sum "Si O2"
_cell_formula_units_Z 72
_cell_length_a 10.247756
_cell_length_b 29.359924
_cell_length_c 13.061778
_cell_angle_alpha 90.000000
_cell_angle_beta 90.000000
_cell_angle_gamma 90.000000
_cell_volume 3929.940738
_symmetry_space_group_name_H-M "I M M A"
_symmetry_group_IT_number 74
_symmetry_cell_setting 'orthorhombic'
loop_
_space_group_symop_operation_xyz
x,y,z
-x,1/2-y,z
x,-y,-z
-x,1/2+y,-z
-x,-y,-z
x,1/2+y,-z
-x,y,z
x,1/2-y,z
1/2+x,1/2+y,1/2+z
1/2-x,-y,1/2+z
1/2+x,1/2-y,1/2-z
1/2-x,y,1/2-z
1/2-x,1/2-y,1/2-z
1/2+x,y,1/2-z
1/2-x,1/2+y,1/2+z
1/2+x,-y,1/2+z
loop_
_atom_site_type_symbol
_atom_site_label
_atom_site_fract_x
_atom_site_fract_y
_atom_site_fract_z
Si Si1 0.843981 0.250000 0.151700
Si Si2 0.652533 0.572403 0.550260
Si Si3 0.767265 0.330923 0.998557
Si Si4 0.000000 0.695342 0.389935
Si Si5 0.152236 0.481085 0.836758
Si Si6 0.500000 0.694366 0.350226
O O1 0.750000 0.250000 0.250000
O O2 0.000000 0.250000 0.174682
O O3 0.808281 0.293640 0.082429
O O4 0.500000 0.583176 0.567467
O O5 0.728982 0.619310 0.548742
O O6 0.688661 0.532610 0.629298
O O7 0.662701 0.549483 0.438250
O O8 0.628276 0.321247 0.948196
O O9 0.874778 0.325733 0.908530
O O10 0.000000 0.682513 0.269764
O O11 0.000000 0.750000 0.392465
O O12 0.250000 0.465004 0.750000
O O13 0.000000 0.480707 0.805193
O O14 0.500000 0.750000 0.360320
#
# Coordination Sequence:
#
# PCOD9540270 Si02
#       6
#     8  16  16   8  16   8
#     4  12  26  42  65  87 116 166 207 249 299 348
#     4   9  19  38  62  82 115 160 196 236 292 357
#     4  12  21  42  61  86 127 159 203 249 300 360
#     4  11  24  36  60  93 126 158 196 256 303 358
#     4   9  19  38  61  86 115 151 194 242 295 353
#     4  11  20  38  62  87 116 164 204 236 307 372
#
# _framework density 18.320886000000002
#
# number of rings (size 3 to 8) (size 9 to 14) (size 15 to 20)
#    0.000    1.556    4.444    2.000    1.556    4.444 
#    4.000    1.111    0.000    0.000    0.000    0.000 
#    0.000    0.000    0.000    0.000    0.000    0.000 
#
# Total GULP energy -201016.751546 kJ/mol
# GULP energy per Si atom -5583.798654 kJ/mol
# Density = 1.827919 g / cm^3
# Si number density = 18.320886 Si / 1000 Ang^3
#
#
#
# Elastic Constant Matrix: (Units=GPa)
#
#
# Indices 1 2 3 4 5 6 
#
# 1 120.1432 13.7129 43.9060 0.0001 0.0000 0.0000
# 2 13.7129 76.9028 1.0529 0.0001 0.0000 0.0000
# 3 43.9060 1.0529 64.5941 0.0003 0.0002 0.0002
# 4 0.0001 0.0001 0.0003 5.2144 0.0001 0.0001
# 5 0.0000 0.0000 0.0002 0.0001 30.3113 0.0001
# 6 0.0000 0.0000 0.0002 0.0001 0.0001 8.4111
#
#
#
# Elastic Compliance Matrix: (Units=1/GPa)
#
#
# Indices 1 2 3 4 5 6 
#
# 1 0.011350 -0.001919 -0.007684 0.000000 0.000000 0.000000
# 2 -0.001919 0.013331 0.001087 0.000000 0.000000 0.000000
# 3 -0.007684 0.001087 0.020686 -0.000001 0.000000 0.000000
# 4 0.000000 0.000000 -0.000001 0.191777 0.000000 -0.000003
# 5 0.000000 0.000000 0.000000 0.000000 0.032991 0.000000
# 6 0.000000 0.000000 0.000000 -0.000003 0.000000 0.118890
#
#
# Mechanical properties :
#
#
# Convention : Reuss Voigt Hill
#
# Bulk Modulus (GPa) = 35.29054 42.10929 38.69991
# Shear Modulus (GPa) = 12.03362 22.31859 17.17611
#
# Velocity S-wave (km/s) = 2.56564 3.49407 3.06521
# Velocity P-wave (km/s) = 5.29915 6.26994 5.80488
#
# Compressibility (1/GPa) = 0.02833621
#
# Stress axis : x y z
#
# Youngs Moduli (GPa) = 88.10224 75.01489 48.34084
#
# Poissons Ratio (x) = 0.14393 0.37144
# Poissons Ratio (y) = 0.16905 -0.05254
# Poissons Ratio (z) = 0.67697 -0.08154
#
# Static dielectric constant tensor:
#      x y z
#    x 1.600350 0.000000 0.000000 
#    y 0.000000 1.642270 0.000000 
#    z 0.000000 0.000000 1.614370 
# 
# From -- ./inp_files/29452.got.cif
#   From: 2010.05.17/outbox.cif.g08.bks.cpg/sg74_15_cif.got.tgz:29452.got - 2010.06.03 17:57:02.
