data_PCOD9540048
_publ_section_title
;
Structure prediction by ZEFSAII (Michael W. Deem and Ramdas Pophale) SiO2 
 PCOD9540048
Probable space group: I M M A
;
_chemical_formula_sum "Si O2"
_cell_formula_units_Z 96
_cell_length_a 16.855457
_cell_length_b 11.455569
_cell_length_c 23.989230
_cell_angle_alpha 90.000000
_cell_angle_beta 90.000000
_cell_angle_gamma 90.000000
_cell_volume 4632.052850
_symmetry_space_group_name_H-M "I M M A"
_symmetry_group_IT_number 74
_symmetry_cell_setting 'orthorhombic'
loop_
_space_group_symop_operation_xyz
x,y,z
-x,1/2-y,z
x,-y,-z
-x,1/2+y,-z
-x,-y,-z
x,1/2+y,-z
-x,y,z
x,1/2-y,z
1/2+x,1/2+y,1/2+z
1/2-x,-y,1/2+z
1/2+x,1/2-y,1/2-z
1/2-x,y,1/2-z
1/2-x,1/2-y,1/2-z
1/2+x,y,1/2-z
1/2-x,1/2+y,1/2+z
1/2+x,-y,1/2+z
loop_
_atom_site_type_symbol
_atom_site_label
_atom_site_fract_x
_atom_site_fract_y
_atom_site_fract_z
Si Si1 0.094169 0.115042 0.763440
Si Si2 0.329546 0.488437 0.368036
Si Si3 0.093623 0.250000 0.128619
Si Si4 0.846231 0.750000 0.744725
Si Si5 0.350823 0.034574 0.167866
Si Si6 0.260449 0.379243 0.535968
Si Si7 0.414038 0.439988 0.939645
O O1 0.110080 0.250000 0.776312
O O2 0.125014 0.035598 0.813995
O O3 0.000000 0.098682 0.756511
O O4 0.135806 0.079578 0.705579
O O5 0.369762 0.371925 0.392513
O O6 0.240756 0.453855 0.349299
O O7 0.318816 0.590734 0.413094
O O8 0.116203 0.250000 0.194382
O O9 0.000000 0.250000 0.120796
O O10 0.750000 0.750000 0.750000
O O11 0.871760 0.638849 0.709056
O O12 0.401807 0.028539 0.111790
O O13 0.263474 0.500000 0.500000
O O14 0.277010 0.250000 0.511204
O O15 0.169795 0.373969 0.558806
O O16 0.500000 0.381629 0.931503
O O17 0.417234 0.500000 0.000000
#
# Coordination Sequence:
#
# PCOD9540048 Si02
#       7
#    16  16   8   8  16  16  16
#     4  11  23  37  56  86 122 162 207 258 321 385
#     4  11  22  39  62  91 124 163 208 258 320 389
#     4  12  24  38  64  96 128 166 204 259 329 401
#     4  12  20  38  60  96 132 164 210 265 331 392
#     4  11  21  36  61  88 123 164 215 264 317 382
#     4  10  23  42  68  98 127 169 220 269 326 389
#     4   9  20  40  60  88 130 174 219 268 321 379
#
# _framework density 20.725151
#
# number of rings (size 3 to 8) (size 9 to 14) (size 15 to 20)
#    0.000    1.333    3.333    2.000    1.167    5.000 
#    9.000    0.000    0.000    2.000    0.000    0.000 
#    0.000    0.000    0.000    0.000    0.000    0.000 
#
# Total GULP energy -267814.165826 kJ/mol
# GULP energy per Si atom -5579.461788 kJ/mol
# Density = 2.067798 g / cm^3
# Si number density = 20.725151 Si / 1000 Ang^3
#
#
#
# Elastic Constant Matrix: (Units=GPa)
#
#
# Indices 1 2 3 4 5 6 
#
# 1 95.0975 37.5568 15.5418 0.0000 0.0000 0.0000
# 2 37.5568 118.4427 28.2625 0.0000 0.0000 0.0000
# 3 15.5418 28.2625 65.6669 0.0000 0.0000 0.0000
# 4 0.0000 0.0000 0.0000 20.1452 0.0000 0.0000
# 5 0.0000 0.0000 0.0000 0.0000 -52.1968 0.0000
# 6 0.0000 0.0000 0.0000 0.0000 0.0000 9.9788
#
#
#
# Elastic Compliance Matrix: (Units=1/GPa)
#
#
# Indices 1 2 3 4 5 6 
#
# 1 0.012128 -0.003522 -0.001354 0.000000 0.000000 0.000000
# 2 -0.003522 0.010432 -0.003656 0.000000 0.000000 0.000000
# 3 -0.001354 -0.003656 0.017123 0.000000 0.000000 0.000000
# 4 0.000000 0.000000 0.000000 0.049640 0.000000 0.000000
# 5 0.000000 0.000000 0.000000 0.000000 -0.019158 0.000000
# 6 0.000000 0.000000 0.000000 0.000000 0.000000 0.100212
#
#
# Mechanical properties :
#
#
# Convention : Reuss Voigt Hill
#
# Bulk Modulus (GPa) = 44.21533 49.10325 46.65929
# Shear Modulus (GPa) = 25.64344 8.77518 17.20931
#
# Velocity S-wave (km/s) = 3.52136 2.05992 2.88472
# Velocity P-wave (km/s) = 6.15741 5.42233 5.80153
#
# Compressibility (1/GPa) = 0.02261659
#
# Stress axis : x y z
#
# Youngs Moduli (GPa) = 82.45391 95.85622 58.40250
#
# Poissons Ratio (x) = 0.33765 0.07910
# Poissons Ratio (y) = 0.29044 0.21354
# Poissons Ratio (z) = 0.11167 0.35048
#
# Static dielectric constant tensor:
#      x y z
#    x 1.722700 0.000000 0.000000 
#    y 0.000000 1.751650 0.000000 
#    z 0.000000 0.000000 1.744990 
# 
# From -- ./inp_files/60810.got.cif
#   From: 2010.05.17/outbox.cif.g08.bks.cpg/sg74_31_cif.got.tgz:60810.got - 2010.06.03 17:57:02.
