data_PCOD9540954
_publ_section_title
;
Structure prediction by ZEFSAII (Michael W. Deem and Ramdas Pophale) SiO2 
 PCOD9540954
Probable space group: I M M A
;
_chemical_formula_sum "Si O2"
_cell_formula_units_Z 48
_cell_length_a 9.000000
_cell_length_b 21.000000
_cell_length_c 27.000000
_cell_angle_alpha 90.000000
_cell_angle_beta 90.000000
_cell_angle_gamma 90.000000
_cell_volume 5103.000000
_symmetry_space_group_name_H-M "I M M A"
_symmetry_group_IT_number 74
_symmetry_cell_setting 'orthorhombic'
loop_
_space_group_symop_operation_xyz
x,y,z
-x,1/2-y,z
x,-y,-z
-x,1/2+y,-z
-x,-y,-z
x,1/2+y,-z
-x,y,z
x,1/2-y,z
1/2+x,1/2+y,1/2+z
1/2-x,-y,1/2+z
1/2+x,1/2-y,1/2-z
1/2-x,y,1/2-z
1/2-x,1/2-y,1/2-z
1/2+x,y,1/2-z
1/2-x,1/2+y,1/2+z
1/2+x,-y,1/2+z
loop_
_atom_site_type_symbol
_atom_site_label
_atom_site_fract_x
_atom_site_fract_y
_atom_site_fract_z
Si Si1 0.669483 0.539299 0.929744
Si Si2 0.676632 0.674660 0.384363
Si Si3 0.327564 0.048448 0.333182
Si Si4 0.167867 0.394653 0.529766
Si Si5 0.322016 0.819458 0.803971
Si Si6 0.321213 0.583585 0.198352
O O1 0.500000 0.549574 0.909327
O O2 0.802058 0.539965 0.891295
O O3 0.668055 0.467237 0.950016
O O4 0.694378 0.592234 0.971855
O O5 0.500000 0.666579 0.376725
O O6 0.711618 0.750000 0.379218
O O7 0.722645 0.648589 0.438548
O O8 0.764020 0.629967 0.345338
O O9 0.500000 0.047809 0.318156
O O10 0.251434 0.116497 0.324104
O O11 0.241110 0.988195 0.309923
O O12 0.000000 0.369630 0.536341
O O13 0.500000 0.826837 0.801325
O O14 0.292456 0.750000 0.828802
O O15 0.250000 0.814895 0.750000
O O16 0.500000 0.582668 0.199712
O O17 0.250000 0.606320 0.250000
#
# Coordination Sequence:
#
# PCOD9540954 Si02
#       6
#    16  16  16  16  16  16
#     4   9  18  34  58  88 118 149 190 239 287 340
#     4  11  24  41  61  88 123 159 199 248 303 362
#     4  12  23  36  58  90 123 156 194 242 297 351
#     4   9  18  35  60  87 115 150 193 238 285 344
#     4  10  21  38  59  82 112 152 195 238 287 346
#     4  12  25  42  63  87 118 155 202 254 302 357
#
# _framework density 9.4062319999999993
#
# number of rings (size 3 to 8) (size 9 to 14) (size 15 to 20)
#    0.000    1.500    1.667    5.500    0.000    3.333 
#    0.000    2.500    0.000    1.000    0.000    0.000 
#    0.000    0.000    0.000    0.000    0.000    0.000 
#
# Total GULP energy -267662.735498 kJ/mol
# GULP energy per Si atom -5576.306990 kJ/mol
# Density = 0.938482 g / cm^3
# Si number density = 9.406232 Si / 1000 Ang^3
#
#
#
# Elastic Constant Matrix: (Units=GPa)
#
#
# Indices 1 2 3 4 5 6 
#
# 1 119.3869 44.2973 18.7103 0.0000 0.0000 0.0000
# 2 44.2973 91.4503 7.7794 0.0000 0.0000 0.0000
# 3 18.7103 7.7794 39.9258 0.0000 0.0000 0.0000
# 4 0.0000 0.0000 0.0000 -51.4899 0.0000 0.0000
# 5 0.0000 0.0000 0.0000 0.0000 31.6878 0.0000
# 6 0.0000 0.0000 0.0000 0.0000 0.0000 33.7360
#
#
#
# Elastic Compliance Matrix: (Units=1/GPa)
#
#
# Indices 1 2 3 4 5 6 
#
# 1 0.010841 -0.004900 -0.004126 0.000000 0.000000 0.000000
# 2 -0.004900 0.013334 -0.000302 0.000000 0.000000 0.000000
# 3 -0.004126 -0.000302 0.027039 0.000000 0.000000 0.000000
# 4 0.000000 0.000000 0.000000 -0.019421 0.000000 0.000000
# 5 0.000000 0.000000 0.000000 0.000000 0.031558 0.000000
# 6 0.000000 0.000000 0.000000 0.000000 0.000000 0.029642
#
#
# Mechanical properties :
#
#
# Convention : Reuss Voigt Hill
#
# Bulk Modulus (GPa) = 30.71382 43.59298 37.15340
# Shear Modulus (GPa) = 40.81634 14.78518 27.80076
#
# Velocity S-wave (km/s) = 4.66300 2.80648 3.84837
# Velocity P-wave (km/s) = 6.73447 5.80728 6.28799
#
# Compressibility (1/GPa) = 0.03255864
#
# Stress axis : x y z
#
# Youngs Moduli (GPa) = 92.24361 74.99528 36.98422
#
# Poissons Ratio (x) = 0.36749 0.15258
# Poissons Ratio (y) = 0.45201 0.01116
# Poissons Ratio (z) = 0.38055 0.02263
#
# Static dielectric constant tensor:
#      x y z
#    x 1.637330 0.000000 0.000000 
#    y 0.000000 1.683590 0.000000 
#    z 0.000000 0.000000 1.745840 
# 
# From -- ./inp_files/64257.got.cif
#   From: 2010.05.17/outbox.ucp.g08.bks.cvg/sg74_33_cif.got.tgz:64257.got - 2010.06.11 16:37:44.
