data_PCOD9540422
_publ_section_title
;
Structure prediction by ZEFSAII (Michael W. Deem and Ramdas Pophale) SiO2 
 PCOD9540422
Probable space group: I M M A
;
_chemical_formula_sum "Si O2"
_cell_formula_units_Z 96
_cell_length_a 8.002289
_cell_length_b 21.024779
_cell_length_c 30.036888
_cell_angle_alpha 90.000000
_cell_angle_beta 90.000000
_cell_angle_gamma 90.000000
_cell_volume 5053.597003
_symmetry_space_group_name_H-M "I M M A"
_symmetry_group_IT_number 74
_symmetry_cell_setting 'orthorhombic'
loop_
_space_group_symop_operation_xyz
x,y,z
-x,1/2-y,z
x,-y,-z
-x,1/2+y,-z
-x,-y,-z
x,1/2+y,-z
-x,y,z
x,1/2-y,z
1/2+x,1/2+y,1/2+z
1/2-x,-y,1/2+z
1/2+x,1/2-y,1/2-z
1/2-x,y,1/2-z
1/2-x,1/2-y,1/2-z
1/2+x,y,1/2-z
1/2-x,1/2+y,1/2+z
1/2+x,-y,1/2+z
loop_
_atom_site_type_symbol
_atom_site_label
_atom_site_fract_x
_atom_site_fract_y
_atom_site_fract_z
Si Si1 0.201234 0.182636 0.801224
Si Si2 0.298674 0.404221 0.464793
Si Si3 0.794615 0.052571 0.843083
Si Si4 0.301425 0.677581 0.879406
Si Si5 0.198647 0.580968 0.801306
Si Si6 0.203168 0.949342 0.056035
O O1 0.259162 0.250000 0.821864
O O2 0.250000 0.184620 0.750000
O O3 0.264868 0.116031 0.819141
O O4 0.000000 0.181325 0.805411
O O5 0.500000 0.399390 0.464067
O O6 0.237734 0.357049 0.426421
O O7 0.253407 0.477012 0.452963
O O8 0.241148 0.401963 0.516517
O O9 0.740965 0.061324 0.893989
O O10 0.000000 0.050404 0.842650
O O11 0.736238 0.987126 0.820071
O O12 0.500000 0.681162 0.875921
O O13 0.233507 0.750000 0.878393
O O14 0.243339 0.634984 0.837503
O O15 0.250000 0.592653 0.750000
O O16 0.000000 0.576538 0.801030
O O17 0.000000 0.946824 0.055270
#
# Coordination Sequence:
#
# PCOD9540422 Si02
#       6
#    16  16  16  16  16  16
#     4   9  17  29  46  68  97 134 171 205 246 300
#     4   9  16  31  56  81 104 135 172 211 257 314
#     4   9  16  29  51  79 108 138 171 213 262 308
#     4  11  24  40  56  76 108 146 183 227 276 328
#     4  11  22  37  58  81 107 140 181 231 279 326
#     4   8  14  27  52  82 108 131 164 212 261 308
#
# _framework density 18.996371
#
# number of rings (size 3 to 8) (size 9 to 14) (size 15 to 20)
#    0.000    2.500    1.667    2.500    0.000    1.667 
#    0.000    3.333    0.000    3.000    0.000    2.333 
#    0.000    0.000    0.000    0.000    0.000    0.000 
#
# Total GULP energy -267270.045323 kJ/mol
# GULP energy per Si atom -5568.125944 kJ/mol
# Density = 1.895313 g / cm^3
# Si number density = 18.996371 Si / 1000 Ang^3
#
#
#
# Elastic Constant Matrix: (Units=GPa)
#
#
# Indices 1 2 3 4 5 6 
#
# 1 21.5146 15.6671 11.1838 0.0000 0.0000 0.0000
# 2 15.6671 164.3740 98.5829 0.0000 0.0000 0.0000
# 3 11.1838 98.5829 155.6692 0.0000 0.0000 0.0000
# 4 0.0000 0.0000 0.0000 29.0981 0.0000 0.0000
# 5 0.0000 0.0000 0.0000 0.0000 21.4992 0.0000
# 6 0.0000 0.0000 0.0000 0.0000 0.0000 -118.3028
#
#
#
# Elastic Compliance Matrix: (Units=1/GPa)
#
#
# Indices 1 2 3 4 5 6 
#
# 1 0.050029 -0.004213 -0.000926 0.000000 0.000000 0.000000
# 2 -0.004213 0.010164 -0.006134 0.000000 0.000000 0.000000
# 3 -0.000926 -0.006134 0.010375 0.000000 0.000000 0.000000
# 4 0.000000 0.000000 0.000000 0.034367 0.000000 0.000000
# 5 0.000000 0.000000 0.000000 0.000000 0.046513 0.000000
# 6 0.000000 0.000000 0.000000 0.000000 0.000000 -0.008453
#
#
# Mechanical properties :
#
#
# Convention : Reuss Voigt Hill
#
# Bulk Modulus (GPa) = 20.82380 65.82503 43.32441
# Shear Modulus (GPa) = 27.54066 0.86716 14.20391
#
# Velocity S-wave (km/s) = 3.81174 0.67637 2.73741
# Velocity P-wave (km/s) = 5.50983 5.94446 5.73126
#
# Compressibility (1/GPa) = 0.04802197
#
# Stress axis : x y z
#
# Youngs Moduli (GPa) = 19.98822 98.38473 96.38478
#
# Poissons Ratio (x) = 0.41449 0.08928
# Poissons Ratio (y) = 0.08421 0.59124
# Poissons Ratio (z) = 0.01851 0.60351
#
# Static dielectric constant tensor:
#      x y z
#    x 1.686200 0.000000 0.000000 
#    y 0.000000 1.686640 0.000000 
#    z 0.000000 0.000000 1.692720 
# 
# From -- ./inp_files/64276.got.cif
#   From: 2010.05.17/outbox.cif.g08.bks.cpg/sg74_33_cif.got.tgz:64276.got - 2010.06.03 17:57:02.
