data_PCOD9540791
_publ_section_title
;
Structure prediction by ZEFSAII (Michael W. Deem and Ramdas Pophale) SiO2 
 PCOD9540791
Probable space group: I M M A
;
_chemical_formula_sum "Si O2"
_cell_formula_units_Z 36
_cell_length_a 9.000000
_cell_length_b 15.000000
_cell_length_c 30.000000
_cell_angle_alpha 90.000000
_cell_angle_beta 90.000000
_cell_angle_gamma 90.000000
_cell_volume 4050.000000
_symmetry_space_group_name_H-M "I M M A"
_symmetry_group_IT_number 74
_symmetry_cell_setting 'orthorhombic'
loop_
_space_group_symop_operation_xyz
x,y,z
-x,1/2-y,z
x,-y,-z
-x,1/2+y,-z
-x,-y,-z
x,1/2+y,-z
-x,y,z
x,1/2-y,z
1/2+x,1/2+y,1/2+z
1/2-x,-y,1/2+z
1/2+x,1/2-y,1/2-z
1/2-x,y,1/2-z
1/2-x,1/2-y,1/2-z
1/2+x,y,1/2-z
1/2-x,1/2+y,1/2+z
1/2+x,-y,1/2+z
loop_
_atom_site_type_symbol
_atom_site_label
_atom_site_fract_x
_atom_site_fract_y
_atom_site_fract_z
Si Si1 0.819635 0.008550 0.880094
Si Si2 0.179997 0.750000 0.799562
Si Si3 0.319294 0.351792 0.446236
Si Si4 0.319657 0.647701 0.454347
Si Si5 0.678554 0.433039 0.201092
O O1 0.776975 0.921342 0.908784
O O2 0.733986 0.006804 0.833571
O O3 0.000000 0.008585 0.873290
O O4 0.775525 0.088689 0.912699
O O5 0.250000 0.750000 0.750000
O O6 0.246591 0.841593 0.817746
O O7 0.000000 0.750000 0.800023
O O8 0.500000 0.350643 0.446482
O O9 0.270654 0.250000 0.438340
O O10 0.271720 0.380995 0.495984
O O11 0.500000 0.644035 0.455198
O O12 0.275295 0.750000 0.448971
O O13 0.500000 0.425084 0.204196
O O14 0.750000 0.447063 0.250000
#
# Coordination Sequence:
#
# PCOD9540791 Si02
#       5
#    16   8  16  16  16
#     4  10  18  28  48  75 100 132 170 211 253 296
#     4  10  18  32  52  72  96 128 164 198 238 290
#     4   8  14  24  41  70 104 134 165 205 246 289
#     4   8  14  26  45  71 102 132 168 213 254 292
#     4  11  22  36  51  71 100 133 167 207 250 299
#
# _framework density 8.8888890000000007
#
# number of rings (size 3 to 8) (size 9 to 14) (size 15 to 20)
#    0.000    2.667    0.000    6.333    1.556    2.667 
#    0.000    0.000    0.000    4.000    0.000    3.111 
#    0.000    0.000    0.000    0.000    0.000    0.000 
#
# Total GULP energy -200512.870974 kJ/mol
# GULP energy per Si atom -5569.801972 kJ/mol
# Density = 0.886866 g / cm^3
# Si number density = 8.888889 Si / 1000 Ang^3
#
#
#
# Elastic Constant Matrix: (Units=GPa)
#
#
# Indices 1 2 3 4 5 6 
#
# 1 77.2447 14.5653 34.4097 0.0000 0.0000 0.0000
# 2 14.5653 45.5585 58.6222 0.0000 0.0000 0.0000
# 3 34.4097 58.6222 132.7134 0.0000 0.0000 0.0000
# 4 0.0000 0.0000 0.0000 28.5227 0.0000 0.0000
# 5 0.0000 0.0000 0.0000 0.0000 17.9399 0.0000
# 6 0.0000 0.0000 0.0000 0.0000 0.0000 10.3907
#
#
#
# Elastic Compliance Matrix: (Units=1/GPa)
#
#
# Indices 1 2 3 4 5 6 
#
# 1 0.014641 0.000472 -0.004005 0.000000 0.000000 0.000000
# 2 0.000472 0.050870 -0.022593 0.000000 0.000000 0.000000
# 3 -0.004005 -0.022593 0.018553 0.000000 0.000000 0.000000
# 4 0.000000 0.000000 0.000000 0.035060 0.000000 0.000000
# 5 0.000000 0.000000 0.000000 0.000000 0.055742 0.000000
# 6 0.000000 0.000000 0.000000 0.000000 0.000000 0.096240
#
#
# Mechanical properties :
#
#
# Convention : Reuss Voigt Hill
#
# Bulk Modulus (GPa) = 31.43336 52.30123 41.86729
# Shear Modulus (GPa) = 14.97189 21.23196 18.10193
#
# Velocity S-wave (km/s) = 2.90516 3.45961 3.19444
# Velocity P-wave (km/s) = 5.38265 6.74106 6.09979
#
# Compressibility (1/GPa) = 0.03181334
#
# Stress axis : x y z
#
# Youngs Moduli (GPa) = 68.30260 19.65804 53.89981
#
# Poissons Ratio (x) = -0.00928 0.21585
# Poissons Ratio (y) = -0.03225 1.21774
# Poissons Ratio (z) = 0.27352 0.44413
#
# Static dielectric constant tensor:
#      x y z
#    x 1.590530 0.000000 0.000000 
#    y 0.000000 1.667300 0.000000 
#    z 0.000000 0.000000 1.680120 
# 
# From -- ./inp_files/69957.got.cif
#   From: 2010.05.17/outbox.ucp.g08.bks.cvg/sg74_35_cif.got.tgz:69957.got - 2010.06.11 16:37:44.
