data_PCOD9540649
_publ_section_title
;
Structure prediction by ZEFSAII (Michael W. Deem and Ramdas Pophale) SiO2 
 PCOD9540649
Probable space group: I M M A
;
_chemical_formula_sum "Si O2"
_cell_formula_units_Z 56
_cell_length_a 8.940033
_cell_length_b 13.535881
_cell_length_c 23.432184
_cell_angle_alpha 90.000000
_cell_angle_beta 90.000000
_cell_angle_gamma 90.000000
_cell_volume 2835.557239
_symmetry_space_group_name_H-M "I M M A"
_symmetry_group_IT_number 74
_symmetry_cell_setting 'orthorhombic'
loop_
_space_group_symop_operation_xyz
x,y,z
-x,1/2-y,z
x,-y,-z
-x,1/2+y,-z
-x,-y,-z
x,1/2+y,-z
-x,y,z
x,1/2-y,z
1/2+x,1/2+y,1/2+z
1/2-x,-y,1/2+z
1/2+x,1/2-y,1/2-z
1/2-x,y,1/2-z
1/2-x,1/2-y,1/2-z
1/2+x,y,1/2-z
1/2-x,1/2+y,1/2+z
1/2+x,-y,1/2+z
loop_
_atom_site_type_symbol
_atom_site_label
_atom_site_fract_x
_atom_site_fract_y
_atom_site_fract_z
Si Si1 0.175392 0.937597 0.125558
Si Si2 0.820958 0.250000 0.687445
Si Si3 0.169434 0.134524 0.519387
Si Si4 0.176809 0.361463 0.382513
O O1 0.262842 0.849075 0.156436
O O2 0.214114 0.922099 0.058544
O O3 0.000000 0.928099 0.135779
O O4 0.234425 0.045989 0.142491
O O5 0.750000 0.250000 0.750000
O O6 0.000000 0.250000 0.688827
O O7 0.176539 0.250000 0.534947
O O8 0.191106 0.131337 0.451559
O O9 0.000000 0.099506 0.532646
O O10 0.225126 0.250000 0.366218
O O11 0.000000 0.370482 0.369956
#
# Coordination Sequence:
#
# PCOD9540649 Si02
#       4
#    16   8  16  16
#     4  12  23  35  55  85 118 152 190 238 295 348
#     4  12  26  46  68  88 112 144 190 246 299 352
#     4   9  17  31  52  78 112 158 202 238 280 339
#     4   9  19  35  55  81 115 160 205 237 277 339
#
# _framework density 19.749203999999999
#
# number of rings (size 3 to 8) (size 9 to 14) (size 15 to 20)
#    0.000    1.714    1.429    6.429    0.000    5.143 
#    0.000    2.857    0.000    0.857    0.000    0.000 
#    0.000    0.000    0.000    0.000    0.000    0.000 
#
# Total GULP energy -156395.081905 kJ/mol
# GULP energy per Si atom -5585.538639 kJ/mol
# Density = 1.970425 g / cm^3
# Si number density = 19.749204 Si / 1000 Ang^3
#
#
#
# Elastic Constant Matrix: (Units=GPa)
#
#
# Indices 1 2 3 4 5 6 
#
# 1 138.5403 89.2822 24.7684 0.0000 0.0000 0.0000
# 2 89.2822 185.3773 25.8277 0.0000 0.0000 0.0000
# 3 24.7684 25.8277 26.4174 0.0000 0.0000 0.0000
# 4 0.0000 0.0000 0.0000 8.4591 0.0000 0.0000
# 5 0.0000 0.0000 0.0000 0.0000 17.8090 0.0000
# 6 0.0000 0.0000 0.0000 0.0000 0.0000 21.0635
#
#
#
# Elastic Compliance Matrix: (Units=1/GPa)
#
#
# Indices 1 2 3 4 5 6 
#
# 1 0.011251 -0.004572 -0.006079 0.000000 0.000000 0.000000
# 2 -0.004572 0.008103 -0.003635 0.000000 0.000000 0.000000
# 3 -0.006079 -0.003635 0.047108 0.000000 0.000000 0.000000
# 4 0.000000 0.000000 0.000000 0.118216 0.000000 0.000000
# 5 0.000000 0.000000 0.000000 0.000000 0.056151 0.000000
# 6 0.000000 0.000000 0.000000 0.000000 0.000000 0.047475
#
#
# Mechanical properties :
#
#
# Convention : Reuss Voigt Hill
#
# Bulk Modulus (GPa) = 26.39289 70.01016 48.20152
# Shear Modulus (GPa) = 15.17416 23.49677 19.33547
#
# Velocity S-wave (km/s) = 2.77491 3.45303 3.13237
# Velocity P-wave (km/s) = 4.86414 7.17108 6.12716
#
# Compressibility (1/GPa) = 0.03788899
#
# Stress axis : x y z
#
# Youngs Moduli (GPa) = 88.87832 123.41306 21.22791
#
# Poissons Ratio (x) = 0.56424 0.12905
# Poissons Ratio (y) = 0.40635 0.07717
# Poissons Ratio (z) = 0.54030 0.44866
#
# Static dielectric constant tensor:
#      x y z
#    x 1.659800 0.000000 0.000000 
#    y 0.000000 1.750720 0.000000 
#    z 0.000000 0.000000 1.716790 
# 
# From -- ./inp_files/56285.got.cif
#   From: 2010.05.17/outbox.cif.g08.bks.cpg/sg74_29_cif.got.tgz:56285.got - 2010.06.03 17:57:02.
