data_PCOD9540827
_publ_section_title
;
Structure prediction by ZEFSAII (Michael W. Deem and Ramdas Pophale) SiO2 
 PCOD9540827
Probable space group: I M M A
;
_chemical_formula_sum "Si O2"
_cell_formula_units_Z 48
_cell_length_a 9.000000
_cell_length_b 27.000000
_cell_length_c 21.000000
_cell_angle_alpha 90.000000
_cell_angle_beta 90.000000
_cell_angle_gamma 90.000000
_cell_volume 5103.000000
_symmetry_space_group_name_H-M "I M M A"
_symmetry_group_IT_number 74
_symmetry_cell_setting 'orthorhombic'
loop_
_space_group_symop_operation_xyz
x,y,z
-x,1/2-y,z
x,-y,-z
-x,1/2+y,-z
-x,-y,-z
x,1/2+y,-z
-x,y,z
x,1/2-y,z
1/2+x,1/2+y,1/2+z
1/2-x,-y,1/2+z
1/2+x,1/2-y,1/2-z
1/2-x,y,1/2-z
1/2-x,1/2-y,1/2-z
1/2+x,y,1/2-z
1/2-x,1/2+y,1/2+z
1/2+x,-y,1/2+z
loop_
_atom_site_type_symbol
_atom_site_label
_atom_site_fract_x
_atom_site_fract_y
_atom_site_fract_z
Si Si1 0.681601 0.028643 0.061909
Si Si2 0.670223 0.190331 0.314011
Si Si3 0.679246 0.358452 0.066685
Si Si4 0.677624 0.025380 0.812695
Si Si5 0.818533 0.193962 0.560898
Si Si6 0.322171 0.641227 0.187106
O O1 0.500000 0.027571 0.060944
O O2 0.727088 0.085032 0.064252
O O3 0.731691 0.001200 0.124705
O O4 0.733493 0.000000 0.000000
O O5 0.500000 0.174375 0.314618
O O6 0.674219 0.250000 0.315521
O O7 0.750000 0.173442 0.250000
O O8 0.756581 0.169539 0.373614
O O9 0.500000 0.356771 0.069151
O O10 0.730484 0.332894 0.002317
O O11 0.500000 0.021472 0.808778
O O12 0.750000 0.003672 0.750000
O O13 0.715208 0.083284 0.816968
O O14 0.770307 0.250000 0.560227
O O15 0.767478 0.167234 0.624042
O O16 0.000000 0.192698 0.561370
O O17 0.500000 0.645342 0.190987
O O18 0.250000 0.662842 0.250000
#
# Coordination Sequence:
#
# PCOD9540827 Si02
#       6
#    16  16  16  16  16  16
#     4   9  17  30  50  75 100 129 168 208 244 289
#     4  10  21  37  56  77 103 135 169 207 253 307
#     4  10  19  32  53  78 102 131 168 210 253 298
#     4   9  17  30  48  69  94 124 157 194 235 281
#     4   9  17  29  47  71  97 125 159 199 242 290
#     4   9  17  30  48  69  94 126 162 199 240 286
#
# _framework density 9.4062319999999993
#
# number of rings (size 3 to 8) (size 9 to 14) (size 15 to 20)
#    0.000    2.667    0.000    2.000    0.000    6.667 
#    0.000    3.333    0.000    5.000    0.000    0.000 
#    0.000    0.000    0.000    0.000    0.000    0.000 
#
# Total GULP energy -267470.440075 kJ/mol
# GULP energy per Si atom -5572.300835 kJ/mol
# Density = 0.938482 g / cm^3
# Si number density = 9.406232 Si / 1000 Ang^3
#
#
#
# Elastic Constant Matrix: (Units=GPa)
#
#
# Indices 1 2 3 4 5 6 
#
# 1 -7.0955 32.8790 30.9711 0.0000 0.0000 0.0000
# 2 32.8790 42.3541 85.1145 0.0000 0.0000 0.0000
# 3 30.9711 85.1145 216.5603 -0.0001 0.0000 0.0000
# 4 0.0000 0.0000 -0.0001 54.7855 0.0000 0.0000
# 5 0.0000 0.0000 0.0000 0.0000 70.3888 0.0000
# 6 0.0000 0.0000 0.0000 0.0000 0.0000 8.5493
#
#
#
# Elastic Compliance Matrix: (Units=1/GPa)
#
#
# Indices 1 2 3 4 5 6 
#
# 1 -0.016753 0.038970 -0.012920 0.000000 0.000000 0.000000
# 2 0.038970 0.021690 -0.014098 0.000000 0.000000 0.000000
# 3 -0.012920 -0.014098 0.012006 0.000000 0.000000 0.000000
# 4 0.000000 0.000000 0.000000 0.018253 0.000000 0.000000
# 5 0.000000 0.000000 0.000000 0.000000 0.014207 0.000000
# 6 0.000000 0.000000 0.000000 0.000000 0.000000 0.116969
#
#
# Mechanical properties :
#
#
# Convention : Reuss Voigt Hill
#
# Bulk Modulus (GPa) = 24.48214 61.08314 42.78264
# Shear Modulus (GPa) = 32.03391 33.60166 32.81778
#
# Velocity S-wave (km/s) = 4.13098 4.23086 4.18122
# Velocity P-wave (km/s) = 5.98292 7.51045 6.78978
#
# Compressibility (1/GPa) = 0.04084610
#
# Stress axis : x y z
#
# Youngs Moduli (GPa) = -59.69105 46.10457 83.28936
#
# Poissons Ratio (x) = -1.79668 1.07613
# Poissons Ratio (y) = 2.32614 1.17421
# Poissons Ratio (z) = -0.77123 0.64998
#
# Static dielectric constant tensor:
#      x y z
#    x 1.631380 0.000000 0.000000 
#    y 0.000000 1.630490 0.000000 
#    z 0.000000 0.000000 1.607680 
# 
# From -- ./inp_files/49037.got.cif
#   From: 2010.05.17/outbox.ucp.g08.bks.cvg/sg74_25_cif.got.tgz:49037.got - 2010.06.11 16:37:44.
