data_PCOD9540028
_publ_section_title
;
Structure prediction by ZEFSAII (Michael W. Deem and Ramdas Pophale) SiO2 
 PCOD9540028
Probable space group: I M M A
;
_chemical_formula_sum "Si O2"
_cell_formula_units_Z 56
_cell_length_a 23.119744
_cell_length_b 13.408460
_cell_length_c 7.715376
_cell_angle_alpha 90.000000
_cell_angle_beta 90.000000
_cell_angle_gamma 90.000000
_cell_volume 2391.767815
_symmetry_space_group_name_H-M "I M M A"
_symmetry_group_IT_number 74
_symmetry_cell_setting 'orthorhombic'
loop_
_space_group_symop_operation_xyz
x,y,z
-x,1/2-y,z
x,-y,-z
-x,1/2+y,-z
-x,-y,-z
x,1/2+y,-z
-x,y,z
x,1/2-y,z
1/2+x,1/2+y,1/2+z
1/2-x,-y,1/2+z
1/2+x,1/2-y,1/2-z
1/2-x,y,1/2-z
1/2-x,1/2-y,1/2-z
1/2+x,y,1/2-z
1/2-x,1/2+y,1/2+z
1/2+x,-y,1/2+z
loop_
_atom_site_type_symbol
_atom_site_label
_atom_site_fract_x
_atom_site_fract_y
_atom_site_fract_z
Si Si1 0.064791 0.370906 0.122365
Si Si2 0.842228 0.632596 0.592029
Si Si3 0.856568 0.132097 0.807672
Si Si4 0.762410 0.000000 0.000000
O O1 0.062469 0.250000 0.137684
O O2 0.112431 0.402915 0.263434
O O3 0.000000 0.408537 0.151617
O O4 0.089041 0.391581 0.930498
O O5 0.832516 0.750000 0.619774
O O6 0.866110 0.618631 0.396665
O O7 0.781811 0.575804 0.591928
O O8 0.842914 0.250000 0.832879
O O9 0.803485 0.067534 0.880014
#
# Coordination Sequence:
#
# PCOD9540028 Si02
#       4
#    16  16  16   8
#     4   9  20  41  67  93 123 163 214 267 316 371
#     4  10  23  41  63  94 129 167 210 259 319 382
#     4  10  23  41  63  94 129 167 210 259 319 382
#     4  12  24  38  66  92 130 166 214 260 314 372
#
# _framework density 23.413643
#
# number of rings (size 3 to 8) (size 9 to 14) (size 15 to 20)
#    0.000    2.000    0.000    1.714    8.000    3.429 
#    0.000   11.429    0.000    0.000    0.000    0.000 
#    0.000    0.000    0.000    0.000    0.000    0.000 
#
# Total GULP energy -156856.943593 kJ/mol
# GULP energy per Si atom -5602.033700 kJ/mol
# Density = 2.336035 g / cm^3
# Si number density = 23.413643 Si / 1000 Ang^3
#
#
#
# Elastic Constant Matrix: (Units=GPa)
#
#
# Indices 1 2 3 4 5 6 
#
# 1 146.6440 25.4850 72.8744 0.0000 0.0000 0.0000
# 2 25.4850 96.1186 33.7852 0.0000 0.0000 0.0000
# 3 72.8744 33.7852 157.3395 0.0000 0.0000 0.0000
# 4 0.0000 0.0000 0.0000 38.6051 0.0000 0.0000
# 5 0.0000 0.0000 0.0000 0.0000 30.7749 0.0000
# 6 0.0000 0.0000 0.0000 0.0000 0.0000 35.5086
#
#
#
# Elastic Compliance Matrix: (Units=1/GPa)
#
#
# Indices 1 2 3 4 5 6 
#
# 1 0.008944 -0.000990 -0.003930 0.000000 0.000000 0.000000
# 2 -0.000990 0.011363 -0.001981 0.000000 0.000000 0.000000
# 3 -0.003930 -0.001981 0.008601 0.000000 0.000000 0.000000
# 4 0.000000 0.000000 0.000000 0.025903 0.000000 0.000000
# 5 0.000000 0.000000 0.000000 0.000000 0.032494 0.000000
# 6 0.000000 0.000000 0.000000 0.000000 0.000000 0.028162
#
#
# Mechanical properties :
#
#
# Convention : Reuss Voigt Hill
#
# Bulk Modulus (GPa) = 66.20124 73.82126 70.01125
# Shear Modulus (GPa) = 37.22832 38.84154 38.03493
#
# Velocity S-wave (km/s) = 3.99184 4.07741 4.03485
# Velocity P-wave (km/s) = 7.04148 7.33244 7.18843
#
# Compressibility (1/GPa) = 0.01510546
#
# Stress axis : x y z
#
# Youngs Moduli (GPa) = 111.80213 88.00679 116.25966
#
# Poissons Ratio (x) = 0.08714 0.45692
# Poissons Ratio (y) = 0.11070 0.23035
# Poissons Ratio (z) = 0.43940 0.17437
#
# Static dielectric constant tensor:
#      x y z
#    x 1.807500 0.000000 0.000000 
#    y 0.000000 1.965500 0.000000 
#    z 0.000000 0.000000 1.904580 
# 
# From -- ./inp_files/11638.got.cif
#   From: 2010.05.17/outbox.cif.g08.bks.cpg/sg74_6_cif.got.tgz:11638.got - 2010.06.03 17:57:02.
