data_PCOD9540802
_publ_section_title
;
Structure prediction by ZEFSAII (Michael W. Deem and Ramdas Pophale) SiO2 
 PCOD9540802
Probable space group: I M M A
;
_chemical_formula_sum "Si O2"
_cell_formula_units_Z 36
_cell_length_a 9.000000
_cell_length_b 30.000000
_cell_length_c 15.000000
_cell_angle_alpha 90.000000
_cell_angle_beta 90.000000
_cell_angle_gamma 90.000000
_cell_volume 4050.000000
_symmetry_space_group_name_H-M "I M M A"
_symmetry_group_IT_number 74
_symmetry_cell_setting 'orthorhombic'
loop_
_space_group_symop_operation_xyz
x,y,z
-x,1/2-y,z
x,-y,-z
-x,1/2+y,-z
-x,-y,-z
x,1/2+y,-z
-x,y,z
x,1/2-y,z
1/2+x,1/2+y,1/2+z
1/2-x,-y,1/2+z
1/2+x,1/2-y,1/2-z
1/2-x,y,1/2-z
1/2-x,1/2-y,1/2-z
1/2+x,y,1/2-z
1/2-x,1/2+y,1/2+z
1/2+x,-y,1/2+z
loop_
_atom_site_type_symbol
_atom_site_label
_atom_site_fract_x
_atom_site_fract_y
_atom_site_fract_z
Si Si1 0.178563 0.109110 0.980956
Si Si2 0.178635 0.250000 0.153136
Si Si3 0.822751 0.461788 0.652887
Si Si4 0.176962 0.299667 0.499925
Si Si5 0.177238 0.066814 0.347055
O O1 0.242554 0.071414 0.915001
O O2 0.000000 0.109723 0.980152
O O3 0.245356 0.157758 0.956790
O O4 0.242042 0.095995 0.078204
O O5 0.250000 0.250000 0.250000
O O6 0.243404 0.291445 0.095738
O O7 0.000000 0.250000 0.154990
O O8 0.750000 0.455655 0.750000
O O9 0.803094 0.514181 0.629435
O O10 0.000000 0.453143 0.654747
O O11 0.196258 0.250000 0.543294
O O12 0.000000 0.306911 0.490117
O O13 0.250000 0.073757 0.250000
O O14 0.000000 0.075697 0.344961
#
# Coordination Sequence:
#
# PCOD9540802 Si02
#       5
#    16   8  16  16  16
#     4  12  23  35  57  85 114 150 190 233 280 338
#     4  10  18  32  52  76 105 138 177 220 270 326
#     4  10  21  38  59  83 113 148 188 235 284 337
#     4   9  20  37  55  76 104 141 182 227 275 325
#     4  10  21  37  56  81 115 151 189 233 280 334
#
# _framework density 8.8888890000000007
#
# number of rings (size 3 to 8) (size 9 to 14) (size 15 to 20)
#    0.667    1.111    0.000    5.333    0.000    6.222 
#    0.000    4.444    0.000    0.667    0.000    0.000 
#    0.000    0.000    0.000    0.000    0.000    0.000 
#
# Total GULP energy -200841.763371 kJ/mol
# GULP energy per Si atom -5578.937871 kJ/mol
# Density = 0.886866 g / cm^3
# Si number density = 8.888889 Si / 1000 Ang^3
#
#
#
# Elastic Constant Matrix: (Units=GPa)
#
#
# Indices 1 2 3 4 5 6 
#
# 1 165.3922 59.3112 24.7273 -0.0001 0.0000 0.0000
# 2 59.3112 89.9151 29.4688 -0.0001 0.0000 0.0000
# 3 24.7273 29.4688 35.7161 -0.0006 0.0000 0.0000
# 4 -0.0001 -0.0001 -0.0006 15.3904 0.0000 0.0000
# 5 0.0000 0.0000 0.0000 0.0000 31.5413 0.0000
# 6 0.0000 0.0000 0.0000 0.0000 0.0000 32.2844
#
#
#
# Elastic Compliance Matrix: (Units=1/GPa)
#
#
# Indices 1 2 3 4 5 6 
#
# 1 0.007988 -0.004738 -0.001621 0.000000 0.000000 0.000000
# 2 -0.004738 0.018054 -0.011616 0.000000 0.000000 0.000000
# 3 -0.001621 -0.011616 0.038705 0.000001 0.000000 0.000000
# 4 0.000000 0.000000 0.000001 0.064976 0.000000 0.000000
# 5 0.000000 0.000000 0.000000 0.000000 0.031704 0.000000
# 6 0.000000 0.000000 0.000000 0.000000 0.000000 0.030975
#
#
# Mechanical properties :
#
#
# Convention : Reuss Voigt Hill
#
# Bulk Modulus (GPa) = 34.72571 57.55978 46.14274
# Shear Modulus (GPa) = 21.01294 27.67765 24.34530
#
# Velocity S-wave (km/s) = 3.44172 3.95000 3.70459
# Velocity P-wave (km/s) = 5.94723 7.29733 6.65659
#
# Compressibility (1/GPa) = 0.02879710
#
# Stress axis : x y z
#
# Youngs Moduli (GPa) = 125.19507 55.39057 25.83655
#
# Poissons Ratio (x) = 0.26242 0.04188
# Poissons Ratio (y) = 0.59312 0.30011
# Poissons Ratio (z) = 0.20296 0.64340
#
# Static dielectric constant tensor:
#      x y z
#    x 1.579230 0.000000 0.000000 
#    y 0.000000 1.642220 0.000000 
#    z 0.000000 0.000000 1.593070 
# 
# From -- ./inp_files/29410.got.cif
#   From: 2010.05.17/outbox.ucp.g08.bks.cvg/sg74_15_cif.got.tgz:29410.got - 2010.06.11 16:37:44.
