data_PCOD9540774
_publ_section_title
;
Structure prediction by ZEFSAII (Michael W. Deem and Ramdas Pophale) SiO2 
 PCOD9540774
Probable space group: I M M A
;
_chemical_formula_sum "Si O2"
_cell_formula_units_Z 96
_cell_length_a 7.359286
_cell_length_b 25.774851
_cell_length_c 23.065993
_cell_angle_alpha 90.000000
_cell_angle_beta 90.000000
_cell_angle_gamma 90.000000
_cell_volume 4375.261352
_symmetry_space_group_name_H-M "I M M A"
_symmetry_group_IT_number 74
_symmetry_cell_setting 'orthorhombic'
loop_
_space_group_symop_operation_xyz
x,y,z
-x,1/2-y,z
x,-y,-z
-x,1/2+y,-z
-x,-y,-z
x,1/2+y,-z
-x,y,z
x,1/2-y,z
1/2+x,1/2+y,1/2+z
1/2-x,-y,1/2+z
1/2+x,1/2-y,1/2-z
1/2-x,y,1/2-z
1/2-x,1/2-y,1/2-z
1/2+x,y,1/2-z
1/2-x,1/2+y,1/2+z
1/2+x,-y,1/2+z
loop_
_atom_site_type_symbol
_atom_site_label
_atom_site_fract_x
_atom_site_fract_y
_atom_site_fract_z
Si Si1 0.282238 0.473412 0.180816
Si Si2 0.721962 0.471663 0.940276
Si Si3 0.220410 0.750000 0.490232
Si Si4 0.284000 0.644450 0.817430
Si Si5 0.278407 0.355614 0.929351
Si Si6 0.221448 0.750000 0.623891
Si Si7 0.784180 0.191172 0.686013
O O1 0.500000 0.473245 0.177102
O O2 0.250000 0.487386 0.250000
O O3 0.220865 0.506459 0.123783
O O4 0.214943 0.413980 0.171211
O O5 0.500000 0.473533 0.939103
O O6 0.780220 0.412069 0.948188
O O7 0.777606 0.500000 0.000000
O O8 0.282586 0.696281 0.461940
O O9 0.266737 0.750000 0.556897
O O10 0.000000 0.750000 0.484267
O O11 0.500000 0.642218 0.829126
O O12 0.250000 0.653768 0.750000
O O13 0.213410 0.695634 0.849428
O O14 0.500000 0.356048 0.932811
O O15 0.219216 0.346408 0.863422
O O16 0.000000 0.750000 0.630080
O O17 0.710648 0.250000 0.681074
O O18 0.750000 0.171650 0.750000
O O19 0.000000 0.195533 0.678394
#
# Coordination Sequence:
#
# PCOD9540774 Si02
#       7
#    16  16   8  16  16   8  16
#     4   9  18  32  49  70  96 126 158 194 235 279
#     4   9  18  29  45  68  95 124 155 195 239 279
#     4   9  16  25  40  63  91 119 144 181 232 274
#     4   9  17  29  45  67  94 120 149 186 226 270
#     4   9  16  27  42  63  91 118 146 184 230 276
#     4   9  17  25  40  65  91 119 150 185 226 272
#     4   9  16  27  43  65  90 116 146 181 222 268
#
# _framework density 21.941547
#
# number of rings (size 3 to 8) (size 9 to 14) (size 15 to 20)
#    0.000    3.000    0.833    0.250    2.333    0.667 
#    0.000    0.000    0.000    0.500    0.000    2.333 
#    0.000    0.000    0.000    0.000    0.000    0.000 
#
# Total GULP energy -267467.837139 kJ/mol
# GULP energy per Si atom -5572.246607 kJ/mol
# Density = 2.189161 g / cm^3
# Si number density = 21.941547 Si / 1000 Ang^3
#
#
#
# Elastic Constant Matrix: (Units=GPa)
#
#
# Indices 1 2 3 4 5 6 
#
# 1 79.5515 4.7017 -1.8079 0.0000 0.0000 0.0000
# 2 4.7017 189.7962 130.7057 0.0000 0.0000 0.0000
# 3 -1.8079 130.7057 154.7241 0.0000 0.0000 0.0000
# 4 0.0000 0.0000 0.0000 -30.8797 0.0000 0.0000
# 5 0.0000 0.0000 0.0000 0.0000 15.5891 0.0000
# 6 0.0000 0.0000 0.0000 0.0000 0.0000 5.8889
#
#
#
# Elastic Compliance Matrix: (Units=1/GPa)
#
#
# Indices 1 2 3 4 5 6 
#
# 1 0.012652 -0.000993 0.000986 0.000000 0.000000 0.000000
# 2 -0.000993 0.012675 -0.010719 0.000000 0.000000 0.000000
# 3 0.000986 -0.010719 0.015530 0.000000 0.000000 0.000000
# 4 0.000000 0.000000 0.000000 -0.032384 0.000000 0.000000
# 5 0.000000 0.000000 0.000000 0.000000 0.064147 0.000000
# 6 0.000000 0.000000 0.000000 0.000000 0.000000 0.169810
#
#
# Mechanical properties :
#
#
# Convention : Reuss Voigt Hill
#
# Bulk Modulus (GPa) = 51.53124 76.80786 64.16955
# Shear Modulus (GPa) = 18.49448 17.48448 17.98948
#
# Velocity S-wave (km/s) = 2.90642 2.82594 2.86646
# Velocity P-wave (km/s) = 5.89913 6.76237 6.34544
#
# Compressibility (1/GPa) = 0.01940570
#
# Stress axis : x y z
#
# Youngs Moduli (GPa) = 79.04155 78.89271 64.39145
#
# Poissons Ratio (x) = 0.07832 -0.06352
# Poissons Ratio (y) = 0.07847 0.69024
# Poissons Ratio (z) = -0.07797 0.84568
#
# Static dielectric constant tensor:
#      x y z
#    x 1.866700 0.000000 0.000000 
#    y 0.000000 1.829690 0.000000 
#    z 0.000000 0.000000 1.774820 
# 
# From -- ./inp_files/41669.got.cif
#   From: 2010.05.17/outbox.cif.g08.bks.cpg/sg74_21_cif.got.tgz:41669.got - 2010.06.03 17:57:02.
