data_PCOD9540332
_publ_section_title
;
Structure prediction by ZEFSAII (Michael W. Deem and Ramdas Pophale) SiO2 
 PCOD9540332
Probable space group: I M M A
;
_chemical_formula_sum "Si O2"
_cell_formula_units_Z 72
_cell_length_a 15.137420
_cell_length_b 15.200683
_cell_length_c 15.420176
_cell_angle_alpha 90.000000
_cell_angle_beta 90.000000
_cell_angle_gamma 90.000000
_cell_volume 3548.168972
_symmetry_space_group_name_H-M "I M M A"
_symmetry_group_IT_number 74
_symmetry_cell_setting 'orthorhombic'
loop_
_space_group_symop_operation_xyz
x,y,z
-x,1/2-y,z
x,-y,-z
-x,1/2+y,-z
-x,-y,-z
x,1/2+y,-z
-x,y,z
x,1/2-y,z
1/2+x,1/2+y,1/2+z
1/2-x,-y,1/2+z
1/2+x,1/2-y,1/2-z
1/2-x,y,1/2-z
1/2-x,1/2-y,1/2-z
1/2+x,y,1/2-z
1/2-x,1/2+y,1/2+z
1/2+x,-y,1/2+z
loop_
_atom_site_type_symbol
_atom_site_label
_atom_site_fract_x
_atom_site_fract_y
_atom_site_fract_z
Si Si1 0.345915 0.250000 0.704874
Si Si2 0.595644 0.092309 0.811828
Si Si3 0.210993 0.088476 0.063215
Si Si4 0.606036 0.750000 0.489703
Si Si5 0.750000 0.470090 0.250000
Si Si6 0.096504 0.393227 0.494285
O O1 0.250000 0.250000 0.750000
O O2 0.396307 0.335302 0.738313
O O3 0.344561 0.250000 0.602699
O O4 0.500000 0.047725 0.809023
O O5 0.603037 0.136823 0.905928
O O6 0.675876 0.027597 0.797769
O O7 0.140291 0.161160 0.035191
O O8 0.203225 0.073481 0.166725
O O9 0.310981 0.126418 0.050743
O O10 0.204191 0.000000 0.000000
O O11 0.500000 0.750000 0.479471
O O12 0.093599 0.500000 0.500000
O O13 0.000000 0.364806 0.459316
#
# Coordination Sequence:
#
# PCOD9540332 Si02
#       6
#     8  16  16   8   8  16
#     4  12  22  38  63  93 133 169 215 273 336 401
#     4  11  21  35  59  93 127 164 212 270 333 393
#     4  11  23  43  68  95 131 175 219 274 334 395
#     4  12  28  47  64  92 140 182 223 276 323 392
#     4  12  22  38  66  92 122 172 228 269 322 393
#     4   9  17  35  60  89 127 162 200 262 330 386
#
# _framework density 20.292157
#
# number of rings (size 3 to 8) (size 9 to 14) (size 15 to 20)
#    0.000    1.111    5.556    3.667    0.000    1.778 
#    0.000    1.667    0.000    0.000    0.000    0.000 
#    0.000    0.000    0.000    0.000    0.000    0.000 
#
# Total GULP energy -200772.098070 kJ/mol
# GULP energy per Si atom -5577.002724 kJ/mol
# Density = 2.024597 g / cm^3
# Si number density = 20.292157 Si / 1000 Ang^3
#
#
#
# Elastic Constant Matrix: (Units=GPa)
#
#
# Indices 1 2 3 4 5 6 
#
# 1 135.7436 16.0232 -3.8958 0.0000 0.0000 0.0000
# 2 16.0232 61.6420 32.0448 0.0000 0.0000 0.0000
# 3 -3.8958 32.0448 103.6916 0.0000 0.0000 0.0000
# 4 0.0000 0.0000 0.0000 22.0188 0.0000 0.0000
# 5 0.0000 0.0000 0.0000 0.0000 23.3097 0.0000
# 6 0.0000 0.0000 0.0000 0.0000 0.0000 25.2561
#
#
#
# Elastic Compliance Matrix: (Units=1/GPa)
#
#
# Indices 1 2 3 4 5 6 
#
# 1 0.007701 -0.002564 0.001082 0.000000 0.000000 0.000000
# 2 -0.002564 0.020182 -0.006333 0.000000 0.000000 0.000000
# 3 0.001082 -0.006333 0.011642 0.000000 0.000000 0.000000
# 4 0.000000 0.000000 0.000000 0.045416 0.000000 0.000000
# 5 0.000000 0.000000 0.000000 0.000000 0.042901 0.000000
# 6 0.000000 0.000000 0.000000 0.000000 0.000000 0.039594
#
#
# Mechanical properties :
#
#
# Convention : Reuss Voigt Hill
#
# Bulk Modulus (GPa) = 41.85352 43.26907 42.56130
# Shear Modulus (GPa) = 26.17390 31.24392 28.70891
#
# Velocity S-wave (km/s) = 3.59535 3.92816 3.76543
# Velocity P-wave (km/s) = 6.15675 6.47636 6.31858
#
# Compressibility (1/GPa) = 0.02389285
#
# Stress axis : x y z
#
# Youngs Moduli (GPa) = 129.86119 49.55021 85.89707
#
# Poissons Ratio (x) = 0.12705 -0.09291
# Poissons Ratio (y) = 0.33296 0.54401
# Poissons Ratio (z) = -0.14047 0.31381
#
# Static dielectric constant tensor:
#      x y z
#    x 1.776260 0.000000 0.000000 
#    y 0.000000 1.768180 0.000000 
#    z 0.000000 0.000000 1.773370 
# 
# From -- ./inp_files/31978.got.cif
#   From: 2010.05.17/outbox.cif.g08.bks.cpg/sg74_16_cif.got.tgz:31978.got - 2010.06.03 17:57:02.
