data_PCOD9540089
_publ_section_title
;
Structure prediction by ZEFSAII (Michael W. Deem and Ramdas Pophale) SiO2 
 PCOD9540089
Probable space group: I M M A
;
_chemical_formula_sum "Si O2"
_cell_formula_units_Z 48
_cell_length_a 21.458834
_cell_length_b 18.405293
_cell_length_c 4.978349
_cell_angle_alpha 90.000000
_cell_angle_beta 90.000000
_cell_angle_gamma 90.000000
_cell_volume 1966.229441
_symmetry_space_group_name_H-M "I M M A"
_symmetry_group_IT_number 74
_symmetry_cell_setting 'orthorhombic'
loop_
_space_group_symop_operation_xyz
x,y,z
-x,1/2-y,z
x,-y,-z
-x,1/2+y,-z
-x,-y,-z
x,1/2+y,-z
-x,y,z
x,1/2-y,z
1/2+x,1/2+y,1/2+z
1/2-x,-y,1/2+z
1/2+x,1/2-y,1/2-z
1/2-x,y,1/2-z
1/2-x,1/2-y,1/2-z
1/2+x,y,1/2-z
1/2-x,1/2+y,1/2+z
1/2+x,-y,1/2+z
loop_
_atom_site_type_symbol
_atom_site_label
_atom_site_fract_x
_atom_site_fract_y
_atom_site_fract_z
Si Si1 0.568274 0.331286 0.569718
Si Si2 0.869842 0.449612 0.248694
Si Si3 0.309139 0.668381 0.058466
O O1 0.500000 0.337676 0.699992
O O2 0.571367 0.250000 0.447033
O O3 0.576827 0.395531 0.357279
O O4 0.626866 0.336308 0.769071
O O5 0.887414 0.500000 0.500000
O O6 0.816286 0.394673 0.343256
O O7 0.851078 0.500000 0.000000
O O8 0.306094 0.750000 0.943276
O O9 0.250000 0.658810 0.250000
#
# Coordination Sequence:
#
# PCOD9540089 Si02
#       3
#    16  16  16
#     4  10  23  46  74 104 143 195 254 308 362 433
#     4  12  25  48  71 108 151 196 235 304 371 444
#     4  10  23  48  79 109 146 195 253 306 360 432
#
# _framework density 24.412206999999999
#
# number of rings (size 3 to 8) (size 9 to 14) (size 15 to 20)
#    0.000    1.333    3.333    1.000    0.000    4.000 
#    6.000    8.333    0.000    0.000    0.000    0.000 
#    0.000    0.000    0.000    0.000    0.000    0.000 
#
# Total GULP energy -134383.381532 kJ/mol
# GULP energy per Si atom -5599.307564 kJ/mol
# Density = 2.435664 g / cm^3
# Si number density = 24.412207 Si / 1000 Ang^3
#
#
#
# Elastic Constant Matrix: (Units=GPa)
#
#
# Indices 1 2 3 4 5 6 
#
# 1 199.6178 52.6111 56.1095 0.0000 0.0000 0.0000
# 2 52.6111 218.0032 92.0059 0.0000 0.0000 0.0000
# 3 56.1095 92.0059 122.6496 0.0000 0.0000 0.0000
# 4 0.0000 0.0000 0.0000 1824.4169 0.0000 0.0000
# 5 0.0000 0.0000 0.0000 0.0000 29.5824 0.0000
# 6 0.0000 0.0000 0.0000 0.0000 0.0000 767.1299
#
#
#
# Elastic Compliance Matrix: (Units=1/GPa)
#
#
# Indices 1 2 3 4 5 6 
#
# 1 0.005773 -0.000408 -0.002335 0.000000 0.000000 0.000000
# 2 -0.000408 0.006741 -0.004870 0.000000 0.000000 0.000000
# 3 -0.002335 -0.004870 0.012875 0.000000 0.000000 0.000000
# 4 0.000000 0.000000 0.000000 0.000548 0.000000 0.000000
# 5 0.000000 0.000000 0.000000 0.000000 0.033804 0.000000
# 6 0.000000 0.000000 0.000000 0.000000 0.000000 0.001304
#
#
# Mechanical properties :
#
#
# Convention : Reuss Voigt Hill
#
# Bulk Modulus (GPa) = 98.39726 104.63594 101.51660
# Shear Modulus (GPa) = 62.76739 546.86211 304.81475
#
# Velocity S-wave (km/s) = 5.07615 14.98326 11.18627
# Velocity P-wave (km/s) = 8.64584 18.50097 14.44016
#
# Compressibility (1/GPa) = 0.01016289
#
# Stress axis : x y z
#
# Youngs Moduli (GPa) = 173.20604 148.34853 77.66942
#
# Poissons Ratio (x) = 0.06048 0.18139
# Poissons Ratio (y) = 0.07061 0.37826
# Poissons Ratio (z) = 0.40451 0.72248
#
# Static dielectric constant tensor:
#      x y z
#    x 1.936580 0.000000 0.000000 
#    y 0.000000 1.949090 0.000000 
#    z 0.000000 0.000000 1.985370 
# 
# From -- ./inp_files/2672.got.cif
#   From: 2010.05.17/outbox.cif.g08.bks.cpg/sg74_2_cif.got.tgz:2672.got - 2010.06.03 17:57:02.
