data_PCOD9540586
_publ_section_title
;
Structure prediction by ZEFSAII (Michael W. Deem and Ramdas Pophale) SiO2 
 PCOD9540586
Probable space group: I M M A
;
_chemical_formula_sum "Si O2"
_cell_formula_units_Z 72
_cell_length_a 12.800423
_cell_length_b 28.730753
_cell_length_c 9.078936
_cell_angle_alpha 90.000000
_cell_angle_beta 90.000000
_cell_angle_gamma 90.000000
_cell_volume 3338.922084
_symmetry_space_group_name_H-M "I M M A"
_symmetry_group_IT_number 74
_symmetry_cell_setting 'orthorhombic'
loop_
_space_group_symop_operation_xyz
x,y,z
-x,1/2-y,z
x,-y,-z
-x,1/2+y,-z
-x,-y,-z
x,1/2+y,-z
-x,y,z
x,1/2-y,z
1/2+x,1/2+y,1/2+z
1/2-x,-y,1/2+z
1/2+x,1/2-y,1/2-z
1/2-x,y,1/2-z
1/2-x,1/2-y,1/2-z
1/2+x,y,1/2-z
1/2-x,1/2+y,1/2+z
1/2+x,-y,1/2+z
loop_
_atom_site_type_symbol
_atom_site_label
_atom_site_fract_x
_atom_site_fract_y
_atom_site_fract_z
Si Si1 0.324469 0.101789 0.992372
Si Si2 0.272862 0.799972 0.424567
Si Si3 0.500000 0.606824 0.759529
Si Si4 0.000000 0.493282 0.253277
Si Si5 0.680016 0.500000 0.000000
Si Si6 0.500000 0.406733 0.742057
Si Si7 0.000000 0.674103 0.005772
O O1 0.263359 0.150108 0.986538
O O2 0.400092 0.099354 0.849514
O O3 0.399824 0.105612 0.133552
O O4 0.266555 0.051111 0.994522
O O5 0.225911 0.750000 0.477169
O O6 0.250000 0.801945 0.250000
O O7 0.394702 0.798846 0.461034
O O8 0.500000 0.556725 0.679171
O O9 0.500000 0.650741 0.654481
O O10 0.101269 0.496145 0.360934
O O11 0.000000 0.542035 0.172444
O O12 0.500000 0.368149 0.620625
#
# Coordination Sequence:
#
# PCOD9540586 Si02
#       7
#    16  16   8   8   8   8   8
#     4   9  17  38  62  90 116 165 202 236 289 365
#     4  11  24  42  65  88 115 154 207 260 298 345
#     4   9  20  35  60  90 131 156 191 238 300 358
#     4   7  12  27  50  87 119 160 192 235 287 343
#     4   7  12  26  60  85 116 154 202 235 282 345
#     4   9  16  31  61  87 120 157 206 245 286 340
#     4  12  23  39  57  90 122 150 193 261 305 349
#
# _framework density 21.563845000000001
#
# number of rings (size 3 to 8) (size 9 to 14) (size 15 to 20)
#    0.000    2.667    2.222    3.000    0.000    1.333 
#    0.000    7.778    0.000    0.000    0.000    0.000 
#    0.000    0.000    0.000    0.000    0.000    0.000 
#
# Total GULP energy -200661.012833 kJ/mol
# GULP energy per Si atom -5573.917023 kJ/mol
# Density = 2.151476 g / cm^3
# Si number density = 21.563845 Si / 1000 Ang^3
#
#
#
# Elastic Constant Matrix: (Units=GPa)
#
#
# Indices 1 2 3 4 5 6 
#
# 1 60.9741 59.5575 8.5479 -0.0006 -0.0001 0.0000
# 2 59.5575 243.2527 31.3014 0.0002 0.0000 0.0000
# 3 8.5479 31.3014 64.4954 -0.0030 -0.0001 0.0006
# 4 -0.0006 0.0002 -0.0030 -236.9311 -0.0005 -0.0006
# 5 -0.0001 0.0000 -0.0001 -0.0005 17.0999 0.0001
# 6 0.0000 0.0000 0.0006 -0.0006 0.0001 23.4735
#
#
#
# Elastic Compliance Matrix: (Units=1/GPa)
#
#
# Indices 1 2 3 4 5 6 
#
# 1 0.021561 -0.005238 -0.000315 0.000000 0.000000 0.000000
# 2 -0.005238 0.005658 -0.002051 0.000000 0.000000 0.000000
# 3 -0.000315 -0.002051 0.016542 0.000000 0.000000 0.000000
# 4 0.000000 0.000000 0.000000 -0.004221 0.000000 0.000000
# 5 0.000000 0.000000 0.000000 0.000000 0.058480 0.000000
# 6 0.000000 0.000000 0.000000 0.000000 0.000000 0.042601
#
#
# Mechanical properties :
#
#
# Convention : Reuss Voigt Hill
#
# Bulk Modulus (GPa) = 35.02519 63.05955 49.04237
# Shear Modulus (GPa) = 30.23903 -21.31719 4.46092
#
# Velocity S-wave (km/s) = 3.74879 -3.14755 1.43986
# Velocity P-wave (km/s) = 5.91741 4.01214 5.05534
#
# Compressibility (1/GPa) = 0.02855088
#
# Stress axis : x y z
#
# Youngs Moduli (GPa) = 46.37918 176.75618 60.45074
#
# Poissons Ratio (x) = 0.92593 0.01906
# Poissons Ratio (y) = 0.24296 0.12401
# Poissons Ratio (z) = 0.01462 0.36261
#
# Static dielectric constant tensor:
#      x y z
#    x 1.790540 0.000000 0.000000 
#    y 0.000000 1.845380 0.000000 
#    z 0.000000 0.000000 1.764130 
# 
# From -- ./inp_files/9233.got.cif
#   From: 2010.05.17/outbox.cif.g08.bks.cpg/sg74_5_cif.got.tgz:9233.got - 2010.06.03 17:57:02.
