data_PCOD9540007
_publ_section_title
;
Structure prediction by ZEFSAII (Michael W. Deem and Ramdas Pophale) SiO2 
 PCOD9540007
Probable space group: I M M A
;
_chemical_formula_sum "Si O2"
_cell_formula_units_Z 56
_cell_length_a 9.838986
_cell_length_b 15.316000
_cell_length_c 18.702325
_cell_angle_alpha 90.000000
_cell_angle_beta 90.000000
_cell_angle_gamma 90.000000
_cell_volume 2818.326472
_symmetry_space_group_name_H-M "I M M A"
_symmetry_group_IT_number 74
_symmetry_cell_setting 'orthorhombic'
loop_
_space_group_symop_operation_xyz
x,y,z
-x,1/2-y,z
x,-y,-z
-x,1/2+y,-z
-x,-y,-z
x,1/2+y,-z
-x,y,z
x,1/2-y,z
1/2+x,1/2+y,1/2+z
1/2-x,-y,1/2+z
1/2+x,1/2-y,1/2-z
1/2-x,y,1/2-z
1/2-x,1/2-y,1/2-z
1/2+x,y,1/2-z
1/2-x,1/2+y,1/2+z
1/2+x,-y,1/2+z
loop_
_atom_site_type_symbol
_atom_site_label
_atom_site_fract_x
_atom_site_fract_y
_atom_site_fract_z
Si Si1 0.153056 0.069116 0.311511
Si Si2 0.000000 0.898121 0.287585
Si Si3 0.297380 0.750000 0.462928
Si Si4 0.848017 0.920838 0.945147
Si Si5 0.500000 0.750000 0.093470
Si Si6 0.500000 0.750000 0.332520
O O1 0.250000 0.106089 0.250000
O O2 0.232930 0.077683 0.385275
O O3 0.000000 0.107260 0.313927
O O4 0.124048 0.966574 0.293782
O O5 0.000000 0.835753 0.218247
O O6 0.000000 0.834096 0.355025
O O7 0.340400 0.665976 0.507821
O O8 0.371067 0.750000 0.385728
O O9 0.136444 0.750000 0.451956
O O10 0.000000 0.928714 0.912472
O O11 0.829538 0.000000 0.000000
#
# Coordination Sequence:
#
# PCOD9540007 Si02
#       6
#    16   8   8  16   4   4
#     4  10  23  39  65  93 129 172 226 276 332 402
#     4   9  24  37  64  96 140 176 216 276 337 420
#     4  12  26  43  63 102 138 182 223 286 335 419
#     4  11  24  42  67  95 133 183 230 282 340 407
#     4  11  24  34  60  94 135 178 210 270 347 392
#     4  11  24  40  66  98 145 176 220 274 361 414
#
# _framework density 19.869948000000001
#
# number of rings (size 3 to 8) (size 9 to 14) (size 15 to 20)
#    0.857    0.571    1.429    2.571   10.000    1.714 
#    0.000    0.714    0.000    0.000    0.000    0.000 
#    0.000    0.000    0.000    0.000    0.000    0.000 
#
# Total GULP energy -156313.378268 kJ/mol
# GULP energy per Si atom -5582.620652 kJ/mol
# Density = 1.982472 g / cm^3
# Si number density = 19.869948 Si / 1000 Ang^3
#
#
#
# Elastic Constant Matrix: (Units=GPa)
#
#
# Indices 1 2 3 4 5 6 
#
# 1 169.7281 7.7804 68.6666 0.0000 0.0000 0.0000
# 2 7.7804 83.7252 36.5439 0.0000 0.0000 0.0000
# 3 68.6666 36.5439 102.8286 0.0000 0.0000 0.0000
# 4 0.0000 0.0000 0.0000 26.0076 0.0000 0.0000
# 5 0.0000 0.0000 0.0000 0.0000 52.8949 0.0000
# 6 0.0000 0.0000 0.0000 0.0000 0.0000 25.3367
#
#
#
# Elastic Compliance Matrix: (Units=1/GPa)
#
#
# Indices 1 2 3 4 5 6 
#
# 1 0.008336 0.001959 -0.006262 0.000000 0.000000 0.000000
# 2 0.001959 0.014597 -0.006496 0.000000 0.000000 0.000000
# 3 -0.006262 -0.006496 0.016215 0.000000 0.000000 0.000000
# 4 0.000000 0.000000 0.000000 0.038450 0.000000 0.000000
# 5 0.000000 0.000000 0.000000 0.000000 0.018905 0.000000
# 6 0.000000 0.000000 0.000000 0.000000 0.000000 0.039468
#
#
# Mechanical properties :
#
#
# Convention : Reuss Voigt Hill
#
# Bulk Modulus (GPa) = 56.98222 64.69596 60.83909
# Shear Modulus (GPa) = 30.59597 37.06724 33.83161
#
# Velocity S-wave (km/s) = 3.92830 4.32382 4.13080
# Velocity P-wave (km/s) = 7.02248 7.58667 7.31002
#
# Compressibility (1/GPa) = 0.01754933
#
# Stress axis : x y z
#
# Youngs Moduli (GPa) = 119.96782 68.50734 61.67020
#
# Poissons Ratio (x) = -0.13419 0.38621
# Poissons Ratio (y) = -0.23499 0.40058
# Poissons Ratio (z) = 0.75129 0.44500
#
# Static dielectric constant tensor:
#      x y z
#    x 1.724200 0.000000 0.000000 
#    y 0.000000 1.677520 0.000000 
#    z 0.000000 0.000000 1.651320 
# 
# From -- ./inp_files/38926.got.cif
#   From: 2010.05.17/outbox.cif.g08.bks.cpg/sg74_20_cif.got.tgz:38926.got - 2010.06.03 17:57:02.
