data_PCOD9540044
_publ_section_title
;
Structure prediction by ZEFSAII (Michael W. Deem and Ramdas Pophale) SiO2 
 PCOD9540044
Probable space group: I M M A
;
_chemical_formula_sum "Si O2"
_cell_formula_units_Z 84
_cell_length_a 17.724043
_cell_length_b 17.774748
_cell_length_c 12.067886
_cell_angle_alpha 90.000000
_cell_angle_beta 90.000000
_cell_angle_gamma 90.000000
_cell_volume 3801.871607
_symmetry_space_group_name_H-M "I M M A"
_symmetry_group_IT_number 74
_symmetry_cell_setting 'orthorhombic'
loop_
_space_group_symop_operation_xyz
x,y,z
-x,1/2-y,z
x,-y,-z
-x,1/2+y,-z
-x,-y,-z
x,1/2+y,-z
-x,y,z
x,1/2-y,z
1/2+x,1/2+y,1/2+z
1/2-x,-y,1/2+z
1/2+x,1/2-y,1/2-z
1/2-x,y,1/2-z
1/2-x,1/2-y,1/2-z
1/2+x,y,1/2-z
1/2-x,1/2+y,1/2+z
1/2+x,-y,1/2+z
loop_
_atom_site_type_symbol
_atom_site_label
_atom_site_fract_x
_atom_site_fract_y
_atom_site_fract_z
Si Si1 0.085570 0.165834 0.376276
Si Si2 0.144322 0.569796 0.434914
Si Si3 0.714204 0.165014 0.572554
Si Si4 0.662498 0.527299 0.293995
Si Si5 0.000000 0.250000 0.093581
Si Si6 0.363815 0.365035 0.358996
O O1 0.098955 0.250000 0.419802
O O2 0.091006 0.106119 0.473897
O O3 0.140062 0.152187 0.272331
O O4 0.000000 0.164896 0.330150
O O5 0.183353 0.500000 0.500000
O O6 0.202215 0.635562 0.403326
O O7 0.115063 0.538721 0.318734
O O8 0.700814 0.250000 0.608897
O O9 0.663087 0.102806 0.633336
O O10 0.703248 0.158509 0.440520
O O11 0.750000 0.513931 0.250000
O O12 0.633718 0.455405 0.360316
O O13 0.066339 0.315953 0.097122
#
# Coordination Sequence:
#
# PCOD9540044 Si02
#       6
#    16  16  16  16   4  16
#     4  11  22  39  62  89 127 168 212 264 321 389
#     4  11  22  39  62  95 128 166 207 267 325 387
#     4  11  23  40  66  94 128 167 214 269 328 389
#     4  10  23  42  65  95 133 167 212 270 328 389
#     4  12  24  44  68  90 138 172 214 280 324 374
#     4  12  21  42  65  92 125 169 216 264 324 379
#
# _framework density 22.094383000000001
#
# number of rings (size 3 to 8) (size 9 to 14) (size 15 to 20)
#    0.000    0.952    4.762    3.429    0.000    4.571 
#    1.714    4.286    0.000    0.000    0.000    0.000 
#    0.000    0.000    0.000    0.000    0.000    0.000 
#
# Total GULP energy -233858.377126 kJ/mol
# GULP energy per Si atom -5568.056598 kJ/mol
# Density = 2.204409 g / cm^3
# Si number density = 22.094383 Si / 1000 Ang^3
#
#
#
# Elastic Constant Matrix: (Units=GPa)
#
#
# Indices 1 2 3 4 5 6 
#
# 1 17.7640 24.6744 3.8431 0.0000 0.0000 0.0000
# 2 24.6744 205.7253 32.5334 0.0000 0.0000 0.0000
# 3 3.8431 32.5334 72.8949 0.0000 0.0000 0.0000
# 4 0.0000 0.0000 0.0000 16.7726 0.0000 0.0000
# 5 0.0000 0.0000 0.0000 0.0000 18.7115 0.0000
# 6 0.0000 0.0000 0.0000 0.0000 0.0000 23.6236
#
#
#
# Elastic Compliance Matrix: (Units=1/GPa)
#
#
# Indices 1 2 3 4 5 6 
#
# 1 0.067547 -0.008111 0.000059 0.000000 0.000000 0.000000
# 2 -0.008111 0.006204 -0.002341 0.000000 0.000000 0.000000
# 3 0.000059 -0.002341 0.014760 0.000000 0.000000 0.000000
# 4 0.000000 0.000000 0.000000 0.059621 0.000000 0.000000
# 5 0.000000 0.000000 0.000000 0.000000 0.053443 0.000000
# 6 0.000000 0.000000 0.000000 0.000000 0.000000 0.042331
#
#
# Mechanical properties :
#
#
# Convention : Reuss Voigt Hill
#
# Bulk Modulus (GPa) = 14.76571 46.49846 30.63209
# Shear Modulus (GPa) = 17.40542 27.51044 22.45793
#
# Velocity S-wave (km/s) = 2.80978 3.53247 3.19165
# Velocity P-wave (km/s) = 4.15018 6.14238 5.24180
#
# Compressibility (1/GPa) = 0.06772449
#
# Stress axis : x y z
#
# Youngs Moduli (GPa) = 14.80451 161.18919 67.74987
#
# Poissons Ratio (x) = 1.30737 -0.00398
# Poissons Ratio (y) = 0.12008 0.15862
# Poissons Ratio (z) = -0.00087 0.37738
#
# Static dielectric constant tensor:
#      x y z
#    x 1.816640 0.000000 0.000000 
#    y 0.000000 1.839990 0.000000 
#    z 0.000000 0.000000 1.851910 
# 
# From -- ./inp_files/23611.got.cif
#   From: 2010.05.17/outbox.cif.g08.bks.cpg/sg74_12_cif.got.tgz:23611.got - 2010.06.03 17:57:02.
