data_PCOD9540259
_publ_section_title
;
Structure prediction by ZEFSAII (Michael W. Deem and Ramdas Pophale) SiO2 
 PCOD9540259
Probable space group: I M M A
;
_chemical_formula_sum "Si O2"
_cell_formula_units_Z 96
_cell_length_a 17.593442
_cell_length_b 19.678299
_cell_length_c 14.792657
_cell_angle_alpha 90.000000
_cell_angle_beta 90.000000
_cell_angle_gamma 90.000000
_cell_volume 5121.351167
_symmetry_space_group_name_H-M "I M M A"
_symmetry_group_IT_number 74
_symmetry_cell_setting 'orthorhombic'
loop_
_space_group_symop_operation_xyz
x,y,z
-x,1/2-y,z
x,-y,-z
-x,1/2+y,-z
-x,-y,-z
x,1/2+y,-z
-x,y,z
x,1/2-y,z
1/2+x,1/2+y,1/2+z
1/2-x,-y,1/2+z
1/2+x,1/2-y,1/2-z
1/2-x,y,1/2-z
1/2-x,1/2-y,1/2-z
1/2+x,y,1/2-z
1/2-x,1/2+y,1/2+z
1/2+x,-y,1/2+z
loop_
_atom_site_type_symbol
_atom_site_label
_atom_site_fract_x
_atom_site_fract_y
_atom_site_fract_z
Si Si1 0.734492 0.581674 0.991825
Si Si2 0.090769 0.250000 0.090037
Si Si3 0.091093 0.501058 0.750804
Si Si4 0.581769 0.932207 0.058054
Si Si5 0.816654 0.618164 0.173176
Si Si6 0.182861 0.630834 0.813769
Si Si7 0.408701 0.250000 0.628066
O O1 0.771975 0.597928 0.897305
O O2 0.733186 0.500000 0.000000
O O3 0.648473 0.607319 0.008170
O O4 0.779591 0.613505 0.074849
O O5 0.127549 0.314364 0.140854
O O6 0.000000 0.250000 0.100019
O O7 0.106312 0.250000 0.981300
O O8 0.104182 0.462098 0.655655
O O9 0.130481 0.448368 0.818540
O O10 0.134530 0.572544 0.761714
O O11 0.000000 0.508930 0.762263
O O12 0.500000 0.897037 0.064962
O O13 0.572425 0.000000 0.000000
O O14 0.750000 0.618427 0.250000
O O15 0.869708 0.684423 0.173684
O O16 0.250000 0.659154 0.750000
O O17 0.500000 0.250000 0.639738
#
# Coordination Sequence:
#
# PCOD9540259 Si02
#       7
#    16   8  16  16  16  16   8
#     4  11  20  35  60  91 123 152 197 244 293 351
#     4  11  25  44  62  85 120 160 200 246 303 357
#     4  11  22  37  61  93 123 155 196 245 301 352
#     4   9  18  33  54  85 124 159 190 239 299 352
#     4  12  22  40  62  91 120 156 200 245 295 351
#     4  12  23  40  63  90 119 158 202 246 295 354
#     4  11  25  44  62  85 120 162 200 242 303 359
#
# _framework density 18.745052000000001
#
# number of rings (size 3 to 8) (size 9 to 14) (size 15 to 20)
#    0.000    1.000    5.000    4.000    0.000    0.000 
#    0.000    1.667    0.000    0.000    0.000    2.333 
#    0.000    0.000    0.000    0.000    0.000    0.000 
#
# Total GULP energy -267664.777998 kJ/mol
# GULP energy per Si atom -5576.349542 kJ/mol
# Density = 1.870239 g / cm^3
# Si number density = 18.745052 Si / 1000 Ang^3
#
#
#
# Elastic Constant Matrix: (Units=GPa)
#
#
# Indices 1 2 3 4 5 6 
#
# 1 133.5984 33.0684 30.6498 0.0000 0.0000 0.0000
# 2 33.0684 62.1760 -12.9239 0.0000 0.0000 0.0000
# 3 30.6498 -12.9239 48.4627 0.0000 0.0000 0.0000
# 4 0.0000 0.0000 0.0000 2.6699 0.0000 0.0000
# 5 0.0000 0.0000 0.0000 0.0000 23.1181 0.0000
# 6 0.0000 0.0000 0.0000 0.0000 0.0000 24.6596
#
#
#
# Elastic Compliance Matrix: (Units=1/GPa)
#
#
# Indices 1 2 3 4 5 6 
#
# 1 0.011730 -0.008237 -0.009615 0.000000 0.000000 0.000000
# 2 -0.008237 0.022812 0.011293 0.000000 0.000000 0.000000
# 3 -0.009615 0.011293 0.029727 0.000000 0.000000 0.000000
# 4 0.000000 0.000000 0.000000 0.374544 0.000000 0.000000
# 5 0.000000 0.000000 0.000000 0.000000 0.043256 0.000000
# 6 0.000000 0.000000 0.000000 0.000000 0.000000 0.040552
#
#
# Mechanical properties :
#
#
# Convention : Reuss Voigt Hill
#
# Bulk Modulus (GPa) = 19.55050 38.42509 28.98779
# Shear Modulus (GPa) = 9.04503 22.98571 16.01537
#
# Velocity S-wave (km/s) = 2.19904 3.50555 2.92615
# Velocity P-wave (km/s) = 4.11096 6.07688 5.18789
#
# Compressibility (1/GPa) = 0.05114960
#
# Stress axis : x y z
#
# Youngs Moduli (GPa) = 85.25263 43.83731 33.63956
#
# Poissons Ratio (x) = 0.36109 0.32345
# Poissons Ratio (y) = 0.70224 -0.37989
# Poissons Ratio (z) = 0.81971 -0.49505
#
# Static dielectric constant tensor:
#      x y z
#    x 1.717730 0.000000 0.000000 
#    y 0.000000 1.625340 0.000000 
#    z 0.000000 0.000000 1.730650 
# 
# From -- ./inp_files/32457.got.cif
#   From: 2010.05.17/outbox.cif.g08.bks.cpg/sg74_17_cif.got.tgz:32457.got - 2010.06.03 17:57:02.
