data_PCOD9540331
_publ_section_title
;
Structure prediction by ZEFSAII (Michael W. Deem and Ramdas Pophale) SiO2 
 PCOD9540331
Probable space group: I M M A
;
_chemical_formula_sum "Si O2"
_cell_formula_units_Z 116
_cell_length_a 27.101423
_cell_length_b 8.508949
_cell_length_c 25.607169
_cell_angle_alpha 90.000000
_cell_angle_beta 90.000000
_cell_angle_gamma 90.000000
_cell_volume 5905.131634
_symmetry_space_group_name_H-M "I M M A"
_symmetry_group_IT_number 74
_symmetry_cell_setting 'orthorhombic'
loop_
_space_group_symop_operation_xyz
x,y,z
-x,1/2-y,z
x,-y,-z
-x,1/2+y,-z
-x,-y,-z
x,1/2+y,-z
-x,y,z
x,1/2-y,z
1/2+x,1/2+y,1/2+z
1/2-x,-y,1/2+z
1/2+x,1/2-y,1/2-z
1/2-x,y,1/2-z
1/2-x,1/2-y,1/2-z
1/2+x,y,1/2-z
1/2-x,1/2+y,1/2+z
1/2+x,-y,1/2+z
loop_
_atom_site_type_symbol
_atom_site_label
_atom_site_fract_x
_atom_site_fract_y
_atom_site_fract_z
Si Si1 0.946575 0.065906 0.341857
Si Si2 0.358030 0.436732 0.773558
Si Si3 0.583780 0.934362 0.052041
Si Si4 0.237473 0.435822 0.661347
Si Si5 0.806436 0.064143 0.444234
Si Si6 0.346450 0.063507 0.338866
Si Si7 0.500000 0.250000 0.430945
Si Si8 0.397470 0.421862 0.443541
O O1 0.942727 0.250000 0.355007
O O2 0.000000 0.040179 0.315850
O O3 0.900626 0.017734 0.306880
O O4 0.944391 0.967865 0.394946
O O5 0.361211 0.250000 0.781129
O O6 0.304076 0.483878 0.796200
O O7 0.365317 0.480820 0.713469
O O8 0.594404 0.750000 0.046501
O O9 0.635099 0.029609 0.056508
O O10 0.558666 0.000000 0.000000
O O11 0.247704 0.250000 0.668874
O O12 0.215072 0.468974 0.604368
O O13 0.288174 0.530400 0.662597
O O14 0.797192 0.250000 0.439056
O O15 0.787783 0.000000 0.500000
O O16 0.356622 0.250000 0.335233
O O17 0.371607 0.003521 0.392652
O O18 0.455273 0.384418 0.432450
O O19 0.393010 0.500000 0.500000
O O20 0.372771 0.250000 0.448694
#
# Coordination Sequence:
#
# PCOD9540331 Si02
#       8
#    16  16  16  16  16  16   4  16
#     4  11  24  42  64  90 121 160 208 264 323 378
#     4  11  24  43  65  88 121 164 215 265 317 382
#     4  11  21  36  59  87 120 158 203 256 310 370
#     4  11  23  40  63  89 123 168 214 264 321 379
#     4  11  21  35  58  88 122 162 210 258 309 374
#     4  11  24  41  61  95 130 165 207 258 313 376
#     4   8  18  40  70  96 128 168 208 244 306 374
#     4   9  20  38  66  96 128 163 204 250 305 366
#
# _framework density 19.643932
#
# number of rings (size 3 to 8) (size 9 to 14) (size 15 to 20)
#    0.414    0.966    1.379    5.586    0.000    6.345 
#    1.241    1.379    0.000    0.000    0.000    0.000 
#    0.000    0.000    0.000    0.000    0.000    0.000 
#
# Total GULP energy -323201.728585 kJ/mol
# GULP energy per Si atom -5572.443596 kJ/mol
# Density = 1.959922 g / cm^3
# Si number density = 19.643932 Si / 1000 Ang^3
#
#
#
# Elastic Constant Matrix: (Units=GPa)
#
#
# Indices 1 2 3 4 5 6 
#
# 1 66.7237 5.2282 36.4104 0.0000 0.0000 0.0000
# 2 5.2282 45.2042 7.9746 0.0000 0.0000 0.0000
# 3 36.4104 7.9746 115.7875 0.0000 0.0000 0.0000
# 4 0.0000 0.0000 0.0000 31.4592 0.0000 0.0000
# 5 0.0000 0.0000 0.0000 0.0000 -32.3523 0.0000
# 6 0.0000 0.0000 0.0000 0.0000 0.0000 24.6177
#
#
#
# Elastic Compliance Matrix: (Units=1/GPa)
#
#
# Indices 1 2 3 4 5 6 
#
# 1 0.018146 -0.001106 -0.005630 0.000000 0.000000 0.000000
# 2 -0.001106 0.022461 -0.001199 0.000000 0.000000 0.000000
# 3 -0.005630 -0.001199 0.010490 0.000000 0.000000 0.000000
# 4 0.000000 0.000000 0.000000 0.031787 0.000000 0.000000
# 5 0.000000 0.000000 0.000000 0.000000 -0.030910 0.000000
# 6 0.000000 0.000000 0.000000 0.000000 0.000000 0.040621
#
#
# Mechanical properties :
#
#
# Convention : Reuss Voigt Hill
#
# Bulk Modulus (GPa) = 28.38728 36.32689 32.35708
# Shear Modulus (GPa) = 41.59466 16.61839 29.10653
#
# Velocity S-wave (km/s) = 4.60655 2.91173 3.85347
# Velocity P-wave (km/s) = 6.54034 5.46233 6.02549
#
# Compressibility (1/GPa) = 0.03522705
#
# Stress axis : x y z
#
# Youngs Moduli (GPa) = 55.10842 44.52109 95.33315
#
# Poissons Ratio (x) = 0.04922 0.53673
# Poissons Ratio (y) = 0.06092 0.11434
# Poissons Ratio (z) = 0.31026 0.05340
#
# Static dielectric constant tensor:
#      x y z
#    x 1.711630 0.000000 0.000000 
#    y 0.000000 1.668200 0.000000 
#    z 0.000000 0.000000 1.709670 
# 
# From -- ./inp_files/62445.got.cif
#   From: 2010.05.17/outbox.cif.g08.bks.cpg/sg74_32_cif.got.tgz:62445.got - 2010.06.03 17:57:02.
