data_PCOD9540961
_publ_section_title
;
Structure prediction by ZEFSAII (Michael W. Deem and Ramdas Pophale) SiO2 
 PCOD9540961
Probable space group: I M M A
;
_chemical_formula_sum "Si O2"
_cell_formula_units_Z 50
_cell_length_a 9.000000
_cell_length_b 27.000000
_cell_length_c 21.000000
_cell_angle_alpha 90.000000
_cell_angle_beta 90.000000
_cell_angle_gamma 90.000000
_cell_volume 5103.000000
_symmetry_space_group_name_H-M "I M M A"
_symmetry_group_IT_number 74
_symmetry_cell_setting 'orthorhombic'
loop_
_space_group_symop_operation_xyz
x,y,z
-x,1/2-y,z
x,-y,-z
-x,1/2+y,-z
-x,-y,-z
x,1/2+y,-z
-x,y,z
x,1/2-y,z
1/2+x,1/2+y,1/2+z
1/2-x,-y,1/2+z
1/2+x,1/2-y,1/2-z
1/2-x,y,1/2-z
1/2-x,1/2-y,1/2-z
1/2+x,y,1/2-z
1/2-x,1/2+y,1/2+z
1/2+x,-y,1/2+z
loop_
_atom_site_type_symbol
_atom_site_label
_atom_site_fract_x
_atom_site_fract_y
_atom_site_fract_z
Si Si1 0.672978 0.192019 0.973147
Si Si2 0.179617 0.986313 0.930488
Si Si3 0.250000 0.750000 0.250000
Si Si4 0.677540 0.053724 0.684282
Si Si5 0.675857 0.805115 0.818515
Si Si6 0.823902 0.870896 0.918920
Si Si7 0.174910 0.168583 0.843950
O O1 0.500000 0.183705 0.956154
O O2 0.689016 0.250000 0.989405
O O3 0.782965 0.178775 0.916031
O O4 0.723597 0.156552 0.029365
O O5 0.206703 0.929060 0.917319
O O6 0.000000 0.993151 0.932203
O O7 0.235129 0.022105 0.875108
O O8 0.238055 0.000000 0.000000
O O9 0.270172 0.793381 0.196593
O O10 0.500000 0.047659 0.688585
O O11 0.750000 0.037856 0.750000
O O12 0.705293 0.111868 0.672836
O O13 0.500000 0.816811 0.816086
O O14 0.688390 0.750000 0.848591
O O15 0.750000 0.801764 0.750000
O O16 0.772285 0.845202 0.854771
O O17 0.000000 0.863809 0.931439
O O18 0.000000 0.179893 0.831340
#
# Coordination Sequence:
#
# PCOD9540961 Si02
#       7
#    16  16   4  16  16  16  16
#     4  11  24  39  57  84 120 158 196 242 292 343
#     4   9  19  38  62  84 111 149 198 246 292 347
#     4  12  22  36  60  94 122 152 198 242 284 340
#     4  10  21  39  61  86 116 153 193 240 293 349
#     4  10  21  38  60  87 121 158 194 235 289 351
#     4  11  22  37  61  89 116 151 195 244 296 351
#     4  11  23  39  61  87 119 160 200 238 287 345
#
# _framework density 9.7981580000000008
#
# number of rings (size 3 to 8) (size 9 to 14) (size 15 to 20)
#    0.000    1.600    1.600    3.120    0.000    8.960 
#    0.000    3.200    0.000    3.360    0.000    0.000 
#    0.000    0.000    0.000    0.000    0.000    0.000 
#
# Total GULP energy -278515.704056 kJ/mol
# GULP energy per Si atom -5570.314081 kJ/mol
# Density = 0.977586 g / cm^3
# Si number density = 9.798158 Si / 1000 Ang^3
#
#
#
# Elastic Constant Matrix: (Units=GPa)
#
#
# Indices 1 2 3 4 5 6 
#
# 1 19.2522 29.7715 -4.0603 0.0000 0.0000 0.0000
# 2 29.7715 83.3355 62.0273 0.0000 0.0000 0.0000
# 3 -4.0603 62.0273 109.7015 0.0000 0.0000 0.0000
# 4 0.0000 0.0000 0.0000 45.0752 0.0000 0.0000
# 5 0.0000 0.0000 0.0000 0.0000 0.1775 0.0000
# 6 0.0000 0.0000 0.0000 0.0000 0.0000 13.2595
#
#
#
# Elastic Compliance Matrix: (Units=1/GPa)
#
#
# Indices 1 2 3 4 5 6 
#
# 1 -0.453752 0.301477 -0.187255 0.000000 -0.000003 0.000000
# 2 0.301477 -0.179585 0.112699 0.000000 0.000001 0.000000
# 3 -0.187255 0.112699 -0.061537 0.000000 -0.000001 0.000000
# 4 0.000000 0.000000 0.000000 0.022185 0.000000 0.000000
# 5 -0.000003 0.000001 -0.000001 0.000000 5.635390 -0.000001
# 6 0.000000 0.000000 0.000000 0.000000 -0.000001 0.075418
#
#
# Mechanical properties :
#
#
# Convention : Reuss Voigt Hill
#
# Bulk Modulus (GPa) = -4.14884 43.08513 19.46815
# Shear Modulus (GPa) = 1.11014 20.00581 10.55798
#
# Velocity S-wave (km/s) = 0.75348 3.19861 2.32367
# Velocity P-wave (km/s) = 1.16823 5.97290 4.14191
#
# Compressibility (1/GPa) = -0.24103148
#
# Stress axis : x y z
#
# Youngs Moduli (GPa) = -2.20385 -5.56839 -16.25033
#
# Poissons Ratio (x) = 1.67874 -3.04296
# Poissons Ratio (y) = 0.66441 1.83140
# Poissons Ratio (z) = -0.41268 0.62755
#
# Static dielectric constant tensor:
#      x y z
#    x 1.678870 0.000000 0.000000 
#    y 0.000000 1.650130 0.000000 
#    z 0.000000 0.000000 1.565720 
# 
# From -- ./inp_files/49260.got.cif
#   From: 2010.05.17/outbox.ucp.g08.bks.cvg/sg74_25_cif.got.tgz:49260.got - 2010.06.11 16:37:44.
