data_PCOD9540830
_publ_section_title
;
Structure prediction by ZEFSAII (Michael W. Deem and Ramdas Pophale) SiO2 
 PCOD9540830
Probable space group: I M M A
;
_chemical_formula_sum "Si O2"
_cell_formula_units_Z 48
_cell_length_a 21.000000
_cell_length_b 27.000000
_cell_length_c 9.000000
_cell_angle_alpha 90.000000
_cell_angle_beta 90.000000
_cell_angle_gamma 90.000000
_cell_volume 5103.000000
_symmetry_space_group_name_H-M "I M M A"
_symmetry_group_IT_number 74
_symmetry_cell_setting 'orthorhombic'
loop_
_space_group_symop_operation_xyz
x,y,z
-x,1/2-y,z
x,-y,-z
-x,1/2+y,-z
-x,-y,-z
x,1/2+y,-z
-x,y,z
x,1/2-y,z
1/2+x,1/2+y,1/2+z
1/2-x,-y,1/2+z
1/2+x,1/2-y,1/2-z
1/2-x,y,1/2-z
1/2-x,1/2-y,1/2-z
1/2+x,y,1/2-z
1/2-x,1/2+y,1/2+z
1/2+x,-y,1/2+z
loop_
_atom_site_type_symbol
_atom_site_label
_atom_site_fract_x
_atom_site_fract_y
_atom_site_fract_z
Si Si1 0.190675 0.962256 0.363518
Si Si2 0.572392 0.150183 0.488267
Si Si3 0.792387 0.649000 0.396417
Si Si4 0.574729 0.959267 0.371400
Si Si5 0.571138 0.192082 0.813118
Si Si6 0.799064 0.191995 0.129546
O O1 0.250000 0.971618 0.250000
O O2 0.200608 0.908439 0.439750
O O3 0.126427 0.962444 0.261222
O O4 0.187645 0.000000 0.500000
O O5 0.500000 0.154466 0.425172
O O6 0.580600 0.094654 0.551630
O O7 0.575269 0.184488 0.635190
O O8 0.633025 0.165069 0.388796
O O9 0.750000 0.644927 0.250000
O O10 0.864502 0.668483 0.378001
O O11 0.746620 0.684903 0.488808
O O12 0.500000 0.964440 0.323373
O O13 0.586744 0.000000 0.500000
O O14 0.500000 0.172148 0.856188
O O15 0.571938 0.250000 0.848721
O O16 0.811365 0.250000 0.159132
O O17 0.750000 0.170667 0.250000
#
# Coordination Sequence:
#
# PCOD9540830 Si02
#       6
#    16  16  16  16  16  16
#     4  11  23  38  58  85 117 156 198 247 295 350
#     4  10  19  36  61  86 114 148 196 243 283 344
#     4  11  21  37  59  83 113 150 195 244 291 343
#     4  10  21  39  62  87 118 153 193 245 301 356
#     4  10  19  32  57  89 114 141 185 241 290 334
#     4  11  24  39  56  85 122 156 191 236 296 359
#
# _framework density 9.4062319999999993
#
# number of rings (size 3 to 8) (size 9 to 14) (size 15 to 20)
#    0.000    1.500    3.333    2.500    0.000    4.000 
#    0.000    0.833    0.000    1.000    0.000    0.000 
#    0.000    0.000    0.000    0.000    0.000    0.000 
#
# Total GULP energy -267443.213121 kJ/mol
# GULP energy per Si atom -5571.733607 kJ/mol
# Density = 0.938482 g / cm^3
# Si number density = 9.406232 Si / 1000 Ang^3
#
#
#
# Elastic Constant Matrix: (Units=GPa)
#
#
# Indices 1 2 3 4 5 6 
#
# 1 194.1302 46.2360 36.0520 0.0000 0.0000 0.0000
# 2 46.2360 63.5197 19.9601 0.0000 0.0000 0.0000
# 3 36.0520 19.9601 22.8354 0.0000 0.0000 0.0000
# 4 0.0000 0.0000 0.0000 21.7231 0.0000 0.0000
# 5 0.0000 0.0000 0.0000 0.0000 25.5040 0.0000
# 6 0.0000 0.0000 0.0000 0.0000 0.0000 36.5109
#
#
#
# Elastic Compliance Matrix: (Units=1/GPa)
#
#
# Indices 1 2 3 4 5 6 
#
# 1 0.007547 -0.002412 -0.009807 0.000000 0.000000 0.000000
# 2 -0.002412 0.022476 -0.015838 0.000000 0.000000 0.000000
# 3 -0.009807 -0.015838 0.073118 0.000000 0.000000 0.000000
# 4 0.000000 0.000000 0.000000 0.046034 0.000000 0.000000
# 5 0.000000 0.000000 0.000000 0.000000 0.039210 0.000000
# 6 0.000000 0.000000 0.000000 0.000000 0.000000 0.027389
#
#
# Mechanical properties :
#
#
# Convention : Reuss Voigt Hill
#
# Bulk Modulus (GPa) = 21.26414 53.88686 37.57550
# Shear Modulus (GPa) = 17.38760 28.63007 23.00884
#
# Velocity S-wave (km/s) = 3.04346 3.90534 3.50103
# Velocity P-wave (km/s) = 4.86600 7.00300 6.02993
#
# Compressibility (1/GPa) = 0.04702753
#
# Stress axis : x y z
#
# Youngs Moduli (GPa) = 132.50688 44.49288 13.67654
#
# Poissons Ratio (x) = 0.10730 0.13412
# Poissons Ratio (y) = 0.31957 0.21661
# Poissons Ratio (z) = 1.29945 0.70468
#
# Static dielectric constant tensor:
#      x y z
#    x 1.653230 0.000000 0.000000 
#    y 0.000000 1.677920 0.000000 
#    z 0.000000 0.000000 1.615190 
# 
# From -- ./inp_files/12695.got.cif
#   From: 2010.05.17/outbox.ucp.g08.bks.cvg/sg74_7_cif.got.tgz:12695.got - 2010.06.11 16:37:44.
