data_PCOD9540815
_publ_section_title
;
Structure prediction by ZEFSAII (Michael W. Deem and Ramdas Pophale) SiO2 
 PCOD9540815
Probable space group: I M M A
;
_chemical_formula_sum "Si O2"
_cell_formula_units_Z 56
_cell_length_a 27.000000
_cell_length_b 15.000000
_cell_length_c 15.000000
_cell_angle_alpha 90.000000
_cell_angle_beta 90.000000
_cell_angle_gamma 90.000000
_cell_volume 6075.000000
_symmetry_space_group_name_H-M "I M M A"
_symmetry_group_IT_number 74
_symmetry_cell_setting 'orthorhombic'
loop_
_space_group_symop_operation_xyz
x,y,z
-x,1/2-y,z
x,-y,-z
-x,1/2+y,-z
-x,-y,-z
x,1/2+y,-z
-x,y,z
x,1/2-y,z
1/2+x,1/2+y,1/2+z
1/2-x,-y,1/2+z
1/2+x,1/2-y,1/2-z
1/2-x,y,1/2-z
1/2-x,1/2-y,1/2-z
1/2+x,y,1/2-z
1/2-x,1/2+y,1/2+z
1/2+x,-y,1/2+z
loop_
_atom_site_type_symbol
_atom_site_label
_atom_site_fract_x
_atom_site_fract_y
_atom_site_fract_z
Si Si1 0.281557 0.649309 0.929741
Si Si2 0.314015 0.350552 0.543702
Si Si3 0.059838 0.957907 0.725128
Si Si4 0.862977 0.142402 0.153316
Si Si5 0.059758 0.853573 0.354164
Si Si6 0.717982 0.005165 0.328323
Si Si7 0.398848 0.854689 0.947905
O O1 0.276722 0.750000 0.887261
O O2 0.259128 0.563871 0.879965
O O3 0.339227 0.635297 0.949155
O O4 0.243478 0.653486 0.012454
O O5 0.327175 0.250000 0.576265
O O6 0.347222 0.366505 0.452820
O O7 0.312515 0.432821 0.613103
O O8 0.073101 0.063830 0.711943
O O9 0.000000 0.951151 0.734176
O O10 0.087934 0.905640 0.806243
O O11 0.077357 0.910972 0.632580
O O12 0.862805 0.250000 0.171304
O O13 0.819980 0.083940 0.201108
O O14 0.074827 0.750000 0.331698
O O15 0.080325 0.874886 0.453339
O O16 0.000000 0.853532 0.358959
O O17 0.750000 0.960784 0.250000
O O18 0.409604 0.750000 0.930734
#
# Coordination Sequence:
#
# PCOD9540815 Si02
#       7
#    16  16  16  16  16  16  16
#     4   9  18  32  51  76 108 146 182 214 256 317
#     4   9  20  39  58  78 110 148 181 216 265 328
#     4  11  22  34  52  79 107 139 187 242 286 327
#     4  10  21  37  57  80 110 146 180 222 278 332
#     4   9  19  35  51  70 105 153 193 226 277 340
#     4  11  21  33  56  84 109 141 179 222 270 324
#     4  10  19  30  48  77 114 151 186 229 280 334
#
# _framework density 9.2181069999999998
#
# number of rings (size 3 to 8) (size 9 to 14) (size 15 to 20)
#    0.000    2.143    0.000    5.143    0.000    8.857 
#    0.000    0.714    0.000    3.429    0.000    0.000 
#    0.000    0.000    0.000    0.000    0.000    0.000 
#
# Total GULP energy -311908.188411 kJ/mol
# GULP energy per Si atom -5569.789079 kJ/mol
# Density = 0.919713 g / cm^3
# Si number density = 9.218107 Si / 1000 Ang^3
#
#
#
# Elastic Constant Matrix: (Units=GPa)
#
#
# Indices 1 2 3 4 5 6 
#
# 1 77.7855 41.1068 26.1023 0.0000 0.0000 0.0000
# 2 41.1068 145.4426 48.1981 0.0000 0.0000 0.0000
# 3 26.1023 48.1981 50.5452 0.0000 0.0000 0.0000
# 4 0.0000 0.0000 0.0000 28.1178 0.0000 0.0000
# 5 0.0000 0.0000 0.0000 0.0000 20.8561 0.0000
# 6 0.0000 0.0000 0.0000 0.0000 0.0000 31.4633
#
#
#
# Elastic Compliance Matrix: (Units=1/GPa)
#
#
# Indices 1 2 3 4 5 6 
#
# 1 0.016217 -0.002644 -0.005854 0.000000 0.000000 0.000000
# 2 -0.002644 0.010483 -0.008631 0.000000 0.000000 0.000000
# 3 -0.005854 -0.008631 0.031038 0.000000 0.000000 0.000000
# 4 0.000000 0.000000 0.000000 0.035565 0.000000 0.000000
# 5 0.000000 0.000000 0.000000 0.000000 0.047948 0.000000
# 6 0.000000 0.000000 0.000000 0.000000 0.000000 0.031783
#
#
# Mechanical properties :
#
#
# Convention : Reuss Voigt Hill
#
# Bulk Modulus (GPa) = 42.58829 56.06532 49.32681
# Shear Modulus (GPa) = 23.24314 26.64518 24.94416
#
# Velocity S-wave (km/s) = 3.55453 3.80579 3.68230
# Velocity P-wave (km/s) = 6.32430 7.05609 6.70019
#
# Compressibility (1/GPa) = 0.02348063
#
# Stress axis : x y z
#
# Youngs Moduli (GPa) = 61.66244 95.39311 32.21902
#
# Poissons Ratio (x) = 0.25218 0.18861
# Poissons Ratio (y) = 0.16301 0.27808
# Poissons Ratio (z) = 0.36097 0.82334
#
# Static dielectric constant tensor:
#      x y z
#    x 1.636290 0.000000 0.000000 
#    y 0.000000 1.689020 0.000000 
#    z 0.000000 0.000000 1.674800 
# 
# From -- ./inp_files/37413.got.cif
#   From: 2010.05.17/outbox.ucp.g08.bks.cvg/sg74_19_cif.got.tgz:37413.got - 2010.06.11 16:37:44.
