data_PCOD9540673
_publ_section_title
;
Structure prediction by ZEFSAII (Michael W. Deem and Ramdas Pophale) SiO2 
 PCOD9540673
Probable space group: I M M A
;
_chemical_formula_sum "Si O2"
_cell_formula_units_Z 80
_cell_length_a 26.397563
_cell_length_b 20.161040
_cell_length_c 6.809206
_cell_angle_alpha 90.000000
_cell_angle_beta 90.000000
_cell_angle_gamma 90.000000
_cell_volume 3623.875255
_symmetry_space_group_name_H-M "I M M A"
_symmetry_group_IT_number 74
_symmetry_cell_setting 'orthorhombic'
loop_
_space_group_symop_operation_xyz
x,y,z
-x,1/2-y,z
x,-y,-z
-x,1/2+y,-z
-x,-y,-z
x,1/2+y,-z
-x,y,z
x,1/2-y,z
1/2+x,1/2+y,1/2+z
1/2-x,-y,1/2+z
1/2+x,1/2-y,1/2-z
1/2-x,y,1/2-z
1/2-x,1/2-y,1/2-z
1/2+x,y,1/2-z
1/2-x,1/2+y,1/2+z
1/2+x,-y,1/2+z
loop_
_atom_site_type_symbol
_atom_site_label
_atom_site_fract_x
_atom_site_fract_y
_atom_site_fract_z
Si Si1 0.740373 0.669535 0.473912
Si Si2 0.557481 0.557452 0.286382
Si Si3 0.941454 0.089415 0.319201
Si Si4 0.870508 0.825979 0.124205
Si Si5 0.153961 0.326086 0.405582
O O1 0.744855 0.750000 0.478231
O O2 0.750000 0.646993 0.250000
O O3 0.680588 0.657515 0.497147
O O4 0.788437 0.645281 0.601033
O O5 0.500000 0.563346 0.352993
O O6 0.571110 0.479624 0.291246
O O7 0.589899 0.614474 0.388646
O O8 0.557870 0.573127 0.052812
O O9 0.894474 0.139619 0.306868
O O10 0.000000 0.110425 0.274727
O O11 0.887404 0.750000 0.081771
O O12 0.856312 0.825154 0.357658
O O13 0.155746 0.250000 0.341198
#
# Coordination Sequence:
#
# PCOD9540673 Si02
#       5
#    16  16  16  16  16
#     4   7  10  16  24  34  46  58  77 107 137 159
#     4   8  13  19  24  31  46  68  91 111 129 149
#     4   8  13  19  24  31  46  68  91 111 129 149
#     4   8  12  17  25  35  46  62  85 111 134 154
#     4   8  12  17  25  35  46  62  85 111 134 154
#
# _framework density 22.075816
#
# number of rings (size 3 to 8) (size 9 to 14) (size 15 to 20)
#    0.000    4.200    0.000    3.600    0.000    0.800 
#    0.000    4.000    0.000    0.000    0.000    0.000 
#    0.000    0.000    0.000    1.800    0.000   60.400 
#
# Total GULP energy -222976.573337 kJ/mol
# GULP energy per Si atom -5574.414333 kJ/mol
# Density = 2.202557 g / cm^3
# Si number density = 22.075816 Si / 1000 Ang^3
#
#
#
# Elastic Constant Matrix: (Units=GPa)
#
#
# Indices 1 2 3 4 5 6 
#
# 1 212.0936 130.9047 37.6980 0.0000 0.0000 0.0000
# 2 130.9047 118.6420 29.3198 0.0000 0.0000 0.0000
# 3 37.6980 29.3198 98.3414 0.0000 0.0000 0.0000
# 4 0.0000 0.0000 0.0000 26.2805 0.0000 0.0000
# 5 0.0000 0.0000 0.0000 0.0000 37.0589 0.0000
# 6 0.0000 0.0000 0.0000 0.0000 0.0000 -78.1158
#
#
#
# Elastic Compliance Matrix: (Units=1/GPa)
#
#
# Indices 1 2 3 4 5 6 
#
# 1 0.014849 -0.016168 -0.000872 0.000000 0.000000 0.000000
# 2 -0.016168 0.026704 -0.001764 0.000000 0.000000 0.000000
# 3 -0.000872 -0.001764 0.011029 0.000000 0.000000 0.000000
# 4 0.000000 0.000000 0.000000 0.038051 0.000000 0.000000
# 5 0.000000 0.000000 0.000000 0.000000 0.026984 0.000000
# 6 0.000000 0.000000 0.000000 0.000000 0.000000 -0.012801
#
#
# Mechanical properties :
#
#
# Convention : Reuss Voigt Hill
#
# Bulk Modulus (GPa) = 66.78145 91.65801 79.21973
# Shear Modulus (GPa) = 33.91805 12.45500 23.18653
#
# Velocity S-wave (km/s) = 3.92399 2.37785 3.24437
# Velocity P-wave (km/s) = 7.13070 7.01061 7.07091
#
# Compressibility (1/GPa) = 0.01497422
#
# Stress axis : x y z
#
# Youngs Moduli (GPa) = 67.34470 37.44750 90.67300
#
# Poissons Ratio (x) = 0.60546 0.07904
# Poissons Ratio (y) = 1.08885 0.15992
# Poissons Ratio (z) = 0.05870 0.06605
#
# Static dielectric constant tensor:
#      x y z
#    x 1.817240 0.000000 0.000000 
#    y 0.000000 1.738710 0.000000 
#    z 0.000000 0.000000 1.975080 
# 
# From -- ./inp_files/35551.got.cif
#   From: 2010.05.17/outbox.cif.g08.bks.cpg/sg74_18_cif.got.tgz:35551.got - 2010.06.03 17:57:02.
