data_PCOD9540559
_publ_section_title
;
Structure prediction by ZEFSAII (Michael W. Deem and Ramdas Pophale) SiO2 
 PCOD9540559
Probable space group: I M M A
;
_chemical_formula_sum "Si O2"
_cell_formula_units_Z 64
_cell_length_a 13.250589
_cell_length_b 17.407327
_cell_length_c 13.169908
_cell_angle_alpha 90.000000
_cell_angle_beta 90.000000
_cell_angle_gamma 90.000000
_cell_volume 3037.735890
_symmetry_space_group_name_H-M "I M M A"
_symmetry_group_IT_number 74
_symmetry_cell_setting 'orthorhombic'
loop_
_space_group_symop_operation_xyz
x,y,z
-x,1/2-y,z
x,-y,-z
-x,1/2+y,-z
-x,-y,-z
x,1/2+y,-z
-x,y,z
x,1/2-y,z
1/2+x,1/2+y,1/2+z
1/2-x,-y,1/2+z
1/2+x,1/2-y,1/2-z
1/2-x,y,1/2-z
1/2-x,1/2-y,1/2-z
1/2+x,y,1/2-z
1/2-x,1/2+y,1/2+z
1/2+x,-y,1/2+z
loop_
_atom_site_type_symbol
_atom_site_label
_atom_site_fract_x
_atom_site_fract_y
_atom_site_fract_z
Si Si1 0.203406 0.400214 0.056422
Si Si2 0.670120 0.750000 0.976635
Si Si3 0.000000 0.750000 0.347414
Si Si4 0.000000 0.750000 0.691947
Si Si5 0.500000 0.424048 0.816168
Si Si6 0.784673 0.539101 0.360618
Si Si7 0.500000 0.087287 0.314929
O O1 0.254363 0.320239 0.034522
O O2 0.282432 0.447904 0.125662
O O3 0.098751 0.406311 0.114370
O O4 0.203468 0.434917 0.942979
O O5 0.595999 0.750000 0.881317
O O6 0.598748 0.750000 0.077487
O O7 0.000000 0.832175 0.286066
O O8 0.000000 0.667400 0.750452
O O9 0.602821 0.432423 0.879642
O O10 0.500000 0.501817 0.742399
O O11 0.750000 0.563147 0.250000
#
# Coordination Sequence:
#
# PCOD9540559 Si02
#       7
#    16   8   4   4   8  16   8
#     4  11  25  42  71 103 150 186 241 310 373 437
#     4  11  23  44  67 108 151 178 246 318 369 443
#     4  11  24  46  72 111 142 202 255 318 361 430
#     4  11  26  40  72 111 146 194 237 298 397 458
#     4  12  23  45  76 103 141 197 261 293 367 444
#     4  11  24  44  71 104 137 195 242 300 366 436
#     4  12  25  45  73 108 151 196 244 303 380 460
#
# _framework density 21.068321999999998
#
# number of rings (size 3 to 8) (size 9 to 14) (size 15 to 20)
#    0.000    0.750    5.000    2.250    0.000    7.000 
#    0.000    2.500    0.000    1.500    0.000    0.000 
#    0.000    0.000    0.000    0.000    0.000    0.000 
#
# Total GULP energy -178265.569235 kJ/mol
# GULP energy per Si atom -5570.799039 kJ/mol
# Density = 2.102037 g / cm^3
# Si number density = 21.068322 Si / 1000 Ang^3
#
#
#
# Elastic Constant Matrix: (Units=GPa)
#
#
# Indices 1 2 3 4 5 6 
#
# 1 78.8308 41.6071 28.1517 0.0000 0.0000 0.0001
# 2 41.6071 156.7858 42.0850 0.0000 0.0000 0.0001
# 3 28.1517 42.0850 114.5723 0.0000 0.0000 0.0003
# 4 0.0000 0.0000 0.0000 22.3911 0.0000 0.0002
# 5 0.0000 0.0000 0.0000 0.0000 9.1564 0.0000
# 6 0.0001 0.0001 0.0003 0.0002 0.0000 175.9324
#
#
#
# Elastic Compliance Matrix: (Units=1/GPa)
#
#
# Indices 1 2 3 4 5 6 
#
# 1 0.015385 -0.003404 -0.002530 0.000000 0.000000 0.000000
# 2 -0.003404 0.007829 -0.002039 0.000000 0.000000 0.000000
# 3 -0.002530 -0.002039 0.010099 0.000000 0.000000 0.000000
# 4 0.000000 0.000000 0.000000 0.044661 0.000000 0.000000
# 5 0.000000 0.000000 0.000000 0.000000 0.109213 0.000000
# 6 0.000000 0.000000 0.000000 0.000000 0.000000 0.005684
#
#
# Mechanical properties :
#
#
# Convention : Reuss Voigt Hill
#
# Bulk Modulus (GPa) = 57.58146 63.76404 60.67275
# Shear Modulus (GPa) = 23.29852 57.38566 40.34209
#
# Velocity S-wave (km/s) = 3.32905 5.22466 4.38062
# Velocity P-wave (km/s) = 6.49360 8.16867 7.37882
#
# Compressibility (1/GPa) = 0.01736670
#
# Stress axis : x y z
#
# Youngs Moduli (GPa) = 64.99648 127.73315 99.02085
#
# Poissons Ratio (x) = 0.43478 0.25053
# Poissons Ratio (y) = 0.22123 0.20194
# Poissons Ratio (z) = 0.16445 0.26049
#
# Static dielectric constant tensor:
#      x y z
#    x 1.728310 0.000000 0.000000 
#    y 0.000000 2.092080 0.000000 
#    z 0.000000 0.000000 1.785670 
# 
# From -- ./inp_files/20048.got.cif
#   From: 2010.05.17/outbox.cif.g08.bks.cpg/sg74_11_cif.got.tgz:20048.got - 2010.06.03 17:57:02.
