data_PCOD9540875
_publ_section_title
;
Structure prediction by ZEFSAII (Michael W. Deem and Ramdas Pophale) SiO2 
 PCOD9540875
Probable space group: I M M A
;
_chemical_formula_sum "Si O2"
_cell_formula_units_Z 56
_cell_length_a 30.000000
_cell_length_b 15.000000
_cell_length_c 15.000000
_cell_angle_alpha 90.000000
_cell_angle_beta 90.000000
_cell_angle_gamma 90.000000
_cell_volume 6750.000000
_symmetry_space_group_name_H-M "I M M A"
_symmetry_group_IT_number 74
_symmetry_cell_setting 'orthorhombic'
loop_
_space_group_symop_operation_xyz
x,y,z
-x,1/2-y,z
x,-y,-z
-x,1/2+y,-z
-x,-y,-z
x,1/2+y,-z
-x,y,z
x,1/2-y,z
1/2+x,1/2+y,1/2+z
1/2-x,-y,1/2+z
1/2+x,1/2-y,1/2-z
1/2-x,y,1/2-z
1/2-x,1/2-y,1/2-z
1/2+x,y,1/2-z
1/2-x,1/2+y,1/2+z
1/2+x,-y,1/2+z
loop_
_atom_site_type_symbol
_atom_site_label
_atom_site_fract_x
_atom_site_fract_y
_atom_site_fract_z
Si Si1 0.858891 0.943803 0.767326
Si Si2 0.050256 0.607819 0.999033
Si Si3 0.200456 0.486433 0.405002
Si Si4 0.261312 0.149788 0.643015
Si Si5 0.273477 0.849892 0.652813
Si Si6 0.549366 0.146255 0.288988
Si Si7 0.642647 0.575889 0.422542
O O1 0.822681 0.888119 0.826698
O O2 0.905750 0.895984 0.749894
O O3 0.832745 0.967923 0.676891
O O4 0.870123 0.026483 0.830846
O O5 0.053234 0.637837 0.896431
O O6 0.000000 0.636104 0.031890
O O7 0.049666 0.500000 0.000000
O O8 0.097986 0.629634 0.046048
O O9 0.177301 0.500000 0.500000
O O10 0.227446 0.576879 0.391503
O O11 0.239996 0.411922 0.402969
O O12 0.251951 0.250000 0.613905
O O13 0.250000 0.146504 0.750000
O O14 0.311062 0.124682 0.606040
O O15 0.276621 0.750000 0.616732
O O16 0.250000 0.846936 0.750000
O O17 0.500000 0.108572 0.265330
O O18 0.549191 0.250000 0.265737
O O19 0.651030 0.500000 0.500000
#
# Coordination Sequence:
#
# PCOD9540875 Si02
#       7
#    16  16  16  16  16  16  16
#     4  11  19  34  53  73 107 138 178 217 264 313
#     4   9  17  30  49  75 107 139 172 207 256 320
#     4  11  22  37  53  74 106 139 182 230 270 311
#     4  11  22  37  53  72 103 144 186 226 266 312
#     4   9  18  32  52  75 102 136 171 216 272 323
#     4  10  20  33  52  81 112 140 171 213 267 330
#     4  11  19  33  52  76 103 139 179 219 262 319
#
# _framework density 8.2962959999999999
#
# number of rings (size 3 to 8) (size 9 to 14) (size 15 to 20)
#    0.000    1.714    5.714    1.286    0.000    1.714 
#    0.000    0.000    0.000    0.429    0.000    0.000 
#    0.000    0.571    0.000    0.000    0.000    0.000 
#
# Total GULP energy -311775.941750 kJ/mol
# GULP energy per Si atom -5567.427531 kJ/mol
# Density = 0.827741 g / cm^3
# Si number density = 8.296296 Si / 1000 Ang^3
#
#
#
# Elastic Constant Matrix: (Units=GPa)
#
#
# Indices 1 2 3 4 5 6 
#
# 1 158.2644 32.9393 38.2952 0.0000 0.0000 0.0000
# 2 32.9393 66.9085 27.8170 0.0000 0.0000 0.0000
# 3 38.2952 27.8170 75.4079 0.0000 0.0000 0.0000
# 4 0.0000 0.0000 0.0000 4.7313 0.0000 0.0000
# 5 0.0000 0.0000 0.0000 0.0000 25.6631 0.0000
# 6 0.0000 0.0000 0.0000 0.0000 0.0000 1.9809
#
#
#
# Elastic Compliance Matrix: (Units=1/GPa)
#
#
# Indices 1 2 3 4 5 6 
#
# 1 0.007543 -0.002505 -0.002907 0.000000 0.000000 0.000000
# 2 -0.002505 0.018485 -0.005547 0.000000 0.000000 0.000000
# 3 -0.002907 -0.005547 0.016783 0.000000 0.000000 0.000000
# 4 0.000000 0.000000 0.000000 0.211359 0.000000 0.000000
# 5 0.000000 0.000000 0.000000 0.000000 0.038966 0.000000
# 6 0.000000 0.000000 0.000000 0.000000 0.000000 0.504826
#
#
# Mechanical properties :
#
#
# Convention : Reuss Voigt Hill
#
# Bulk Modulus (GPa) = 47.85883 55.40932 51.63407
# Shear Modulus (GPa) = 6.04708 19.91033 12.97871
#
# Velocity S-wave (km/s) = 1.91111 3.46779 2.79982
# Velocity P-wave (km/s) = 5.81170 7.03567 6.45277
#
# Compressibility (1/GPa) = 0.02089479
#
# Stress axis : x y z
#
# Youngs Moduli (GPa) = 132.56877 54.09757 59.58249
#
# Poissons Ratio (x) = 0.13552 0.17319
# Poissons Ratio (y) = 0.33210 0.33049
# Poissons Ratio (z) = 0.38533 0.30006
#
# Static dielectric constant tensor:
#      x y z
#    x 1.585730 0.000000 0.000000 
#    y 0.000000 1.605280 0.000000 
#    z 0.000000 0.000000 1.576870 
# 
# From -- ./inp_files/33161.got.cif
#   From: 2010.05.17/outbox.ucp.g08.bks.cvg/sg74_17_cif.got.tgz:33161.got - 2010.06.11 16:37:44.
