data_PCOD9540282
_publ_section_title
;
Structure prediction by ZEFSAII (Michael W. Deem and Ramdas Pophale) SiO2 
 PCOD9540282
Probable space group: I M M A
;
_chemical_formula_sum "Si O2"
_cell_formula_units_Z 96
_cell_length_a 7.766336
_cell_length_b 19.157894
_cell_length_c 33.949819
_cell_angle_alpha 90.000000
_cell_angle_beta 90.000000
_cell_angle_gamma 90.000000
_cell_volume 5051.279561
_symmetry_space_group_name_H-M "I M M A"
_symmetry_group_IT_number 74
_symmetry_cell_setting 'orthorhombic'
loop_
_space_group_symop_operation_xyz
x,y,z
-x,1/2-y,z
x,-y,-z
-x,1/2+y,-z
-x,-y,-z
x,1/2+y,-z
-x,y,z
x,1/2-y,z
1/2+x,1/2+y,1/2+z
1/2-x,-y,1/2+z
1/2+x,1/2-y,1/2-z
1/2-x,y,1/2-z
1/2-x,1/2-y,1/2-z
1/2+x,y,1/2-z
1/2-x,1/2+y,1/2+z
1/2+x,-y,1/2+z
loop_
_atom_site_type_symbol
_atom_site_label
_atom_site_fract_x
_atom_site_fract_y
_atom_site_fract_z
Si Si1 0.291977 0.830203 0.013965
Si Si2 0.794517 0.172798 0.668695
Si Si3 0.200188 0.451214 0.369738
Si Si4 0.710798 0.330069 0.075246
Si Si5 0.700747 0.907811 0.407970
Si Si6 0.207530 0.469833 0.705574
O O1 0.500000 0.831189 0.014694
O O2 0.237620 0.750000 0.021757
O O3 0.229137 0.880603 0.048153
O O4 0.236652 0.848435 0.969513
O O5 0.723039 0.250000 0.676481
O O6 0.764780 0.149567 0.623538
O O7 0.727537 0.108221 0.694801
O O8 0.000000 0.175997 0.674782
O O9 0.275626 0.385521 0.392932
O O10 0.208470 0.519435 0.397602
O O11 0.274098 0.477328 0.327999
O O12 0.000000 0.434154 0.362546
O O13 0.500000 0.331765 0.075269
O O14 0.761108 0.250000 0.083084
O O15 0.500000 0.918728 0.400799
O O16 0.250000 0.488756 0.750000
O O17 0.000000 0.467784 0.701479
#
# Coordination Sequence:
#
# PCOD9540282 Si02
#       6
#    16  16  16  16  16  16
#     4   9  17  30  48  69  94 125 160 198 238 274
#     4   9  18  33  50  67  91 125 164 202 237 271
#     4   9  18  34  53  71  93 121 154 193 237 280
#     4   8  15  30  54  78  92 111 154 203 237 272
#     4  11  21  30  43  67  99 132 165 196 226 268
#     4   9  18  31  48  70  94 122 153 187 231 280
#
# _framework density 19.005085999999999
#
# number of rings (size 3 to 8) (size 9 to 14) (size 15 to 20)
#    0.000    2.833    0.000    4.000    0.000    6.333 
#    0.000    4.167    0.000    2.000    0.000    0.000 
#    0.000    0.000    0.000    0.000    0.000    0.333 
#
# Total GULP energy -267638.967475 kJ/mol
# GULP energy per Si atom -5575.811822 kJ/mol
# Density = 1.896183 g / cm^3
# Si number density = 19.005086 Si / 1000 Ang^3
#
#
#
# Elastic Constant Matrix: (Units=GPa)
#
#
# Indices 1 2 3 4 5 6 
#
# 1 24.1256 -9.0244 -5.1439 0.0000 0.0000 0.0000
# 2 -9.0244 72.2582 85.1648 0.0000 0.0000 0.0000
# 3 -5.1439 85.1648 149.9551 0.0000 0.0000 0.0000
# 4 0.0000 0.0000 0.0000 -110.8670 0.0000 0.0000
# 5 0.0000 0.0000 0.0000 0.0000 14.0016 0.0000
# 6 0.0000 0.0000 0.0000 0.0000 0.0000 -12.3452
#
#
#
# Elastic Compliance Matrix: (Units=1/GPa)
#
#
# Indices 1 2 3 4 5 6 
#
# 1 0.044663 0.011410 -0.004948 0.000000 0.000000 0.000000
# 2 0.011410 0.044773 -0.025037 0.000000 0.000000 0.000000
# 3 -0.004948 -0.025037 0.020718 0.000000 0.000000 0.000000
# 4 0.000000 0.000000 0.000000 -0.009020 0.000000 0.000000
# 5 0.000000 0.000000 0.000000 0.000000 0.071420 0.000000
# 6 0.000000 0.000000 0.000000 0.000000 0.000000 -0.081003
#
#
# Mechanical properties :
#
#
# Convention : Reuss Voigt Hill
#
# Bulk Modulus (GPa) = 13.69793 43.14800 28.42297
# Shear Modulus (GPa) = 32.67199 -10.15263 11.25968
#
# Velocity S-wave (km/s) = 4.15072 -2.31380 2.43668
# Velocity P-wave (km/s) = 5.49495 3.95152 4.78586
#
# Compressibility (1/GPa) = 0.07300372
#
# Stress axis : x y z
#
# Youngs Moduli (GPa) = 22.39010 22.33478 48.26651
#
# Poissons Ratio (x) = -0.25483 0.23882
# Poissons Ratio (y) = -0.25546 1.20845
# Poissons Ratio (z) = 0.11078 0.55919
#
# Static dielectric constant tensor:
#      x y z
#    x 1.730590 0.000000 0.000000 
#    y 0.000000 1.669380 0.000000 
#    z 0.000000 0.000000 1.653600 
# 
# From -- ./inp_files/64292.got.cif
#   From: 2010.05.17/outbox.cif.g08.bks.cpg/sg74_33_cif.got.tgz:64292.got - 2010.06.03 17:57:02.
