data_PCOD9540080
_publ_section_title
;
Structure prediction by ZEFSAII (Michael W. Deem and Ramdas Pophale) SiO2 
 PCOD9540080
Probable space group: I M M A
;
_chemical_formula_sum "Si O2"
_cell_formula_units_Z 88
_cell_length_a 14.611949
_cell_length_b 10.909306
_cell_length_c 24.980012
_cell_angle_alpha 90.000000
_cell_angle_beta 90.000000
_cell_angle_gamma 90.000000
_cell_volume 3981.969361
_symmetry_space_group_name_H-M "I M M A"
_symmetry_group_IT_number 74
_symmetry_cell_setting 'orthorhombic'
loop_
_space_group_symop_operation_xyz
x,y,z
-x,1/2-y,z
x,-y,-z
-x,1/2+y,-z
-x,-y,-z
x,1/2+y,-z
-x,y,z
x,1/2-y,z
1/2+x,1/2+y,1/2+z
1/2-x,-y,1/2+z
1/2+x,1/2-y,1/2-z
1/2-x,y,1/2-z
1/2-x,1/2-y,1/2-z
1/2+x,y,1/2-z
1/2-x,1/2+y,1/2+z
1/2+x,-y,1/2+z
loop_
_atom_site_type_symbol
_atom_site_label
_atom_site_fract_x
_atom_site_fract_y
_atom_site_fract_z
Si Si1 0.000000 0.900781 0.449412
Si Si2 0.193540 0.378635 0.034250
Si Si3 0.831435 0.517134 0.614632
Si Si4 0.000000 0.108425 0.832748
Si Si5 0.191705 0.989235 0.195607
Si Si6 0.000000 0.052753 0.061067
Si Si7 0.899382 0.250000 0.323635
Si Si8 0.106165 0.750000 0.804668
O O1 0.000000 0.750000 0.461154
O O2 0.000000 0.000000 0.500000
O O3 0.089291 0.938527 0.413732
O O4 0.201015 0.250000 0.003970
O O5 0.280370 0.398607 0.071301
O O6 0.096384 0.378323 0.064501
O O7 0.192407 0.500000 0.000000
O O8 0.753532 0.441088 0.646332
O O9 0.862841 0.618462 0.657662
O O10 0.000000 0.250000 0.843566
O O11 0.092567 0.073741 0.801422
O O12 0.000000 0.041575 0.890200
O O13 0.250000 0.980921 0.250000
O O14 0.163395 0.129408 0.182015
O O15 0.000000 0.000000 0.000000
O O16 0.899250 0.250000 0.259816
O O17 0.000000 0.250000 0.347574
O O18 0.000000 0.750000 0.824171
#
# Coordination Sequence:
#
# PCOD9540080 Si02
#       8
#     8  16  16   8  16   8   8   8
#     4  12  32  55  78 108 147 196 255 320 380 452
#     4  11  24  41  68 104 142 186 237 296 362 436
#     4  12  24  43  74 105 144 188 245 304 375 436
#     4  12  28  49  72 102 145 198 243 297 368 442
#     4  12  25  45  74 112 149 194 245 306 365 435
#     4  10  23  45  68  99 135 183 238 297 350 426
#     4  11  21  39  73 107 142 196 238 306 370 430
#     4  11  22  40  74 110 158 190 246 314 362 416
#
# _framework density 22.099619000000001
#
# number of rings (size 3 to 8) (size 9 to 14) (size 15 to 20)
#    0.000    0.545    6.364    1.636    1.273    6.909 
#    1.636    0.909    0.000    0.000    0.000    0.000 
#    0.000    0.000    0.000    0.000    0.000    0.000 
#
# Total GULP energy -245587.151941 kJ/mol
# GULP energy per Si atom -5581.526180 kJ/mol
# Density = 2.204932 g / cm^3
# Si number density = 22.099619 Si / 1000 Ang^3
#
#
#
# Elastic Constant Matrix: (Units=GPa)
#
#
# Indices 1 2 3 4 5 6 
#
# 1 155.3279 42.4867 44.5751 0.0000 0.0000 0.0000
# 2 42.4867 133.9441 42.3183 0.0000 0.0000 0.0000
# 3 44.5751 42.3183 86.4542 0.0000 0.0000 0.0000
# 4 0.0000 0.0000 0.0000 21.8356 0.0000 0.0000
# 5 0.0000 0.0000 0.0000 0.0000 37.4005 0.0000
# 6 0.0000 0.0000 0.0000 0.0000 0.0000 -25.0445
#
#
#
# Elastic Compliance Matrix: (Units=1/GPa)
#
#
# Indices 1 2 3 4 5 6 
#
# 1 0.007778 -0.001420 -0.003315 0.000000 0.000000 0.000000
# 2 -0.001420 0.009091 -0.003718 0.000000 0.000000 0.000000
# 3 -0.003315 -0.003718 0.015096 0.000000 0.000000 0.000000
# 4 0.000000 0.000000 0.000000 0.045797 0.000000 0.000000
# 5 0.000000 0.000000 0.000000 0.000000 0.026738 0.000000
# 6 0.000000 0.000000 0.000000 0.000000 0.000000 -0.039929
#
#
# Mechanical properties :
#
#
# Convention : Reuss Voigt Hill
#
# Bulk Modulus (GPa) = 66.40566 70.49849 68.45207
# Shear Modulus (GPa) = 57.80690 23.26139 40.53415
#
# Velocity S-wave (km/s) = 5.11998 3.24785 4.28735
# Velocity P-wave (km/s) = 8.06634 6.78486 7.45319
#
# Compressibility (1/GPa) = 0.01505896
#
# Stress axis : x y z
#
# Youngs Moduli (GPa) = 128.57283 110.00227 66.24296
#
# Poissons Ratio (x) = 0.15617 0.21961
# Poissons Ratio (y) = 0.18253 0.24628
# Poissons Ratio (z) = 0.42625 0.40897
#
# Static dielectric constant tensor:
#      x y z
#    x 1.913510 0.000000 0.000000 
#    y 0.000000 2.065690 0.000000 
#    z 0.000000 0.000000 1.867620 
# 
# From -- ./inp_files/67034.got.cif
#   From: 2010.05.17/outbox.cif.g08.bks.cpg/sg74_34_cif.got.tgz:67034.got - 2010.06.03 17:57:02.
