data_PCOD9540346
_publ_section_title
;
Structure prediction by ZEFSAII (Michael W. Deem and Ramdas Pophale) SiO2 
 PCOD9540346
Probable space group: I M M A
;
_chemical_formula_sum "Si O2"
_cell_formula_units_Z 68
_cell_length_a 7.516456
_cell_length_b 22.656420
_cell_length_c 17.278418
_cell_angle_alpha 90.000000
_cell_angle_beta 90.000000
_cell_angle_gamma 90.000000
_cell_volume 2942.445196
_symmetry_space_group_name_H-M "I M M A"
_symmetry_group_IT_number 74
_symmetry_cell_setting 'orthorhombic'
loop_
_space_group_symop_operation_xyz
x,y,z
-x,1/2-y,z
x,-y,-z
-x,1/2+y,-z
-x,-y,-z
x,1/2+y,-z
-x,y,z
x,1/2-y,z
1/2+x,1/2+y,1/2+z
1/2-x,-y,1/2+z
1/2+x,1/2-y,1/2-z
1/2-x,y,1/2-z
1/2-x,1/2-y,1/2-z
1/2+x,y,1/2-z
1/2-x,1/2+y,1/2+z
1/2+x,-y,1/2+z
loop_
_atom_site_type_symbol
_atom_site_label
_atom_site_fract_x
_atom_site_fract_y
_atom_site_fract_z
Si Si1 0.711608 0.079756 0.662612
Si Si2 0.202439 0.966914 0.576903
Si Si3 0.704506 0.336304 0.381248
Si Si4 0.715318 0.313133 0.559684
Si Si5 0.000000 0.250000 0.320050
O O1 0.500000 0.073900 0.651815
O O2 0.750000 0.097192 0.750000
O O3 0.781104 0.130037 0.604903
O O4 0.793909 0.017109 0.641671
O O5 0.287251 0.907410 0.610279
O O6 0.000000 0.950706 0.556271
O O7 0.280307 0.000000 0.500000
O O8 0.500000 0.319575 0.363677
O O9 0.753049 0.316592 0.468913
O O10 0.843927 0.302193 0.328413
O O11 0.500000 0.314110 0.566167
O O12 0.778630 0.250000 0.590379
#
# Coordination Sequence:
#
# PCOD9540346 Si02
#       5
#    16  16  16  16   4
#     4  11  23  39  57  82 121 164 209 258 309 366
#     4  11  22  37  61  91 121 156 208 263 313 370
#     4  11  21  36  59  89 124 162 200 254 312 368
#     4   9  18  34  56  80 116 162 208 247 301 364
#     4  12  22  36  54  94 132 152 200 252 312 376
#
# _framework density 23.110032
#
# number of rings (size 3 to 8) (size 9 to 14) (size 15 to 20)
#    0.000    1.412    4.706    1.765    0.000    1.412 
#    2.118    0.000    0.000    0.000    0.000    0.824 
#    0.000    0.000    0.000    0.000    0.000    0.000 
#
# Total GULP energy -189593.236405 kJ/mol
# GULP energy per Si atom -5576.271659 kJ/mol
# Density = 2.305743 g / cm^3
# Si number density = 23.110032 Si / 1000 Ang^3
#
#
#
# Elastic Constant Matrix: (Units=GPa)
#
#
# Indices 1 2 3 4 5 6 
#
# 1 128.0870 29.5131 19.8974 0.0000 0.0000 0.0000
# 2 29.5131 185.1776 14.7685 0.0001 0.0000 0.0000
# 3 19.8974 14.7685 56.2022 0.0003 0.0000 0.0002
# 4 0.0000 0.0001 0.0003 -31.8949 0.0000 0.0002
# 5 0.0000 0.0000 0.0000 0.0000 13.5849 0.0000
# 6 0.0000 0.0000 0.0002 0.0002 0.0000 33.7741
#
#
#
# Elastic Compliance Matrix: (Units=1/GPa)
#
#
# Indices 1 2 3 4 5 6 
#
# 1 0.008490 -0.001137 -0.002707 0.000000 0.000000 0.000000
# 2 -0.001137 0.005668 -0.001087 0.000000 0.000000 0.000000
# 3 -0.002707 -0.001087 0.019037 0.000000 0.000000 0.000000
# 4 0.000000 0.000000 0.000000 -0.031353 0.000000 0.000000
# 5 0.000000 0.000000 0.000000 0.000000 0.073611 0.000000
# 6 0.000000 0.000000 0.000000 0.000000 0.000000 0.029608
#
#
# Mechanical properties :
#
#
# Convention : Reuss Voigt Hill
#
# Bulk Modulus (GPa) = 42.85779 55.31384 49.08582
# Shear Modulus (GPa) = 40.74961 23.44536 32.09748
#
# Velocity S-wave (km/s) = 4.20371 3.18859 3.73084
# Velocity P-wave (km/s) = 6.49206 6.12724 6.31229
#
# Compressibility (1/GPa) = 0.02333298
#
# Stress axis : x y z
#
# Youngs Moduli (GPa) = 117.78979 176.42469 52.52983
#
# Poissons Ratio (x) = 0.20063 0.14219
# Poissons Ratio (y) = 0.13395 0.05709
# Poissons Ratio (z) = 0.31883 0.19174
#
# Static dielectric constant tensor:
#      x y z
#    x 1.907960 0.000000 0.000000 
#    y 0.000000 1.951000 0.000000 
#    z 0.000000 0.000000 1.862470 
# 
# From -- ./inp_files/39184.got.cif
#   From: 2010.05.17/outbox.cif.g08.bks.cpg/sg74_20_cif.got.tgz:39184.got - 2010.06.03 17:57:02.
