data_PCOD9540290
_publ_section_title
;
Structure prediction by ZEFSAII (Michael W. Deem and Ramdas Pophale) SiO2 
 PCOD9540290
Probable space group: I M M A
;
_chemical_formula_sum "Si O2"
_cell_formula_units_Z 96
_cell_length_a 8.935001
_cell_length_b 25.929208
_cell_length_c 25.568158
_cell_angle_alpha 90.000000
_cell_angle_beta 90.000000
_cell_angle_gamma 90.000000
_cell_volume 5923.566910
_symmetry_space_group_name_H-M "I M M A"
_symmetry_group_IT_number 74
_symmetry_cell_setting 'orthorhombic'
loop_
_space_group_symop_operation_xyz
x,y,z
-x,1/2-y,z
x,-y,-z
-x,1/2+y,-z
-x,-y,-z
x,1/2+y,-z
-x,y,z
x,1/2-y,z
1/2+x,1/2+y,1/2+z
1/2-x,-y,1/2+z
1/2+x,1/2-y,1/2-z
1/2-x,y,1/2-z
1/2-x,1/2-y,1/2-z
1/2+x,y,1/2-z
1/2-x,1/2+y,1/2+z
1/2+x,-y,1/2+z
loop_
_atom_site_type_symbol
_atom_site_label
_atom_site_fract_x
_atom_site_fract_y
_atom_site_fract_z
Si Si1 0.321357 0.009675 0.196003
Si Si2 0.325640 0.621899 0.700106
Si Si3 0.322225 0.915819 0.502389
Si Si4 0.833539 0.191282 0.373491
Si Si5 0.326742 0.692940 0.999075
Si Si6 0.679250 0.502471 0.586064
O O1 0.500000 0.006664 0.198722
O O2 0.250000 0.987775 0.250000
O O3 0.263975 0.068758 0.194420
O O4 0.260186 0.989725 0.140394
O O5 0.500000 0.611753 0.708143
O O6 0.250000 0.649141 0.750000
O O7 0.294450 0.656304 0.650041
O O8 0.500000 0.909560 0.508641
O O9 0.254037 0.860551 0.488035
O O10 0.268919 0.944915 0.555897
O O11 0.297759 0.956812 0.455813
O O12 0.820023 0.250000 0.354638
O O13 0.826366 0.192859 0.435906
O O14 0.000000 0.171717 0.358544
O O15 0.500000 0.690274 0.016046
O O16 0.267377 0.750000 0.015459
O O17 0.500000 0.507549 0.595496
#
# Coordination Sequence:
#
# PCOD9540290 Si02
#       6
#    16  16  16  16  16  16
#     4  11  21  33  49  68  90 119 153 188 229 275
#     4  11  21  32  45  60  80 108 144 186 230 273
#     4   9  18  31  49  71  97 128 157 191 235 281
#     4   9  18  32  46  60  81 110 145 186 230 272
#     4   9  18  31  46  65  91 121 152 189 229 269
#     4   9  18  33  49  70  99 126 155 193 237 280
#
# _framework density 16.206451000000001
#
# number of rings (size 3 to 8) (size 9 to 14) (size 15 to 20)
#    0.000    2.333    0.000    7.000    0.000    5.667 
#    0.000    3.333    0.000    0.000    0.000    0.000 
#    0.000    0.667    0.000    2.167    0.000    3.167 
#
# Total GULP energy -267366.208727 kJ/mol
# GULP energy per Si atom -5570.129348 kJ/mol
# Density = 1.616956 g / cm^3
# Si number density = 16.206451 Si / 1000 Ang^3
#
#
#
# Elastic Constant Matrix: (Units=GPa)
#
#
# Indices 1 2 3 4 5 6 
#
# 1 79.2103 27.0488 36.6649 0.0000 0.0000 0.0000
# 2 27.0488 77.4081 11.1715 0.0000 0.0000 0.0000
# 3 36.6649 11.1715 66.3433 0.0000 0.0000 0.0000
# 4 0.0000 0.0000 0.0000 13.3385 0.0000 0.0000
# 5 0.0000 0.0000 0.0000 0.0000 24.2190 0.0000
# 6 0.0000 0.0000 0.0000 0.0000 0.0000 21.9017
#
#
#
# Elastic Compliance Matrix: (Units=1/GPa)
#
#
# Indices 1 2 3 4 5 6 
#
# 1 0.018805 -0.005197 -0.009517 0.000000 0.000000 0.000000
# 2 -0.005197 0.014677 0.000401 0.000000 0.000000 0.000000
# 3 -0.009517 0.000401 0.020265 0.000000 0.000000 0.000000
# 4 0.000000 0.000000 0.000000 0.074971 0.000000 0.000000
# 5 0.000000 0.000000 0.000000 0.000000 0.041290 0.000000
# 6 0.000000 0.000000 0.000000 0.000000 0.000000 0.045659
#
#
# Mechanical properties :
#
#
# Convention : Reuss Voigt Hill
#
# Bulk Modulus (GPa) = 39.80992 41.41469 40.61230
# Shear Modulus (GPa) = 19.78886 21.76360 20.77623
#
# Velocity S-wave (km/s) = 3.49814 3.66853 3.58435
# Velocity P-wave (km/s) = 6.39793 6.59955 6.49953
#
# Compressibility (1/GPa) = 0.02511937
#
# Stress axis : x y z
#
# Youngs Moduli (GPa) = 53.17773 68.13456 49.34513
#
# Poissons Ratio (x) = 0.35413 0.46964
# Poissons Ratio (y) = 0.27639 -0.01979
# Poissons Ratio (z) = 0.50611 -0.02732
#
# Static dielectric constant tensor:
#      x y z
#    x 1.565410 0.000000 0.000000 
#    y 0.000000 1.561070 0.000000 
#    z 0.000000 0.000000 1.609120 
# 
# From -- ./inp_files/62282.got.cif
#   From: 2010.05.17/outbox.cif.g08.bks.cpg/sg74_32_cif.got.tgz:62282.got - 2010.06.03 17:57:02.
