data_PCOD9540269
_publ_section_title
;
Structure prediction by ZEFSAII (Michael W. Deem and Ramdas Pophale) SiO2 
 PCOD9540269
Probable space group: I M M A
;
_chemical_formula_sum "Si O2"
_cell_formula_units_Z 104
_cell_length_a 24.268844
_cell_length_b 14.744685
_cell_length_c 15.489008
_cell_angle_alpha 90.000000
_cell_angle_beta 90.000000
_cell_angle_gamma 90.000000
_cell_volume 5542.531793
_symmetry_space_group_name_H-M "I M M A"
_symmetry_group_IT_number 74
_symmetry_cell_setting 'orthorhombic'
loop_
_space_group_symop_operation_xyz
x,y,z
-x,1/2-y,z
x,-y,-z
-x,1/2+y,-z
-x,-y,-z
x,1/2+y,-z
-x,y,z
x,1/2-y,z
1/2+x,1/2+y,1/2+z
1/2-x,-y,1/2+z
1/2+x,1/2-y,1/2-z
1/2-x,y,1/2-z
1/2-x,1/2-y,1/2-z
1/2+x,y,1/2-z
1/2-x,1/2+y,1/2+z
1/2+x,-y,1/2+z
loop_
_atom_site_type_symbol
_atom_site_label
_atom_site_fract_x
_atom_site_fract_y
_atom_site_fract_z
Si Si1 0.235741 0.611464 0.888547
Si Si2 0.342215 0.647737 0.774088
Si Si3 0.753165 0.750000 0.457984
Si Si4 0.564359 0.145390 0.452501
Si Si5 0.234691 0.407845 0.848727
Si Si6 0.109287 0.354513 0.863467
Si Si7 0.436490 0.527406 0.720207
O O1 0.294995 0.634785 0.845738
O O2 0.189639 0.636595 0.817235
O O3 0.233023 0.503428 0.897519
O O4 0.231124 0.670853 0.973849
O O5 0.364258 0.750000 0.779993
O O6 0.390747 0.574432 0.779977
O O7 0.772315 0.831218 0.391088
O O8 0.500000 0.141882 0.478199
O O9 0.577421 0.250000 0.429631
O O10 0.597927 0.118956 0.537026
O O11 0.570456 0.081605 0.370414
O O12 0.250000 0.429453 0.750000
O O13 0.174247 0.362815 0.848788
O O14 0.091728 0.250000 0.854181
O O15 0.078274 0.423999 0.801351
O O16 0.500000 0.537392 0.747692
#
# Coordination Sequence:
#
# PCOD9540269 Si02
#       7
#    16  16   8  16  16  16  16
#     4  11  21  40  60  87 115 166 204 252 301 371
#     4  11  20  37  64  79 119 157 202 248 309 360
#     4  12  25  35  60  94 118 156 216 255 303 373
#     4   9  19  33  48  73 110 146 191 241 285 341
#     4  12  24  41  58  85 127 163 199 259 313 368
#     4  11  22  35  52  73 105 165 202 240 293 356
#     4  11  22  34  53  82 115 153 198 249 300 363
#
# _framework density 18.763987
#
# number of rings (size 3 to 8) (size 9 to 14) (size 15 to 20)
#    0.000    1.077    5.385    2.538    2.154    4.308 
#    0.000    0.000    0.000    0.000    0.000    0.000 
#    0.000   17.231    0.000    0.000    0.000    0.000 
#
# Total GULP energy -289575.669244 kJ/mol
# GULP energy per Si atom -5568.762870 kJ/mol
# Density = 1.872128 g / cm^3
# Si number density = 18.763987 Si / 1000 Ang^3
#
#
#
# Elastic Constant Matrix: (Units=GPa)
#
#
# Indices 1 2 3 4 5 6 
#
# 1 75.9434 -5.0829 0.4986 0.0000 0.0000 0.0000
# 2 -5.0829 136.0005 13.3377 0.0000 0.0000 0.0000
# 3 0.4986 13.3377 28.1376 0.0000 0.0000 0.0000
# 4 0.0000 0.0000 0.0000 23.4056 0.0000 0.0000
# 5 0.0000 0.0000 0.0000 0.0000 18.2961 0.0000
# 6 0.0000 0.0000 0.0000 0.0000 0.0000 16.8779
#
#
#
# Elastic Compliance Matrix: (Units=1/GPa)
#
#
# Indices 1 2 3 4 5 6 
#
# 1 0.013207 0.000542 -0.000491 0.000000 0.000000 0.000000
# 2 0.000542 0.007734 -0.003675 0.000000 0.000000 0.000000
# 3 -0.000491 -0.003675 0.037291 0.000000 0.000000 0.000000
# 4 0.000000 0.000000 0.000000 0.042725 0.000000 0.000000
# 5 0.000000 0.000000 0.000000 0.000000 0.054656 0.000000
# 6 0.000000 0.000000 0.000000 0.000000 0.000000 0.059249
#
#
# Mechanical properties :
#
#
# Convention : Reuss Voigt Hill
#
# Bulk Modulus (GPa) = 19.61465 28.62092 24.11778
# Shear Modulus (GPa) = 20.91132 27.13779 24.02455
#
# Velocity S-wave (km/s) = 3.34194 3.80711 3.58209
# Velocity P-wave (km/s) = 5.03661 5.88317 5.47627
#
# Compressibility (1/GPa) = 0.05098230
#
# Stress axis : x y z
#
# Youngs Moduli (GPa) = 75.71636 129.30566 26.81645
#
# Poissons Ratio (x) = -0.07005 0.01316
# Poissons Ratio (y) = -0.04102 0.09856
# Poissons Ratio (z) = 0.03716 0.47526
#
# Static dielectric constant tensor:
#      x y z
#    x 1.680030 0.000000 0.000000 
#    y 0.000000 1.694180 0.000000 
#    z 0.000000 0.000000 1.656270 
# 
# From -- ./inp_files/36536.got.cif
#   From: 2010.05.17/outbox.cif.g08.bks.cpg/sg74_19_cif.got.tgz:36536.got - 2010.06.03 17:57:02.
