data_PCOD9540595
_publ_section_title
;
Structure prediction by ZEFSAII (Michael W. Deem and Ramdas Pophale) SiO2 
 PCOD9540595
Probable space group: I M M A
;
_chemical_formula_sum "Si O2"
_cell_formula_units_Z 52
_cell_length_a 14.250566
_cell_length_b 15.361224
_cell_length_c 11.846297
_cell_angle_alpha 90.000000
_cell_angle_beta 90.000000
_cell_angle_gamma 90.000000
_cell_volume 2593.227108
_symmetry_space_group_name_H-M "I M M A"
_symmetry_group_IT_number 74
_symmetry_cell_setting 'orthorhombic'
loop_
_space_group_symop_operation_xyz
x,y,z
-x,1/2-y,z
x,-y,-z
-x,1/2+y,-z
-x,-y,-z
x,1/2+y,-z
-x,y,z
x,1/2-y,z
1/2+x,1/2+y,1/2+z
1/2-x,-y,1/2+z
1/2+x,1/2-y,1/2-z
1/2-x,y,1/2-z
1/2-x,1/2-y,1/2-z
1/2+x,y,1/2-z
1/2-x,1/2+y,1/2+z
1/2+x,-y,1/2+z
loop_
_atom_site_type_symbol
_atom_site_label
_atom_site_fract_x
_atom_site_fract_y
_atom_site_fract_z
Si Si1 0.242332 0.851549 0.568404
Si Si2 0.833505 0.607502 0.330603
Si Si3 0.000000 0.250000 0.664415
Si Si4 0.389548 0.416602 0.257300
O O1 0.260573 0.750000 0.543676
O O2 0.210163 0.899186 0.455372
O O3 0.332121 0.894103 0.629406
O O4 0.158122 0.858546 0.659450
O O5 0.750000 0.638833 0.250000
O O6 0.918159 0.674428 0.335613
O O7 0.868109 0.515104 0.281778
O O8 0.500000 0.402127 0.268133
#
# Coordination Sequence:
#
# PCOD9540595 Si02
#       4
#    16  16   4  16
#     4  11  25  44  70 101 141 188 230 295 345 408
#     4  12  25  47  69 104 142 180 232 292 348 411
#     4  12  26  44  74 106 132 194 232 286 346 416
#     4  11  24  43  71 102 136 184 237 284 350 416
#
# _framework density 20.052235
#
# number of rings (size 3 to 8) (size 9 to 14) (size 15 to 20)
#    0.000    0.615    6.154    3.231    2.154    3.692 
#    2.769    1.538    0.000    0.000    0.000    0.000 
#    0.000    0.000    0.000    0.000    0.000    0.000 
#
# Total GULP energy -144888.222590 kJ/mol
# GULP energy per Si atom -5572.623946 kJ/mol
# Density = 2.000659 g / cm^3
# Si number density = 20.052235 Si / 1000 Ang^3
#
#
#
# Elastic Constant Matrix: (Units=GPa)
#
#
# Indices 1 2 3 4 5 6 
#
# 1 208.9907 27.5815 94.5998 0.0000 0.0000 0.0000
# 2 27.5815 116.4546 26.5539 0.0000 0.0000 0.0000
# 3 94.5998 26.5539 75.6548 0.0000 0.0000 0.0000
# 4 0.0000 0.0000 0.0000 8.6112 0.0000 0.0000
# 5 0.0000 0.0000 0.0000 0.0000 0.9598 0.0000
# 6 0.0000 0.0000 0.0000 0.0000 0.0000 55.8597
#
#
#
# Elastic Compliance Matrix: (Units=1/GPa)
#
#
# Indices 1 2 3 4 5 6 
#
# 1 0.011061 0.000580 -0.014035 0.000000 0.000000 0.000000
# 2 0.000580 0.009365 -0.004013 0.000000 0.000000 0.000000
# 3 -0.014035 -0.004013 0.032175 0.000000 0.000000 0.000000
# 4 0.000000 0.000000 0.000000 0.116127 0.000000 0.000000
# 5 0.000000 0.000000 0.000000 0.000000 1.041919 0.000000
# 6 0.000000 0.000000 0.000000 0.000000 0.000000 0.017902
#
#
# Mechanical properties :
#
#
# Convention : Reuss Voigt Hill
#
# Bulk Modulus (GPa) = 56.60150 77.61892 67.11021
# Shear Modulus (GPa) = 3.93896 29.91046 16.92471
#
# Velocity S-wave (km/s) = 1.40307 3.86635 2.90837
# Velocity P-wave (km/s) = 5.55996 7.66315 6.69466
#
# Compressibility (1/GPa) = 0.01766738
#
# Stress axis : x y z
#
# Youngs Moduli (GPa) = 90.40680 106.78602 31.07956
#
# Poissons Ratio (x) = -0.06198 0.43619
# Poissons Ratio (y) = -0.05248 0.12471
# Poissons Ratio (z) = 1.26883 0.42849
#
# Static dielectric constant tensor:
#      x y z
#    x 1.666530 0.000000 0.000000 
#    y 0.000000 1.729170 0.000000 
#    z 0.000000 0.000000 1.721390 
# 
# From -- ./inp_files/19565.got.cif
#   From: 2010.05.17/outbox.cif.g08.bks.cpg/sg74_10_cif.got.tgz:19565.got - 2010.06.03 17:57:02.
