data_PCOD9540810
_publ_section_title
;
Structure prediction by ZEFSAII (Michael W. Deem and Ramdas Pophale) SiO2 
 PCOD9540810
Probable space group: I M M A
;
_chemical_formula_sum "Si O2"
_cell_formula_units_Z 34
_cell_length_a 21.000000
_cell_length_b 15.000000
_cell_length_c 12.000000
_cell_angle_alpha 90.000000
_cell_angle_beta 90.000000
_cell_angle_gamma 90.000000
_cell_volume 3780.000000
_symmetry_space_group_name_H-M "I M M A"
_symmetry_group_IT_number 74
_symmetry_cell_setting 'orthorhombic'
loop_
_space_group_symop_operation_xyz
x,y,z
-x,1/2-y,z
x,-y,-z
-x,1/2+y,-z
-x,-y,-z
x,1/2+y,-z
-x,y,z
x,1/2-y,z
1/2+x,1/2+y,1/2+z
1/2-x,-y,1/2+z
1/2+x,1/2-y,1/2-z
1/2-x,y,1/2-z
1/2-x,1/2-y,1/2-z
1/2+x,y,1/2-z
1/2-x,1/2+y,1/2+z
1/2+x,-y,1/2+z
loop_
_atom_site_type_symbol
_atom_site_label
_atom_site_fract_x
_atom_site_fract_y
_atom_site_fract_z
Si Si1 0.000000 0.250000 0.309511
Si Si2 0.108264 0.500000 0.500000
Si Si3 0.924869 0.250000 0.956791
Si Si4 0.364663 0.250000 0.306616
Si Si5 0.573226 0.451312 0.620938
Si Si6 0.824242 0.945055 0.727823
Si Si7 0.000000 0.855695 0.476140
O O1 0.063738 0.250000 0.240509
O O2 0.000000 0.335071 0.391454
O O3 0.151809 0.536781 0.601280
O O4 0.061744 0.581070 0.456495
O O5 0.916596 0.344511 0.893180
O O6 0.000000 0.250000 0.992908
O O7 0.876185 0.250000 0.060568
O O8 0.332714 0.340978 0.262752
O O9 0.576141 0.500000 0.500000
O O10 0.500000 0.464596 0.662506
O O11 0.626569 0.497528 0.696714
O O12 0.750000 0.969053 0.750000
O O13 0.000000 0.750000 0.431055
#
# Coordination Sequence:
#
# PCOD9540810 Si02
#       7
#     4   8   8   8  16  16   8
#     4  10  18  34  66  98 120 150 216 274 316 358
#     4  11  24  40  66  96 129 168 214 262 325 378
#     4  10  20  37  64 102 131 159 211 274 321 370
#     4  12  21  38  68  97 124 163 219 269 321 373
#     4  10  22  40  66  96 127 165 212 265 320 370
#     4  12  27  43  64  94 133 174 213 262 320 388
#     4   9  19  40  65  95 125 159 211 268 317 372
#
# _framework density 8.9947090000000003
#
# number of rings (size 3 to 8) (size 9 to 14) (size 15 to 20)
#    0.353    0.941    5.294    0.353    6.588    0.000 
#    2.118    0.588    0.000    0.000    0.000    0.000 
#    0.000    0.000    0.000    0.000    0.000    0.000 
#
# Total GULP energy -189706.364887 kJ/mol
# GULP energy per Si atom -5579.598967 kJ/mol
# Density = 0.897424 g / cm^3
# Si number density = 8.994709 Si / 1000 Ang^3
#
#
#
# Elastic Constant Matrix: (Units=GPa)
#
#
# Indices 1 2 3 4 5 6 
#
# 1 148.5122 55.3403 56.2618 0.0000 0.0000 0.0000
# 2 55.3403 159.0235 37.6531 0.0000 0.0000 0.0000
# 3 56.2618 37.6531 74.4363 0.0000 0.0000 0.0000
# 4 0.0000 0.0000 0.0000 24.7543 0.0000 0.0000
# 5 0.0000 0.0000 0.0000 0.0000 22.1198 0.0000
# 6 0.0000 0.0000 0.0000 0.0000 0.0000 14.6320
#
#
#
# Elastic Compliance Matrix: (Units=1/GPa)
#
#
# Indices 1 2 3 4 5 6 
#
# 1 0.009918 -0.001905 -0.006533 0.000000 0.000000 0.000000
# 2 -0.001905 0.007510 -0.002359 0.000000 0.000000 0.000000
# 3 -0.006533 -0.002359 0.019566 0.000000 0.000000 0.000000
# 4 0.000000 0.000000 0.000000 0.040397 0.000000 0.000000
# 5 0.000000 0.000000 0.000000 0.000000 0.045208 0.000000
# 6 0.000000 0.000000 0.000000 0.000000 0.000000 0.068344
#
#
# Mechanical properties :
#
#
# Convention : Reuss Voigt Hill
#
# Bulk Modulus (GPa) = 64.93596 75.60918 70.27257
# Shear Modulus (GPa) = 22.97061 27.81567 25.39314
#
# Velocity S-wave (km/s) = 3.57724 3.93647 3.76115
# Velocity P-wave (km/s) = 7.29639 7.92352 7.61641
#
# Compressibility (1/GPa) = 0.01539979
#
# Stress axis : x y z
#
# Youngs Moduli (GPa) = 100.82537 133.15939 51.11007
#
# Poissons Ratio (x) = 0.25362 0.33391
# Poissons Ratio (y) = 0.19204 0.12058
# Poissons Ratio (z) = 0.65870 0.31415
#
# Static dielectric constant tensor:
#      x y z
#    x 1.596920 0.000000 0.000000 
#    y 0.000000 1.627270 0.000000 
#    z 0.000000 0.000000 1.641240 
# 
# From -- ./inp_files/23464.got.cif
#   From: 2010.05.17/outbox.ucp.g08.bks.cvg/sg74_12_cif.got.tgz:23464.got - 2010.06.11 16:37:44.
