data_PCOD9540981
_publ_section_title
;
Structure prediction by ZEFSAII (Michael W. Deem and Ramdas Pophale) SiO2 
 PCOD9540981
Probable space group: I M M A
;
_chemical_formula_sum "Si O2"
_cell_formula_units_Z 40
_cell_length_a 27.000000
_cell_length_b 9.000000
_cell_length_c 18.000000
_cell_angle_alpha 90.000000
_cell_angle_beta 90.000000
_cell_angle_gamma 90.000000
_cell_volume 4374.000000
_symmetry_space_group_name_H-M "I M M A"
_symmetry_group_IT_number 74
_symmetry_cell_setting 'orthorhombic'
loop_
_space_group_symop_operation_xyz
x,y,z
-x,1/2-y,z
x,-y,-z
-x,1/2+y,-z
-x,-y,-z
x,1/2+y,-z
-x,y,z
x,1/2-y,z
1/2+x,1/2+y,1/2+z
1/2-x,-y,1/2+z
1/2+x,1/2-y,1/2-z
1/2-x,y,1/2-z
1/2-x,1/2-y,1/2-z
1/2+x,y,1/2-z
1/2-x,1/2+y,1/2+z
1/2+x,-y,1/2+z
loop_
_atom_site_type_symbol
_atom_site_label
_atom_site_fract_x
_atom_site_fract_y
_atom_site_fract_z
Si Si1 0.149340 0.929286 0.581191
Si Si2 0.853960 0.925455 0.080974
Si Si3 0.742647 0.072028 0.417418
Si Si4 0.053315 0.572041 0.665673
Si Si5 0.056076 0.076038 0.157352
O O1 0.146994 0.750000 0.574455
O O2 0.203364 0.961239 0.616087
O O3 0.102452 0.986024 0.626981
O O4 0.147370 0.000000 0.500000
O O5 0.847624 0.750000 0.074378
O O6 0.805474 0.998671 0.118730
O O7 0.903645 0.969869 0.122554
O O8 0.857773 0.000000 0.000000
O O9 0.736482 0.250000 0.422560
O O10 0.744677 0.000000 0.500000
O O11 0.052536 0.750000 0.652389
O O12 0.056227 0.555080 0.754030
O O13 0.000000 0.511415 0.639639
O O14 0.068005 0.250000 0.142162
O O15 0.000000 0.048753 0.130663
#
# Coordination Sequence:
#
# PCOD9540981 Si02
#       5
#    16  16  16  16  16
#     4   9  17  29  48  74 100 128 162 199 238 279
#     4  11  21  33  51  73  97 124 156 196 239 285
#     4   9  16  28  46  68  96 127 159 195 235 280
#     4   8  15  30  51  72  96 128 164 199 236 281
#     4   9  18  34  54  72  93 125 162 198 237 281
#
# _framework density 9.1449470000000002
#
# number of rings (size 3 to 8) (size 9 to 14) (size 15 to 20)
#    0.000    2.800    0.000    4.800    0.000    2.000 
#    0.000    2.000    0.000    7.200    0.000    0.000 
#    0.000    0.000    0.000    0.000    0.000    0.000 
#
# Total GULP energy -222675.662278 kJ/mol
# GULP energy per Si atom -5566.891557 kJ/mol
# Density = 0.912413 g / cm^3
# Si number density = 9.144947 Si / 1000 Ang^3
#
#
#
# Elastic Constant Matrix: (Units=GPa)
#
#
# Indices 1 2 3 4 5 6 
#
# 1 155.5936 62.9130 33.0363 0.0000 0.0000 0.0000
# 2 62.9130 72.9131 14.4410 0.0000 0.0000 0.0000
# 3 33.0363 14.4410 5.9623 0.0000 0.0000 0.0000
# 4 0.0000 0.0000 0.0000 14.5397 0.0000 0.0000
# 5 0.0000 0.0000 0.0000 0.0000 84.3744 0.0000
# 6 0.0000 0.0000 0.0000 0.0000 0.0000 17.2297
#
#
#
# Elastic Compliance Matrix: (Units=1/GPa)
#
#
# Indices 1 2 3 4 5 6 
#
# 1 -0.028436 -0.012820 0.188610 0.000000 0.000000 0.000000
# 2 -0.012820 0.020581 0.021185 0.000000 0.000000 0.000000
# 3 0.188610 0.021185 -0.928653 0.000000 0.000000 0.000000
# 4 0.000000 0.000000 0.000000 0.068777 0.000000 0.000000
# 5 0.000000 0.000000 0.000000 0.000000 0.011852 0.000000
# 6 0.000000 0.000000 0.000000 0.000000 0.000000 0.058039
#
#
# Mechanical properties :
#
#
# Convention : Reuss Voigt Hill
#
# Bulk Modulus (GPa) = -1.84312 50.58330 24.37009
# Shear Modulus (GPa) = -3.64261 31.50066 13.92902
#
# Velocity S-wave (km/s) = -1.41277 4.15456 2.76265
# Velocity P-wave (km/s) = 1.91602 7.12252 4.85073
#
# Compressibility (1/GPa) = -0.54255831
#
# Stress axis : x y z
#
# Youngs Moduli (GPa) = -35.16685 48.58954 -1.07683
#
# Poissons Ratio (x) = 0.62290 0.20310
# Poissons Ratio (y) = -0.45083 0.02281
# Poissons Ratio (z) = 6.63280 -1.02937
#
# Static dielectric constant tensor:
#      x y z
#    x 1.722200 0.000000 0.000000 
#    y 0.000000 1.624480 0.000000 
#    z 0.000000 0.000000 1.609290 
# 
# From -- ./inp_files/39728.got.cif
#   From: 2010.05.17/outbox.ucp.g08.bks.cvg/sg74_20_cif.got.tgz:39728.got - 2010.06.11 16:37:44.
