data_PCOD9540450
_publ_section_title
;
Structure prediction by ZEFSAII (Michael W. Deem and Ramdas Pophale) SiO2 
 PCOD9540450
Probable space group: I M M A
;
_chemical_formula_sum "Si O2"
_cell_formula_units_Z 48
_cell_length_a 21.578683
_cell_length_b 22.468832
_cell_length_c 5.084744
_cell_angle_alpha 90.000000
_cell_angle_beta 90.000000
_cell_angle_gamma 90.000000
_cell_volume 2465.326958
_symmetry_space_group_name_H-M "I M M A"
_symmetry_group_IT_number 74
_symmetry_cell_setting 'orthorhombic'
loop_
_space_group_symop_operation_xyz
x,y,z
-x,1/2-y,z
x,-y,-z
-x,1/2+y,-z
-x,-y,-z
x,1/2+y,-z
-x,y,z
x,1/2-y,z
1/2+x,1/2+y,1/2+z
1/2-x,-y,1/2+z
1/2+x,1/2-y,1/2-z
1/2-x,y,1/2-z
1/2-x,1/2-y,1/2-z
1/2+x,y,1/2-z
1/2-x,1/2+y,1/2+z
1/2+x,-y,1/2+z
loop_
_atom_site_type_symbol
_atom_site_label
_atom_site_fract_x
_atom_site_fract_y
_atom_site_fract_z
Si Si1 0.000000 0.959405 0.250882
Si Si2 0.424775 0.180269 0.064321
Si Si3 0.793309 0.500000 0.000000
Si Si4 0.616977 0.886979 0.406808
O O1 0.060971 0.921634 0.230459
O O2 0.000000 0.000000 0.500000
O O3 0.000000 0.000000 0.000000
O O4 0.500000 0.172359 0.018041
O O5 0.417562 0.250000 0.127844
O O6 0.404209 0.140829 0.315341
O O7 0.379830 0.164678 0.815478
O O8 0.750000 0.509843 0.750000
O O9 0.832652 0.439123 0.952072
#
# Coordination Sequence:
#
# PCOD9540450 Si02
#       4
#     8  16   8  16
#     4  12  22  34  59  98 129 160 194 251 329 390
#     4  11  22  38  63 100 136 164 198 247 318 392
#     4  12  28  45  64  89 122 170 220 268 312 360
#     4  12  23  40  65  91 132 167 204 259 317 382
#
# _framework density 19.470036
#
# number of rings (size 3 to 8) (size 9 to 14) (size 15 to 20)
#    0.000    0.333    5.000    5.000    2.333    2.667 
#    0.000    0.000    0.000   20.000    0.000    0.000 
#    0.000    0.000    0.000    0.000    0.000    0.000 
#
# Total GULP energy -133790.251082 kJ/mol
# GULP energy per Si atom -5574.593795 kJ/mol
# Density = 1.942572 g / cm^3
# Si number density = 19.470036 Si / 1000 Ang^3
#
#
#
# Elastic Constant Matrix: (Units=GPa)
#
#
# Indices 1 2 3 4 5 6 
#
# 1 96.1250 60.3800 42.0896 0.0000 0.0000 0.0000
# 2 60.3800 122.0945 46.1755 0.0000 0.0000 0.0000
# 3 42.0896 46.1755 138.3897 0.0000 0.0000 0.0000
# 4 0.0000 0.0000 0.0000 44.5251 0.0000 0.0000
# 5 0.0000 0.0000 0.0000 0.0000 14.3421 0.0000
# 6 0.0000 0.0000 0.0000 0.0000 0.0000 14.4335
#
#
#
# Elastic Compliance Matrix: (Units=1/GPa)
#
#
# Indices 1 2 3 4 5 6 
#
# 1 0.015823 -0.006872 -0.002519 0.000000 0.000000 0.000000
# 2 -0.006872 0.012358 -0.002033 0.000000 0.000000 0.000000
# 3 -0.002519 -0.002033 0.008671 0.000000 0.000000 0.000000
# 4 0.000000 0.000000 0.000000 0.022459 0.000000 0.000000
# 5 0.000000 0.000000 0.000000 0.000000 0.069725 0.000000
# 6 0.000000 0.000000 0.000000 0.000000 0.000000 0.069283
#
#
# Mechanical properties :
#
#
# Convention : Reuss Voigt Hill
#
# Bulk Modulus (GPa) = 71.41933 72.65549 72.03741
# Shear Modulus (GPa) = 22.13997 28.52441 25.33219
#
# Velocity S-wave (km/s) = 3.37579 3.83174 3.61097
# Velocity P-wave (km/s) = 7.20805 7.54810 7.38003
#
# Compressibility (1/GPa) = 0.01400181
#
# Stress axis : x y z
#
# Youngs Moduli (GPa) = 63.19919 80.91987 115.33180
#
# Poissons Ratio (x) = 0.55610 0.29056
# Poissons Ratio (y) = 0.43432 0.23450
# Poissons Ratio (z) = 0.15922 0.16453
#
# Static dielectric constant tensor:
#      x y z
#    x 1.662860 0.000000 0.000000 
#    y 0.000000 1.821240 0.000000 
#    z 0.000000 0.000000 1.710010 
# 
# From -- ./inp_files/2687.got.cif
#   From: 2010.05.17/outbox.cif.g08.bks.cpg/sg74_2_cif.got.tgz:2687.got - 2010.06.03 17:57:02.
