data_PCOD9540492
_publ_section_title
;
Structure prediction by ZEFSAII (Michael W. Deem and Ramdas Pophale) SiO2 
 PCOD9540492
Probable space group: I M M A
;
_chemical_formula_sum "Si O2"
_cell_formula_units_Z 96
_cell_length_a 18.810774
_cell_length_b 31.163967
_cell_length_c 9.684896
_cell_angle_alpha 90.000000
_cell_angle_beta 90.000000
_cell_angle_gamma 90.000000
_cell_volume 5677.463658
_symmetry_space_group_name_H-M "I M M A"
_symmetry_group_IT_number 74
_symmetry_cell_setting 'orthorhombic'
loop_
_space_group_symop_operation_xyz
x,y,z
-x,1/2-y,z
x,-y,-z
-x,1/2+y,-z
-x,-y,-z
x,1/2+y,-z
-x,y,z
x,1/2-y,z
1/2+x,1/2+y,1/2+z
1/2-x,-y,1/2+z
1/2+x,1/2-y,1/2-z
1/2-x,y,1/2-z
1/2-x,1/2-y,1/2-z
1/2+x,y,1/2-z
1/2-x,1/2+y,1/2+z
1/2+x,-y,1/2+z
loop_
_atom_site_type_symbol
_atom_site_label
_atom_site_fract_x
_atom_site_fract_y
_atom_site_fract_z
Si Si1 0.086266 0.201463 0.704994
Si Si2 0.819669 0.487043 0.158483
Si Si3 0.413914 0.625002 0.003017
Si Si4 0.833017 0.387244 0.217652
Si Si5 0.584934 0.641816 0.457141
Si Si6 0.084005 0.936815 0.253254
O O1 0.112230 0.250000 0.689073
O O2 0.107405 0.168422 0.584467
O O3 0.104217 0.180251 0.852416
O O4 0.000000 0.202192 0.701397
O O5 0.750000 0.493745 0.250000
O O6 0.839855 0.437236 0.173851
O O7 0.878365 0.519166 0.217857
O O8 0.807006 0.500000 0.000000
O O9 0.500000 0.624720 0.991036
O O10 0.377243 0.620777 0.856482
O O11 0.392801 0.585682 0.103967
O O12 0.750000 0.378805 0.250000
O O13 0.867192 0.360350 0.092714
O O14 0.500000 0.644313 0.488975
O O15 0.595954 0.598471 0.366950
O O16 0.000000 0.943502 0.262305
#
# Coordination Sequence:
#
# PCOD9540492 Si02
#       6
#    16  16  16  16  16  16
#     4   8  15  32  60  87 105 128 169 216 263 317
#     4  11  24  37  52  73 105 143 185 226 259 302
#     4   9  19  35  55  80 108 136 169 215 265 315
#     4  11  23  35  50  75 106 144 181 214 260 307
#     4   9  17  33  55  79 105 133 170 218 263 309
#     4   9  19  34  54  76 101 136 175 217 265 309
#
# _framework density 16.908957999999998
#
# number of rings (size 3 to 8) (size 9 to 14) (size 15 to 20)
#    0.000    2.500    1.667    2.500    4.667    1.667 
#    0.000    5.000    0.000    7.000    0.000    0.000 
#    0.000    0.000    0.000    0.000    0.000    0.000 
#
# Total GULP energy -267622.739476 kJ/mol
# GULP energy per Si atom -5575.473739 kJ/mol
# Density = 1.687047 g / cm^3
# Si number density = 16.908958 Si / 1000 Ang^3
#
#
#
# Elastic Constant Matrix: (Units=GPa)
#
#
# Indices 1 2 3 4 5 6 
#
# 1 31.9753 29.1717 46.3306 -0.0017 -0.0002 -0.0004
# 2 29.1717 72.3606 55.7843 -0.0021 -0.0002 -0.0003
# 3 46.3306 55.7843 156.8257 -0.0089 0.0004 -0.0007
# 4 -0.0017 -0.0021 -0.0089 -22.9464 0.0022 0.0038
# 5 -0.0002 -0.0002 0.0004 0.0022 23.0942 -0.0013
# 6 -0.0004 -0.0003 -0.0007 0.0038 -0.0013 19.4096
#
#
#
# Elastic Compliance Matrix: (Units=1/GPa)
#
#
# Indices 1 2 3 4 5 6 
#
# 1 0.065699 -0.015877 -0.013762 0.000002 0.000001 0.000001
# 2 -0.015877 0.022878 -0.003447 0.000000 0.000000 0.000000
# 3 -0.013762 -0.003447 0.011668 -0.000003 0.000000 0.000000
# 4 0.000002 0.000000 -0.000003 -0.043580 0.000004 0.000009
# 5 0.000001 0.000000 0.000000 0.000004 0.043301 0.000003
# 6 0.000001 0.000000 0.000000 0.000009 0.000003 0.051521
#
#
# Mechanical properties :
#
#
# Convention : Reuss Voigt Hill
#
# Bulk Modulus (GPa) = 29.34856 58.19277 43.77066
# Shear Modulus (GPa) = 21.83242 12.56980 17.20111
#
# Velocity S-wave (km/s) = 3.59719 2.72946 3.19294
# Velocity P-wave (km/s) = 5.88621 6.66508 6.28772
#
# Compressibility (1/GPa) = 0.03407322
#
# Stress axis : x y z
#
# Youngs Moduli (GPa) = 15.22096 43.71004 85.70171
#
# Poissons Ratio (x) = 0.69398 1.17940
# Poissons Ratio (y) = 0.24166 0.29545
# Poissons Ratio (z) = 0.20947 0.15069
#
# Static dielectric constant tensor:
#      x y z
#    x 1.564810 0.000000 0.000000 
#    y 0.000000 1.573620 0.000000 
#    z 0.000000 0.000000 1.560310 
# 
# From -- ./inp_files/12689.got.cif
#   From: 2010.05.17/outbox.cif.g08.bks.cpg/sg74_7_cif.got.tgz:12689.got - 2010.06.03 17:57:02.
