data_PCOD9540000
_publ_section_title
;
Structure prediction by ZEFSAII (Michael W. Deem and Ramdas Pophale) SiO2 
 PCOD9540000
Probable space group: I M M A
;
_chemical_formula_sum "Si O2"
_cell_formula_units_Z 48
_cell_length_a 12.719524
_cell_length_b 9.302061
_cell_length_c 22.135282
_cell_angle_alpha 90.000000
_cell_angle_beta 90.000000
_cell_angle_gamma 90.000000
_cell_volume 2618.997606
_symmetry_space_group_name_H-M "I M M A"
_symmetry_group_IT_number 74
_symmetry_cell_setting 'orthorhombic'
loop_
_space_group_symop_operation_xyz
x,y,z
-x,1/2-y,z
x,-y,-z
-x,1/2+y,-z
-x,-y,-z
x,1/2+y,-z
-x,y,z
x,1/2-y,z
1/2+x,1/2+y,1/2+z
1/2-x,-y,1/2+z
1/2+x,1/2-y,1/2-z
1/2-x,y,1/2-z
1/2-x,1/2-y,1/2-z
1/2+x,y,1/2-z
1/2-x,1/2+y,1/2+z
1/2+x,-y,1/2+z
loop_
_atom_site_type_symbol
_atom_site_label
_atom_site_fract_x
_atom_site_fract_y
_atom_site_fract_z
Si Si1 0.323545 0.421782 0.939486
Si Si2 0.500000 0.578377 0.156976
Si Si3 0.000000 0.918937 0.783025
Si Si4 0.882034 0.919052 0.900270
O O1 0.324619 0.250000 0.947362
O O2 0.398474 0.459725 0.883314
O O3 0.206883 0.480261 0.926395
O O4 0.361934 0.500000 0.000000
O O5 0.500000 0.750000 0.164538
O O6 0.500000 0.506447 0.222116
O O7 0.098181 0.946030 0.828519
O O8 0.000000 0.750000 0.769229
O O9 0.855616 0.750000 0.908427
O O10 0.000000 0.941343 0.926176
#
# Coordination Sequence:
#
# PCOD9540000 Si02
#       4
#    16   8   8  16
#     4  11  23  38  57  81 111 149 188 229 275 326
#     4  10  23  39  55  81 115 148 185 228 276 326
#     4   8  18  37  60  85 111 144 182 224 275 328
#     4   8  18  38  59  84 113 142 181 226 275 330
#
# _framework density 18.327624
#
# number of rings (size 3 to 8) (size 9 to 14) (size 15 to 20)
#    1.000    1.667    0.000    1.500    0.000    6.667 
#    0.000    6.667    0.000    0.000    0.000    0.000 
#    0.000    0.000    0.000    0.000    0.000    0.000 
#
# Total GULP energy -133709.571416 kJ/mol
# GULP energy per Si atom -5571.232142 kJ/mol
# Density = 1.828591 g / cm^3
# Si number density = 18.327624 Si / 1000 Ang^3
#
#
#
# Elastic Constant Matrix: (Units=GPa)
#
#
# Indices 1 2 3 4 5 6 
#
# 1 59.5416 26.5197 9.7546 0.0000 0.0000 0.0000
# 2 26.5197 49.1265 34.2848 0.0000 0.0000 0.0000
# 3 9.7546 34.2848 85.6044 0.0000 0.0000 0.0000
# 4 0.0000 0.0000 0.0000 40.0269 0.0000 0.0000
# 5 0.0000 0.0000 0.0000 0.0000 18.2842 0.0000
# 6 0.0000 0.0000 0.0000 0.0000 0.0000 10.4529
#
#
#
# Elastic Compliance Matrix: (Units=1/GPa)
#
#
# Indices 1 2 3 4 5 6 
#
# 1 0.022736 -0.014525 0.003227 0.000000 0.000000 0.000000
# 2 -0.014525 0.037532 -0.013377 0.000000 0.000000 0.000000
# 3 0.003227 -0.013377 0.016671 0.000000 0.000000 0.000000
# 4 0.000000 0.000000 0.000000 0.024983 0.000000 0.000000
# 5 0.000000 0.000000 0.000000 0.000000 0.054692 0.000000
# 6 0.000000 0.000000 0.000000 0.000000 0.000000 0.095667
#
#
# Mechanical properties :
#
#
# Convention : Reuss Voigt Hill
#
# Bulk Modulus (GPa) = 36.24635 37.26562 36.75599
# Shear Modulus (GPa) = 16.08607 22.00036 19.04322
#
# Velocity S-wave (km/s) = 2.96581 3.46843 3.22692
# Velocity P-wave (km/s) = 5.61675 6.03466 5.82945
#
# Compressibility (1/GPa) = 0.02758898
#
# Stress axis : x y z
#
# Youngs Moduli (GPa) = 43.98338 26.64393 59.98334
#
# Poissons Ratio (x) = 0.38701 -0.19354
# Poissons Ratio (y) = 0.63887 0.80237
# Poissons Ratio (z) = -0.14192 0.35640
#
# Static dielectric constant tensor:
#      x y z
#    x 1.636680 0.000000 0.000000 
#    y 0.000000 1.598730 0.000000 
#    z 0.000000 0.000000 1.639200 
# 
# From -- ./inp_files/56160.got.cif
#   From: 2010.05.17/outbox.cif.g08.bks.cpg/sg74_29_cif.got.tgz:56160.got - 2010.06.03 17:57:02.
