data_PCOD9540733
_publ_section_title
;
Structure prediction by ZEFSAII (Michael W. Deem and Ramdas Pophale) SiO2 
 PCOD9540733
Probable space group: I M M A
;
_chemical_formula_sum "Si O2"
_cell_formula_units_Z 80
_cell_length_a 7.378618
_cell_length_b 36.245859
_cell_length_c 14.378173
_cell_angle_alpha 90.000000
_cell_angle_beta 90.000000
_cell_angle_gamma 90.000000
_cell_volume 3845.361098
_symmetry_space_group_name_H-M "I M M A"
_symmetry_group_IT_number 74
_symmetry_cell_setting 'orthorhombic'
loop_
_space_group_symop_operation_xyz
x,y,z
-x,1/2-y,z
x,-y,-z
-x,1/2+y,-z
-x,-y,-z
x,1/2+y,-z
-x,y,z
x,1/2-y,z
1/2+x,1/2+y,1/2+z
1/2-x,-y,1/2+z
1/2+x,1/2-y,1/2-z
1/2-x,y,1/2-z
1/2-x,1/2-y,1/2-z
1/2+x,y,1/2-z
1/2-x,1/2+y,1/2+z
1/2+x,-y,1/2+z
loop_
_atom_site_type_symbol
_atom_site_label
_atom_site_fract_x
_atom_site_fract_y
_atom_site_fract_z
Si Si1 0.283351 0.791353 0.358527
Si Si2 0.716489 0.435711 0.639549
Si Si3 0.216403 0.515579 0.861466
Si Si4 0.778219 0.862588 0.033057
Si Si5 0.216338 0.403551 0.141185
O O1 0.500000 0.789902 0.370773
O O2 0.212677 0.750000 0.377250
O O3 0.250000 0.799799 0.250000
O O4 0.213976 0.824513 0.422265
O O5 0.500000 0.436538 0.624976
O O6 0.750000 0.433524 0.750000
O O7 0.785521 0.475781 0.604510
O O8 0.781904 0.398481 0.591485
O O9 0.250000 0.514926 0.750000
O O10 0.286604 0.555892 0.889620
O O11 0.000000 0.515658 0.878396
O O12 0.000000 0.861559 0.036882
O O13 0.721586 0.871597 0.927780
O O14 0.250000 0.397789 0.250000
O O15 0.000000 0.405665 0.130791
#
# Coordination Sequence:
#
# PCOD9540733 Si02
#       5
#    16  16  16  16  16
#     4   9  17  30  48  69  92 116 139 164 200 249
#     4   9  16  26  40  60  86 112 138 170 209 251
#     4   8  14  24  39  57  78 107 140 173 208 245
#     4   9  17  28  44  65  86 110 141 175 209 248
#     4   9  17  30  45  60  81 110 145 181 213 245
#
# _framework density 20.804289000000001
#
# number of rings (size 3 to 8) (size 9 to 14) (size 15 to 20)
#    0.000    3.200    0.000    0.600    0.000    0.800 
#    0.000    6.000    0.000    0.600    0.000   14.000 
#    0.000    0.000    0.000    0.000    0.000    0.000 
#
# Total GULP energy -223077.895002 kJ/mol
# GULP energy per Si atom -5576.947375 kJ/mol
# Density = 2.075694 g / cm^3
# Si number density = 20.804289 Si / 1000 Ang^3
#
#
#
# Elastic Constant Matrix: (Units=GPa)
#
#
# Indices 1 2 3 4 5 6 
#
# 1 77.3159 10.8747 -3.3684 0.0001 0.0000 0.0000
# 2 10.8747 205.0045 111.9724 0.0001 0.0000 0.0000
# 3 -3.3684 111.9724 113.4549 0.0002 0.0000 0.0001
# 4 0.0001 0.0001 0.0002 -31.2327 0.0000 0.0001
# 5 0.0000 0.0000 0.0000 0.0000 9.0685 0.0000
# 6 0.0000 0.0000 0.0001 0.0001 0.0000 -0.8222
#
#
#
# Elastic Compliance Matrix: (Units=1/GPa)
#
#
# Indices 1 2 3 4 5 6 
#
# 1 0.013319 -0.002001 0.002371 0.000000 0.000000 0.000000
# 2 -0.002001 0.010883 -0.010800 0.000000 0.000000 0.000000
# 3 0.002371 -0.010800 0.019544 0.000000 0.000000 0.000001
# 4 0.000000 0.000000 0.000000 -0.032018 0.000000 -0.000004
# 5 0.000000 0.000000 0.000000 0.000000 0.110272 0.000000
# 6 0.000000 0.000000 0.000001 -0.000004 0.000000 -1.216192
#
#
# Mechanical properties :
#
#
# Convention : Reuss Voigt Hill
#
# Bulk Modulus (GPa) = 43.69981 70.52584 57.11282
# Shear Modulus (GPa) = -4.69174 13.82250 4.56538
#
# Velocity S-wave (km/s) = -1.50336 2.58040 1.48297
# Velocity P-wave (km/s) = 4.24704 6.54609 5.51764
#
# Compressibility (1/GPa) = 0.02288340
#
# Stress axis : x y z
#
# Youngs Moduli (GPa) = 75.08227 91.88425 51.16718
#
# Poissons Ratio (x) = 0.18389 -0.12130
# Poissons Ratio (y) = 0.15026 0.55263
# Poissons Ratio (z) = -0.17799 0.99239
#
# Static dielectric constant tensor:
#      x y z
#    x -203.020690 0.000060 0.000200 
#    y 0.000060 1.760670 0.000000 
#    z 0.000200 0.000000 1.744450 
# 
# From -- ./inp_files/18974.got.cif
#   From: 2010.05.17/outbox.cif.g08.bks.cpg/sg74_10_cif.got.tgz:18974.got - 2010.06.03 17:57:02.
