data_PCOD9540316
_publ_section_title
;
Structure prediction by ZEFSAII (Michael W. Deem and Ramdas Pophale) SiO2 
 PCOD9540316
Probable space group: I M M A
;
_chemical_formula_sum "Si O2"
_cell_formula_units_Z 104
_cell_length_a 29.166098
_cell_length_b 20.185509
_cell_length_c 8.337762
_cell_angle_alpha 90.000000
_cell_angle_beta 90.000000
_cell_angle_gamma 90.000000
_cell_volume 4908.711747
_symmetry_space_group_name_H-M "I M M A"
_symmetry_group_IT_number 74
_symmetry_cell_setting 'orthorhombic'
loop_
_space_group_symop_operation_xyz
x,y,z
-x,1/2-y,z
x,-y,-z
-x,1/2+y,-z
-x,-y,-z
x,1/2+y,-z
-x,y,z
x,1/2-y,z
1/2+x,1/2+y,1/2+z
1/2-x,-y,1/2+z
1/2+x,1/2-y,1/2-z
1/2-x,y,1/2-z
1/2-x,1/2-y,1/2-z
1/2+x,y,1/2-z
1/2-x,1/2+y,1/2+z
1/2+x,-y,1/2+z
loop_
_atom_site_type_symbol
_atom_site_label
_atom_site_fract_x
_atom_site_fract_y
_atom_site_fract_z
Si Si1 0.865821 0.391107 0.830882
Si Si2 0.800511 0.998835 0.689342
Si Si3 0.553540 0.947610 0.858038
Si Si4 0.225324 0.675105 0.080885
Si Si5 0.708169 0.357332 0.151347
Si Si6 0.077233 0.500000 0.000000
Si Si7 0.888727 0.673993 0.507682
O O1 0.836555 0.451627 0.760423
O O2 0.827444 0.344916 0.912326
O O3 0.898653 0.429927 0.952338
O O4 0.886668 0.352016 0.677537
O O5 0.750000 0.014571 0.750000
O O6 0.808757 0.922762 0.741013
O O7 0.806390 0.000000 0.500000
O O8 0.500000 0.931666 0.884431
O O9 0.557065 0.979607 0.678312
O O10 0.583366 0.881222 0.890971
O O11 0.567116 0.000000 0.000000
O O12 0.228438 0.750000 0.017861
O O13 0.250000 0.678943 0.250000
O O14 0.258815 0.623069 0.995482
O O15 0.750000 0.324632 0.250000
O O16 0.663470 0.324163 0.078246
O O17 0.906125 0.750000 0.514228
#
# Coordination Sequence:
#
# PCOD9540316 Si02
#       7
#    16  16  16  16  16   8  16
#     4  12  24  39  62 101 142 187 243 301 357 430
#     4  11  21  34  55  83 128 182 249 302 352 396
#     4  11  26  53  84 113 144 183 236 307 384 458
#     4  11  22  39  55  77 128 194 244 286 343 413
#     4  11  24  37  58  91 137 194 250 297 348 418
#     4  12  27  44  80 114 146 178 248 304 373 446
#     4  12  25  46  74 107 150 199 247 305 371 444
#
# _framework density 21.186820999999998
#
# number of rings (size 3 to 8) (size 9 to 14) (size 15 to 20)
#    0.000    0.615    4.615    3.462    7.538    1.538 
#    0.000    0.769    0.000    0.000    0.000    0.000 
#    0.000    0.000    0.000    0.000    0.000    0.000 
#
# Total GULP energy -289656.460103 kJ/mol
# GULP energy per Si atom -5570.316540 kJ/mol
# Density = 2.113860 g / cm^3
# Si number density = 21.186821 Si / 1000 Ang^3
#
#
#
# Elastic Constant Matrix: (Units=GPa)
#
#
# Indices 1 2 3 4 5 6 
#
# 1 71.7197 28.9995 25.4453 0.0000 0.0000 0.0000
# 2 28.9995 126.9426 34.2310 0.0000 0.0000 0.0000
# 3 25.4453 34.2310 93.1032 0.0000 0.0000 0.0000
# 4 0.0000 0.0000 0.0000 14.8760 0.0000 0.0000
# 5 0.0000 0.0000 0.0000 0.0000 25.2621 0.0000
# 6 0.0000 0.0000 0.0000 0.0000 0.0000 10.9750
#
#
#
# Elastic Compliance Matrix: (Units=1/GPa)
#
#
# Indices 1 2 3 4 5 6 
#
# 1 0.016289 -0.002798 -0.003423 0.000000 0.000000 0.000000
# 2 -0.002798 0.009225 -0.002627 0.000000 0.000000 0.000000
# 3 -0.003423 -0.002627 0.012642 0.000000 0.000000 0.000000
# 4 0.000000 0.000000 0.000000 0.067222 0.000000 0.000000
# 5 0.000000 0.000000 0.000000 0.000000 0.039585 0.000000
# 6 0.000000 0.000000 0.000000 0.000000 0.000000 0.091116
#
#
# Mechanical properties :
#
#
# Convention : Reuss Voigt Hill
#
# Bulk Modulus (GPa) = 48.87599 52.12413 50.50006
# Shear Modulus (GPa) = 19.18676 23.76193 21.47434
#
# Velocity S-wave (km/s) = 3.01258 3.35258 3.18712
# Velocity P-wave (km/s) = 5.93464 6.29618 6.11808
#
# Compressibility (1/GPa) = 0.02045994
#
# Stress axis : x y z
#
# Youngs Moduli (GPa) = 61.39093 108.39874 79.10019
#
# Poissons Ratio (x) = 0.30331 0.27077
# Poissons Ratio (y) = 0.17178 0.20780
# Poissons Ratio (z) = 0.21015 0.28477
#
# Static dielectric constant tensor:
#      x y z
#    x 1.733170 0.000000 0.000000 
#    y 0.000000 1.827110 0.000000 
#    z 0.000000 0.000000 1.312120 
# 
# From -- ./inp_files/16219.got.cif
#   From: 2010.05.17/outbox.cif.g08.bks.cpg/sg74_9_cif.got.tgz:16219.got - 2010.06.03 17:57:02.
