data_PCOD9540113
_publ_section_title
;
Structure prediction by ZEFSAII (Michael W. Deem and Ramdas Pophale) SiO2 
 PCOD9540113
Probable space group: I M M A
;
_chemical_formula_sum "Si O2"
_cell_formula_units_Z 96
_cell_length_a 16.557901
_cell_length_b 14.559823
_cell_length_c 21.720620
_cell_angle_alpha 90.000000
_cell_angle_beta 90.000000
_cell_angle_gamma 90.000000
_cell_volume 5236.409411
_symmetry_space_group_name_H-M "I M M A"
_symmetry_group_IT_number 74
_symmetry_cell_setting 'orthorhombic'
loop_
_space_group_symop_operation_xyz
x,y,z
-x,1/2-y,z
x,-y,-z
-x,1/2+y,-z
-x,-y,-z
x,1/2+y,-z
-x,y,z
x,1/2-y,z
1/2+x,1/2+y,1/2+z
1/2-x,-y,1/2+z
1/2+x,1/2-y,1/2-z
1/2-x,y,1/2-z
1/2-x,1/2-y,1/2-z
1/2+x,y,1/2-z
1/2-x,1/2+y,1/2+z
1/2+x,-y,1/2+z
loop_
_atom_site_type_symbol
_atom_site_label
_atom_site_fract_x
_atom_site_fract_y
_atom_site_fract_z
Si Si1 0.402575 0.250000 0.133865
Si Si2 0.500000 0.890703 0.492207
Si Si3 0.000000 0.354055 0.135676
Si Si4 0.852380 0.856281 0.098827
Si Si5 0.142145 0.478484 0.188484
Si Si6 0.668095 0.055441 0.172819
Si Si7 0.404358 0.250000 0.989501
Si Si8 0.820982 0.068350 0.557733
O O1 0.500000 0.250000 0.139844
O O2 0.365942 0.342618 0.162560
O O3 0.380243 0.250000 0.061466
O O4 0.500000 0.853224 0.561410
O O5 0.578014 0.862991 0.452559
O O6 0.500000 0.000000 0.500000
O O7 0.921775 0.408223 0.159746
O O8 0.000000 0.250000 0.158879
O O9 0.842710 0.750000 0.116863
O O10 0.769387 0.896083 0.071369
O O11 0.871907 0.923583 0.155714
O O12 0.233931 0.445470 0.175099
O O13 0.135979 0.481763 0.262098
O O14 0.646862 0.988631 0.116265
O O15 0.500000 0.250000 0.987438
O O16 0.371586 0.341558 0.957867
O O17 0.820494 0.000000 0.500000
#
# Coordination Sequence:
#
# PCOD9540113 Si02
#       8
#     8   8   8  16  16  16   8  16
#     4  11  24  39  65  94 119 162 208 254 323 382
#     4  12  22  41  61  98 133 165 204 254 307 366
#     4  12  26  39  62  95 133 168 207 260 310 373
#     4  11  22  40  67  90 127 169 211 254 306 374
#     4  10  24  43  59  92 128 167 211 253 311 369
#     4  10  24  42  64  89 127 168 207 260 310 376
#     4  11  24  42  63  95 123 153 206 268 323 373
#     4  11  22  42  65  93 123 163 208 261 318 373
#
# _framework density 18.333172999999999
#
# number of rings (size 3 to 8) (size 9 to 14) (size 15 to 20)
#    0.000    1.167    4.167    1.250    5.833    1.667 
#    1.500    1.667    0.000    0.000    0.000    0.000 
#    0.000    0.000    0.000    0.000    0.000    0.000 
#
# Total GULP energy -268222.279278 kJ/mol
# GULP energy per Si atom -5587.964152 kJ/mol
# Density = 1.829145 g / cm^3
# Si number density = 18.333173 Si / 1000 Ang^3
#
#
#
# Elastic Constant Matrix: (Units=GPa)
#
#
# Indices 1 2 3 4 5 6 
#
# 1 47.5888 40.1930 51.6980 0.0000 0.0000 0.0000
# 2 40.1930 183.2924 85.3115 0.0000 0.0000 0.0000
# 3 51.6980 85.3115 164.6953 0.0000 0.0000 0.0000
# 4 0.0000 0.0000 0.0000 -4.9828 0.0000 0.0000
# 5 0.0000 0.0000 0.0000 0.0000 22.0684 0.0000
# 6 0.0000 0.0000 0.0000 0.0000 0.0000 -29.7863
#
#
#
# Elastic Compliance Matrix: (Units=1/GPa)
#
#
# Indices 1 2 3 4 5 6 
#
# 1 0.033259 -0.003207 -0.008779 0.000000 0.000000 0.000000
# 2 -0.003207 0.007498 -0.002877 0.000000 0.000000 0.000000
# 3 -0.008779 -0.002877 0.010318 0.000000 0.000000 0.000000
# 4 0.000000 0.000000 0.000000 -0.200691 0.000000 0.000000
# 5 0.000000 0.000000 0.000000 0.000000 0.045314 0.000000
# 6 0.000000 0.000000 0.000000 0.000000 0.000000 -0.033572
#
#
# Mechanical properties :
#
#
# Convention : Reuss Voigt Hill
#
# Bulk Modulus (GPa) = 46.84147 83.33128 65.08637
# Shear Modulus (GPa) = -49.48907 12.01813 -18.73547
#
# Velocity S-wave (km/s) = -5.20124 2.56313 -3.20025
# Velocity P-wave (km/s) = 3.23495 7.36967 4.68226
#
# Compressibility (1/GPa) = 0.02134861
#
# Stress axis : x y z
#
# Youngs Moduli (GPa) = 30.06726 133.36405 96.91906
#
# Poissons Ratio (x) = 0.42772 0.85082
# Poissons Ratio (y) = 0.09643 0.27887
# Poissons Ratio (z) = 0.26395 0.38373
#
# Static dielectric constant tensor:
#      x y z
#    x 1.618500 0.000000 0.000000 
#    y 0.000000 1.602710 0.000000 
#    z 0.000000 0.000000 1.627250 
# 
# From -- ./inp_files/51980.got.cif
#   From: 2010.05.17/outbox.cif.g08.bks.cpg/sg74_26_cif.got.tgz:51980.got - 2010.06.03 17:57:02.
