data_PCOD9540709
_publ_section_title
;
Structure prediction by ZEFSAII (Michael W. Deem and Ramdas Pophale) SiO2 
 PCOD9540709
Probable space group: I M M A
;
_chemical_formula_sum "Si O2"
_cell_formula_units_Z 80
_cell_length_a 14.396016
_cell_length_b 19.054226
_cell_length_c 12.398919
_cell_angle_alpha 90.000000
_cell_angle_beta 90.000000
_cell_angle_gamma 90.000000
_cell_volume 3401.084762
_symmetry_space_group_name_H-M "I M M A"
_symmetry_group_IT_number 74
_symmetry_cell_setting 'orthorhombic'
loop_
_space_group_symop_operation_xyz
x,y,z
-x,1/2-y,z
x,-y,-z
-x,1/2+y,-z
-x,-y,-z
x,1/2+y,-z
-x,y,z
x,1/2-y,z
1/2+x,1/2+y,1/2+z
1/2-x,-y,1/2+z
1/2+x,1/2-y,1/2-z
1/2-x,y,1/2-z
1/2-x,1/2-y,1/2-z
1/2+x,y,1/2-z
1/2-x,1/2+y,1/2+z
1/2+x,-y,1/2+z
loop_
_atom_site_type_symbol
_atom_site_label
_atom_site_fract_x
_atom_site_fract_y
_atom_site_fract_z
Si Si1 0.369490 0.330093 0.555354
Si Si2 0.100917 0.053548 0.101696
Si Si3 0.815757 0.460645 0.384213
Si Si4 0.647805 0.829425 0.009570
Si Si5 0.860600 0.902398 0.273991
O O1 0.397461 0.250000 0.569291
O O2 0.403487 0.369194 0.449833
O O3 0.257956 0.329940 0.537758
O O4 0.397835 0.375198 0.660346
O O5 0.000000 0.041757 0.155276
O O6 0.206773 0.049589 0.147232
O O7 0.103565 0.000000 0.000000
O O8 0.810894 0.500000 0.500000
O O9 0.862690 0.386141 0.413423
O O10 0.870432 0.517182 0.311832
O O11 0.619556 0.750000 0.984088
O O12 0.607890 0.856537 0.123834
O O13 0.750000 0.894888 0.250000
#
# Coordination Sequence:
#
# PCOD9540709 Si02
#       5
#    16  16  16  16  16
#     4   9  16  24  36  57  80 102 132 169 208 247
#     4   9  16  26  38  52  77 113 144 165 189 237
#     4   8  14  23  34  51  72  99 136 167 195 241
#     4   8  13  21  33  49  71  96 121 156 200 243
#     4   9  14  21  35  52  73  98 127 165 208 246
#
# _framework density 23.521909000000001
#
# number of rings (size 3 to 8) (size 9 to 14) (size 15 to 20)
#    0.000    3.400    0.000    4.200    0.000    2.800 
#    0.000    0.000    0.000    0.600    0.000    1.400 
#    0.000    7.200    0.000    9.200    0.000   17.400 
#
# Total GULP energy -222851.725117 kJ/mol
# GULP energy per Si atom -5571.293128 kJ/mol
# Density = 2.346837 g / cm^3
# Si number density = 23.521909 Si / 1000 Ang^3
#
#
#
# Elastic Constant Matrix: (Units=GPa)
#
#
# Indices 1 2 3 4 5 6 
#
# 1 98.3421 18.4673 28.1122 0.0000 0.0000 0.0000
# 2 18.4673 183.7639 48.0095 0.0000 0.0000 0.0000
# 3 28.1122 48.0095 35.0927 0.0000 0.0000 0.0000
# 4 0.0000 0.0000 0.0000 44.0611 0.0000 0.0000
# 5 0.0000 0.0000 0.0000 0.0000 -12.0263 0.0000
# 6 0.0000 0.0000 0.0000 0.0000 0.0000 -28.7787
#
#
#
# Elastic Compliance Matrix: (Units=1/GPa)
#
#
# Indices 1 2 3 4 5 6 
#
# 1 0.013805 0.002337 -0.014257 0.000000 0.000000 0.000000
# 2 0.002337 0.008864 -0.013999 0.000000 0.000000 0.000000
# 3 -0.014257 -0.013999 0.059069 0.000000 0.000000 0.000000
# 4 0.000000 0.000000 0.000000 0.022696 0.000000 0.000000
# 5 0.000000 0.000000 0.000000 0.000000 -0.083151 0.000000
# 6 0.000000 0.000000 0.000000 0.000000 0.000000 -0.034748
#
#
# Mechanical properties :
#
#
# Convention : Reuss Voigt Hill
#
# Bulk Modulus (GPa) = 33.44385 56.26406 44.85396
# Shear Modulus (GPa) = 103.43607 15.49189 59.46398
#
# Velocity S-wave (km/s) = 6.63851 2.56913 5.03340
# Velocity P-wave (km/s) = 8.54452 5.72472 7.27259
#
# Compressibility (1/GPa) = 0.02990086
#
# Stress axis : x y z
#
# Youngs Moduli (GPa) = 72.43714 112.81193 16.92938
#
# Poissons Ratio (x) = -0.26367 0.24136
# Poissons Ratio (y) = -0.16931 0.23700
# Poissons Ratio (z) = 1.03271 1.57930
#
# Static dielectric constant tensor:
#      x y z
#    x 1.924050 0.000000 0.000000 
#    y 0.000000 1.906050 0.000000 
#    z 0.000000 0.000000 2.009840 
# 
# From -- ./inp_files/33992.got.cif
#   From: 2010.05.17/outbox.cif.g08.bks.cpg/sg74_17_cif.got.tgz:33992.got - 2010.06.03 17:57:02.
