data_PCOD9540170
_publ_section_title
;
Structure prediction by ZEFSAII (Michael W. Deem and Ramdas Pophale) SiO2 
 PCOD9540170
Probable space group: I M M A
;
_chemical_formula_sum "Si O2"
_cell_formula_units_Z 60
_cell_length_a 13.179283
_cell_length_b 15.175610
_cell_length_c 13.023833
_cell_angle_alpha 90.000000
_cell_angle_beta 90.000000
_cell_angle_gamma 90.000000
_cell_volume 2604.814253
_symmetry_space_group_name_H-M "I M M A"
_symmetry_group_IT_number 74
_symmetry_cell_setting 'orthorhombic'
loop_
_space_group_symop_operation_xyz
x,y,z
-x,1/2-y,z
x,-y,-z
-x,1/2+y,-z
-x,-y,-z
x,1/2+y,-z
-x,y,z
x,1/2-y,z
1/2+x,1/2+y,1/2+z
1/2-x,-y,1/2+z
1/2+x,1/2-y,1/2-z
1/2-x,y,1/2-z
1/2-x,1/2-y,1/2-z
1/2+x,y,1/2-z
1/2-x,1/2+y,1/2+z
1/2+x,-y,1/2+z
loop_
_atom_site_type_symbol
_atom_site_label
_atom_site_fract_x
_atom_site_fract_y
_atom_site_fract_z
Si Si1 0.823728 0.572383 0.070837
Si Si2 0.000000 0.647880 0.932106
Si Si3 0.782775 0.250000 0.574988
Si Si4 0.500000 0.750000 0.171687
Si Si5 0.500000 0.058792 0.729536
Si Si6 0.324312 0.250000 0.152054
Si Si7 0.000000 0.383449 0.311194
O O1 0.762996 0.657074 0.111860
O O2 0.897612 0.541201 0.163149
O O3 0.765215 0.500000 0.000000
O O4 0.903696 0.606466 0.986622
O O5 0.000000 0.635073 0.811162
O O6 0.000000 0.750000 0.956256
O O7 0.900449 0.250000 0.602055
O O8 0.763737 0.250000 0.453068
O O9 0.500000 0.839045 0.239120
O O10 0.500000 0.988481 0.821724
O O11 0.250000 0.250000 0.250000
O O12 0.399339 0.165857 0.150701
#
# Coordination Sequence:
#
# PCOD9540170 Si02
#       7
#    16   8   8   4   8   8   8
#     4  11  22  39  71 103 128 163 215 287 335 376
#     4  11  16  34  66 106 134 154 196 282 356 373
#     4  12  27  47  64  91 135 177 229 260 324 397
#     4  12  30  50  60  84 142 206 220 256 302 410
#     4  11  24  43  70 100 133 168 224 268 336 396
#     4  11  24  40  69 101 131 170 213 276 344 395
#     4  11  21  40  66  99 132 165 214 274 333 398
#
# _framework density 23.034272000000001
#
# number of rings (size 3 to 8) (size 9 to 14) (size 15 to 20)
#    0.000    0.800    5.333    4.000    1.867    4.267 
#    0.000    2.000    0.000    0.000    0.000    0.000 
#    0.000    0.000    0.000    0.000    0.000    0.000 
#
# Total GULP energy -167686.443149 kJ/mol
# GULP energy per Si atom -5589.548105 kJ/mol
# Density = 2.298185 g / cm^3
# Si number density = 23.034272 Si / 1000 Ang^3
#
#
#
# Elastic Constant Matrix: (Units=GPa)
#
#
# Indices 1 2 3 4 5 6 
#
# 1 93.5323 27.8339 -4.0690 0.0000 0.0000 0.0000
# 2 27.8339 165.4714 -0.8310 0.0000 0.0000 0.0000
# 3 -4.0690 -0.8310 39.5476 0.0000 0.0000 0.0000
# 4 0.0000 0.0000 0.0000 30.5156 0.0000 0.0000
# 5 0.0000 0.0000 0.0000 0.0000 -13.5497 0.0000
# 6 0.0000 0.0000 0.0000 0.0000 0.0000 4.2621
#
#
#
# Elastic Compliance Matrix: (Units=1/GPa)
#
#
# Indices 1 2 3 4 5 6 
#
# 1 0.011305 -0.001896 0.001123 0.000000 0.000000 0.000000
# 2 -0.001896 0.006362 -0.000061 0.000000 0.000000 0.000000
# 3 0.001123 -0.000061 0.025400 0.000000 0.000000 0.000000
# 4 0.000000 0.000000 0.000000 0.032770 0.000000 0.000000
# 5 0.000000 0.000000 0.000000 0.000000 -0.073803 0.000000
# 6 0.000000 0.000000 0.000000 0.000000 0.000000 0.234625
#
#
# Mechanical properties :
#
#
# Convention : Reuss Voigt Hill
#
# Bulk Modulus (GPa) = 24.15533 38.26881 31.21207
# Shear Modulus (GPa) = 19.83130 22.62010 21.22570
#
# Velocity S-wave (km/s) = 2.93737 3.13712 3.03889
# Velocity P-wave (km/s) = 4.69187 5.45637 5.08850
#
# Compressibility (1/GPa) = 0.04139872
#
# Stress axis : x y z
#
# Youngs Moduli (GPa) = 88.45994 157.18478 39.36965
#
# Poissons Ratio (x) = 0.29801 -0.04422
# Poissons Ratio (y) = 0.16771 0.00242
# Poissons Ratio (z) = -0.09936 0.00965
#
# Static dielectric constant tensor:
#      x y z
#    x 1.846950 0.000000 0.000000 
#    y 0.000000 2.015170 0.000000 
#    z 0.000000 0.000000 1.839440 
# 
# From -- ./inp_files/31750.got.cif
#   From: 2010.05.17/outbox.cif.g08.bks.cpg/sg74_16_cif.got.tgz:31750.got - 2010.06.03 17:57:02.
