data_PCOD9540478
_publ_section_title
;
Structure prediction by ZEFSAII (Michael W. Deem and Ramdas Pophale) SiO2 
 PCOD9540478
Probable space group: I M M A
;
_chemical_formula_sum "Si O2"
_cell_formula_units_Z 56
_cell_length_a 36.747179
_cell_length_b 14.128764
_cell_length_c 4.999989
_cell_angle_alpha 90.000000
_cell_angle_beta 90.000000
_cell_angle_gamma 90.000000
_cell_volume 2595.955388
_symmetry_space_group_name_H-M "I M M A"
_symmetry_group_IT_number 74
_symmetry_cell_setting 'orthorhombic'
loop_
_space_group_symop_operation_xyz
x,y,z
-x,1/2-y,z
x,-y,-z
-x,1/2+y,-z
-x,-y,-z
x,1/2+y,-z
-x,y,z
x,1/2-y,z
1/2+x,1/2+y,1/2+z
1/2-x,-y,1/2+z
1/2+x,1/2-y,1/2-z
1/2-x,y,1/2-z
1/2-x,1/2-y,1/2-z
1/2+x,y,1/2-z
1/2-x,1/2+y,1/2+z
1/2+x,-y,1/2+z
loop_
_atom_site_type_symbol
_atom_site_label
_atom_site_fract_x
_atom_site_fract_y
_atom_site_fract_z
Si Si1 0.911528 0.402334 0.396101
Si Si2 0.041456 0.859555 0.087926
Si Si3 0.750000 0.073043 0.750000
Si Si4 0.647831 0.750000 0.851056
Si Si5 0.196084 0.250000 0.852850
O O1 0.895868 0.500000 0.500000
O O2 0.934424 0.362816 0.645857
O O3 0.878583 0.337907 0.302997
O O4 0.939707 0.414071 0.154776
O O5 0.040676 0.750000 0.996692
O O6 0.000000 0.889397 0.141617
O O7 0.782253 0.151134 0.798786
O O8 0.754846 0.000000 0.500000
O O9 0.682163 0.750000 0.656203
O O10 0.661841 0.750000 0.153871
#
# Coordination Sequence:
#
# PCOD9540478 Si02
#       5
#    16  16   8   8   8
#     4  12  25  41  64  93 128 174 224 278 335 396
#     4  11  22  41  65  89 124 171 224 286 348 394
#     4  11  24  47  76 110 142 171 224 273 314 386
#     4  12  24  45  65  96 144 176 220 266 324 402
#     4  11  26  44  74 104 139 186 214 266 335 382
#
# _framework density 21.572016999999999
#
# number of rings (size 3 to 8) (size 9 to 14) (size 15 to 20)
#    0.000    0.571    2.857    5.143    0.000   11.429 
#    0.000    0.000    0.000    0.000    0.000    0.000 
#    0.000    0.000    0.000    0.000    0.000    0.000 
#
# Total GULP energy -156501.501866 kJ/mol
# GULP energy per Si atom -5589.339352 kJ/mol
# Density = 2.152292 g / cm^3
# Si number density = 21.572017 Si / 1000 Ang^3
#
#
#
# Elastic Constant Matrix: (Units=GPa)
#
#
# Indices 1 2 3 4 5 6 
#
# 1 66.4881 38.3611 -0.6769 -0.0030 -0.0202 0.0001
# 2 38.3611 152.8290 25.7765 0.0059 0.0141 0.0049
# 3 -0.6769 25.7765 99.8705 0.0033 -0.0890 -0.0230
# 4 -0.0030 0.0059 0.0033 24.2787 -0.0535 -0.0043
# 5 -0.0202 0.0141 -0.0890 -0.0535 18.9786 -0.1140
# 6 0.0001 0.0049 -0.0230 -0.0043 -0.1140 -18.8799
#
#
#
# Elastic Compliance Matrix: (Units=1/GPa)
#
#
# Indices 1 2 3 4 5 6 
#
# 1 0.017754 -0.004680 0.001328 0.000003 0.000029 -0.000003
# 2 -0.004680 0.008075 -0.002116 -0.000002 -0.000021 0.000005
# 3 0.001328 -0.002116 0.010568 -0.000001 0.000052 -0.000014
# 4 0.000003 -0.000002 -0.000001 0.041189 0.000116 -0.000010
# 5 0.000029 -0.000021 0.000052 0.000116 0.052690 -0.000318
# 6 -0.000003 0.000005 -0.000014 -0.000010 -0.000318 -0.052964
#
#
# Mechanical properties :
#
#
# Convention : Reuss Voigt Hill
#
# Bulk Modulus (GPa) = 39.27515 49.56768 44.42142
# Shear Modulus (GPa) = 51.68785 21.92392 36.80589
#
# Velocity S-wave (km/s) = 4.90027 3.19142 4.13508
# Velocity P-wave (km/s) = 7.08963 6.05045 6.59055
#
# Compressibility (1/GPa) = 0.02546139
#
# Stress axis : x y z
#
# Youngs Moduli (GPa) = 56.32446 123.83948 94.62416
#
# Poissons Ratio (x) = 0.57963 -0.12570
# Poissons Ratio (y) = 0.26363 0.20021
# Poissons Ratio (z) = -0.07482 0.26203
#
# Static dielectric constant tensor:
#      x y z
#    x 1.739480 0.000030 0.000000 
#    y 0.000030 1.739720 0.000010 
#    z 0.000000 0.000010 1.731510 
# 
# From -- ./inp_files/4838.got.cif
#   From: 2010.05.17/outbox.cif.g08.bks.cpg/sg74_3_cif.got.tgz:4838.got - 2010.06.03 17:57:02.
