data_PCOD9540014
_publ_section_title
;
Structure prediction by ZEFSAII (Michael W. Deem and Ramdas Pophale) SiO2 
 PCOD9540014
Probable space group: I M M A
;
_chemical_formula_sum "Si O2"
_cell_formula_units_Z 72
_cell_length_a 15.445728
_cell_length_b 8.677849
_cell_length_c 26.737619
_cell_angle_alpha 90.000000
_cell_angle_beta 90.000000
_cell_angle_gamma 90.000000
_cell_volume 3583.795353
_symmetry_space_group_name_H-M "I M M A"
_symmetry_group_IT_number 74
_symmetry_cell_setting 'orthorhombic'
loop_
_space_group_symop_operation_xyz
x,y,z
-x,1/2-y,z
x,-y,-z
-x,1/2+y,-z
-x,-y,-z
x,1/2+y,-z
-x,y,z
x,1/2-y,z
1/2+x,1/2+y,1/2+z
1/2-x,-y,1/2+z
1/2+x,1/2-y,1/2-z
1/2-x,y,1/2-z
1/2-x,1/2-y,1/2-z
1/2+x,y,1/2-z
1/2-x,1/2+y,1/2+z
1/2+x,-y,1/2+z
loop_
_atom_site_type_symbol
_atom_site_label
_atom_site_fract_x
_atom_site_fract_y
_atom_site_fract_z
Si Si1 0.000000 0.935347 0.256915
Si Si2 0.500000 0.934833 0.125642
Si Si3 0.500000 0.435560 0.555725
Si Si4 0.175328 0.433964 0.209670
Si Si5 0.184359 0.065308 0.899634
Si Si6 0.145553 0.933531 0.553891
O O1 0.000000 0.750000 0.252529
O O2 0.000000 0.976589 0.315804
O O3 0.914970 0.002244 0.230606
O O4 0.500000 0.750000 0.121996
O O5 0.416807 0.000699 0.096852
O O6 0.500000 0.250000 0.553878
O O7 0.500000 0.500000 0.500000
O O8 0.587935 0.482728 0.583624
O O9 0.169948 0.250000 0.202458
O O10 0.250000 0.466108 0.250000
O O11 0.197302 0.513709 0.157313
O O12 0.191804 0.250000 0.903935
O O13 0.257296 0.987516 0.933655
O O14 0.139991 0.750000 0.553015
O O15 0.119246 0.000000 0.500000
#
# Coordination Sequence:
#
# PCOD9540014 Si02
#       6
#     8   8   8  16  16  16
#     4  11  24  41  64  92 124 164 207 254 309 372
#     4  11  24  43  66  93 124 162 207 256 313 372
#     4  10  23  40  61  89 120 156 199 248 299 356
#     4  11  24  41  63  92 125 162 206 256 310 368
#     4  11  23  41  64  92 125 162 207 255 307 368
#     4  12  25  42  64  92 126 164 207 256 311 370
#
# _framework density 20.090433000000001
#
# number of rings (size 3 to 8) (size 9 to 14) (size 15 to 20)
#    0.000    0.889    0.000    7.000    0.000   11.556 
#    0.000    0.000    0.000    0.000    0.000    0.000 
#    0.000    0.000    0.000    0.000    0.000    0.000 
#
# Total GULP energy -201589.276632 kJ/mol
# GULP energy per Si atom -5599.702129 kJ/mol
# Density = 2.004471 g / cm^3
# Si number density = 20.090433 Si / 1000 Ang^3
#
#
#
# Elastic Constant Matrix: (Units=GPa)
#
#
# Indices 1 2 3 4 5 6 
#
# 1 71.1446 12.1984 -16.5963 0.0000 0.0000 0.0000
# 2 12.1984 69.5652 19.1611 0.0000 0.0000 0.0000
# 3 -16.5963 19.1611 73.8492 0.0000 0.0000 0.0000
# 4 0.0000 0.0000 0.0000 37.3297 0.0000 0.0000
# 5 0.0000 0.0000 0.0000 0.0000 50.8405 0.0000
# 6 0.0000 0.0000 0.0000 0.0000 0.0000 16.7395
#
#
#
# Elastic Compliance Matrix: (Units=1/GPa)
#
#
# Indices 1 2 3 4 5 6 
#
# 1 0.015823 -0.004043 0.004605 0.000000 0.000000 0.000000
# 2 -0.004043 0.016514 -0.005193 0.000000 0.000000 0.000000
# 3 0.004605 -0.005193 0.015924 0.000000 0.000000 0.000000
# 4 0.000000 0.000000 0.000000 0.026788 0.000000 0.000000
# 5 0.000000 0.000000 0.000000 0.000000 0.019669 0.000000
# 6 0.000000 0.000000 0.000000 0.000000 0.000000 0.059739
#
#
# Mechanical properties :
#
#
# Convention : Reuss Voigt Hill
#
# Bulk Modulus (GPa) = 25.64213 27.12058 26.38136
# Shear Modulus (GPa) = 28.29328 34.30167 31.29748
#
# Velocity S-wave (km/s) = 3.75680 4.13651 3.95122
# Velocity P-wave (km/s) = 5.62220 6.02850 5.82889
#
# Compressibility (1/GPa) = 0.03899832
#
# Stress axis : x y z
#
# Youngs Moduli (GPa) = 63.19772 60.55296 62.80011
#
# Poissons Ratio (x) = 0.24482 -0.28920
# Poissons Ratio (y) = 0.25551 0.32615
# Poissons Ratio (z) = -0.29103 0.31448
#
# Static dielectric constant tensor:
#      x y z
#    x 1.678790 0.000000 0.000000 
#    y 0.000000 1.671520 0.000000 
#    z 0.000000 0.000000 1.681080 
# 
# From -- ./inp_files/66775.got.cif
#   From: 2010.05.17/outbox.cif.g08.bks.cpg/sg74_34_cif.got.tgz:66775.got - 2010.06.03 17:57:02.
