data_PCOD9540579
_publ_section_title
;
Structure prediction by ZEFSAII (Michael W. Deem and Ramdas Pophale) SiO2 
 PCOD9540579
Probable space group: I M M A
;
_chemical_formula_sum "Si O2"
_cell_formula_units_Z 64
_cell_length_a 12.104837
_cell_length_b 10.000783
_cell_length_c 26.941519
_cell_angle_alpha 90.000000
_cell_angle_beta 90.000000
_cell_angle_gamma 90.000000
_cell_volume 3261.482314
_symmetry_space_group_name_H-M "I M M A"
_symmetry_group_IT_number 74
_symmetry_cell_setting 'orthorhombic'
loop_
_space_group_symop_operation_xyz
x,y,z
-x,1/2-y,z
x,-y,-z
-x,1/2+y,-z
-x,-y,-z
x,1/2+y,-z
-x,y,z
x,1/2-y,z
1/2+x,1/2+y,1/2+z
1/2-x,-y,1/2+z
1/2+x,1/2-y,1/2-z
1/2-x,y,1/2-z
1/2-x,1/2-y,1/2-z
1/2+x,y,1/2-z
1/2-x,1/2+y,1/2+z
1/2+x,-y,1/2+z
loop_
_atom_site_type_symbol
_atom_site_label
_atom_site_fract_x
_atom_site_fract_y
_atom_site_fract_z
Si Si1 0.367876 0.250000 0.044966
Si Si2 0.127420 0.250000 0.574319
Si Si3 0.500000 0.086860 0.625898
Si Si4 0.500000 0.908715 0.254015
Si Si5 0.831704 0.103903 0.294853
Si Si6 0.740930 0.514636 0.601034
O O1 0.500000 0.250000 0.061315
O O2 0.296995 0.377565 0.063930
O O3 0.371074 0.250000 0.985517
O O4 0.191423 0.120804 0.593118
O O5 0.000000 0.250000 0.590798
O O6 0.500000 0.250000 0.619851
O O7 0.500000 0.061125 0.686243
O O8 0.389537 0.022294 0.601484
O O9 0.500000 0.750000 0.249421
O O10 0.598314 0.978899 0.224174
O O11 0.886269 0.250000 0.301964
O O12 0.750000 0.120649 0.250000
O O13 0.768383 0.070772 0.344846
#
# Coordination Sequence:
#
# PCOD9540579 Si02
#       6
#     8   8   8   8  16  16
#     4  11  26  49  70 105 137 171 232 303 352 410
#     4  11  26  47  74  99 135 175 234 297 358 406
#     4  11  24  46  65 106 150 184 230 283 334 414
#     4  11  25  39  65  94 140 190 230 285 338 396
#     4  11  24  41  61  99 140 180 229 278 335 410
#     4  12  24  44  73 101 139 189 225 281 352 408
#
# _framework density 19.622979000000001
#
# number of rings (size 3 to 8) (size 9 to 14) (size 15 to 20)
#    0.000    0.750    5.000    1.875    5.250    3.000 
#    2.250    3.750    0.000    0.000    0.000    0.000 
#    0.000    0.000    0.000    0.000    0.000    0.000 
#
# Total GULP energy -178394.824503 kJ/mol
# GULP energy per Si atom -5574.838266 kJ/mol
# Density = 1.957832 g / cm^3
# Si number density = 19.622979 Si / 1000 Ang^3
#
#
#
# Elastic Constant Matrix: (Units=GPa)
#
#
# Indices 1 2 3 4 5 6 
#
# 1 174.8769 66.8827 28.8869 0.0000 0.0000 0.0000
# 2 66.8827 152.5803 14.4777 0.0000 0.0000 0.0000
# 3 28.8869 14.4777 58.9140 0.0000 0.0000 0.0000
# 4 0.0000 0.0000 0.0000 55.6576 0.0000 0.0000
# 5 0.0000 0.0000 0.0000 0.0000 16.9252 0.0000
# 6 0.0000 0.0000 0.0000 0.0000 0.0000 33.3315
#
#
#
# Elastic Compliance Matrix: (Units=1/GPa)
#
#
# Indices 1 2 3 4 5 6 
#
# 1 0.007314 -0.002934 -0.002865 0.000000 0.000000 0.000000
# 2 -0.002934 0.007887 -0.000500 0.000000 0.000000 0.000000
# 3 -0.002865 -0.000500 0.018501 0.000000 0.000000 0.000000
# 4 0.000000 0.000000 0.000000 0.017967 0.000000 0.000000
# 5 0.000000 0.000000 0.000000 0.000000 0.059084 0.000000
# 6 0.000000 0.000000 0.000000 0.000000 0.000000 0.030002
#
#
# Mechanical properties :
#
#
# Convention : Reuss Voigt Hill
#
# Bulk Modulus (GPa) = 47.38185 67.42951 57.40568
# Shear Modulus (GPa) = 31.17450 39.59112 35.38281
#
# Velocity S-wave (km/s) = 3.99014 4.49663 4.25094
# Velocity P-wave (km/s) = 6.73994 7.83561 7.30834
#
# Compressibility (1/GPa) = 0.02110513
#
# Stress axis : x y z
#
# Youngs Moduli (GPa) = 136.72925 126.78333 54.04970
#
# Poissons Ratio (x) = 0.37199 0.15486
# Poissons Ratio (y) = 0.40117 0.02701
# Poissons Ratio (z) = 0.39174 0.06335
#
# Static dielectric constant tensor:
#      x y z
#    x 1.726650 0.000000 0.000000 
#    y 0.000000 1.697490 0.000000 
#    z 0.000000 0.000000 1.652960 
# 
# From -- ./inp_files/71342.got.cif
#   From: 2010.05.17/outbox.cif.g08.bks.cpg/sg74_36_cif.got.tgz:71342.got - 2010.06.03 17:57:02.
