data_PCOD9540756
_publ_section_title
;
Structure prediction by ZEFSAII (Michael W. Deem and Ramdas Pophale) SiO2 
 PCOD9540756
Probable space group: I M M A
;
_chemical_formula_sum "Si O2"
_cell_formula_units_Z 64
_cell_length_a 7.288242
_cell_length_b 13.845679
_cell_length_c 29.294903
_cell_angle_alpha 90.000000
_cell_angle_beta 90.000000
_cell_angle_gamma 90.000000
_cell_volume 2956.167973
_symmetry_space_group_name_H-M "I M M A"
_symmetry_group_IT_number 74
_symmetry_cell_setting 'orthorhombic'
loop_
_space_group_symop_operation_xyz
x,y,z
-x,1/2-y,z
x,-y,-z
-x,1/2+y,-z
-x,-y,-z
x,1/2+y,-z
-x,y,z
x,1/2-y,z
1/2+x,1/2+y,1/2+z
1/2-x,-y,1/2+z
1/2+x,1/2-y,1/2-z
1/2-x,y,1/2-z
1/2-x,1/2-y,1/2-z
1/2+x,y,1/2-z
1/2-x,1/2+y,1/2+z
1/2+x,-y,1/2+z
loop_
_atom_site_type_symbol
_atom_site_label
_atom_site_fract_x
_atom_site_fract_y
_atom_site_fract_z
Si Si1 0.275942 0.463366 0.135198
Si Si2 0.206302 0.934087 0.455756
Si Si3 0.726853 0.750000 0.993388
Si Si4 0.781829 0.357181 0.695862
Si Si5 0.776373 0.750000 0.613724
O O1 0.500000 0.459551 0.136733
O O2 0.216973 0.506044 0.086158
O O3 0.214930 0.545295 0.171154
O O4 0.217752 0.351030 0.137062
O O5 0.292347 0.839812 0.476973
O O6 0.000000 0.906328 0.440237
O O7 0.191149 0.000000 0.500000
O O8 0.500000 0.750000 0.992033
O O9 0.778834 0.750000 0.940024
O O10 0.712321 0.250000 0.680934
O O11 0.750000 0.364002 0.750000
O O12 0.000000 0.355104 0.687962
O O13 0.000000 0.750000 0.613684
#
# Coordination Sequence:
#
# PCOD9540756 Si02
#       5
#    16  16   8  16   8
#     4   9  16  24  36  55  79 110 143 172 207 251
#     4   9  14  19  28  46  74 108 140 165 196 244
#     4   9  14  18  26  43  72 109 141 167 197 240
#     4   9  18  32  48  65  85 109 139 177 218 255
#     4   9  14  22  33  49  78 113 143 169 203 248
#
# _framework density 21.649649
#
# number of rings (size 3 to 8) (size 9 to 14) (size 15 to 20)
#    0.000    3.000    2.500    0.000    1.750    0.000 
#    0.000    0.625    0.000    0.000    0.000    0.000 
#    0.000    1.000    0.000    0.750    0.000    0.000 
#
# Total GULP energy -178230.328256 kJ/mol
# GULP energy per Si atom -5569.697758 kJ/mol
# Density = 2.160037 g / cm^3
# Si number density = 21.649649 Si / 1000 Ang^3
#
#
#
# Elastic Constant Matrix: (Units=GPa)
#
#
# Indices 1 2 3 4 5 6 
#
# 1 90.9419 12.3944 -1.9469 0.0000 0.0000 0.0000
# 2 12.3944 263.5376 84.5974 0.0000 0.0000 0.0000
# 3 -1.9469 84.5974 84.3301 0.0000 0.0000 0.0000
# 4 0.0000 0.0000 0.0000 91.2616 0.0000 0.0000
# 5 0.0000 0.0000 0.0000 0.0000 54.2203 0.0000
# 6 0.0000 0.0000 0.0000 0.0000 0.0000 -27.2763
#
#
#
# Elastic Compliance Matrix: (Units=1/GPa)
#
#
# Indices 1 2 3 4 5 6 
#
# 1 0.011143 -0.000895 0.001155 0.000000 0.000000 0.000000
# 2 -0.000895 0.005669 -0.005707 0.000000 0.000000 0.000000
# 3 0.001155 -0.005707 0.017610 0.000000 0.000000 0.000000
# 4 0.000000 0.000000 0.000000 0.010958 0.000000 0.000000
# 5 0.000000 0.000000 0.000000 0.000000 0.018443 0.000000
# 6 0.000000 0.000000 0.000000 0.000000 0.000000 -0.036662
#
#
# Mechanical properties :
#
#
# Convention : Reuss Voigt Hill
#
# Bulk Modulus (GPa) = 42.50405 69.87770 56.19088
# Shear Modulus (GPa) = 108.93870 46.55877 77.74874
#
# Velocity S-wave (km/s) = 7.10128 4.64244 5.99918
# Velocity P-wave (km/s) = 9.32271 7.81556 8.60220
#
# Compressibility (1/GPa) = 0.02352717
#
# Stress axis : x y z
#
# Youngs Moduli (GPa) = 89.74480 176.40750 56.78519
#
# Poissons Ratio (x) = 0.15784 -0.06558
# Poissons Ratio (y) = 0.08030 0.32409
# Poissons Ratio (z) = -0.10364 1.00681
#
# Static dielectric constant tensor:
#      x y z
#    x 1.887630 0.000000 0.000000 
#    y 0.000000 1.758390 0.000000 
#    z 0.000000 0.000000 1.728130 
# 
# From -- ./inp_files/65617.got.cif
#   From: 2010.05.17/outbox.cif.g08.bks.cpg/sg74_33_cif.got.tgz:65617.got - 2010.06.03 17:57:02.
