data_PCOD9540469
_publ_section_title
;
Structure prediction by ZEFSAII (Michael W. Deem and Ramdas Pophale) SiO2 
 PCOD9540469
Probable space group: I M M A
;
_chemical_formula_sum "Si O2"
_cell_formula_units_Z 44
_cell_length_a 18.686100
_cell_length_b 22.181628
_cell_length_c 5.065608
_cell_angle_alpha 90.000000
_cell_angle_beta 90.000000
_cell_angle_gamma 90.000000
_cell_volume 2099.634331
_symmetry_space_group_name_H-M "I M M A"
_symmetry_group_IT_number 74
_symmetry_cell_setting 'orthorhombic'
loop_
_space_group_symop_operation_xyz
x,y,z
-x,1/2-y,z
x,-y,-z
-x,1/2+y,-z
-x,-y,-z
x,1/2+y,-z
-x,y,z
x,1/2-y,z
1/2+x,1/2+y,1/2+z
1/2-x,-y,1/2+z
1/2+x,1/2-y,1/2-z
1/2-x,y,1/2-z
1/2-x,1/2-y,1/2-z
1/2+x,y,1/2-z
1/2-x,1/2+y,1/2+z
1/2+x,-y,1/2+z
loop_
_atom_site_type_symbol
_atom_site_label
_atom_site_fract_x
_atom_site_fract_y
_atom_site_fract_z
Si Si1 0.414950 0.317111 0.023525
Si Si2 0.162171 0.354016 0.990657
Si Si3 0.250000 0.460827 0.750000
Si Si4 0.250000 0.250000 0.250000
O O1 0.500000 0.316783 0.052437
O O2 0.384923 0.250000 0.098087
O O3 0.393115 0.328978 0.725307
O O4 0.378071 0.361125 0.230407
O O5 0.222937 0.304276 0.044354
O O6 0.192313 0.415874 0.878250
O O7 0.223692 0.500000 0.500000
#
# Coordination Sequence:
#
# PCOD9540469 Si02
#       4
#    16  16   8   4
#     4  11  22  40  63  99 141 174 211 260 337 419
#     4  12  24  40  68  96 137 172 214 285 326 414
#     4  12  27  47  66  93 131 186 234 276 338 392
#     4  12  22  38  62 110 134 158 216 260 372 386
#
# _framework density 20.956029999999998
#
# number of rings (size 3 to 8) (size 9 to 14) (size 15 to 20)
#    0.000    0.364    3.636    6.545    0.000    5.091 
#    0.000    0.000    0.000   21.818    0.000    0.000 
#    0.000    0.000    0.000    0.000    0.000    0.000 
#
# Total GULP energy -122616.421667 kJ/mol
# GULP energy per Si atom -5573.473712 kJ/mol
# Density = 2.090833 g / cm^3
# Si number density = 20.956030 Si / 1000 Ang^3
#
#
#
# Elastic Constant Matrix: (Units=GPa)
#
#
# Indices 1 2 3 4 5 6 
#
# 1 38.0599 30.0131 37.4532 0.0000 0.0000 0.0000
# 2 30.0131 107.7378 33.2854 0.0000 0.0000 0.0000
# 3 37.4532 33.2854 130.6419 0.0000 0.0000 0.0000
# 4 0.0000 0.0000 0.0000 51.6434 0.0000 0.0000
# 5 0.0000 0.0000 0.0000 0.0000 42.4959 0.0000
# 6 0.0000 0.0000 0.0000 0.0000 0.0000 9.7056
#
#
#
# Elastic Compliance Matrix: (Units=1/GPa)
#
#
# Indices 1 2 3 4 5 6 
#
# 1 0.043289 -0.008928 -0.010136 0.000000 0.000000 0.000000
# 2 -0.008928 0.011916 -0.000477 0.000000 0.000000 0.000000
# 3 -0.010136 -0.000477 0.010682 0.000000 0.000000 0.000000
# 4 0.000000 0.000000 0.000000 0.019364 0.000000 0.000000
# 5 0.000000 0.000000 0.000000 0.000000 0.023532 0.000000
# 6 0.000000 0.000000 0.000000 0.000000 0.000000 0.103033
#
#
# Mechanical properties :
#
#
# Convention : Reuss Voigt Hill
#
# Bulk Modulus (GPa) = 37.30435 53.10477 45.20456
# Shear Modulus (GPa) = 19.24332 32.48150 25.86241
#
# Velocity S-wave (km/s) = 3.03359 3.94125 3.51683
# Velocity P-wave (km/s) = 5.48727 6.79024 6.17323
#
# Compressibility (1/GPa) = 0.02680653
#
# Stress axis : x y z
#
# Youngs Moduli (GPa) = 23.10076 83.92019 93.61836
#
# Poissons Ratio (x) = 0.74922 0.94888
# Poissons Ratio (y) = 0.20624 0.04461
# Poissons Ratio (z) = 0.23414 0.03999
#
# Static dielectric constant tensor:
#      x y z
#    x 2.017350 0.000000 0.000000 
#    y 0.000000 1.755710 0.000000 
#    z 0.000000 0.000000 1.704870 
# 
# From -- ./inp_files/2654.got.cif
#   From: 2010.05.17/outbox.cif.g08.bks.cpg/sg74_2_cif.got.tgz:2654.got - 2010.06.03 17:57:02.
