data_PCOD9540004
_publ_section_title
;
Structure prediction by ZEFSAII (Michael W. Deem and Ramdas Pophale) SiO2 
 PCOD9540004
Probable space group: I M M A
;
_chemical_formula_sum "Si O2"
_cell_formula_units_Z 60
_cell_length_a 9.428809
_cell_length_b 10.017950
_cell_length_c 35.102915
_cell_angle_alpha 90.000000
_cell_angle_beta 90.000000
_cell_angle_gamma 90.000000
_cell_volume 3315.727876
_symmetry_space_group_name_H-M "I M M A"
_symmetry_group_IT_number 74
_symmetry_cell_setting 'orthorhombic'
loop_
_space_group_symop_operation_xyz
x,y,z
-x,1/2-y,z
x,-y,-z
-x,1/2+y,-z
-x,-y,-z
x,1/2+y,-z
-x,y,z
x,1/2-y,z
1/2+x,1/2+y,1/2+z
1/2-x,-y,1/2+z
1/2+x,1/2-y,1/2-z
1/2-x,y,1/2-z
1/2-x,1/2-y,1/2-z
1/2+x,y,1/2-z
1/2-x,1/2+y,1/2+z
1/2+x,-y,1/2+z
loop_
_atom_site_type_symbol
_atom_site_label
_atom_site_fract_x
_atom_site_fract_y
_atom_site_fract_z
Si Si1 0.331074 0.406312 0.886221
Si Si2 0.250000 0.539451 0.250000
Si Si3 0.833484 0.906025 0.828080
Si Si4 0.667051 0.593805 0.464578
Si Si5 0.000000 0.250000 0.733247
O O1 0.500000 0.424774 0.887419
O O2 0.303921 0.250000 0.876488
O O3 0.259085 0.501726 0.855638
O O4 0.261087 0.431804 0.927399
O O5 0.195702 0.450462 0.215046
O O6 0.376064 0.633806 0.235160
O O7 0.800925 0.750000 0.833380
O O8 0.000000 0.927296 0.836530
O O9 0.704600 0.500000 0.500000
O O10 0.500000 0.571954 0.455571
O O11 0.683496 0.750000 0.474884
#
# Coordination Sequence:
#
# PCOD9540004 Si02
#       5
#    16   8  16  16   4
#     4  10  23  39  60  87 118 153 198 246 290 342
#     4  11  23  42  62  92 118 154 196 248 290 350
#     4  11  25  42  60  84 120 158 195 240 297 352
#     4   9  18  35  58  85 115 152 192 236 286 344
#     4  10  24  38  66  94 116 146 206 238 300 342
#
# _framework density 18.095573000000002
#
# number of rings (size 3 to 8) (size 9 to 14) (size 15 to 20)
#    0.000    1.867    1.333    1.200    5.600    3.733 
#    0.000    2.667    0.000    0.000    0.000    0.000 
#    0.000    0.000    0.000    0.000    0.000    0.000 
#
# Total GULP energy -167030.118455 kJ/mol
# GULP energy per Si atom -5567.670615 kJ/mol
# Density = 1.805439 g / cm^3
# Si number density = 18.095573 Si / 1000 Ang^3
#
#
#
# Elastic Constant Matrix: (Units=GPa)
#
#
# Indices 1 2 3 4 5 6 
#
# 1 92.4855 74.5114 48.4921 0.0000 0.0000 0.0000
# 2 74.5114 114.7078 91.0294 0.0000 0.0000 0.0000
# 3 48.4921 91.0294 111.7072 0.0000 0.0000 0.0000
# 4 0.0000 0.0000 0.0000 -19.9789 0.0000 0.0000
# 5 0.0000 0.0000 0.0000 0.0000 21.4167 0.0000
# 6 0.0000 0.0000 0.0000 0.0000 0.0000 26.2188
#
#
#
# Elastic Compliance Matrix: (Units=1/GPa)
#
#
# Indices 1 2 3 4 5 6 
#
# 1 0.024262 -0.020949 0.006540 0.000000 0.000000 0.000000
# 2 -0.020949 0.042763 -0.025753 0.000000 0.000000 0.000000
# 3 0.006540 -0.025753 0.027099 0.000000 0.000000 0.000000
# 4 0.000000 0.000000 0.000000 -0.050053 0.000000 0.000000
# 5 0.000000 0.000000 0.000000 0.000000 0.046693 0.000000
# 6 0.000000 0.000000 0.000000 0.000000 0.000000 0.038141
#
#
# Mechanical properties :
#
#
# Convention : Reuss Voigt Hill
#
# Bulk Modulus (GPa) = 72.47490 82.99626 77.73558
# Shear Modulus (GPa) = 23.38302 12.52249 17.95275
#
# Velocity S-wave (km/s) = 3.59861 2.63348 3.15319
# Velocity P-wave (km/s) = 7.57660 7.43048 7.50389
#
# Compressibility (1/GPa) = 0.01379788
#
# Stress axis : x y z
#
# Youngs Moduli (GPa) = 41.21723 23.38456 36.90124
#
# Poissons Ratio (x) = 0.48989 -0.24132
# Poissons Ratio (y) = 0.86348 0.95033
# Poissons Ratio (z) = -0.26954 0.60223
#
# Static dielectric constant tensor:
#      x y z
#    x 1.603220 0.000000 0.000000 
#    y 0.000000 1.597210 0.000000 
#    z 0.000000 0.000000 1.601110 
# 
# From -- ./inp_files/69772.got.cif
#   From: 2010.05.17/outbox.cif.g08.bks.cpg/sg74_35_cif.got.tgz:69772.got - 2010.06.03 17:57:02.
