data_PCOD9540814
_publ_section_title
;
Structure prediction by ZEFSAII (Michael W. Deem and Ramdas Pophale) SiO2 
 PCOD9540814
Probable space group: I M M A
;
_chemical_formula_sum "Si O2"
_cell_formula_units_Z 60
_cell_length_a 15.000000
_cell_length_b 15.000000
_cell_length_c 30.000000
_cell_angle_alpha 90.000000
_cell_angle_beta 90.000000
_cell_angle_gamma 90.000000
_cell_volume 6750.000000
_symmetry_space_group_name_H-M "I M M A"
_symmetry_group_IT_number 74
_symmetry_cell_setting 'orthorhombic'
loop_
_space_group_symop_operation_xyz
x,y,z
-x,1/2-y,z
x,-y,-z
-x,1/2+y,-z
-x,-y,-z
x,1/2+y,-z
-x,y,z
x,1/2-y,z
1/2+x,1/2+y,1/2+z
1/2-x,-y,1/2+z
1/2+x,1/2-y,1/2-z
1/2-x,y,1/2-z
1/2-x,1/2-y,1/2-z
1/2+x,y,1/2-z
1/2-x,1/2+y,1/2+z
1/2+x,-y,1/2+z
loop_
_atom_site_type_symbol
_atom_site_label
_atom_site_fract_x
_atom_site_fract_y
_atom_site_fract_z
Si Si1 0.250000 0.941442 0.750000
Si Si2 0.397252 0.403129 0.411335
Si Si3 0.599455 0.146339 0.514195
Si Si4 0.098819 0.648589 0.810479
Si Si5 0.395902 0.428135 0.775941
Si Si6 0.397162 0.354159 0.872954
Si Si7 0.399036 0.356146 0.676114
Si Si8 0.716422 0.572061 0.406257
O O1 0.181986 0.893999 0.784540
O O2 0.319770 0.997883 0.779489
O O3 0.500000 0.439142 0.411560
O O4 0.386650 0.361517 0.460771
O O5 0.392665 0.351410 0.364295
O O6 0.316530 0.471377 0.406711
O O7 0.500000 0.107583 0.523444
O O8 0.595799 0.250000 0.525174
O O9 0.673788 0.107487 0.547266
O O10 0.095664 0.750000 0.795139
O O11 0.000000 0.607199 0.800912
O O12 0.500000 0.457472 0.776528
O O13 0.385876 0.366105 0.819374
O O14 0.379327 0.386502 0.726792
O O15 0.500000 0.380114 0.883124
O O16 0.385943 0.250000 0.883686
O O17 0.320357 0.408011 0.898764
O O18 0.500000 0.387222 0.665517
O O19 0.398456 0.250000 0.676213
O O20 0.333528 0.387415 0.637259
#
# Coordination Sequence:
#
# PCOD9540814 Si02
#       8
#     8  16  16  16  16  16  16  16
#     4  12  21  32  51  78 104 126 162 212 259 292
#     4  10  20  35  55  78 105 135 163 195 242 303
#     4  10  20  34  53  78 107 136 163 193 239 303
#     4  10  21  37  55  75 101 134 170 204 242 294
#     4  10  20  33  49  70  99 136 173 208 249 299
#     4  10  21  36  51  68  95 135 180 217 248 289
#     4  10  19  30  46  71 104 138 168 201 247 304
#     4  12  21  31  50  77 104 129 164 211 258 294
#
# _framework density 8.8888890000000007
#
# number of rings (size 3 to 8) (size 9 to 14) (size 15 to 20)
#    0.000    1.600    0.000    6.600    0.000    7.467 
#    0.000    2.000    0.000    1.600    0.000    0.000 
#    0.000    7.467    0.000    0.000    0.000    0.000 
#
# Total GULP energy -334297.329675 kJ/mol
# GULP energy per Si atom -5571.622161 kJ/mol
# Density = 0.886866 g / cm^3
# Si number density = 8.888889 Si / 1000 Ang^3
#
#
#
# Elastic Constant Matrix: (Units=GPa)
#
#
# Indices 1 2 3 4 5 6 
#
# 1 121.5987 31.8856 38.7085 0.0000 0.0000 0.0000
# 2 31.8856 47.2244 1.6096 0.0000 0.0000 0.0000
# 3 38.7085 1.6096 74.1963 0.0000 0.0000 0.0000
# 4 0.0000 0.0000 0.0000 317.7058 0.0000 0.0000
# 5 0.0000 0.0000 0.0000 0.0000 28.3947 0.0000
# 6 0.0000 0.0000 0.0000 0.0000 0.0000 26.0367
#
#
#
# Elastic Compliance Matrix: (Units=1/GPa)
#
#
# Indices 1 2 3 4 5 6 
#
# 1 0.012349 -0.008124 -0.006266 0.000000 0.000000 0.000000
# 2 -0.008124 0.026536 0.003663 0.000000 0.000000 0.000000
# 3 -0.006266 0.003663 0.016667 0.000000 0.000000 0.000000
# 4 0.000000 0.000000 0.000000 0.003148 0.000000 0.000000
# 5 0.000000 0.000000 0.000000 0.000000 0.035218 0.000000
# 6 0.000000 0.000000 0.000000 0.000000 0.000000 0.038407
#
#
# Mechanical properties :
#
#
# Convention : Reuss Voigt Hill
#
# Bulk Modulus (GPa) = 29.32808 43.04743 36.18775
# Shear Modulus (GPa) = 30.27623 85.81517 58.04570
#
# Velocity S-wave (km/s) = 4.13126 6.95527 5.72028
# Velocity P-wave (km/s) = 6.26812 9.42167 8.00179
#
# Compressibility (1/GPa) = 0.03409702
#
# Stress axis : x y z
#
# Youngs Moduli (GPa) = 80.97929 37.68449 59.99733
#
# Poissons Ratio (x) = 0.30616 0.37595
# Poissons Ratio (y) = 0.65790 -0.21976
# Poissons Ratio (z) = 0.50743 -0.13803
#
# Static dielectric constant tensor:
#      x y z
#    x 1.608130 0.000000 0.000000 
#    y 0.000000 1.664860 0.000000 
#    z 0.000000 0.000000 1.624420 
# 
# From -- ./inp_files/72742.got.cif
#   From: 2010.05.17/outbox.ucp.g08.bks.cvg/sg74_37_cif.got.tgz:72742.got - 2010.06.11 16:37:44.
