data_PCOD9540781
_publ_section_title
;
Structure prediction by ZEFSAII (Michael W. Deem and Ramdas Pophale) SiO2 
 PCOD9540781
Probable space group: I M M A
;
_chemical_formula_sum "Si O2"
_cell_formula_units_Z 80
_cell_length_a 21.762500
_cell_length_b 7.615864
_cell_length_c 20.636146
_cell_angle_alpha 90.000000
_cell_angle_beta 90.000000
_cell_angle_gamma 90.000000
_cell_volume 3420.239797
_symmetry_space_group_name_H-M "I M M A"
_symmetry_group_IT_number 74
_symmetry_cell_setting 'orthorhombic'
loop_
_space_group_symop_operation_xyz
x,y,z
-x,1/2-y,z
x,-y,-z
-x,1/2+y,-z
-x,-y,-z
x,1/2+y,-z
-x,y,z
x,1/2-y,z
1/2+x,1/2+y,1/2+z
1/2-x,-y,1/2+z
1/2+x,1/2-y,1/2-z
1/2-x,y,1/2-z
1/2-x,1/2-y,1/2-z
1/2+x,y,1/2-z
1/2-x,1/2+y,1/2+z
1/2+x,-y,1/2+z
loop_
_atom_site_type_symbol
_atom_site_label
_atom_site_fract_x
_atom_site_fract_y
_atom_site_fract_z
Si Si1 0.342338 0.951176 0.247888
Si Si2 0.668305 0.044730 0.907995
Si Si3 0.067225 0.960447 0.076278
Si Si4 0.797896 0.537693 0.118767
Si Si5 0.071150 0.250000 0.417582
Si Si6 0.433041 0.750000 0.760617
O O1 0.357890 0.750000 0.261338
O O2 0.332217 0.961357 0.170949
O O3 0.293536 0.999174 0.303798
O O4 0.398304 0.078080 0.260765
O O5 0.660533 0.250000 0.926551
O O6 0.737774 0.975781 0.920448
O O7 0.613630 0.919969 0.932320
O O8 0.068322 0.750000 0.086757
O O9 0.134451 0.026132 0.098904
O O10 0.000000 0.023257 0.101435
O O11 0.066322 0.000000 0.000000
O O12 0.795387 0.750000 0.111399
O O13 0.065973 0.250000 0.339129
O O14 0.000000 0.250000 0.442372
O O15 0.500000 0.750000 0.734910
#
# Coordination Sequence:
#
# PCOD9540781 Si02
#       6
#    16  16  16  16   8   8
#     4   9  17  29  45  65  92 125 160 199 250 293
#     4   9  17  30  48  70  97 129 163 203 242 290
#     4   9  18  34  52  69  95 131 167 208 256 296
#     4   9  17  30  49  70  92 124 163 205 246 299
#     4   9  18  31  45  65  98 133 161 191 232 285
#     4   9  18  29  39  59  91 125 163 201 233 279
#
# _framework density 23.390173000000001
#
# number of rings (size 3 to 8) (size 9 to 14) (size 15 to 20)
#    0.000    3.000    0.000    0.600    0.000    4.800 
#    3.600    9.000    0.000    0.000    0.000    0.000 
#    0.000    0.800    0.400    0.000    0.000    0.000 
#
# Total GULP energy -222932.953413 kJ/mol
# GULP energy per Si atom -5573.323835 kJ/mol
# Density = 2.333694 g / cm^3
# Si number density = 23.390173 Si / 1000 Ang^3
#
#
#
# Elastic Constant Matrix: (Units=GPa)
#
#
# Indices 1 2 3 4 5 6 
#
# 1 216.8080 69.7644 32.1333 0.0000 0.0000 0.0000
# 2 69.7644 68.7679 14.8932 0.0000 0.0000 0.0000
# 3 32.1333 14.8932 75.4931 0.0000 0.0000 0.0000
# 4 0.0000 0.0000 0.0000 14.7763 0.0000 0.0000
# 5 0.0000 0.0000 0.0000 0.0000 0.7070 0.0000
# 6 0.0000 0.0000 0.0000 0.0000 0.0000 2.0013
#
#
#
# Elastic Compliance Matrix: (Units=1/GPa)
#
#
# Indices 1 2 3 4 5 6 
#
# 1 0.007041 -0.006784 -0.001659 0.000000 0.000000 0.000000
# 2 -0.006784 0.021727 -0.001399 0.000000 0.000000 0.000000
# 3 -0.001659 -0.001399 0.014228 0.000000 0.000000 0.000000
# 4 0.000000 0.000000 0.000000 0.067676 0.000000 0.000000
# 5 0.000000 0.000000 0.000000 0.000000 1.414392 0.000000
# 6 0.000000 0.000000 0.000000 0.000000 0.000000 0.499687
#
#
# Mechanical properties :
#
#
# Convention : Reuss Voigt Hill
#
# Bulk Modulus (GPa) = 42.89365 66.07232 54.48299
# Shear Modulus (GPa) = 2.43640 19.78212 11.10926
#
# Velocity S-wave (km/s) = 1.02171 2.91132 2.18171
# Velocity P-wave (km/s) = 4.44635 6.29367 5.44887
#
# Compressibility (1/GPa) = 0.02331347
#
# Stress axis : x y z
#
# Youngs Moduli (GPa) = 142.02225 46.02605 70.28302
#
# Poissons Ratio (x) = 0.31224 0.11658
# Poissons Ratio (y) = 0.96347 0.09830
# Poissons Ratio (z) = 0.23557 0.06438
#
# Static dielectric constant tensor:
#      x y z
#    x 1.921530 0.000000 0.000000 
#    y 0.000000 1.833040 0.000000 
#    z 0.000000 0.000000 1.890940 
# 
# From -- ./inp_files/56860.got.cif
#   From: 2010.05.17/outbox.cif.g08.bks.cpg/sg74_29_cif.got.tgz:56860.got - 2010.06.03 17:57:02.
