data_PCOD9540418
_publ_section_title
;
Structure prediction by ZEFSAII (Michael W. Deem and Ramdas Pophale) SiO2 
 PCOD9540418
Probable space group: I M M A
;
_chemical_formula_sum "Si O2"
_cell_formula_units_Z 64
_cell_length_a 19.971541
_cell_length_b 16.047820
_cell_length_c 9.266121
_cell_angle_alpha 90.000000
_cell_angle_beta 90.000000
_cell_angle_gamma 90.000000
_cell_volume 2969.788955
_symmetry_space_group_name_H-M "I M M A"
_symmetry_group_IT_number 74
_symmetry_cell_setting 'orthorhombic'
loop_
_space_group_symop_operation_xyz
x,y,z
-x,1/2-y,z
x,-y,-z
-x,1/2+y,-z
-x,-y,-z
x,1/2+y,-z
-x,y,z
x,1/2-y,z
1/2+x,1/2+y,1/2+z
1/2-x,-y,1/2+z
1/2+x,1/2-y,1/2-z
1/2-x,y,1/2-z
1/2-x,1/2-y,1/2-z
1/2+x,y,1/2-z
1/2-x,1/2+y,1/2+z
1/2+x,-y,1/2+z
loop_
_atom_site_type_symbol
_atom_site_label
_atom_site_fract_x
_atom_site_fract_y
_atom_site_fract_z
Si Si1 0.308171 0.155902 0.129776
Si Si2 0.926234 0.119130 0.895211
Si Si3 0.928302 0.430763 0.223557
Si Si4 0.216243 0.079522 0.896598
O O1 0.334692 0.250000 0.122168
O O2 0.250000 0.154152 0.250000
O O3 0.367037 0.094879 0.178120
O O4 0.272395 0.129055 0.983794
O O5 0.848124 0.138650 0.864558
O O6 0.000000 0.155889 0.855032
O O7 0.927896 0.026913 0.824548
O O8 0.925935 0.116648 0.069798
O O9 0.000000 0.412572 0.293903
O O10 0.250000 0.048286 0.750000
O O11 0.197680 0.000000 0.000000
#
# Coordination Sequence:
#
# PCOD9540418 Si02
#       4
#    16  16  16  16
#     4  11  22  37  55  81 118 153 191 240 297 365
#     4   9  16  30  56  83 111 141 187 246 290 336
#     4   9  16  31  56  82 109 146 188 238 293 342
#     4  12  22  35  59  85 114 151 198 245 303 353
#
# _framework density 21.550353000000001
#
# number of rings (size 3 to 8) (size 9 to 14) (size 15 to 20)
#    0.000    1.750    5.000    3.750    0.000    1.000 
#    0.000    1.250    0.000    5.250    0.000    0.000 
#    0.000    0.000    0.000    0.000    0.000    0.000 
#
# Total GULP energy -178300.097171 kJ/mol
# GULP energy per Si atom -5571.878037 kJ/mol
# Density = 2.150130 g / cm^3
# Si number density = 21.550353 Si / 1000 Ang^3
#
#
#
# Elastic Constant Matrix: (Units=GPa)
#
#
# Indices 1 2 3 4 5 6 
#
# 1 192.8345 24.2943 50.2609 0.0000 0.0000 0.0000
# 2 24.2943 45.2491 18.6722 0.0000 0.0000 0.0000
# 3 50.2609 18.6722 69.3181 0.0000 0.0000 0.0000
# 4 0.0000 0.0000 0.0000 0.7636 0.0000 0.0000
# 5 0.0000 0.0000 0.0000 0.0000 24.5728 0.0000
# 6 0.0000 0.0000 0.0000 0.0000 0.0000 -14.9734
#
#
#
# Elastic Compliance Matrix: (Units=1/GPa)
#
#
# Indices 1 2 3 4 5 6 
#
# 1 0.006514 -0.001742 -0.004254 0.000000 0.000000 0.000000
# 2 -0.001742 0.025329 -0.005560 0.000000 0.000000 0.000000
# 3 -0.004254 -0.005560 0.019008 0.000000 0.000000 0.000000
# 4 0.000000 0.000000 0.000000 1.309569 0.000000 0.000000
# 5 0.000000 0.000000 0.000000 0.000000 0.040695 0.000000
# 6 0.000000 0.000000 0.000000 0.000000 0.000000 -0.066785
#
#
# Mechanical properties :
#
#
# Convention : Reuss Voigt Hill
#
# Bulk Modulus (GPa) = 36.04880 54.87297 45.46088
# Shear Modulus (GPa) = 3.65848 16.35089 10.00468
#
# Velocity S-wave (km/s) = 1.30435 2.75749 2.15698
# Velocity P-wave (km/s) = 4.36262 5.97129 5.22919
#
# Compressibility (1/GPa) = 0.02774018
#
# Stress axis : x y z
#
# Youngs Moduli (GPa) = 153.51521 39.47969 52.60852
#
# Poissons Ratio (x) = 0.06877 0.22379
# Poissons Ratio (y) = 0.26742 0.29250
# Poissons Ratio (z) = 0.65304 0.21950
#
# Static dielectric constant tensor:
#      x y z
#    x 1.872930 0.000000 0.000000 
#    y 0.000000 1.852850 0.000000 
#    z 0.000000 0.000000 1.756820 
# 
# From -- ./inp_files/11805.got.cif
#   From: 2010.05.17/outbox.cif.g08.bks.cpg/sg74_6_cif.got.tgz:11805.got - 2010.06.03 17:57:02.
