data_PCOD9540661
_publ_section_title
;
Structure prediction by ZEFSAII (Michael W. Deem and Ramdas Pophale) SiO2 
 PCOD9540661
Probable space group: I M M A
;
_chemical_formula_sum "Si O2"
_cell_formula_units_Z 72
_cell_length_a 16.849670
_cell_length_b 7.980007
_cell_length_c 28.447507
_cell_angle_alpha 90.000000
_cell_angle_beta 90.000000
_cell_angle_gamma 90.000000
_cell_volume 3825.065575
_symmetry_space_group_name_H-M "I M M A"
_symmetry_group_IT_number 74
_symmetry_cell_setting 'orthorhombic'
loop_
_space_group_symop_operation_xyz
x,y,z
-x,1/2-y,z
x,-y,-z
-x,1/2+y,-z
-x,-y,-z
x,1/2+y,-z
-x,y,z
x,1/2-y,z
1/2+x,1/2+y,1/2+z
1/2-x,-y,1/2+z
1/2+x,1/2-y,1/2-z
1/2-x,y,1/2-z
1/2-x,1/2-y,1/2-z
1/2+x,y,1/2-z
1/2-x,1/2+y,1/2+z
1/2+x,-y,1/2+z
loop_
_atom_site_type_symbol
_atom_site_label
_atom_site_fract_x
_atom_site_fract_y
_atom_site_fract_z
Si Si1 0.337138 0.951767 0.394452
Si Si2 0.820583 0.451183 0.553045
Si Si3 0.412514 0.045458 0.857576
Si Si4 0.000000 0.052535 0.055054
Si Si5 0.254548 0.954851 0.196412
O O1 0.334071 0.750000 0.393486
O O2 0.265084 0.011915 0.427991
O O3 0.312804 0.007857 0.341478
O O4 0.421284 0.997076 0.416764
O O5 0.835156 0.500000 0.500000
O O6 0.818241 0.250000 0.555521
O O7 0.887233 0.506963 0.589957
O O8 0.500000 0.986113 0.844581
O O9 0.413797 0.250000 0.856573
O O10 0.339726 0.994667 0.824663
O O11 0.000000 0.250000 0.054557
O O12 0.000000 0.000000 0.000000
O O13 0.252138 0.750000 0.197153
O O14 0.250000 0.013189 0.250000
#
# Coordination Sequence:
#
# PCOD9540661 Si02
#       5
#    16  16  16   8  16
#     4   9  18  33  50  71 102 132 162 204 252 298
#     4   9  17  28  44  65  91 125 158 191 231 281
#     4   8  14  25  40  61  92 124 152 187 234 280
#     4  12  24  36  52  74 102 134 172 214 259 312
#     4   8  14  27  47  71 100 129 161 201 244 292
#
# _framework density 18.823205000000002
#
# number of rings (size 3 to 8) (size 9 to 14) (size 15 to 20)
#    0.000    3.111    0.000    4.333    0.000    3.111 
#    2.000    0.000    0.000    0.667    0.000    0.000 
#    0.000    0.000    0.000    0.000    0.000    0.000 
#
# Total GULP energy -200528.005752 kJ/mol
# GULP energy per Si atom -5570.222382 kJ/mol
# Density = 1.878036 g / cm^3
# Si number density = 18.823205 Si / 1000 Ang^3
#
#
#
# Elastic Constant Matrix: (Units=GPa)
#
#
# Indices 1 2 3 4 5 6 
#
# 1 139.7791 8.4263 83.5908 0.0000 0.0000 0.0000
# 2 8.4263 16.5308 11.1915 0.0000 0.0000 0.0000
# 3 83.5908 11.1915 188.7851 0.0000 0.0000 0.0000
# 4 0.0000 0.0000 0.0000 16.9022 0.0000 0.0000
# 5 0.0000 0.0000 0.0000 0.0000 11.9941 0.0000
# 6 0.0000 0.0000 0.0000 0.0000 0.0000 2.0495
#
#
#
# Elastic Compliance Matrix: (Units=1/GPa)
#
#
# Indices 1 2 3 4 5 6 
#
# 1 0.009803 -0.002144 -0.004214 0.000000 0.000000 0.000000
# 2 -0.002144 0.063491 -0.002814 0.000000 0.000000 0.000000
# 3 -0.004214 -0.002814 0.007330 0.000000 0.000000 0.000000
# 4 0.000000 0.000000 0.000000 0.059164 0.000000 0.000000
# 5 0.000000 0.000000 0.000000 0.000000 0.083374 0.000000
# 6 0.000000 0.000000 0.000000 0.000000 0.000000 0.487934
#
#
# Mechanical properties :
#
#
# Convention : Reuss Voigt Hill
#
# Bulk Modulus (GPa) = 16.05665 61.27914 38.66790
# Shear Modulus (GPa) = 6.66488 22.31492 14.48990
#
# Velocity S-wave (km/s) = 1.88374 3.44685 2.77752
# Velocity P-wave (km/s) = 3.64418 6.96181 5.55638
#
# Compressibility (1/GPa) = 0.06227950
#
# Stress axis : x y z
#
# Youngs Moduli (GPa) = 102.00727 15.75016 136.43371
#
# Poissons Ratio (x) = 0.03377 0.57487
# Poissons Ratio (y) = 0.21874 0.38398
# Poissons Ratio (z) = 0.42982 0.04433
#
# Static dielectric constant tensor:
#      x y z
#    x 1.681800 0.000000 0.000000 
#    y 0.000000 1.696700 0.000000 
#    z 0.000000 0.000000 1.766830 
# 
# From -- ./inp_files/69971.got.cif
#   From: 2010.05.17/outbox.cif.g08.bks.cpg/sg74_35_cif.got.tgz:69971.got - 2010.06.03 17:57:02.
