data_PCOD9540807
_publ_section_title
;
Structure prediction by ZEFSAII (Michael W. Deem and Ramdas Pophale) SiO2 
 PCOD9540807
Probable space group: I M M A
;
_chemical_formula_sum "Si O2"
_cell_formula_units_Z 52
_cell_length_a 18.000000
_cell_length_b 12.000000
_cell_length_c 27.000000
_cell_angle_alpha 90.000000
_cell_angle_beta 90.000000
_cell_angle_gamma 90.000000
_cell_volume 5832.000000
_symmetry_space_group_name_H-M "I M M A"
_symmetry_group_IT_number 74
_symmetry_cell_setting 'orthorhombic'
loop_
_space_group_symop_operation_xyz
x,y,z
-x,1/2-y,z
x,-y,-z
-x,1/2+y,-z
-x,-y,-z
x,1/2+y,-z
-x,y,z
x,1/2-y,z
1/2+x,1/2+y,1/2+z
1/2-x,-y,1/2+z
1/2+x,1/2-y,1/2-z
1/2-x,y,1/2-z
1/2-x,1/2-y,1/2-z
1/2+x,y,1/2-z
1/2-x,1/2+y,1/2+z
1/2+x,-y,1/2+z
loop_
_atom_site_type_symbol
_atom_site_label
_atom_site_fract_x
_atom_site_fract_y
_atom_site_fract_z
Si Si1 0.578040 0.379988 0.603057
Si Si2 0.084079 0.996760 0.699643
Si Si3 0.407884 0.250000 0.421639
Si Si4 0.697367 0.250000 0.323013
Si Si5 0.579617 0.750000 0.761467
Si Si6 0.651590 0.880831 0.295026
Si Si7 0.226387 0.473441 0.350247
Si Si8 0.688498 0.039541 0.447655
O O1 0.500000 0.432384 0.588738
O O2 0.577605 0.250000 0.592338
O O3 0.590411 0.392331 0.661624
O O4 0.642280 0.437340 0.573986
O O5 0.080706 0.864077 0.708437
O O6 0.142073 0.010630 0.655510
O O7 0.000000 0.038327 0.693414
O O8 0.122571 0.053502 0.747444
O O9 0.500000 0.250000 0.420020
O O10 0.364862 0.250000 0.367794
O O11 0.370157 0.357850 0.447834
O O12 0.648221 0.250000 0.274669
O O13 0.748930 0.141799 0.324552
O O14 0.500000 0.750000 0.733211
O O15 0.663019 0.750000 0.284500
O O16 0.723350 0.935337 0.321269
O O17 0.248515 0.446878 0.406563
O O18 0.717511 0.000000 0.500000
#
# Coordination Sequence:
#
# PCOD9540807 Si02
#       8
#    16  16   8   8   8  16  16  16
#     4   9  18  32  50  72 102 138 169 201 244 295
#     4  11  22  34  52  78 107 135 170 215 262 305
#     4  10  21  33  51  79 108 135 166 205 250 302
#     4  10  18  34  54  77 108 141 173 205 246 302
#     4  10  20  31  50  80 110 140 167 202 251 306
#     4  10  20  34  52  76 108 144 178 204 241 304
#     4  10  21  36  55  76 101 137 173 217 258 306
#     4  10  22  37  52  72  99 132 173 215 258 300
#
# _framework density 8.9163239999999995
#
# number of rings (size 3 to 8) (size 9 to 14) (size 15 to 20)
#    0.000    2.000    1.538    2.077    1.077    4.000 
#    0.000    0.000    0.000    0.462    0.000    0.000 
#    0.000    0.000    0.000    0.000    0.000    0.000 
#
# Total GULP energy -289594.911957 kJ/mol
# GULP energy per Si atom -5569.132922 kJ/mol
# Density = 0.889603 g / cm^3
# Si number density = 8.916324 Si / 1000 Ang^3
#
#
#
# Elastic Constant Matrix: (Units=GPa)
#
#
# Indices 1 2 3 4 5 6 
#
# 1 89.9703 17.9969 39.9005 0.0000 0.0000 0.0000
# 2 17.9969 59.2082 22.6219 0.0000 0.0000 0.0000
# 3 39.9005 22.6219 48.7878 0.0000 0.0000 0.0000
# 4 0.0000 0.0000 0.0000 9.0833 0.0000 0.0000
# 5 0.0000 0.0000 0.0000 0.0000 -3.5513 0.0000
# 6 0.0000 0.0000 0.0000 0.0000 0.0000 3.4948
#
#
#
# Elastic Compliance Matrix: (Units=1/GPa)
#
#
# Indices 1 2 3 4 5 6 
#
# 1 0.017442 0.000180 -0.014348 0.000000 0.000000 0.000000
# 2 0.000180 0.020528 -0.009666 0.000000 0.000000 0.000000
# 3 -0.014348 -0.009666 0.036713 0.000000 0.000000 0.000000
# 4 0.000000 0.000000 0.000000 0.110092 0.000000 0.000000
# 5 0.000000 0.000000 0.000000 0.000000 -0.281590 0.000000
# 6 0.000000 0.000000 0.000000 0.000000 0.000000 0.286143
#
#
# Mechanical properties :
#
#
# Convention : Reuss Voigt Hill
#
# Bulk Modulus (GPa) = 37.01567 39.88943 38.45255
# Shear Modulus (GPa) = 20.32509 9.63517 14.98013
#
# Velocity S-wave (km/s) = 3.37971 2.32698 2.90149
# Velocity P-wave (km/s) = 6.00268 5.44400 5.73015
#
# Compressibility (1/GPa) = 0.02701559
#
# Stress axis : x y z
#
# Youngs Moduli (GPa) = 57.33303 48.71451 27.23804
#
# Poissons Ratio (x) = -0.00879 0.39082
# Poissons Ratio (y) = -0.01035 0.26328
# Poissons Ratio (z) = 0.82263 0.47087
#
# Static dielectric constant tensor:
#      x y z
#    x 1.644650 0.000000 0.000000 
#    y 0.000000 1.280350 0.000000 
#    z 0.000000 0.000000 1.663550 
# 
# From -- ./inp_files/67785.got.cif
#   From: 2010.05.17/outbox.ucp.g08.bks.cvg/sg74_34_cif.got.tgz:67785.got - 2010.06.11 16:37:44.
