data_PCOD9540333
_publ_section_title
;
Structure prediction by ZEFSAII (Michael W. Deem and Ramdas Pophale) SiO2 
 PCOD9540333
Probable space group: I M M A
;
_chemical_formula_sum "Si O2"
_cell_formula_units_Z 96
_cell_length_a 10.841555
_cell_length_b 16.729651
_cell_length_c 25.187974
_cell_angle_alpha 90.000000
_cell_angle_beta 90.000000
_cell_angle_gamma 90.000000
_cell_volume 4568.479652
_symmetry_space_group_name_H-M "I M M A"
_symmetry_group_IT_number 74
_symmetry_cell_setting 'orthorhombic'
loop_
_space_group_symop_operation_xyz
x,y,z
-x,1/2-y,z
x,-y,-z
-x,1/2+y,-z
-x,-y,-z
x,1/2+y,-z
-x,y,z
x,1/2-y,z
1/2+x,1/2+y,1/2+z
1/2-x,-y,1/2+z
1/2+x,1/2-y,1/2-z
1/2-x,y,1/2-z
1/2-x,1/2-y,1/2-z
1/2+x,y,1/2-z
1/2-x,1/2+y,1/2+z
1/2+x,-y,1/2+z
loop_
_atom_site_type_symbol
_atom_site_label
_atom_site_fract_x
_atom_site_fract_y
_atom_site_fract_z
Si Si1 0.143206 0.347883 0.708556
Si Si2 0.757605 0.839426 0.403605
Si Si3 0.500000 0.116092 0.959489
Si Si4 0.000000 0.564350 0.580804
Si Si5 0.356760 0.411733 0.499417
Si Si6 0.235870 0.656937 0.603959
Si Si7 0.862954 0.153437 0.213714
O O1 0.138562 0.250000 0.707604
O O2 0.250000 0.370778 0.750000
O O3 0.194780 0.375413 0.651442
O O4 0.000000 0.373406 0.717512
O O5 0.714140 0.750000 0.392272
O O6 0.658671 0.881542 0.440687
O O7 0.878683 0.839315 0.440441
O O8 0.500000 0.029542 0.930845
O O9 0.500000 0.104111 0.022168
O O10 0.879196 0.597648 0.609402
O O11 0.297632 0.500000 0.500000
O O12 0.500000 0.417458 0.485534
O O13 0.294365 0.359072 0.453843
O O14 0.197632 0.750000 0.607972
O O15 0.330283 0.640490 0.651885
O O16 0.866664 0.250000 0.221100
O O17 0.750000 0.123263 0.250000
O O18 0.000000 0.122515 0.226736
#
# Coordination Sequence:
#
# PCOD9540333 Si02
#       7
#    16  16   8   8  16  16  16
#     4   9  18  33  54  84 119 151 187 240 302 352
#     4  11  21  35  60  89 114 147 195 249 294 343
#     4  11  21  37  57  83 120 156 194 233 290 357
#     4  11  23  35  57  87 118 160 196 233 292 365
#     4  11  24  40  57  81 118 163 196 233 295 363
#     4  11  22  36  59  89 118 149 196 250 297 347
#     4   9  19  35  57  86 120 153 189 243 306 359
#
# _framework density 21.013555
#
# number of rings (size 3 to 8) (size 9 to 14) (size 15 to 20)
#    0.000    1.667    2.500    2.500    1.167    3.333 
#    0.000    1.667    0.000    4.000    0.000    0.000 
#    0.000    0.000    0.000    0.000    0.000    0.000 
#
# Total GULP energy -267897.552901 kJ/mol
# GULP energy per Si atom -5581.199019 kJ/mol
# Density = 2.096573 g / cm^3
# Si number density = 21.013555 Si / 1000 Ang^3
#
#
#
# Elastic Constant Matrix: (Units=GPa)
#
#
# Indices 1 2 3 4 5 6 
#
# 1 107.5641 12.0893 44.1835 0.0000 0.0000 0.0000
# 2 12.0893 32.2290 8.8404 0.0000 0.0000 0.0000
# 3 44.1835 8.8404 107.3034 0.0000 0.0000 0.0000
# 4 0.0000 0.0000 0.0000 0.7413 0.0000 0.0000
# 5 0.0000 0.0000 0.0000 0.0000 30.0516 0.0000
# 6 0.0000 0.0000 0.0000 0.0000 0.0000 -2.7118
#
#
#
# Elastic Compliance Matrix: (Units=1/GPa)
#
#
# Indices 1 2 3 4 5 6 
#
# 1 0.011480 -0.003079 -0.004474 0.000000 0.000000 0.000000
# 2 -0.003079 0.032571 -0.001416 0.000000 0.000000 0.000000
# 3 -0.004474 -0.001416 0.011278 0.000000 0.000000 0.000000
# 4 0.000000 0.000000 0.000000 1.349070 0.000000 0.000000
# 5 0.000000 0.000000 0.000000 0.000000 0.033276 0.000000
# 6 0.000000 0.000000 0.000000 0.000000 0.000000 -0.368759
#
#
# Mechanical properties :
#
#
# Convention : Reuss Voigt Hill
#
# Bulk Modulus (GPa) = 26.74289 41.92476 34.33383
# Shear Modulus (GPa) = 4.54827 17.74843 11.14835
#
# Velocity S-wave (km/s) = 1.47280 2.90938 2.30583
# Velocity P-wave (km/s) = 3.95554 5.59291 4.84391
#
# Compressibility (1/GPa) = 0.03739312
#
# Stress axis : x y z
#
# Youngs Moduli (GPa) = 87.10480 30.70185 88.66805
#
# Poissons Ratio (x) = 0.09454 0.39666
# Poissons Ratio (y) = 0.26822 0.12551
# Poissons Ratio (z) = 0.38966 0.04346
#
# Static dielectric constant tensor:
#      x y z
#    x 1.762820 0.000000 0.000000 
#    y 0.000000 1.801670 0.000000 
#    z 0.000000 0.000000 1.751890 
# 
# From -- ./inp_files/58902.got.cif
#   From: 2010.05.17/outbox.cif.g08.bks.cpg/sg74_30_cif.got.tgz:58902.got - 2010.06.03 17:57:02.
