data_PCOD9540897
_publ_section_title
;
Structure prediction by ZEFSAII (Michael W. Deem and Ramdas Pophale) SiO2 
 PCOD9540897
Probable space group: I M M A
;
_chemical_formula_sum "Si O2"
_cell_formula_units_Z 52
_cell_length_a 27.000000
_cell_length_b 9.000000
_cell_length_c 21.000000
_cell_angle_alpha 90.000000
_cell_angle_beta 90.000000
_cell_angle_gamma 90.000000
_cell_volume 5103.000000
_symmetry_space_group_name_H-M "I M M A"
_symmetry_group_IT_number 74
_symmetry_cell_setting 'orthorhombic'
loop_
_space_group_symop_operation_xyz
x,y,z
-x,1/2-y,z
x,-y,-z
-x,1/2+y,-z
-x,-y,-z
x,1/2+y,-z
-x,y,z
x,1/2-y,z
1/2+x,1/2+y,1/2+z
1/2-x,-y,1/2+z
1/2+x,1/2-y,1/2-z
1/2-x,y,1/2-z
1/2-x,1/2-y,1/2-z
1/2+x,y,1/2-z
1/2-x,1/2+y,1/2+z
1/2+x,-y,1/2+z
loop_
_atom_site_type_symbol
_atom_site_label
_atom_site_fract_x
_atom_site_fract_y
_atom_site_fract_z
Si Si1 0.083105 0.076003 0.564296
Si Si2 0.843943 0.075295 0.254590
Si Si3 0.000000 0.928804 0.070600
Si Si4 0.443864 0.429531 0.791004
Si Si5 0.312270 0.924503 0.117798
Si Si6 0.203440 0.072578 0.860532
Si Si7 0.894826 0.071042 0.930805
O O1 0.071782 0.250000 0.560019
O O2 0.063152 0.026912 0.633904
O O3 0.142983 0.057607 0.568554
O O4 0.064618 0.000000 0.500000
O O5 0.848036 0.250000 0.245383
O O6 0.898596 0.000173 0.251709
O O7 0.825319 0.031760 0.324400
O O8 0.803795 0.006411 0.206702
O O9 0.052518 0.968990 0.101511
O O10 0.000000 0.750000 0.063722
O O11 0.000000 0.000000 0.000000
O O12 0.500000 0.467710 0.771296
O O13 0.438707 0.250000 0.787769
O O14 0.315352 0.750000 0.138589
O O15 0.254883 0.954304 0.102759
O O16 0.200035 0.250000 0.850559
O O17 0.154894 0.020083 0.897558
O O18 0.892641 0.250000 0.935253
O O19 0.895828 0.000000 0.000000
#
# Coordination Sequence:
#
# PCOD9540897 Si02
#       7
#    16  16   8  16  16  16  16
#     4   9  18  32  51  78 108 139 177 217 263 315
#     4  11  22  35  53  79 108 134 169 221 274 318
#     4   8  14  28  48  68  92 124 160 196 235 288
#     4   9  19  38  60  78 103 144 186 220 259 315
#     4   9  19  36  55  72 100 142 182 218 258 312
#     4  10  20  35  54  76 102 138 181 219 259 315
#     4   9  18  32  51  74 101 132 169 210 256 306
#
# _framework density 10.190084000000001
#
# number of rings (size 3 to 8) (size 9 to 14) (size 15 to 20)
#    0.000    2.615    0.000    2.769    0.000    6.769 
#    1.385    0.000    0.000    0.000    0.000    0.000 
#    0.000    0.000    0.000    0.000    0.000    0.000 
#
# Total GULP energy -289736.133323 kJ/mol
# GULP energy per Si atom -5571.848718 kJ/mol
# Density = 1.016689 g / cm^3
# Si number density = 10.190084 Si / 1000 Ang^3
#
#
#
# Elastic Constant Matrix: (Units=GPa)
#
#
# Indices 1 2 3 4 5 6 
#
# 1 127.0409 21.5829 -5.7665 0.0000 0.0000 0.0000
# 2 21.5829 5.7218 6.0206 0.0000 0.0000 0.0000
# 3 -5.7665 6.0206 16.2018 0.0000 0.0000 0.0000
# 4 0.0000 0.0000 0.0000 15.4115 0.0000 0.0000
# 5 0.0000 0.0000 0.0000 0.0000 11.5028 0.0000
# 6 0.0000 0.0000 0.0000 0.0000 0.0000 16.3364
#
#
#
# Elastic Compliance Matrix: (Units=1/GPa)
#
#
# Indices 1 2 3 4 5 6 
#
# 1 -0.027355 0.186256 -0.078949 0.000000 0.000000 0.000000
# 2 0.186256 -0.981208 0.430907 0.000000 0.000000 0.000000
# 3 -0.078949 0.430907 -0.126502 0.000000 0.000000 0.000000
# 4 0.000000 0.000000 0.000000 0.064887 0.000000 0.000000
# 5 0.000000 0.000000 0.000000 0.000000 0.086935 0.000000
# 6 0.000000 0.000000 0.000000 0.000000 0.000000 0.061213
#
#
# Mechanical properties :
#
#
# Convention : Reuss Voigt Hill
#
# Bulk Modulus (GPa) = -17.05442 21.40428 2.17493
# Shear Modulus (GPa) = -2.47769 17.12532 7.32381
#
# Velocity S-wave (km/s) = -1.10380 2.90193 1.89774
# Velocity P-wave (km/s) = 3.16399 4.66407 2.42309
#
# Compressibility (1/GPa) = -0.05863584
#
# Stress axis : x y z
#
# Youngs Moduli (GPa) = -36.55627 -1.01915 -7.90501
#
# Poissons Ratio (x) = 0.18982 -0.62409
# Poissons Ratio (y) = 6.80884 3.40633
# Poissons Ratio (z) = -2.88607 0.43916
#
# Static dielectric constant tensor:
#      x y z
#    x 1.794960 0.000000 0.000000 
#    y 0.000000 1.675730 0.000000 
#    z 0.000000 0.000000 1.782040 
# 
# From -- ./inp_files/55247.got.cif
#   From: 2010.05.17/outbox.ucp.g08.bks.cvg/sg74_28_cif.got.tgz:55247.got - 2010.06.11 16:37:44.
