data_PCOD9540658
_publ_section_title
;
Structure prediction by ZEFSAII (Michael W. Deem and Ramdas Pophale) SiO2 
 PCOD9540658
Probable space group: I M M A
;
_chemical_formula_sum "Si O2"
_cell_formula_units_Z 88
_cell_length_a 27.626917
_cell_length_b 9.178415
_cell_length_c 18.020137
_cell_angle_alpha 90.000000
_cell_angle_beta 90.000000
_cell_angle_gamma 90.000000
_cell_volume 4569.389735
_symmetry_space_group_name_H-M "I M M A"
_symmetry_group_IT_number 74
_symmetry_cell_setting 'orthorhombic'
loop_
_space_group_symop_operation_xyz
x,y,z
-x,1/2-y,z
x,-y,-z
-x,1/2+y,-z
-x,-y,-z
x,1/2+y,-z
-x,y,z
x,1/2-y,z
1/2+x,1/2+y,1/2+z
1/2-x,-y,1/2+z
1/2+x,1/2-y,1/2-z
1/2-x,y,1/2-z
1/2-x,1/2-y,1/2-z
1/2+x,y,1/2-z
1/2-x,1/2+y,1/2+z
1/2+x,-y,1/2+z
loop_
_atom_site_type_symbol
_atom_site_label
_atom_site_fract_x
_atom_site_fract_y
_atom_site_fract_z
Si Si1 0.245516 0.576644 0.925896
Si Si2 0.553259 0.424463 0.850156
Si Si3 0.338348 0.575153 0.129529
Si Si4 0.072362 0.916080 0.175597
Si Si5 0.500000 0.580706 0.577076
Si Si6 0.184669 0.416353 0.803777
O O1 0.244280 0.750000 0.932817
O O2 0.299997 0.516296 0.916517
O O3 0.217009 0.523011 0.852544
O O4 0.224849 0.500000 0.000000
O O5 0.500000 0.482097 0.873924
O O6 0.552482 0.250000 0.862550
O O7 0.605592 0.473790 0.881019
O O8 0.558408 0.443975 0.761309
O O9 0.335378 0.750000 0.114990
O O10 0.322056 0.555619 0.215933
O O11 0.057077 0.750000 0.158542
O O12 0.129792 0.922582 0.167265
O O13 0.045906 0.029018 0.124066
O O14 0.500000 0.750000 0.565273
O O15 0.500000 0.500000 0.500000
O O16 0.203210 0.250000 0.812546
#
# Coordination Sequence:
#
# PCOD9540658 Si02
#       6
#    16  16  16  16   8  16
#     4  12  25  39  56  77 108 148 186 231 278 330
#     4   8  13  26  55  86 109 135 170 211 258 313
#     4   9  18  34  58  87 115 144 179 222 269 325
#     4   9  17  33  55  76 102 134 173 218 260 312
#     4  12  24  34  46  66  98 142 183 222 267 314
#     4   9  19  36  60  86 110 141 179 224 274 327
#
# _framework density 19.258590000000002
#
# number of rings (size 3 to 8) (size 9 to 14) (size 15 to 20)
#    0.000    2.364    0.909    5.182    0.000    4.364 
#    0.000    2.727    0.000    0.545    0.000    0.000 
#    0.000    0.000    0.000    0.000    0.000    0.000 
#
# Total GULP energy -245399.222418 kJ/mol
# GULP energy per Si atom -5577.255055 kJ/mol
# Density = 1.921476 g / cm^3
# Si number density = 19.258590 Si / 1000 Ang^3
#
#
#
# Elastic Constant Matrix: (Units=GPa)
#
#
# Indices 1 2 3 4 5 6 
#
# 1 109.6131 30.5054 10.2242 0.0000 0.0000 0.0000
# 2 30.5054 90.8124 27.0313 0.0000 0.0000 0.0000
# 3 10.2242 27.0313 22.1657 0.0000 0.0000 0.0000
# 4 0.0000 0.0000 0.0000 20.8064 0.0000 0.0000
# 5 0.0000 0.0000 0.0000 0.0000 -43.1106 0.0000
# 6 0.0000 0.0000 0.0000 0.0000 0.0000 19.2929
#
#
#
# Elastic Compliance Matrix: (Units=1/GPa)
#
#
# Indices 1 2 3 4 5 6 
#
# 1 0.010073 -0.003141 -0.000816 0.000000 0.000000 0.000000
# 2 -0.003141 0.018266 -0.020827 0.000000 0.000000 0.000000
# 3 -0.000816 -0.020827 0.070890 0.000000 0.000000 0.000000
# 4 0.000000 0.000000 0.000000 0.048062 0.000000 0.000000
# 5 0.000000 0.000000 0.000000 0.000000 -0.023196 0.000000
# 6 0.000000 0.000000 0.000000 0.000000 0.000000 0.051833
#
#
# Mechanical properties :
#
#
# Convention : Reuss Voigt Hill
#
# Bulk Modulus (GPa) = 20.13640 39.79034 29.96337
# Shear Modulus (GPa) = 20.65695 9.71975 15.18835
#
# Velocity S-wave (km/s) = 3.27862 2.24898 2.81134
# Velocity P-wave (km/s) = 4.98107 5.23926 5.11179
#
# Compressibility (1/GPa) = 0.04966130
#
# Stress axis : x y z
#
# Youngs Moduli (GPa) = 99.27313 54.74608 14.10642
#
# Poissons Ratio (x) = 0.17195 0.01151
# Poissons Ratio (y) = 0.31180 0.29379
# Poissons Ratio (z) = 0.08102 1.14019
#
# Static dielectric constant tensor:
#      x y z
#    x 1.721060 0.000000 0.000000 
#    y 0.000000 1.636260 0.000000 
#    z 0.000000 0.000000 1.788540 
# 
# From -- ./inp_files/47002.got.cif
#   From: 2010.05.17/outbox.cif.g08.bks.cpg/sg74_24_cif.got.tgz:47002.got - 2010.06.03 17:57:02.
