data_PCOD9540128
_publ_section_title
;
Structure prediction by ZEFSAII (Michael W. Deem and Ramdas Pophale) SiO2 
 PCOD9540128
Probable space group: I M M A
;
_chemical_formula_sum "Si O2"
_cell_formula_units_Z 104
_cell_length_a 30.072999
_cell_length_b 20.435966
_cell_length_c 7.184373
_cell_angle_alpha 90.000000
_cell_angle_beta 90.000000
_cell_angle_gamma 90.000000
_cell_volume 4415.305755
_symmetry_space_group_name_H-M "I M M A"
_symmetry_group_IT_number 74
_symmetry_cell_setting 'orthorhombic'
loop_
_space_group_symop_operation_xyz
x,y,z
-x,1/2-y,z
x,-y,-z
-x,1/2+y,-z
-x,-y,-z
x,1/2+y,-z
-x,y,z
x,1/2-y,z
1/2+x,1/2+y,1/2+z
1/2-x,-y,1/2+z
1/2+x,1/2-y,1/2-z
1/2-x,y,1/2-z
1/2-x,1/2-y,1/2-z
1/2+x,y,1/2-z
1/2-x,1/2+y,1/2+z
1/2+x,-y,1/2+z
loop_
_atom_site_type_symbol
_atom_site_label
_atom_site_fract_x
_atom_site_fract_y
_atom_site_fract_z
Si Si1 0.802155 0.133744 0.703229
Si Si2 0.250000 0.250000 0.250000
Si Si3 0.081035 0.350382 0.392521
Si Si4 0.446536 0.570388 0.580176
Si Si5 0.500000 0.250000 0.146916
Si Si6 0.698040 0.487195 0.283130
Si Si7 0.675373 0.656854 0.795739
Si Si8 0.394510 0.172329 0.677954
O O1 0.750000 0.140254 0.750000
O O2 0.811302 0.055711 0.681828
O O3 0.809272 0.169966 0.508592
O O4 0.841396 0.158984 0.837784
O O5 0.286348 0.193328 0.313937
O O6 0.069246 0.418579 0.292110
O O7 0.038728 0.305992 0.359360
O O8 0.124613 0.322047 0.289086
O O9 0.092486 0.349869 0.611215
O O10 0.433038 0.500000 0.500000
O O11 0.500000 0.575820 0.566683
O O12 0.423342 0.627546 0.459247
O O13 0.690794 0.500000 0.500000
O O14 0.750000 0.473383 0.250000
O O15 0.674130 0.420649 0.232954
O O16 0.403523 0.250000 0.660085
#
# Coordination Sequence:
#
# PCOD9540128 Si02
#       8
#    16   4  16  16   4  16  16  16
#     4  10  24  44  67 100 145 186 232 294 349 422
#     4  12  26  40  66  94 144 188 226 298 338 420
#     4  11  26  46  76 104 148 189 245 304 371 443
#     4  11  28  50  75 111 150 190 245 313 382 446
#     4  12  22  48  76 104 136 200 238 302 374 450
#     4  11  22  40  69  98 132 187 240 287 347 421
#     4  11  25  44  66 101 141 187 238 289 362 420
#     4  11  27  46  75 113 143 195 250 299 370 448
#
# _framework density 23.554425999999999
#
# number of rings (size 3 to 8) (size 9 to 14) (size 15 to 20)
#    0.000    1.077    2.308    2.769    9.692    1.231 
#    2.769    1.538    0.000    0.000    0.000    0.000 
#    0.000    0.000    0.000    0.000    0.000    0.000 
#
# Total GULP energy -289850.932106 kJ/mol
# GULP energy per Si atom -5574.056387 kJ/mol
# Density = 2.350082 g / cm^3
# Si number density = 23.554426 Si / 1000 Ang^3
#
#
#
# Elastic Constant Matrix: (Units=GPa)
#
#
# Indices 1 2 3 4 5 6 
#
# 1 186.1898 60.8543 31.5697 0.0000 0.0000 0.0000
# 2 60.8543 135.6799 49.1559 0.0000 0.0000 0.0000
# 3 31.5697 49.1559 71.1618 0.0000 0.0000 0.0000
# 4 0.0000 0.0000 0.0000 53.7819 0.0000 0.0000
# 5 0.0000 0.0000 0.0000 0.0000 22.2715 0.0000
# 6 0.0000 0.0000 0.0000 0.0000 0.0000 131.1828
#
#
#
# Elastic Compliance Matrix: (Units=1/GPa)
#
#
# Indices 1 2 3 4 5 6 
#
# 1 0.006361 -0.002442 -0.001135 0.000000 0.000000 0.000000
# 2 -0.002442 0.010768 -0.006355 0.000000 0.000000 0.000000
# 3 -0.001135 -0.006355 0.018946 0.000000 0.000000 0.000000
# 4 0.000000 0.000000 0.000000 0.018594 0.000000 0.000000
# 5 0.000000 0.000000 0.000000 0.000000 0.044900 0.000000
# 6 0.000000 0.000000 0.000000 0.000000 0.000000 0.007623
#
#
# Mechanical properties :
#
#
# Convention : Reuss Voigt Hill
#
# Bulk Modulus (GPa) = 61.68613 75.13236 68.40924
# Shear Modulus (GPa) = 37.74736 58.21069 47.97902
#
# Velocity S-wave (km/s) = 4.00754 4.97664 4.51815
# Velocity P-wave (km/s) = 6.90358 8.06158 7.50495
#
# Compressibility (1/GPa) = 0.01621110
#
# Stress axis : x y z
#
# Youngs Moduli (GPa) = 157.19624 92.86993 52.78226
#
# Poissons Ratio (x) = 0.22677 0.05993
# Poissons Ratio (y) = 0.38385 0.33541
# Poissons Ratio (z) = 0.17848 0.59016
#
# Static dielectric constant tensor:
#      x y z
#    x 1.862130 0.000000 0.000000 
#    y 0.000000 1.848880 0.000000 
#    z 0.000000 0.000000 1.986500 
# 
# From -- ./inp_files/16244.got.cif
#   From: 2010.05.17/outbox.cif.g08.bks.cpg/sg74_9_cif.got.tgz:16244.got - 2010.06.03 17:57:02.
