data_PCOD9540009
_publ_section_title
;
Structure prediction by ZEFSAII (Michael W. Deem and Ramdas Pophale) SiO2 
 PCOD9540009
Probable space group: I M M A
;
_chemical_formula_sum "Si O2"
_cell_formula_units_Z 76
_cell_length_a 16.204790
_cell_length_b 26.289911
_cell_length_c 8.974787
_cell_angle_alpha 90.000000
_cell_angle_beta 90.000000
_cell_angle_gamma 90.000000
_cell_volume 3823.461077
_symmetry_space_group_name_H-M "I M M A"
_symmetry_group_IT_number 74
_symmetry_cell_setting 'orthorhombic'
loop_
_space_group_symop_operation_xyz
x,y,z
-x,1/2-y,z
x,-y,-z
-x,1/2+y,-z
-x,-y,-z
x,1/2+y,-z
-x,y,z
x,1/2-y,z
1/2+x,1/2+y,1/2+z
1/2-x,-y,1/2+z
1/2+x,1/2-y,1/2-z
1/2-x,y,1/2-z
1/2-x,1/2-y,1/2-z
1/2+x,y,1/2-z
1/2-x,1/2+y,1/2+z
1/2+x,-y,1/2+z
loop_
_atom_site_type_symbol
_atom_site_label
_atom_site_fract_x
_atom_site_fract_y
_atom_site_fract_z
Si Si1 0.680697 0.750000 0.127530
Si Si2 0.000000 0.647546 0.990101
Si Si3 0.663987 0.852915 0.002098
Si Si4 0.500000 0.312500 0.148657
Si Si5 0.250000 0.082649 0.250000
Si Si6 0.500000 0.750000 0.297004
Si Si7 0.630145 0.055218 0.492381
Si Si8 0.750000 0.413376 0.750000
O O1 0.750000 0.750000 0.250000
O O2 0.700278 0.798015 0.027985
O O3 0.586414 0.750000 0.198429
O O4 0.000000 0.671282 0.822873
O O5 0.923551 0.607210 0.005049
O O6 0.000000 0.696780 0.103980
O O7 0.680891 0.881086 0.158871
O O8 0.575343 0.838844 0.937735
O O9 0.710946 0.883676 0.878135
O O10 0.500000 0.250000 0.137738
O O11 0.323779 0.054625 0.333221
O O12 0.699105 0.057592 0.622834
O O13 0.587807 0.000000 0.500000
#
# Coordination Sequence:
#
# PCOD9540009 Si02
#       8
#     8   8  16   8   8   4  16   8
#     4  12  24  38  64  96 134 180 231 274 335 400
#     4  12  25  43  66  94 135 175 218 269 334 401
#     4  11  22  40  61  93 133 173 220 267 330 394
#     4  12  23  41  62  93 132 181 213 267 324 392
#     4  10  23  39  66  94 128 169 218 280 329 408
#     4  12  28  44  64 102 142 176 228 280 334 404
#     4  11  23  44  69  96 128 170 221 275 339 399
#     4  10  23  41  66  96 124 165 214 278 331 388
#
# _framework density 19.877279000000001
#
# number of rings (size 3 to 8) (size 9 to 14) (size 15 to 20)
#    0.000    0.842    4.737    2.842    2.947    1.263 
#    0.000    0.000    0.000    1.263    0.000    0.000 
#    0.000    0.000    0.000    0.000    0.000    0.000 
#
# Total GULP energy -211540.644513 kJ/mol
# GULP energy per Si atom -5566.859066 kJ/mol
# Density = 1.983204 g / cm^3
# Si number density = 19.877279 Si / 1000 Ang^3
#
#
#
# Elastic Constant Matrix: (Units=GPa)
#
#
# Indices 1 2 3 4 5 6 
#
# 1 76.2750 36.2587 22.0541 0.0002 0.0001 0.0003
# 2 36.2587 144.6838 46.5835 0.0001 0.0000 -0.0002
# 3 22.0541 46.5835 112.2811 0.0005 -0.0002 -0.0018
# 4 0.0002 0.0001 0.0005 14.5851 0.0000 -0.0007
# 5 0.0001 0.0000 -0.0002 0.0000 10.5452 -0.0003
# 6 0.0003 -0.0002 -0.0018 -0.0007 -0.0003 121.2424
#
#
#
# Elastic Compliance Matrix: (Units=1/GPa)
#
#
# Indices 1 2 3 4 5 6 
#
# 1 0.015133 -0.003273 -0.001615 0.000000 0.000000 0.000000
# 2 -0.003273 0.008685 -0.002960 0.000000 0.000000 0.000000
# 3 -0.001615 -0.002960 0.010452 0.000000 0.000000 0.000000
# 4 0.000000 0.000000 0.000000 0.068563 0.000000 0.000000
# 5 0.000000 0.000000 0.000000 0.000000 0.094830 0.000000
# 6 0.000000 0.000000 0.000000 0.000000 0.000000 0.008248
#
#
# Mechanical properties :
#
#
# Convention : Reuss Voigt Hill
#
# Bulk Modulus (GPa) = 53.83814 60.33694 57.08754
# Shear Modulus (GPa) = 21.94933 44.49743 33.22338
#
# Velocity S-wave (km/s) = 3.32662 4.73653 4.09274
# Velocity P-wave (km/s) = 6.47296 7.76747 7.14957
#
# Compressibility (1/GPa) = 0.01857419
#
# Stress axis : x y z
#
# Youngs Moduli (GPa) = 66.08077 115.14219 95.67909
#
# Poissons Ratio (x) = 0.37681 0.15449
# Poissons Ratio (y) = 0.21625 0.28325
# Poissons Ratio (z) = 0.10670 0.34087
#
# Static dielectric constant tensor:
#      x y z
#    x 1.632160 0.000000 0.000000 
#    y 0.000000 1.717430 0.000000 
#    z 0.000000 0.000000 1.694830 
# 
# From -- ./inp_files/11085.got.cif
#   From: 2010.05.17/outbox.cif.g08.bks.cpg/sg74_6_cif.got.tgz:11085.got - 2010.06.03 17:57:02.
