data_PCOD9540019
_publ_section_title
;
Structure prediction by ZEFSAII (Michael W. Deem and Ramdas Pophale) SiO2 
 PCOD9540019
Probable space group: I M M A
;
_chemical_formula_sum "Si O2"
_cell_formula_units_Z 48
_cell_length_a 10.289279
_cell_length_b 20.550848
_cell_length_c 11.159766
_cell_angle_alpha 90.000000
_cell_angle_beta 90.000000
_cell_angle_gamma 90.000000
_cell_volume 2359.770562
_symmetry_space_group_name_H-M "I M M A"
_symmetry_group_IT_number 74
_symmetry_cell_setting 'orthorhombic'
loop_
_space_group_symop_operation_xyz
x,y,z
-x,1/2-y,z
x,-y,-z
-x,1/2+y,-z
-x,-y,-z
x,1/2+y,-z
-x,y,z
x,1/2-y,z
1/2+x,1/2+y,1/2+z
1/2-x,-y,1/2+z
1/2+x,1/2-y,1/2-z
1/2-x,y,1/2-z
1/2-x,1/2-y,1/2-z
1/2+x,y,1/2-z
1/2-x,1/2+y,1/2+z
1/2+x,-y,1/2+z
loop_
_atom_site_type_symbol
_atom_site_label
_atom_site_fract_x
_atom_site_fract_y
_atom_site_fract_z
Si Si1 0.000000 0.865747 0.112804
Si Si2 0.250000 0.912221 0.750000
Si Si3 0.238846 0.671212 0.519115
Si Si4 0.000000 0.510126 0.853887
Si Si5 0.000000 0.823202 0.367774
O O1 0.000000 0.819022 0.226180
O O2 0.000000 0.934714 0.180833
O O3 0.875842 0.853853 0.030586
O O4 0.206027 0.864729 0.642561
O O5 0.370858 0.954467 0.697473
O O6 0.245716 0.750000 0.531553
O O7 0.131748 0.649165 0.422022
O O8 0.000000 0.500000 0.000000
O O9 0.000000 0.750000 0.417354
#
# Coordination Sequence:
#
# PCOD9540019 Si02
#       5
#     8   8  16   8   8
#     4  12  24  42  66  98 136 182 225 276 346 406
#     4  12  25  46  70  98 141 182 232 288 346 414
#     4  11  23  42  69 100 134 176 230 288 346 406
#     4  12  27  46  66  98 139 182 229 277 338 420
#     4  10  23  40  64 100 133 171 224 279 341 408
#
# _framework density 20.340959999999999
#
# number of rings (size 3 to 8) (size 9 to 14) (size 15 to 20)
#    0.000    0.667    3.333    4.000    4.667    2.667 
#    0.000    7.500    0.000    0.000    0.000    0.000 
#    0.000    0.000    0.000    0.000    0.000    0.000 
#
# Total GULP energy -133901.124539 kJ/mol
# GULP energy per Si atom -5579.213522 kJ/mol
# Density = 2.029466 g / cm^3
# Si number density = 20.340960 Si / 1000 Ang^3
#
#
#
# Elastic Constant Matrix: (Units=GPa)
#
#
# Indices 1 2 3 4 5 6 
#
# 1 143.1860 36.2859 51.0095 0.0001 0.0000 -0.0001
# 2 36.2859 117.3105 26.1090 0.0004 -0.0001 -0.0003
# 3 51.0095 26.1090 125.8822 0.0002 0.0000 -0.0003
# 4 0.0001 0.0004 0.0002 42.3552 0.0000 -0.0001
# 5 0.0000 -0.0001 0.0000 0.0000 36.5348 0.0000
# 6 -0.0001 -0.0003 -0.0003 -0.0001 0.0000 19.4567
#
#
#
# Elastic Compliance Matrix: (Units=1/GPa)
#
#
# Indices 1 2 3 4 5 6 
#
# 1 0.008576 -0.001970 -0.003066 0.000000 0.000000 0.000000
# 2 -0.001970 0.009390 -0.001149 0.000000 0.000000 0.000000
# 3 -0.003066 -0.001149 0.009425 0.000000 0.000000 0.000000
# 4 0.000000 0.000000 0.000000 0.023610 0.000000 0.000000
# 5 0.000000 0.000000 0.000000 0.000000 0.027371 0.000000
# 6 0.000000 0.000000 0.000000 0.000000 0.000000 0.051396
#
#
# Mechanical properties :
#
#
# Convention : Reuss Voigt Hill
#
# Bulk Modulus (GPa) = 66.58357 68.13195 67.35776
# Shear Modulus (GPa) = 33.98022 37.86763 35.92393
#
# Velocity S-wave (km/s) = 4.09165 4.31936 4.20704
# Velocity P-wave (km/s) = 7.42475 7.64483 7.53560
#
# Compressibility (1/GPa) = 0.01501872
#
# Stress axis : x y z
#
# Youngs Moduli (GPa) = 116.61057 106.50168 106.10293
#
# Poissons Ratio (x) = 0.20982 0.32535
# Poissons Ratio (y) = 0.22973 0.12193
# Poissons Ratio (z) = 0.35757 0.12239
#
# Static dielectric constant tensor:
#      x y z
#    x 1.691950 0.000000 0.000000 
#    y 0.000000 1.841330 0.000000 
#    z 0.000000 0.000000 1.704280 
# 
# From -- ./inp_files/17106.got.cif
#   From: 2010.05.17/outbox.cif.g08.bks.cpg/sg74_9_cif.got.tgz:17106.got - 2010.06.03 17:57:02.
