data_PCOD9540644
_publ_section_title
;
Structure prediction by ZEFSAII (Michael W. Deem and Ramdas Pophale) SiO2 
 PCOD9540644
Probable space group: I M M A
;
_chemical_formula_sum "Si O2"
_cell_formula_units_Z 80
_cell_length_a 7.530761
_cell_length_b 18.024705
_cell_length_c 32.326042
_cell_angle_alpha 90.000000
_cell_angle_beta 90.000000
_cell_angle_gamma 90.000000
_cell_volume 4387.928713
_symmetry_space_group_name_H-M "I M M A"
_symmetry_group_IT_number 74
_symmetry_cell_setting 'orthorhombic'
loop_
_space_group_symop_operation_xyz
x,y,z
-x,1/2-y,z
x,-y,-z
-x,1/2+y,-z
-x,-y,-z
x,1/2+y,-z
-x,y,z
x,1/2-y,z
1/2+x,1/2+y,1/2+z
1/2-x,-y,1/2+z
1/2+x,1/2-y,1/2-z
1/2-x,y,1/2-z
1/2-x,1/2-y,1/2-z
1/2+x,y,1/2-z
1/2-x,1/2+y,1/2+z
1/2+x,-y,1/2+z
loop_
_atom_site_type_symbol
_atom_site_label
_atom_site_fract_x
_atom_site_fract_y
_atom_site_fract_z
Si Si1 0.792030 0.096024 0.422089
Si Si2 0.783727 0.667928 0.664357
Si Si3 0.500000 0.161988 0.579334
Si Si4 0.000000 0.412109 0.009981
Si Si5 0.287934 0.983602 0.796879
Si Si6 0.290651 0.436117 0.878375
O O1 0.739551 0.147355 0.383101
O O2 0.670086 0.105927 0.461678
O O3 0.000000 0.108407 0.430882
O O4 0.771982 0.011616 0.405377
O O5 0.720996 0.750000 0.675737
O O6 0.720510 0.599368 0.692414
O O7 0.000000 0.668519 0.666256
O O8 0.500000 0.250000 0.581009
O O9 0.500000 0.132820 0.532351
O O10 0.670823 0.126848 0.601969
O O11 0.000000 0.500000 0.000000
O O12 0.500000 0.980439 0.802184
O O13 0.250000 0.004354 0.750000
O O14 0.227473 0.040006 0.832447
O O15 0.500000 0.417338 0.877496
#
# Coordination Sequence:
#
# PCOD9540644 Si02
#       6
#    16  16   8   8  16  16
#     4   9  18  34  58  80 107 152 198 227 267 324
#     4   8  15  30  50  74 113 157 189 224 270 321
#     4  12  26  40  58  86 114 146 180 232 300 339
#     4  12  22  36  56  86 114 142 186 242 274 322
#     4   9  18  31  53  85 108 140 189 231 272 329
#     4   9  19  38  59  81 110 147 189 227 272 334
#
# _framework density 18.231838
#
# number of rings (size 3 to 8) (size 9 to 14) (size 15 to 20)
#    0.000    2.600    2.000    2.400    1.400    2.800 
#    1.800    0.000    0.000    0.600    0.000    0.000 
#    0.000    0.000    0.000    0.000    0.000    0.000 
#
# Total GULP energy -223205.335707 kJ/mol
# GULP energy per Si atom -5580.133393 kJ/mol
# Density = 1.819034 g / cm^3
# Si number density = 18.231838 Si / 1000 Ang^3
#
#
#
# Elastic Constant Matrix: (Units=GPa)
#
#
# Indices 1 2 3 4 5 6 
#
# 1 72.1904 33.0128 47.9817 0.0000 0.0000 0.0000
# 2 33.0128 75.3119 50.0650 0.0000 0.0000 0.0000
# 3 47.9817 50.0650 145.5865 0.0000 0.0000 0.0000
# 4 0.0000 0.0000 0.0000 13.2406 0.0000 0.0000
# 5 0.0000 0.0000 0.0000 0.0000 29.4257 0.0000
# 6 0.0000 0.0000 0.0000 0.0000 0.0000 47.1698
#
#
#
# Elastic Compliance Matrix: (Units=1/GPa)
#
#
# Indices 1 2 3 4 5 6 
#
# 1 0.019349 -0.005499 -0.004486 0.000000 0.000000 0.000000
# 2 -0.005499 0.018776 -0.004644 0.000000 0.000000 0.000000
# 3 -0.004486 -0.004644 0.009944 0.000000 0.000000 0.000000
# 4 0.000000 0.000000 0.000000 0.075525 0.000000 0.000000
# 5 0.000000 0.000000 0.000000 0.000000 0.033984 0.000000
# 6 0.000000 0.000000 0.000000 0.000000 0.000000 0.021200
#
#
# Mechanical properties :
#
#
# Convention : Reuss Voigt Hill
#
# Bulk Modulus (GPa) = 53.16294 61.68974 57.42634
# Shear Modulus (GPa) = 23.33096 28.76916 26.05006
#
# Velocity S-wave (km/s) = 3.58115 3.97667 3.78408
# Velocity P-wave (km/s) = 6.80604 7.41585 7.11748
#
# Compressibility (1/GPa) = 0.01881009
#
# Stress axis : x y z
#
# Youngs Moduli (GPa) = 51.68337 53.25887 100.56069
#
# Poissons Ratio (x) = 0.29290 0.45108
# Poissons Ratio (y) = 0.28423 0.46704
# Poissons Ratio (z) = 0.23183 0.24735
#
# Static dielectric constant tensor:
#      x y z
#    x 1.662940 0.000000 0.000000 
#    y 0.000000 1.604400 0.000000 
#    z 0.000000 0.000000 1.626920 
# 
# From -- ./inp_files/63986.got.cif
#   From: 2010.05.17/outbox.cif.g08.bks.cpg/sg74_32_cif.got.tgz:63986.got - 2010.06.03 17:57:02.
