data_PCOD9540277
_publ_section_title
;
Structure prediction by ZEFSAII (Michael W. Deem and Ramdas Pophale) SiO2 
 PCOD9540277
Probable space group: I M M A
;
_chemical_formula_sum "Si O2"
_cell_formula_units_Z 68
_cell_length_a 21.067319
_cell_length_b 16.684657
_cell_length_c 9.303666
_cell_angle_alpha 90.000000
_cell_angle_beta 90.000000
_cell_angle_gamma 90.000000
_cell_volume 3270.247823
_symmetry_space_group_name_H-M "I M M A"
_symmetry_group_IT_number 74
_symmetry_cell_setting 'orthorhombic'
loop_
_space_group_symop_operation_xyz
x,y,z
-x,1/2-y,z
x,-y,-z
-x,1/2+y,-z
-x,-y,-z
x,1/2+y,-z
-x,y,z
x,1/2-y,z
1/2+x,1/2+y,1/2+z
1/2-x,-y,1/2+z
1/2+x,1/2-y,1/2-z
1/2-x,y,1/2-z
1/2-x,1/2-y,1/2-z
1/2+x,y,1/2-z
1/2-x,1/2+y,1/2+z
1/2+x,-y,1/2+z
loop_
_atom_site_type_symbol
_atom_site_label
_atom_site_fract_x
_atom_site_fract_y
_atom_site_fract_z
Si Si1 0.811158 0.655614 0.144739
Si Si2 0.731602 0.921762 0.908486
Si Si3 0.405212 0.614209 0.884004
Si Si4 0.500000 0.250000 0.209104
Si Si5 0.071368 0.567203 0.290501
O O1 0.825174 0.750000 0.138865
O O2 0.750000 0.644958 0.250000
O O3 0.872211 0.608110 0.201945
O O4 0.787929 0.621750 0.992151
O O5 0.750000 0.947941 0.750000
O O6 0.669393 0.867593 0.895023
O O7 0.713290 0.000000 0.000000
O O8 0.445103 0.680117 0.803217
O O9 0.414618 0.527091 0.811633
O O10 0.427793 0.605204 0.049331
O O11 0.000000 0.577930 0.230958
#
# Coordination Sequence:
#
# PCOD9540277 Si02
#       5
#    16  16  16   4  16
#     4  11  24  41  67 102 140 181 236 291 345 413
#     4  12  24  43  73 101 138 187 233 285 352 417
#     4  11  21  37  63 101 138 181 236 290 343 415
#     4  12  24  34  62 106 138 182 234 296 350 400
#     4  11  20  39  66  95 142 183 232 287 347 421
#
# _framework density 20.793531999999999
#
# number of rings (size 3 to 8) (size 9 to 14) (size 15 to 20)
#    0.000    0.706    7.059    2.824    3.294    0.941 
#    0.000    0.000    2.588    2.118    0.000    0.000 
#    0.000    0.000    0.000    0.000    0.000    0.000 
#
# Total GULP energy -189667.726609 kJ/mol
# GULP energy per Si atom -5578.462547 kJ/mol
# Density = 2.074621 g / cm^3
# Si number density = 20.793532 Si / 1000 Ang^3
#
#
#
# Elastic Constant Matrix: (Units=GPa)
#
#
# Indices 1 2 3 4 5 6 
#
# 1 183.7715 52.8636 40.2782 0.0000 0.0000 0.0000
# 2 52.8636 88.4176 24.1858 0.0000 0.0000 0.0000
# 3 40.2782 24.1858 73.8052 0.0000 0.0000 0.0000
# 4 0.0000 0.0000 0.0000 -5.3865 0.0000 0.0000
# 5 0.0000 0.0000 0.0000 0.0000 16.2892 0.0000
# 6 0.0000 0.0000 0.0000 0.0000 0.0000 42.5513
#
#
#
# Elastic Compliance Matrix: (Units=1/GPa)
#
#
# Indices 1 2 3 4 5 6 
#
# 1 0.007030 -0.003464 -0.002701 0.000000 0.000000 0.000000
# 2 -0.003464 0.014131 -0.002740 0.000000 0.000000 0.000000
# 3 -0.002701 -0.002740 0.015921 0.000000 0.000000 0.000000
# 4 0.000000 0.000000 0.000000 -0.185649 0.000000 0.000000
# 5 0.000000 0.000000 0.000000 0.000000 0.061390 0.000000
# 6 0.000000 0.000000 0.000000 0.000000 0.000000 0.023501
#
#
# Mechanical properties :
#
#
# Convention : Reuss Voigt Hill
#
# Bulk Modulus (GPa) = 51.89190 64.51660 58.20425
# Shear Modulus (GPa) = -126.77165 25.93526 -50.41820
#
# Velocity S-wave (km/s) = -7.81660 3.53551 -4.92947
# Velocity P-wave (km/s) = 7.51370 6.91094 2.08502
#
# Compressibility (1/GPa) = 0.01927083
#
# Stress axis : x y z
#
# Youngs Moduli (GPa) = 142.24447 70.76778 62.80893
#
# Poissons Ratio (x) = 0.24516 0.16967
# Poissons Ratio (y) = 0.49278 0.17210
# Poissons Ratio (z) = 0.38425 0.19390
#
# Static dielectric constant tensor:
#      x y z
#    x 1.777080 0.000000 0.000000 
#    y 0.000000 1.721220 0.000000 
#    z 0.000000 0.000000 1.751730 
# 
# From -- ./inp_files/11921.got.cif
#   From: 2010.05.17/outbox.cif.g08.bks.cpg/sg74_6_cif.got.tgz:11921.got - 2010.06.03 17:57:02.
