data_PCOD9540066
_publ_section_title
;
Structure prediction by ZEFSAII (Michael W. Deem and Ramdas Pophale) SiO2 
 PCOD9540066
Probable space group: I M M A
;
_chemical_formula_sum "Si O2"
_cell_formula_units_Z 80
_cell_length_a 29.816021
_cell_length_b 8.494963
_cell_length_c 15.978914
_cell_angle_alpha 90.000000
_cell_angle_beta 90.000000
_cell_angle_gamma 90.000000
_cell_volume 4047.235135
_symmetry_space_group_name_H-M "I M M A"
_symmetry_group_IT_number 74
_symmetry_cell_setting 'orthorhombic'
loop_
_space_group_symop_operation_xyz
x,y,z
-x,1/2-y,z
x,-y,-z
-x,1/2+y,-z
-x,-y,-z
x,1/2+y,-z
-x,y,z
x,1/2-y,z
1/2+x,1/2+y,1/2+z
1/2-x,-y,1/2+z
1/2+x,1/2-y,1/2-z
1/2-x,y,1/2-z
1/2-x,1/2-y,1/2-z
1/2+x,y,1/2-z
1/2-x,1/2+y,1/2+z
1/2+x,-y,1/2+z
loop_
_atom_site_type_symbol
_atom_site_label
_atom_site_fract_x
_atom_site_fract_y
_atom_site_fract_z
Si Si1 0.107345 0.562663 0.911331
Si Si2 0.200560 0.060132 0.850502
Si Si3 0.948064 0.940515 0.749446
Si Si4 0.299466 0.059190 0.847024
Si Si5 0.894639 0.438600 0.589275
O O1 0.104969 0.750000 0.912226
O O2 0.158839 0.511775 0.898414
O O3 0.078995 0.504410 0.831545
O O4 0.090535 0.500000 0.000000
O O5 0.198501 0.250000 0.857441
O O6 0.250381 0.005852 0.877224
O O7 0.196148 0.020303 0.751607
O O8 0.946189 0.750000 0.747598
O O9 0.000000 0.987786 0.753453
O O10 0.924487 0.003818 0.666291
O O11 0.298917 0.250000 0.851121
O O12 0.343487 0.002728 0.894826
O O13 0.910840 0.500000 0.500000
O O14 0.894154 0.250000 0.588900
#
# Coordination Sequence:
#
# PCOD9540066 Si02
#       5
#    16  16  16  16  16
#     4  11  23  38  59  88 119 152 192 239 289 345
#     4   9  16  33  58  84 117 156 195 234 280 337
#     4  10  23  44  65  85 113 148 190 244 298 346
#     4   8  16  31  56  85 117 156 193 232 281 334
#     4  11  22  38  61  90 120 154 194 237 286 344
#
# _framework density 19.766580000000001
#
# number of rings (size 3 to 8) (size 9 to 14) (size 15 to 20)
#    0.000    2.200    2.000    2.400    0.000    2.800 
#    0.000    6.000    0.000    0.000    0.000    0.000 
#    0.000    0.000    0.000    0.000    0.000    0.000 
#
# Total GULP energy -223353.527876 kJ/mol
# GULP energy per Si atom -5583.838197 kJ/mol
# Density = 1.972159 g / cm^3
# Si number density = 19.766580 Si / 1000 Ang^3
#
#
#
# Elastic Constant Matrix: (Units=GPa)
#
#
# Indices 1 2 3 4 5 6 
#
# 1 134.3805 26.7316 82.5257 0.0000 0.0000 0.0000
# 2 26.7316 22.1797 28.3270 0.0000 0.0000 0.0000
# 3 82.5257 28.3270 156.4914 0.0000 0.0000 0.0000
# 4 0.0000 0.0000 0.0000 25.4023 0.0000 0.0000
# 5 0.0000 0.0000 0.0000 0.0000 -3.4732 0.0000
# 6 0.0000 0.0000 0.0000 0.0000 0.0000 22.5192
#
#
#
# Elastic Compliance Matrix: (Units=1/GPa)
#
#
# Indices 1 2 3 4 5 6 
#
# 1 0.012091 -0.008362 -0.004863 0.000000 0.000000 0.000000
# 2 -0.008362 0.064427 -0.007252 0.000000 0.000000 0.000000
# 3 -0.004863 -0.007252 0.010267 0.000000 0.000000 0.000000
# 4 0.000000 0.000000 0.000000 0.039366 0.000000 0.000000
# 5 0.000000 0.000000 0.000000 0.000000 -0.287915 0.000000
# 6 0.000000 0.000000 0.000000 0.000000 0.000000 0.044407
#
#
# Mechanical properties :
#
#
# Convention : Reuss Voigt Hill
#
# Bulk Modulus (GPa) = 21.81923 65.35779 43.58851
# Shear Modulus (GPa) = -81.79967 20.58747 -30.60610
#
# Velocity S-wave (km/s) = -6.43993 3.23077 -3.93921
# Velocity P-wave (km/s) = 6.65090 6.85958 1.18729
#
# Compressibility (1/GPa) = 0.04583113
#
# Stress axis : x y z
#
# Youngs Moduli (GPa) = 82.70418 15.52139 97.39768
#
# Poissons Ratio (x) = 0.12980 0.47361
# Poissons Ratio (y) = 0.69161 0.70635
# Poissons Ratio (z) = 0.40216 0.11256
#
# Static dielectric constant tensor:
#      x y z
#    x 1.697520 0.000000 0.000000 
#    y 0.000000 1.669360 0.000000 
#    z 0.000000 0.000000 1.687080 
# 
# From -- ./inp_files/46937.got.cif
#   From: 2010.05.17/outbox.cif.g08.bks.cpg/sg74_24_cif.got.tgz:46937.got - 2010.06.03 17:57:02.
