data_PCOD9540275
_publ_section_title
;
Structure prediction by ZEFSAII (Michael W. Deem and Ramdas Pophale) SiO2 
 PCOD9540275
Probable space group: I M M A
;
_chemical_formula_sum "Si O2"
_cell_formula_units_Z 68
_cell_length_a 18.824742
_cell_length_b 20.810584
_cell_length_c 9.241486
_cell_angle_alpha 90.000000
_cell_angle_beta 90.000000
_cell_angle_gamma 90.000000
_cell_volume 3620.387948
_symmetry_space_group_name_H-M "I M M A"
_symmetry_group_IT_number 74
_symmetry_cell_setting 'orthorhombic'
loop_
_space_group_symop_operation_xyz
x,y,z
-x,1/2-y,z
x,-y,-z
-x,1/2+y,-z
-x,-y,-z
x,1/2+y,-z
-x,y,z
x,1/2-y,z
1/2+x,1/2+y,1/2+z
1/2-x,-y,1/2+z
1/2+x,1/2-y,1/2-z
1/2-x,y,1/2-z
1/2-x,1/2-y,1/2-z
1/2+x,y,1/2-z
1/2-x,1/2+y,1/2+z
1/2+x,-y,1/2+z
loop_
_atom_site_type_symbol
_atom_site_label
_atom_site_fract_x
_atom_site_fract_y
_atom_site_fract_z
Si Si1 0.915386 0.487804 0.332942
Si Si2 0.500000 0.750000 0.822498
Si Si3 0.271513 0.321556 0.488457
Si Si4 0.309891 0.453052 0.637754
Si Si5 0.364611 0.844482 0.796290
O O1 0.895677 0.500000 0.500000
O O2 0.882736 0.540669 0.226288
O O3 0.882699 0.419577 0.288885
O O4 0.000000 0.486118 0.322521
O O5 0.436691 0.805405 0.819507
O O6 0.276261 0.250000 0.552955
O O7 0.291676 0.380958 0.589731
O O8 0.325168 0.324712 0.351713
O O9 0.192739 0.331885 0.422919
O O10 0.310906 0.500000 0.500000
O O11 0.250000 0.476106 0.750000
#
# Coordination Sequence:
#
# PCOD9540275 Si02
#       5
#    16   4  16  16  16
#     4  11  24  42  65  95 130 166 214 276 332 389
#     4  12  20  34  66  98 126 170 226 264 330 390
#     4  11  22  39  62  89 133 169 215 271 324 390
#     4  12  24  41  65  92 126 173 218 262 326 396
#     4  11  20  39  62  95 126 169 220 268 323 392
#
# _framework density 18.782518
#
# number of rings (size 3 to 8) (size 9 to 14) (size 15 to 20)
#    0.000    0.706    5.882    4.235    0.000    0.941 
#    2.118    0.000    0.000    0.000    0.000    1.647 
#    0.000    0.000    0.000    0.000    0.000    0.000 
#
# Total GULP energy -189514.496896 kJ/mol
# GULP energy per Si atom -5573.955791 kJ/mol
# Density = 1.873977 g / cm^3
# Si number density = 18.782518 Si / 1000 Ang^3
#
#
#
# Elastic Constant Matrix: (Units=GPa)
#
#
# Indices 1 2 3 4 5 6 
#
# 1 130.0520 64.8881 42.1374 0.0000 0.0000 0.0000
# 2 64.8881 97.6587 48.9886 0.0000 0.0000 0.0000
# 3 42.1374 48.9886 89.1351 0.0000 0.0000 0.0000
# 4 0.0000 0.0000 0.0000 21.2956 0.0000 0.0000
# 5 0.0000 0.0000 0.0000 0.0000 24.0357 0.0000
# 6 0.0000 0.0000 0.0000 0.0000 0.0000 234.7409
#
#
#
# Elastic Compliance Matrix: (Units=1/GPa)
#
#
# Indices 1 2 3 4 5 6 
#
# 1 0.011694 -0.006899 -0.001737 0.000000 0.000000 0.000000
# 2 -0.006899 0.018207 -0.006745 0.000000 0.000000 0.000000
# 3 -0.001737 -0.006745 0.015747 0.000000 0.000000 0.000000
# 4 0.000000 0.000000 0.000000 0.046958 0.000000 0.000000
# 5 0.000000 0.000000 0.000000 0.000000 0.041605 0.000000
# 6 0.000000 0.000000 0.000000 0.000000 0.000000 0.004260
#
#
# Mechanical properties :
#
#
# Convention : Reuss Voigt Hill
#
# Bulk Modulus (GPa) = 67.17351 69.87489 68.52420
# Shear Modulus (GPa) = 28.70346 66.73655 47.72001
#
# Velocity S-wave (km/s) = 3.91346 5.96727 5.04597
# Velocity P-wave (km/s) = 7.50078 9.20655 8.39709
#
# Compressibility (1/GPa) = 0.01488682
#
# Stress axis : x y z
#
# Youngs Moduli (GPa) = 85.51419 54.92321 63.50355
#
# Poissons Ratio (x) = 0.37890 0.11028
# Poissons Ratio (y) = 0.58994 0.42836
# Poissons Ratio (z) = 0.14850 0.37048
#
# Static dielectric constant tensor:
#      x y z
#    x 1.636580 0.000000 0.000000 
#    y 0.000000 1.669370 0.000000 
#    z 0.000000 0.000000 1.657820 
# 
# From -- ./inp_files/10401.got.cif
#   From: 2010.05.17/outbox.cif.g08.bks.cpg/sg74_6_cif.got.tgz:10401.got - 2010.06.03 17:57:02.
