data_PCOD9540046
_publ_section_title
;
Structure prediction by ZEFSAII (Michael W. Deem and Ramdas Pophale) SiO2 
 PCOD9540046
Probable space group: I M M A
;
_chemical_formula_sum "Si O2"
_cell_formula_units_Z 88
_cell_length_a 9.103457
_cell_length_b 22.201451
_cell_length_c 21.116165
_cell_angle_alpha 90.000000
_cell_angle_beta 90.000000
_cell_angle_gamma 90.000000
_cell_volume 4267.787148
_symmetry_space_group_name_H-M "I M M A"
_symmetry_group_IT_number 74
_symmetry_cell_setting 'orthorhombic'
loop_
_space_group_symop_operation_xyz
x,y,z
-x,1/2-y,z
x,-y,-z
-x,1/2+y,-z
-x,-y,-z
x,1/2+y,-z
-x,y,z
x,1/2-y,z
1/2+x,1/2+y,1/2+z
1/2-x,-y,1/2+z
1/2+x,1/2-y,1/2-z
1/2-x,y,1/2-z
1/2-x,1/2-y,1/2-z
1/2+x,y,1/2-z
1/2-x,1/2+y,1/2+z
1/2+x,-y,1/2+z
loop_
_atom_site_type_symbol
_atom_site_label
_atom_site_fract_x
_atom_site_fract_y
_atom_site_fract_z
Si Si1 0.500000 0.683346 0.794950
Si Si2 0.171733 0.372741 0.031544
Si Si3 0.328500 0.587736 0.183237
Si Si4 0.333777 0.481431 0.373434
Si Si5 0.750000 0.595855 0.750000
Si Si6 0.500000 0.316049 0.055739
Si Si7 0.835372 0.320165 0.893574
O O1 0.500000 0.750000 0.765144
O O2 0.632907 0.641628 0.776677
O O3 0.500000 0.690200 0.869328
O O4 0.183087 0.437626 0.066004
O O5 0.336257 0.344530 0.044290
O O6 0.000000 0.351803 0.052869
O O7 0.163795 0.360848 0.956755
O O8 0.500000 0.584262 0.192689
O O9 0.250000 0.576604 0.250000
O O10 0.277570 0.536267 0.133928
O O11 0.278322 0.651368 0.154910
O O12 0.500000 0.505318 0.374035
O O13 0.310225 0.442869 0.308861
O O14 0.500000 0.250000 0.024232
O O15 0.807672 0.250000 0.909704
O O16 0.000000 0.323613 0.865859
#
# Coordination Sequence:
#
# PCOD9540046 Si02
#       7
#     8  16  16  16   8   8  16
#     4  11  24  38  54  87 129 174 227 282 340 402
#     4  10  23  42  67 101 135 180 226 278 341 405
#     4  12  27  44  70 104 137 176 225 284 345 418
#     4  11  23  40  66  95 132 178 228 282 338 402
#     4  12  21  38  60  86 125 178 224 280 340 392
#     4  11  22  36  60  90 130 176 228 284 332 404
#     4  10  23  47  74 100 137 180 225 279 343 413
#
# _framework density 20.619586000000002
#
# number of rings (size 3 to 8) (size 9 to 14) (size 15 to 20)
#    0.000    1.091    3.636    2.455    3.818    2.545 
#    0.000    3.636    0.000    0.000    0.000    0.000 
#    0.000    0.000    0.000    0.000    0.000    0.000 
#
# Total GULP energy -245008.306337 kJ/mol
# GULP energy per Si atom -5568.370599 kJ/mol
# Density = 2.057265 g / cm^3
# Si number density = 20.619586 Si / 1000 Ang^3
#
#
#
# Elastic Constant Matrix: (Units=GPa)
#
#
# Indices 1 2 3 4 5 6 
#
# 1 196.9580 47.4810 40.3707 0.0000 0.0000 0.0000
# 2 47.4810 77.1957 44.2020 0.0000 0.0000 0.0000
# 3 40.3707 44.2020 36.8699 0.0000 0.0000 0.0000
# 4 0.0000 0.0000 0.0000 14.3839 0.0000 0.0000
# 5 0.0000 0.0000 0.0000 0.0000 21.6132 0.0000
# 6 0.0000 0.0000 0.0000 0.0000 0.0000 34.5710
#
#
#
# Elastic Compliance Matrix: (Units=1/GPa)
#
#
# Indices 1 2 3 4 5 6 
#
# 1 0.006548 0.000248 -0.007467 0.000000 0.000000 0.000000
# 2 0.000248 0.041326 -0.049816 0.000000 0.000000 0.000000
# 3 -0.007467 -0.049816 0.095021 0.000000 0.000000 0.000000
# 4 0.000000 0.000000 0.000000 0.069522 0.000000 0.000000
# 5 0.000000 0.000000 0.000000 0.000000 0.046268 0.000000
# 6 0.000000 0.000000 0.000000 0.000000 0.000000 0.028926
#
#
# Mechanical properties :
#
#
# Convention : Reuss Voigt Hill
#
# Bulk Modulus (GPa) = 34.69197 63.90344 49.29771
# Shear Modulus (GPa) = 12.15687 26.04494 19.10091
#
# Velocity S-wave (km/s) = 2.43076 3.55789 3.04690
# Velocity P-wave (km/s) = 4.97387 6.92366 6.02812
#
# Compressibility (1/GPa) = 0.02882511
#
# Stress axis : x y z
#
# Youngs Moduli (GPa) = 152.71933 24.19795 10.52394
#
# Poissons Ratio (x) = -0.00601 0.07859
# Poissons Ratio (y) = -0.03793 0.52426
# Poissons Ratio (z) = 1.14042 1.20544
#
# Static dielectric constant tensor:
#      x y z
#    x 1.749520 0.000000 0.000000 
#    y 0.000000 1.767780 0.000000 
#    z 0.000000 0.000000 1.720870 
# 
# From -- ./inp_files/57053.got.cif
#   From: 2010.05.17/outbox.cif.g08.bks.cpg/sg74_29_cif.got.tgz:57053.got - 2010.06.03 17:57:02.
