data_PCOD9540851
_publ_section_title
;
Structure prediction by ZEFSAII (Michael W. Deem and Ramdas Pophale) SiO2 
 PCOD9540851
Probable space group: I M M A
;
_chemical_formula_sum "Si O2"
_cell_formula_units_Z 56
_cell_length_a 15.000000
_cell_length_b 24.000000
_cell_length_c 15.000000
_cell_angle_alpha 90.000000
_cell_angle_beta 90.000000
_cell_angle_gamma 90.000000
_cell_volume 5400.000000
_symmetry_space_group_name_H-M "I M M A"
_symmetry_group_IT_number 74
_symmetry_cell_setting 'orthorhombic'
loop_
_space_group_symop_operation_xyz
x,y,z
-x,1/2-y,z
x,-y,-z
-x,1/2+y,-z
-x,-y,-z
x,1/2+y,-z
-x,y,z
x,1/2-y,z
1/2+x,1/2+y,1/2+z
1/2-x,-y,1/2+z
1/2+x,1/2-y,1/2-z
1/2-x,y,1/2-z
1/2-x,1/2-y,1/2-z
1/2+x,y,1/2-z
1/2-x,1/2+y,1/2+z
1/2+x,-y,1/2+z
loop_
_atom_site_type_symbol
_atom_site_label
_atom_site_fract_x
_atom_site_fract_y
_atom_site_fract_z
Si Si1 0.774647 0.488390 0.408848
Si Si2 0.653163 0.112466 0.393485
Si Si3 0.251262 0.112695 0.853996
Si Si4 0.099097 0.815476 0.052886
Si Si5 0.094448 0.580206 0.709228
Si Si6 0.321821 0.186856 0.138529
Si Si7 0.106126 0.687743 0.437738
O O1 0.828199 0.500000 0.500000
O O2 0.704229 0.440248 0.436536
O O3 0.739405 0.547486 0.375569
O O4 0.830524 0.458530 0.332241
O O5 0.599196 0.150580 0.460552
O O6 0.600519 0.083565 0.314598
O O7 0.727612 0.155067 0.354361
O O8 0.250000 0.118999 0.750000
O O9 0.174823 0.152430 0.893414
O O10 0.344702 0.137547 0.888820
O O11 0.120666 0.750000 0.039827
O O12 0.000000 0.818678 0.093259
O O13 0.108924 0.644105 0.680721
O O14 0.000000 0.559378 0.677003
O O15 0.321958 0.250000 0.172557
O O16 0.348550 0.188953 0.034848
O O17 0.121339 0.750000 0.397554
O O18 0.000000 0.680106 0.445360
#
# Coordination Sequence:
#
# PCOD9540851 Si02
#       7
#    16  16  16  16  16  16  16
#     4  11  22  43  69  90 121 171 220 266 322 392
#     4  11  21  41  64  90 129 172 214 264 322 387
#     4  12  24  42  66  94 129 168 216 276 336 393
#     4  11  24  43  68  98 132 174 223 269 326 402
#     4  11  24  38  58  94 133 167 213 272 327 384
#     4  10  19  35  60  88 124 169 217 262 314 383
#     4  10  21  38  61  90 125 167 214 265 327 392
#
# _framework density 10.370369999999999
#
# number of rings (size 3 to 8) (size 9 to 14) (size 15 to 20)
#    0.000    1.143    2.857    5.143    0.000    5.143 
#    0.000    5.000    0.000    0.000    0.000    0.000 
#    0.000    0.000    0.000    0.000    0.000    0.000 
#
# Total GULP energy -312301.277971 kJ/mol
# GULP energy per Si atom -5576.808535 kJ/mol
# Density = 1.034677 g / cm^3
# Si number density = 10.370370 Si / 1000 Ang^3
#
#
#
# Elastic Constant Matrix: (Units=GPa)
#
#
# Indices 1 2 3 4 5 6 
#
# 1 93.3756 49.5016 23.0776 0.0000 0.0000 0.0000
# 2 49.5016 158.8259 36.5174 0.0001 0.0000 -0.0003
# 3 23.0776 36.5174 90.5275 0.0003 0.0000 -0.0006
# 4 0.0000 0.0001 0.0003 32.4457 0.0000 -0.0004
# 5 0.0000 0.0000 0.0000 0.0000 -6.0210 0.0001
# 6 0.0000 -0.0003 -0.0006 -0.0004 0.0001 72.7238
#
#
#
# Elastic Compliance Matrix: (Units=1/GPa)
#
#
# Indices 1 2 3 4 5 6 
#
# 1 0.013109 -0.003657 -0.001867 0.000000 0.000000 0.000000
# 2 -0.003657 0.007960 -0.002279 0.000000 0.000000 0.000000
# 3 -0.001867 -0.002279 0.012441 0.000000 0.000000 0.000000
# 4 0.000000 0.000000 0.000000 0.030821 0.000000 0.000000
# 5 0.000000 0.000000 0.000000 0.000000 -0.166086 0.000000
# 6 0.000000 0.000000 0.000000 0.000000 0.000000 0.013751
#
#
# Mechanical properties :
#
#
# Convention : Reuss Voigt Hill
#
# Bulk Modulus (GPa) = 55.84637 62.32469 59.08553
# Shear Modulus (GPa) = -75.26642 35.40520 -19.93061
#
# Velocity S-wave (km/s) = -6.03058 4.13611 -3.10327
# Velocity P-wave (km/s) = 4.63748 7.27492 3.96348
#
# Compressibility (1/GPa) = 0.01790627
#
# Stress axis : x y z
#
# Youngs Moduli (GPa) = 76.28171 125.63167 80.37633
#
# Poissons Ratio (x) = 0.45938 0.15005
# Poissons Ratio (y) = 0.27893 0.18315
# Poissons Ratio (z) = 0.14241 0.28628
#
# Static dielectric constant tensor:
#      x y z
#    x 1.768920 0.000000 0.000000 
#    y 0.000000 1.715940 0.000000 
#    z 0.000000 0.000000 1.832730 
# 
# From -- ./inp_files/32731.got.cif
#   From: 2010.05.17/outbox.ucp.g08.bks.cvg/sg74_17_cif.got.tgz:32731.got - 2010.06.11 16:37:44.
