data_PCOD9540309
_publ_section_title
;
Structure prediction by ZEFSAII (Michael W. Deem and Ramdas Pophale) SiO2 
 PCOD9540309
Probable space group: I M M A
;
_chemical_formula_sum "Si O2"
_cell_formula_units_Z 116
_cell_length_a 25.354462
_cell_length_b 7.511759
_cell_length_c 26.968983
_cell_angle_alpha 90.000000
_cell_angle_beta 90.000000
_cell_angle_gamma 90.000000
_cell_volume 5136.421027
_symmetry_space_group_name_H-M "I M M A"
_symmetry_group_IT_number 74
_symmetry_cell_setting 'orthorhombic'
loop_
_space_group_symop_operation_xyz
x,y,z
-x,1/2-y,z
x,-y,-z
-x,1/2+y,-z
-x,-y,-z
x,1/2+y,-z
-x,y,z
x,1/2-y,z
1/2+x,1/2+y,1/2+z
1/2-x,-y,1/2+z
1/2+x,1/2-y,1/2-z
1/2-x,y,1/2-z
1/2-x,1/2-y,1/2-z
1/2+x,y,1/2-z
1/2-x,1/2+y,1/2+z
1/2+x,-y,1/2+z
loop_
_atom_site_type_symbol
_atom_site_label
_atom_site_fract_x
_atom_site_fract_y
_atom_site_fract_z
Si Si1 0.912184 0.966558 0.573862
Si Si2 0.557415 0.032557 0.289742
Si Si3 0.500000 0.750000 0.045264
Si Si4 0.334007 0.455482 0.334519
Si Si5 0.279955 0.044439 0.184819
Si Si6 0.394234 0.965923 0.811179
Si Si7 0.679409 0.444628 0.554273
Si Si8 0.794139 0.453150 0.433798
O O1 0.920882 0.750000 0.568898
O O2 0.911738 0.011115 0.633165
O O3 0.853246 0.010767 0.555120
O O4 0.954378 0.092835 0.549092
O O5 0.500000 0.971545 0.307436
O O6 0.557115 0.250000 0.292914
O O7 0.609933 0.969025 0.317807
O O8 0.565907 0.984633 0.232096
O O9 0.333410 0.250000 0.317913
O O10 0.279176 0.533775 0.312059
O O11 0.330853 0.452532 0.394568
O O12 0.277513 0.250000 0.201592
O O13 0.335388 0.966395 0.203266
O O14 0.290595 0.048635 0.125825
O O15 0.390245 0.750000 0.811491
O O16 0.659371 0.500000 0.500000
O O17 0.658603 0.250000 0.564730
O O18 0.742980 0.442185 0.549775
O O19 0.787682 0.250000 0.450720
#
# Coordination Sequence:
#
# PCOD9540309 Si02
#       8
#    16  16   4  16  16  16  16  16
#     4   9  19  33  49  72 108 147 186 244 280 314
#     4   9  17  27  45  72 100 139 187 229 261 307
#     4  12  22  28  48  74 106 146 212 228 286 318
#     4   9  17  31  49  72 105 137 171 214 263 321
#     4   7  11  22  42  68  95 130 166 210 261 311
#     4   8  14  26  45  69  98 136 184 230 276 308
#     4  11  21  33  56  84 109 128 156 199 260 331
#     4   8  15  31  51  74 108 137 166 207 267 320
#
# _framework density 22.583818999999998
#
# number of rings (size 3 to 8) (size 9 to 14) (size 15 to 20)
#    0.000    3.172    0.000    3.931    1.931    0.552 
#    0.000    2.759    1.517    0.828    0.000    3.379 
#    0.000    0.000    0.000    0.000    0.000    0.000 
#
# Total GULP energy -322898.636740 kJ/mol
# GULP energy per Si atom -5567.217875 kJ/mol
# Density = 2.253242 g / cm^3
# Si number density = 22.583819 Si / 1000 Ang^3
#
#
#
# Elastic Constant Matrix: (Units=GPa)
#
#
# Indices 1 2 3 4 5 6 
#
# 1 158.7032 29.6359 35.9015 0.0000 0.0000 0.0000
# 2 29.6359 65.6386 6.4483 0.0000 0.0000 0.0000
# 3 35.9015 6.4483 74.2934 0.0000 0.0000 0.0000
# 4 0.0000 0.0000 0.0000 -2.1127 0.0000 0.0000
# 5 0.0000 0.0000 0.0000 0.0000 -6.6682 0.0000
# 6 0.0000 0.0000 0.0000 0.0000 0.0000 -11.3384
#
#
#
# Elastic Compliance Matrix: (Units=1/GPa)
#
#
# Indices 1 2 3 4 5 6 
#
# 1 0.007660 -0.003122 -0.003431 0.000000 0.000000 0.000000
# 2 -0.003122 0.016638 0.000064 0.000000 0.000000 0.000000
# 3 -0.003431 0.000064 0.015112 0.000000 0.000000 0.000000
# 4 0.000000 0.000000 0.000000 -0.473320 0.000000 0.000000
# 5 0.000000 0.000000 0.000000 0.000000 -0.149965 0.000000
# 6 0.000000 0.000000 0.000000 0.000000 0.000000 -0.088196
#
#
# Mechanical properties :
#
#
# Convention : Reuss Voigt Hill
#
# Bulk Modulus (GPa) = 37.82904 49.17851 43.50378
# Shear Modulus (GPa) = -7.68896 11.08610 1.69857
#
# Velocity S-wave (km/s) = -1.84717 2.21800 0.86819
# Velocity P-wave (km/s) = 3.49821 5.32754 4.50667
#
# Compressibility (1/GPa) = 0.02643472
#
# Stress axis : x y z
#
# Youngs Moduli (GPa) = 130.54729 60.10342 66.17078
#
# Poissons Ratio (x) = 0.18761 0.22701
# Poissons Ratio (y) = 0.40750 -0.00426
# Poissons Ratio (z) = 0.44787 -0.00387
#
# Static dielectric constant tensor:
#      x y z
#    x 1.841980 0.000000 0.000000 
#    y 0.000000 1.859780 0.000000 
#    z 0.000000 0.000000 1.889300 
# 
# From -- ./inp_files/73730.got.cif
#   From: 2010.05.17/outbox.cif.g08.bks.cpg/sg74_37_cif.got.tgz:73730.got - 2010.06.03 17:57:02.
