data_PCOD9540925
_publ_section_title
;
Structure prediction by ZEFSAII (Michael W. Deem and Ramdas Pophale) SiO2 
 PCOD9540925
Probable space group: I M M A
;
_chemical_formula_sum "Si O2"
_cell_formula_units_Z 56
_cell_length_a 24.000000
_cell_length_b 15.000000
_cell_length_c 15.000000
_cell_angle_alpha 90.000000
_cell_angle_beta 90.000000
_cell_angle_gamma 90.000000
_cell_volume 5400.000000
_symmetry_space_group_name_H-M "I M M A"
_symmetry_group_IT_number 74
_symmetry_cell_setting 'orthorhombic'
loop_
_space_group_symop_operation_xyz
x,y,z
-x,1/2-y,z
x,-y,-z
-x,1/2+y,-z
-x,-y,-z
x,1/2+y,-z
-x,y,z
x,1/2-y,z
1/2+x,1/2+y,1/2+z
1/2-x,-y,1/2+z
1/2+x,1/2-y,1/2-z
1/2-x,y,1/2-z
1/2-x,1/2-y,1/2-z
1/2+x,y,1/2-z
1/2-x,1/2+y,1/2+z
1/2+x,-y,1/2+z
loop_
_atom_site_type_symbol
_atom_site_label
_atom_site_fract_x
_atom_site_fract_y
_atom_site_fract_z
Si Si1 0.283614 0.152545 0.371020
Si Si2 0.244189 0.542808 0.355206
Si Si3 0.932790 0.018522 0.865172
Si Si4 0.884696 0.357917 0.250509
Si Si5 0.847547 0.853976 0.053107
Si Si6 0.378772 0.014115 0.896476
Si Si7 0.434703 0.849092 0.207511
O O1 0.254880 0.250000 0.372820
O O2 0.320360 0.144117 0.281630
O O3 0.328084 0.153546 0.451181
O O4 0.251061 0.060896 0.384024
O O5 0.250000 0.548207 0.250000
O O6 0.293145 0.602902 0.397949
O O7 0.180079 0.562186 0.374854
O O8 0.897686 0.073399 0.939968
O O9 0.914284 0.086877 0.786129
O O10 0.000000 0.020166 0.880179
O O11 0.916151 0.920467 0.825137
O O12 0.900949 0.250000 0.256982
O O13 0.887396 0.422568 0.338254
O O14 0.859975 0.750000 0.081920
O O15 0.424830 0.088574 0.876255
O O16 0.378639 0.000000 0.000000
O O17 0.500000 0.839738 0.223375
O O18 0.410109 0.750000 0.203628
#
# Coordination Sequence:
#
# PCOD9540925 Si02
#       7
#    16  16  16  16  16  16  16
#     4  10  21  39  62  83 117 166 210 251 304 370
#     4  12  22  39  61  86 122 162 207 257 312 370
#     4  10  20  37  63  92 122 160 206 256 303 359
#     4  10  21  40  62  87 121 163 206 251 308 370
#     4  11  23  38  59  89 125 166 209 258 313 363
#     4  11  23  37  59  93 123 154 202 259 309 368
#     4   9  19  38  61  83 115 157 197 242 302 368
#
# _framework density 10.370369999999999
#
# number of rings (size 3 to 8) (size 9 to 14) (size 15 to 20)
#    0.000    1.571    2.857    2.571    0.000    3.714 
#    0.000    1.429    0.000    2.571    0.000    0.000 
#    0.000    0.000    0.000    0.000    0.000    0.000 
#
# Total GULP energy -311887.993272 kJ/mol
# GULP energy per Si atom -5569.428451 kJ/mol
# Density = 1.034677 g / cm^3
# Si number density = 10.370370 Si / 1000 Ang^3
#
#
#
# Elastic Constant Matrix: (Units=GPa)
#
#
# Indices 1 2 3 4 5 6 
#
# 1 25.5958 31.7554 -10.4760 0.0000 0.0000 0.0000
# 2 31.7554 165.5058 25.3791 0.0000 0.0000 0.0000
# 3 -10.4760 25.3791 71.6008 0.0000 0.0000 0.0000
# 4 0.0000 0.0000 0.0000 15.6887 0.0000 0.0000
# 5 0.0000 0.0000 0.0000 0.0000 18.8298 0.0000
# 6 0.0000 0.0000 0.0000 0.0000 0.0000 29.9767
#
#
#
# Elastic Compliance Matrix: (Units=1/GPa)
#
#
# Indices 1 2 3 4 5 6 
#
# 1 0.062402 -0.014142 0.014143 0.000000 0.000000 0.000000
# 2 -0.014142 0.009594 -0.005470 0.000000 0.000000 0.000000
# 3 0.014143 -0.005470 0.017974 0.000000 0.000000 0.000000
# 4 0.000000 0.000000 0.000000 0.063740 0.000000 0.000000
# 5 0.000000 0.000000 0.000000 0.000000 0.053107 0.000000
# 6 0.000000 0.000000 0.000000 0.000000 0.000000 0.033359
#
#
# Mechanical properties :
#
#
# Convention : Reuss Voigt Hill
#
# Bulk Modulus (GPa) = 12.65289 39.55769 26.10529
# Shear Modulus (GPa) = 18.02066 27.30199 22.66132
#
# Velocity S-wave (km/s) = 2.95083 3.63208 3.30904
# Velocity P-wave (km/s) = 4.20994 6.05832 5.21665
#
# Compressibility (1/GPa) = 0.07903334
#
# Stress axis : x y z
#
# Youngs Moduli (GPa) = 16.02505 104.22983 55.63485
#
# Poissons Ratio (x) = 1.47399 -0.78683
# Poissons Ratio (y) = 0.22662 0.30431
# Poissons Ratio (z) = -0.22664 0.57011
#
# Static dielectric constant tensor:
#      x y z
#    x 1.769760 0.000000 0.000000 
#    y 0.000000 1.789040 0.000000 
#    z 0.000000 0.000000 1.875860 
# 
# From -- ./inp_files/36543.got.cif
#   From: 2010.05.17/outbox.ucp.g08.bks.cvg/sg74_19_cif.got.tgz:36543.got - 2010.06.11 16:37:44.
