data_PCOD9540120
_publ_section_title
;
Structure prediction by ZEFSAII (Michael W. Deem and Ramdas Pophale) SiO2 
 PCOD9540120
Probable space group: I M M A
;
_chemical_formula_sum "Si O2"
_cell_formula_units_Z 96
_cell_length_a 14.303119
_cell_length_b 20.691107
_cell_length_c 14.979771
_cell_angle_alpha 90.000000
_cell_angle_beta 90.000000
_cell_angle_gamma 90.000000
_cell_volume 4433.223766
_symmetry_space_group_name_H-M "I M M A"
_symmetry_group_IT_number 74
_symmetry_cell_setting 'orthorhombic'
loop_
_space_group_symop_operation_xyz
x,y,z
-x,1/2-y,z
x,-y,-z
-x,1/2+y,-z
-x,-y,-z
x,1/2+y,-z
-x,y,z
x,1/2-y,z
1/2+x,1/2+y,1/2+z
1/2-x,-y,1/2+z
1/2+x,1/2-y,1/2-z
1/2-x,y,1/2-z
1/2-x,1/2-y,1/2-z
1/2+x,y,1/2-z
1/2-x,1/2+y,1/2+z
1/2+x,-y,1/2+z
loop_
_atom_site_type_symbol
_atom_site_label
_atom_site_fract_x
_atom_site_fract_y
_atom_site_fract_z
Si Si1 0.734243 0.320988 0.964356
Si Si2 0.308103 0.320904 0.159134
Si Si3 0.388169 0.589500 0.143942
Si Si4 0.394933 0.639745 0.334459
Si Si5 0.107325 0.007699 0.097644
Si Si6 0.611615 0.548271 0.783519
O O1 0.691240 0.250000 0.948881
O O2 0.664644 0.377952 0.937191
O O3 0.823703 0.326886 0.900909
O O4 0.753955 0.325840 0.069584
O O5 0.356581 0.250000 0.153154
O O6 0.250000 0.319778 0.250000
O O7 0.369580 0.385045 0.167153
O O8 0.500000 0.588883 0.132051
O O9 0.366894 0.634157 0.230761
O O10 0.355456 0.516589 0.165863
O O11 0.500000 0.666031 0.340417
O O12 0.398142 0.564741 0.364361
O O13 0.000000 0.032147 0.082133
O O14 0.149164 0.047739 0.180784
O O15 0.152615 0.000000 0.000000
O O16 0.500000 0.539502 0.774150
#
# Coordination Sequence:
#
# PCOD9540120 Si02
#       6
#    16  16  16  16  16  16
#     4  11  24  40  59  86 121 164 209 251 304 366
#     4  10  24  43  57  79 119 162 207 257 302 353
#     4   9  20  40  62  92 128 154 192 249 308 373
#     4   9  19  36  59  89 123 154 191 246 304 367
#     4   8  15  29  53  86 118 146 185 241 302 363
#     4   9  19  37  62  89 117 153 198 255 313 363
#
# _framework density 21.654669999999999
#
# number of rings (size 3 to 8) (size 9 to 14) (size 15 to 20)
#    0.000    2.667    0.000    2.500    2.333    6.333 
#    0.000    5.000    0.000    3.000    0.000    0.000 
#    0.000    0.000    0.000    0.000    0.000    0.000 
#
# Total GULP energy -267771.398405 kJ/mol
# GULP energy per Si atom -5578.570800 kJ/mol
# Density = 2.160538 g / cm^3
# Si number density = 21.654670 Si / 1000 Ang^3
#
#
#
# Elastic Constant Matrix: (Units=GPa)
#
#
# Indices 1 2 3 4 5 6 
#
# 1 45.4813 27.1966 17.3991 0.0000 0.0000 0.0000
# 2 27.1966 119.5371 48.7443 0.0001 0.0000 0.0000
# 3 17.3991 48.7443 110.2652 0.0002 -0.0001 -0.0001
# 4 0.0000 0.0001 0.0002 26.3047 0.0000 0.0000
# 5 0.0000 0.0000 -0.0001 0.0000 24.8232 0.0000
# 6 0.0000 0.0000 -0.0001 0.0000 0.0000 9.4630
#
#
#
# Elastic Compliance Matrix: (Units=1/GPa)
#
#
# Indices 1 2 3 4 5 6 
#
# 1 0.025738 -0.005123 -0.001796 0.000000 0.000000 0.000000
# 2 -0.005123 0.011225 -0.004154 0.000000 0.000000 0.000000
# 3 -0.001796 -0.004154 0.011189 0.000000 0.000000 0.000000
# 4 0.000000 0.000000 0.000000 0.038016 0.000000 0.000000
# 5 0.000000 0.000000 0.000000 0.000000 0.040285 0.000000
# 6 0.000000 0.000000 0.000000 0.000000 0.000000 0.105675
#
#
# Mechanical properties :
#
#
# Convention : Reuss Voigt Hill
#
# Bulk Modulus (GPa) = 38.45458 51.32928 44.89193
# Shear Modulus (GPa) = 19.01557 24.24777 21.63167
#
# Velocity S-wave (km/s) = 2.96654 3.34989 3.16403
# Velocity P-wave (km/s) = 5.43419 6.22233 5.84157
#
# Compressibility (1/GPa) = 0.02600471
#
# Stress axis : x y z
#
# Youngs Moduli (GPa) = 38.85334 89.08670 89.37556
#
# Poissons Ratio (x) = 0.45641 0.16056
# Poissons Ratio (y) = 0.19905 0.37125
# Poissons Ratio (z) = 0.06980 0.37005
#
# Static dielectric constant tensor:
#      x y z
#    x 1.805390 0.000000 0.000000 
#    y 0.000000 1.809740 0.000000 
#    z 0.000000 0.000000 1.841970 
# 
# From -- ./inp_files/32319.got.cif
#   From: 2010.05.17/outbox.cif.g08.bks.cpg/sg74_17_cif.got.tgz:32319.got - 2010.06.03 17:57:02.
