data_PCOD9540461
_publ_section_title
;
Structure prediction by ZEFSAII (Michael W. Deem and Ramdas Pophale) SiO2 
 PCOD9540461
Probable space group: I M M A
;
_chemical_formula_sum "Si O2"
_cell_formula_units_Z 104
_cell_length_a 25.345992
_cell_length_b 25.062102
_cell_length_c 7.370786
_cell_angle_alpha 90.000000
_cell_angle_beta 90.000000
_cell_angle_gamma 90.000000
_cell_volume 4682.098963
_symmetry_space_group_name_H-M "I M M A"
_symmetry_group_IT_number 74
_symmetry_cell_setting 'orthorhombic'
loop_
_space_group_symop_operation_xyz
x,y,z
-x,1/2-y,z
x,-y,-z
-x,1/2+y,-z
-x,-y,-z
x,1/2+y,-z
-x,y,z
x,1/2-y,z
1/2+x,1/2+y,1/2+z
1/2-x,-y,1/2+z
1/2+x,1/2-y,1/2-z
1/2-x,y,1/2-z
1/2-x,1/2-y,1/2-z
1/2+x,y,1/2-z
1/2-x,1/2+y,1/2+z
1/2+x,-y,1/2+z
loop_
_atom_site_type_symbol
_atom_site_label
_atom_site_fract_x
_atom_site_fract_y
_atom_site_fract_z
Si Si1 0.440070 0.750000 0.542219
Si Si2 0.438068 0.548535 0.260490
Si Si3 0.782810 0.384724 0.099895
Si Si4 0.664947 0.510480 0.784975
Si Si5 0.102022 0.363658 0.037062
Si Si6 0.438789 0.250000 0.016351
Si Si7 0.563599 0.366056 0.051518
Si Si8 0.750000 0.573663 0.250000
O O1 0.500000 0.750000 0.488377
O O2 0.417672 0.694210 0.478569
O O3 0.436984 0.750000 0.762639
O O4 0.500000 0.532920 0.262078
O O5 0.395880 0.500546 0.265709
O O6 0.424998 0.589570 0.422142
O O7 0.426670 0.416213 0.920676
O O8 0.750000 0.353139 0.250000
O O9 0.807041 0.436513 0.208905
O O10 0.835351 0.361151 0.016418
O O11 0.742889 0.395101 0.934971
O O12 0.700018 0.462935 0.702801
O O13 0.670713 0.500000 0.000000
O O14 0.088288 0.371893 0.249699
O O15 0.500000 0.250000 0.958401
O O16 0.417443 0.191028 0.969064
O O17 0.500000 0.362109 0.073732
#
# Coordination Sequence:
#
# PCOD9540461 Si02
#       8
#     8  16  16  16  16   8  16   8
#     4   9  18  37  64  93 125 162 202 245 294 371
#     4  11  24  38  56  90 129 166 205 250 311 379
#     4  12  25  41  66  93 116 157 210 265 314 363
#     4  12  22  41  64  89 124 160 211 261 307 368
#     4  11  22  39  65  91 123 160 204 256 310 364
#     4   7  12  27  53  80 109 152 201 242 283 339
#     4   9  18  34  55  83 121 161 200 245 298 362
#     4  12  22  42  68  89 116 151 212 268 304 364
#
# _framework density 22.212260000000001
#
# number of rings (size 3 to 8) (size 9 to 14) (size 15 to 20)
#    0.000    1.385    3.846    3.692    0.000    0.923 
#    0.000    5.000    0.000    0.462    0.000    0.000 
#    0.000    0.000    0.000    0.000    0.000    0.000 
#
# Total GULP energy -290461.296373 kJ/mol
# GULP energy per Si atom -5585.794161 kJ/mol
# Density = 2.216170 g / cm^3
# Si number density = 22.212260 Si / 1000 Ang^3
#
#
#
# Elastic Constant Matrix: (Units=GPa)
#
#
# Indices 1 2 3 4 5 6 
#
# 1 80.2860 17.9669 1.5471 0.0000 0.0000 0.0000
# 2 17.9669 61.6002 10.7537 0.0000 0.0000 0.0000
# 3 1.5471 10.7537 96.8774 0.0000 0.0000 0.0000
# 4 0.0000 0.0000 0.0000 5.2217 0.0000 0.0000
# 5 0.0000 0.0000 0.0000 0.0000 19.5141 0.0000
# 6 0.0000 0.0000 0.0000 0.0000 0.0000 16.6954
#
#
#
# Elastic Compliance Matrix: (Units=1/GPa)
#
#
# Indices 1 2 3 4 5 6 
#
# 1 0.013330 -0.003927 0.000223 0.000000 0.000000 0.000000
# 2 -0.003927 0.017711 -0.001903 0.000000 0.000000 0.000000
# 3 0.000223 -0.001903 0.010530 0.000000 0.000000 0.000000
# 4 0.000000 0.000000 0.000000 0.191509 0.000000 0.000000
# 5 0.000000 0.000000 0.000000 0.000000 0.051245 0.000000
# 6 0.000000 0.000000 0.000000 0.000000 0.000000 0.059897
#
#
# Mechanical properties :
#
#
# Convention : Reuss Voigt Hill
#
# Bulk Modulus (GPa) = 32.94135 33.25546 33.09841
# Shear Modulus (GPa) = 13.67781 22.18597 17.93189
#
# Velocity S-wave (km/s) = 2.48418 3.16383 2.84438
# Velocity P-wave (km/s) = 4.80527 5.32453 5.07155
#
# Compressibility (1/GPa) = 0.03035698
#
# Stress axis : x y z
#
# Youngs Moduli (GPa) = 75.01898 56.46102 94.96638
#
# Poissons Ratio (x) = 0.22172 -0.02118
# Poissons Ratio (y) = 0.29459 0.18075
# Poissons Ratio (z) = -0.01673 0.10746
#
# Static dielectric constant tensor:
#      x y z
#    x 1.814570 0.000000 0.000000 
#    y 0.000000 1.849500 0.000000 
#    z 0.000000 0.000000 1.846760 
# 
# From -- ./inp_files/15279.got.cif
#   From: 2010.05.17/outbox.cif.g08.bks.cpg/sg74_8_cif.got.tgz:15279.got - 2010.06.03 17:57:02.
