data_PCOD9540183
_publ_section_title
;
Structure prediction by ZEFSAII (Michael W. Deem and Ramdas Pophale) SiO2 
 PCOD9540183
Probable space group: I M M A
;
_chemical_formula_sum "Si O2"
_cell_formula_units_Z 96
_cell_length_a 34.704708
_cell_length_b 8.023865
_cell_length_c 30.736920
_cell_angle_alpha 90.000000
_cell_angle_beta 90.000000
_cell_angle_gamma 90.000000
_cell_volume 8559.183841
_symmetry_space_group_name_H-M "I M M A"
_symmetry_group_IT_number 74
_symmetry_cell_setting 'orthorhombic'
loop_
_space_group_symop_operation_xyz
x,y,z
-x,1/2-y,z
x,-y,-z
-x,1/2+y,-z
-x,-y,-z
x,1/2+y,-z
-x,y,z
x,1/2-y,z
1/2+x,1/2+y,1/2+z
1/2-x,-y,1/2+z
1/2+x,1/2-y,1/2-z
1/2-x,y,1/2-z
1/2-x,1/2-y,1/2-z
1/2+x,y,1/2-z
1/2-x,1/2+y,1/2+z
1/2+x,-y,1/2+z
loop_
_atom_site_type_symbol
_atom_site_label
_atom_site_fract_x
_atom_site_fract_y
_atom_site_fract_z
Si Si1 0.813469 0.250000 0.235558
Si Si2 0.239954 0.066506 0.868621
Si Si3 0.766269 0.750000 0.679208
Si Si4 0.956788 0.451141 0.950088
Si Si5 0.340580 0.940968 0.314671
Si Si6 0.119092 0.951572 0.098067
Si Si7 0.303564 0.445607 0.450220
O O1 0.799965 0.250000 0.285307
O O2 0.773907 0.250000 0.206811
O O3 0.835975 0.417212 0.221492
O O4 0.257342 0.250000 0.863397
O O5 0.200191 0.063560 0.840668
O O6 0.265007 0.915077 0.850296
O O7 0.225884 0.037640 0.917872
O O8 0.957314 0.250000 0.947853
O O9 0.922144 0.509957 0.919460
O O10 0.000000 0.511555 0.939160
O O11 0.948812 0.500000 0.000000
O O12 0.347979 0.750000 0.299940
O O13 0.371145 0.992099 0.351921
O O14 0.120767 0.750000 0.095139
O O15 0.153524 0.018627 0.067939
O O16 0.300655 0.500000 0.500000
O O17 0.296264 0.250000 0.446166
#
# Coordination Sequence:
#
# PCOD9540183 Si02
#       7
#     8  16   8  16  16  16  16
#     4   9  16  24  38  52  67  82 106 122 151 190
#     4   9  16  27  37  48  67  86 104 128 156 184
#     4   9  16  26  36  52  66  86 104 124 150 191
#     4   9  17  28  38  48  64  83 106 136 165 200
#     4   8  15  25  36  50  67  82 100 128 156 189
#     4   9  17  27  37  50  64  82 105 130 168 204
#     4  11  19  26  36  50  65  83 109 136 164 196
#
# _framework density 11.216023
#
# number of rings (size 3 to 8) (size 9 to 14) (size 15 to 20)
#    0.000    2.833    0.833    3.000    3.500    2.667 
#    0.000    3.333    0.000    0.000    0.000    0.000 
#    0.000    0.000    0.000    0.000    0.000    0.000 
#
# Total GULP energy -267250.241186 kJ/mol
# GULP energy per Si atom -5567.713358 kJ/mol
# Density = 1.119049 g / cm^3
# Si number density = 11.216023 Si / 1000 Ang^3
#
#
#
# Elastic Constant Matrix: (Units=GPa)
#
#
# Indices 1 2 3 4 5 6 
#
# 1 34.0065 25.4829 35.5153 0.0000 0.0000 0.0000
# 2 25.4829 67.5464 36.6281 0.0000 0.0000 0.0000
# 3 35.5153 36.6281 59.1514 0.0000 0.0000 0.0000
# 4 0.0000 0.0000 0.0000 11.7295 0.0000 0.0000
# 5 0.0000 0.0000 0.0000 0.0000 18.0189 0.0000
# 6 0.0000 0.0000 0.0000 0.0000 0.0000 7.6580
#
#
#
# Elastic Compliance Matrix: (Units=1/GPa)
#
#
# Indices 1 2 3 4 5 6 
#
# 1 0.080574 -0.006269 -0.044495 0.000000 0.000000 0.000000
# 2 -0.006269 0.022777 -0.010340 0.000000 0.000000 0.000000
# 3 -0.044495 -0.010340 0.050024 0.000000 0.000000 0.000000
# 4 0.000000 0.000000 0.000000 0.085255 0.000000 0.000000
# 5 0.000000 0.000000 0.000000 0.000000 0.055497 0.000000
# 6 0.000000 0.000000 0.000000 0.000000 0.000000 0.130583
#
#
# Mechanical properties :
#
#
# Convention : Reuss Voigt Hill
#
# Bulk Modulus (GPa) = 32.08672 39.55075 35.81874
# Shear Modulus (GPa) = 8.97172 11.68649 10.32910
#
# Velocity S-wave (km/s) = 2.83132 3.23142 3.03797
# Velocity P-wave (km/s) = 6.27364 7.01869 6.65660
#
# Compressibility (1/GPa) = 0.03116554
#
# Stress axis : x y z
#
# Youngs Moduli (GPa) = 12.41099 43.90448 19.99036
#
# Poissons Ratio (x) = 0.27525 0.88948
# Poissons Ratio (y) = 0.07781 0.20670
# Poissons Ratio (z) = 0.55223 0.45396
#
# Static dielectric constant tensor:
#      x y z
#    x 1.342330 0.000000 0.000000 
#    y 0.000000 1.400000 0.000000 
#    z 0.000000 0.000000 1.356890 
# 
# From -- ./inp_files/74002.got.cif
#   From: 2010.05.17/outbox.cif.g08.bks.cpg/sg74_38_cif.got.tgz:74002.got - 2010.06.03 17:57:02.
