data_PCOD9540970
_publ_section_title
;
Structure prediction by ZEFSAII (Michael W. Deem and Ramdas Pophale) SiO2 
 PCOD9540970
Probable space group: I M M A
;
_chemical_formula_sum "Si O2"
_cell_formula_units_Z 28
_cell_length_a 12.000000
_cell_length_b 27.000000
_cell_length_c 9.000000
_cell_angle_alpha 90.000000
_cell_angle_beta 90.000000
_cell_angle_gamma 90.000000
_cell_volume 2916.000000
_symmetry_space_group_name_H-M "I M M A"
_symmetry_group_IT_number 74
_symmetry_cell_setting 'orthorhombic'
loop_
_space_group_symop_operation_xyz
x,y,z
-x,1/2-y,z
x,-y,-z
-x,1/2+y,-z
-x,-y,-z
x,1/2+y,-z
-x,y,z
x,1/2-y,z
1/2+x,1/2+y,1/2+z
1/2-x,-y,1/2+z
1/2+x,1/2-y,1/2-z
1/2-x,y,1/2-z
1/2-x,1/2-y,1/2-z
1/2+x,y,1/2-z
1/2-x,1/2+y,1/2+z
1/2+x,-y,1/2+z
loop_
_atom_site_type_symbol
_atom_site_label
_atom_site_fract_x
_atom_site_fract_y
_atom_site_fract_z
Si Si1 0.179980 0.000000 0.000000
Si Si2 0.759320 0.889119 0.570489
Si Si3 0.500000 0.586501 0.988151
Si Si4 0.861664 0.190721 0.862885
Si Si5 0.500000 0.004842 0.757385
O O1 0.105190 0.994523 0.147631
O O2 0.240520 0.052933 0.022150
O O3 0.750000 0.885602 0.750000
O O4 0.675325 0.850490 0.487821
O O5 0.888207 0.881127 0.524074
O O6 0.500000 0.545568 0.854240
O O7 0.500000 0.552225 0.135150
O O8 0.859149 0.250000 0.903725
O O9 0.750000 0.185748 0.750000
O O10 0.000000 0.181998 0.825753
#
# Coordination Sequence:
#
# PCOD9540970 Si02
#       5
#     8  16   8  16   8
#     4  11  24  39  60  98 136 185 229 282 344 402
#     4  12  27  41  66  98 141 182 231 283 340 411
#     4  11  24  40  59 100 134 182 234 280 339 409
#     4  10  26  51  77 103 133 176 231 289 351 416
#     4  10  22  40  62  86 142 186 231 281 335 409
#
# _framework density 9.602195
#
# number of rings (size 3 to 8) (size 9 to 14) (size 15 to 20)
#    0.000    1.143    2.857    1.714   12.000    0.571 
#    0.000    0.000    0.000    0.000    0.000    0.000 
#    0.000    0.000    0.000    0.000    0.000    0.000 
#
# Total GULP energy -156034.384250 kJ/mol
# GULP energy per Si atom -5572.656580 kJ/mol
# Density = 0.958034 g / cm^3
# Si number density = 9.602195 Si / 1000 Ang^3
#
#
#
# Elastic Constant Matrix: (Units=GPa)
#
#
# Indices 1 2 3 4 5 6 
#
# 1 166.1473 37.2951 38.3148 -0.0001 0.0000 0.0000
# 2 37.2951 102.9802 34.7000 -0.0003 0.0002 0.0001
# 3 38.3148 34.7000 102.7685 -0.0001 0.0008 0.0002
# 4 -0.0001 -0.0003 -0.0001 24.5941 0.0003 0.0001
# 5 0.0000 0.0002 0.0008 0.0003 21.2948 -0.0001
# 6 0.0000 0.0001 0.0002 0.0001 -0.0001 50.1846
#
#
#
# Elastic Compliance Matrix: (Units=1/GPa)
#
#
# Indices 1 2 3 4 5 6 
#
# 1 0.006879 -0.001836 -0.001945 0.000000 0.000000 0.000000
# 2 -0.001836 0.011447 -0.003181 0.000000 0.000000 0.000000
# 3 -0.001945 -0.003181 0.011530 0.000000 0.000000 0.000000
# 4 0.000000 0.000000 0.000000 0.040660 -0.000001 0.000000
# 5 0.000000 0.000000 0.000000 -0.000001 0.046960 0.000000
# 6 0.000000 0.000000 0.000000 0.000000 0.000000 0.019926
#
#
# Mechanical properties :
#
#
# Convention : Reuss Voigt Hill
#
# Bulk Modulus (GPa) = 62.76229 65.83509 64.29869
# Shear Modulus (GPa) = 31.92094 36.65378 34.28736
#
# Velocity S-wave (km/s) = 4.08139 4.37351 4.22997
# Velocity P-wave (km/s) = 7.41367 7.73687 7.57699
#
# Compressibility (1/GPa) = 0.01593313
#
# Stress axis : x y z
#
# Youngs Moduli (GPa) = 145.36148 87.35678 86.73283
#
# Poissons Ratio (x) = 0.16040 0.16868
# Poissons Ratio (y) = 0.26690 0.27587
# Poissons Ratio (z) = 0.28271 0.27785
#
# Static dielectric constant tensor:
#      x y z
#    x 1.769830 0.000000 0.000000 
#    y 0.000000 1.659600 0.000000 
#    z 0.000000 0.000000 1.690530 
# 
# From -- ./inp_files/7137.got.cif
#   From: 2010.05.17/outbox.ucp.g08.bks.cvg/sg74_4_cif.got.tgz:7137.got - 2010.06.11 16:37:44.
