data_PCOD9540067
_publ_section_title
;
Structure prediction by ZEFSAII (Michael W. Deem and Ramdas Pophale) SiO2 
 PCOD9540067
Probable space group: I M M A
;
_chemical_formula_sum "Si O2"
_cell_formula_units_Z 104
_cell_length_a 23.244515
_cell_length_b 25.165353
_cell_length_c 9.359420
_cell_angle_alpha 90.000000
_cell_angle_beta 90.000000
_cell_angle_gamma 90.000000
_cell_volume 5474.852866
_symmetry_space_group_name_H-M "I M M A"
_symmetry_group_IT_number 74
_symmetry_cell_setting 'orthorhombic'
loop_
_space_group_symop_operation_xyz
x,y,z
-x,1/2-y,z
x,-y,-z
-x,1/2+y,-z
-x,-y,-z
x,1/2+y,-z
-x,y,z
x,1/2-y,z
1/2+x,1/2+y,1/2+z
1/2-x,-y,1/2+z
1/2+x,1/2-y,1/2-z
1/2-x,y,1/2-z
1/2-x,1/2-y,1/2-z
1/2+x,y,1/2-z
1/2-x,1/2+y,1/2+z
1/2+x,-y,1/2+z
loop_
_atom_site_type_symbol
_atom_site_label
_atom_site_fract_x
_atom_site_fract_y
_atom_site_fract_z
Si Si1 0.181504 0.573686 0.238023
Si Si2 0.500000 0.638252 0.094323
Si Si3 0.000000 0.812778 0.105701
Si Si4 0.386043 0.468032 0.282966
Si Si5 0.316324 0.186773 0.240128
Si Si6 0.123293 0.884456 0.526985
Si Si7 0.614386 0.371784 0.490501
Si Si8 0.500000 0.981116 0.166507
O O1 0.250000 0.576785 0.250000
O O2 0.162157 0.513311 0.200341
O O3 0.150775 0.590901 0.385230
O O4 0.156453 0.614116 0.120678
O O5 0.500000 0.680753 0.221477
O O6 0.558268 0.635615 0.002017
O O7 0.500000 0.581740 0.173561
O O8 0.000000 0.750000 0.069129
O O9 0.056760 0.842349 0.043826
O O10 0.396399 0.428735 0.415000
O O11 0.444159 0.497888 0.243968
O O12 0.374236 0.430185 0.147076
O O13 0.318967 0.250000 0.244336
O O14 0.250000 0.169417 0.250000
O O15 0.353160 0.163058 0.370877
O O16 0.341447 0.164048 0.093074
O O17 0.500000 0.000000 0.000000
#
# Coordination Sequence:
#
# PCOD9540067 Si02
#       8
#    16   8   8  16  16  16  16   8
#     4  12  24  39  61  94 134 177 218 259 321 395
#     4  12  22  39  65  95 128 162 214 264 331 382
#     4  12  25  44  68  93 130 169 218 287 343 384
#     4  11  22  36  63  93 128 170 211 258 315 389
#     4  10  23  44  67  90 122 167 219 273 327 384
#     4  11  22  40  63  92 127 165 214 265 319 386
#     4  11  24  43  64  95 131 172 217 273 329 393
#     4  12  17  35  62  88 122 167 203 251 311 396
#
# _framework density 18.995944000000001
#
# number of rings (size 3 to 8) (size 9 to 14) (size 15 to 20)
#    0.000    0.769    4.615    2.769    0.000    7.385 
#    0.000    3.077    0.000    3.231    0.000    0.000 
#    0.000    0.000    0.000    0.000    0.000    0.000 
#
# Total GULP energy -290632.476004 kJ/mol
# GULP energy per Si atom -5589.086077 kJ/mol
# Density = 1.895271 g / cm^3
# Si number density = 18.995944 Si / 1000 Ang^3
#
#
#
# Elastic Constant Matrix: (Units=GPa)
#
#
# Indices 1 2 3 4 5 6 
#
# 1 140.1380 62.8928 10.6093 0.0000 0.0000 0.0000
# 2 62.8928 87.8527 40.8525 0.0000 0.0000 0.0000
# 3 10.6093 40.8525 51.8933 0.0000 0.0000 0.0000
# 4 0.0000 0.0000 0.0000 26.0885 0.0000 0.0000
# 5 0.0000 0.0000 0.0000 0.0000 19.9781 0.0000
# 6 0.0000 0.0000 0.0000 0.0000 0.0000 39.0565
#
#
#
# Elastic Compliance Matrix: (Units=1/GPa)
#
#
# Indices 1 2 3 4 5 6 
#
# 1 0.011826 -0.011582 0.006700 0.000000 0.000000 0.000000
# 2 -0.011582 0.029298 -0.020697 0.000000 0.000000 0.000000
# 3 0.006700 -0.020697 0.034194 0.000000 0.000000 0.000000
# 4 0.000000 0.000000 0.000000 0.038331 0.000000 0.000000
# 5 0.000000 0.000000 0.000000 0.000000 0.050055 0.000000
# 6 0.000000 0.000000 0.000000 0.000000 0.000000 0.025604
#
#
# Mechanical properties :
#
#
# Convention : Reuss Voigt Hill
#
# Bulk Modulus (GPa) = 41.38930 56.51036 48.94983
# Shear Modulus (GPa) = 20.11907 28.05993 24.08950
#
# Velocity S-wave (km/s) = 3.25795 3.84755 3.56496
# Velocity P-wave (km/s) = 5.99901 7.03927 6.53986
#
# Compressibility (1/GPa) = 0.02416083
#
# Stress axis : x y z
#
# Youngs Moduli (GPa) = 84.55593 34.13155 29.24489
#
# Poissons Ratio (x) = 0.39531 -0.19594
# Poissons Ratio (y) = 0.97933 0.60528
# Poissons Ratio (z) = -0.56652 0.70642
#
# Static dielectric constant tensor:
#      x y z
#    x 1.613250 0.000000 0.000000 
#    y 0.000000 1.697090 0.000000 
#    z 0.000000 0.000000 1.705880 
# 
# From -- ./inp_files/14183.got.cif
#   From: 2010.05.17/outbox.cif.g08.bks.cpg/sg74_8_cif.got.tgz:14183.got - 2010.06.03 17:57:02.
