data_PCOD9540225
_publ_section_title
;
Structure prediction by ZEFSAII (Michael W. Deem and Ramdas Pophale) SiO2 
 PCOD9540225
Probable space group: I M M A
;
_chemical_formula_sum "Si O2"
_cell_formula_units_Z 80
_cell_length_a 12.759121
_cell_length_b 18.200660
_cell_length_c 23.109217
_cell_angle_alpha 90.000000
_cell_angle_beta 90.000000
_cell_angle_gamma 90.000000
_cell_volume 5366.524589
_symmetry_space_group_name_H-M "I M M A"
_symmetry_group_IT_number 74
_symmetry_cell_setting 'orthorhombic'
loop_
_space_group_symop_operation_xyz
x,y,z
-x,1/2-y,z
x,-y,-z
-x,1/2+y,-z
-x,-y,-z
x,1/2+y,-z
-x,y,z
x,1/2-y,z
1/2+x,1/2+y,1/2+z
1/2-x,-y,1/2+z
1/2+x,1/2-y,1/2-z
1/2-x,y,1/2-z
1/2-x,1/2-y,1/2-z
1/2+x,y,1/2-z
1/2-x,1/2+y,1/2+z
1/2+x,-y,1/2+z
loop_
_atom_site_type_symbol
_atom_site_label
_atom_site_fract_x
_atom_site_fract_y
_atom_site_fract_z
Si Si1 0.000000 0.625940 0.167141
Si Si2 0.379809 0.120893 0.016683
Si Si3 0.291685 0.250000 0.842454
Si Si4 0.500000 0.250000 0.568172
Si Si5 0.277523 0.586949 0.315499
Si Si6 0.500000 0.750000 0.233736
Si Si7 0.738567 0.250000 0.523476
Si Si8 0.881588 0.484067 0.595904
O O1 0.000000 0.679373 0.111153
O O2 0.102171 0.575883 0.169084
O O3 0.000000 0.679292 0.223905
O O4 0.500000 0.150915 0.020460
O O5 0.288475 0.180106 0.009048
O O6 0.377632 0.070642 0.959043
O O7 0.363667 0.065183 0.070072
O O8 0.235855 0.324879 0.823651
O O9 0.401166 0.250000 0.808953
O O10 0.290670 0.250000 0.912031
O O11 0.611977 0.250000 0.533644
O O12 0.250000 0.568610 0.250000
O O13 0.200791 0.544491 0.358088
O O14 0.000000 0.480307 0.619590
#
# Coordination Sequence:
#
# PCOD9540225 Si02
#       8
#     8  16   8   4  16   4   8  16
#     4  11  20  32  41  61 102 134 173 196 222 272
#     4   9  18  33  52  72  93 121 161 210 249 284
#     4  12  21  30  44  71 101 132 171 198 229 277
#     4  11  20  30  42  66 102 132 154 199 234 272
#     4  12  22  32  46  68  98 140 168 199 235 282
#     4  11  22  28  40  66 102 132 168 211 232 256
#     4  12  20  31  51  72  96 127 167 196 241 297
#     4   9  19  34  49  69  98 126 159 204 250 284
#
# _framework density 14.907227000000001
#
# number of rings (size 3 to 8) (size 9 to 14) (size 15 to 20)
#    0.000    1.400    6.000    2.400    4.200    0.000 
#    0.000    1.000    0.000    3.600    0.000    0.700 
#    0.000    0.000    0.000    0.000    0.000    0.000 
#
# Total GULP energy -223077.353305 kJ/mol
# GULP energy per Si atom -5576.933833 kJ/mol
# Density = 1.487330 g / cm^3
# Si number density = 14.907227 Si / 1000 Ang^3
#
#
#
# Elastic Constant Matrix: (Units=GPa)
#
#
# Indices 1 2 3 4 5 6 
#
# 1 162.5523 56.9952 59.5312 0.0000 0.0000 0.0000
# 2 56.9952 51.5622 28.2013 0.0000 0.0000 0.0000
# 3 59.5312 28.2013 67.9762 0.0000 0.0000 0.0000
# 4 0.0000 0.0000 0.0000 -369.1017 0.0000 0.0000
# 5 0.0000 0.0000 0.0000 0.0000 22.8091 0.0000
# 6 0.0000 0.0000 0.0000 0.0000 0.0000 19.5963
#
#
#
# Elastic Compliance Matrix: (Units=1/GPa)
#
#
# Indices 1 2 3 4 5 6 
#
# 1 0.011870 -0.009617 -0.006405 0.000000 0.000000 0.000000
# 2 -0.009617 0.032878 -0.005218 0.000000 0.000000 0.000000
# 3 -0.006405 -0.005218 0.022485 0.000000 0.000000 0.000000
# 4 0.000000 0.000000 0.000000 -0.002709 0.000000 0.000000
# 5 0.000000 0.000000 0.000000 0.000000 0.043842 0.000000
# 6 0.000000 0.000000 0.000000 0.000000 0.000000 0.051030
#
#
# Mechanical properties :
#
#
# Convention : Reuss Voigt Hill
#
# Bulk Modulus (GPa) = 40.39942 63.50513 51.95228
# Shear Modulus (GPa) = 23.79507 -56.18173 -16.19333
#
# Velocity S-wave (km/s) = 3.99959 -6.14568 -3.29944
# Velocity P-wave (km/s) = 6.96336 2.76884 4.51785
#
# Compressibility (1/GPa) = 0.02475283
#
# Stress axis : x y z
#
# Youngs Moduli (GPa) = 84.24854 30.41511 44.47360
#
# Poissons Ratio (x) = 0.29251 0.28486
# Poissons Ratio (y) = 0.81023 0.23206
# Poissons Ratio (z) = 0.53963 0.15870
#
# Static dielectric constant tensor:
#      x y z
#    x 1.540860 0.000000 0.000000 
#    y 0.000000 1.494740 0.000000 
#    z 0.000000 0.000000 1.475010 
# 
# From -- ./inp_files/58821.got.cif
#   From: 2010.05.17/outbox.cif.g08.bks.cpg/sg74_30_cif.got.tgz:58821.got - 2010.06.03 17:57:02.
