data_PCOD9540865
_publ_section_title
;
Structure prediction by ZEFSAII (Michael W. Deem and Ramdas Pophale) SiO2 
 PCOD9540865
Probable space group: I M M A
;
_chemical_formula_sum "Si O2"
_cell_formula_units_Z 48
_cell_length_a 21.000000
_cell_length_b 21.000000
_cell_length_c 12.000000
_cell_angle_alpha 90.000000
_cell_angle_beta 90.000000
_cell_angle_gamma 90.000000
_cell_volume 5292.000000
_symmetry_space_group_name_H-M "I M M A"
_symmetry_group_IT_number 74
_symmetry_cell_setting 'orthorhombic'
loop_
_space_group_symop_operation_xyz
x,y,z
-x,1/2-y,z
x,-y,-z
-x,1/2+y,-z
-x,-y,-z
x,1/2+y,-z
-x,y,z
x,1/2-y,z
1/2+x,1/2+y,1/2+z
1/2-x,-y,1/2+z
1/2+x,1/2-y,1/2-z
1/2-x,y,1/2-z
1/2-x,1/2-y,1/2-z
1/2+x,y,1/2-z
1/2-x,1/2+y,1/2+z
1/2+x,-y,1/2+z
loop_
_atom_site_type_symbol
_atom_site_label
_atom_site_fract_x
_atom_site_fract_y
_atom_site_fract_z
Si Si1 0.425458 0.673557 0.035195
Si Si2 0.180735 0.489779 0.193029
Si Si3 0.573971 0.909288 0.809553
Si Si4 0.210524 0.325451 0.634482
Si Si5 0.572037 0.174920 0.413546
Si Si6 0.181336 0.100308 0.976150
O O1 0.500000 0.662474 0.072139
O O2 0.421972 0.750000 0.009077
O O3 0.415352 0.629908 0.924498
O O4 0.365475 0.660110 0.119237
O O5 0.250000 0.494553 0.250000
O O6 0.126616 0.463095 0.277889
O O7 0.165262 0.555963 0.130239
O O8 0.185805 0.441437 0.088434
O O9 0.500000 0.932921 0.812004
O O10 0.578435 0.860249 0.705491
O O11 0.216406 0.250000 0.613135
O O12 0.250000 0.336723 0.750000
O O13 0.251655 0.365434 0.546314
O O14 0.500000 0.161717 0.453922
O O15 0.579062 0.250000 0.397470
O O16 0.624714 0.149389 0.498574
#
# Coordination Sequence:
#
# PCOD9540865 Si02
#       6
#    16  16  16  16  16  16
#     4   9  17  31  53  80 107 134 165 204 253 307
#     4  10  20  33  50  72  99 133 173 214 255 302
#     4   9  17  30  51  78 106 134 165 206 256 306
#     4  10  20  34  52  73  99 132 170 211 254 302
#     4   9  17  30  49  75 106 136 167 206 253 305
#     4  10  20  33  50  71  98 135 174 212 255 301
#
# _framework density 9.0702949999999998
#
# number of rings (size 3 to 8) (size 9 to 14) (size 15 to 20)
#    0.000    2.500    0.000    2.500    0.000    2.667 
#    0.000    4.167    0.000   14.000    0.000   11.667 
#    0.000    0.000    0.000    0.000    0.000    0.000 
#
# Total GULP energy -267414.923513 kJ/mol
# GULP energy per Si atom -5571.144240 kJ/mol
# Density = 0.904965 g / cm^3
# Si number density = 9.070295 Si / 1000 Ang^3
#
#
#
# Elastic Constant Matrix: (Units=GPa)
#
#
# Indices 1 2 3 4 5 6 
#
# 1 151.6651 31.3375 48.2316 0.0000 0.0000 0.0000
# 2 31.3375 33.0892 15.6310 0.0000 0.0000 0.0000
# 3 48.2316 15.6310 54.4663 0.0000 0.0000 0.0000
# 4 0.0000 0.0000 0.0000 20.9331 0.0000 0.0000
# 5 0.0000 0.0000 0.0000 0.0000 34.1381 0.0000
# 6 0.0000 0.0000 0.0000 0.0000 0.0000 20.6623
#
#
#
# Elastic Compliance Matrix: (Units=1/GPa)
#
#
# Indices 1 2 3 4 5 6 
#
# 1 0.010178 -0.006225 -0.007226 0.000000 0.000000 0.000000
# 2 -0.006225 0.038769 -0.005613 0.000000 0.000000 0.000000
# 3 -0.007226 -0.005613 0.026370 0.000000 0.000000 0.000000
# 4 0.000000 0.000000 0.000000 0.047771 0.000000 0.000000
# 5 0.000000 0.000000 0.000000 0.000000 0.029293 0.000000
# 6 0.000000 0.000000 0.000000 0.000000 0.000000 0.048397
#
#
# Mechanical properties :
#
#
# Convention : Reuss Voigt Hill
#
# Bulk Modulus (GPa) = 26.89122 47.73565 37.31343
# Shear Modulus (GPa) = 19.89627 24.74807 22.32217
#
# Velocity S-wave (km/s) = 3.31536 3.69757 3.51167
# Velocity P-wave (km/s) = 5.43245 6.67838 6.08737
#
# Compressibility (1/GPa) = 0.03718686
#
# Stress axis : x y z
#
# Youngs Moduli (GPa) = 98.25288 25.79383 37.92199
#
# Poissons Ratio (x) = 0.16058 0.27403
# Poissons Ratio (y) = 0.61167 0.21287
# Poissons Ratio (z) = 0.70999 0.14479
#
# Static dielectric constant tensor:
#      x y z
#    x 1.626030 0.000000 0.000000 
#    y 0.000000 1.631990 0.000000 
#    z 0.000000 0.000000 1.615800 
# 
# From -- ./inp_files/23896.got.cif
#   From: 2010.05.17/outbox.ucp.g08.bks.cvg/sg74_12_cif.got.tgz:23896.got - 2010.06.11 16:37:44.
