data_PCOD9540880
_publ_section_title
;
Structure prediction by ZEFSAII (Michael W. Deem and Ramdas Pophale) SiO2 
 PCOD9540880
Probable space group: I M M A
;
_chemical_formula_sum "Si O2"
_cell_formula_units_Z 52
_cell_length_a 9.000000
_cell_length_b 30.000000
_cell_length_c 21.000000
_cell_angle_alpha 90.000000
_cell_angle_beta 90.000000
_cell_angle_gamma 90.000000
_cell_volume 5670.000000
_symmetry_space_group_name_H-M "I M M A"
_symmetry_group_IT_number 74
_symmetry_cell_setting 'orthorhombic'
loop_
_space_group_symop_operation_xyz
x,y,z
-x,1/2-y,z
x,-y,-z
-x,1/2+y,-z
-x,-y,-z
x,1/2+y,-z
-x,y,z
x,1/2-y,z
1/2+x,1/2+y,1/2+z
1/2-x,-y,1/2+z
1/2+x,1/2-y,1/2-z
1/2-x,y,1/2-z
1/2-x,1/2-y,1/2-z
1/2+x,y,1/2-z
1/2-x,1/2+y,1/2+z
1/2+x,-y,1/2+z
loop_
_atom_site_type_symbol
_atom_site_label
_atom_site_fract_x
_atom_site_fract_y
_atom_site_fract_z
Si Si1 0.327600 0.750000 0.316538
Si Si2 0.166314 0.958128 0.187631
Si Si3 0.825106 0.798266 0.963198
Si Si4 0.669943 0.580733 0.070303
Si Si5 0.168994 0.684078 0.404917
Si Si6 0.666921 0.564643 0.689297
Si Si7 0.822736 0.102237 0.061353
O O1 0.500000 0.750000 0.308552
O O2 0.250000 0.750000 0.250000
O O3 0.275538 0.707122 0.355415
O O4 0.250000 0.940331 0.250000
O O5 0.248339 0.948683 0.122104
O O6 0.000000 0.939899 0.185225
O O7 0.158856 0.011435 0.194621
O O8 0.800115 0.750000 0.931511
O O9 0.797010 0.844915 0.928501
O O10 0.000000 0.799574 0.982012
O O11 0.724612 0.801166 0.025741
O O12 0.500000 0.566813 0.062743
O O13 0.674483 0.631010 0.097289
O O14 0.748386 0.584436 0.002455
O O15 0.000000 0.698220 0.394184
O O16 0.500000 0.582600 0.688689
O O17 0.750000 0.582874 0.750000
O O18 0.737705 0.576920 0.622442
O O19 0.000000 0.095147 0.054681
#
# Coordination Sequence:
#
# PCOD9540880 Si02
#       7
#     8  16  16  16  16  16  16
#     4  12  24  36  50  68  92 126 169 210 251 298
#     4  10  20  35  54  74  99 135 177 217 261 311
#     4   9  16  28  50  76  99 128 165 204 247 298
#     4  10  21  35  52  77 106 135 170 212 260 309
#     4  10  20  34  50  69  96 128 161 203 252 298
#     4   9  19  35  55  77 102 136 174 213 259 313
#     4   9  18  33  52  77 107 136 171 214 261 309
#
# _framework density 9.1710759999999993
#
# number of rings (size 3 to 8) (size 9 to 14) (size 15 to 20)
#    0.000    2.308    0.769    2.077    0.000    4.308 
#    0.000    3.077    0.000    0.462    0.000    0.000 
#    0.000    0.000    0.000    0.000    0.000    0.000 
#
# Total GULP energy -289575.756655 kJ/mol
# GULP energy per Si atom -5568.764551 kJ/mol
# Density = 0.915020 g / cm^3
# Si number density = 9.171076 Si / 1000 Ang^3
#
#
#
# Elastic Constant Matrix: (Units=GPa)
#
#
# Indices 1 2 3 4 5 6 
#
# 1 95.6101 24.8428 63.9190 0.0002 0.0000 0.0000
# 2 24.8428 -2.6593 19.8231 0.0001 0.0000 0.0000
# 3 63.9190 19.8231 105.2345 0.0012 0.0000 0.0000
# 4 0.0002 0.0001 0.0012 -393.7083 0.0001 -0.0001
# 5 0.0000 0.0000 0.0000 0.0001 20.1936 0.0000
# 6 0.0000 0.0000 0.0000 -0.0001 0.0000 15.8855
#
#
#
# Elastic Compliance Matrix: (Units=1/GPa)
#
#
# Indices 1 2 3 4 5 6 
#
# 1 0.012133 0.024295 -0.011946 0.000000 0.000000 0.000000
# 2 0.024295 -0.107763 0.005543 0.000000 0.000000 0.000000
# 3 -0.011946 0.005543 0.015714 0.000000 0.000000 0.000000
# 4 0.000000 0.000000 0.000000 -0.002540 0.000000 0.000000
# 5 0.000000 0.000000 0.000000 0.000000 0.049521 0.000000
# 6 0.000000 0.000000 0.000000 0.000000 0.000000 0.062951
#
#
# Mechanical properties :
#
#
# Convention : Reuss Voigt Hill
#
# Bulk Modulus (GPa) = -22.65928 46.15058 11.74565
# Shear Modulus (GPa) = -244.15318 -65.55249 -154.85284
#
# Velocity S-wave (km/s) = -11.54987 -5.98467 -9.19825
# Velocity P-wave (km/s) = 13.79298 4.74758 10.31469
#
# Compressibility (1/GPa) = -0.04413202
#
# Stress axis : x y z
#
# Youngs Moduli (GPa) = 82.42195 -9.27963 63.63606
#
# Poissons Ratio (x) = 0.22545 0.76019
# Poissons Ratio (y) = -2.00245 -0.35271
# Poissons Ratio (z) = 0.98460 0.05143
#
# Static dielectric constant tensor:
#      x y z
#    x 1.640500 0.000000 0.000000 
#    y 0.000000 1.653940 0.000000 
#    z 0.000000 0.000000 1.604920 
# 
# From -- ./inp_files/49612.got.cif
#   From: 2010.05.17/outbox.ucp.g08.bks.cvg/sg74_25_cif.got.tgz:49612.got - 2010.06.11 16:37:44.
