data_PCOD9540576
_publ_section_title
;
Structure prediction by ZEFSAII (Michael W. Deem and Ramdas Pophale) SiO2 
 PCOD9540576
Probable space group: I M M A
;
_chemical_formula_sum "Si O2"
_cell_formula_units_Z 56
_cell_length_a 17.569128
_cell_length_b 10.750122
_cell_length_c 14.704630
_cell_angle_alpha 90.000000
_cell_angle_beta 90.000000
_cell_angle_gamma 90.000000
_cell_volume 2777.267430
_symmetry_space_group_name_H-M "I M M A"
_symmetry_group_IT_number 74
_symmetry_cell_setting 'orthorhombic'
loop_
_space_group_symop_operation_xyz
x,y,z
-x,1/2-y,z
x,-y,-z
-x,1/2+y,-z
-x,-y,-z
x,1/2+y,-z
-x,y,z
x,1/2-y,z
1/2+x,1/2+y,1/2+z
1/2-x,-y,1/2+z
1/2+x,1/2-y,1/2-z
1/2-x,y,1/2-z
1/2-x,1/2-y,1/2-z
1/2+x,y,1/2-z
1/2-x,1/2+y,1/2+z
1/2+x,-y,1/2+z
loop_
_atom_site_type_symbol
_atom_site_label
_atom_site_fract_x
_atom_site_fract_y
_atom_site_fract_z
Si Si1 0.660447 0.750000 0.720630
Si Si2 0.909132 0.750000 0.575385
Si Si3 0.411522 0.481320 0.390524
Si Si4 0.227324 0.110382 0.850943
Si Si5 0.168397 0.000000 0.500000
O O1 0.750000 0.750000 0.750000
O O2 0.617745 0.750000 0.818510
O O3 0.633314 0.866529 0.657308
O O4 0.878742 0.624087 0.525804
O O5 0.000000 0.750000 0.573030
O O6 0.407848 0.500000 0.500000
O O7 0.500000 0.474136 0.365242
O O8 0.363101 0.597834 0.356915
O O9 0.250443 0.250000 0.873316
O O10 0.250000 0.079399 0.750000
O O11 0.274309 0.023675 0.917117
#
# Coordination Sequence:
#
# PCOD9540576 Si02
#       5
#     8   8  16  16   8
#     4  12  26  46  72 104 137 196 250 299 372 449
#     4  12  26  44  73 102 144 188 245 313 369 439
#     4  11  24  40  67 102 140 178 229 301 363 432
#     4  11  24  42  66  97 135 183 231 286 353 433
#     4  12  23  46  71 104 136 190 248 300 367 442
#
# _framework density 20.163703999999999
#
# number of rings (size 3 to 8) (size 9 to 14) (size 15 to 20)
#    0.000    0.571    2.857    6.000    2.000    0.571 
#    0.000    1.429    0.000    0.000    0.000    0.000 
#    0.000    0.000    0.000    0.000    0.000    0.000 
#
# Total GULP energy -156225.190344 kJ/mol
# GULP energy per Si atom -5579.471084 kJ/mol
# Density = 2.011781 g / cm^3
# Si number density = 20.163704 Si / 1000 Ang^3
#
#
#
# Elastic Constant Matrix: (Units=GPa)
#
#
# Indices 1 2 3 4 5 6 
#
# 1 196.9169 66.0822 78.5522 0.0000 0.0000 0.0000
# 2 66.0822 126.4140 22.9934 0.0000 0.0000 0.0000
# 3 78.5522 22.9934 290.9067 0.0000 0.0000 0.0000
# 4 0.0000 0.0000 0.0000 35.6205 0.0000 0.0000
# 5 0.0000 0.0000 0.0000 0.0000 36.2574 0.0000
# 6 0.0000 0.0000 0.0000 0.0000 0.0000 22.7177
#
#
#
# Elastic Compliance Matrix: (Units=1/GPa)
#
#
# Indices 1 2 3 4 5 6 
#
# 1 0.006806 -0.003270 -0.001579 0.000000 0.000000 0.000000
# 2 -0.003270 0.009597 0.000125 0.000000 0.000000 0.000000
# 3 -0.001579 0.000125 0.003854 0.000000 0.000000 0.000000
# 4 0.000000 0.000000 0.000000 0.028074 0.000000 0.000000
# 5 0.000000 0.000000 0.000000 0.000000 0.027581 0.000000
# 6 0.000000 0.000000 0.000000 0.000000 0.000000 0.044019
#
#
# Mechanical properties :
#
#
# Convention : Reuss Voigt Hill
#
# Bulk Modulus (GPa) = 92.53219 105.49924 99.01572
# Shear Modulus (GPa) = 37.59883 48.69311 43.14597
#
# Velocity S-wave (km/s) = 4.32288 4.91948 4.63080
# Velocity P-wave (km/s) = 8.42060 9.20344 8.82071
#
# Compressibility (1/GPa) = 0.01080705
#
# Stress axis : x y z
#
# Youngs Moduli (GPa) = 146.93430 104.19412 259.46264
#
# Poissons Ratio (x) = 0.34076 0.40975
# Poissons Ratio (y) = 0.48054 -0.03231
# Poissons Ratio (z) = 0.23204 -0.01297
#
# Static dielectric constant tensor:
#      x y z
#    x 1.691500 0.000000 0.000000 
#    y 0.000000 1.781770 0.000000 
#    z 0.000000 0.000000 1.813390 
# 
# From -- ./inp_files/31538.got.cif
#   From: 2010.05.17/outbox.cif.g08.bks.cpg/sg74_16_cif.got.tgz:31538.got - 2010.06.03 17:57:02.
