data_PCOD9540097
_publ_section_title
;
Structure prediction by ZEFSAII (Michael W. Deem and Ramdas Pophale) SiO2 
 PCOD9540097
Probable space group: I M M A
;
_chemical_formula_sum "Si O2"
_cell_formula_units_Z 48
_cell_length_a 13.067217
_cell_length_b 19.495529
_cell_length_c 10.050146
_cell_angle_alpha 90.000000
_cell_angle_beta 90.000000
_cell_angle_gamma 90.000000
_cell_volume 2560.297889
_symmetry_space_group_name_H-M "I M M A"
_symmetry_group_IT_number 74
_symmetry_cell_setting 'orthorhombic'
loop_
_space_group_symop_operation_xyz
x,y,z
-x,1/2-y,z
x,-y,-z
-x,1/2+y,-z
-x,-y,-z
x,1/2+y,-z
-x,y,z
x,1/2-y,z
1/2+x,1/2+y,1/2+z
1/2-x,-y,1/2+z
1/2+x,1/2-y,1/2-z
1/2-x,y,1/2-z
1/2-x,1/2-y,1/2-z
1/2+x,y,1/2-z
1/2-x,1/2+y,1/2+z
1/2+x,-y,1/2+z
loop_
_atom_site_type_symbol
_atom_site_label
_atom_site_fract_x
_atom_site_fract_y
_atom_site_fract_z
Si Si1 0.500000 0.918851 0.529029
Si Si2 0.278958 0.063101 0.397181
Si Si3 0.115384 0.830258 0.494904
Si Si4 0.000000 0.330316 0.763819
O O1 0.393381 0.905711 0.602866
O O2 0.500000 0.878025 0.390520
O O3 0.500000 0.000000 0.500000
O O4 0.250000 0.039202 0.250000
O O5 0.198517 0.120077 0.444817
O O6 0.275415 0.000000 0.500000
O O7 0.140201 0.750000 0.513062
O O8 0.095909 0.842086 0.336357
O O9 0.000000 0.841918 0.551097
O O10 0.000000 0.250000 0.800659
#
# Coordination Sequence:
#
# PCOD9540097 Si02
#       4
#     8  16  16   8
#     4  10  24  39  57  92 135 155 211 266 311 363
#     4  11  26  41  64  92 129 172 211 260 318 378
#     4   8  19  40  67  94 122 161 213 255 310 379
#     4   8  18  39  67  97 124 163 208 261 313 376
#
# _framework density 18.747817000000001
#
# number of rings (size 3 to 8) (size 9 to 14) (size 15 to 20)
#    1.000    1.667    0.000    0.000   11.667    2.667 
#    0.000    3.333    0.000    0.000    0.000    0.000 
#    0.000    0.000    0.000    0.000    0.000    0.000 
#
# Total GULP energy -133686.804589 kJ/mol
# GULP energy per Si atom -5570.283525 kJ/mol
# Density = 1.870515 g / cm^3
# Si number density = 18.747817 Si / 1000 Ang^3
#
#
#
# Elastic Constant Matrix: (Units=GPa)
#
#
# Indices 1 2 3 4 5 6 
#
# 1 132.5952 60.1444 57.2911 0.0000 0.0000 -0.0001
# 2 60.1444 73.8272 50.4169 0.0000 0.0000 -0.0002
# 3 57.2911 50.4169 117.3063 0.0001 0.0001 -0.0005
# 4 0.0000 0.0000 0.0001 38.6954 0.0000 -0.0002
# 5 0.0000 0.0000 0.0001 0.0000 13.8827 -0.0004
# 6 -0.0001 -0.0002 -0.0005 -0.0002 -0.0004 256.2788
#
#
#
# Elastic Compliance Matrix: (Units=1/GPa)
#
#
# Indices 1 2 3 4 5 6 
#
# 1 0.012434 -0.008468 -0.002433 0.000000 0.000000 0.000000
# 2 -0.008468 0.024939 -0.006583 0.000000 0.000000 0.000000
# 3 -0.002433 -0.006583 0.012542 0.000000 0.000000 0.000000
# 4 0.000000 0.000000 0.000000 0.025843 0.000000 0.000000
# 5 0.000000 0.000000 0.000000 0.000000 0.072032 0.000000
# 6 0.000000 0.000000 0.000000 0.000000 0.000000 0.003902
#
#
# Mechanical properties :
#
#
# Convention : Reuss Voigt Hill
#
# Bulk Modulus (GPa) = 66.90140 73.27039 70.08589
# Shear Modulus (GPa) = 26.09016 72.16314 49.12665
#
# Velocity S-wave (km/s) = 3.73451 6.21088 5.12453
# Velocity P-wave (km/s) = 7.37278 9.51842 8.51346
#
# Compressibility (1/GPa) = 0.01494737
#
# Stress axis : x y z
#
# Youngs Moduli (GPa) = 80.42392 40.09752 79.72997
#
# Poissons Ratio (x) = 0.33954 0.19400
# Poissons Ratio (y) = 0.68103 0.52486
# Poissons Ratio (z) = 0.19569 0.26396
#
# Static dielectric constant tensor:
#      x y z
#    x 1.679260 0.000000 0.000000 
#    y 0.000000 1.607980 0.000000 
#    z 0.000000 0.000000 1.652770 
# 
# From -- ./inp_files/8243.got.cif
#   From: 2010.05.17/outbox.cif.g08.bks.cpg/sg74_5_cif.got.tgz:8243.got - 2010.06.03 17:57:02.
