data_PCOD9540188
_publ_section_title
;
Structure prediction by ZEFSAII (Michael W. Deem and Ramdas Pophale) SiO2 
 PCOD9540188
Probable space group: I M M A
;
_chemical_formula_sum "Si O2"
_cell_formula_units_Z 112
_cell_length_a 14.880202
_cell_length_b 27.988592
_cell_length_c 14.947287
_cell_angle_alpha 90.000000
_cell_angle_beta 90.000000
_cell_angle_gamma 90.000000
_cell_volume 6225.184846
_symmetry_space_group_name_H-M "I M M A"
_symmetry_group_IT_number 74
_symmetry_cell_setting 'orthorhombic'
loop_
_space_group_symop_operation_xyz
x,y,z
-x,1/2-y,z
x,-y,-z
-x,1/2+y,-z
-x,-y,-z
x,1/2+y,-z
-x,y,z
x,1/2-y,z
1/2+x,1/2+y,1/2+z
1/2-x,-y,1/2+z
1/2+x,1/2-y,1/2-z
1/2-x,y,1/2-z
1/2-x,1/2-y,1/2-z
1/2+x,y,1/2-z
1/2-x,1/2+y,1/2+z
1/2+x,-y,1/2+z
loop_
_atom_site_type_symbol
_atom_site_label
_atom_site_fract_x
_atom_site_fract_y
_atom_site_fract_z
Si Si1 0.356099 0.983371 0.232304
Si Si2 0.104845 0.800981 0.194189
Si Si3 0.396613 0.044946 0.067136
Si Si4 0.168194 0.618878 0.319771
Si Si5 0.402533 0.456345 0.568772
Si Si6 0.892102 0.306870 0.012893
Si Si7 0.245975 0.616549 0.997958
O O1 0.250000 0.990713 0.250000
O O2 0.391286 0.024500 0.167915
O O3 0.374260 0.933629 0.179359
O O4 0.395461 0.976343 0.331004
O O5 0.146558 0.750000 0.219634
O O6 0.116106 0.840468 0.268453
O O7 0.130934 0.813032 0.092832
O O8 0.000000 0.795118 0.184516
O O9 0.500000 0.060532 0.048695
O O10 0.319543 0.085162 0.055848
O O11 0.376601 0.000000 0.000000
O O12 0.250000 0.611868 0.250000
O O13 0.197126 0.635540 0.417286
O O14 0.398049 0.500000 0.500000
O O15 0.500000 0.432006 0.559407
O O16 0.323356 0.420569 0.544497
O O17 0.879792 0.250000 0.033849
O O18 0.817757 0.344229 0.051517
O O19 0.000000 0.317060 0.027576
#
# Coordination Sequence:
#
# PCOD9540188 Si02
#       7
#    16  16  16  16  16  16  16
#     4  11  19  36  53  73 104 141 181 225 271 321
#     4   9  18  30  43  65  97 131 175 229 274 318
#     4  11  23  36  51  74 105 148 193 231 266 310
#     4  11  19  28  45  69  93 137 184 219 263 312
#     4  11  22  34  53  80 107 136 171 219 280 337
#     4   9  18  32  51  75 103 138 180 227 284 340
#     4  12  20  34  51  73 105 140 185 234 269 318
#
# _framework density 17.991433000000001
#
# number of rings (size 3 to 8) (size 9 to 14) (size 15 to 20)
#    0.000    1.429    5.714    3.000    0.000    3.714 
#    0.000    0.000    0.000    0.429    0.000    0.000 
#    0.000    5.143    0.000    7.571    0.000    2.000 
#
# Total GULP energy -311834.996548 kJ/mol
# GULP energy per Si atom -5568.482081 kJ/mol
# Density = 1.795048 g / cm^3
# Si number density = 17.991433 Si / 1000 Ang^3
#
#
#
# Elastic Constant Matrix: (Units=GPa)
#
#
# Indices 1 2 3 4 5 6 
#
# 1 88.9132 47.0547 19.3418 0.0000 0.0000 0.0000
# 2 47.0547 72.1528 16.3296 0.0000 0.0001 0.0001
# 3 19.3418 16.3296 26.6148 0.0001 0.0001 -0.0002
# 4 0.0000 0.0000 0.0001 25.7074 0.0002 0.0000
# 5 0.0000 0.0001 0.0001 0.0002 -3.9107 -0.0001
# 6 0.0000 0.0001 -0.0002 0.0000 -0.0001 -8.4468
#
#
#
# Elastic Compliance Matrix: (Units=1/GPa)
#
#
# Indices 1 2 3 4 5 6 
#
# 1 0.018205 -0.010310 -0.006905 0.000000 -0.000001 0.000000
# 2 -0.010310 0.021933 -0.005965 0.000000 0.000001 0.000001
# 3 -0.006905 -0.005965 0.046250 0.000000 0.000001 -0.000001
# 4 0.000000 0.000000 0.000000 0.038899 0.000002 0.000000
# 5 -0.000001 0.000001 0.000001 0.000002 -0.255711 0.000003
# 6 0.000000 0.000001 -0.000001 0.000000 0.000003 -0.118388
#
#
# Mechanical properties :
#
#
# Convention : Reuss Voigt Hill
#
# Bulk Modulus (GPa) = 24.98095 39.23700 32.10897
# Shear Modulus (GPa) = -26.43973 9.66696 -8.38638
#
# Velocity S-wave (km/s) = -3.83766 2.32051 -2.16135
# Velocity P-wave (km/s) = 2.39203 5.38848 3.41423
#
# Compressibility (1/GPa) = 0.04003051
#
# Stress axis : x y z
#
# Youngs Moduli (GPa) = 54.92957 45.59337 21.62145
#
# Poissons Ratio (x) = 0.47006 0.14929
# Poissons Ratio (y) = 0.56632 0.12896
# Poissons Ratio (z) = 0.37926 0.27194
#
# Static dielectric constant tensor:
#      x y z
#    x 1.673580 0.000000 -0.000010 
#    y 0.000000 1.672180 0.000010 
#    z -0.000010 0.000010 -7.478460 
# 
# From -- ./inp_files/32944.got.cif
#   From: 2010.05.17/outbox.cif.g08.bks.cpg/sg74_17_cif.got.tgz:32944.got - 2010.06.03 17:57:02.
