data_PCOD9540125
_publ_section_title
;
Structure prediction by ZEFSAII (Michael W. Deem and Ramdas Pophale) SiO2 
 PCOD9540125
Probable space group: I M M A
;
_chemical_formula_sum "Si O2"
_cell_formula_units_Z 64
_cell_length_a 14.072335
_cell_length_b 16.688920
_cell_length_c 12.713701
_cell_angle_alpha 90.000000
_cell_angle_beta 90.000000
_cell_angle_gamma 90.000000
_cell_volume 2985.839036
_symmetry_space_group_name_H-M "I M M A"
_symmetry_group_IT_number 74
_symmetry_cell_setting 'orthorhombic'
loop_
_space_group_symop_operation_xyz
x,y,z
-x,1/2-y,z
x,-y,-z
-x,1/2+y,-z
-x,-y,-z
x,1/2+y,-z
-x,y,z
x,1/2-y,z
1/2+x,1/2+y,1/2+z
1/2-x,-y,1/2+z
1/2+x,1/2-y,1/2-z
1/2-x,y,1/2-z
1/2-x,1/2-y,1/2-z
1/2+x,y,1/2-z
1/2-x,1/2+y,1/2+z
1/2+x,-y,1/2+z
loop_
_atom_site_type_symbol
_atom_site_label
_atom_site_fract_x
_atom_site_fract_y
_atom_site_fract_z
Si Si1 0.888162 0.381695 0.466844
Si Si2 0.887849 0.750000 0.039081
Si Si3 0.388257 0.540415 0.175631
Si Si4 0.254118 0.250000 0.127548
Si Si5 0.883889 0.434420 0.910966
O O1 0.884038 0.459267 0.391724
O O2 0.855826 0.396496 0.587377
O O3 0.814819 0.323010 0.415085
O O4 0.000000 0.356992 0.468425
O O5 0.850524 0.750000 0.920296
O O6 0.000000 0.750000 0.049098
O O7 0.858032 0.660664 0.079600
O O8 0.500000 0.558552 0.190096
O O9 0.350714 0.538116 0.294445
O O10 0.250000 0.250000 0.250000
O O11 0.000000 0.436975 0.917076
O O12 0.851143 0.500000 0.000000
#
# Coordination Sequence:
#
# PCOD9540125 Si02
#       5
#    16   8  16   8  16
#     4   9  19  39  64  90 124 161 201 254 312 373
#     4  10  24  44  61  88 127 163 207 261 308 369
#     4   8  16  35  64  94 121 159 207 250 306 376
#     4  12  27  40  55  92 124 159 214 256 315 380
#     4   9  18  35  63  93 123 166 211 252 308 368
#
# _framework density 21.434511000000001
#
# number of rings (size 3 to 8) (size 9 to 14) (size 15 to 20)
#    0.000    2.750    0.000    1.875    3.500    2.000 
#    4.500    6.250    0.000    0.000    0.000    0.000 
#    0.000    0.000    0.000    0.000    0.000    0.000 
#
# Total GULP energy -178214.226216 kJ/mol
# GULP energy per Si atom -5569.194569 kJ/mol
# Density = 2.138573 g / cm^3
# Si number density = 21.434511 Si / 1000 Ang^3
#
#
#
# Elastic Constant Matrix: (Units=GPa)
#
#
# Indices 1 2 3 4 5 6 
#
# 1 48.2487 24.3792 15.5413 0.0000 0.0000 0.0000
# 2 24.3792 94.3512 68.7390 0.0000 0.0000 0.0000
# 3 15.5413 68.7390 214.9842 0.0000 0.0000 0.0000
# 4 0.0000 0.0000 0.0000 30.1909 0.0000 0.0000
# 5 0.0000 0.0000 0.0000 0.0000 26.5932 0.0000
# 6 0.0000 0.0000 0.0000 0.0000 0.0000 30.9196
#
#
#
# Elastic Compliance Matrix: (Units=1/GPa)
#
#
# Indices 1 2 3 4 5 6 
#
# 1 0.023855 -0.006398 0.000321 0.000000 0.000000 0.000000
# 2 -0.006398 0.015533 -0.004504 0.000000 0.000000 0.000000
# 3 0.000321 -0.004504 0.006068 0.000000 0.000000 0.000000
# 4 0.000000 0.000000 0.000000 0.033123 0.000000 0.000000
# 5 0.000000 0.000000 0.000000 0.000000 0.037604 0.000000
# 6 0.000000 0.000000 0.000000 0.000000 0.000000 0.032342
#
#
# Mechanical properties :
#
#
# Convention : Reuss Voigt Hill
#
# Bulk Modulus (GPa) = 41.16022 63.87811 52.51916
# Shear Modulus (GPa) = 28.12385 34.13573 31.12979
#
# Velocity S-wave (km/s) = 3.62620 3.99502 3.81507
# Velocity P-wave (km/s) = 6.06439 7.15167 6.63036
#
# Compressibility (1/GPa) = 0.02429530
#
# Stress axis : x y z
#
# Youngs Moduli (GPa) = 41.91951 64.37807 164.78747
#
# Poissons Ratio (x) = 0.41188 -0.05292
# Poissons Ratio (y) = 0.26819 0.74222
# Poissons Ratio (z) = -0.01346 0.28996
#
# Static dielectric constant tensor:
#      x y z
#    x 1.812310 0.000000 0.000000 
#    y 0.000000 1.749620 0.000000 
#    z 0.000000 0.000000 1.748060 
# 
# From -- ./inp_files/19964.got.cif
#   From: 2010.05.17/outbox.cif.g08.bks.cpg/sg74_10_cif.got.tgz:19964.got - 2010.06.03 17:57:02.
