data_PCOD9540150
_publ_section_title
;
Structure prediction by ZEFSAII (Michael W. Deem and Ramdas Pophale) SiO2 
 PCOD9540150
Probable space group: I M M A
;
_chemical_formula_sum "Si O2"
_cell_formula_units_Z 80
_cell_length_a 19.619128
_cell_length_b 27.610608
_cell_length_c 7.521217
_cell_angle_alpha 90.000000
_cell_angle_beta 90.000000
_cell_angle_gamma 90.000000
_cell_volume 4074.213559
_symmetry_space_group_name_H-M "I M M A"
_symmetry_group_IT_number 74
_symmetry_cell_setting 'orthorhombic'
loop_
_space_group_symop_operation_xyz
x,y,z
-x,1/2-y,z
x,-y,-z
-x,1/2+y,-z
-x,-y,-z
x,1/2+y,-z
-x,y,z
x,1/2-y,z
1/2+x,1/2+y,1/2+z
1/2-x,-y,1/2+z
1/2+x,1/2-y,1/2-z
1/2-x,y,1/2-z
1/2-x,1/2-y,1/2-z
1/2+x,y,1/2-z
1/2-x,1/2+y,1/2+z
1/2+x,-y,1/2+z
loop_
_atom_site_type_symbol
_atom_site_label
_atom_site_fract_x
_atom_site_fract_y
_atom_site_fract_z
Si Si1 0.205649 0.304646 0.028834
Si Si2 0.078282 0.595438 0.458025
Si Si3 0.923021 0.445594 0.925790
Si Si4 0.144024 0.305086 0.639031
Si Si5 0.674031 0.901521 0.710917
O O1 0.199382 0.250000 0.097384
O O2 0.161498 0.307910 0.848481
O O3 0.283348 0.312620 0.961154
O O4 0.181781 0.344365 0.168495
O O5 0.090279 0.562341 0.283766
O O6 0.093786 0.651343 0.406805
O O7 0.127580 0.585350 0.621926
O O8 0.000000 0.589247 0.511895
O O9 0.000000 0.425072 0.956669
O O10 0.924653 0.500000 0.000000
O O11 0.863229 0.420824 0.036107
O O12 0.121013 0.250000 0.599750
O O13 0.750000 0.920051 0.750000
#
# Coordination Sequence:
#
# PCOD9540150 Si02
#       5
#    16  16  16  16  16
#     4   9  18  34  59  89 126 171 210 248 304 371
#     4  11  23  39  64  92 122 165 213 259 310 378
#     4  10  24  48  69  87 122 166 203 252 321 388
#     4   9  17  34  59  87 124 170 213 253 303 367
#     4  12  23  38  64  98 126 160 204 263 308 368
#
# _framework density 19.63569
#
# number of rings (size 3 to 8) (size 9 to 14) (size 15 to 20)
#    0.000    1.800    4.000    1.800    0.000    3.200 
#    3.600    3.000    0.000    1.800    0.000    0.000 
#    0.000    0.000    0.000    0.000    0.000    0.000 
#
# Total GULP energy -223265.009250 kJ/mol
# GULP energy per Si atom -5581.625231 kJ/mol
# Density = 1.959100 g / cm^3
# Si number density = 19.635690 Si / 1000 Ang^3
#
#
#
# Elastic Constant Matrix: (Units=GPa)
#
#
# Indices 1 2 3 4 5 6 
#
# 1 115.8463 19.2018 62.6857 0.0000 0.0000 0.0000
# 2 19.2018 42.9368 11.3689 0.0000 0.0000 0.0000
# 3 62.6857 11.3689 101.8001 0.0000 0.0000 0.0000
# 4 0.0000 0.0000 0.0000 18.8977 0.0000 0.0000
# 5 0.0000 0.0000 0.0000 0.0000 40.8681 0.0000
# 6 0.0000 0.0000 0.0000 0.0000 0.0000 11.1962
#
#
#
# Elastic Compliance Matrix: (Units=1/GPa)
#
#
# Indices 1 2 3 4 5 6 
#
# 1 0.013573 -0.003975 -0.007914 0.000000 0.000000 0.000000
# 2 -0.003975 0.025164 -0.000363 0.000000 0.000000 0.000000
# 3 -0.007914 -0.000363 0.014737 0.000000 0.000000 0.000000
# 4 0.000000 0.000000 0.000000 0.052917 0.000000 0.000000
# 5 0.000000 0.000000 0.000000 0.000000 0.024469 0.000000
# 6 0.000000 0.000000 0.000000 0.000000 0.000000 0.089316
#
#
# Mechanical properties :
#
#
# Convention : Reuss Voigt Hill
#
# Bulk Modulus (GPa) = 34.51754 49.67733 42.09743
# Shear Modulus (GPa) = 19.65903 25.34751 22.50327
#
# Velocity S-wave (km/s) = 3.16759 3.59679 3.38899
# Velocity P-wave (km/s) = 5.56734 6.52715 6.06626
#
# Compressibility (1/GPa) = 0.02897078
#
# Stress axis : x y z
#
# Youngs Moduli (GPa) = 73.67333 39.73995 67.85608
#
# Poissons Ratio (x) = 0.15795 0.53703
# Poissons Ratio (y) = 0.29283 0.02461
# Poissons Ratio (z) = 0.58307 0.01442
#
# Static dielectric constant tensor:
#      x y z
#    x 1.675680 0.000000 0.000000 
#    y 0.000000 1.707970 0.000000 
#    z 0.000000 0.000000 1.701650 
# 
# From -- ./inp_files/10890.got.cif
#   From: 2010.05.17/outbox.cif.g08.bks.cpg/sg74_6_cif.got.tgz:10890.got - 2010.06.03 17:57:02.
