data_PCOD9540082
_publ_section_title
;
Structure prediction by ZEFSAII (Michael W. Deem and Ramdas Pophale) SiO2 
 PCOD9540082
Probable space group: I M M A
;
_chemical_formula_sum "Si O2"
_cell_formula_units_Z 64
_cell_length_a 15.573194
_cell_length_b 8.684707
_cell_length_c 25.263596
_cell_angle_alpha 90.000000
_cell_angle_beta 90.000000
_cell_angle_gamma 90.000000
_cell_volume 3416.866671
_symmetry_space_group_name_H-M "I M M A"
_symmetry_group_IT_number 74
_symmetry_cell_setting 'orthorhombic'
loop_
_space_group_symop_operation_xyz
x,y,z
-x,1/2-y,z
x,-y,-z
-x,1/2+y,-z
-x,-y,-z
x,1/2+y,-z
-x,y,z
x,1/2-y,z
1/2+x,1/2+y,1/2+z
1/2-x,-y,1/2+z
1/2+x,1/2-y,1/2-z
1/2-x,y,1/2-z
1/2-x,1/2-y,1/2-z
1/2+x,y,1/2-z
1/2-x,1/2+y,1/2+z
1/2+x,-y,1/2+z
loop_
_atom_site_type_symbol
_atom_site_label
_atom_site_fract_x
_atom_site_fract_y
_atom_site_fract_z
Si Si1 0.284679 0.000000 0.500000
Si Si2 0.598801 0.750000 0.444989
Si Si3 0.700313 0.929945 0.694582
Si Si4 0.598365 0.750000 0.318022
Si Si5 0.500000 0.428672 0.941249
Si Si6 0.669091 0.922323 0.901548
O O1 0.347794 0.891152 0.467635
O O2 0.223397 0.925866 0.544105
O O3 0.500000 0.750000 0.463047
O O4 0.599486 0.750000 0.381875
O O5 0.666044 0.750000 0.686071
O O6 0.750000 0.924402 0.750000
O O7 0.766886 0.960665 0.646467
O O8 0.640622 0.083711 0.697099
O O9 0.500000 0.750000 0.299249
O O10 0.500000 0.250000 0.949976
O O11 0.414042 0.474205 0.909980
O O12 0.500000 0.500000 0.000000
O O13 0.637145 0.750000 0.891974
#
# Coordination Sequence:
#
# PCOD9540082 Si02
#       6
#     8   8  16   8   8  16
#     4  12  21  37  62  86 124 164 202 247 319 378
#     4  11  24  39  59  93 128 161 213 259 311 384
#     4  10  23  45  69  93 127 174 222 268 324 390
#     4  11  23  41  67  99 132 167 215 274 320 383
#     4  12  26  38  60  94 130 162 206 261 318 393
#     4  11  23  40  63  88 121 165 207 257 317 382
#
# _framework density 18.730609999999999
#
# number of rings (size 3 to 8) (size 9 to 14) (size 15 to 20)
#    0.000    1.000    5.000    1.875    3.500    0.500 
#    2.250    0.000    0.000    0.000    0.000    0.000 
#    0.000    0.000    0.000    0.000    0.000    0.000 
#
# Total GULP energy -178358.171382 kJ/mol
# GULP energy per Si atom -5573.692856 kJ/mol
# Density = 1.868798 g / cm^3
# Si number density = 18.730610 Si / 1000 Ang^3
#
#
#
# Elastic Constant Matrix: (Units=GPa)
#
#
# Indices 1 2 3 4 5 6 
#
# 1 105.9347 81.3858 23.9035 0.0000 0.0000 0.0000
# 2 81.3858 166.8598 18.0071 0.0000 0.0000 0.0000
# 3 23.9035 18.0071 82.4310 0.0000 0.0000 0.0000
# 4 0.0000 0.0000 0.0000 26.0114 0.0000 0.0000
# 5 0.0000 0.0000 0.0000 0.0000 15.1921 0.0000
# 6 0.0000 0.0000 0.0000 0.0000 0.0000 29.2614
#
#
#
# Elastic Compliance Matrix: (Units=1/GPa)
#
#
# Indices 1 2 3 4 5 6 
#
# 1 0.015773 -0.007374 -0.002963 0.000000 0.000000 0.000000
# 2 -0.007374 0.009585 0.000044 0.000000 0.000000 0.000000
# 3 -0.002963 0.000044 0.012981 0.000000 0.000000 0.000000
# 4 0.000000 0.000000 0.000000 0.038445 0.000000 0.000000
# 5 0.000000 0.000000 0.000000 0.000000 0.065824 0.000000
# 6 0.000000 0.000000 0.000000 0.000000 0.000000 0.034175
#
#
# Mechanical properties :
#
#
# Convention : Reuss Voigt Hill
#
# Bulk Modulus (GPa) = 56.32479 66.86867 61.59673
# Shear Modulus (GPa) = 24.59601 29.55491 27.07546
#
# Velocity S-wave (km/s) = 3.62767 3.97658 3.80612
# Velocity P-wave (km/s) = 6.90528 7.54069 7.22997
#
# Compressibility (1/GPa) = 0.01775417
#
# Stress axis : x y z
#
# Youngs Moduli (GPa) = 63.39829 104.33244 77.03609
#
# Poissons Ratio (x) = 0.76931 0.22827
# Poissons Ratio (y) = 0.46748 -0.00342
# Poissons Ratio (z) = 0.18786 -0.00464
#
# Static dielectric constant tensor:
#      x y z
#    x 1.632860 0.000000 0.000000 
#    y 0.000000 1.708350 0.000000 
#    z 0.000000 0.000000 1.629560 
# 
# From -- ./inp_files/56498.got.cif
#   From: 2010.05.17/outbox.cif.g08.bks.cpg/sg74_29_cif.got.tgz:56498.got - 2010.06.03 17:57:02.
