data_PCOD9540380
_publ_section_title
;
Structure prediction by ZEFSAII (Michael W. Deem and Ramdas Pophale) SiO2 
 PCOD9540380
Probable space group: I M M A
;
_chemical_formula_sum "Si O2"
_cell_formula_units_Z 56
_cell_length_a 14.459659
_cell_length_b 19.350696
_cell_length_c 11.026522
_cell_angle_alpha 90.000000
_cell_angle_beta 90.000000
_cell_angle_gamma 90.000000
_cell_volume 3085.270095
_symmetry_space_group_name_H-M "I M M A"
_symmetry_group_IT_number 74
_symmetry_cell_setting 'orthorhombic'
loop_
_space_group_symop_operation_xyz
x,y,z
-x,1/2-y,z
x,-y,-z
-x,1/2+y,-z
-x,-y,-z
x,1/2+y,-z
-x,y,z
x,1/2-y,z
1/2+x,1/2+y,1/2+z
1/2-x,-y,1/2+z
1/2+x,1/2-y,1/2-z
1/2-x,y,1/2-z
1/2-x,1/2-y,1/2-z
1/2+x,y,1/2-z
1/2-x,1/2+y,1/2+z
1/2+x,-y,1/2+z
loop_
_atom_site_type_symbol
_atom_site_label
_atom_site_fract_x
_atom_site_fract_y
_atom_site_fract_z
Si Si1 0.000000 0.493134 0.644951
Si Si2 0.151350 0.750000 0.688267
Si Si3 0.500000 0.858514 0.728261
Si Si4 0.641115 0.616723 0.244477
Si Si5 0.500000 0.166036 0.556754
Si Si6 0.107445 0.250000 0.578375
O O1 0.000000 0.500000 0.500000
O O2 0.000000 0.566761 0.710825
O O3 0.912247 0.448305 0.688407
O O4 0.250000 0.750000 0.750000
O O5 0.089529 0.815626 0.727311
O O6 0.164808 0.750000 0.544179
O O7 0.500000 0.858221 0.582142
O O8 0.750000 0.604273 0.250000
O O9 0.589217 0.637398 0.369700
O O10 0.625419 0.682643 0.157890
O O11 0.500000 0.250000 0.560636
O O12 0.000000 0.250000 0.540859
#
# Coordination Sequence:
#
# PCOD9540380 Si02
#       6
#     8   8   8  16   8   8
#     4  11  24  48  64  87 133 173 209 259 314 376
#     4  11  25  39  64  98 120 162 216 266 320 371
#     4  11  24  42  64  90 132 167 199 262 324 371
#     4  11  24  39  67  96 121 169 213 258 313 374
#     4  11  21  41  64  94 132 158 204 264 323 369
#     4  12  19  40  66  92 125 166 218 262 312 382
#
# _framework density 18.150760999999999
#
# number of rings (size 3 to 8) (size 9 to 14) (size 15 to 20)
#    0.000    0.857    7.143    2.143    4.000    3.429 
#    5.143    0.000    0.000    0.000    0.000    0.000 
#    0.000    0.000    0.000    0.000    0.000    0.000 
#
# Total GULP energy -156504.067759 kJ/mol
# GULP energy per Si atom -5589.430991 kJ/mol
# Density = 1.810945 g / cm^3
# Si number density = 18.150761 Si / 1000 Ang^3
#
#
#
# Elastic Constant Matrix: (Units=GPa)
#
#
# Indices 1 2 3 4 5 6 
#
# 1 127.5915 71.6666 22.4287 0.0000 0.0000 0.0000
# 2 71.6666 181.1784 80.7208 0.0000 0.0000 0.0000
# 3 22.4287 80.7208 153.8037 0.0000 0.0000 0.0000
# 4 0.0000 0.0000 0.0000 26.6407 0.0000 0.0000
# 5 0.0000 0.0000 0.0000 0.0000 11.2158 0.0000
# 6 0.0000 0.0000 0.0000 0.0000 0.0000 3.0027
#
#
#
# Elastic Compliance Matrix: (Units=1/GPa)
#
#
# Indices 1 2 3 4 5 6 
#
# 1 0.010155 -0.004382 0.000819 0.000000 0.000000 0.000000
# 2 -0.004382 0.009094 -0.004134 0.000000 0.000000 0.000000
# 3 0.000819 -0.004134 0.008552 0.000000 0.000000 0.000000
# 4 0.000000 0.000000 0.000000 0.037537 0.000000 0.000000
# 5 0.000000 0.000000 0.000000 0.000000 0.089160 0.000000
# 6 0.000000 0.000000 0.000000 0.000000 0.000000 0.333031
#
#
# Mechanical properties :
#
#
# Convention : Reuss Voigt Hill
#
# Bulk Modulus (GPa) = 80.59696 90.24510 85.42103
# Shear Modulus (GPa) = 9.86080 27.35566 18.60823
#
# Velocity S-wave (km/s) = 2.33335 3.88640 3.20535
# Velocity P-wave (km/s) = 7.19444 8.36459 7.80149
#
# Compressibility (1/GPa) = 0.01240742
#
# Stress axis : x y z
#
# Youngs Moduli (GPa) = 98.47712 109.95729 116.93043
#
# Poissons Ratio (x) = 0.48178 -0.09574
# Poissons Ratio (y) = 0.43148 0.48340
# Poissons Ratio (z) = -0.08063 0.45457
#
# Static dielectric constant tensor:
#      x y z
#    x 1.637510 0.000000 0.000000 
#    y 0.000000 1.593770 0.000000 
#    z 0.000000 0.000000 1.614890 
# 
# From -- ./inp_files/19860.got.cif
#   From: 2010.05.17/outbox.cif.g08.bks.cpg/sg74_10_cif.got.tgz:19860.got - 2010.06.03 17:57:02.
