data_PCOD9540714
_publ_section_title
;
Structure prediction by ZEFSAII (Michael W. Deem and Ramdas Pophale) SiO2 
 PCOD9540714
Probable space group: I M M A
;
_chemical_formula_sum "Si O2"
_cell_formula_units_Z 96
_cell_length_a 7.340712
_cell_length_b 25.222646
_cell_length_c 25.010436
_cell_angle_alpha 90.000000
_cell_angle_beta 90.000000
_cell_angle_gamma 90.000000
_cell_volume 4630.736752
_symmetry_space_group_name_H-M "I M M A"
_symmetry_group_IT_number 74
_symmetry_cell_setting 'orthorhombic'
loop_
_space_group_symop_operation_xyz
x,y,z
-x,1/2-y,z
x,-y,-z
-x,1/2+y,-z
-x,-y,-z
x,1/2+y,-z
-x,y,z
x,1/2-y,z
1/2+x,1/2+y,1/2+z
1/2-x,-y,1/2+z
1/2+x,1/2-y,1/2-z
1/2-x,y,1/2-z
1/2-x,1/2-y,1/2-z
1/2+x,y,1/2-z
1/2-x,1/2+y,1/2+z
1/2+x,-y,1/2+z
loop_
_atom_site_type_symbol
_atom_site_label
_atom_site_fract_x
_atom_site_fract_y
_atom_site_fract_z
Si Si1 0.722175 0.018617 0.104102
Si Si2 0.277426 0.897761 0.102321
Si Si3 0.783470 0.394438 0.312263
Si Si4 0.782409 0.310413 0.687796
Si Si5 0.278608 0.103683 0.019527
Si Si6 0.222114 0.690164 0.606393
O O1 0.500000 0.017462 0.102963
O O2 0.783360 0.056158 0.152657
O O3 0.777136 0.049229 0.049549
O O4 0.780423 0.958400 0.112411
O O5 0.500000 0.896889 0.103612
O O6 0.215264 0.854333 0.145616
O O7 0.220340 0.887618 0.041122
O O8 0.750000 0.398334 0.250000
O O9 0.718617 0.340306 0.339957
O O10 0.000000 0.394779 0.319750
O O11 0.713059 0.250000 0.679448
O O12 0.750000 0.324711 0.750000
O O13 0.000000 0.308091 0.680931
O O14 0.500000 0.102257 0.018729
O O15 0.224024 0.152181 0.057578
O O16 0.286710 0.750000 0.602463
O O17 0.000000 0.691791 0.605885
#
# Coordination Sequence:
#
# PCOD9540714 Si02
#       6
#    16  16  16  16  16  16
#     4   8  14  24  37  56  83 109 131 161 204 246
#     4   9  15  23  39  61  82 106 135 165 198 240
#     4   9  17  28  41  58  81 109 139 169 200 235
#     4   9  18  31  44  60  84 110 135 166 202 237
#     4   8  13  21  35  57  84 109 130 159 203 247
#     4   8  14  24  37  55  81 109 133 162 204 246
#
# _framework density 20.731043
#
# number of rings (size 3 to 8) (size 9 to 14) (size 15 to 20)
#    0.000    3.500    0.000    2.500    0.000    3.667 
#    0.000    3.333    0.000    0.000    0.000    4.667 
#    0.000    6.667    0.000    0.000    0.000    0.000 
#
# Total GULP energy -267656.547899 kJ/mol
# GULP energy per Si atom -5576.178081 kJ/mol
# Density = 2.068386 g / cm^3
# Si number density = 20.731043 Si / 1000 Ang^3
#
#
#
# Elastic Constant Matrix: (Units=GPa)
#
#
# Indices 1 2 3 4 5 6 
#
# 1 77.1203 9.8880 -1.8888 0.0000 0.0000 0.0000
# 2 9.8880 245.6024 100.5366 0.0000 0.0000 0.0000
# 3 -1.8888 100.5366 218.8410 0.0000 0.0000 0.0000
# 4 0.0000 0.0000 0.0000 24.7442 0.0000 0.0000
# 5 0.0000 0.0000 0.0000 0.0000 11.6927 0.0000
# 6 0.0000 0.0000 0.0000 0.0000 0.0000 -9.9964
#
#
#
# Elastic Compliance Matrix: (Units=1/GPa)
#
#
# Indices 1 2 3 4 5 6 
#
# 1 0.013068 -0.000705 0.000437 0.000000 0.000000 0.000000
# 2 -0.000705 0.005053 -0.002327 0.000000 0.000000 0.000000
# 3 0.000437 -0.002327 0.005642 0.000000 0.000000 0.000000
# 4 0.000000 0.000000 0.000000 0.040413 0.000000 0.000000
# 5 0.000000 0.000000 0.000000 0.000000 0.085523 0.000000
# 6 0.000000 0.000000 0.000000 0.000000 0.000000 -0.100036
#
#
# Mechanical properties :
#
#
# Convention : Reuss Voigt Hill
#
# Bulk Modulus (GPa) = 53.84485 84.29280 69.06882
# Shear Modulus (GPa) = 81.90632 34.15664 58.03148
#
# Velocity S-wave (km/s) = 6.29244 4.06348 5.29654
# Velocity P-wave (km/s) = 8.87820 7.92239 8.41388
#
# Compressibility (1/GPa) = 0.01857188
#
# Stress axis : x y z
#
# Youngs Moduli (GPa) = 76.52384 197.91509 177.22736
#
# Poissons Ratio (x) = 0.13950 -0.07738
# Poissons Ratio (y) = 0.05394 0.41246
# Poissons Ratio (z) = -0.03341 0.46061
#
# Static dielectric constant tensor:
#      x y z
#    x 1.831890 0.000000 0.000000 
#    y 0.000000 1.722860 0.000000 
#    z 0.000000 0.000000 1.724490 
# 
# From -- ./inp_files/50900.got.cif
#   From: 2010.05.17/outbox.cif.g08.bks.cpg/sg74_26_cif.got.tgz:50900.got - 2010.06.03 17:57:02.
