data_PCOD9540456
_publ_section_title
;
Structure prediction by ZEFSAII (Michael W. Deem and Ramdas Pophale) SiO2 
 PCOD9540456
Probable space group: I M M A
;
_chemical_formula_sum "Si O2"
_cell_formula_units_Z 56
_cell_length_a 14.576395
_cell_length_b 8.337964
_cell_length_c 21.443691
_cell_angle_alpha 90.000000
_cell_angle_beta 90.000000
_cell_angle_gamma 90.000000
_cell_volume 2606.211668
_symmetry_space_group_name_H-M "I M M A"
_symmetry_group_IT_number 74
_symmetry_cell_setting 'orthorhombic'
loop_
_space_group_symop_operation_xyz
x,y,z
-x,1/2-y,z
x,-y,-z
-x,1/2+y,-z
-x,-y,-z
x,1/2+y,-z
-x,y,z
x,1/2-y,z
1/2+x,1/2+y,1/2+z
1/2-x,-y,1/2+z
1/2+x,1/2-y,1/2-z
1/2-x,y,1/2-z
1/2-x,1/2-y,1/2-z
1/2+x,y,1/2-z
1/2-x,1/2+y,1/2+z
1/2+x,-y,1/2+z
loop_
_atom_site_type_symbol
_atom_site_label
_atom_site_fract_x
_atom_site_fract_y
_atom_site_fract_z
Si Si1 0.698455 0.558999 0.067508
Si Si2 0.500000 0.054146 0.759132
Si Si3 0.500000 0.559016 0.431341
Si Si4 0.156068 0.444109 0.837420
Si Si5 0.500000 0.939479 0.900392
O O1 0.708730 0.750000 0.067096
O O2 0.747619 0.500756 0.132303
O O3 0.592516 0.512103 0.071593
O O4 0.735449 0.500000 0.000000
O O5 0.500000 0.250000 0.761508
O O6 0.594227 0.005765 0.722244
O O7 0.500000 0.982365 0.827292
O O8 0.500000 0.750000 0.429926
O O9 0.500000 0.500000 0.500000
O O10 0.411159 0.509199 0.393697
O O11 0.162831 0.250000 0.830340
O O12 0.500000 0.750000 0.910308
#
# Coordination Sequence:
#
# PCOD9540456 Si02
#       5
#    16   8   8  16   8
#     4  11  22  39  61  87 115 150 191 235 283 337
#     4   9  18  39  64  87 114 151 192 228 271 339
#     4   9  15  27  47  77 112 145 177 218 268 327
#     4   8  17  33  57  84 113 146 184 225 274 334
#     4  12  26  42  57  80 113 152 194 244 292 334
#
# _framework density 21.487127999999998
#
# number of rings (size 3 to 8) (size 9 to 14) (size 15 to 20)
#    0.000    2.286    0.000    5.143    0.000    1.143 
#    0.000   12.857    0.000    0.000    0.000    0.000 
#    0.000    0.000    0.000    0.000    0.000    0.000 
#
# Total GULP energy -155998.900356 kJ/mol
# GULP energy per Si atom -5571.389298 kJ/mol
# Density = 2.143822 g / cm^3
# Si number density = 21.487128 Si / 1000 Ang^3
#
#
#
# Elastic Constant Matrix: (Units=GPa)
#
#
# Indices 1 2 3 4 5 6 
#
# 1 88.5734 3.3274 12.0992 0.0000 0.0000 0.0000
# 2 3.3274 26.9583 5.6790 0.0000 0.0000 0.0000
# 3 12.0992 5.6790 101.3391 0.0000 0.0000 0.0000
# 4 0.0000 0.0000 0.0000 33.0214 0.0000 0.0000
# 5 0.0000 0.0000 0.0000 0.0000 56.5731 0.0000
# 6 0.0000 0.0000 0.0000 0.0000 0.0000 9.0143
#
#
#
# Elastic Compliance Matrix: (Units=1/GPa)
#
#
# Indices 1 2 3 4 5 6 
#
# 1 0.011512 -0.001145 -0.001310 0.000000 0.000000 0.000000
# 2 -0.001145 0.037651 -0.001973 0.000000 0.000000 0.000000
# 3 -0.001310 -0.001973 0.010135 0.000000 0.000000 0.000000
# 4 0.000000 0.000000 0.000000 0.030283 0.000000 0.000000
# 5 0.000000 0.000000 0.000000 0.000000 0.017676 0.000000
# 6 0.000000 0.000000 0.000000 0.000000 0.000000 0.110935
#
#
# Mechanical properties :
#
#
# Convention : Reuss Voigt Hill
#
# Bulk Modulus (GPa) = 19.82499 28.78686 24.30593
# Shear Modulus (GPa) = 20.50329 32.77277 26.63803
#
# Velocity S-wave (km/s) = 3.09238 3.90965 3.52479
# Velocity P-wave (km/s) = 4.69009 5.81437 5.28223
#
# Compressibility (1/GPa) = 0.05044138
#
# Stress axis : x y z
#
# Youngs Moduli (GPa) = 86.86535 26.55950 98.66911
#
# Poissons Ratio (x) = 0.03041 0.12929
# Poissons Ratio (y) = 0.09945 0.19470
# Poissons Ratio (z) = 0.11382 0.05241
#
# Static dielectric constant tensor:
#      x y z
#    x 1.918590 0.000000 0.000000 
#    y 0.000000 1.789580 0.000000 
#    z 0.000000 0.000000 1.791440 
# 
# From -- ./inp_files/47872.got.cif
#   From: 2010.05.17/outbox.cif.g08.bks.cpg/sg74_24_cif.got.tgz:47872.got - 2010.06.03 17:57:02.
