data_PCOD9540974
_publ_section_title
;
Structure prediction by ZEFSAII (Michael W. Deem and Ramdas Pophale) SiO2 
 PCOD9540974
Probable space group: I M M A
;
_chemical_formula_sum "Si O2"
_cell_formula_units_Z 28
_cell_length_a 15.000000
_cell_length_b 30.000000
_cell_length_c 6.000000
_cell_angle_alpha 90.000000
_cell_angle_beta 90.000000
_cell_angle_gamma 90.000000
_cell_volume 2700.000000
_symmetry_space_group_name_H-M "I M M A"
_symmetry_group_IT_number 74
_symmetry_cell_setting 'orthorhombic'
loop_
_space_group_symop_operation_xyz
x,y,z
-x,1/2-y,z
x,-y,-z
-x,1/2+y,-z
-x,-y,-z
x,1/2+y,-z
-x,y,z
x,1/2-y,z
1/2+x,1/2+y,1/2+z
1/2-x,-y,1/2+z
1/2+x,1/2-y,1/2-z
1/2-x,y,1/2-z
1/2-x,1/2-y,1/2-z
1/2+x,y,1/2-z
1/2-x,1/2+y,1/2+z
1/2+x,-y,1/2+z
loop_
_atom_site_type_symbol
_atom_site_label
_atom_site_fract_x
_atom_site_fract_y
_atom_site_fract_z
Si Si1 0.895969 0.117339 0.086035
Si Si2 0.750000 0.348160 0.750000
Si Si3 0.896913 0.802432 0.561346
Si Si4 0.393446 0.981424 0.750597
O O1 0.891351 0.162255 0.235451
O O2 0.879967 0.072210 0.229915
O O3 0.000000 0.113884 0.001996
O O4 0.818040 0.122758 0.902523
O O5 0.818633 0.317853 0.605813
O O6 0.885364 0.750000 0.622121
O O7 0.000000 0.806580 0.472903
O O8 0.500000 0.990356 0.752023
O O9 0.362871 0.000000 0.500000
O O10 0.362102 0.000000 0.000000
#
# Coordination Sequence:
#
# PCOD9540974 Si02
#       4
#    16   8  16  16
#     4  10  23  41  66  97 134 179 229 283 342 416
#     4  12  23  38  66  98 134 174 222 282 349 414
#     4  10  23  43  66  93 129 174 225 281 345 419
#     4   9  19  37  67 100 131 175 228 280 341 407
#
# _framework density 10.370369999999999
#
# number of rings (size 3 to 8) (size 9 to 14) (size 15 to 20)
#    0.000    2.000    0.000    2.143    4.000    3.429 
#    0.000    2.857    6.286    0.000    0.000    0.000 
#    0.000    1.143    0.000    0.000    0.000    0.000 
#
# Total GULP energy -156207.405970 kJ/mol
# GULP energy per Si atom -5578.835927 kJ/mol
# Density = 1.034677 g / cm^3
# Si number density = 10.370370 Si / 1000 Ang^3
#
#
#
# Elastic Constant Matrix: (Units=GPa)
#
#
# Indices 1 2 3 4 5 6 
#
# 1 143.5162 38.0719 59.8096 -0.0132 0.0002 -0.0025
# 2 38.0719 150.5609 66.9809 0.0418 -0.0057 -0.0103
# 3 59.8096 66.9809 133.1221 0.1304 -0.0555 -0.0068
# 4 -0.0132 0.0418 0.1304 38.4776 -0.0134 -0.0322
# 5 0.0002 -0.0057 -0.0555 -0.0134 47.0540 0.0138
# 6 -0.0025 -0.0103 -0.0068 -0.0322 0.0138 5.4571
#
#
#
# Elastic Compliance Matrix: (Units=1/GPa)
#
#
# Indices 1 2 3 4 5 6 
#
# 1 0.008613 -0.000588 -0.003574 0.000016 -0.000004 -0.000002
# 2 -0.000588 0.008597 -0.004062 0.000004 -0.000004 0.000011
# 3 -0.003574 -0.004062 0.011161 -0.000035 0.000013 0.000004
# 4 0.000016 0.000004 -0.000035 0.025989 0.000007 0.000153
# 5 -0.000004 -0.000004 0.000013 0.000007 0.021252 -0.000054
# 6 -0.000002 0.000011 0.000004 0.000153 -0.000054 0.183250
#
#
# Mechanical properties :
#
#
# Convention : Reuss Voigt Hill
#
# Bulk Modulus (GPa) = 83.85931 84.10267 83.98099
# Shear Modulus (GPa) = 17.90281 35.68684 26.79482
#
# Velocity S-wave (km/s) = 2.94116 4.15253 3.59819
# Velocity P-wave (km/s) = 7.21484 7.97677 7.60535
#
# Compressibility (1/GPa) = 0.01192473
#
# Stress axis : x y z
#
# Youngs Moduli (GPa) = 116.09990 116.31342 89.59547
#
# Poissons Ratio (x) = 0.06840 0.32021
# Poissons Ratio (y) = 0.06827 0.36390
# Poissons Ratio (z) = 0.41493 0.47242
#
# Static dielectric constant tensor:
#      x y z
#    x 1.757060 0.000000 0.000010 
#    y 0.000000 1.733170 -0.000010 
#    z 0.000010 -0.000010 1.787300 
# 
# From -- ./inp_files/1471.got.cif
#   From: 2010.05.17/outbox.ucp.g08.bks.cvg/sg74_1_cif.got.tgz:1471.got - 2010.06.11 16:37:44.
