data_PCOD9540386
_publ_section_title
;
Structure prediction by ZEFSAII (Michael W. Deem and Ramdas Pophale) SiO2 
 PCOD9540386
Probable space group: I M M A
;
_chemical_formula_sum "Si O2"
_cell_formula_units_Z 88
_cell_length_a 16.853644
_cell_length_b 12.287208
_cell_length_c 18.325777
_cell_angle_alpha 90.000000
_cell_angle_beta 90.000000
_cell_angle_gamma 90.000000
_cell_volume 3794.979408
_symmetry_space_group_name_H-M "I M M A"
_symmetry_group_IT_number 74
_symmetry_cell_setting 'orthorhombic'
loop_
_space_group_symop_operation_xyz
x,y,z
-x,1/2-y,z
x,-y,-z
-x,1/2+y,-z
-x,-y,-z
x,1/2+y,-z
-x,y,z
x,1/2-y,z
1/2+x,1/2+y,1/2+z
1/2-x,-y,1/2+z
1/2+x,1/2-y,1/2-z
1/2-x,y,1/2-z
1/2-x,1/2-y,1/2-z
1/2+x,y,1/2-z
1/2-x,1/2+y,1/2+z
1/2+x,-y,1/2+z
loop_
_atom_site_type_symbol
_atom_site_label
_atom_site_fract_x
_atom_site_fract_y
_atom_site_fract_z
Si Si1 0.092292 0.870324 0.682998
Si Si2 0.093504 0.750000 0.237716
Si Si3 0.500000 0.375270 0.963077
Si Si4 0.351248 0.593111 0.142951
Si Si5 0.908216 0.750000 0.062369
Si Si6 0.908265 0.875098 0.858877
Si Si7 0.800867 0.443170 0.931618
O O1 0.115640 0.750000 0.659229
O O2 0.095130 0.875099 0.770637
O O3 0.000000 0.889673 0.662776
O O4 0.145470 0.963476 0.650255
O O5 0.130619 0.646916 0.279062
O O6 0.099948 0.750000 0.151054
O O7 0.000000 0.750000 0.254514
O O8 0.500000 0.250000 0.999194
O O9 0.421365 0.374818 0.912337
O O10 0.500000 0.500000 0.000000
O O11 0.264526 0.620083 0.114516
O O12 0.864835 0.641398 0.037459
O O13 0.000000 0.750000 0.043391
O O14 0.891487 0.750000 0.881528
O O15 0.000000 0.900968 0.878993
O O16 0.848358 0.965733 0.887064
O O17 0.758770 0.500000 0.000000
#
# Coordination Sequence:
#
# PCOD9540386 Si02
#       7
#    16   8   8  16   8  16  16
#     4   9  18  35  64 100 134 165 221 281 338 419
#     4  11  21  43  77 103 132 164 233 296 346 417
#     4  12  26  46  70 102 138 202 250 276 339 433
#     4  12  22  42  68  97 137 181 219 285 350 400
#     4  11  27  47  73 104 129 176 228 291 357 411
#     4   9  20  41  67  95 128 172 218 280 356 410
#     4  12  28  44  61  95 138 177 230 282 332 416
#
# _framework density 23.188531000000001
#
# number of rings (size 3 to 8) (size 9 to 14) (size 15 to 20)
#    0.000    1.273    2.727    3.818    1.273    9.455 
#    0.000    1.818    0.000    0.000    0.000    0.000 
#    0.000    0.000    0.000    0.000    0.000    0.000 
#
# Total GULP energy -246141.353369 kJ/mol
# GULP energy per Si atom -5594.121667 kJ/mol
# Density = 2.313575 g / cm^3
# Si number density = 23.188531 Si / 1000 Ang^3
#
#
#
# Elastic Constant Matrix: (Units=GPa)
#
#
# Indices 1 2 3 4 5 6 
#
# 1 100.3169 29.6976 10.0762 0.0000 0.0000 0.0000
# 2 29.6976 124.6536 13.6259 0.0000 0.0000 0.0000
# 3 10.0762 13.6259 51.9538 0.0000 0.0000 0.0000
# 4 0.0000 0.0000 0.0000 35.8693 0.0000 0.0000
# 5 0.0000 0.0000 0.0000 0.0000 19.9071 0.0000
# 6 0.0000 0.0000 0.0000 0.0000 0.0000 -18.8425
#
#
#
# Elastic Compliance Matrix: (Units=1/GPa)
#
#
# Indices 1 2 3 4 5 6 
#
# 1 0.010832 -0.002420 -0.001466 0.000000 0.000000 0.000000
# 2 -0.002420 0.008800 -0.001839 0.000000 0.000000 0.000000
# 3 -0.001466 -0.001839 0.020014 0.000000 0.000000 0.000000
# 4 0.000000 0.000000 0.000000 0.027879 0.000000 0.000000
# 5 0.000000 0.000000 0.000000 0.000000 0.050233 0.000000
# 6 0.000000 0.000000 0.000000 0.000000 0.000000 -0.053071
#
#
# Mechanical properties :
#
#
# Convention : Reuss Voigt Hill
#
# Bulk Modulus (GPa) = 35.46541 42.63596 39.05068
# Shear Modulus (GPa) = 58.45483 22.28841 40.37162
#
# Velocity S-wave (km/s) = 5.02625 3.10366 4.17708
# Velocity P-wave (km/s) = 7.00085 5.59197 6.33569
#
# Compressibility (1/GPa) = 0.02819649
#
# Stress axis : x y z
#
# Youngs Moduli (GPa) = 92.31732 113.63847 49.96406
#
# Poissons Ratio (x) = 0.27505 0.07325
# Poissons Ratio (y) = 0.22345 0.09186
# Poissons Ratio (z) = 0.13534 0.20892
#
# Static dielectric constant tensor:
#      x y z
#    x 1.811160 0.000000 0.000000 
#    y 0.000000 1.906820 0.000000 
#    z 0.000000 0.000000 1.866580 
# 
# From -- ./inp_files/52898.got.cif
#   From: 2010.05.17/outbox.cif.g08.bks.cpg/sg74_27_cif.got.tgz:52898.got - 2010.06.03 17:57:02.
