data_PCOD9540118
_publ_section_title
;
Structure prediction by ZEFSAII (Michael W. Deem and Ramdas Pophale) SiO2 
 PCOD9540118
Probable space group: I M M A
;
_chemical_formula_sum "Si O2"
_cell_formula_units_Z 48
_cell_length_a 9.302210
_cell_length_b 30.093562
_cell_length_c 7.288001
_cell_angle_alpha 90.000000
_cell_angle_beta 90.000000
_cell_angle_gamma 90.000000
_cell_volume 2040.178464
_symmetry_space_group_name_H-M "I M M A"
_symmetry_group_IT_number 74
_symmetry_cell_setting 'orthorhombic'
loop_
_space_group_symop_operation_xyz
x,y,z
-x,1/2-y,z
x,-y,-z
-x,1/2+y,-z
-x,-y,-z
x,1/2+y,-z
-x,y,z
x,1/2-y,z
1/2+x,1/2+y,1/2+z
1/2-x,-y,1/2+z
1/2+x,1/2-y,1/2-z
1/2-x,y,1/2-z
1/2-x,1/2-y,1/2-z
1/2+x,y,1/2-z
1/2-x,1/2+y,1/2+z
1/2+x,-y,1/2+z
loop_
_atom_site_type_symbol
_atom_site_label
_atom_site_fract_x
_atom_site_fract_y
_atom_site_fract_z
Si Si1 0.500000 0.608353 0.104858
Si Si2 0.750000 0.450415 0.250000
Si Si3 0.000000 0.798044 0.995716
Si Si4 0.500000 0.012080 0.722101
Si Si5 0.500000 0.394771 0.327921
Si Si6 0.250000 0.670185 0.250000
O O1 0.500000 0.563786 0.227316
O O2 0.361505 0.638191 0.146813
O O3 0.500000 0.598987 0.890433
O O4 0.632744 0.486163 0.189310
O O5 0.651489 0.418575 0.379731
O O6 0.855489 0.801894 0.118670
O O7 0.000000 0.750000 0.899768
O O8 0.000000 0.843432 0.879488
O O9 0.500000 0.000000 0.500000
#
# Coordination Sequence:
#
# PCOD9540118 Si02
#       6
#     8   8   8   8   8   8
#     4  11  24  42  67  99 143 188 237 284 355 418
#     4  10  25  40  63  97 142 181 241 284 347 412
#     4  11  24  48  75 108 138 176 234 297 363 449
#     4  11  26  40  68 100 144 189 248 291 334 413
#     4  11  24  43  69 100 143 185 234 296 367 416
#     4  10  24  42  74 105 142 183 226 286 368 432
#
# _framework density 23.527352
#
# number of rings (size 3 to 8) (size 9 to 14) (size 15 to 20)
#    0.000    1.333    0.000    3.500   18.667    1.333 
#    0.000   10.833    0.000    0.000    0.000    0.000 
#    0.000    0.000    0.000    0.000    0.000    0.000 
#
# Total GULP energy -133905.319296 kJ/mol
# GULP energy per Si atom -5579.388304 kJ/mol
# Density = 2.347380 g / cm^3
# Si number density = 23.527352 Si / 1000 Ang^3
#
#
#
# Elastic Constant Matrix: (Units=GPa)
#
#
# Indices 1 2 3 4 5 6 
#
# 1 196.6958 57.2281 15.2605 -0.0059 -0.0001 -0.0018
# 2 57.2281 185.6003 30.7365 -0.0184 0.0000 -0.0015
# 3 15.2605 30.7365 98.0373 -0.0241 -0.0057 0.0050
# 4 -0.0059 -0.0184 -0.0241 35.3992 -0.0004 0.0007
# 5 -0.0001 0.0000 -0.0057 -0.0004 16.4148 -0.0121
# 6 -0.0018 -0.0015 0.0050 0.0007 -0.0121 0.8031
#
#
#
# Elastic Compliance Matrix: (Units=1/GPa)
#
#
# Indices 1 2 3 4 5 6 
#
# 1 0.005596 -0.001668 -0.000348 0.000000 0.000000 0.000012
# 2 -0.001668 0.006180 -0.001678 0.000002 -0.000001 0.000018
# 3 -0.000348 -0.001678 0.010780 0.000006 0.000004 -0.000072
# 4 0.000000 0.000002 0.000006 0.028249 0.000001 -0.000024
# 5 0.000000 -0.000001 0.000004 0.000001 0.060921 0.000921
# 6 0.000012 0.000018 -0.000072 -0.000024 0.000921 1.245163
#
#
# Mechanical properties :
#
#
# Convention : Reuss Voigt Hill
#
# Bulk Modulus (GPa) = 65.92503 76.30928 71.11716
# Shear Modulus (GPa) = 3.65141 35.66399 19.65770
#
# Velocity S-wave (km/s) = 1.24714 3.89762 2.89368
# Velocity P-wave (km/s) = 5.49138 7.26360 6.43876
#
# Compressibility (1/GPa) = 0.01516875
#
# Stress axis : x y z
#
# Youngs Moduli (GPa) = 178.69023 161.81021 92.76036
#
# Poissons Ratio (x) = 0.26988 0.03230
# Poissons Ratio (y) = 0.29804 0.15565
# Poissons Ratio (z) = 0.06222 0.27151
#
# Static dielectric constant tensor:
#      x y z
#    x 2.344730 0.000010 0.000020 
#    y 0.000010 1.889370 0.000000 
#    z 0.000020 0.000000 1.955570 
# 
# From -- ./inp_files/6197.got.cif
#   From: 2010.05.17/outbox.cif.g08.bks.cpg/sg74_4_cif.got.tgz:6197.got - 2010.06.03 17:57:02.
