data_PCOD9540342
_publ_section_title
;
Structure prediction by ZEFSAII (Michael W. Deem and Ramdas Pophale) SiO2 
 PCOD9540342
Probable space group: I M M A
;
_chemical_formula_sum "Si O2"
_cell_formula_units_Z 88
_cell_length_a 28.314286
_cell_length_b 18.554055
_cell_length_c 8.900248
_cell_angle_alpha 90.000000
_cell_angle_beta 90.000000
_cell_angle_gamma 90.000000
_cell_volume 4675.699181
_symmetry_space_group_name_H-M "I M M A"
_symmetry_group_IT_number 74
_symmetry_cell_setting 'orthorhombic'
loop_
_space_group_symop_operation_xyz
x,y,z
-x,1/2-y,z
x,-y,-z
-x,1/2+y,-z
-x,-y,-z
x,1/2+y,-z
-x,y,z
x,1/2-y,z
1/2+x,1/2+y,1/2+z
1/2-x,-y,1/2+z
1/2+x,1/2-y,1/2-z
1/2-x,y,1/2-z
1/2-x,1/2-y,1/2-z
1/2+x,y,1/2-z
1/2-x,1/2+y,1/2+z
1/2+x,-y,1/2+z
loop_
_atom_site_type_symbol
_atom_site_label
_atom_site_fract_x
_atom_site_fract_y
_atom_site_fract_z
Si Si1 0.250000 0.571816 0.750000
Si Si2 0.104395 0.070080 0.915785
Si Si3 0.168301 0.835685 0.861415
Si Si4 0.670560 0.465982 0.858004
Si Si5 0.553377 0.334610 0.821572
Si Si6 0.353777 0.332641 0.010815
O O1 0.218655 0.623236 0.856733
O O2 0.285389 0.517922 0.834241
O O3 0.141702 0.038513 0.794796
O O4 0.067449 0.116112 0.819298
O O5 0.132943 0.123218 0.027025
O O6 0.084531 0.000000 0.000000
O O7 0.172105 0.750000 0.893380
O O8 0.150452 0.844043 0.688760
O O9 0.642559 0.500000 0.000000
O O10 0.679389 0.385100 0.914307
O O11 0.500000 0.349362 0.872322
O O12 0.556160 0.250000 0.779229
O O13 0.593338 0.345750 0.948377
O O14 0.341594 0.250000 0.981035
#
# Coordination Sequence:
#
# PCOD9540342 Si02
#       6
#     8  16  16  16  16  16
#     4  12  23  36  59  84 114 156 198 248 277 342
#     4  11  21  36  58  85 118 152 189 234 298 344
#     4  11  23  38  57  85 119 155 192 237 290 342
#     4  11  22  37  59  80 114 153 201 236 286 333
#     4   9  19  37  61  85 111 148 193 237 283 344
#     4   9  19  38  60  81 112 153 193 234 286 344
#
# _framework density 18.820715
#
# number of rings (size 3 to 8) (size 9 to 14) (size 15 to 20)
#    0.000    1.636    3.636    0.818    2.545    1.091 
#    0.000    1.364    0.000   21.818    0.000    0.000 
#    0.000    0.000    0.000    0.000    0.000    0.000 
#
# Total GULP energy -245374.474473 kJ/mol
# GULP energy per Si atom -5576.692602 kJ/mol
# Density = 1.877788 g / cm^3
# Si number density = 18.820715 Si / 1000 Ang^3
#
#
#
# Elastic Constant Matrix: (Units=GPa)
#
#
# Indices 1 2 3 4 5 6 
#
# 1 68.9655 53.0420 11.8881 0.0000 0.0000 0.0000
# 2 53.0420 123.2586 44.5098 0.0000 0.0000 0.0000
# 3 11.8881 44.5098 57.2176 0.0000 0.0000 0.0000
# 4 0.0000 0.0000 0.0000 34.0061 0.0000 0.0000
# 5 0.0000 0.0000 0.0000 0.0000 14.6468 0.0000
# 6 0.0000 0.0000 0.0000 0.0000 0.0000 29.2282
#
#
#
# Elastic Compliance Matrix: (Units=1/GPa)
#
#
# Indices 1 2 3 4 5 6 
#
# 1 0.022293 -0.011015 0.003937 0.000000 0.000000 0.000000
# 2 -0.011015 0.016725 -0.010722 0.000000 0.000000 0.000000
# 3 0.003937 -0.010722 0.025000 0.000000 0.000000 0.000000
# 4 0.000000 0.000000 0.000000 0.029407 0.000000 0.000000
# 5 0.000000 0.000000 0.000000 0.000000 0.068275 0.000000
# 6 0.000000 0.000000 0.000000 0.000000 0.000000 0.034214
#
#
# Mechanical properties :
#
#
# Convention : Reuss Voigt Hill
#
# Bulk Modulus (GPa) = 35.18931 52.03574 43.61253
# Shear Modulus (GPa) = 20.74819 24.90965 22.82892
#
# Velocity S-wave (km/s) = 3.32386 3.64197 3.48655
# Velocity P-wave (km/s) = 5.78519 6.73746 6.27941
#
# Compressibility (1/GPa) = 0.02841772
#
# Stress axis : x y z
#
# Youngs Moduli (GPa) = 44.85676 59.79116 40.00053
#
# Poissons Ratio (x) = 0.65860 -0.15747
# Poissons Ratio (y) = 0.49410 0.42888
# Poissons Ratio (z) = -0.17659 0.64107
#
# Static dielectric constant tensor:
#      x y z
#    x 1.645150 0.000000 0.000000 
#    y 0.000000 1.706960 0.000000 
#    z 0.000000 0.000000 1.661510 
# 
# From -- ./inp_files/16074.got.cif
#   From: 2010.05.17/outbox.cif.g08.bks.cpg/sg74_9_cif.got.tgz:16074.got - 2010.06.03 17:57:02.
