data_PCOD9540286
_publ_section_title
;
Structure prediction by ZEFSAII (Michael W. Deem and Ramdas Pophale) SiO2 
 PCOD9540286
Probable space group: I M M A
;
_chemical_formula_sum "Si O2"
_cell_formula_units_Z 112
_cell_length_a 27.914071
_cell_length_b 13.531330
_cell_length_c 16.556313
_cell_angle_alpha 90.000000
_cell_angle_beta 90.000000
_cell_angle_gamma 90.000000
_cell_volume 6253.559592
_symmetry_space_group_name_H-M "I M M A"
_symmetry_group_IT_number 74
_symmetry_cell_setting 'orthorhombic'
loop_
_space_group_symop_operation_xyz
x,y,z
-x,1/2-y,z
x,-y,-z
-x,1/2+y,-z
-x,-y,-z
x,1/2+y,-z
-x,y,z
x,1/2-y,z
1/2+x,1/2+y,1/2+z
1/2-x,-y,1/2+z
1/2+x,1/2-y,1/2-z
1/2-x,y,1/2-z
1/2-x,1/2-y,1/2-z
1/2+x,y,1/2-z
1/2-x,1/2+y,1/2+z
1/2+x,-y,1/2+z
loop_
_atom_site_type_symbol
_atom_site_label
_atom_site_fract_x
_atom_site_fract_y
_atom_site_fract_z
Si Si1 0.649789 0.869568 0.306314
Si Si2 0.716989 0.630584 0.637635
Si Si3 0.054065 0.131896 0.715391
Si Si4 0.797905 0.632920 0.352733
Si Si5 0.612503 0.521328 0.092995
Si Si6 0.825317 0.631220 0.694655
Si Si7 0.294211 0.129154 0.544972
O O1 0.651510 0.750000 0.305405
O O2 0.596979 0.896420 0.276242
O O3 0.689703 0.899868 0.239029
O O4 0.662653 0.900302 0.396270
O O5 0.716039 0.750000 0.637162
O O6 0.772280 0.607241 0.659431
O O7 0.680545 0.604637 0.710199
O O8 0.705173 0.595991 0.547446
O O9 0.058702 0.250000 0.699127
O O10 0.000000 0.114358 0.743827
O O11 0.066700 0.067616 0.636998
O O12 0.792229 0.750000 0.347471
O O13 0.845636 0.603609 0.400496
O O14 0.752797 0.597965 0.404314
O O15 0.635416 0.429906 0.144131
O O16 0.603954 0.500000 0.000000
O O17 0.832654 0.750000 0.687645
O O18 0.293175 0.250000 0.541554
#
# Coordination Sequence:
#
# PCOD9540286 Si02
#       7
#    16  16  16  16  16  16  16
#     4   8  14  25  43  70  96 121 155 192 242 299
#     4   8  15  29  47  65  92 136 178 203 226 267
#     4   9  19  37  56  72  96 126 156 200 259 314
#     4   9  17  29  44  66 101 135 158 192 242 290
#     4  11  21  31  49  75  97 124 167 204 241 293
#     4   9  18  33  48  65  97 138 172 200 234 274
#     4   9  14  23  44  70  97 128 162 201 236 277
#
# _framework density 17.909799
#
# number of rings (size 3 to 8) (size 9 to 14) (size 15 to 20)
#    0.000    3.000    0.000    3.429    0.000    4.286 
#   10.286    0.000    0.000    0.429    0.000    2.000 
#    0.000    3.429    0.000    0.000    0.000    0.000 
#
# Total GULP energy -312184.141761 kJ/mol
# GULP energy per Si atom -5574.716817 kJ/mol
# Density = 1.786904 g / cm^3
# Si number density = 17.909799 Si / 1000 Ang^3
#
#
#
# Elastic Constant Matrix: (Units=GPa)
#
#
# Indices 1 2 3 4 5 6 
#
# 1 79.1664 19.2426 56.4760 0.0000 0.0000 0.0000
# 2 19.2426 70.4088 34.8552 0.0000 0.0000 0.0000
# 3 56.4760 34.8552 160.3139 0.0000 0.0000 0.0000
# 4 0.0000 0.0000 0.0000 28.1028 0.0000 0.0000
# 5 0.0000 0.0000 0.0000 0.0000 7.3678 0.0000
# 6 0.0000 0.0000 0.0000 0.0000 0.0000 17.2952
#
#
#
# Elastic Compliance Matrix: (Units=1/GPa)
#
#
# Indices 1 2 3 4 5 6 
#
# 1 0.017094 -0.001895 -0.005610 0.000000 0.000000 0.000000
# 2 -0.001895 0.016126 -0.002839 0.000000 0.000000 0.000000
# 3 -0.005610 -0.002839 0.008831 0.000000 0.000000 0.000000
# 4 0.000000 0.000000 0.000000 0.035584 0.000000 0.000000
# 5 0.000000 0.000000 0.000000 0.000000 0.135726 0.000000
# 6 0.000000 0.000000 0.000000 0.000000 0.000000 0.057819
#
#
# Mechanical properties :
#
#
# Convention : Reuss Voigt Hill
#
# Bulk Modulus (GPa) = 46.80618 59.00408 52.90513
# Shear Modulus (GPa) = 16.72305 23.84085 20.28195
#
# Velocity S-wave (km/s) = 3.05903 3.65247 3.36884
# Velocity P-wave (km/s) = 6.21836 7.12769 6.68850
#
# Compressibility (1/GPa) = 0.02136470
#
# Stress axis : x y z
#
# Youngs Moduli (GPa) = 58.49902 62.01244 113.23391
#
# Poissons Ratio (x) = 0.11749 0.63526
# Poissons Ratio (y) = 0.11083 0.32143
# Poissons Ratio (z) = 0.32819 0.17603
#
# Static dielectric constant tensor:
#      x y z
#    x 1.579870 0.000000 0.000000 
#    y 0.000000 1.694050 0.000000 
#    z 0.000000 0.000000 1.646140 
# 
# From -- ./inp_files/37965.got.cif
#   From: 2010.05.17/outbox.cif.g08.bks.cpg/sg74_19_cif.got.tgz:37965.got - 2010.06.03 17:57:02.
