data_PCOD9540284
_publ_section_title
;
Structure prediction by ZEFSAII (Michael W. Deem and Ramdas Pophale) SiO2 
 PCOD9540284
Probable space group: I M M A
;
_chemical_formula_sum "Si O2"
_cell_formula_units_Z 96
_cell_length_a 9.291683
_cell_length_b 22.469820
_cell_length_c 21.932093
_cell_angle_alpha 90.000000
_cell_angle_beta 90.000000
_cell_angle_gamma 90.000000
_cell_volume 4579.035990
_symmetry_space_group_name_H-M "I M M A"
_symmetry_group_IT_number 74
_symmetry_cell_setting 'orthorhombic'
loop_
_space_group_symop_operation_xyz
x,y,z
-x,1/2-y,z
x,-y,-z
-x,1/2+y,-z
-x,-y,-z
x,1/2+y,-z
-x,y,z
x,1/2-y,z
1/2+x,1/2+y,1/2+z
1/2-x,-y,1/2+z
1/2+x,1/2-y,1/2-z
1/2-x,y,1/2-z
1/2-x,1/2-y,1/2-z
1/2+x,y,1/2-z
1/2-x,1/2+y,1/2+z
1/2+x,-y,1/2+z
loop_
_atom_site_type_symbol
_atom_site_label
_atom_site_fract_x
_atom_site_fract_y
_atom_site_fract_z
Si Si1 0.670177 0.349490 0.566647
Si Si2 0.662627 0.179193 0.055852
Si Si3 0.831885 0.029925 0.565243
Si Si4 0.837363 0.008954 0.692413
Si Si5 0.669413 0.677854 0.809993
Si Si6 0.167940 0.654736 0.311301
O O1 0.500000 0.339246 0.570465
O O2 0.737171 0.329365 0.502480
O O3 0.714068 0.418726 0.566968
O O4 0.751870 0.325157 0.626898
O O5 0.500000 0.154485 0.044653
O O6 0.647601 0.250000 0.062326
O O7 0.717027 0.157730 0.122169
O O8 0.800315 0.989268 0.623997
O O9 0.000000 0.051255 0.573662
O O10 0.826691 0.000000 0.500000
O O11 0.750000 0.988192 0.750000
O O12 0.827503 0.081780 0.689809
O O13 0.000000 0.992265 0.703862
O O14 0.500000 0.664754 0.805831
O O15 0.684743 0.750000 0.809055
O O16 0.750000 0.655089 0.750000
O O17 0.250000 0.674384 0.250000
O O18 0.000000 0.671776 0.311245
#
# Coordination Sequence:
#
# PCOD9540284 Si02
#       6
#    16  16  16  16  16  16
#     4  11  21  31  47  73 102 129 159 198 243 289
#     4   9  18  33  51  70  95 129 165 198 236 285
#     4   9  18  33  51  69  92 125 163 199 237 283
#     4   8  14  24  41  65  89 114 146 187 231 273
#     4   8  14  25  43  67  92 118 151 193 238 280
#     4   9  16  28  46  68  94 123 158 198 238 280
#
# _framework density 20.965111
#
# number of rings (size 3 to 8) (size 9 to 14) (size 15 to 20)
#    0.000    3.000    0.000    4.000    0.000    5.333 
#    0.000    1.667    0.000    1.500    0.000    2.333 
#    0.000    0.000    0.000    0.000    0.000    0.000 
#
# Total GULP energy -267512.329535 kJ/mol
# GULP energy per Si atom -5573.173532 kJ/mol
# Density = 2.091739 g / cm^3
# Si number density = 20.965111 Si / 1000 Ang^3
#
#
#
# Elastic Constant Matrix: (Units=GPa)
#
#
# Indices 1 2 3 4 5 6 
#
# 1 120.7924 10.2135 120.5313 0.0000 0.0000 0.0000
# 2 10.2135 35.6417 14.5510 0.0000 0.0000 0.0000
# 3 120.5313 14.5510 272.1043 0.0000 0.0000 0.0000
# 4 0.0000 0.0000 0.0000 -21.0376 0.0000 0.0000
# 5 0.0000 0.0000 0.0000 0.0000 42.4733 0.0000
# 6 0.0000 0.0000 0.0000 0.0000 0.0000 8.7554
#
#
#
# Elastic Compliance Matrix: (Units=1/GPa)
#
#
# Indices 1 2 3 4 5 6 
#
# 1 0.014927 -0.001613 -0.006526 0.000000 0.000000 0.000000
# 2 -0.001613 0.028858 -0.000829 0.000000 0.000000 0.000000
# 3 -0.006526 -0.000829 0.006610 0.000000 0.000000 0.000000
# 4 0.000000 0.000000 0.000000 -0.047534 0.000000 0.000000
# 5 0.000000 0.000000 0.000000 0.000000 0.023544 0.000000
# 6 0.000000 0.000000 0.000000 0.000000 0.000000 0.114215
#
#
# Mechanical properties :
#
#
# Convention : Reuss Voigt Hill
#
# Bulk Modulus (GPa) = 30.80790 79.90335 55.35562
# Shear Modulus (GPa) = 29.52053 24.92108 27.22081
#
# Velocity S-wave (km/s) = 3.75651 3.45148 3.60722
# Velocity P-wave (km/s) = 5.79154 7.35384 6.61894
#
# Compressibility (1/GPa) = 0.03245921
#
# Stress axis : x y z
#
# Youngs Moduli (GPa) = 66.99467 34.65298 151.28713
#
# Poissons Ratio (x) = 0.05590 0.98724
# Poissons Ratio (y) = 0.10808 0.12535
# Poissons Ratio (z) = 0.43718 0.02871
#
# Static dielectric constant tensor:
#      x y z
#    x 1.710830 0.000000 0.000000 
#    y 0.000000 1.855570 0.000000 
#    z 0.000000 0.000000 1.816950 
# 
# From -- ./inp_files/49078.got.cif
#   From: 2010.05.17/outbox.cif.g08.bks.cpg/sg74_25_cif.got.tgz:49078.got - 2010.06.03 17:57:02.
