data_PCOD9540417
_publ_section_title
;
Structure prediction by ZEFSAII (Michael W. Deem and Ramdas Pophale) SiO2 
 PCOD9540417
Probable space group: I M M A
;
_chemical_formula_sum "Si O2"
_cell_formula_units_Z 84
_cell_length_a 22.526709
_cell_length_b 7.739058
_cell_length_c 23.887061
_cell_angle_alpha 90.000000
_cell_angle_beta 90.000000
_cell_angle_gamma 90.000000
_cell_volume 4164.362902
_symmetry_space_group_name_H-M "I M M A"
_symmetry_group_IT_number 74
_symmetry_cell_setting 'orthorhombic'
loop_
_space_group_symop_operation_xyz
x,y,z
-x,1/2-y,z
x,-y,-z
-x,1/2+y,-z
-x,-y,-z
x,1/2+y,-z
-x,y,z
x,1/2-y,z
1/2+x,1/2+y,1/2+z
1/2-x,-y,1/2+z
1/2+x,1/2-y,1/2-z
1/2-x,y,1/2-z
1/2-x,1/2-y,1/2-z
1/2+x,y,1/2-z
1/2-x,1/2+y,1/2+z
1/2+x,-y,1/2+z
loop_
_atom_site_type_symbol
_atom_site_label
_atom_site_fract_x
_atom_site_fract_y
_atom_site_fract_z
Si Si1 0.899692 0.556407 0.142132
Si Si2 0.500000 0.250000 0.359546
Si Si3 0.675379 0.042459 0.866608
Si Si4 0.683940 0.450247 0.257185
Si Si5 0.794212 0.953717 0.934934
Si Si6 0.936461 0.457406 0.565120
O O1 0.925291 0.750000 0.141429
O O2 0.858941 0.536424 0.197984
O O3 0.853239 0.538893 0.090629
O O4 0.947778 0.403609 0.140761
O O5 0.673168 0.250000 0.860838
O O6 0.622619 0.977964 0.906125
O O7 0.662426 0.961854 0.806290
O O8 0.738202 0.999272 0.895338
O O9 0.690325 0.250000 0.275128
O O10 0.750000 0.527609 0.250000
O O11 0.802927 0.750000 0.931539
O O12 0.783210 0.000000 0.000000
O O13 0.934409 0.500000 0.500000
O O14 0.936345 0.250000 0.570997
O O15 0.000000 0.521895 0.587674
#
# Coordination Sequence:
#
# PCOD9540417 Si02
#       6
#    16   4  16  16  16  16
#     4  12  25  47  75 102 138 182 229 286 352 414
#     4  12  26  52  72 102 138 184 236 282 346 426
#     4  11  22  36  60  97 131 173 224 273 340 409
#     4  11  22  40  66  98 134 173 216 275 337 403
#     4  12  24  42  67 100 136 172 223 290 351 416
#     4   9  19  36  55  79 121 168 217 266 316 385
#
# _framework density 20.171151999999999
#
# number of rings (size 3 to 8) (size 9 to 14) (size 15 to 20)
#    0.000    0.952    3.810    3.714    0.000    3.810 
#    1.714    0.476    0.000    0.000    0.000    0.000 
#    0.000    0.000    0.000    0.000    0.000    0.000 
#
# Total GULP energy -234044.049528 kJ/mol
# GULP energy per Si atom -5572.477370 kJ/mol
# Density = 2.012524 g / cm^3
# Si number density = 20.171152 Si / 1000 Ang^3
#
#
#
# Elastic Constant Matrix: (Units=GPa)
#
#
# Indices 1 2 3 4 5 6 
#
# 1 111.1070 29.3034 12.5848 0.0000 0.0000 0.0000
# 2 29.3034 128.3051 1.8378 0.0000 0.0000 0.0000
# 3 12.5848 1.8378 75.2446 0.0000 0.0000 0.0000
# 4 0.0000 0.0000 0.0000 24.9805 0.0000 0.0000
# 5 0.0000 0.0000 0.0000 0.0000 8.4948 0.0000
# 6 0.0000 0.0000 0.0000 0.0000 0.0000 50.6829
#
#
#
# Elastic Compliance Matrix: (Units=1/GPa)
#
#
# Indices 1 2 3 4 5 6 
#
# 1 0.009761 -0.002207 -0.001579 0.000000 0.000000 0.000000
# 2 -0.002207 0.008296 0.000166 0.000000 0.000000 0.000000
# 3 -0.001579 0.000166 0.013550 0.000000 0.000000 0.000000
# 4 0.000000 0.000000 0.000000 0.040031 0.000000 0.000000
# 5 0.000000 0.000000 0.000000 0.000000 0.117719 0.000000
# 6 0.000000 0.000000 0.000000 0.000000 0.000000 0.019731
#
#
# Mechanical properties :
#
#
# Convention : Reuss Voigt Hill
#
# Bulk Modulus (GPa) = 41.03611 44.67875 42.85743
# Shear Modulus (GPa) = 22.27682 34.89368 28.58525
#
# Velocity S-wave (km/s) = 3.32684 4.16370 3.76857
# Velocity P-wave (km/s) = 5.92835 6.73150 6.34265
#
# Compressibility (1/GPa) = 0.02436878
#
# Stress axis : x y z
#
# Youngs Moduli (GPa) = 102.44699 120.54687 73.80091
#
# Poissons Ratio (x) = 0.26601 0.11651
# Poissons Ratio (y) = 0.22607 -0.01229
# Poissons Ratio (z) = 0.16173 -0.02007
#
# Static dielectric constant tensor:
#      x y z
#    x 1.738030 0.000000 0.000000 
#    y 0.000000 1.739180 0.000000 
#    z 0.000000 0.000000 1.752450 
# 
# From -- ./inp_files/61345.got.cif
#   From: 2010.05.17/outbox.cif.g08.bks.cpg/sg74_31_cif.got.tgz:61345.got - 2010.06.03 17:57:02.
