data_PCOD9540226
_publ_section_title
;
Structure prediction by ZEFSAII (Michael W. Deem and Ramdas Pophale) SiO2 
 PCOD9540226
Probable space group: I M M A
;
_chemical_formula_sum "Si O2"
_cell_formula_units_Z 88
_cell_length_a 8.981609
_cell_length_b 28.931990
_cell_length_c 24.144019
_cell_angle_alpha 90.000000
_cell_angle_beta 90.000000
_cell_angle_gamma 90.000000
_cell_volume 6273.963898
_symmetry_space_group_name_H-M "I M M A"
_symmetry_group_IT_number 74
_symmetry_cell_setting 'orthorhombic'
loop_
_space_group_symop_operation_xyz
x,y,z
-x,1/2-y,z
x,-y,-z
-x,1/2+y,-z
-x,-y,-z
x,1/2+y,-z
-x,y,z
x,1/2-y,z
1/2+x,1/2+y,1/2+z
1/2-x,-y,1/2+z
1/2+x,1/2-y,1/2-z
1/2-x,y,1/2-z
1/2-x,1/2-y,1/2-z
1/2+x,y,1/2-z
1/2-x,1/2+y,1/2+z
1/2+x,-y,1/2+z
loop_
_atom_site_type_symbol
_atom_site_label
_atom_site_fract_x
_atom_site_fract_y
_atom_site_fract_z
Si Si1 0.678887 0.301869 0.507159
Si Si2 0.177630 0.325703 0.389186
Si Si3 0.829001 0.918850 0.911982
Si Si4 0.320924 0.750000 0.689318
Si Si5 0.329281 0.989416 0.066313
Si Si6 0.671110 0.101940 0.544530
O O1 0.500000 0.306515 0.496250
O O2 0.705276 0.250000 0.528136
O O3 0.765083 0.308477 0.449391
O O4 0.719984 0.344577 0.547023
O O5 0.228350 0.379066 0.385231
O O6 0.260072 0.294306 0.344215
O O7 0.000000 0.320997 0.385240
O O8 0.000000 0.914705 0.893985
O O9 0.767325 0.970509 0.905396
O O10 0.826004 0.908736 0.978328
O O11 0.500000 0.750000 0.690932
O O12 0.250000 0.750000 0.750000
O O13 0.500000 0.992911 0.083684
O O14 0.267444 0.937722 0.072930
O O15 0.323937 0.000000 0.000000
O O16 0.500000 0.097815 0.562766
#
# Coordination Sequence:
#
# PCOD9540226 Si02
#       6
#    16  16  16   8  16  16
#     4   9  16  26  39  52  69  94 120 147 177 211
#     4  11  20  30  43  60  74  87 109 139 174 215
#     4   9  16  26  39  52  67  89 110 134 166 205
#     4  12  24  38  50  60  74  92 114 142 180 222
#     4   9  15  22  32  48  68  88 109 137 169 203
#     4   8  14  22  32  47  66  90 116 139 168 206
#
# _framework density 14.026221
#
# number of rings (size 3 to 8) (size 9 to 14) (size 15 to 20)
#    0.000    2.545    0.909    4.636    0.000    6.545 
#    0.000    0.000    0.000    0.000    0.000    0.000 
#    0.000    0.000    0.000    0.000    0.000    0.000 
#
# Total GULP energy -245000.650563 kJ/mol
# GULP energy per Si atom -5568.196604 kJ/mol
# Density = 1.399430 g / cm^3
# Si number density = 14.026221 Si / 1000 Ang^3
#
#
#
# Elastic Constant Matrix: (Units=GPa)
#
#
# Indices 1 2 3 4 5 6 
#
# 1 87.0261 45.9393 11.5612 0.0000 0.0000 0.0000
# 2 45.9393 132.3131 12.6524 0.0000 0.0000 0.0000
# 3 11.5612 12.6524 10.7954 0.0000 0.0000 0.0000
# 4 0.0000 0.0000 0.0000 5.1669 0.0000 0.0000
# 5 0.0000 0.0000 0.0000 0.0000 9.6826 0.0000
# 6 0.0000 0.0000 0.0000 0.0000 0.0000 19.1476
#
#
#
# Elastic Compliance Matrix: (Units=1/GPa)
#
#
# Indices 1 2 3 4 5 6 
#
# 1 0.015217 -0.004195 -0.011380 0.000000 0.000000 0.000000
# 2 -0.004195 0.009668 -0.006839 0.000000 0.000000 0.000000
# 3 -0.011380 -0.006839 0.112835 0.000000 0.000000 0.000000
# 4 0.000000 0.000000 0.000000 0.193539 0.000000 0.000000
# 5 0.000000 0.000000 0.000000 0.000000 0.103278 0.000000
# 6 0.000000 0.000000 0.000000 0.000000 0.000000 0.052226
#
#
# Mechanical properties :
#
#
# Convention : Reuss Voigt Hill
#
# Bulk Modulus (GPa) = 10.76510 41.16004 25.96257
# Shear Modulus (GPa) = 8.88803 17.46488 13.17645
#
# Velocity S-wave (km/s) = 2.52002 3.53251 3.06831
# Velocity P-wave (km/s) = 4.01982 6.78579 5.57700
#
# Compressibility (1/GPa) = 0.09289277
#
# Stress axis : x y z
#
# Youngs Moduli (GPa) = 65.71532 103.43009 8.86252
#
# Poissons Ratio (x) = 0.43391 0.10085
# Poissons Ratio (y) = 0.27569 0.06061
# Poissons Ratio (z) = 0.74783 0.70733
#
# Static dielectric constant tensor:
#      x y z
#    x 1.469840 0.000000 0.000000 
#    y 0.000000 1.506110 0.000000 
#    z 0.000000 0.000000 1.414760 
# 
# From -- ./inp_files/40137.got.cif
#   From: 2010.05.17/outbox.cif.g08.bks.cpg/sg74_21_cif.got.tgz:40137.got - 2010.06.03 17:57:02.
