data_PCOD9540801
_publ_section_title
;
Structure prediction by ZEFSAII (Michael W. Deem and Ramdas Pophale) SiO2 
 PCOD9540801
Probable space group: I M M A
;
_chemical_formula_sum "Si O2"
_cell_formula_units_Z 36
_cell_length_a 9.000000
_cell_length_b 30.000000
_cell_length_c 15.000000
_cell_angle_alpha 90.000000
_cell_angle_beta 90.000000
_cell_angle_gamma 90.000000
_cell_volume 4050.000000
_symmetry_space_group_name_H-M "I M M A"
_symmetry_group_IT_number 74
_symmetry_cell_setting 'orthorhombic'
loop_
_space_group_symop_operation_xyz
x,y,z
-x,1/2-y,z
x,-y,-z
-x,1/2+y,-z
-x,-y,-z
x,1/2+y,-z
-x,y,z
x,1/2-y,z
1/2+x,1/2+y,1/2+z
1/2-x,-y,1/2+z
1/2+x,1/2-y,1/2-z
1/2-x,y,1/2-z
1/2-x,1/2-y,1/2-z
1/2+x,y,1/2-z
1/2-x,1/2+y,1/2+z
1/2+x,-y,1/2+z
loop_
_atom_site_type_symbol
_atom_site_label
_atom_site_fract_x
_atom_site_fract_y
_atom_site_fract_z
Si Si1 0.677815 0.750000 0.349256
Si Si2 0.675899 0.337529 0.846680
Si Si3 0.324792 0.482117 0.663458
Si Si4 0.174004 0.405562 0.973261
Si Si5 0.821622 0.078372 0.342093
O O1 0.500000 0.750000 0.345075
O O2 0.750000 0.750000 0.250000
O O3 0.745194 0.705563 0.389817
O O4 0.500000 0.331369 0.836747
O O5 0.750000 0.344160 0.750000
O O6 0.721017 0.377556 0.908996
O O7 0.500000 0.491790 0.681498
O O8 0.250000 0.458362 0.750000
O O9 0.320458 0.454191 0.572675
O O10 0.228048 0.526542 0.654132
O O11 0.000000 0.391890 0.970524
O O12 0.240858 0.402171 0.071361
O O13 0.750000 0.095837 0.250000
O O14 0.000000 0.082927 0.343580
#
# Coordination Sequence:
#
# PCOD9540801 Si02
#       5
#     8  16  16  16  16
#     4  10  18  32  52  74 103 138 169 200 242 294
#     4  11  21  34  52  77 107 138 170 204 246 297
#     4  10  20  33  50  71  99 133 168 208 252 300
#     4  11  22  35  51  74 102 132 169 212 255 299
#     4  11  22  36  53  71  95 130 171 214 258 303
#
# _framework density 8.8888890000000007
#
# number of rings (size 3 to 8) (size 9 to 14) (size 15 to 20)
#    0.000    1.333    0.000   10.333    0.000    8.000 
#    0.000    0.000    0.000    0.000    0.000    0.778 
#    0.000    0.000    0.000    0.000    0.000    0.000 
#
# Total GULP energy -200776.631993 kJ/mol
# GULP energy per Si atom -5577.128666 kJ/mol
# Density = 0.886866 g / cm^3
# Si number density = 8.888889 Si / 1000 Ang^3
#
#
#
# Elastic Constant Matrix: (Units=GPa)
#
#
# Indices 1 2 3 4 5 6 
#
# 1 166.5745 9.7557 29.5805 0.0000 0.0000 0.0000
# 2 9.7557 33.4629 7.7079 0.0000 0.0000 0.0000
# 3 29.5805 7.7079 94.4193 0.0000 0.0000 0.0000
# 4 0.0000 0.0000 0.0000 -2.2953 0.0000 0.0000
# 5 0.0000 0.0000 0.0000 0.0000 30.6112 0.0000
# 6 0.0000 0.0000 0.0000 0.0000 0.0000 21.6496
#
#
#
# Elastic Compliance Matrix: (Units=1/GPa)
#
#
# Indices 1 2 3 4 5 6 
#
# 1 0.006424 -0.001436 -0.001895 0.000000 0.000000 0.000000
# 2 -0.001436 0.030778 -0.002063 0.000000 0.000000 0.000000
# 3 -0.001895 -0.002063 0.011353 0.000000 0.000000 0.000000
# 4 0.000000 0.000000 0.000000 -0.435674 0.000000 0.000000
# 5 0.000000 0.000000 0.000000 0.000000 0.032668 0.000000
# 6 0.000000 0.000000 0.000000 0.000000 0.000000 0.046190
#
#
# Mechanical properties :
#
#
# Convention : Reuss Voigt Hill
#
# Bulk Modulus (GPa) = 26.47842 43.17166 34.82504
# Shear Modulus (GPa) = -17.55104 26.48726 4.46811
#
# Velocity S-wave (km/s) = -3.14546 3.86412 1.58706
# Velocity P-wave (km/s) = 1.31704 6.65172 4.79479
#
# Compressibility (1/GPa) = 0.03776661
#
# Stress axis : x y z
#
# Youngs Moduli (GPa) = 155.66599 32.49107 88.08072
#
# Poissons Ratio (x) = 0.04667 0.16694
# Poissons Ratio (y) = 0.22358 0.18167
# Poissons Ratio (z) = 0.29504 0.06701
#
# Static dielectric constant tensor:
#      x y z
#    x 1.585180 0.000000 0.000000 
#    y 0.000000 1.747870 0.000000 
#    z 0.000000 0.000000 1.678320 
# 
# From -- ./inp_files/29411.got.cif
#   From: 2010.05.17/outbox.ucp.g08.bks.cvg/sg74_15_cif.got.tgz:29411.got - 2010.06.11 16:37:44.
