data_PCOD9540759
_publ_section_title
;
Structure prediction by ZEFSAII (Michael W. Deem and Ramdas Pophale) SiO2 
 PCOD9540759
Probable space group: I M M A
;
_chemical_formula_sum "Si O2"
_cell_formula_units_Z 96
_cell_length_a 9.335072
_cell_length_b 21.093459
_cell_length_c 30.935644
_cell_angle_alpha 90.000000
_cell_angle_beta 90.000000
_cell_angle_gamma 90.000000
_cell_volume 6091.505440
_symmetry_space_group_name_H-M "I M M A"
_symmetry_group_IT_number 74
_symmetry_cell_setting 'orthorhombic'
loop_
_space_group_symop_operation_xyz
x,y,z
-x,1/2-y,z
x,-y,-z
-x,1/2+y,-z
-x,-y,-z
x,1/2+y,-z
-x,y,z
x,1/2-y,z
1/2+x,1/2+y,1/2+z
1/2-x,-y,1/2+z
1/2+x,1/2-y,1/2-z
1/2-x,y,1/2-z
1/2-x,1/2-y,1/2-z
1/2+x,y,1/2-z
1/2-x,1/2+y,1/2+z
1/2+x,-y,1/2+z
loop_
_atom_site_type_symbol
_atom_site_label
_atom_site_fract_x
_atom_site_fract_y
_atom_site_fract_z
Si Si1 0.835814 0.494205 0.707781
Si Si2 0.168669 0.510219 0.122229
Si Si3 0.834617 0.148823 0.293050
Si Si4 0.174666 0.559094 0.029649
Si Si5 0.668777 0.642676 0.620334
Si Si6 0.325487 0.180011 0.475739
O O1 0.750000 0.473478 0.750000
O O2 0.758668 0.472591 0.664230
O O3 0.833583 0.571498 0.707670
O O4 0.000000 0.474275 0.709524
O O5 0.217762 0.545352 0.078785
O O6 0.180893 0.433908 0.116362
O O7 0.000000 0.523025 0.129194
O O8 0.750000 0.169673 0.250000
O O9 0.755979 0.165638 0.337869
O O10 0.000000 0.169203 0.292166
O O11 0.000000 0.559344 0.029792
O O12 0.219038 0.500000 0.000000
O O13 0.223469 0.623774 0.007053
O O14 0.500000 0.657331 0.626489
O O15 0.717547 0.669610 0.574189
O O16 0.500000 0.177220 0.475219
O O17 0.282423 0.250000 0.490213
#
# Coordination Sequence:
#
# PCOD9540759 Si02
#       6
#    16  16  16  16  16  16
#     4   9  16  25  37  56  85 114 139 169 210 255
#     4   9  15  23  39  60  82 110 144 175 206 248
#     4   9  16  25  38  57  80 106 137 174 215 256
#     4   9  14  23  39  60  84 112 144 176 210 251
#     4   9  15  24  39  58  80 107 139 175 213 250
#     4   9  16  25  39  61  86 110 140 179 216 248
#
# _framework density 15.759651
#
# number of rings (size 3 to 8) (size 9 to 14) (size 15 to 20)
#    0.000    3.000    1.667    1.000    0.000    4.000 
#    0.000    0.000    0.000    2.500    0.000    0.000 
#    0.000    0.667    0.000    1.167    0.000    1.667 
#
# Total GULP energy -267424.817660 kJ/mol
# GULP energy per Si atom -5571.350368 kJ/mol
# Density = 1.572378 g / cm^3
# Si number density = 15.759651 Si / 1000 Ang^3
#
#
#
# Elastic Constant Matrix: (Units=GPa)
#
#
# Indices 1 2 3 4 5 6 
#
# 1 59.3158 24.7774 59.8752 0.0000 0.0000 0.0000
# 2 24.7774 64.0614 57.6351 0.0000 0.0000 0.0000
# 3 59.8752 57.6351 156.9518 0.0000 0.0000 0.0000
# 4 0.0000 0.0000 0.0000 4.9393 0.0000 0.0000
# 5 0.0000 0.0000 0.0000 0.0000 22.7104 0.0000
# 6 0.0000 0.0000 0.0000 0.0000 0.0000 9.5134
#
#
#
# Elastic Compliance Matrix: (Units=1/GPa)
#
#
# Indices 1 2 3 4 5 6 
#
# 1 0.027554 -0.001792 -0.009853 0.000000 0.000000 0.000000
# 2 -0.001792 0.023428 -0.007920 0.000000 0.000000 0.000000
# 3 -0.009853 -0.007920 0.013038 0.000000 0.000000 0.000000
# 4 0.000000 0.000000 0.000000 0.202459 0.000000 0.000000
# 5 0.000000 0.000000 0.000000 0.000000 0.044033 0.000000
# 6 0.000000 0.000000 0.000000 0.000000 0.000000 0.105115
#
#
# Mechanical properties :
#
#
# Convention : Reuss Voigt Hill
#
# Bulk Modulus (GPa) = 40.17607 62.76716 51.47162
# Shear Modulus (GPa) = 10.79789 16.63537 13.71663
#
# Velocity S-wave (km/s) = 2.62040 3.25247 2.95339
# Velocity P-wave (km/s) = 5.89098 7.34976 6.66043
#
# Compressibility (1/GPa) = 0.02489044
#
# Stress axis : x y z
#
# Youngs Moduli (GPa) = 36.29260 42.68340 76.69607
#
# Poissons Ratio (x) = 0.07650 0.75571
# Poissons Ratio (y) = 0.06505 0.60740
# Poissons Ratio (z) = 0.35760 0.33803
#
# Static dielectric constant tensor:
#      x y z
#    x 1.523630 0.000000 0.000000 
#    y 0.000000 1.521930 0.000000 
#    z 0.000000 0.000000 1.521510 
# 
# From -- ./inp_files/64658.got.cif
#   From: 2010.05.17/outbox.cif.g08.bks.cpg/sg74_33_cif.got.tgz:64658.got - 2010.06.03 17:57:02.
