data_PCOD9540184
_publ_section_title
;
Structure prediction by ZEFSAII (Michael W. Deem and Ramdas Pophale) SiO2 
 PCOD9540184
Probable space group: I M M A
;
_chemical_formula_sum "Si O2"
_cell_formula_units_Z 52
_cell_length_a 37.403214
_cell_length_b 7.463066
_cell_length_c 7.206908
_cell_angle_alpha 90.000000
_cell_angle_beta 90.000000
_cell_angle_gamma 90.000000
_cell_volume 2011.755431
_symmetry_space_group_name_H-M "I M M A"
_symmetry_group_IT_number 74
_symmetry_cell_setting 'orthorhombic'
loop_
_space_group_symop_operation_xyz
x,y,z
-x,1/2-y,z
x,-y,-z
-x,1/2+y,-z
-x,-y,-z
x,1/2+y,-z
-x,y,z
x,1/2-y,z
1/2+x,1/2+y,1/2+z
1/2-x,-y,1/2+z
1/2+x,1/2-y,1/2-z
1/2-x,y,1/2-z
1/2-x,1/2-y,1/2-z
1/2+x,y,1/2-z
1/2-x,1/2+y,1/2+z
1/2+x,-y,1/2+z
loop_
_atom_site_type_symbol
_atom_site_label
_atom_site_fract_x
_atom_site_fract_y
_atom_site_fract_z
Si Si1 0.289705 0.463362 0.784135
Si Si2 0.555269 0.951689 0.778344
Si Si3 0.634030 0.036365 0.778350
Si Si4 0.000000 0.750000 0.155047
O O1 0.288385 0.250000 0.743880
O O2 0.250000 0.538219 0.750000
O O3 0.327534 0.532490 0.704197
O O4 0.293912 0.500000 0.000000
O O5 0.541602 0.750000 0.755555
O O6 0.596496 0.958208 0.713874
O O7 0.531038 0.094924 0.678332
O O8 0.554160 0.000000 0.000000
O O9 0.632904 0.250000 0.751876
O O10 0.633754 0.000000 0.000000
#
# Coordination Sequence:
#
# PCOD9540184 Si02
#       4
#    16  16  16   4
#     4   9  18  31  49  71  97 129 169 206 249 293
#     4  11  19  26  37  52  77 111 151 190 232 282
#     4   9  15  27  40  56  82 115 153 193 232 287
#     4  12  20  28  34  54  78 110 150 198 232 278
#
# _framework density 25.848071999999998
#
# number of rings (size 3 to 8) (size 9 to 14) (size 15 to 20)
#    0.000    2.154    3.077    3.692    0.000    1.846 
#    0.000    0.000    0.000    0.000    0.000    0.000 
#    0.000    0.000    0.000    1.385    6.154    7.385 
#
# Total GULP energy -144814.499776 kJ/mol
# GULP energy per Si atom -5569.788453 kJ/mol
# Density = 2.578924 g / cm^3
# Si number density = 25.848072 Si / 1000 Ang^3
#
#
#
# Elastic Constant Matrix: (Units=GPa)
#
#
# Indices 1 2 3 4 5 6 
#
# 1 315.6476 72.1200 11.7428 0.0000 0.0000 0.0000
# 2 72.1200 205.2503 -0.2161 0.0000 0.0000 0.0000
# 3 11.7428 -0.2161 88.8210 0.0000 0.0000 0.0000
# 4 0.0000 0.0000 0.0000 5.5328 0.0000 0.0000
# 5 0.0000 0.0000 0.0000 0.0000 13.3416 0.0000
# 6 0.0000 0.0000 0.0000 0.0000 0.0000 12.3177
#
#
#
# Elastic Compliance Matrix: (Units=1/GPa)
#
#
# Indices 1 2 3 4 5 6 
#
# 1 0.003463 -0.001217 -0.000461 0.000000 0.000000 0.000000
# 2 -0.001217 0.005300 0.000174 0.000000 0.000000 0.000000
# 3 -0.000461 0.000174 0.011320 0.000000 0.000000 0.000000
# 4 0.000000 0.000000 0.000000 0.180740 0.000000 0.000000
# 5 0.000000 0.000000 0.000000 0.000000 0.074954 0.000000
# 6 0.000000 0.000000 0.000000 0.000000 0.000000 0.081184
#
#
# Mechanical properties :
#
#
# Convention : Reuss Voigt Hill
#
# Bulk Modulus (GPa) = 58.56678 86.33472 72.45075
# Shear Modulus (GPa) = 13.67386 41.30989 27.49188
#
# Velocity S-wave (km/s) = 2.30251 4.00206 3.26482
# Velocity P-wave (km/s) = 5.45674 7.40464 6.50403
#
# Compressibility (1/GPa) = 0.01707453
#
# Stress axis : x y z
#
# Youngs Moduli (GPa) = 288.73368 188.67701 88.33962
#
# Poissons Ratio (x) = 0.22970 0.04071
# Poissons Ratio (y) = 0.35152 -0.01536
# Poissons Ratio (z) = 0.13306 -0.03280
#
# Static dielectric constant tensor:
#      x y z
#    x 2.088090 0.000000 0.000000 
#    y 0.000000 1.901910 0.000000 
#    z 0.000000 0.000000 2.080010 
# 
# From -- ./inp_files/26678.got.cif
#   From: 2010.05.17/outbox.cif.g08.bks.cpg/sg74_14_cif.got.tgz:26678.got - 2010.06.03 17:57:02.
