data_PCOD9540440
_publ_section_title
;
Structure prediction by ZEFSAII (Michael W. Deem and Ramdas Pophale) SiO2 
 PCOD9540440
Probable space group: I M M A
;
_chemical_formula_sum "Si O2"
_cell_formula_units_Z 72
_cell_length_a 29.744048
_cell_length_b 8.552732
_cell_length_c 14.145413
_cell_angle_alpha 90.000000
_cell_angle_beta 90.000000
_cell_angle_gamma 90.000000
_cell_volume 3598.492227
_symmetry_space_group_name_H-M "I M M A"
_symmetry_group_IT_number 74
_symmetry_cell_setting 'orthorhombic'
loop_
_space_group_symop_operation_xyz
x,y,z
-x,1/2-y,z
x,-y,-z
-x,1/2+y,-z
-x,-y,-z
x,1/2+y,-z
-x,y,z
x,1/2-y,z
1/2+x,1/2+y,1/2+z
1/2-x,-y,1/2+z
1/2+x,1/2-y,1/2-z
1/2-x,y,1/2-z
1/2-x,1/2-y,1/2-z
1/2+x,y,1/2-z
1/2-x,1/2+y,1/2+z
1/2+x,-y,1/2+z
loop_
_atom_site_type_symbol
_atom_site_label
_atom_site_fract_x
_atom_site_fract_y
_atom_site_fract_z
Si Si1 0.086813 0.062083 0.283819
Si Si2 0.176360 0.561201 0.607016
Si Si3 0.370310 0.064082 0.606405
Si Si4 0.000000 0.563474 0.393110
Si Si5 0.774657 0.061712 0.108096
O O1 0.085368 0.250000 0.284328
O O2 0.132262 0.008814 0.337673
O O3 0.092360 0.001683 0.177212
O O4 0.043873 0.996664 0.337995
O O5 0.173691 0.500000 0.500000
O O6 0.175966 0.750000 0.605248
O O7 0.225587 0.516914 0.648131
O O8 0.370883 0.250000 0.604075
O O9 0.375374 0.000000 0.500000
O O10 0.321453 0.006801 0.644251
O O11 0.000000 0.500000 0.500000
O O12 0.000000 0.750000 0.395799
O O13 0.778308 0.250000 0.110546
O O14 0.772884 0.000000 0.000000
#
# Coordination Sequence:
#
# PCOD9540440 Si02
#       5
#    16  16  16   8  16
#     4  11  23  41  63  89 118 155 199 247 300 357
#     4   9  19  33  54  83 118 156 198 244 294 349
#     4  11  22  38  59  86 119 159 201 246 294 349
#     4  12  26  46  69  96 125 156 192 238 294 354
#     4   9  16  30  51  79 115 157 198 241 290 345
#
# _framework density 20.008379000000001
#
# number of rings (size 3 to 8) (size 9 to 14) (size 15 to 20)
#    0.000    1.778    0.000    6.333    0.000    5.333 
#    0.000    5.000    0.000    0.000    0.000    0.000 
#    0.000    0.000    0.000    0.000    0.000    0.000 
#
# Total GULP energy -201132.466589 kJ/mol
# GULP energy per Si atom -5587.012961 kJ/mol
# Density = 1.996284 g / cm^3
# Si number density = 20.008379 Si / 1000 Ang^3
#
#
#
# Elastic Constant Matrix: (Units=GPa)
#
#
# Indices 1 2 3 4 5 6 
#
# 1 156.9521 59.6384 94.6385 0.0000 0.0000 0.0000
# 2 59.6384 108.4143 43.3131 0.0000 0.0000 0.0000
# 3 94.6385 43.3131 126.7051 0.0000 0.0000 0.0000
# 4 0.0000 0.0000 0.0000 21.8214 0.0000 0.0000
# 5 0.0000 0.0000 0.0000 0.0000 40.4887 0.0000
# 6 0.0000 0.0000 0.0000 0.0000 0.0000 23.5521
#
#
#
# Elastic Compliance Matrix: (Units=1/GPa)
#
#
# Indices 1 2 3 4 5 6 
#
# 1 0.012770 -0.003722 -0.008265 0.000000 0.000000 0.000000
# 2 -0.003722 0.011768 -0.001242 0.000000 0.000000 0.000000
# 3 -0.008265 -0.001242 0.014491 0.000000 0.000000 0.000000
# 4 0.000000 0.000000 0.000000 0.045827 0.000000 0.000000
# 5 0.000000 0.000000 0.000000 0.000000 0.024698 0.000000
# 6 0.000000 0.000000 0.000000 0.000000 0.000000 0.042459
#
#
# Mechanical properties :
#
#
# Convention : Reuss Voigt Hill
#
# Bulk Modulus (GPa) = 79.56895 87.47240 83.52067
# Shear Modulus (GPa) = 27.37295 30.13787 28.75541
#
# Velocity S-wave (km/s) = 3.70276 3.88527 3.79511
# Velocity P-wave (km/s) = 7.62461 7.99624 7.81264
#
# Compressibility (1/GPa) = 0.01256772
#
# Stress axis : x y z
#
# Youngs Moduli (GPa) = 78.31055 84.97678 69.00981
#
# Poissons Ratio (x) = 0.31632 0.57040
# Poissons Ratio (y) = 0.29150 0.08574
# Poissons Ratio (z) = 0.64727 0.10558
#
# Static dielectric constant tensor:
#      x y z
#    x 1.715180 0.000000 0.000000 
#    y 0.000000 1.666830 0.000000 
#    z 0.000000 0.000000 1.693330 
# 
# From -- ./inp_files/29218.got.cif
#   From: 2010.05.17/outbox.cif.g08.bks.cpg/sg74_15_cif.got.tgz:29218.got - 2010.06.03 17:57:02.
