data_PCOD9540088
_publ_section_title
;
Structure prediction by ZEFSAII (Michael W. Deem and Ramdas Pophale) SiO2 
 PCOD9540088
Probable space group: I M M A
;
_chemical_formula_sum "Si O2"
_cell_formula_units_Z 112
_cell_length_a 22.711118
_cell_length_b 13.840419
_cell_length_c 15.775456
_cell_angle_alpha 90.000000
_cell_angle_beta 90.000000
_cell_angle_gamma 90.000000
_cell_volume 4958.720998
_symmetry_space_group_name_H-M "I M M A"
_symmetry_group_IT_number 74
_symmetry_cell_setting 'orthorhombic'
loop_
_space_group_symop_operation_xyz
x,y,z
-x,1/2-y,z
x,-y,-z
-x,1/2+y,-z
-x,-y,-z
x,1/2+y,-z
-x,y,z
x,1/2-y,z
1/2+x,1/2+y,1/2+z
1/2-x,-y,1/2+z
1/2+x,1/2-y,1/2-z
1/2-x,y,1/2-z
1/2-x,1/2-y,1/2-z
1/2+x,y,1/2-z
1/2-x,1/2+y,1/2+z
1/2+x,-y,1/2+z
loop_
_atom_site_type_symbol
_atom_site_label
_atom_site_fract_x
_atom_site_fract_y
_atom_site_fract_z
Si Si1 0.714075 0.035580 0.410145
Si Si2 0.935283 0.611669 0.025945
Si Si3 0.564092 0.862387 0.059127
Si Si4 0.832357 0.360141 0.834620
Si Si5 0.099984 0.993163 0.290838
Si Si6 0.601821 0.143099 0.339857
Si Si7 0.662416 0.635400 0.917078
O O1 0.667549 0.101691 0.359780
O O2 0.772574 0.093910 0.430840
O O3 0.689258 0.000000 0.500000
O O4 0.719464 0.934425 0.360280
O O5 0.883641 0.636238 0.092366
O O6 0.000000 0.637238 0.060637
O O7 0.935893 0.500000 0.000000
O O8 0.925519 0.653905 0.932665
O O9 0.500000 0.871219 0.015202
O O10 0.569141 0.750000 0.087292
O O11 0.565160 0.936447 0.136860
O O12 0.618036 0.881409 0.995663
O O13 0.813920 0.250000 0.823670
O O14 0.862213 0.409534 0.753794
O O15 0.071836 0.058726 0.216159
O O16 0.138175 0.074086 0.338752
O O17 0.602107 0.250000 0.299956
O O18 0.664190 0.750000 0.901776
#
# Coordination Sequence:
#
# PCOD9540088 Si02
#       7
#    16  16  16  16  16  16  16
#     4  11  21  40  64  97 128 175 219 274 321 384
#     4  11  21  40  63  90 130 178 225 266 316 380
#     4  10  23  46  74 100 129 171 220 275 343 410
#     4  11  23  40  63  95 134 178 222 268 324 386
#     4  11  23  41  62  97 135 169 211 270 327 391
#     4  11  22  38  62  94 132 178 223 265 319 382
#     4  11  25  45  70  97 127 167 218 273 335 405
#
# _framework density 22.586469999999998
#
# number of rings (size 3 to 8) (size 9 to 14) (size 15 to 20)
#    0.000    1.143    4.286    3.000    0.000    6.286 
#    0.000    5.714    0.000    2.571    0.000    0.000 
#    0.000    0.000    0.000    0.000    0.000    0.000 
#
# Total GULP energy -312673.664907 kJ/mol
# GULP energy per Si atom -5583.458302 kJ/mol
# Density = 2.253506 g / cm^3
# Si number density = 22.586470 Si / 1000 Ang^3
#
#
#
# Elastic Constant Matrix: (Units=GPa)
#
#
# Indices 1 2 3 4 5 6 
#
# 1 115.9110 36.7060 31.3838 0.0000 0.0000 0.0000
# 2 36.7060 189.8937 33.3689 0.0000 0.0000 0.0000
# 3 31.3838 33.3689 82.9170 0.0000 0.0000 0.0000
# 4 0.0000 0.0000 0.0000 28.4333 0.0000 0.0000
# 5 0.0000 0.0000 0.0000 0.0000 77.0425 0.0000
# 6 0.0000 0.0000 0.0000 0.0000 0.0000 14.5882
#
#
#
# Elastic Compliance Matrix: (Units=1/GPa)
#
#
# Indices 1 2 3 4 5 6 
#
# 1 0.009926 -0.001354 -0.003212 0.000000 0.000000 0.000000
# 2 -0.001354 0.005852 -0.001842 0.000000 0.000000 0.000000
# 3 -0.003212 -0.001842 0.014017 0.000000 0.000000 0.000000
# 4 0.000000 0.000000 0.000000 0.035170 0.000000 0.000000
# 5 0.000000 0.000000 0.000000 0.000000 0.012980 0.000000
# 6 0.000000 0.000000 0.000000 0.000000 0.000000 0.068548
#
#
# Mechanical properties :
#
#
# Convention : Reuss Voigt Hill
#
# Bulk Modulus (GPa) = 58.90019 65.73767 62.31893
# Shear Modulus (GPa) = 30.30865 43.16366 36.73616
#
# Velocity S-wave (km/s) = 3.66716 4.37629 4.03732
# Velocity P-wave (km/s) = 6.63815 7.39621 7.02741
#
# Compressibility (1/GPa) = 0.01697787
#
# Stress axis : x y z
#
# Youngs Moduli (GPa) = 100.74749 170.89294 71.34003
#
# Poissons Ratio (x) = 0.23143 0.22914
# Poissons Ratio (y) = 0.13643 0.13143
# Poissons Ratio (z) = 0.32359 0.31484
#
# Static dielectric constant tensor:
#      x y z
#    x 1.864360 0.000000 0.000000 
#    y 0.000000 1.963720 0.000000 
#    z 0.000000 0.000000 1.870540 
# 
# From -- ./inp_files/36533.got.cif
#   From: 2010.05.17/outbox.cif.g08.bks.cpg/sg74_19_cif.got.tgz:36533.got - 2010.06.03 17:57:02.
