data_PCOD9540415
_publ_section_title
;
Structure prediction by ZEFSAII (Michael W. Deem and Ramdas Pophale) SiO2 
 PCOD9540415
Probable space group: I M M A
;
_chemical_formula_sum "Si O2"
_cell_formula_units_Z 112
_cell_length_a 14.905434
_cell_length_b 14.952279
_cell_length_c 22.506735
_cell_angle_alpha 90.000000
_cell_angle_beta 90.000000
_cell_angle_gamma 90.000000
_cell_volume 5016.080706
_symmetry_space_group_name_H-M "I M M A"
_symmetry_group_IT_number 74
_symmetry_cell_setting 'orthorhombic'
loop_
_space_group_symop_operation_xyz
x,y,z
-x,1/2-y,z
x,-y,-z
-x,1/2+y,-z
-x,-y,-z
x,1/2+y,-z
-x,y,z
x,1/2-y,z
1/2+x,1/2+y,1/2+z
1/2-x,-y,1/2+z
1/2+x,1/2-y,1/2-z
1/2-x,y,1/2-z
1/2-x,1/2-y,1/2-z
1/2+x,y,1/2-z
1/2-x,1/2+y,1/2+z
1/2+x,-y,1/2+z
loop_
_atom_site_type_symbol
_atom_site_label
_atom_site_fract_x
_atom_site_fract_y
_atom_site_fract_z
Si Si1 0.234560 0.850085 0.679794
Si Si2 0.101516 0.593629 0.895660
Si Si3 0.098635 0.115405 0.882301
Si Si4 0.399654 0.008622 0.847663
Si Si5 0.357455 0.653089 0.248587
Si Si6 0.898646 0.856901 0.458188
Si Si7 0.210089 0.352608 0.996398
O O1 0.196699 0.750000 0.670660
O O2 0.250000 0.863560 0.750000
O O3 0.329895 0.855861 0.646872
O O4 0.172479 0.929681 0.655294
O O5 0.100219 0.491089 0.875754
O O6 0.144441 0.593819 0.961150
O O7 0.000000 0.628450 0.896093
O O8 0.111550 0.151696 0.816501
O O9 0.000000 0.141675 0.905723
O O10 0.175064 0.141859 0.928877
O O11 0.500000 0.970818 0.851963
O O12 0.392669 0.070121 0.788890
O O13 0.387608 0.079120 0.901348
O O14 0.382820 0.750000 0.221895
O O15 0.250000 0.646858 0.250000
O O16 0.890197 0.750000 0.443954
O O17 0.814323 0.879238 0.499993
O O18 0.000000 0.870498 0.481804
O O19 0.203397 0.250000 0.016013
#
# Coordination Sequence:
#
# PCOD9540415 Si02
#       7
#    16  16  16  16  16  16  16
#     4  11  25  44  65  89 119 158 207 264 322 377
#     4  11  24  43  67  92 119 158 208 258 312 375
#     4  11  23  37  56  86 126 167 204 251 311 372
#     4  11  22  38  62  90 124 167 212 259 311 372
#     4  11  22  36  59  92 130 170 209 253 309 374
#     4   9  19  37  62  93 128 166 207 252 308 373
#     4  11  22  37  60  89 123 163 207 256 307 365
#
# _framework density 22.328189999999999
#
# number of rings (size 3 to 8) (size 9 to 14) (size 15 to 20)
#    0.000    1.286    0.000    6.429    0.000    9.714 
#    0.000    2.143    0.000    5.143    0.000    0.000 
#    0.000    0.000    0.000    0.000    0.000    0.000 
#
# Total GULP energy -313326.276013 kJ/mol
# GULP energy per Si atom -5595.112072 kJ/mol
# Density = 2.227737 g / cm^3
# Si number density = 22.328190 Si / 1000 Ang^3
#
#
#
# Elastic Constant Matrix: (Units=GPa)
#
#
# Indices 1 2 3 4 5 6 
#
# 1 164.8615 44.6410 33.1170 0.0000 0.0000 0.0000
# 2 44.6410 102.1145 11.1934 0.0000 0.0000 0.0000
# 3 33.1170 11.1934 54.7456 0.0000 0.0000 0.0000
# 4 0.0000 0.0000 0.0000 17.0185 0.0000 0.0000
# 5 0.0000 0.0000 0.0000 0.0000 24.4109 0.0000
# 6 0.0000 0.0000 0.0000 0.0000 0.0000 8.8870
#
#
#
# Elastic Compliance Matrix: (Units=1/GPa)
#
#
# Indices 1 2 3 4 5 6 
#
# 1 0.007665 -0.002908 -0.004042 0.000000 0.000000 0.000000
# 2 -0.002908 0.011121 -0.000515 0.000000 0.000000 0.000000
# 3 -0.004042 -0.000515 0.020817 0.000000 0.000000 0.000000
# 4 0.000000 0.000000 0.000000 0.058760 0.000000 0.000000
# 5 0.000000 0.000000 0.000000 0.000000 0.040965 0.000000
# 6 0.000000 0.000000 0.000000 0.000000 0.000000 0.112524
#
#
# Mechanical properties :
#
#
# Convention : Reuss Voigt Hill
#
# Bulk Modulus (GPa) = 40.53038 55.51381 48.02209
# Shear Modulus (GPa) = 18.18144 25.58128 21.88136
#
# Velocity S-wave (km/s) = 2.85666 3.38848 3.13387
# Velocity P-wave (km/s) = 5.39186 6.34237 5.88634
#
# Compressibility (1/GPa) = 0.02467285
#
# Stress axis : x y z
#
# Youngs Moduli (GPa) = 130.46196 89.92365 48.03810
#
# Poissons Ratio (x) = 0.26148 0.19418
# Poissons Ratio (y) = 0.37936 0.02473
# Poissons Ratio (z) = 0.52736 0.04629
#
# Static dielectric constant tensor:
#      x y z
#    x 1.834190 0.000000 0.000000 
#    y 0.000000 1.830360 0.000000 
#    z 0.000000 0.000000 1.797260 
# 
# From -- ./inp_files/60170.got.cif
#   From: 2010.05.17/outbox.cif.g08.bks.cpg/sg74_31_cif.got.tgz:60170.got - 2010.06.03 17:57:02.
