data_PCOD9540567
_publ_section_title
;
Structure prediction by ZEFSAII (Michael W. Deem and Ramdas Pophale) SiO2 
 PCOD9540567
Probable space group: I M M A
;
_chemical_formula_sum "Si O2"
_cell_formula_units_Z 100
_cell_length_a 26.233653
_cell_length_b 7.420845
_cell_length_c 19.981579
_cell_angle_alpha 90.000000
_cell_angle_beta 90.000000
_cell_angle_gamma 90.000000
_cell_volume 3889.931330
_symmetry_space_group_name_H-M "I M M A"
_symmetry_group_IT_number 74
_symmetry_cell_setting 'orthorhombic'
loop_
_space_group_symop_operation_xyz
x,y,z
-x,1/2-y,z
x,-y,-z
-x,1/2+y,-z
-x,-y,-z
x,1/2+y,-z
-x,y,z
x,1/2-y,z
1/2+x,1/2+y,1/2+z
1/2-x,-y,1/2+z
1/2+x,1/2-y,1/2-z
1/2-x,y,1/2-z
1/2-x,1/2-y,1/2-z
1/2+x,y,1/2-z
1/2-x,1/2+y,1/2+z
1/2+x,-y,1/2+z
loop_
_atom_site_type_symbol
_atom_site_label
_atom_site_fract_x
_atom_site_fract_y
_atom_site_fract_z
Si Si1 0.000000 0.250000 0.127958
Si Si2 0.804368 0.962918 0.610183
Si Si3 0.413532 0.464749 0.072362
Si Si4 0.807283 0.550142 0.095677
Si Si5 0.167150 0.531005 0.757320
Si Si6 0.578996 0.966049 0.423988
Si Si7 0.555160 0.529648 0.780840
O O1 0.955461 0.408125 0.122042
O O2 0.811859 0.750000 0.614739
O O3 0.854987 0.035550 0.574114
O O4 0.807827 0.026685 0.687323
O O5 0.749193 0.986582 0.578201
O O6 0.412920 0.250000 0.078653
O O7 0.439445 0.525965 0.141062
O O8 0.436773 0.500000 0.000000
O O9 0.810528 0.750000 0.067864
O O10 0.808307 0.544991 0.176291
O O11 0.861951 0.467603 0.077765
O O12 0.170381 0.750000 0.761665
O O13 0.107757 0.475384 0.753662
O O14 0.576489 0.750000 0.409630
O O15 0.560605 0.000000 0.500000
O O16 0.500000 0.468673 0.756228
O O17 0.554441 0.750000 0.777492
#
# Coordination Sequence:
#
# PCOD9540567 Si02
#       7
#     4  16  16  16  16  16  16
#     4  12  24  44  74  86 114 166 188 240 294 352
#     4   9  19  35  56  77 108 152 190 234 283 341
#     4   9  18  32  51  79 109 142 186 228 275 329
#     4  11  24  38  54  86 120 141 181 238 284 340
#     4   9  18  34  57  81 107 146 197 233 278 347
#     4  11  25  42  64  94 119 150 199 242 290 354
#     4   8  15  31  53  77 107 143 184 233 274 323
#
# _framework density 25.707394000000001
#
# number of rings (size 3 to 8) (size 9 to 14) (size 15 to 20)
#    0.000    2.400    0.800    3.360    2.240    4.160 
#    1.440    5.600    0.000    0.960    0.000    0.000 
#    0.000    0.000    0.000    0.000    0.000    0.000 
#
# Total GULP energy -279001.657649 kJ/mol
# GULP energy per Si atom -5580.033153 kJ/mol
# Density = 2.564888 g / cm^3
# Si number density = 25.707394 Si / 1000 Ang^3
#
#
#
# Elastic Constant Matrix: (Units=GPa)
#
#
# Indices 1 2 3 4 5 6 
#
# 1 183.5137 19.9799 21.8995 0.0000 0.0000 0.0000
# 2 19.9799 113.3567 -4.4488 0.0000 0.0000 0.0000
# 3 21.8995 -4.4488 100.5907 0.0000 0.0000 0.0000
# 4 0.0000 0.0000 0.0000 10.5967 0.0000 0.0000
# 5 0.0000 0.0000 0.0000 0.0000 -28.7869 0.0000
# 6 0.0000 0.0000 0.0000 0.0000 0.0000 4.5346
#
#
#
# Elastic Compliance Matrix: (Units=1/GPa)
#
#
# Indices 1 2 3 4 5 6 
#
# 1 0.005719 -0.001059 -0.001292 0.000000 0.000000 0.000000
# 2 -0.001059 0.009033 0.000630 0.000000 0.000000 0.000000
# 3 -0.001292 0.000630 0.010250 0.000000 0.000000 0.000000
# 4 0.000000 0.000000 0.000000 0.094369 0.000000 0.000000
# 5 0.000000 0.000000 0.000000 0.000000 -0.034738 0.000000
# 6 0.000000 0.000000 0.000000 0.000000 0.000000 0.220527
#
#
# Mechanical properties :
#
#
# Convention : Reuss Voigt Hill
#
# Bulk Modulus (GPa) = 46.37993 52.48027 49.43010
# Shear Modulus (GPa) = 15.83343 21.27092 18.55218
#
# Velocity S-wave (km/s) = 2.48444 2.87962 2.68930
# Velocity P-wave (km/s) = 5.12939 5.61383 5.37706
#
# Compressibility (1/GPa) = 0.02156105
#
# Stress axis : x y z
#
# Youngs Moduli (GPa) = 174.86795 110.70485 97.55740
#
# Poissons Ratio (x) = 0.11720 0.12603
# Poissons Ratio (y) = 0.18512 -0.06146
# Poissons Ratio (z) = 0.22590 -0.06974
#
# Static dielectric constant tensor:
#      x y z
#    x 2.028830 0.000000 0.000000 
#    y 0.000000 1.988790 0.000000 
#    z 0.000000 0.000000 2.060440 
# 
# From -- ./inp_files/55244.got.cif
#   From: 2010.05.17/outbox.cif.g08.bks.cpg/sg74_28_cif.got.tgz:55244.got - 2010.06.03 17:57:02.
