data_PCOD9540512
_publ_section_title
;
Structure prediction by ZEFSAII (Michael W. Deem and Ramdas Pophale) SiO2 
 PCOD9540512
Probable space group: I M M A
;
_chemical_formula_sum "Si O2"
_cell_formula_units_Z 88
_cell_length_a 16.128246
_cell_length_b 15.999410
_cell_length_c 18.085219
_cell_angle_alpha 90.000000
_cell_angle_beta 90.000000
_cell_angle_gamma 90.000000
_cell_volume 4666.753683
_symmetry_space_group_name_H-M "I M M A"
_symmetry_group_IT_number 74
_symmetry_cell_setting 'orthorhombic'
loop_
_space_group_symop_operation_xyz
x,y,z
-x,1/2-y,z
x,-y,-z
-x,1/2+y,-z
-x,-y,-z
x,1/2+y,-z
-x,y,z
x,1/2-y,z
1/2+x,1/2+y,1/2+z
1/2-x,-y,1/2+z
1/2+x,1/2-y,1/2-z
1/2-x,y,1/2-z
1/2-x,1/2-y,1/2-z
1/2+x,y,1/2-z
1/2-x,1/2+y,1/2+z
1/2+x,-y,1/2+z
loop_
_atom_site_type_symbol
_atom_site_label
_atom_site_fract_x
_atom_site_fract_y
_atom_site_fract_z
Si Si1 0.669635 0.926503 0.295409
Si Si2 0.500000 0.848630 0.865166
Si Si3 0.809659 0.414814 0.970742
Si Si4 0.863497 0.848589 0.509697
Si Si5 0.095083 0.750000 0.027558
Si Si6 0.500000 0.350176 0.885977
Si Si7 0.500000 0.506577 0.239266
Si Si8 0.901875 0.250000 0.793696
O O1 0.750000 0.956015 0.250000
O O2 0.692320 0.918738 0.381701
O O3 0.643749 0.833430 0.267293
O O4 0.585419 0.979710 0.284464
O O5 0.500000 0.750000 0.843437
O O6 0.500000 0.917166 0.801156
O O7 0.579630 0.862522 0.918448
O O8 0.718216 0.402960 0.003952
O O9 0.860582 0.334324 0.996094
O O10 0.847880 0.500000 0.000000
O O11 0.841118 0.750000 0.508005
O O12 0.920520 0.864714 0.438221
O O13 0.101160 0.750000 0.117123
O O14 0.000000 0.750000 0.005979
O O15 0.500000 0.250000 0.869540
O O16 0.500000 0.418152 0.821429
O O17 0.000000 0.250000 0.778111
#
# Coordination Sequence:
#
# PCOD9540512 Si02
#       8
#    16   8  16  16   8   8   8   8
#     4  11  24  38  56  90 125 164 204 246 303 376
#     4   9  22  40  66  91 123 165 206 265 320 369
#     4  11  23  38  62  86 121 156 202 255 303 362
#     4   9  18  37  59  92 127 156 200 245 307 376
#     4   9  20  39  59  82 107 154 205 244 299 358
#     4   9  20  32  52  91 131 159 186 232 289 376
#     4  12  24  39  63  86 128 166 213 250 310 378
#     4   9  17  37  57  80 123 164 192 230 294 369
#
# _framework density 18.856791999999999
#
# number of rings (size 3 to 8) (size 9 to 14) (size 15 to 20)
#    0.000    2.000    1.818    2.455    7.636    1.091 
#    0.000    0.000    2.000    0.545    0.000    0.000 
#    0.000    0.000    0.000    0.000    0.000    0.000 
#
# Total GULP energy -245605.657287 kJ/mol
# GULP energy per Si atom -5581.946757 kJ/mol
# Density = 1.881387 g / cm^3
# Si number density = 18.856792 Si / 1000 Ang^3
#
#
#
# Elastic Constant Matrix: (Units=GPa)
#
#
# Indices 1 2 3 4 5 6 
#
# 1 116.5718 51.2475 13.1888 0.0000 0.0000 0.0000
# 2 51.2475 105.6347 23.4634 0.0000 0.0000 0.0000
# 3 13.1888 23.4634 21.1874 0.0000 0.0000 0.0000
# 4 0.0000 0.0000 0.0000 26.1487 0.0000 0.0000
# 5 0.0000 0.0000 0.0000 0.0000 6.8969 0.0000
# 6 0.0000 0.0000 0.0000 0.0000 0.0000 2.1658
#
#
#
# Elastic Compliance Matrix: (Units=1/GPa)
#
#
# Indices 1 2 3 4 5 6 
#
# 1 0.010928 -0.005027 -0.001235 0.000000 0.000000 0.000000
# 2 -0.005027 0.014868 -0.013335 0.000000 0.000000 0.000000
# 3 -0.001235 -0.013335 0.062734 0.000000 0.000000 0.000000
# 4 0.000000 0.000000 0.000000 0.038243 0.000000 0.000000
# 5 0.000000 0.000000 0.000000 0.000000 0.144992 0.000000
# 6 0.000000 0.000000 0.000000 0.000000 0.000000 0.461723
#
#
# Mechanical properties :
#
#
# Convention : Reuss Voigt Hill
#
# Bulk Modulus (GPa) = 20.26973 46.57704 33.42339
# Shear Modulus (GPa) = 6.33610 17.40858 11.87234
#
# Velocity S-wave (km/s) = 1.83505 3.04172 2.51192
# Velocity P-wave (km/s) = 3.90673 6.09016 5.11628
#
# Compressibility (1/GPa) = 0.04933464
#
# Stress axis : x y z
#
# Youngs Moduli (GPa) = 91.50558 67.26062 15.94020
#
# Poissons Ratio (x) = 0.33814 0.01969
# Poissons Ratio (y) = 0.46003 0.21257
# Poissons Ratio (z) = 0.11303 0.89693
#
# Static dielectric constant tensor:
#      x y z
#    x 1.660150 0.000000 0.000000 
#    y 0.000000 1.668470 0.000000 
#    z 0.000000 0.000000 1.650420 
# 
# From -- ./inp_files/51804.got.cif
#   From: 2010.05.17/outbox.cif.g08.bks.cpg/sg74_26_cif.got.tgz:51804.got - 2010.06.03 17:57:02.
