data_PCOD9540435
_publ_section_title
;
Structure prediction by ZEFSAII (Michael W. Deem and Ramdas Pophale) SiO2 
 PCOD9540435
Probable space group: I M M A
;
_chemical_formula_sum "Si O2"
_cell_formula_units_Z 52
_cell_length_a 18.624170
_cell_length_b 7.128052
_cell_length_c 14.694916
_cell_angle_alpha 90.000000
_cell_angle_beta 90.000000
_cell_angle_gamma 90.000000
_cell_volume 1950.809646
_symmetry_space_group_name_H-M "I M M A"
_symmetry_group_IT_number 74
_symmetry_cell_setting 'orthorhombic'
loop_
_space_group_symop_operation_xyz
x,y,z
-x,1/2-y,z
x,-y,-z
-x,1/2+y,-z
-x,-y,-z
x,1/2+y,-z
-x,y,z
x,1/2-y,z
1/2+x,1/2+y,1/2+z
1/2-x,-y,1/2+z
1/2+x,1/2-y,1/2-z
1/2-x,y,1/2-z
1/2-x,1/2-y,1/2-z
1/2+x,y,1/2-z
1/2-x,1/2+y,1/2+z
1/2+x,-y,1/2+z
loop_
_atom_site_type_symbol
_atom_site_label
_atom_site_fract_x
_atom_site_fract_y
_atom_site_fract_z
Si Si1 0.733253 0.037744 0.356191
Si Si2 0.000000 0.750000 0.310095
Si Si3 0.110875 0.971784 0.602759
Si Si4 0.076425 0.027864 0.108607
O O1 0.726463 0.250000 0.394098
O O2 0.750000 0.046733 0.250000
O O3 0.806311 0.960061 0.397797
O O4 0.654354 0.952590 0.365320
O O5 0.936943 0.587201 0.327752
O O6 0.110487 0.750000 0.625183
O O7 0.082842 0.000000 0.500000
O O8 0.075645 0.250000 0.129682
O O9 0.000000 0.947558 0.144571
O O10 0.073719 0.000000 0.000000
#
# Coordination Sequence:
#
# PCOD9540435 Si02
#       4
#    16   4  16  16
#     4   9  19  37  57  85 118 154 196 236 294 361
#     4  12  24  40  60  90 124 154 204 254 292 362
#     4  11  22  37  63  88 120 161 200 250 299 351
#     4   9  17  32  58  84 110 143 187 240 287 339
#
# _framework density 26.655598000000001
#
# number of rings (size 3 to 8) (size 9 to 14) (size 15 to 20)
#    0.000    2.154    1.538    1.846    0.000    0.000 
#    5.538    0.769    0.000    0.000    0.000    0.000 
#    0.000    0.000    0.000    0.000    0.000    0.000 
#
# Total GULP energy -144942.956706 kJ/mol
# GULP energy per Si atom -5574.729104 kJ/mol
# Density = 2.659493 g / cm^3
# Si number density = 26.655598 Si / 1000 Ang^3
#
#
#
# Elastic Constant Matrix: (Units=GPa)
#
#
# Indices 1 2 3 4 5 6 
#
# 1 324.7967 36.7703 23.9896 0.0000 0.0000 0.0000
# 2 36.7703 201.5916 -30.6446 0.0000 0.0000 0.0000
# 3 23.9896 -30.6446 59.2275 0.0000 0.0000 0.0000
# 4 0.0000 0.0000 0.0000 -14.0250 0.0000 0.0000
# 5 0.0000 0.0000 0.0000 0.0000 49.5745 0.0000
# 6 0.0000 0.0000 0.0000 0.0000 0.0000 98.9079
#
#
#
# Elastic Compliance Matrix: (Units=1/GPa)
#
#
# Indices 1 2 3 4 5 6 
#
# 1 0.003311 -0.000877 -0.001795 0.000000 0.000000 0.000000
# 2 -0.000877 0.005616 0.003261 0.000000 0.000000 0.000000
# 3 -0.001795 0.003261 0.019298 0.000000 0.000000 0.000000
# 4 0.000000 0.000000 0.000000 -0.071301 0.000000 0.000000
# 5 0.000000 0.000000 0.000000 0.000000 0.020172 0.000000
# 6 0.000000 0.000000 0.000000 0.000000 0.000000 0.010110
#
#
# Mechanical properties :
#
#
# Convention : Reuss Voigt Hill
#
# Bulk Modulus (GPa) = 34.00866 71.76072 52.88469
# Shear Modulus (GPa) = -1198.35998 63.92485 -567.21756
#
# Velocity S-wave (km/s) = -21.22611 4.90243 -14.60332
# Velocity P-wave (km/s) = 24.24755 7.68277 16.26221
#
# Compressibility (1/GPa) = 0.02940428
#
# Stress axis : x y z
#
# Youngs Moduli (GPa) = 302.05638 178.05872 51.81857
#
# Poissons Ratio (x) = 0.15610 0.09299
# Poissons Ratio (y) = 0.26480 -0.16897
# Poissons Ratio (z) = 0.54205 -0.58063
#
# Static dielectric constant tensor:
#      x y z
#    x 2.092080 0.000000 0.000000 
#    y 0.000000 2.037710 0.000000 
#    z 0.000000 0.000000 2.131790 
# 
# From -- ./inp_files/38770.got.cif
#   From: 2010.05.17/outbox.cif.g08.bks.cpg/sg74_20_cif.got.tgz:38770.got - 2010.06.03 17:57:02.
