data_PCOD9540137
_publ_section_title
;
Structure prediction by ZEFSAII (Michael W. Deem and Ramdas Pophale) SiO2 
 PCOD9540137
Probable space group: I M M A
;
_chemical_formula_sum "Si O2"
_cell_formula_units_Z 68
_cell_length_a 19.182352
_cell_length_b 16.583236
_cell_length_c 9.818192
_cell_angle_alpha 90.000000
_cell_angle_beta 90.000000
_cell_angle_gamma 90.000000
_cell_volume 3123.220583
_symmetry_space_group_name_H-M "I M M A"
_symmetry_group_IT_number 74
_symmetry_cell_setting 'orthorhombic'
loop_
_space_group_symop_operation_xyz
x,y,z
-x,1/2-y,z
x,-y,-z
-x,1/2+y,-z
-x,-y,-z
x,1/2+y,-z
-x,y,z
x,1/2-y,z
1/2+x,1/2+y,1/2+z
1/2-x,-y,1/2+z
1/2+x,1/2-y,1/2-z
1/2-x,y,1/2-z
1/2-x,1/2-y,1/2-z
1/2+x,y,1/2-z
1/2-x,1/2+y,1/2+z
1/2+x,-y,1/2+z
loop_
_atom_site_type_symbol
_atom_site_label
_atom_site_fract_x
_atom_site_fract_y
_atom_site_fract_z
Si Si1 0.884504 0.383349 0.721885
Si Si2 0.421143 0.571598 0.797839
Si Si3 0.302451 0.654808 0.976802
Si Si4 0.500000 0.750000 0.156759
Si Si5 0.150859 0.904602 0.974606
O O1 0.910972 0.475046 0.705311
O O2 0.814816 0.371853 0.633095
O O3 0.939496 0.320319 0.664221
O O4 0.872826 0.367829 0.881922
O O5 0.500000 0.591338 0.839651
O O6 0.362532 0.609323 0.893690
O O7 0.404971 0.603499 0.645645
O O8 0.310929 0.750000 0.962595
O O9 0.225255 0.630443 0.931421
O O10 0.160450 0.000000 0.000000
#
# Coordination Sequence:
#
# PCOD9540137 Si02
#       5
#    16  16  16   4  16
#     4  11  24  43  72  97 134 169 222 269 335 394
#     4  11  25  44  69  96 132 178 220 268 331 394
#     4  12  26  43  65  99 135 174 224 274 324 387
#     4  12  24  40  66 114 134 164 206 294 322 398
#     4  10  24  45  69  96 130 174 221 269 329 398
#
# _framework density 21.772400000000001
#
# number of rings (size 3 to 8) (size 9 to 14) (size 15 to 20)
#    0.000    0.941    2.353    3.529    4.941    9.412 
#    0.000    0.000    0.000    0.000    0.000    0.000 
#    0.000    0.000    0.000    0.000    0.000    0.000 
#
# Total GULP energy -189802.185074 kJ/mol
# GULP energy per Si atom -5582.417208 kJ/mol
# Density = 2.172284 g / cm^3
# Si number density = 21.772400 Si / 1000 Ang^3
#
#
#
# Elastic Constant Matrix: (Units=GPa)
#
#
# Indices 1 2 3 4 5 6 
#
# 1 93.0889 13.6583 -3.5698 0.0000 0.0000 0.0000
# 2 13.6583 30.1874 23.5442 0.0000 0.0000 0.0000
# 3 -3.5698 23.5442 66.9663 0.0000 0.0000 0.0000
# 4 0.0000 0.0000 0.0000 -3.0338 0.0000 0.0000
# 5 0.0000 0.0000 0.0000 0.0000 -6.8393 0.0000
# 6 0.0000 0.0000 0.0000 0.0000 0.0000 40.7598
#
#
#
# Elastic Compliance Matrix: (Units=1/GPa)
#
#
# Indices 1 2 3 4 5 6 
#
# 1 0.012085 -0.008226 0.003536 0.000000 0.000000 0.000000
# 2 -0.008226 0.051241 -0.018454 0.000000 0.000000 0.000000
# 3 0.003536 -0.018454 0.021610 0.000000 0.000000 0.000000
# 4 0.000000 0.000000 0.000000 -0.329621 0.000000 0.000000
# 5 0.000000 0.000000 0.000000 0.000000 -0.146213 0.000000
# 6 0.000000 0.000000 0.000000 0.000000 0.000000 0.024534
#
#
# Mechanical properties :
#
#
# Convention : Reuss Voigt Hill
#
# Bulk Modulus (GPa) = 25.87432 28.61201 27.24317
# Shear Modulus (GPa) = -16.27636 16.61798 0.17081
#
# Velocity S-wave (km/s) = -2.73714 2.76571 0.28040
# Velocity P-wave (km/s) = 1.38585 4.83413 3.55594
#
# Compressibility (1/GPa) = 0.03864836
#
# Stress axis : x y z
#
# Youngs Moduli (GPa) = 82.74736 19.51549 46.27588
#
# Poissons Ratio (x) = 0.16053 -0.16365
# Poissons Ratio (y) = 0.68068 0.85398
# Poissons Ratio (z) = -0.29262 0.36014
#
# Static dielectric constant tensor:
#      x y z
#    x 1.795390 0.000000 0.000000 
#    y 0.000000 1.742250 0.000000 
#    z 0.000000 0.000000 1.845790 
# 
# From -- ./inp_files/10400.got.cif
#   From: 2010.05.17/outbox.cif.g08.bks.cpg/sg74_6_cif.got.tgz:10400.got - 2010.06.03 17:57:02.
