data_PCOD9540508
_publ_section_title
;
Structure prediction by ZEFSAII (Michael W. Deem and Ramdas Pophale) SiO2 
 PCOD9540508
Probable space group: I M M A
;
_chemical_formula_sum "Si O2"
_cell_formula_units_Z 84
_cell_length_a 18.946282
_cell_length_b 11.674443
_cell_length_c 22.246286
_cell_angle_alpha 90.000000
_cell_angle_beta 90.000000
_cell_angle_gamma 90.000000
_cell_volume 4920.595697
_symmetry_space_group_name_H-M "I M M A"
_symmetry_group_IT_number 74
_symmetry_cell_setting 'orthorhombic'
loop_
_space_group_symop_operation_xyz
x,y,z
-x,1/2-y,z
x,-y,-z
-x,1/2+y,-z
-x,-y,-z
x,1/2+y,-z
-x,y,z
x,1/2-y,z
1/2+x,1/2+y,1/2+z
1/2-x,-y,1/2+z
1/2+x,1/2-y,1/2-z
1/2-x,y,1/2-z
1/2-x,1/2-y,1/2-z
1/2+x,y,1/2-z
1/2-x,1/2+y,1/2+z
1/2+x,-y,1/2+z
loop_
_atom_site_type_symbol
_atom_site_label
_atom_site_fract_x
_atom_site_fract_y
_atom_site_fract_z
Si Si1 0.238953 0.887096 0.835109
Si Si2 0.000000 0.120217 0.236651
Si Si3 0.129794 0.750000 0.102170
Si Si4 0.357325 0.001112 0.768968
Si Si5 0.845150 0.988723 0.070993
Si Si6 0.000000 0.936638 0.902859
Si Si7 0.585559 0.250000 0.740449
Si Si8 0.500000 0.250000 0.508092
O O1 0.243824 0.750000 0.824404
O O2 0.313087 0.952152 0.825256
O O3 0.187516 0.950273 0.787229
O O4 0.201480 0.913952 0.897997
O O5 0.000000 0.117095 0.163625
O O6 0.000000 0.250000 0.256015
O O7 0.067804 0.057772 0.261773
O O8 0.176261 0.636786 0.093144
O O9 0.094872 0.750000 0.167969
O O10 0.069069 0.750000 0.050241
O O11 0.374078 0.136175 0.764269
O O12 0.926713 0.996758 0.092272
O O13 0.842846 0.000000 0.000000
O O14 0.000000 0.854986 0.961191
O O15 0.500000 0.250000 0.753055
#
# Coordination Sequence:
#
# PCOD9540508 Si02
#       8
#    16   8   8  16  16   8   8   4
#     4  11  24  41  58  82 117 153 200 245 292 343
#     4  12  20  33  59  85 116 151 201 245 292 332
#     4  12  22  35  50  78 119 155 204 233 275 335
#     4  11  23  38  59  84 113 154 195 244 299 345
#     4  12  25  37  55  82 115 162 202 239 283 334
#     4  12  22  34  49  86 113 160 207 239 274 317
#     4  12  22  38  58  87 121 149 195 243 290 350
#     4  12  22  32  52  72 128 160 208 244 264 318
#
# _framework density 17.071103999999998
#
# number of rings (size 3 to 8) (size 9 to 14) (size 15 to 20)
#    0.000    0.381    7.619    3.143    2.667    2.286 
#    0.000    0.000    0.000    0.000    0.000    0.667 
#    0.000    0.000    0.000    0.000    0.000    0.000 
#
# Total GULP energy -234413.557986 kJ/mol
# GULP energy per Si atom -5581.275190 kJ/mol
# Density = 1.703225 g / cm^3
# Si number density = 17.071104 Si / 1000 Ang^3
#
#
#
# Elastic Constant Matrix: (Units=GPa)
#
#
# Indices 1 2 3 4 5 6 
#
# 1 103.4233 50.9777 36.2679 0.0000 0.0000 0.0000
# 2 50.9777 169.9914 22.2393 0.0000 0.0000 0.0000
# 3 36.2679 22.2393 49.8349 0.0000 0.0000 0.0000
# 4 0.0000 0.0000 0.0000 21.9215 0.0000 0.0000
# 5 0.0000 0.0000 0.0000 0.0000 3.0614 0.0000
# 6 0.0000 0.0000 0.0000 0.0000 0.0000 28.0774
#
#
#
# Elastic Compliance Matrix: (Units=1/GPa)
#
#
# Indices 1 2 3 4 5 6 
#
# 1 0.014396 -0.003129 -0.009080 0.000000 0.000000 0.000000
# 2 -0.003129 0.006928 -0.000814 0.000000 0.000000 0.000000
# 3 -0.009080 -0.000814 0.027038 0.000000 0.000000 0.000000
# 4 0.000000 0.000000 0.000000 0.045617 0.000000 0.000000
# 5 0.000000 0.000000 0.000000 0.000000 0.326648 0.000000
# 6 0.000000 0.000000 0.000000 0.000000 0.000000 0.035616
#
#
# Mechanical properties :
#
#
# Convention : Reuss Voigt Hill
#
# Bulk Modulus (GPa) = 44.81506 60.24661 52.53084
# Shear Modulus (GPa) = 10.20976 24.86303 17.53640
#
# Velocity S-wave (km/s) = 2.44821 3.82047 3.20856
# Velocity P-wave (km/s) = 5.85667 7.40470 6.67571
#
# Compressibility (1/GPa) = 0.02231393
#
# Stress axis : x y z
#
# Youngs Moduli (GPa) = 69.46615 144.35147 36.98527
#
# Poissons Ratio (x) = 0.45169 0.33583
# Poissons Ratio (y) = 0.21736 0.03012
# Poissons Ratio (z) = 0.63076 0.11754
#
# Static dielectric constant tensor:
#      x y z
#    x 1.572090 0.000000 0.000000 
#    y 0.000000 1.667310 0.000000 
#    z 0.000000 0.000000 1.585520 
# 
# From -- ./inp_files/60760.got.cif
#   From: 2010.05.17/outbox.cif.g08.bks.cpg/sg74_31_cif.got.tgz:60760.got - 2010.06.03 17:57:02.
