data_PCOD9540359
_publ_section_title
;
Structure prediction by ZEFSAII (Michael W. Deem and Ramdas Pophale) SiO2 
 PCOD9540359
Probable space group: I M M A
;
_chemical_formula_sum "Si O2"
_cell_formula_units_Z 64
_cell_length_a 12.252765
_cell_length_b 14.394132
_cell_length_c 18.217981
_cell_angle_alpha 90.000000
_cell_angle_beta 90.000000
_cell_angle_gamma 90.000000
_cell_volume 3213.067357
_symmetry_space_group_name_H-M "I M M A"
_symmetry_group_IT_number 74
_symmetry_cell_setting 'orthorhombic'
loop_
_space_group_symop_operation_xyz
x,y,z
-x,1/2-y,z
x,-y,-z
-x,1/2+y,-z
-x,-y,-z
x,1/2+y,-z
-x,y,z
x,1/2-y,z
1/2+x,1/2+y,1/2+z
1/2-x,-y,1/2+z
1/2+x,1/2-y,1/2-z
1/2-x,y,1/2-z
1/2-x,1/2-y,1/2-z
1/2+x,y,1/2-z
1/2-x,1/2+y,1/2+z
1/2+x,-y,1/2+z
loop_
_atom_site_type_symbol
_atom_site_label
_atom_site_fract_x
_atom_site_fract_y
_atom_site_fract_z
Si Si1 0.000000 0.146247 0.133193
Si Si2 0.875537 0.894006 0.528668
Si Si3 0.500000 0.894318 0.470284
Si Si4 0.227192 0.148197 0.892363
Si Si5 0.768543 0.944269 0.834246
O O1 0.107815 0.087230 0.150519
O O2 0.000000 0.250000 0.167453
O O3 0.000000 0.158634 0.046260
O O4 0.807183 0.848866 0.462871
O O5 0.808870 0.894738 0.605115
O O6 0.000000 0.860654 0.537018
O O7 0.880901 0.000000 0.500000
O O8 0.393158 0.870278 0.424492
O O9 0.500000 0.000000 0.500000
O O10 0.232202 0.250000 0.855855
O O11 0.250856 0.055173 0.845779
O O12 0.750000 0.919290 0.750000
#
# Coordination Sequence:
#
# PCOD9540359 Si02
#       5
#     8  16   8  16  16
#     4  12  24  41  64  89 117 152 203 256 302 355
#     4   9  19  37  58  83 115 158 204 245 288 339
#     4  12  18  37  65  94 119 149 198 256 305 346
#     4  11  21  37  63  93 123 157 201 250 297 357
#     4  11  24  40  62  89 124 163 197 242 306 365
#
# _framework density 19.918659999999999
#
# number of rings (size 3 to 8) (size 9 to 14) (size 15 to 20)
#    0.000    1.250    5.000    1.875    1.750    1.500 
#    0.000    0.000    0.000    0.000    0.000    0.000 
#    0.000    0.000    0.000    0.000    0.000    0.000 
#
# Total GULP energy -178492.111297 kJ/mol
# GULP energy per Si atom -5577.878478 kJ/mol
# Density = 1.987332 g / cm^3
# Si number density = 19.918660 Si / 1000 Ang^3
#
#
#
# Elastic Constant Matrix: (Units=GPa)
#
#
# Indices 1 2 3 4 5 6 
#
# 1 141.6468 2.0810 28.1471 0.0000 0.0000 0.0000
# 2 2.0810 113.8588 -15.8423 0.0000 0.0000 0.0000
# 3 28.1471 -15.8423 82.6134 0.0000 0.0000 0.0000
# 4 0.0000 0.0000 0.0000 6.3767 0.0000 0.0000
# 5 0.0000 0.0000 0.0000 0.0000 -16.0491 0.0000
# 6 0.0000 0.0000 0.0000 0.0000 0.0000 366.0076
#
#
#
# Elastic Compliance Matrix: (Units=1/GPa)
#
#
# Indices 1 2 3 4 5 6 
#
# 1 0.007602 -0.000513 -0.002688 0.000000 0.000000 0.000000
# 2 -0.000513 0.009058 0.001912 0.000000 0.000000 0.000000
# 3 -0.002688 0.001912 0.013387 0.000000 0.000000 0.000000
# 4 0.000000 0.000000 0.000000 0.156821 0.000000 0.000000
# 5 0.000000 0.000000 0.000000 0.000000 -0.062309 0.000000
# 6 0.000000 0.000000 0.000000 0.000000 0.000000 0.002732
#
#
# Mechanical properties :
#
#
# Convention : Reuss Voigt Hill
#
# Bulk Modulus (GPa) = 36.40606 40.76562 38.58584
# Shear Modulus (GPa) = 35.96445 92.84924 64.40685
#
# Velocity S-wave (km/s) = 4.25380 6.83487 5.69255
# Velocity P-wave (km/s) = 6.51487 9.09932 7.91332
#
# Compressibility (1/GPa) = 0.02746795
#
# Stress axis : x y z
#
# Youngs Moduli (GPa) = 131.55218 110.39724 74.69873
#
# Poissons Ratio (x) = 0.05663 0.20081
# Poissons Ratio (y) = 0.06748 -0.14281
# Poissons Ratio (z) = 0.35365 -0.21106
#
# Static dielectric constant tensor:
#      x y z
#    x 1.671090 0.000000 0.000000 
#    y 0.000000 1.792030 0.000000 
#    z 0.000000 0.000000 1.662940 
# 
# From -- ./inp_files/40731.got.cif
#   From: 2010.05.17/outbox.cif.g08.bks.cpg/sg74_21_cif.got.tgz:40731.got - 2010.06.03 17:57:02.
