data_PCOD9540777
_publ_section_title
;
Structure prediction by ZEFSAII (Michael W. Deem and Ramdas Pophale) SiO2 
 PCOD9540777
Probable space group: I M M A
;
_chemical_formula_sum "Si O2"
_cell_formula_units_Z 80
_cell_length_a 7.727317
_cell_length_b 14.642453
_cell_length_c 35.485652
_cell_angle_alpha 90.000000
_cell_angle_beta 90.000000
_cell_angle_gamma 90.000000
_cell_volume 4015.090666
_symmetry_space_group_name_H-M "I M M A"
_symmetry_group_IT_number 74
_symmetry_cell_setting 'orthorhombic'
loop_
_space_group_symop_operation_xyz
x,y,z
-x,1/2-y,z
x,-y,-z
-x,1/2+y,-z
-x,-y,-z
x,1/2+y,-z
-x,y,z
x,1/2-y,z
1/2+x,1/2+y,1/2+z
1/2-x,-y,1/2+z
1/2+x,1/2-y,1/2-z
1/2-x,y,1/2-z
1/2-x,1/2-y,1/2-z
1/2+x,y,1/2-z
1/2-x,1/2+y,1/2+z
1/2+x,-y,1/2+z
loop_
_atom_site_type_symbol
_atom_site_label
_atom_site_fract_x
_atom_site_fract_y
_atom_site_fract_z
Si Si1 0.794417 0.355771 0.018280
Si Si2 0.287140 0.968226 0.136127
Si Si3 0.292053 0.854247 0.207583
Si Si4 0.795971 0.852697 0.600495
Si Si5 0.207645 0.645265 0.436621
O O1 0.730262 0.250000 0.016257
O O2 0.722133 0.390684 0.057795
O O3 0.000000 0.355585 0.021936
O O4 0.751474 0.396465 0.977528
O O5 0.500000 0.968674 0.136174
O O6 0.229206 0.920168 0.174486
O O7 0.231440 0.909706 0.099723
O O8 0.226816 0.071607 0.129023
O O9 0.500000 0.850529 0.204383
O O10 0.226765 0.750000 0.202843
O O11 0.250000 0.884223 0.250000
O O12 0.720709 0.750000 0.601997
O O13 0.000000 0.844666 0.607630
O O14 0.274031 0.750000 0.435410
O O15 0.000000 0.648993 0.434498
#
# Coordination Sequence:
#
# PCOD9540777 Si02
#       5
#    16  16  16  16  16
#     4   9  17  29  43  60  87 121 151 183 225 265
#     4   9  17  29  47  69  89 112 146 185 220 256
#     4   9  17  31  51  73  96 119 141 169 211 264
#     4   9  17  30  47  64  83 113 154 192 220 250
#     4   9  16  27  44  64  86 114 148 184 220 260
#
# _framework density 19.924831000000001
#
# number of rings (size 3 to 8) (size 9 to 14) (size 15 to 20)
#    0.000    3.000    0.000    1.200    0.000    5.600 
#    0.000    7.000    0.000    5.400    0.000    0.000 
#    0.000    0.000    0.000    0.000    0.000    0.000 
#
# Total GULP energy -223075.487589 kJ/mol
# GULP energy per Si atom -5576.887190 kJ/mol
# Density = 1.987948 g / cm^3
# Si number density = 19.924831 Si / 1000 Ang^3
#
#
#
# Elastic Constant Matrix: (Units=GPa)
#
#
# Indices 1 2 3 4 5 6 
#
# 1 29.0917 4.9801 -0.2853 0.0000 0.0000 0.0000
# 2 4.9801 106.7501 94.8270 0.0000 0.0000 0.0000
# 3 -0.2853 94.8270 169.6947 0.0000 0.0000 0.0000
# 4 0.0000 0.0000 0.0000 32.8967 0.0000 0.0000
# 5 0.0000 0.0000 0.0000 0.0000 14.7455 0.0000
# 6 0.0000 0.0000 0.0000 0.0000 0.0000 2.3854
#
#
#
# Elastic Compliance Matrix: (Units=1/GPa)
#
#
# Indices 1 2 3 4 5 6 
#
# 1 0.034965 -0.003343 0.001927 0.000000 0.000000 0.000000
# 2 -0.003343 0.018921 -0.010579 0.000000 0.000000 0.000000
# 3 0.001927 -0.010579 0.011808 0.000000 0.000000 0.000000
# 4 0.000000 0.000000 0.000000 0.030398 0.000000 0.000000
# 5 0.000000 0.000000 0.000000 0.000000 0.067817 0.000000
# 6 0.000000 0.000000 0.000000 0.000000 0.000000 0.419212
#
#
# Mechanical properties :
#
#
# Convention : Reuss Voigt Hill
#
# Bulk Modulus (GPa) = 23.97837 56.06444 40.02140
# Shear Modulus (GPa) = 8.05137 23.73983 15.89560
#
# Velocity S-wave (km/s) = 2.01237 3.45551 2.82756
# Velocity P-wave (km/s) = 4.17852 6.64227 5.54887
#
# Compressibility (1/GPa) = 0.04170425
#
# Stress axis : x y z
#
# Youngs Moduli (GPa) = 28.59984 52.85192 84.69071
#
# Poissons Ratio (x) = 0.17667 -0.16317
# Poissons Ratio (y) = 0.09560 0.89592
# Poissons Ratio (z) = -0.05510 0.55911
#
# Static dielectric constant tensor:
#      x y z
#    x 1.722340 0.000000 0.000000 
#    y 0.000000 1.758930 0.000000 
#    z 0.000000 0.000000 1.683460 
# 
# From -- ./inp_files/63970.got.cif
#   From: 2010.05.17/outbox.cif.g08.bks.cpg/sg74_32_cif.got.tgz:63970.got - 2010.06.03 17:57:02.
