data_PCOD9540509
_publ_section_title
;
Structure prediction by ZEFSAII (Michael W. Deem and Ramdas Pophale) SiO2 
 PCOD9540509
Probable space group: I M M A
;
_chemical_formula_sum "Si O2"
_cell_formula_units_Z 64
_cell_length_a 13.531264
_cell_length_b 8.688666
_cell_length_c 27.528466
_cell_angle_alpha 90.000000
_cell_angle_beta 90.000000
_cell_angle_gamma 90.000000
_cell_volume 3236.484129
_symmetry_space_group_name_H-M "I M M A"
_symmetry_group_IT_number 74
_symmetry_cell_setting 'orthorhombic'
loop_
_space_group_symop_operation_xyz
x,y,z
-x,1/2-y,z
x,-y,-z
-x,1/2+y,-z
-x,-y,-z
x,1/2+y,-z
-x,y,z
x,1/2-y,z
1/2+x,1/2+y,1/2+z
1/2-x,-y,1/2+z
1/2+x,1/2-y,1/2-z
1/2-x,y,1/2-z
1/2-x,1/2-y,1/2-z
1/2+x,y,1/2-z
1/2-x,1/2+y,1/2+z
1/2+x,-y,1/2+z
loop_
_atom_site_type_symbol
_atom_site_label
_atom_site_fract_x
_atom_site_fract_y
_atom_site_fract_z
Si Si1 0.215126 0.434900 0.947529
Si Si2 0.358582 0.575226 0.229437
Si Si3 0.000000 0.436736 0.082718
Si Si4 0.385838 0.434663 0.123054
Si Si5 0.000000 0.431980 0.194130
O O1 0.211107 0.250000 0.947479
O O2 0.103854 0.499835 0.938075
O O3 0.297770 0.490730 0.908735
O O4 0.245837 0.500000 0.000000
O O5 0.393558 0.750000 0.221848
O O6 0.250000 0.583884 0.250000
O O7 0.371455 0.485919 0.179000
O O8 0.411417 0.491622 0.273646
O O9 0.000000 0.486861 0.139108
O O10 0.000000 0.250000 0.078318
O O11 0.500000 0.476700 0.109002
O O12 0.377481 0.250000 0.119468
O O13 0.000000 0.250000 0.191913
#
# Coordination Sequence:
#
# PCOD9540509 Si02
#       5
#    16  16   8  16   8
#     4  12  26  45  70  98 131 172 221 276 338 399
#     4  11  23  38  60  91 128 169 214 265 318 381
#     4  11  24  44  69  99 136 173 219 276 335 398
#     4  11  24  43  67  96 132 174 222 274 331 395
#     4  11  23  38  60  91 126 169 210 254 313 382
#
# _framework density 19.774546000000001
#
# number of rings (size 3 to 8) (size 9 to 14) (size 15 to 20)
#    0.000    0.750    1.250    6.375    0.000   10.000 
#    0.000    0.000    0.000    0.000    0.000    0.000 
#    0.000    0.000    0.000    0.000    0.000    0.000 
#
# Total GULP energy -178718.853285 kJ/mol
# GULP energy per Si atom -5584.964165 kJ/mol
# Density = 1.972954 g / cm^3
# Si number density = 19.774546 Si / 1000 Ang^3
#
#
#
# Elastic Constant Matrix: (Units=GPa)
#
#
# Indices 1 2 3 4 5 6 
#
# 1 148.5415 43.8272 32.8672 0.0000 0.0000 0.0000
# 2 43.8272 103.6713 31.5617 0.0000 0.0000 0.0000
# 3 32.8672 31.5617 103.9595 0.0000 0.0000 0.0000
# 4 0.0000 0.0000 0.0000 37.9034 0.0000 0.0000
# 5 0.0000 0.0000 0.0000 0.0000 39.4318 0.0000
# 6 0.0000 0.0000 0.0000 0.0000 0.0000 32.9370
#
#
#
# Elastic Compliance Matrix: (Units=1/GPa)
#
#
# Indices 1 2 3 4 5 6 
#
# 1 0.007938 -0.002856 -0.001643 0.000000 0.000000 0.000000
# 2 -0.002856 0.011656 -0.002636 0.000000 0.000000 0.000000
# 3 -0.001643 -0.002636 0.010939 0.000000 0.000000 0.000000
# 4 0.000000 0.000000 0.000000 0.026383 0.000000 0.000000
# 5 0.000000 0.000000 0.000000 0.000000 0.025360 0.000000
# 6 0.000000 0.000000 0.000000 0.000000 0.000000 0.030361
#
#
# Mechanical properties :
#
#
# Convention : Reuss Voigt Hill
#
# Bulk Modulus (GPa) = 61.48529 63.63162 62.55845
# Shear Modulus (GPa) = 37.78540 38.58219 38.18379
#
# Velocity S-wave (km/s) = 4.37602 4.42192 4.39903
# Velocity P-wave (km/s) = 7.52950 7.63673 7.58330
#
# Compressibility (1/GPa) = 0.01626405
#
# Stress axis : x y z
#
# Youngs Moduli (GPa) = 125.97314 85.79580 91.41884
#
# Poissons Ratio (x) = 0.24501 0.15017
# Poissons Ratio (y) = 0.35975 0.24095
# Poissons Ratio (z) = 0.20693 0.22613
#
# Static dielectric constant tensor:
#      x y z
#    x 1.678240 0.000000 0.000000 
#    y 0.000000 1.674700 0.000000 
#    z 0.000000 0.000000 1.669350 
# 
# From -- ./inp_files/59523.got.cif
#   From: 2010.05.17/outbox.cif.g08.bks.cpg/sg74_30_cif.got.tgz:59523.got - 2010.06.03 17:57:02.
