data_PCOD9540086
_publ_section_title
;
Structure prediction by ZEFSAII (Michael W. Deem and Ramdas Pophale) SiO2 
 PCOD9540086
Probable space group: I M M A
;
_chemical_formula_sum "Si O2"
_cell_formula_units_Z 56
_cell_length_a 25.452105
_cell_length_b 10.081813
_cell_length_c 11.089454
_cell_angle_alpha 90.000000
_cell_angle_beta 90.000000
_cell_angle_gamma 90.000000
_cell_volume 2845.591191
_symmetry_space_group_name_H-M "I M M A"
_symmetry_group_IT_number 74
_symmetry_cell_setting 'orthorhombic'
loop_
_space_group_symop_operation_xyz
x,y,z
-x,1/2-y,z
x,-y,-z
-x,1/2+y,-z
-x,-y,-z
x,1/2+y,-z
-x,y,z
x,1/2-y,z
1/2+x,1/2+y,1/2+z
1/2-x,-y,1/2+z
1/2+x,1/2-y,1/2-z
1/2-x,y,1/2-z
1/2-x,1/2-y,1/2-z
1/2+x,y,1/2-z
1/2-x,1/2+y,1/2+z
1/2+x,-y,1/2+z
loop_
_atom_site_type_symbol
_atom_site_label
_atom_site_fract_x
_atom_site_fract_y
_atom_site_fract_z
Si Si1 0.745982 0.750000 0.936491
Si Si2 0.387968 0.534825 0.279240
Si Si3 0.637588 0.750000 0.819452
Si Si4 0.500000 0.402570 0.613606
Si Si5 0.852097 0.750000 0.408601
Si Si6 0.315066 0.000000 0.500000
O O1 0.709374 0.750000 0.057077
O O2 0.780055 0.616828 0.942331
O O3 0.701336 0.750000 0.832547
O O4 0.381831 0.381015 0.246097
O O5 0.447511 0.571411 0.310224
O O6 0.367298 0.622417 0.168713
O O7 0.352112 0.560573 0.396445
O O8 0.620540 0.750000 0.960127
O O9 0.500000 0.250000 0.572756
O O10 0.500000 0.500000 0.500000
#
# Coordination Sequence:
#
# PCOD9540086 Si02
#       6
#     8  16   8   8   8   8
#     4  10  24  42  62 102 140 178 232 260 350 392
#     4  12  24  44  71  97 142 170 237 281 342 401
#     4  10  25  44  66  98 141 184 222 282 327 406
#     4  12  28  48  73 105 134 176 219 286 348 400
#     4  10  23  46  64  94 141 186 218 284 325 408
#     4  12  24  37  68 106 126 189 218 282 346 400
#
# _framework density 19.679566999999999
#
# number of rings (size 3 to 8) (size 9 to 14) (size 15 to 20)
#    0.857    0.000    2.857    4.286    2.000    6.857 
#    0.000    4.286    0.000    0.000    0.000    0.000 
#    0.000    0.000    0.000    0.000    0.000    0.000 
#
# Total GULP energy -156533.913019 kJ/mol
# GULP energy per Si atom -5590.496894 kJ/mol
# Density = 1.963478 g / cm^3
# Si number density = 19.679567 Si / 1000 Ang^3
#
#
#
# Elastic Constant Matrix: (Units=GPa)
#
#
# Indices 1 2 3 4 5 6 
#
# 1 125.2487 32.9811 18.2817 0.0000 0.0000 0.0000
# 2 32.9811 130.7947 4.6512 0.0000 0.0000 0.0000
# 3 18.2817 4.6512 63.8056 0.0000 0.0000 0.0000
# 4 0.0000 0.0000 0.0000 49.4526 0.0000 0.0000
# 5 0.0000 0.0000 0.0000 0.0000 -1.3028 0.0000
# 6 0.0000 0.0000 0.0000 0.0000 0.0000 -478.5387
#
#
#
# Elastic Compliance Matrix: (Units=1/GPa)
#
#
# Indices 1 2 3 4 5 6 
#
# 1 0.008902 -0.002160 -0.002393 0.000000 0.000000 0.000000
# 2 -0.002160 0.008189 0.000022 0.000000 0.000000 0.000000
# 3 -0.002393 0.000022 0.016357 0.000000 0.000000 0.000000
# 4 0.000000 0.000000 0.000000 0.020221 0.000000 0.000000
# 5 0.000000 0.000000 0.000000 0.000000 -0.767584 0.000000
# 6 0.000000 0.000000 0.000000 0.000000 0.000000 -0.002090
#
#
# Mechanical properties :
#
#
# Convention : Reuss Voigt Hill
#
# Bulk Modulus (GPa) = 41.00699 47.96412 44.48555
# Shear Modulus (GPa) = -7.15498 -68.48211 -37.81854
#
# Velocity S-wave (km/s) = -1.90883 -5.90543 -4.38849
# Velocity P-wave (km/s) = 4.00305 4.69823 1.73911
#
# Compressibility (1/GPa) = 0.02438609
#
# Stress axis : x y z
#
# Youngs Moduli (GPa) = 112.33272 122.10958 61.13697
#
# Poissons Ratio (x) = 0.26371 0.14631
# Poissons Ratio (y) = 0.24260 -0.00133
# Poissons Ratio (z) = 0.26884 -0.00266
#
# Static dielectric constant tensor:
#      x y z
#    x 1.676110 0.000000 0.000000 
#    y 0.000000 1.659720 0.000000 
#    z 0.000000 0.000000 1.697100 
# 
# From -- ./inp_files/24670.got.cif
#   From: 2010.05.17/outbox.cif.g08.bks.cpg/sg74_13_cif.got.tgz:24670.got - 2010.06.03 17:57:02.
