data_PCOD9540072
_publ_section_title
;
Structure prediction by ZEFSAII (Michael W. Deem and Ramdas Pophale) SiO2 
 PCOD9540072
Probable space group: I M M A
;
_chemical_formula_sum "Si O2"
_cell_formula_units_Z 68
_cell_length_a 14.393547
_cell_length_b 20.884278
_cell_length_c 9.609439
_cell_angle_alpha 90.000000
_cell_angle_beta 90.000000
_cell_angle_gamma 90.000000
_cell_volume 2888.586187
_symmetry_space_group_name_H-M "I M M A"
_symmetry_group_IT_number 74
_symmetry_cell_setting 'orthorhombic'
loop_
_space_group_symop_operation_xyz
x,y,z
-x,1/2-y,z
x,-y,-z
-x,1/2+y,-z
-x,-y,-z
x,1/2+y,-z
-x,y,z
x,1/2-y,z
1/2+x,1/2+y,1/2+z
1/2-x,-y,1/2+z
1/2+x,1/2-y,1/2-z
1/2-x,y,1/2-z
1/2-x,1/2-y,1/2-z
1/2+x,y,1/2-z
1/2-x,1/2+y,1/2+z
1/2+x,-y,1/2+z
loop_
_atom_site_type_symbol
_atom_site_label
_atom_site_fract_x
_atom_site_fract_y
_atom_site_fract_z
Si Si1 0.350224 0.250000 0.329943
Si Si2 0.106825 0.147310 0.621438
Si Si3 0.137668 0.990200 0.260482
Si Si4 0.348894 0.130735 0.177918
Si Si5 0.000000 0.500000 0.000000
Si Si6 0.112469 0.250000 0.849465
O O1 0.250000 0.250000 0.250000
O O2 0.395954 0.184653 0.273692
O O3 0.346676 0.250000 0.496078
O O4 0.111336 0.072512 0.654085
O O5 0.160051 0.157508 0.477528
O O6 0.137641 0.188673 0.754454
O O7 0.000000 0.166192 0.593932
O O8 0.250000 0.987301 0.250000
O O9 0.109884 0.059496 0.323038
O O10 0.081876 0.985671 0.116731
O O11 0.250000 0.120703 0.250000
O O12 0.000000 0.250000 0.867735
#
# Coordination Sequence:
#
# PCOD9540072 Si02
#       6
#     8  16  16  16   4   8
#     4  10  23  44  68  97 137 185 236 289 362 439
#     4  11  24  46  70 105 142 190 244 306 369 438
#     4  11  27  44  76 108 153 193 249 305 378 448
#     4  10  24  43  68 100 144 186 237 297 365 440
#     4  12  28  48  74 116 160 200 250 314 388 450
#     4  10  25  44  70 101 141 187 242 303 369 439
#
# _framework density 23.540925999999999
#
# number of rings (size 3 to 8) (size 9 to 14) (size 15 to 20)
#    0.000    1.412    1.176    1.412   11.529    3.765 
#    0.000    5.294    0.000    0.000    0.000    0.000 
#    0.000    0.000    0.000    0.000    0.000    0.000 
#
# Total GULP energy -189452.237169 kJ/mol
# GULP energy per Si atom -5572.124623 kJ/mol
# Density = 2.348735 g / cm^3
# Si number density = 23.540926 Si / 1000 Ang^3
#
#
#
# Elastic Constant Matrix: (Units=GPa)
#
#
# Indices 1 2 3 4 5 6 
#
# 1 150.0785 3.9342 56.3219 0.0000 0.0000 0.0000
# 2 3.9342 167.9970 57.2713 0.0000 0.0000 0.0000
# 3 56.3219 57.2713 235.7244 0.0000 0.0000 0.0000
# 4 0.0000 0.0000 0.0000 -15.9425 0.0000 0.0000
# 5 0.0000 0.0000 0.0000 0.0000 43.7958 0.0000
# 6 0.0000 0.0000 0.0000 0.0000 0.0000 19.9616
#
#
#
# Elastic Compliance Matrix: (Units=1/GPa)
#
#
# Indices 1 2 3 4 5 6 
#
# 1 0.007353 0.000465 -0.001870 0.000000 0.000000 0.000000
# 2 0.000465 0.006519 -0.001695 0.000000 0.000000 0.000000
# 3 -0.001870 -0.001695 0.005101 0.000000 0.000000 0.000000
# 4 0.000000 0.000000 0.000000 -0.062725 0.000000 0.000000
# 5 0.000000 0.000000 0.000000 0.000000 0.022833 0.000000
# 6 0.000000 0.000000 0.000000 0.000000 0.000000 0.050096
#
#
# Mechanical properties :
#
#
# Convention : Reuss Voigt Hill
#
# Bulk Modulus (GPa) = 78.28636 87.65051 82.96843
# Shear Modulus (GPa) = 126.15345 38.64782 82.40063
#
# Velocity S-wave (km/s) = 7.32839 4.05622 5.92276
# Velocity P-wave (km/s) = 10.24377 7.69749 9.06052
#
# Compressibility (1/GPa) = 0.01277362
#
# Stress axis : x y z
#
# Youngs Moduli (GPa) = 136.00446 153.38662 196.04586
#
# Poissons Ratio (x) = -0.07136 0.36657
# Poissons Ratio (y) = -0.06328 0.33232
# Poissons Ratio (z) = 0.25430 0.26001
#
# Static dielectric constant tensor:
#      x y z
#    x 2.078880 0.000000 0.000000 
#    y 0.000000 1.976020 0.000000 
#    z 0.000000 0.000000 1.840390 
# 
# From -- ./inp_files/10488.got.cif
#   From: 2010.05.17/outbox.cif.g08.bks.cpg/sg74_6_cif.got.tgz:10488.got - 2010.06.03 17:57:02.
