data_PCOD9540944
_publ_section_title
;
Structure prediction by ZEFSAII (Michael W. Deem and Ramdas Pophale) SiO2 
 PCOD9540944
Probable space group: I M M A
;
_chemical_formula_sum "Si O2"
_cell_formula_units_Z 28
_cell_length_a 12.000000
_cell_length_b 9.000000
_cell_length_c 27.000000
_cell_angle_alpha 90.000000
_cell_angle_beta 90.000000
_cell_angle_gamma 90.000000
_cell_volume 2916.000000
_symmetry_space_group_name_H-M "I M M A"
_symmetry_group_IT_number 74
_symmetry_cell_setting 'orthorhombic'
loop_
_space_group_symop_operation_xyz
x,y,z
-x,1/2-y,z
x,-y,-z
-x,1/2+y,-z
-x,-y,-z
x,1/2+y,-z
-x,y,z
x,1/2-y,z
1/2+x,1/2+y,1/2+z
1/2-x,-y,1/2+z
1/2+x,1/2-y,1/2-z
1/2-x,y,1/2-z
1/2-x,1/2-y,1/2-z
1/2+x,y,1/2-z
1/2-x,1/2+y,1/2+z
1/2+x,-y,1/2+z
loop_
_atom_site_type_symbol
_atom_site_label
_atom_site_fract_x
_atom_site_fract_y
_atom_site_fract_z
Si Si1 0.000000 0.425654 0.448318
Si Si2 0.701864 0.072439 0.121706
Si Si3 0.133948 0.577275 0.051889
Si Si4 0.870350 0.429032 0.723881
O O1 0.000000 0.500000 0.500000
O O2 0.889634 0.466053 0.419167
O O3 0.000000 0.250000 0.453398
O O4 0.712831 0.250000 0.126850
O O5 0.814096 0.001873 0.099828
O O6 0.651469 0.002838 0.171030
O O7 0.167163 0.750000 0.050878
O O8 0.000000 0.569294 0.054306
O O9 0.168160 0.500000 0.000000
O O10 0.871899 0.250000 0.721488
O O11 0.750000 0.467642 0.750000
O O12 0.000000 0.470882 0.740763
#
# Coordination Sequence:
#
# PCOD9540944 Si02
#       4
#     8  16  16  16
#     4  10  22  36  54  84 120 156 194 240 291 354
#     4  11  22  38  59  86 120 156 200 249 303 366
#     4  10  21  37  57  84 120 161 204 249 299 360
#     4  10  22  41  64  89 119 159 207 261 319 378
#
# _framework density 9.602195
#
# number of rings (size 3 to 8) (size 9 to 14) (size 15 to 20)
#    0.000    1.714    1.429    2.571    0.000    8.000 
#    0.000    2.857    0.000    0.000    0.000    0.000 
#    0.000    0.000    0.000    0.000    0.000    0.000 
#
# Total GULP energy -155964.946816 kJ/mol
# GULP energy per Si atom -5570.176672 kJ/mol
# Density = 0.958034 g / cm^3
# Si number density = 9.602195 Si / 1000 Ang^3
#
#
#
# Elastic Constant Matrix: (Units=GPa)
#
#
# Indices 1 2 3 4 5 6 
#
# 1 106.6811 33.3933 52.9764 0.0000 0.0000 0.0000
# 2 33.3933 -10.5730 28.4635 0.0000 0.0000 0.0000
# 3 52.9764 28.4635 79.9522 0.0000 0.0000 0.0000
# 4 0.0000 0.0000 0.0000 29.2366 0.0000 0.0000
# 5 0.0000 0.0000 0.0000 0.0000 -34.3695 0.0000
# 6 0.0000 0.0000 0.0000 0.0000 0.0000 -3.7015
#
#
#
# Elastic Compliance Matrix: (Units=1/GPa)
#
#
# Indices 1 2 3 4 5 6 
#
# 1 0.012228 0.008583 -0.011158 0.000000 0.000000 0.000000
# 2 0.008583 -0.042271 0.009362 0.000000 0.000000 0.000000
# 3 -0.011158 0.009362 0.016568 0.000000 0.000000 0.000000
# 4 0.000000 0.000000 0.000000 0.034204 0.000000 0.000000
# 5 0.000000 0.000000 0.000000 0.000000 -0.029096 0.000000
# 6 0.000000 0.000000 0.000000 0.000000 0.000000 -0.270163
#
#
# Mechanical properties :
#
#
# Convention : Reuss Voigt Hill
#
# Bulk Modulus (GPa) = 10163.15945 45.08075 5104.12010
# Shear Modulus (GPa) = -17.11914 2.31493 -7.40210
#
# Velocity S-wave (km/s) = -2.98890 1.09911 -1.96539
# Velocity P-wave (km/s) = 72.74393 5.01357 51.55975
#
# Compressibility (1/GPa) = 0.00009839
#
# Stress axis : x y z
#
# Youngs Moduli (GPa) = 81.77965 -23.65705 60.35828
#
# Poissons Ratio (x) = 0.20304 0.67346
# Poissons Ratio (y) = -0.70188 -0.56506
# Poissons Ratio (z) = 0.91248 0.22147
#
# Static dielectric constant tensor:
#      x y z
#    x 1.711690 0.000000 0.000000 
#    y 0.000000 1.641530 0.000000 
#    z 0.000000 0.000000 1.662350 
# 
# From -- ./inp_files/63241.got.cif
#   From: 2010.05.17/outbox.ucp.g08.bks.cvg/sg74_32_cif.got.tgz:63241.got - 2010.06.11 16:37:44.
