data_PCOD9540611
_publ_section_title
;
Structure prediction by ZEFSAII (Michael W. Deem and Ramdas Pophale) SiO2 
 PCOD9540611
Probable space group: I M M A
;
_chemical_formula_sum "Si O2"
_cell_formula_units_Z 84
_cell_length_a 14.398658
_cell_length_b 20.141528
_cell_length_c 14.941064
_cell_angle_alpha 90.000000
_cell_angle_beta 90.000000
_cell_angle_gamma 90.000000
_cell_volume 4333.072512
_symmetry_space_group_name_H-M "I M M A"
_symmetry_group_IT_number 74
_symmetry_cell_setting 'orthorhombic'
loop_
_space_group_symop_operation_xyz
x,y,z
-x,1/2-y,z
x,-y,-z
-x,1/2+y,-z
-x,-y,-z
x,1/2+y,-z
-x,y,z
x,1/2-y,z
1/2+x,1/2+y,1/2+z
1/2-x,-y,1/2+z
1/2+x,1/2-y,1/2-z
1/2-x,y,1/2-z
1/2-x,1/2-y,1/2-z
1/2+x,y,1/2-z
1/2-x,1/2+y,1/2+z
1/2+x,-y,1/2+z
loop_
_atom_site_type_symbol
_atom_site_label
_atom_site_fract_x
_atom_site_fract_y
_atom_site_fract_z
Si Si1 0.000000 0.111273 0.365329
Si Si2 0.322011 0.978731 0.900541
Si Si3 0.611403 0.670251 0.363216
Si Si4 0.500000 0.670540 0.668815
Si Si5 0.209512 0.250000 0.349826
Si Si6 0.680750 0.367147 0.438892
Si Si7 0.250000 0.081212 0.750000
Si Si8 0.500000 0.250000 0.106029
O O1 0.092608 0.067188 0.369197
O O2 0.000000 0.174391 0.434832
O O3 0.000000 0.146123 0.269308
O O4 0.228798 0.936642 0.918878
O O5 0.295171 0.035002 0.828167
O O6 0.351767 0.000000 0.000000
O O7 0.500000 0.658187 0.359227
O O8 0.625342 0.750000 0.354117
O O9 0.651210 0.647093 0.459518
O O10 0.669627 0.628075 0.291359
O O11 0.500000 0.750000 0.659395
O O12 0.590124 0.642953 0.620205
O O13 0.250000 0.250000 0.250000
O O14 0.246092 0.187136 0.404178
O O15 0.099559 0.250000 0.346199
#
# Coordination Sequence:
#
# PCOD9540611 Si02
#       8
#     8  16  16   8   8  16   8   4
#     4  12  25  42  66  93 142 189 242 286 346 431
#     4  12  27  47  66  97 140 197 239 292 359 433
#     4  11  24  48  79 109 138 181 244 309 367 426
#     4  12  22  37  69 107 141 175 226 287 366 431
#     4  12  24  38  68 103 145 183 233 291 367 431
#     4  12  23  42  68 104 144 185 227 296 368 430
#     4  12  27  48  74 101 146 188 244 298 364 433
#     4  12  22  40  62 100 134 180 238 296 342 424
#
# _framework density 19.385783
#
# number of rings (size 3 to 8) (size 9 to 14) (size 15 to 20)
#    0.000    0.190    7.143    2.857    2.667    0.000 
#    1.714    1.429    2.095    0.000    0.000    0.000 
#    0.000    0.000    0.000    0.000    0.000    0.000 
#
# Total GULP energy -234597.804195 kJ/mol
# GULP energy per Si atom -5585.662005 kJ/mol
# Density = 1.934166 g / cm^3
# Si number density = 19.385783 Si / 1000 Ang^3
#
#
#
# Elastic Constant Matrix: (Units=GPa)
#
#
# Indices 1 2 3 4 5 6 
#
# 1 170.9271 78.8003 59.5153 0.0000 0.0000 0.0000
# 2 78.8003 121.0331 69.9257 0.0000 0.0000 0.0000
# 3 59.5153 69.9257 119.0594 0.0000 0.0000 0.0000
# 4 0.0000 0.0000 0.0000 3.8805 0.0000 0.0000
# 5 0.0000 0.0000 0.0000 0.0000 36.4426 0.0000
# 6 0.0000 0.0000 0.0000 0.0000 0.0000 48.2014
#
#
#
# Elastic Compliance Matrix: (Units=1/GPa)
#
#
# Indices 1 2 3 4 5 6 
#
# 1 0.008537 -0.004681 -0.001518 0.000000 0.000000 0.000000
# 2 -0.004681 0.015072 -0.006512 0.000000 0.000000 0.000000
# 3 -0.001518 -0.006512 0.012983 0.000000 0.000000 0.000000
# 4 0.000000 0.000000 0.000000 0.257700 0.000000 0.000000
# 5 0.000000 0.000000 0.000000 0.000000 0.027440 0.000000
# 6 0.000000 0.000000 0.000000 0.000000 0.000000 0.020746
#
#
# Mechanical properties :
#
#
# Convention : Reuss Voigt Hill
#
# Bulk Modulus (GPa) = 89.53245 91.94468 90.73856
# Shear Modulus (GPa) = 13.45442 31.22346 22.33894
#
# Velocity S-wave (km/s) = 2.63731 4.01763 3.39829
# Velocity P-wave (km/s) = 7.45377 8.30985 7.89343
#
# Compressibility (1/GPa) = 0.01116914
#
# Stress axis : x y z
#
# Youngs Moduli (GPa) = 117.13517 66.34716 77.02463
#
# Poissons Ratio (x) = 0.31057 0.11694
# Poissons Ratio (y) = 0.54832 0.50160
# Poissons Ratio (z) = 0.17784 0.43207
#
# Static dielectric constant tensor:
#      x y z
#    x 1.664740 0.000000 0.000000 
#    y 0.000000 1.700100 0.000000 
#    z 0.000000 0.000000 1.695180 
# 
# From -- ./inp_files/32302.got.cif
#   From: 2010.05.17/outbox.cif.g08.bks.cpg/sg74_17_cif.got.tgz:32302.got - 2010.06.03 17:57:02.
