data_PCOD9540234
_publ_section_title
;
Structure prediction by ZEFSAII (Michael W. Deem and Ramdas Pophale) SiO2 
 PCOD9540234
Probable space group: I M M A
;
_chemical_formula_sum "Si O2"
_cell_formula_units_Z 96
_cell_length_a 17.030035
_cell_length_b 22.991585
_cell_length_c 13.442055
_cell_angle_alpha 90.000000
_cell_angle_beta 90.000000
_cell_angle_gamma 90.000000
_cell_volume 5263.202993
_symmetry_space_group_name_H-M "I M M A"
_symmetry_group_IT_number 74
_symmetry_cell_setting 'orthorhombic'
loop_
_space_group_symop_operation_xyz
x,y,z
-x,1/2-y,z
x,-y,-z
-x,1/2+y,-z
-x,-y,-z
x,1/2+y,-z
-x,y,z
x,1/2-y,z
1/2+x,1/2+y,1/2+z
1/2-x,-y,1/2+z
1/2+x,1/2-y,1/2-z
1/2-x,y,1/2-z
1/2-x,1/2-y,1/2-z
1/2+x,y,1/2-z
1/2-x,1/2+y,1/2+z
1/2+x,-y,1/2+z
loop_
_atom_site_type_symbol
_atom_site_label
_atom_site_fract_x
_atom_site_fract_y
_atom_site_fract_z
Si Si1 0.195936 0.856158 0.506366
Si Si2 0.230449 0.950728 0.136638
Si Si3 0.407734 0.250000 0.992553
Si Si4 0.408295 0.750000 0.766628
Si Si5 0.873265 0.466615 0.403446
Si Si6 0.815027 0.356947 0.171598
Si Si7 0.588924 0.527747 0.672698
O O1 0.242483 0.897355 0.430325
O O2 0.141412 0.806617 0.460369
O O3 0.138254 0.899694 0.567200
O O4 0.262599 0.832952 0.581108
O O5 0.250000 0.935780 0.250000
O O6 0.287257 0.004578 0.109107
O O7 0.142578 0.975233 0.132363
O O8 0.500000 0.250000 0.964752
O O9 0.403626 0.250000 0.113576
O O10 0.500000 0.750000 0.739290
O O11 0.365122 0.806429 0.722730
O O12 0.908429 0.500000 0.500000
O O13 0.910366 0.473901 0.294588
O O14 0.750000 0.379352 0.250000
O O15 0.869360 0.411496 0.144374
O O16 0.500000 0.525023 0.638087
#
# Coordination Sequence:
#
# PCOD9540234 Si02
#       7
#    16  16   8   8  16  16  16
#     4  11  20  35  60  79 108 156 187 225 274 340
#     4   9  19  38  57  80 107 149 197 231 273 341
#     4  11  23  37  56  89 116 137 181 239 293 333
#     4  11  22  34  50  82 121 149 180 233 282 329
#     4   9  17  32  56  79 106 144 184 224 279 347
#     4  12  19  33  53  78 111 155 191 209 267 345
#     4  11  20  32  51  81 116 146 182 238 283 317
#
# _framework density 18.239843
#
# number of rings (size 3 to 8) (size 9 to 14) (size 15 to 20)
#    0.000    1.500    5.000    1.750    0.000    2.333 
#    0.000    9.583    0.000    0.000    0.000    1.167 
#    0.000    0.000    0.000    0.000    0.000    0.000 
#
# Total GULP energy -267894.956251 kJ/mol
# GULP energy per Si atom -5581.144922 kJ/mol
# Density = 1.819833 g / cm^3
# Si number density = 18.239843 Si / 1000 Ang^3
#
#
#
# Elastic Constant Matrix: (Units=GPa)
#
#
# Indices 1 2 3 4 5 6 
#
# 1 145.5586 49.3463 8.5587 0.0000 0.0000 0.0000
# 2 49.3463 92.2957 10.4367 0.0000 0.0000 0.0000
# 3 8.5587 10.4367 29.0663 0.0000 0.0000 0.0000
# 4 0.0000 0.0000 0.0000 23.0138 0.0000 0.0000
# 5 0.0000 0.0000 0.0000 0.0000 9.0969 0.0000
# 6 0.0000 0.0000 0.0000 0.0000 0.0000 14.9292
#
#
#
# Elastic Compliance Matrix: (Units=1/GPa)
#
#
# Indices 1 2 3 4 5 6 
#
# 1 0.008413 -0.004397 -0.000899 0.000000 0.000000 0.000000
# 2 -0.004397 0.013591 -0.003585 0.000000 0.000000 0.000000
# 3 -0.000899 -0.003585 0.035956 0.000000 0.000000 0.000000
# 4 0.000000 0.000000 0.000000 0.043452 0.000000 0.000000
# 5 0.000000 0.000000 0.000000 0.000000 0.109927 0.000000
# 6 0.000000 0.000000 0.000000 0.000000 0.000000 0.066983
#
#
# Mechanical properties :
#
#
# Convention : Reuss Voigt Hill
#
# Bulk Modulus (GPa) = 24.87626 44.84487 34.86057
# Shear Modulus (GPa) = 16.15595 22.64659 19.40127
#
# Velocity S-wave (km/s) = 2.97938 3.52746 3.26494
# Velocity P-wave (km/s) = 5.05012 6.42107 5.77641
#
# Compressibility (1/GPa) = 0.04019897
#
# Stress axis : x y z
#
# Youngs Moduli (GPa) = 118.85716 73.57877 27.81168
#
# Poissons Ratio (x) = 0.32350 0.02499
# Poissons Ratio (y) = 0.52258 0.09972
# Poissons Ratio (z) = 0.10682 0.26381
#
# Static dielectric constant tensor:
#      x y z
#    x 1.630550 0.000000 0.000000 
#    y 0.000000 1.625790 0.000000 
#    z 0.000000 0.000000 1.680660 
# 
# From -- ./inp_files/32613.got.cif
#   From: 2010.05.17/outbox.cif.g08.bks.cpg/sg74_17_cif.got.tgz:32613.got - 2010.06.03 17:57:02.
