data_PCOD9540755
_publ_section_title
;
Structure prediction by ZEFSAII (Michael W. Deem and Ramdas Pophale) SiO2 
 PCOD9540755
Probable space group: I M M A
;
_chemical_formula_sum "Si O2"
_cell_formula_units_Z 80
_cell_length_a 13.431520
_cell_length_b 7.239594
_cell_length_c 36.855807
_cell_angle_alpha 90.000000
_cell_angle_beta 90.000000
_cell_angle_gamma 90.000000
_cell_volume 3583.812662
_symmetry_space_group_name_H-M "I M M A"
_symmetry_group_IT_number 74
_symmetry_cell_setting 'orthorhombic'
loop_
_space_group_symop_operation_xyz
x,y,z
-x,1/2-y,z
x,-y,-z
-x,1/2+y,-z
-x,-y,-z
x,1/2+y,-z
-x,y,z
x,1/2-y,z
1/2+x,1/2+y,1/2+z
1/2-x,-y,1/2+z
1/2+x,1/2-y,1/2-z
1/2-x,y,1/2-z
1/2-x,1/2-y,1/2-z
1/2+x,y,1/2-z
1/2-x,1/2+y,1/2+z
1/2+x,-y,1/2+z
loop_
_atom_site_type_symbol
_atom_site_label
_atom_site_fract_x
_atom_site_fract_y
_atom_site_fract_z
Si Si1 0.110355 0.974837 0.341169
Si Si2 0.500000 0.974970 0.386661
Si Si3 0.500000 0.025126 0.696294
Si Si4 0.137025 0.032573 0.740877
Si Si5 0.773763 0.524940 0.100326
Si Si6 0.611576 0.469533 0.957291
O O1 0.113400 0.750000 0.341088
O O2 0.114491 0.038622 0.299291
O O3 0.206891 0.031046 0.364551
O O4 0.000000 0.025334 0.355939
O O5 0.500000 0.750000 0.388873
O O6 0.500000 0.035423 0.344695
O O7 0.390085 0.033122 0.401228
O O8 0.500000 0.250000 0.693410
O O9 0.412034 0.963104 0.722367
O O10 0.110610 0.250000 0.738770
O O11 0.250000 0.015519 0.750000
O O12 0.777085 0.750000 0.101022
O O13 0.703892 0.464519 0.066814
O O14 0.500000 0.540906 0.948487
O O15 0.607437 0.250000 0.950942
O O16 0.627824 0.500000 0.000000
#
# Coordination Sequence:
#
# PCOD9540755 Si02
#       6
#    16   8   8  16  16  16
#     4   9  14  20  29  43  62  87 124 169 209 243
#     4   9  16  24  33  47  70 102 140 175 207 245
#     4   9  14  20  26  37  59  90 129 169 205 237
#     4   9  14  18  24  35  54  82 119 163 203 237
#     4   9  16  25  37  53  74 102 136 173 208 247
#     4   9  17  30  48  69  90 111 138 172 212 256
#
# _framework density 22.322596999999998
#
# number of rings (size 3 to 8) (size 9 to 14) (size 15 to 20)
#    0.000    3.000    1.000    1.800    0.000    7.200 
#    0.000    0.500    0.000    0.000    0.000    0.000 
#    0.000    0.000    0.000    0.000    0.000   11.000 
#
# Total GULP energy -222880.794444 kJ/mol
# GULP energy per Si atom -5572.019861 kJ/mol
# Density = 2.227179 g / cm^3
# Si number density = 22.322597 Si / 1000 Ang^3
#
#
#
# Elastic Constant Matrix: (Units=GPa)
#
#
# Indices 1 2 3 4 5 6 
#
# 1 252.8200 10.9194 99.9180 0.0000 0.0000 0.0000
# 2 10.9194 99.8587 -0.7782 0.0000 0.0000 0.0000
# 3 99.9180 -0.7782 132.3271 0.0000 0.0000 0.0000
# 4 0.0000 0.0000 0.0000 -38.8127 0.0000 0.0000
# 5 0.0000 0.0000 0.0000 0.0000 4289.9246 0.0000
# 6 0.0000 0.0000 0.0000 0.0000 0.0000 -24.9398
#
#
#
# Elastic Compliance Matrix: (Units=1/GPa)
#
#
# Indices 1 2 3 4 5 6 
#
# 1 0.005680 -0.000655 -0.004293 0.000000 0.000000 0.000000
# 2 -0.000655 0.010090 0.000554 0.000000 0.000000 0.000000
# 3 -0.004293 0.000554 0.010802 0.000000 0.000000 0.000000
# 4 0.000000 0.000000 0.000000 -0.025765 0.000000 0.000000
# 5 0.000000 0.000000 0.000000 0.000000 0.000233 0.000000
# 6 0.000000 0.000000 0.000000 0.000000 0.000000 -0.040096
#
#
# Mechanical properties :
#
#
# Convention : Reuss Voigt Hill
#
# Bulk Modulus (GPa) = 56.22939 78.34715 67.28827
# Shear Modulus (GPa) = -205.42267 870.23084 332.40409
#
# Velocity S-wave (km/s) = -9.60335 19.76586 12.21608
# Velocity P-wave (km/s) = 9.88542 23.58162 15.13888
#
# Compressibility (1/GPa) = 0.01778430
#
# Stress axis : x y z
#
# Youngs Moduli (GPa) = 176.04758 99.10763 92.57709
#
# Poissons Ratio (x) = 0.06487 0.39743
# Poissons Ratio (y) = 0.11524 -0.05125
# Poissons Ratio (z) = 0.75576 -0.05487
#
# Static dielectric constant tensor:
#      x y z
#    x 1.807280 0.000000 0.000000 
#    y 0.000000 2.060950 0.000000 
#    z 0.000000 0.000000 1.787990 
# 
# From -- ./inp_files/72552.got.cif
#   From: 2010.05.17/outbox.cif.g08.bks.cpg/sg74_37_cif.got.tgz:72552.got - 2010.06.03 17:57:02.
