data_PCOD9540606
_publ_section_title
;
Structure prediction by ZEFSAII (Michael W. Deem and Ramdas Pophale) SiO2 
 PCOD9540606
Probable space group: I M M A
;
_chemical_formula_sum "Si O2"
_cell_formula_units_Z 68
_cell_length_a 15.938602
_cell_length_b 20.475116
_cell_length_c 9.418473
_cell_angle_alpha 90.000000
_cell_angle_beta 90.000000
_cell_angle_gamma 90.000000
_cell_volume 3073.668979
_symmetry_space_group_name_H-M "I M M A"
_symmetry_group_IT_number 74
_symmetry_cell_setting 'orthorhombic'
loop_
_space_group_symop_operation_xyz
x,y,z
-x,1/2-y,z
x,-y,-z
-x,1/2+y,-z
-x,-y,-z
x,1/2+y,-z
-x,y,z
x,1/2-y,z
1/2+x,1/2+y,1/2+z
1/2-x,-y,1/2+z
1/2+x,1/2-y,1/2-z
1/2-x,y,1/2-z
1/2-x,1/2-y,1/2-z
1/2+x,y,1/2-z
1/2-x,1/2+y,1/2+z
1/2+x,-y,1/2+z
loop_
_atom_site_type_symbol
_atom_site_label
_atom_site_fract_x
_atom_site_fract_y
_atom_site_fract_z
Si Si1 0.206790 0.365312 0.963090
Si Si2 0.594540 0.324536 0.270513
Si Si3 0.354849 0.944547 0.903071
Si Si4 0.596366 0.469695 0.656741
Si Si5 0.250000 0.750000 0.250000
O O1 0.138202 0.399641 0.861798
O O2 0.246589 0.307054 0.874638
O O3 0.160580 0.340181 0.105627
O O4 0.273302 0.420020 0.012548
O O5 0.500000 0.330579 0.330496
O O6 0.606459 0.250000 0.221673
O O7 0.602193 0.377041 0.144847
O O8 0.348681 0.983530 0.755437
O O9 0.397385 0.000000 0.000000
O O10 0.594352 0.500000 0.500000
O O11 0.500000 0.467486 0.707646
#
# Coordination Sequence:
#
# PCOD9540606 Si02
#       5
#    16  16  16  16   4
#     4  12  25  44  73 109 143 195 246 313 358 453
#     4  11  25  46  73 104 145 199 250 300 368 444
#     4  12  27  44  75 111 151 190 249 313 373 430
#     4  11  24  45  74 108 145 196 250 303 366 442
#     4  12  28  48  68 108 148 188 250 300 388 432
#
# _framework density 22.123398000000002
#
# number of rings (size 3 to 8) (size 9 to 14) (size 15 to 20)
#    0.000    0.471    3.529    4.235    4.941    2.824 
#    0.000    0.000    0.000    4.235    0.000    0.000 
#    0.000    0.000    0.000    0.000    0.000    0.000 
#
# Total GULP energy -189518.250488 kJ/mol
# GULP energy per Si atom -5574.066191 kJ/mol
# Density = 2.207304 g / cm^3
# Si number density = 22.123398 Si / 1000 Ang^3
#
#
#
# Elastic Constant Matrix: (Units=GPa)
#
#
# Indices 1 2 3 4 5 6 
#
# 1 88.7781 44.9550 39.4664 0.0000 0.0000 0.0000
# 2 44.9550 179.3386 66.1870 0.0000 0.0000 0.0000
# 3 39.4664 66.1870 111.6541 0.0000 0.0000 0.0000
# 4 0.0000 0.0000 0.0000 59.2205 0.0000 0.0000
# 5 0.0000 0.0000 0.0000 0.0000 7.1852 0.0000
# 6 0.0000 0.0000 0.0000 0.0000 0.0000 19.1225
#
#
#
# Elastic Compliance Matrix: (Units=1/GPa)
#
#
# Indices 1 2 3 4 5 6 
#
# 1 0.013984 -0.002152 -0.003667 0.000000 0.000000 0.000000
# 2 -0.002152 0.007469 -0.003667 0.000000 0.000000 0.000000
# 3 -0.003667 -0.003667 0.012426 0.000000 0.000000 0.000000
# 4 0.000000 0.000000 0.000000 0.016886 0.000000 0.000000
# 5 0.000000 0.000000 0.000000 0.000000 0.139174 0.000000
# 6 0.000000 0.000000 0.000000 0.000000 0.000000 0.052294
#
#
# Mechanical properties :
#
#
# Convention : Reuss Voigt Hill
#
# Bulk Modulus (GPa) = 67.08284 75.66531 71.37408
# Shear Modulus (GPa) = 18.78470 32.38315 25.58393
#
# Velocity S-wave (km/s) = 2.91707 3.83005 3.40431
# Velocity P-wave (km/s) = 6.46016 7.33722 6.91261
#
# Compressibility (1/GPa) = 0.01490694
#
# Stress axis : x y z
#
# Youngs Moduli (GPa) = 71.51020 133.89184 80.47591
#
# Poissons Ratio (x) = 0.28813 0.29513
# Poissons Ratio (y) = 0.15389 0.29508
# Poissons Ratio (z) = 0.26225 0.49094
#
# Static dielectric constant tensor:
#      x y z
#    x 1.852110 0.000000 0.000000 
#    y 0.000000 1.808790 0.000000 
#    z 0.000000 0.000000 1.834970 
# 
# From -- ./inp_files/10397.got.cif
#   From: 2010.05.17/outbox.cif.g08.bks.cpg/sg74_6_cif.got.tgz:10397.got - 2010.06.03 17:57:02.
