data_PCOD9540109
_publ_section_title
;
Structure prediction by ZEFSAII (Michael W. Deem and Ramdas Pophale) SiO2 
 PCOD9540109
Probable space group: I M M A
;
_chemical_formula_sum "Si O2"
_cell_formula_units_Z 52
_cell_length_a 17.043260
_cell_length_b 9.475981
_cell_length_c 12.953369
_cell_angle_alpha 90.000000
_cell_angle_beta 90.000000
_cell_angle_gamma 90.000000
_cell_volume 2091.989922
_symmetry_space_group_name_H-M "I M M A"
_symmetry_group_IT_number 74
_symmetry_cell_setting 'orthorhombic'
loop_
_space_group_symop_operation_xyz
x,y,z
-x,1/2-y,z
x,-y,-z
-x,1/2+y,-z
-x,-y,-z
x,1/2+y,-z
-x,y,z
x,1/2-y,z
1/2+x,1/2+y,1/2+z
1/2-x,-y,1/2+z
1/2+x,1/2-y,1/2-z
1/2-x,y,1/2-z
1/2-x,1/2-y,1/2-z
1/2+x,y,1/2-z
1/2-x,1/2+y,1/2+z
1/2+x,-y,1/2+z
loop_
_atom_site_type_symbol
_atom_site_label
_atom_site_fract_x
_atom_site_fract_y
_atom_site_fract_z
Si Si1 0.726981 0.250000 0.956406
Si Si2 0.589330 0.250000 0.348162
Si Si3 0.000000 0.500000 0.500000
Si Si4 0.103850 0.750000 0.600683
Si Si5 0.408020 0.250000 0.788839
Si Si6 0.683062 0.517073 0.334711
O O1 0.646547 0.250000 0.888784
O O2 0.774074 0.384020 0.916518
O O3 0.695621 0.250000 0.071701
O O4 0.500000 0.250000 0.384501
O O5 0.590302 0.250000 0.222783
O O6 0.636887 0.386910 0.380324
O O7 0.933336 0.606509 0.552852
O O8 0.500000 0.250000 0.817194
O O9 0.381866 0.113957 0.724024
O O10 0.750000 0.479684 0.250000
#
# Coordination Sequence:
#
# PCOD9540109 Si02
#       6
#     8   8   4   8   8  16
#     4   9  21  39  56  81 124 179 218 250 297 402
#     4  12  23  37  59  97 131 164 200 271 332 383
#     4  10  24  42  52  94 144 182 190 252 328 414
#     4  11  25  37  61  89 133 177 215 241 327 385
#     4   9  17  29  53  77 105 155 203 248 295 362
#     4   9  20  36  53  78 123 168 209 253 309 375
#
# _framework density 24.856715999999999
#
# number of rings (size 3 to 8) (size 9 to 14) (size 15 to 20)
#    0.000    2.154    1.538    3.231   10.769    0.000 
#    0.000    0.000    0.000    0.000    0.000    0.000 
#    0.000  187.077    0.000    0.000    0.000    0.000 
#
# Total GULP energy -145289.065436 kJ/mol
# GULP energy per Si atom -5588.040978 kJ/mol
# Density = 2.480014 g / cm^3
# Si number density = 24.856716 Si / 1000 Ang^3
#
#
#
# Elastic Constant Matrix: (Units=GPa)
#
#
# Indices 1 2 3 4 5 6 
#
# 1 209.7324 86.9260 41.0670 0.0000 0.0000 0.0000
# 2 86.9260 114.7371 16.5134 0.0000 0.0000 0.0000
# 3 41.0670 16.5134 68.6037 0.0000 0.0000 0.0000
# 4 0.0000 0.0000 0.0000 16.4782 0.0000 0.0000
# 5 0.0000 0.0000 0.0000 0.0000 28.0162 0.0000
# 6 0.0000 0.0000 0.0000 0.0000 0.0000 -4.4067
#
#
#
# Elastic Compliance Matrix: (Units=1/GPa)
#
#
# Indices 1 2 3 4 5 6 
#
# 1 0.007601 -0.005287 -0.003277 0.000000 0.000000 0.000000
# 2 -0.005287 0.012706 0.000106 0.000000 0.000000 0.000000
# 3 -0.003277 0.000106 0.016513 0.000000 0.000000 0.000000
# 4 0.000000 0.000000 0.000000 0.060686 0.000000 0.000000
# 5 0.000000 0.000000 0.000000 0.000000 0.035694 0.000000
# 6 0.000000 0.000000 0.000000 0.000000 0.000000 -0.226925
#
#
# Mechanical properties :
#
#
# Convention : Reuss Voigt Hill
#
# Bulk Modulus (GPa) = 50.24201 75.78732 63.01467
# Shear Modulus (GPa) = -71.25008 24.58864 -23.33072
#
# Velocity S-wave (km/s) = -5.35972 3.14859 -3.06700
# Velocity P-wave (km/s) = 4.24800 6.61619 3.58668
#
# Compressibility (1/GPa) = 0.01990366
#
# Stress axis : x y z
#
# Youngs Moduli (GPa) = 131.56314 78.70533 60.55917
#
# Poissons Ratio (x) = 0.41610 0.19848
# Poissons Ratio (y) = 0.69555 -0.00645
# Poissons Ratio (z) = 0.43119 -0.00838
#
# Static dielectric constant tensor:
#      x y z
#    x 1.988100 0.000000 0.000000 
#    y 0.000000 2.021050 0.000000 
#    z 0.000000 0.000000 1.979540 
# 
# From -- ./inp_files/43486.got.cif
#   From: 2010.05.17/outbox.cif.g08.bks.cpg/sg74_22_cif.got.tgz:43486.got - 2010.06.03 17:57:02.
