data_PCOD9540040
_publ_section_title
;
Structure prediction by ZEFSAII (Michael W. Deem and Ramdas Pophale) SiO2 
 PCOD9540040
Probable space group: I M M A
;
_chemical_formula_sum "Si O2"
_cell_formula_units_Z 64
_cell_length_a 20.985170
_cell_length_b 8.703197
_cell_length_c 18.118485
_cell_angle_alpha 90.000000
_cell_angle_beta 90.000000
_cell_angle_gamma 90.000000
_cell_volume 3309.125106
_symmetry_space_group_name_H-M "I M M A"
_symmetry_group_IT_number 74
_symmetry_cell_setting 'orthorhombic'
loop_
_space_group_symop_operation_xyz
x,y,z
-x,1/2-y,z
x,-y,-z
-x,1/2+y,-z
-x,-y,-z
x,1/2+y,-z
-x,y,z
x,1/2-y,z
1/2+x,1/2+y,1/2+z
1/2-x,-y,1/2+z
1/2+x,1/2-y,1/2-z
1/2-x,y,1/2-z
1/2-x,1/2-y,1/2-z
1/2+x,y,1/2-z
1/2-x,1/2+y,1/2+z
1/2+x,-y,1/2+z
loop_
_atom_site_type_symbol
_atom_site_label
_atom_site_fract_x
_atom_site_fract_y
_atom_site_fract_z
Si Si1 0.748319 0.933799 0.662773
Si Si2 0.124411 0.433663 0.917467
Si Si3 0.500000 0.934246 0.173874
Si Si4 0.872555 0.565690 0.417612
Si Si5 0.500000 0.066891 0.337258
O O1 0.744094 0.750000 0.653290
O O2 0.750000 0.967669 0.750000
O O3 0.687214 0.011397 0.625531
O O4 0.811980 0.995402 0.624135
O O5 0.121993 0.250000 0.919894
O O6 0.062438 0.497881 0.875955
O O7 0.126102 0.500000 0.000000
O O8 0.500000 0.750000 0.187540
O O9 0.436974 0.971764 0.127036
O O10 0.500000 0.019948 0.251589
O O11 0.876018 0.500000 0.500000
O O12 0.866286 0.750000 0.420586
O O13 0.500000 0.250000 0.345107
#
# Coordination Sequence:
#
# PCOD9540040 Si02
#       5
#    16  16   8  16   8
#     4  11  24  42  64  92 125 162 206 255 308 366
#     4  12  25  43  66  92 125 163 206 254 306 365
#     4  10  23  42  64  92 125 164 208 254 307 364
#     4  11  23  40  63  91 125 164 207 255 307 365
#     4  12  25  42  65  94 127 162 203 252 307 366
#
# _framework density 19.34046
#
# number of rings (size 3 to 8) (size 9 to 14) (size 15 to 20)
#    0.000    0.750    0.000    7.875    0.000    8.000 
#    0.000    0.000    0.000    0.000    0.000    0.000 
#    0.000    0.000    0.000    0.000    0.000    0.000 
#
# Total GULP energy -179220.283260 kJ/mol
# GULP energy per Si atom -5600.633852 kJ/mol
# Density = 1.929644 g / cm^3
# Si number density = 19.340460 Si / 1000 Ang^3
#
#
#
# Elastic Constant Matrix: (Units=GPa)
#
#
# Indices 1 2 3 4 5 6 
#
# 1 220.2715 109.2209 122.3827 0.0000 0.0000 0.0000
# 2 109.2209 152.8817 122.3443 0.0000 0.0000 0.0000
# 3 122.3827 122.3443 205.6042 0.0000 0.0000 0.0000
# 4 0.0000 0.0000 0.0000 95.2474 0.0000 0.0000
# 5 0.0000 0.0000 0.0000 0.0000 40.8711 0.0000
# 6 0.0000 0.0000 0.0000 0.0000 0.0000 68.4916
#
#
#
# Elastic Compliance Matrix: (Units=1/GPa)
#
#
# Indices 1 2 3 4 5 6 
#
# 1 0.007640 -0.003473 -0.002481 0.000000 0.000000 0.000000
# 2 -0.003473 0.014066 -0.006303 0.000000 0.000000 0.000000
# 3 -0.002481 -0.006303 0.010091 0.000000 0.000000 0.000000
# 4 0.000000 0.000000 0.000000 0.010499 0.000000 0.000000
# 5 0.000000 0.000000 0.000000 0.000000 0.024467 0.000000
# 6 0.000000 0.000000 0.000000 0.000000 0.000000 0.014600
#
#
# Mechanical properties :
#
#
# Convention : Reuss Voigt Hill
#
# Bulk Modulus (GPa) = 137.29352 142.96148 140.12750
# Shear Modulus (GPa) = 46.16577 55.90933 51.03755
#
# Velocity S-wave (km/s) = 4.89100 5.38245 5.14260
# Velocity P-wave (km/s) = 10.15075 10.61633 10.38615
#
# Compressibility (1/GPa) = 0.00728366
#
# Stress axis : x y z
#
# Youngs Moduli (GPa) = 130.88229 71.09501 99.09633
#
# Poissons Ratio (x) = 0.24689 0.24591
# Poissons Ratio (y) = 0.45451 0.62458
# Poissons Ratio (z) = 0.32478 0.44809
#
# Static dielectric constant tensor:
#      x y z
#    x 1.631980 0.000000 0.000000 
#    y 0.000000 1.648380 0.000000 
#    z 0.000000 0.000000 1.632590 
# 
# From -- ./inp_files/44795.got.cif
#   From: 2010.05.17/outbox.cif.g08.bks.cpg/sg74_23_cif.got.tgz:44795.got - 2010.06.03 17:57:02.
