data_PCOD9540414
_publ_section_title
;
Structure prediction by ZEFSAII (Michael W. Deem and Ramdas Pophale) SiO2 
 PCOD9540414
Probable space group: I M M A
;
_chemical_formula_sum "Si O2"
_cell_formula_units_Z 112
_cell_length_a 22.133753
_cell_length_b 15.423623
_cell_length_c 14.583287
_cell_angle_alpha 90.000000
_cell_angle_beta 90.000000
_cell_angle_gamma 90.000000
_cell_volume 4978.481335
_symmetry_space_group_name_H-M "I M M A"
_symmetry_group_IT_number 74
_symmetry_cell_setting 'orthorhombic'
loop_
_space_group_symop_operation_xyz
x,y,z
-x,1/2-y,z
x,-y,-z
-x,1/2+y,-z
-x,-y,-z
x,1/2+y,-z
-x,y,z
x,1/2-y,z
1/2+x,1/2+y,1/2+z
1/2-x,-y,1/2+z
1/2+x,1/2-y,1/2-z
1/2-x,y,1/2-z
1/2-x,1/2-y,1/2-z
1/2+x,y,1/2-z
1/2-x,1/2+y,1/2+z
1/2+x,-y,1/2+z
loop_
_atom_site_type_symbol
_atom_site_label
_atom_site_fract_x
_atom_site_fract_y
_atom_site_fract_z
Si Si1 0.596519 0.655164 0.581897
Si Si2 0.427417 0.149871 0.132575
Si Si3 0.568720 0.490026 0.279551
Si Si4 0.123859 0.652511 0.125290
Si Si5 0.746987 0.921025 0.354800
Si Si6 0.667846 0.847266 0.009738
Si Si7 0.232359 0.374946 0.145955
O O1 0.571366 0.750000 0.607765
O O2 0.568552 0.573615 0.632889
O O3 0.591017 0.644681 0.472620
O O4 0.666976 0.656089 0.612664
O O5 0.500000 0.146591 0.130529
O O6 0.410722 0.250000 0.158943
O O7 0.405557 0.074681 0.201602
O O8 0.396586 0.133354 0.034894
O O9 0.500000 0.513497 0.255447
O O10 0.604300 0.576810 0.305488
O O11 0.115078 0.750000 0.160579
O O12 0.194093 0.636167 0.101650
O O13 0.750000 0.892632 0.250000
O O14 0.807741 0.909620 0.411942
O O15 0.728473 0.020799 0.356731
O O16 0.667400 0.750000 0.047889
O O17 0.715139 0.849819 0.924962
O O18 0.250000 0.349961 0.250000
#
# Coordination Sequence:
#
# PCOD9540414 Si02
#       7
#    16  16  16  16  16  16  16
#     4  11  22  37  59  90 128 165 212 273 334 395
#     4   9  20  40  67 101 138 170 209 267 329 394
#     4  11  23  40  63  91 127 173 221 267 329 395
#     4  11  24  41  59  85 127 172 220 279 328 377
#     4  11  24  41  64  91 127 168 217 268 323 386
#     4  11  22  37  63  98 131 170 213 261 328 397
#     4  11  22  36  58  92 129 169 209 261 325 390
#
# _framework density 22.49682
#
# number of rings (size 3 to 8) (size 9 to 14) (size 15 to 20)
#    0.000    1.286    2.857    3.000    2.000    5.714 
#    0.000    1.429    0.000    2.571    0.000    2.000 
#    0.000    0.000    0.000    0.000    0.000    0.000 
#
# Total GULP energy -313211.506150 kJ/mol
# GULP energy per Si atom -5593.062610 kJ/mol
# Density = 2.244562 g / cm^3
# Si number density = 22.496820 Si / 1000 Ang^3
#
#
#
# Elastic Constant Matrix: (Units=GPa)
#
#
# Indices 1 2 3 4 5 6 
#
# 1 48.2139 30.4362 13.9956 0.0000 0.0000 0.0000
# 2 30.4362 146.9792 50.3707 0.0000 0.0000 0.0000
# 3 13.9956 50.3707 84.6659 0.0000 0.0000 0.0000
# 4 0.0000 0.0000 0.0000 28.5464 0.0000 0.0000
# 5 0.0000 0.0000 0.0000 0.0000 24.1162 0.0000
# 6 0.0000 0.0000 0.0000 0.0000 0.0000 10.8361
#
#
#
# Elastic Compliance Matrix: (Units=1/GPa)
#
#
# Indices 1 2 3 4 5 6 
#
# 1 0.023968 -0.004529 -0.001268 0.000000 0.000000 0.000000
# 2 -0.004529 0.009402 -0.004845 0.000000 0.000000 0.000000
# 3 -0.001268 -0.004845 0.014903 0.000000 0.000000 0.000000
# 4 0.000000 0.000000 0.000000 0.035031 0.000000 0.000000
# 5 0.000000 0.000000 0.000000 0.000000 0.041466 0.000000
# 6 0.000000 0.000000 0.000000 0.000000 0.000000 0.092284
#
#
# Mechanical properties :
#
#
# Convention : Reuss Voigt Hill
#
# Bulk Modulus (GPa) = 37.05059 52.16268 44.60664
# Shear Modulus (GPa) = 20.21567 25.03684 22.62626
#
# Velocity S-wave (km/s) = 3.00092 3.33964 3.17480
# Velocity P-wave (km/s) = 5.33970 6.17317 5.77150
#
# Compressibility (1/GPa) = 0.02699012
#
# Stress axis : x y z
#
# Youngs Moduli (GPa) = 41.72262 106.36182 67.10035
#
# Poissons Ratio (x) = 0.48169 0.08506
# Poissons Ratio (y) = 0.18895 0.32509
# Poissons Ratio (z) = 0.05289 0.51531
#
# Static dielectric constant tensor:
#      x y z
#    x 1.847410 0.000000 0.000000 
#    y 0.000000 1.819210 0.000000 
#    z 0.000000 0.000000 1.834190 
# 
# From -- ./inp_files/36506.got.cif
#   From: 2010.05.17/outbox.cif.g08.bks.cpg/sg74_19_cif.got.tgz:36506.got - 2010.06.03 17:57:02.
