data_PCOD9540453
_publ_section_title
;
Structure prediction by ZEFSAII (Michael W. Deem and Ramdas Pophale) SiO2 
 PCOD9540453
Probable space group: I M M A
;
_chemical_formula_sum "Si O2"
_cell_formula_units_Z 116
_cell_length_a 24.482449
_cell_length_b 22.039762
_cell_length_c 9.853475
_cell_angle_alpha 90.000000
_cell_angle_beta 90.000000
_cell_angle_gamma 90.000000
_cell_volume 5316.810455
_symmetry_space_group_name_H-M "I M M A"
_symmetry_group_IT_number 74
_symmetry_cell_setting 'orthorhombic'
loop_
_space_group_symop_operation_xyz
x,y,z
-x,1/2-y,z
x,-y,-z
-x,1/2+y,-z
-x,-y,-z
x,1/2+y,-z
-x,y,z
x,1/2-y,z
1/2+x,1/2+y,1/2+z
1/2-x,-y,1/2+z
1/2+x,1/2-y,1/2-z
1/2-x,y,1/2-z
1/2-x,1/2-y,1/2-z
1/2+x,y,1/2-z
1/2-x,1/2+y,1/2+z
1/2+x,-y,1/2+z
loop_
_atom_site_type_symbol
_atom_site_label
_atom_site_fract_x
_atom_site_fract_y
_atom_site_fract_z
Si Si1 0.500000 0.750000 0.716940
Si Si2 0.717410 0.818070 0.389062
Si Si3 0.936488 0.429679 0.016360
Si Si4 0.907564 0.851757 0.743004
Si Si5 0.697794 0.009291 0.162815
Si Si6 0.875501 0.095512 0.766252
Si Si7 0.706409 0.847528 0.857424
Si Si8 0.062817 0.928353 0.486290
O O1 0.452307 0.697656 0.721380
O O2 0.698040 0.750000 0.429638
O O3 0.750000 0.812477 0.250000
O O4 0.668639 0.863185 0.344860
O O5 0.761874 0.840721 0.500011
O O6 0.899750 0.392074 0.121304
O O7 0.000000 0.426416 0.057813
O O8 0.920923 0.500000 0.000000
O O9 0.926876 0.404925 0.865791
O O10 0.853362 0.822387 0.676383
O O11 0.931398 0.897850 0.631493
O O12 0.750000 0.988817 0.250000
O O13 0.650431 0.970538 0.234240
O O14 0.695114 0.081471 0.173436
O O15 0.702454 0.000000 0.000000
O O16 0.898068 0.109196 0.615695
O O17 0.750000 0.823753 0.750000
O O18 0.000000 0.925803 0.439652
O O19 0.077015 0.000000 0.500000
#
# Coordination Sequence:
#
# PCOD9540453 Si02
#       8
#     4  16  16  16  16  16  16  16
#     4  12  28  48  70  98 134 192 230 302 344 416
#     4  11  25  45  62  89 130 182 228 264 332 409
#     4  11  23  42  67  98 134 172 219 277 349 424
#     4  12  24  47  70 101 138 179 236 285 360 419
#     4  11  22  38  65 100 140 176 219 281 355 423
#     4  12  23  40  64  99 137 178 222 287 354 412
#     4  11  24  42  68 102 129 171 226 284 346 412
#     4  11  22  40  69 104 139 179 237 302 363 424
#
# _framework density 21.817591
#
# number of rings (size 3 to 8) (size 9 to 14) (size 15 to 20)
#    0.000    0.690    1.379    7.862    0.966    5.241 
#    4.966    0.000    0.000    1.655    0.000    0.000 
#    0.000    0.000    0.000    0.000    0.000    0.000 
#
# Total GULP energy -323174.854500 kJ/mol
# GULP energy per Si atom -5571.980250 kJ/mol
# Density = 2.176793 g / cm^3
# Si number density = 21.817591 Si / 1000 Ang^3
#
#
#
# Elastic Constant Matrix: (Units=GPa)
#
#
# Indices 1 2 3 4 5 6 
#
# 1 114.8549 31.1026 37.3208 0.0000 0.0000 0.0000
# 2 31.1026 118.6689 28.0939 0.0000 0.0000 0.0000
# 3 37.3208 28.0939 131.7870 0.0000 0.0000 0.0000
# 4 0.0000 0.0000 0.0000 25.7678 0.0000 0.0000
# 5 0.0000 0.0000 0.0000 0.0000 38.3522 0.0000
# 6 0.0000 0.0000 0.0000 0.0000 0.0000 -13.1928
#
#
#
# Elastic Compliance Matrix: (Units=1/GPa)
#
#
# Indices 1 2 3 4 5 6 
#
# 1 0.010047 -0.002064 -0.002405 0.000000 0.000000 0.000000
# 2 -0.002064 0.009299 -0.001398 0.000000 0.000000 0.000000
# 3 -0.002405 -0.001398 0.008567 0.000000 0.000000 0.000000
# 4 0.000000 0.000000 0.000000 0.038808 0.000000 0.000000
# 5 0.000000 0.000000 0.000000 0.000000 0.026074 0.000000
# 6 0.000000 0.000000 0.000000 0.000000 0.000000 -0.075799
#
#
# Mechanical properties :
#
#
# Convention : Reuss Voigt Hill
#
# Bulk Modulus (GPa) = 61.80845 62.03838 61.92342
# Shear Modulus (GPa) = 146.52986 28.10503 87.31744
#
# Velocity S-wave (km/s) = 8.20409 3.59302 6.33312
# Velocity P-wave (km/s) = 10.86895 6.76090 9.05107
#
# Compressibility (1/GPa) = 0.01617902
#
# Stress axis : x y z
#
# Youngs Moduli (GPa) = 99.53125 107.54250 116.72521
#
# Poissons Ratio (x) = 0.22195 0.28076
# Poissons Ratio (y) = 0.20542 0.16316
# Poissons Ratio (z) = 0.23940 0.15032
#
# Static dielectric constant tensor:
#      x y z
#    x 1.874820 0.000000 0.000000 
#    y 0.000000 1.792030 0.000000 
#    z 0.000000 0.000000 1.837790 
# 
# From -- ./inp_files/15441.got.cif
#   From: 2010.05.17/outbox.cif.g08.bks.cpg/sg74_8_cif.got.tgz:15441.got - 2010.06.03 17:57:02.
