data_PCOD9541466
_publ_section_title
;
Structure prediction by ZEFSAII (Michael W. Deem and Ramdas Pophale) SiO2 
 PCOD9541466
Probable space group: P 42
;
_chemical_formula_sum "Si O2"
_cell_formula_units_Z 24
_cell_length_a 12.917654
_cell_length_b 12.917654
_cell_length_c 9.174026
_cell_angle_alpha 90.000000
_cell_angle_beta 90.000000
_cell_angle_gamma 90.000000
_cell_volume 1530.831049
_symmetry_space_group_name_H-M "P 42"
_symmetry_group_IT_number 77
_symmetry_cell_setting 'tetragonal'
loop_
_space_group_symop_operation_xyz
x,y,z
-y,x,1/2+z
-x,-y,z
y,-x,1/2+z
loop_
_atom_site_type_symbol
_atom_site_label
_atom_site_fract_x
_atom_site_fract_y
_atom_site_fract_z
Si Si1 0.113160 0.279569 0.660850
Si Si2 0.720431 0.113160 0.809558
Si Si3 0.109010 0.715396 0.811217
Si Si4 0.125535 0.507889 0.318340
Si Si5 0.507889 0.874465 0.152068
Si Si6 0.715397 0.890990 0.659191
O O1 0.096844 0.281920 0.485204
O O2 0.158431 0.393066 0.700563
O O3 0.192931 0.188616 0.695675
O O4 0.002743 0.265783 0.738108
O O5 0.811384 0.192931 0.774733
O O6 0.606934 0.158431 0.769845
O O7 0.734217 0.002743 0.732300
O O8 0.150825 0.605625 0.751417
O O9 0.097498 0.710408 0.985204
O O10 0.158864 0.526303 0.485204
O O11 0.150825 0.605625 0.218991
O O12 0.000000 0.500000 0.319180
O O13 0.500000 0.000000 0.151229
#
# Coordination Sequence:
#
# PCOD9541466 Si02
#       6
#     4   4   4   4   4   4
#     4   9  19  33  46  65  95 124 146 179 229 271
#     4   9  19  33  46  65  95 124 146 179 229 271
#     4  10  19  30  47  70  92 116 152 190 218 259
#     4   8  15  30  48  63  86 120 151 181 224 269
#     4   8  15  30  48  63  86 120 151 181 224 269
#     4  10  19  30  47  70  92 116 152 190 218 259
#
# _framework density 15.677759
#
# number of rings (size 3 to 8) (size 9 to 14) (size 15 to 20)
#    0.000    3.000    0.000    3.000    0.000    9.333 
#    0.000    3.333    0.000    1.000    0.000    7.000 
#    0.000    0.000    0.000    0.000    0.000    0.000 
#
# Total GULP energy -133623.478836 kJ/mol
# GULP energy per Si atom -5567.644951 kJ/mol
# Density = 1.564208 g / cm^3
# Si number density = 15.677759 Si / 1000 Ang^3
#
#
#
# Elastic Constant Matrix: (Units=GPa)
#
#
# Indices 1 2 3 4 5 6 
#
# 1 105.9050 73.0099 51.6072 0.0000 0.0000 0.7837
# 2 73.0099 105.9050 51.6072 0.0000 0.0000 -0.7837
# 3 51.6072 51.6072 47.1051 0.0000 0.0000 0.0000
# 4 0.0000 0.0000 0.0000 11.0572 0.0000 0.0000
# 5 0.0000 0.0000 0.0000 0.0000 11.0572 0.0000
# 6 0.7837 -0.7837 0.0000 0.0000 0.0000 -1.4854
#
#
#
# Elastic Compliance Matrix: (Units=1/GPa)
#
#
# Indices 1 2 3 4 5 6 
#
# 1 0.022422 -0.007232 -0.016641 0.000000 0.000000 0.015646
# 2 -0.007232 0.022422 -0.016641 0.000000 0.000000 -0.015646
# 3 -0.016641 -0.016641 0.057692 0.000000 0.000000 0.000000
# 4 0.000000 0.000000 0.000000 0.090439 0.000000 0.000000
# 5 0.000000 0.000000 0.000000 0.000000 0.090439 0.000000
# 6 0.015646 -0.015646 0.000000 0.000000 0.000000 -0.656694
#
#
# Mechanical properties :
#
#
# Convention : Reuss Voigt Hill
#
# Bulk Modulus (GPa) = 46.49732 67.92931 57.21331
# Shear Modulus (GPa) = -17.53874 9.63852 -3.95011
#
# Velocity S-wave (km/s) = -3.34833 2.48218 -1.58903
# Velocity P-wave (km/s) = 3.84371 7.18592 5.76245
#
# Compressibility (1/GPa) = 0.02150662
#
# Stress axis : x y z
#
# Youngs Moduli (GPa) = 44.59963 44.59963 17.33338
#
# Poissons Ratio (x) = 0.32256 0.28845
# Poissons Ratio (y) = 0.32256 0.28845
# Poissons Ratio (z) = 0.74218 0.74218
#
# Static dielectric constant tensor:
#      x y z
#    x 1.524840 0.000000 0.000000 
#    y 0.000000 1.524840 0.000000 
#    z 0.000000 0.000000 1.525500 
# 
# From -- ./inp_files/424.got.cif
#   From: 2010.05.17/outbox.cif.g08.bks.cpg/sg77_cif.got.tgz:424.got - 2010.06.03 18:44:51.
