data_PCOD9541994
_publ_section_title
;
Structure prediction by ZEFSAII (Michael W. Deem and Ramdas Pophale) SiO2 
 PCOD9541994
Probable space group: I 4
;
_chemical_formula_sum "Si O2"
_cell_formula_units_Z 44
_cell_length_a 7.914043
_cell_length_b 7.914043
_cell_length_c 31.139052
_cell_angle_alpha 90.000000
_cell_angle_beta 90.000000
_cell_angle_gamma 90.000000
_cell_volume 1950.303490
_symmetry_space_group_name_H-M "I 4"
_symmetry_group_IT_number 79
_symmetry_cell_setting 'tetragonal'
loop_
_space_group_symop_operation_xyz
x,y,z
-y,x,z
-x,-y,z
y,-x,z
1/2+x,1/2+y,1/2+z
1/2-y,1/2+x,1/2+z
1/2-x,1/2-y,1/2+z
1/2+y,1/2-x,1/2+z
loop_
_atom_site_type_symbol
_atom_site_label
_atom_site_fract_x
_atom_site_fract_y
_atom_site_fract_z
Si Si1 0.233115 0.604229 0.669850
Si Si2 0.591980 0.232865 0.896552
Si Si3 0.107414 0.265965 0.076408
Si Si4 0.000000 0.500000 0.239771
Si Si5 0.590788 0.767383 0.310486
Si Si6 0.602507 0.767210 0.483712
O O1 0.290708 0.406771 0.672419
O O2 0.152905 0.639380 0.622780
O O3 0.103411 0.624401 0.708508
O O4 0.706742 0.400480 0.893681
O O5 0.647993 0.120814 0.856476
O O6 0.625840 0.149184 0.942431
O O7 0.910912 0.209626 0.076351
O O8 0.139691 0.350283 0.030324
O O9 0.896776 0.378982 0.271787
O O10 0.397771 0.706103 0.307181
O O11 0.407615 0.708786 0.481884
#
# Coordination Sequence:
#
# PCOD9541994 Si02
#       6
#     8   8   8   4   8   8
#     4   9  18  34  56  82 114 149 184 226 274 324
#     4  11  24  40  57  81 114 148 185 232 283 334
#     4   7  12  27  51  79 111 145 182 222 264 317
#     4  12  22  36  58  86 112 140 186 236 284 330
#     4  11  24  41  60  82 111 147 186 230 281 340
#     4   9  17  32  57  86 114 147 186 227 272 325
#
# _framework density 22.560593000000001
#
# number of rings (size 3 to 8) (size 9 to 14) (size 15 to 20)
#    0.000    2.364    0.000    5.455    0.000    3.636 
#    0.000    7.273    0.000    0.000    0.000    2.545 
#    0.000    0.000    0.000    0.000    0.000    0.000 
#
# Total GULP energy -122989.087086 kJ/mol
# GULP energy per Si atom -5590.413049 kJ/mol
# Density = 2.250924 g / cm^3
# Si number density = 22.560593 Si / 1000 Ang^3
#
#
#
# Elastic Constant Matrix: (Units=GPa)
#
#
# Indices 1 2 3 4 5 6 
#
# 1 53.6073 14.6249 37.5506 0.0000 0.0000 6.7040
# 2 14.6249 53.6073 37.5506 0.0000 0.0000 -6.7040
# 3 37.5506 37.5506 226.0120 0.0000 0.0000 0.0000
# 4 0.0000 0.0000 0.0000 -2.7797 0.0000 0.0000
# 5 0.0000 0.0000 0.0000 0.0000 -2.7797 0.0000
# 6 6.7040 -6.7040 0.0000 0.0000 0.0000 25.3214
#
#
#
# Elastic Compliance Matrix: (Units=1/GPa)
#
#
# Indices 1 2 3 4 5 6 
#
# 1 0.023079 -0.005143 -0.002980 0.000000 0.000000 -0.007472
# 2 -0.005143 0.023079 -0.002980 0.000000 0.000000 0.007472
# 3 -0.002980 -0.002980 0.005415 0.000000 0.000000 0.000000
# 4 0.000000 0.000000 0.000000 -0.359746 0.000000 0.000000
# 5 0.000000 0.000000 0.000000 0.000000 -0.359746 0.000000
# 6 -0.007472 0.007472 0.000000 0.000000 0.000000 0.043449
#
#
# Mechanical properties :
#
#
# Convention : Reuss Voigt Hill
#
# Bulk Modulus (GPa) = 34.05234 56.96432 45.50833
# Shear Modulus (GPa) = -8.43919 20.18575 5.87328
#
# Velocity S-wave (km/s) = -1.93618 2.99446 1.61524
# Velocity P-wave (km/s) = 3.18247 6.10410 4.86765
#
# Compressibility (1/GPa) = 0.02936656
#
# Stress axis : x y z
#
# Youngs Moduli (GPa) = 43.32901 43.32902 184.68115
#
# Poissons Ratio (x) = 0.22286 0.55034
# Poissons Ratio (y) = 0.22286 0.55034
# Poissons Ratio (z) = 0.12912 0.12912
#
# Static dielectric constant tensor:
#      x y z
#    x 1.837410 0.000000 0.000000 
#    y 0.000000 1.837410 0.000000 
#    z 0.000000 0.000000 1.851430 
# 
# From -- ./inp_files/2090.got.cif
#   From: 2010.05.17/outbox.cif.g08.bks.cpg/sg79_cif.got.tgz:2090.got - 2010.06.03 18:47:27.
