data_PCOD9541769
_publ_section_title
;
Structure prediction by ZEFSAII (Michael W. Deem and Ramdas Pophale) SiO2 
 PCOD9541769
Probable space group: P 43
;
_chemical_formula_sum "Si O2"
_cell_formula_units_Z 20
_cell_length_a 6.169539
_cell_length_b 6.169539
_cell_length_c 18.315934
_cell_angle_alpha 90.000000
_cell_angle_beta 90.000000
_cell_angle_gamma 90.000000
_cell_volume 697.163269
_symmetry_space_group_name_H-M "P 43"
_symmetry_group_IT_number 78
_symmetry_cell_setting 'tetragonal'
loop_
_space_group_symop_operation_xyz
x,y,z
-y,x,3/4+z
-x,-y,1/2+z
y,-x,1/4+z
loop_
_atom_site_type_symbol
_atom_site_label
_atom_site_fract_x
_atom_site_fract_y
_atom_site_fract_z
Si Si1 0.283313 0.261029 0.436740
Si Si2 0.989538 0.472000 0.780179
Si Si3 0.885429 0.490813 0.488882
Si Si4 0.106276 0.024513 0.311840
Si Si5 0.464230 0.346451 0.895010
O O1 0.236073 0.054604 0.387412
O O2 0.342085 0.478478 0.392603
O O3 0.065935 0.306700 0.481307
O O4 0.495382 0.210631 0.483895
O O5 0.983169 0.724688 0.810105
O O6 0.797706 0.466856 0.718696
O O7 0.987604 0.223222 0.811348
O O8 0.752909 0.516153 0.413577
O O9 0.013758 0.717545 0.497740
O O10 0.534412 0.771675 0.317735
#
# Coordination Sequence:
#
# PCOD9541769 Si02
#       5
#     4   4   4   4   4
#     4  12  26  50  84 123 173 246 304 399 485 584
#     4  11  26  50  85 123 177 240 306 389 476 582
#     4  11  26  51  86 125 176 245 318 399 490 590
#     4  11  25  52  83 124 179 233 310 388 474 578
#     4  11  25  51  82 125 177 238 316 389 485 580
#
# _framework density 28.687681999999999
#
# number of rings (size 3 to 8) (size 9 to 14) (size 15 to 20)
#    0.000    0.800    4.000    2.400    2.800    1.600 
#   10.800    0.000    0.000    0.000    0.000    0.000 
#    0.000    0.000    0.000    0.000    0.000    0.000 
#
# Total GULP energy -111629.408049 kJ/mol
# GULP energy per Si atom -5581.470402 kJ/mol
# Density = 2.862239 g / cm^3
# Si number density = 28.687682 Si / 1000 Ang^3
#
#
#
# Elastic Constant Matrix: (Units=GPa)
#
#
# Indices 1 2 3 4 5 6 
#
# 1 153.7562 98.5336 79.2204 0.0000 0.0000 -15.1646
# 2 98.5336 153.7562 79.2204 0.0000 0.0000 15.1646
# 3 79.2204 79.2204 138.0086 0.0000 0.0000 0.0000
# 4 0.0000 0.0000 0.0000 63.0242 0.0000 0.0000
# 5 0.0000 0.0000 0.0000 0.0000 63.0242 0.0000
# 6 -15.1646 15.1646 0.0000 0.0000 0.0000 84.4382
#
#
#
# Elastic Compliance Matrix: (Units=1/GPa)
#
#
# Indices 1 2 3 4 5 6 
#
# 1 0.013144 -0.006946 -0.003558 0.000000 0.000000 0.003608
# 2 -0.006946 0.013144 -0.003558 0.000000 0.000000 -0.003608
# 3 -0.003558 -0.003558 0.011331 0.000000 0.000000 0.000000
# 4 0.000000 0.000000 0.000000 0.015867 0.000000 0.000000
# 5 0.000000 0.000000 0.000000 0.000000 0.015867 0.000000
# 6 0.003608 -0.003608 0.000000 0.000000 0.000000 0.013139
#
#
# Mechanical properties :
#
#
# Convention : Reuss Voigt Hill
#
# Bulk Modulus (GPa) = 105.31573 106.60777 105.96175
# Shear Modulus (GPa) = 43.94445 54.66709 49.30577
#
# Velocity S-wave (km/s) = 3.91810 4.37005 4.15023
# Velocity P-wave (km/s) = 7.56700 7.91867 7.74483
#
# Compressibility (1/GPa) = 0.00949526
#
# Stress axis : x y z
#
# Youngs Moduli (GPa) = 76.07979 76.07979 88.25729
#
# Poissons Ratio (x) = 0.52845 0.31401
# Poissons Ratio (y) = 0.52845 0.31401
# Poissons Ratio (z) = 0.27068 0.27068
#
# Static dielectric constant tensor:
#      x y z
#    x 2.320100 0.000000 0.000000 
#    y 0.000000 2.320100 0.000000 
#    z 0.000000 0.000000 2.427050 
# 
# From -- ./inp_files/1668.got.cif
#   From: 2010.05.17/outbox.cif.g08.bks.cpg/sg78_cif.got.tgz:1668.got - 2010.06.03 18:45:56.
