data_PCOD9541755
_publ_section_title
;
Structure prediction by ZEFSAII (Michael W. Deem and Ramdas Pophale) SiO2 
 PCOD9541755
Probable space group: P 43
;
_chemical_formula_sum "Si O2"
_cell_formula_units_Z 28
_cell_length_a 11.522840
_cell_length_b 11.522840
_cell_length_c 9.855865
_cell_angle_alpha 90.000000
_cell_angle_beta 90.000000
_cell_angle_gamma 90.000000
_cell_volume 1308.620771
_symmetry_space_group_name_H-M "P 43"
_symmetry_group_IT_number 78
_symmetry_cell_setting 'tetragonal'
loop_
_space_group_symop_operation_xyz
x,y,z
-y,x,3/4+z
-x,-y,1/2+z
y,-x,1/4+z
loop_
_atom_site_type_symbol
_atom_site_label
_atom_site_fract_x
_atom_site_fract_y
_atom_site_fract_z
Si Si1 0.900808 0.560275 0.021090
Si Si2 0.057402 0.760478 0.929903
Si Si3 0.197963 0.141222 0.386805
Si Si4 0.445590 0.399797 0.855360
Si Si5 0.961086 0.666257 0.526240
Si Si6 0.228298 0.378078 0.255052
Si Si7 0.306830 0.803786 0.026752
O O1 0.825736 0.624723 0.136195
O O2 0.832037 0.554218 0.879237
O O3 0.013898 0.641211 0.996204
O O4 0.947555 0.434995 0.056677
O O5 0.104107 0.744259 0.777950
O O6 0.937139 0.831925 0.917353
O O7 0.167967 0.812999 0.006482
O O8 0.258435 0.255493 0.325296
O O9 0.215381 0.033336 0.287206
O O10 0.491385 0.428270 0.705127
O O11 0.322883 0.335285 0.836880
O O12 0.543026 0.323221 0.932273
O O13 0.863656 0.657684 0.640572
O O14 0.900835 0.651720 0.382052
#
# Coordination Sequence:
#
# PCOD9541755 Si02
#       7
#     4   4   4   4   4   4   4
#     4  11  25  46  79 103 146 208 246 309 381 458
#     4  11  23  48  70 108 148 195 259 297 382 463
#     4  11  24  45  76 104 149 200 242 311 373 461
#     4  12  30  50  76 112 152 195 256 321 378 461
#     4  12  25  45  76 111 147 191 258 308 375 456
#     4  11  24  50  69 107 148 195 247 301 378 452
#     4  12  27  48  76 115 148 204 246 329 379 447
#
# _framework density 21.396571999999999
#
# number of rings (size 3 to 8) (size 9 to 14) (size 15 to 20)
#    0.000    0.571    7.143    1.714    4.000    2.286 
#    0.000    0.000    0.000    0.000    0.000    0.000 
#    0.000    0.000    0.000    0.000    0.000    0.000 
#
# Total GULP energy -156488.122152 kJ/mol
# GULP energy per Si atom -5588.861505 kJ/mol
# Density = 2.134787 g / cm^3
# Si number density = 21.396572 Si / 1000 Ang^3
#
#
#
# Elastic Constant Matrix: (Units=GPa)
#
#
# Indices 1 2 3 4 5 6 
#
# 1 85.9644 34.9719 14.4222 0.0000 0.0000 8.1549
# 2 34.9719 85.9644 14.4222 0.0000 0.0000 -8.1549
# 3 14.4222 14.4222 83.7215 0.0000 0.0000 0.0000
# 4 0.0000 0.0000 0.0000 34.1332 0.0000 0.0000
# 5 0.0000 0.0000 0.0000 0.0000 34.1332 0.0000
# 6 8.1549 -8.1549 0.0000 0.0000 0.0000 4.3569
#
#
#
# Elastic Compliance Matrix: (Units=1/GPa)
#
#
# Indices 1 2 3 4 5 6 
#
# 1 0.028743 -0.020120 -0.001485 0.000000 0.000000 -0.091456
# 2 -0.020120 0.028743 -0.001485 0.000000 0.000000 0.091456
# 3 -0.001485 -0.001485 0.012456 0.000000 0.000000 0.000000
# 4 0.000000 0.000000 0.000000 0.029297 0.000000 0.000000
# 5 0.000000 0.000000 0.000000 0.000000 0.029297 0.000000
# 6 -0.091456 0.091456 0.000000 0.000000 0.000000 0.571878
#
#
# Mechanical properties :
#
#
# Convention : Reuss Voigt Hill
#
# Bulk Modulus (GPa) = 42.08657 42.58700 42.33678
# Shear Modulus (GPa) = 6.62677 27.31359 16.97018
#
# Velocity S-wave (km/s) = 1.76177 3.57675 2.81930
# Velocity P-wave (km/s) = 4.88374 6.08312 5.51613
#
# Compressibility (1/GPa) = 0.02376055
#
# Stress axis : x y z
#
# Youngs Moduli (GPa) = 34.79132 34.79132 80.28161
#
# Poissons Ratio (x) = 0.69999 0.11925
# Poissons Ratio (y) = 0.69999 0.11925
# Poissons Ratio (z) = 0.05168 0.05168
#
# Static dielectric constant tensor:
#      x y z
#    x 1.776860 0.000000 0.000000 
#    y 0.000000 1.776860 0.000000 
#    z 0.000000 0.000000 1.779550 
# 
# From -- ./inp_files/636.got.cif
#   From: 2010.05.17/outbox.cif.g08.bks.cpg/sg78_cif.got.tgz:636.got - 2010.06.03 18:45:56.
