data_PCOD9541364
_publ_section_title
;
Structure prediction by ZEFSAII (Michael W. Deem and Ramdas Pophale) SiO2 
 PCOD9541364
Probable space group: P 41
;
_chemical_formula_sum "Si O2"
_cell_formula_units_Z 24
_cell_length_a 11.620044
_cell_length_b 11.620044
_cell_length_c 8.047430
_cell_angle_alpha 90.000000
_cell_angle_beta 90.000000
_cell_angle_gamma 90.000000
_cell_volume 1086.607636
_symmetry_space_group_name_H-M "P 41"
_symmetry_group_IT_number 76
_symmetry_cell_setting 'tetragonal'
loop_
_space_group_symop_operation_xyz
x,y,z
-y,x,1/4+z
-x,-y,1/2+z
y,-x,3/4+z
loop_
_atom_site_type_symbol
_atom_site_label
_atom_site_fract_x
_atom_site_fract_y
_atom_site_fract_z
Si Si1 0.808759 0.746897 0.028590
Si Si2 0.545826 0.163464 0.354639
Si Si3 0.985944 0.378557 0.392576
Si Si4 0.797708 0.193070 0.384751
Si Si5 0.038562 0.867385 0.453049
Si Si6 0.621219 0.416294 0.759953
O O1 0.790227 0.853922 0.151358
O O2 0.799681 0.788792 0.835503
O O3 0.710781 0.655283 0.066803
O O4 0.933633 0.685566 0.029917
O O5 0.482186 0.088668 0.216448
O O6 0.670601 0.216835 0.312861
O O7 0.463935 0.267327 0.410578
O O8 0.574587 0.074848 0.505147
O O9 0.895602 0.282234 0.329772
O O10 0.826072 0.064399 0.321667
O O11 0.978427 0.905438 0.284934
O O12 0.596120 0.509207 0.898707
#
# Coordination Sequence:
#
# PCOD9541364 Si02
#       6
#     4   4   4   4   4   4
#     4  11  24  44  70 102 146 190 241 298 367 422
#     4  11  24  44  72 103 142 191 238 297 364 425
#     4  11  22  44  71  98 151 186 237 305 366 430
#     4  11  23  44  69 102 142 194 240 298 361 429
#     4  12  24  39  67 104 147 189 236 285 359 440
#     4  12  25  53  75 101 140 192 244 301 357 424
#
# _framework density 22.087091000000001
#
# number of rings (size 3 to 8) (size 9 to 14) (size 15 to 20)
#    0.000    0.667    5.000    5.000    2.333    0.000 
#    9.000    0.000    0.000    0.000    0.000    0.000 
#    0.000    0.000    0.000    0.000    0.000    0.000 
#
# Total GULP energy -134186.026917 kJ/mol
# GULP energy per Si atom -5591.084455 kJ/mol
# Density = 2.203682 g / cm^3
# Si number density = 22.087091 Si / 1000 Ang^3
#
#
#
# Elastic Constant Matrix: (Units=GPa)
#
#
# Indices 1 2 3 4 5 6 
#
# 1 124.8885 34.2528 34.5232 0.0000 0.0000 27.4512
# 2 34.2528 124.8885 34.5232 0.0000 0.0000 -27.4512
# 3 34.5232 34.5232 53.9256 0.0000 0.0000 0.0000
# 4 0.0000 0.0000 0.0000 39.1234 0.0000 0.0000
# 5 0.0000 0.0000 0.0000 0.0000 39.1234 0.0000
# 6 27.4512 -27.4512 0.0000 0.0000 0.0000 257.4814
#
#
#
# Elastic Compliance Matrix: (Units=1/GPa)
#
#
# Indices 1 2 3 4 5 6 
#
# 1 0.010248 -0.001547 -0.005570 0.000000 0.000000 -0.001258
# 2 -0.001547 0.010248 -0.005570 0.000000 0.000000 0.001258
# 3 -0.005570 -0.005570 0.025676 0.000000 0.000000 0.000000
# 4 0.000000 0.000000 0.000000 0.025560 0.000000 0.000000
# 5 0.000000 0.000000 0.000000 0.000000 0.025560 0.000000
# 6 -0.001258 0.001258 0.000000 0.000000 0.000000 0.004152
#
#
# Mechanical properties :
#
#
# Convention : Reuss Voigt Hill
#
# Bulk Modulus (GPa) = 48.08458 56.70011 52.39235
# Shear Modulus (GPa) = 37.38314 80.50586 58.94450
#
# Velocity S-wave (km/s) = 4.11850 6.04387 5.17158
# Velocity P-wave (km/s) = 6.66587 8.62737 7.70926
#
# Compressibility (1/GPa) = 0.02079669
#
# Stress axis : x y z
#
# Youngs Moduli (GPa) = 97.58342 97.58342 38.94702
#
# Poissons Ratio (x) = 0.15099 0.21693
# Poissons Ratio (y) = 0.15099 0.21693
# Poissons Ratio (z) = 0.54354 0.54354
#
# Static dielectric constant tensor:
#      x y z
#    x 1.825380 0.000000 0.000000 
#    y 0.000000 1.825380 0.000000 
#    z 0.000000 0.000000 1.826920 
# 
# From -- ./inp_files/521.got.cif
#   From: 2010.05.17/outbox.cif.g08.bks.cpg/sg76_cif.got.tgz:521.got - 2010.06.03 18:43:17.
