data_PCOD9541620
_publ_section_title
;
Structure prediction by ZEFSAII (Michael W. Deem and Ramdas Pophale) SiO2 
 PCOD9541620
Probable space group: P 43
;
_chemical_formula_sum "Si O2"
_cell_formula_units_Z 24
_cell_length_a 15.606000
_cell_length_b 15.606000
_cell_length_c 5.057423
_cell_angle_alpha 90.000000
_cell_angle_beta 90.000000
_cell_angle_gamma 90.000000
_cell_volume 1231.721393
_symmetry_space_group_name_H-M "P 43"
_symmetry_group_IT_number 78
_symmetry_cell_setting 'tetragonal'
loop_
_space_group_symop_operation_xyz
x,y,z
-y,x,3/4+z
-x,-y,1/2+z
y,-x,1/4+z
loop_
_atom_site_type_symbol
_atom_site_label
_atom_site_fract_x
_atom_site_fract_y
_atom_site_fract_z
Si Si1 0.114378 0.698392 0.540700
Si Si2 0.351734 0.705258 0.804477
Si Si3 0.223598 0.422737 0.051850
Si Si4 0.198392 0.614377 0.039601
Si Si5 0.723598 0.077263 0.778450
Si Si6 0.148267 0.205258 0.525823
O O1 0.138597 0.638596 0.790149
O O2 0.174790 0.674791 0.290149
O O3 0.130125 0.794701 0.650721
O O4 0.016190 0.689394 0.457562
O O5 0.281105 0.781104 0.790149
O O6 0.422531 0.734245 0.013462
O O7 0.294701 0.630125 0.929581
O O8 0.189394 0.516190 0.122740
O O9 0.294172 0.391111 0.263860
O O10 0.146258 0.353742 0.040150
O O11 0.794171 0.108889 0.566438
O O12 0.765755 0.077469 0.066837
#
# Coordination Sequence:
#
# PCOD9541620 Si02
#       6
#     4   4   4   4   4   4
#     4  11  21  34  55  82 109 140 180 226 273 324
#     4   9  18  34  52  73 102 141 183 211 251 323
#     4  10  20  34  54  79 108 141 175 219 272 323
#     4  11  21  34  55  82 109 140 180 226 273 324
#     4  10  20  34  54  79 108 141 175 219 272 323
#     4   9  18  34  52  73 102 141 183 211 251 323
#
# _framework density 19.484925
#
# number of rings (size 3 to 8) (size 9 to 14) (size 15 to 20)
#    0.000    2.000    0.000    7.000    0.000    1.333 
#    0.000    0.000    0.000    4.000    0.000    0.000 
#    0.000    0.000    0.000    0.000    0.000    0.000 
#
# Total GULP energy -133713.169656 kJ/mol
# GULP energy per Si atom -5571.382069 kJ/mol
# Density = 1.944058 g / cm^3
# Si number density = 19.484925 Si / 1000 Ang^3
#
#
#
# Elastic Constant Matrix: (Units=GPa)
#
#
# Indices 1 2 3 4 5 6 
#
# 1 37.1299 39.5863 20.3440 0.0000 0.0000 -0.0003
# 2 39.5863 37.1299 20.3440 0.0000 0.0000 0.0003
# 3 20.3440 20.3440 102.4715 0.0000 0.0000 0.0000
# 4 0.0000 0.0000 0.0000 24.0165 0.0000 0.0000
# 5 0.0000 0.0000 0.0000 0.0000 24.0165 0.0000
# 6 -0.0003 0.0003 0.0000 0.0000 0.0000 11.6684
#
#
#
# Elastic Compliance Matrix: (Units=1/GPa)
#
#
# Indices 1 2 3 4 5 6 
#
# 1 -0.196270 0.210839 -0.002892 0.000000 0.000000 -0.000009
# 2 0.210839 -0.196270 -0.002892 0.000000 0.000000 0.000009
# 3 -0.002892 -0.002892 0.010907 0.000000 0.000000 0.000000
# 4 0.000000 0.000000 0.000000 0.041638 0.000000 0.000000
# 5 0.000000 0.000000 0.000000 0.000000 0.041638 0.000000
# 6 -0.000009 0.000009 0.000000 0.000000 0.000000 0.085701
#
#
# Mechanical properties :
#
#
# Convention : Reuss Voigt Hill
#
# Bulk Modulus (GPa) = 35.11761 37.47554 36.29658
# Shear Modulus (GPa) = -8.15302 18.37075 5.10887
#
# Velocity S-wave (km/s) = -2.04777 3.07387 1.62100
# Velocity P-wave (km/s) = 3.53142 5.64562 4.70872
#
# Compressibility (1/GPa) = 0.02847574
#
# Stress axis : x y z
#
# Youngs Moduli (GPa) = -5.09503 -5.09503 91.68169
#
# Poissons Ratio (x) = 1.07423 0.26519
# Poissons Ratio (y) = 1.07423 0.26519
# Poissons Ratio (z) = -0.01474 -0.01474
#
# Static dielectric constant tensor:
#      x y z
#    x 1.710920 0.000000 0.000000 
#    y 0.000000 1.710920 0.000000 
#    z 0.000000 0.000000 1.706900 
# 
# From -- ./inp_files/183.got.cif
#   From: 2010.05.17/outbox.cif.g08.bks.cpg/sg78_cif.got.tgz:183.got - 2010.06.03 18:45:56.
