data_PCOD9541325
_publ_section_title
;
Structure prediction by ZEFSAII (Michael W. Deem and Ramdas Pophale) SiO2 
 PCOD9541325
Probable space group: P 41
;
_chemical_formula_sum "Si O2"
_cell_formula_units_Z 16
_cell_length_a 11.227948
_cell_length_b 11.227948
_cell_length_c 4.752036
_cell_angle_alpha 90.000000
_cell_angle_beta 90.000000
_cell_angle_gamma 90.000000
_cell_volume 599.074049
_symmetry_space_group_name_H-M "P 41"
_symmetry_group_IT_number 76
_symmetry_cell_setting 'tetragonal'
loop_
_space_group_symop_operation_xyz
x,y,z
-y,x,1/4+z
-x,-y,1/2+z
y,-x,3/4+z
loop_
_atom_site_type_symbol
_atom_site_label
_atom_site_fract_x
_atom_site_fract_y
_atom_site_fract_z
Si Si1 0.713850 0.228553 0.138870
Si Si2 0.423444 0.971542 0.001369
Si Si3 0.949806 0.173261 0.359756
Si Si4 0.364908 0.372556 0.364064
O O1 0.633097 0.135232 0.314079
O O2 0.849293 0.183704 0.113946
O O3 0.659812 0.267470 0.846238
O O4 0.710503 0.343240 0.344859
O O5 0.481147 0.050937 0.749661
O O6 0.310865 0.025452 0.172213
O O7 0.884364 0.076818 0.548888
O O8 0.493369 0.356795 0.501948
#
# Coordination Sequence:
#
# PCOD9541325 Si02
#       4
#     4   4   4   4
#     4  11  26  45  77 113 145 208 246 326 389 449
#     4  11  26  47  75 115 152 195 254 316 391 457
#     4  10  26  50  79 111 155 204 262 318 387 462
#     4  12  26  46  71 109 154 203 260 308 385 460
#
# _framework density 26.707888000000001
#
# number of rings (size 3 to 8) (size 9 to 14) (size 15 to 20)
#    0.000    1.000    0.000    4.500   10.500    8.000 
#    0.000    0.000    0.000    0.000    0.000    0.000 
#    0.000    0.000    0.000    0.000    0.000    0.000 
#
# Total GULP energy -89555.501117 kJ/mol
# GULP energy per Si atom -5597.218820 kJ/mol
# Density = 2.664710 g / cm^3
# Si number density = 26.707888 Si / 1000 Ang^3
#
#
#
# Elastic Constant Matrix: (Units=GPa)
#
#
# Indices 1 2 3 4 5 6 
#
# 1 121.0471 48.0717 48.2060 0.0000 0.0000 0.9034
# 2 48.0717 121.0471 48.2060 0.0000 0.0000 -0.9034
# 3 48.2060 48.2060 157.5239 0.0000 0.0000 0.0000
# 4 0.0000 0.0000 0.0000 14.6057 0.0000 0.0000
# 5 0.0000 0.0000 0.0000 0.0000 14.6057 0.0000
# 6 0.9034 -0.9034 0.0000 0.0000 0.0000 27.8811
#
#
#
# Elastic Compliance Matrix: (Units=1/GPa)
#
#
# Indices 1 2 3 4 5 6 
#
# 1 0.010438 -0.003276 -0.002192 0.000000 0.000000 -0.000444
# 2 -0.003276 0.010438 -0.002192 0.000000 0.000000 0.000444
# 3 -0.002192 -0.002192 0.007690 0.000000 0.000000 0.000000
# 4 0.000000 0.000000 0.000000 0.068467 0.000000 0.000000
# 5 0.000000 0.000000 0.000000 0.000000 0.068467 0.000000
# 6 -0.000444 0.000444 0.000000 0.000000 0.000000 0.035895
#
#
# Mechanical properties :
#
#
# Convention : Reuss Voigt Hill
#
# Bulk Modulus (GPa) = 75.48714 76.50951 75.99832
# Shear Modulus (GPa) = 22.61109 28.42742 25.51925
#
# Velocity S-wave (km/s) = 2.91281 3.26603 3.09446
# Velocity P-wave (km/s) = 6.29587 6.55222 6.42532
#
# Compressibility (1/GPa) = 0.01324729
#
# Stress axis : x y z
#
# Youngs Moduli (GPa) = 95.79992 95.79992 130.04235
#
# Poissons Ratio (x) = 0.31383 0.28504
# Poissons Ratio (y) = 0.31383 0.28504
# Poissons Ratio (z) = 0.20999 0.20999
#
# Static dielectric constant tensor:
#      x y z
#    x 2.138420 0.000000 0.000000 
#    y 0.000000 2.138420 0.000000 
#    z 0.000000 0.000000 2.042360 
# 
# From -- ./inp_files/57.got.cif
#   From: 2010.05.17/outbox.cif.g08.bks.cpg/sg76_cif.got.tgz:57.got - 2010.06.03 18:43:17.
