data_PCOD9541139
_publ_section_title
;
Structure prediction by ZEFSAII (Michael W. Deem and Ramdas Pophale) SiO2 
 PCOD9541139
Probable space group: P 41
;
_chemical_formula_sum "Si O2"
_cell_formula_units_Z 24
_cell_length_a 9.775056
_cell_length_b 9.775056
_cell_length_c 12.565859
_cell_angle_alpha 90.000000
_cell_angle_beta 90.000000
_cell_angle_gamma 90.000000
_cell_volume 1200.689438
_symmetry_space_group_name_H-M "P 41"
_symmetry_group_IT_number 76
_symmetry_cell_setting 'tetragonal'
loop_
_space_group_symop_operation_xyz
x,y,z
-y,x,1/4+z
-x,-y,1/2+z
y,-x,3/4+z
loop_
_atom_site_type_symbol
_atom_site_label
_atom_site_fract_x
_atom_site_fract_y
_atom_site_fract_z
Si Si1 0.772572 0.029762 0.726370
Si Si2 0.546843 0.773308 0.033865
Si Si3 0.129743 0.737100 0.576508
Si Si4 0.129738 0.262904 0.233562
Si Si5 0.453160 0.773309 0.276204
Si Si6 0.970230 0.227422 0.833699
O O1 0.753182 0.080071 0.605593
O O2 0.653693 0.103108 0.794519
O O3 0.912181 0.087814 0.780032
O O4 0.772791 0.867415 0.720514
O O5 0.408338 0.794833 0.968046
O O6 0.500001 0.784709 0.155034
O O7 0.633855 0.633854 0.030035
O O8 0.653697 0.896889 0.015548
O O9 0.205170 0.591665 0.592023
O O10 0.080088 0.753191 0.454475
O O11 0.999999 0.747690 0.655032
O O12 0.227207 0.867423 0.589565
#
# Coordination Sequence:
#
# PCOD9541139 Si02
#       6
#     4   4   4   4   4   4
#     4  10  20  37  60  84 113 152 192 233 291 359
#     4   9  21  39  56  77 110 154 194 228 287 366
#     4  11  21  34  58  91 117 142 193 255 298 337
#     4  11  21  34  58  91 117 142 193 255 298 337
#     4   9  21  39  56  77 110 154 194 228 287 366
#     4  10  20  37  60  84 113 152 192 233 291 359
#
# _framework density 19.988515
#
# number of rings (size 3 to 8) (size 9 to 14) (size 15 to 20)
#    0.000    2.000    0.000    4.000    0.000    8.000 
#    0.000    8.333    0.000    2.000    0.000    0.000 
#    0.000    0.000    0.000    0.000    0.000    0.000 
#
# Total GULP energy -133828.242712 kJ/mol
# GULP energy per Si atom -5576.176780 kJ/mol
# Density = 1.994302 g / cm^3
# Si number density = 19.988515 Si / 1000 Ang^3
#
#
#
# Elastic Constant Matrix: (Units=GPa)
#
#
# Indices 1 2 3 4 5 6 
#
# 1 123.8731 59.4046 2.6622 0.0000 0.0000 -0.0009
# 2 59.4046 123.8731 2.6622 0.0000 0.0000 0.0009
# 3 2.6622 2.6622 53.9005 0.0000 0.0000 0.0000
# 4 0.0000 0.0000 0.0000 6.9880 0.0000 0.0000
# 5 0.0000 0.0000 0.0000 0.0000 6.9880 0.0000
# 6 -0.0009 0.0009 0.0000 0.0000 0.0000 6.9760
#
#
#
# Elastic Compliance Matrix: (Units=1/GPa)
#
#
# Indices 1 2 3 4 5 6 
#
# 1 0.010488 -0.005024 -0.000270 0.000000 0.000000 0.000002
# 2 -0.005024 0.010488 -0.000270 0.000000 0.000000 -0.000002
# 3 -0.000270 -0.000270 0.018579 0.000000 0.000000 0.000000
# 4 0.000000 0.000000 0.000000 0.143102 0.000000 0.000000
# 5 0.000000 0.000000 0.000000 0.000000 0.143102 0.000000
# 6 0.000002 -0.000002 0.000000 0.000000 0.000000 0.143348
#
#
# Mechanical properties :
#
#
# Convention : Reuss Voigt Hill
#
# Bulk Modulus (GPa) = 35.17669 47.90056 41.53862
# Shear Modulus (GPa) = 10.21014 19.98493 15.09754
#
# Velocity S-wave (km/s) = 2.26254 3.16542 2.75127
# Velocity P-wave (km/s) = 4.94592 6.11359 5.56049
#
# Compressibility (1/GPa) = 0.02842792
#
# Stress axis : x y z
#
# Youngs Moduli (GPa) = 95.34938 95.34938 53.82319
#
# Poissons Ratio (x) = 0.47901 0.01453
# Poissons Ratio (y) = 0.47901 0.01453
# Poissons Ratio (z) = 0.02573 0.02573
#
# Static dielectric constant tensor:
#      x y z
#    x 1.773220 0.000000 0.000000 
#    y 0.000000 1.773220 0.000000 
#    z 0.000000 0.000000 1.699530 
# 
# From -- ./inp_files/1089.got.cif
#   From: 2010.05.17/outbox.cif.g08.bks.cpg/sg76_cif.got.tgz:1089.got - 2010.06.03 18:43:17.
