data_PCOD9541212
_publ_section_title
;
Structure prediction by ZEFSAII (Michael W. Deem and Ramdas Pophale) SiO2 
 PCOD9541212
Probable space group: P 41
;
_chemical_formula_sum "Si O2"
_cell_formula_units_Z 24
_cell_length_a 7.421214
_cell_length_b 7.421214
_cell_length_c 17.089980
_cell_angle_alpha 90.000000
_cell_angle_beta 90.000000
_cell_angle_gamma 90.000000
_cell_volume 941.220689
_symmetry_space_group_name_H-M "P 41"
_symmetry_group_IT_number 76
_symmetry_cell_setting 'tetragonal'
loop_
_space_group_symop_operation_xyz
x,y,z
-y,x,1/4+z
-x,-y,1/2+z
y,-x,3/4+z
loop_
_atom_site_type_symbol
_atom_site_label
_atom_site_fract_x
_atom_site_fract_y
_atom_site_fract_z
Si Si1 0.528214 0.365129 0.745330
Si Si2 0.455101 0.641875 0.856082
Si Si3 0.961051 0.557400 0.104288
Si Si4 0.922771 0.232992 0.391755
Si Si5 0.949773 0.470538 0.774702
Si Si6 0.921792 0.941365 0.050955
O O1 0.405538 0.517016 0.784018
O O2 0.519839 0.401191 0.653397
O O3 0.740882 0.418519 0.756266
O O4 0.491682 0.177633 0.788190
O O5 0.536519 0.831098 0.829334
O O6 0.274989 0.686730 0.904077
O O7 0.961074 0.474110 0.191509
O O8 0.922654 0.771509 0.110707
O O9 0.013032 0.155465 0.470317
O O10 0.030448 0.384269 0.342932
O O11 0.916479 0.066297 0.331430
O O12 0.024788 0.275146 0.798037
#
# Coordination Sequence:
#
# PCOD9541212 Si02
#       6
#     4   4   4   4   4   4
#     4  10  24  42  70  99 140 183 245 301 356 441
#     4  11  24  44  66 108 142 190 242 300 371 439
#     4  10  21  45  72  95 142 189 238 303 369 435
#     4  12  25  45  75 104 152 192 245 312 372 457
#     4  10  23  43  73 105 138 195 246 298 377 442
#     4  11  23  47  72 105 144 191 250 308 377 448
#
# _framework density 25.498799000000002
#
# number of rings (size 3 to 8) (size 9 to 14) (size 15 to 20)
#    0.000    1.333    1.667    4.000    7.000    1.333 
#    6.000    0.000    0.000    0.000    0.000    0.000 
#    0.000    0.000    0.000    0.000    0.000    0.000 
#
# Total GULP energy -134210.771161 kJ/mol
# GULP energy per Si atom -5592.115465 kJ/mol
# Density = 2.544076 g / cm^3
# Si number density = 25.498799 Si / 1000 Ang^3
#
#
#
# Elastic Constant Matrix: (Units=GPa)
#
#
# Indices 1 2 3 4 5 6 
#
# 1 76.2410 -19.5403 28.2737 0.0000 0.0000 -4.3932
# 2 -19.5403 76.2410 28.2737 0.0000 0.0000 4.3932
# 3 28.2737 28.2737 115.8681 0.0000 0.0000 0.0000
# 4 0.0000 0.0000 0.0000 41.2530 0.0000 0.0000
# 5 0.0000 0.0000 0.0000 0.0000 41.2530 0.0000
# 6 -4.3932 4.3932 0.0000 0.0000 0.0000 29.0300
#
#
#
# Elastic Compliance Matrix: (Units=1/GPa)
#
#
# Indices 1 2 3 4 5 6 
#
# 1 0.016948 0.006361 -0.005688 0.000000 0.000000 0.001602
# 2 0.006361 0.016948 -0.005688 0.000000 0.000000 -0.001602
# 3 -0.005688 -0.005688 0.011406 0.000000 0.000000 0.000000
# 4 0.000000 0.000000 0.000000 0.024241 0.000000 0.000000
# 5 0.000000 0.000000 0.000000 0.000000 0.024241 0.000000
# 6 0.001602 -0.001602 0.000000 0.000000 0.000000 0.034932
#
#
# Mechanical properties :
#
#
# Convention : Reuss Voigt Hill
#
# Bulk Modulus (GPa) = 28.35032 38.04052 33.19542
# Shear Modulus (GPa) = 33.22189 37.73007 35.47598
#
# Velocity S-wave (km/s) = 3.61346 3.85083 3.73403
# Velocity P-wave (km/s) = 5.34340 5.89261 5.62471
#
# Compressibility (1/GPa) = 0.03527297
#
# Stress axis : x y z
#
# Youngs Moduli (GPa) = 59.00359 59.00359 87.67079
#
# Poissons Ratio (x) = -0.37530 0.49865
# Poissons Ratio (y) = -0.37530 0.49865
# Poissons Ratio (z) = 0.33560 0.33560
#
# Static dielectric constant tensor:
#      x y z
#    x 2.025000 0.000000 0.000000 
#    y 0.000000 2.025000 0.000000 
#    z 0.000000 0.000000 2.064040 
# 
# From -- ./inp_files/1213.got.cif
#   From: 2010.05.17/outbox.cif.g08.bks.cpg/sg76_cif.got.tgz:1213.got - 2010.06.03 18:43:17.
