data_PCOD9541672
_publ_section_title
;
Structure prediction by ZEFSAII (Michael W. Deem and Ramdas Pophale) SiO2 
 PCOD9541672
Probable space group: P 43
;
_chemical_formula_sum "Si O2"
_cell_formula_units_Z 32
_cell_length_a 8.238039
_cell_length_b 8.238039
_cell_length_c 18.412003
_cell_angle_alpha 90.000000
_cell_angle_beta 90.000000
_cell_angle_gamma 90.000000
_cell_volume 1249.535860
_symmetry_space_group_name_H-M "P 43"
_symmetry_group_IT_number 78
_symmetry_cell_setting 'tetragonal'
loop_
_space_group_symop_operation_xyz
x,y,z
-y,x,3/4+z
-x,-y,1/2+z
y,-x,1/4+z
loop_
_atom_site_type_symbol
_atom_site_label
_atom_site_fract_x
_atom_site_fract_y
_atom_site_fract_z
Si Si1 0.421137 0.700120 0.635730
Si Si2 0.330413 0.739749 0.143745
Si Si3 0.995046 0.493529 0.477929
Si Si4 0.375329 0.032177 0.955841
Si Si5 0.416100 0.542212 0.780881
Si Si6 0.679619 0.949845 0.881449
Si Si7 0.122810 0.223845 0.566283
Si Si8 0.124322 0.025546 0.087181
O O1 0.510831 0.859122 0.668195
O O2 0.433678 0.556925 0.695478
O O3 0.462855 0.597993 0.564239
O O4 0.232133 0.746212 0.631678
O O5 0.215094 0.603472 0.175846
O O6 0.398308 0.684049 0.066943
O O7 0.465295 0.821789 0.193967
O O8 0.204216 0.887829 0.136109
O O9 0.005693 0.312028 0.507945
O O10 0.027610 0.593919 0.552196
O O11 0.558055 0.964626 0.950150
O O12 0.285134 0.919779 0.896843
O O13 0.259713 0.046850 0.025004
O O14 0.308391 0.703723 0.800855
O O15 0.814892 0.086537 0.882147
O O16 0.053492 0.041268 0.561546
#
# Coordination Sequence:
#
# PCOD9541672 Si02
#       8
#     4   4   4   4   4   4   4   4
#     4  11  22  45  70 104 139 188 242 305 369 438
#     4  11  25  39  64 103 136 185 234 284 361 437
#     4  10  22  43  64  99 144 180 244 298 363 437
#     4  10  21  43  65  95 141 180 229 285 367 428
#     4  11  24  42  70 104 143 189 247 290 373 452
#     4  11  22  44  74 102 143 184 245 315 362 443
#     4   9  22  40  71  97 131 191 230 298 344 435
#     4  11  24  42  70 104 139 183 241 295 365 430
#
# _framework density 25.609511000000001
#
# number of rings (size 3 to 8) (size 9 to 14) (size 15 to 20)
#    0.000    1.500    5.000    0.750    3.500    6.000 
#    2.250    1.250    0.000    0.000    0.000    0.000 
#    0.000    0.000    0.000    0.000    0.000    0.000 
#
# Total GULP energy -178785.274857 kJ/mol
# GULP energy per Si atom -5587.039839 kJ/mol
# Density = 2.555122 g / cm^3
# Si number density = 25.609511 Si / 1000 Ang^3
#
#
#
# Elastic Constant Matrix: (Units=GPa)
#
#
# Indices 1 2 3 4 5 6 
#
# 1 61.6522 27.1704 0.6855 0.0000 0.0000 -1.5572
# 2 27.1704 61.6522 0.6855 0.0000 0.0000 1.5572
# 3 0.6855 0.6855 71.3579 0.0000 0.0000 0.0000
# 4 0.0000 0.0000 0.0000 38.1320 0.0000 0.0000
# 5 0.0000 0.0000 0.0000 0.0000 38.1320 0.0000
# 6 -1.5572 1.5572 0.0000 0.0000 0.0000 38.6210
#
#
#
# Elastic Compliance Matrix: (Units=1/GPa)
#
#
# Indices 1 2 3 4 5 6 
#
# 1 0.020183 -0.008923 -0.000108 0.000000 0.000000 0.001174
# 2 -0.008923 0.020183 -0.000108 0.000000 0.000000 -0.001174
# 3 -0.000108 -0.000108 0.014016 0.000000 0.000000 0.000000
# 4 0.000000 0.000000 0.000000 0.026225 0.000000 0.000000
# 5 0.000000 0.000000 0.000000 0.000000 0.026225 0.000000
# 6 0.001174 -0.001174 0.000000 0.000000 0.000000 0.025987
#
#
# Mechanical properties :
#
#
# Convention : Reuss Voigt Hill
#
# Bulk Modulus (GPa) = 27.69824 27.97169 27.83497
# Shear Modulus (GPa) = 30.64977 34.05172 32.35074
#
# Velocity S-wave (km/s) = 3.46325 3.65039 3.55805
# Velocity P-wave (km/s) = 5.17989 5.35848 5.26994
#
# Compressibility (1/GPa) = 0.03610337
#
# Stress axis : x y z
#
# Youngs Moduli (GPa) = 49.54561 49.54561 71.34729
#
# Poissons Ratio (x) = 0.44211 0.00772
# Poissons Ratio (y) = 0.44211 0.00772
# Poissons Ratio (z) = 0.00536 0.00536
#
# Static dielectric constant tensor:
#      x y z
#    x 2.070090 0.000000 0.000000 
#    y 0.000000 2.070090 0.000000 
#    z 0.000000 0.000000 2.041470 
# 
# From -- ./inp_files/1520.got.cif
#   From: 2010.05.17/outbox.cif.g08.bks.cpg/sg78_cif.got.tgz:1520.got - 2010.06.03 18:45:56.
