data_PCOD9541076
_publ_section_title
;
Structure prediction by ZEFSAII (Michael W. Deem and Ramdas Pophale) SiO2 
 PCOD9541076
Probable space group: P 41
;
_chemical_formula_sum "Si O2"
_cell_formula_units_Z 24
_cell_length_a 7.911851
_cell_length_b 7.911851
_cell_length_c 15.106214
_cell_angle_alpha 90.000000
_cell_angle_beta 90.000000
_cell_angle_gamma 90.000000
_cell_volume 945.609512
_symmetry_space_group_name_H-M "P 41"
_symmetry_group_IT_number 76
_symmetry_cell_setting 'tetragonal'
loop_
_space_group_symop_operation_xyz
x,y,z
-y,x,1/4+z
-x,-y,1/2+z
y,-x,3/4+z
loop_
_atom_site_type_symbol
_atom_site_label
_atom_site_fract_x
_atom_site_fract_y
_atom_site_fract_z
Si Si1 0.237199 0.584270 0.253040
Si Si2 0.194332 0.766767 0.929548
Si Si3 0.078808 0.591096 0.083257
Si Si4 0.317768 0.668185 0.758669
Si Si5 0.754444 0.885821 0.352812
Si Si6 0.696647 0.388369 0.951411
O O1 0.220838 0.382015 0.226506
O O2 0.117602 0.665599 0.178826
O O3 0.419333 0.670703 0.235971
O O4 0.211903 0.604581 0.357072
O O5 0.211893 0.634052 0.848336
O O6 0.156476 0.938176 0.875807
O O7 0.059622 0.722199 0.004199
O O8 0.244356 0.485850 0.046738
O O9 0.945365 0.443263 0.095681
O O10 0.227688 0.788789 0.688616
O O11 0.345694 0.501994 0.702154
O O12 0.754446 0.781470 0.262915
#
# Coordination Sequence:
#
# PCOD9541076 Si02
#       6
#     4   4   4   4   4   4
#     4  10  18  30  59  82 115 152 183 247 312 355
#     4  10  20  38  56  83 122 159 195 240 312 363
#     4  10  21  38  57  85 120 160 196 246 315 358
#     4  10  19  34  59  86 117 149 191 260 301 349
#     4  10  23  32  56  97 114 152 205 244 298 366
#     4  12  17  32  57  91 118 142 192 261 308 347
#
# _framework density 25.380455000000001
#
# number of rings (size 3 to 8) (size 9 to 14) (size 15 to 20)
#    0.000    2.000    5.000    2.000    0.000    2.667 
#    0.000    0.000    0.000    8.000    0.000    0.000 
#    0.000    0.000    0.000    0.000    0.000    0.000 
#
# Total GULP energy -133796.759083 kJ/mol
# GULP energy per Si atom -5574.864962 kJ/mol
# Density = 2.532269 g / cm^3
# Si number density = 25.380455 Si / 1000 Ang^3
#
#
#
# Elastic Constant Matrix: (Units=GPa)
#
#
# Indices 1 2 3 4 5 6 
#
# 1 31.5294 15.1894 -6.4594 0.0000 0.0000 -0.8286
# 2 15.1894 31.5294 -6.4594 0.0000 0.0000 0.8286
# 3 -6.4594 -6.4594 90.4268 0.0000 0.0000 0.0000
# 4 0.0000 0.0000 0.0000 0.5155 0.0000 0.0000
# 5 0.0000 0.0000 0.0000 0.0000 0.5155 0.0000
# 6 -0.8286 0.8286 0.0000 0.0000 0.0000 11.2459
#
#
#
# Elastic Compliance Matrix: (Units=1/GPa)
#
#
# Indices 1 2 3 4 5 6 
#
# 1 0.041748 -0.019912 0.001560 0.000000 0.000000 0.004543
# 2 -0.019912 0.041748 0.001560 0.000000 0.000000 -0.004543
# 3 0.001560 0.001560 0.011282 0.000000 0.000000 0.000000
# 4 0.000000 0.000000 0.000000 1.939807 0.000000 0.000000
# 5 0.000000 0.000000 0.000000 0.000000 1.939807 0.000000
# 6 0.004543 -0.004543 0.000000 0.000000 0.000000 0.089590
#
#
# Mechanical properties :
#
#
# Convention : Reuss Voigt Hill
#
# Bulk Modulus (GPa) = 16.34183 17.55854 16.95019
# Shear Modulus (GPa) = 1.21419 12.53639 6.87529
#
# Velocity S-wave (km/s) = 0.69241 2.22488 1.64766
# Velocity P-wave (km/s) = 2.66308 3.67876 3.21133
#
# Compressibility (1/GPa) = 0.06119264
#
# Stress axis : x y z
#
# Youngs Moduli (GPa) = 23.95310 23.95310 88.64063
#
# Poissons Ratio (x) = 0.47696 -0.13826
# Poissons Ratio (y) = 0.47696 -0.13826
# Poissons Ratio (z) = -0.03736 -0.03736
#
# Static dielectric constant tensor:
#      x y z
#    x 2.094010 0.000000 0.000000 
#    y 0.000000 2.094010 0.000000 
#    z 0.000000 0.000000 2.069170 
# 
# From -- ./inp_files/1098.got.cif
#   From: 2010.05.17/outbox.cif.g08.bks.cpg/sg76_cif.got.tgz:1098.got - 2010.06.03 18:43:17.
