data_PCOD9541501
_publ_section_title
;
Structure prediction by ZEFSAII (Michael W. Deem and Ramdas Pophale) SiO2 
 PCOD9541501
Probable space group: P 42
;
_chemical_formula_sum "Si O2"
_cell_formula_units_Z 24
_cell_length_a 11.207349
_cell_length_b 11.207349
_cell_length_c 8.416271
_cell_angle_alpha 90.000000
_cell_angle_beta 90.000000
_cell_angle_gamma 90.000000
_cell_volume 1057.122955
_symmetry_space_group_name_H-M "P 42"
_symmetry_group_IT_number 77
_symmetry_cell_setting 'tetragonal'
loop_
_space_group_symop_operation_xyz
x,y,z
-y,x,1/2+z
-x,-y,z
y,-x,1/2+z
loop_
_atom_site_type_symbol
_atom_site_label
_atom_site_fract_x
_atom_site_fract_y
_atom_site_fract_z
Si Si1 0.722651 0.890039 0.525250
Si Si2 0.000000 0.500000 0.839626
Si Si3 0.119399 0.126620 0.070307
Si Si4 0.260160 0.305176 0.260544
Si Si5 0.726119 0.523707 0.820626
Si Si6 0.000000 0.000000 0.321157
Si Si7 0.559829 0.734695 0.693772
O O1 0.616962 0.960615 0.435716
O O2 0.760348 0.778843 0.413924
O O3 0.659714 0.836001 0.679163
O O4 0.822093 0.985152 0.562688
O O5 0.867400 0.539504 0.773240
O O6 0.203942 0.235816 0.110513
O O7 0.114476 0.038546 0.219176
O O8 0.116636 0.043639 0.917590
O O9 0.401466 0.311872 0.236246
O O10 0.222090 0.441345 0.283916
O O11 0.631698 0.623641 0.767459
O O12 0.717389 0.491116 0.010895
#
# Coordination Sequence:
#
# PCOD9541501 Si02
#       7
#     4   2   4   4   4   2   4
#     4  10  21  38  61  91 127 175 220 277 340 409
#     4   8  18  38  60  90 126 170 212 266 340 396
#     4  11  20  42  59  93 126 172 225 285 335 404
#     4  10  21  37  61  89 130 167 222 273 332 411
#     4  10  22  41  64  98 130 180 221 283 337 415
#     4  10  24  36  64  90 124 176 234 280 344 390
#     4  10  22  39  64  96 132 176 226 273 346 403
#
# _framework density 22.703130999999999
#
# number of rings (size 3 to 8) (size 9 to 14) (size 15 to 20)
#    0.000    2.333    1.667    2.500    0.000    8.000 
#    3.000    0.000    0.000    0.000    0.000    0.000 
#    0.000    0.000    0.000    0.000    0.000    0.000 
#
# Total GULP energy -133632.221596 kJ/mol
# GULP energy per Si atom -5568.009233 kJ/mol
# Density = 2.265146 g / cm^3
# Si number density = 22.703131 Si / 1000 Ang^3
#
#
#
# Elastic Constant Matrix: (Units=GPa)
#
#
# Indices 1 2 3 4 5 6 
#
# 1 61.1200 0.8634 14.0904 0.0000 0.0000 -0.8840
# 2 0.8634 61.1200 14.0904 0.0000 0.0000 0.8840
# 3 14.0904 14.0904 45.5612 0.0000 0.0000 0.0000
# 4 0.0000 0.0000 0.0000 25.0710 0.0000 0.0000
# 5 0.0000 0.0000 0.0000 0.0000 25.0710 0.0000
# 6 -0.8840 0.8840 0.0000 0.0000 0.0000 46.1606
#
#
#
# Elastic Compliance Matrix: (Units=1/GPa)
#
#
# Indices 1 2 3 4 5 6 
#
# 1 0.017689 0.001084 -0.005806 0.000000 0.000000 0.000318
# 2 0.001084 0.017689 -0.005806 0.000000 0.000000 -0.000318
# 3 -0.005806 -0.005806 0.025540 0.000000 0.000000 0.000000
# 4 0.000000 0.000000 0.000000 0.039887 0.000000 0.000000
# 5 0.000000 0.000000 0.000000 0.000000 0.039887 0.000000
# 6 0.000318 -0.000318 0.000000 0.000000 0.000000 0.021676
#
#
# Mechanical properties :
#
#
# Convention : Reuss Voigt Hill
#
# Bulk Modulus (GPa) = 25.08638 25.09887 25.09262
# Shear Modulus (GPa) = 25.41823 28.51100 26.96461
#
# Velocity S-wave (km/s) = 3.34966 3.54760 3.45005
# Velocity P-wave (km/s) = 5.10235 5.27824 5.19104
#
# Compressibility (1/GPa) = 0.03986227
#
# Stress axis : x y z
#
# Youngs Moduli (GPa) = 56.53230 56.53230 39.15499
#
# Poissons Ratio (x) = -0.06128 0.22733
# Poissons Ratio (y) = -0.06128 0.22733
# Poissons Ratio (z) = 0.32822 0.32822
#
# Static dielectric constant tensor:
#      x y z
#    x 1.886420 0.000000 0.000000 
#    y 0.000000 1.886420 0.000000 
#    z 0.000000 0.000000 2.005480 
# 
# From -- ./inp_files/478.got.cif
#   From: 2010.05.17/outbox.cif.g08.bks.cpg/sg77_cif.got.tgz:478.got - 2010.06.03 18:44:51.
