data_PCOD9541515
_publ_section_title
;
Structure prediction by ZEFSAII (Michael W. Deem and Ramdas Pophale) SiO2 
 PCOD9541515
Probable space group: P 42
;
_chemical_formula_sum "Si O2"
_cell_formula_units_Z 16
_cell_length_a 8.299922
_cell_length_b 8.299922
_cell_length_c 9.013681
_cell_angle_alpha 90.000000
_cell_angle_beta 90.000000
_cell_angle_gamma 90.000000
_cell_volume 620.940813
_symmetry_space_group_name_H-M "P 42"
_symmetry_group_IT_number 77
_symmetry_cell_setting 'tetragonal'
loop_
_space_group_symop_operation_xyz
x,y,z
-y,x,1/2+z
-x,-y,z
y,-x,1/2+z
loop_
_atom_site_type_symbol
_atom_site_label
_atom_site_fract_x
_atom_site_fract_y
_atom_site_fract_z
Si Si1 0.213100 0.906029 0.125000
Si Si2 0.684389 0.563928 0.978578
Si Si3 0.833218 0.421070 0.257133
Si Si4 0.000000 0.000000 0.371792
Si Si5 0.500000 0.000000 0.283949
O O1 0.134042 0.732872 0.150003
O O2 0.397106 0.901445 0.158884
O O3 0.151878 0.009059 0.265419
O O4 0.150756 0.987829 0.978987
O O5 0.500000 0.500000 0.968424
O O6 0.655241 0.731467 0.891730
O O7 0.842135 0.483504 0.894807
O O8 0.733438 0.546120 0.152354
O O9 0.000000 0.500000 0.301758
#
# Coordination Sequence:
#
# PCOD9541515 Si02
#       5
#     4   4   4   2   2
#     4  10  23  44  74 105 154 208 251 341 385 498
#     4  11  24  47  78 114 157 214 268 344 410 499
#     4  11  25  46  77 115 164 211 272 338 411 496
#     4  10  22  42  66 104 144 200 264 294 410 466
#     4  10  22  46  70 108 152 196 264 328 404 478
#
# _framework density 25.767353
#
# number of rings (size 3 to 8) (size 9 to 14) (size 15 to 20)
#    0.000    1.500    1.250    2.250    3.500    6.000 
#   20.250    0.000    0.000    0.000    0.000    0.000 
#    0.000    0.000    0.000    0.000    0.000    0.000 
#
# Total GULP energy -89108.646179 kJ/mol
# GULP energy per Si atom -5569.290386 kJ/mol
# Density = 2.570871 g / cm^3
# Si number density = 25.767353 Si / 1000 Ang^3
#
#
#
# Elastic Constant Matrix: (Units=GPa)
#
#
# Indices 1 2 3 4 5 6 
#
# 1 95.5401 40.8527 32.7009 0.0000 0.0000 8.0581
# 2 40.8527 95.5401 32.7009 0.0000 0.0000 -8.0581
# 3 32.7009 32.7009 128.0623 0.0000 0.0000 0.0000
# 4 0.0000 0.0000 0.0000 -4.4813 0.0000 0.0000
# 5 0.0000 0.0000 0.0000 0.0000 -4.4813 0.0000
# 6 8.0581 -8.0581 0.0000 0.0000 0.0000 50.0576
#
#
#
# Elastic Compliance Matrix: (Units=1/GPa)
#
#
# Indices 1 2 3 4 5 6 
#
# 1 0.013776 -0.005421 -0.002133 0.000000 0.000000 -0.003090
# 2 -0.005421 0.013776 -0.002133 0.000000 0.000000 0.003090
# 3 -0.002133 -0.002133 0.008898 0.000000 0.000000 0.000000
# 4 0.000000 0.000000 0.000000 -0.223147 0.000000 0.000000
# 5 0.000000 0.000000 0.000000 0.000000 -0.223147 0.000000
# 6 -0.003090 0.003090 0.000000 0.000000 0.000000 0.020972
#
#
# Mechanical properties :
#
#
# Convention : Reuss Voigt Hill
#
# Bulk Modulus (GPa) = 58.56807 59.07237 58.82022
# Shear Modulus (GPa) = -13.74357 22.41152 4.33397
#
# Velocity S-wave (km/s) = -2.31199 2.95238 1.29831
# Velocity P-wave (km/s) = 3.95624 5.88193 5.01243
#
# Compressibility (1/GPa) = 0.01707415
#
# Stress axis : x y z
#
# Youngs Moduli (GPa) = 72.59219 72.59219 112.38187
#
# Poissons Ratio (x) = 0.39351 0.23976
# Poissons Ratio (y) = 0.39351 0.23976
# Poissons Ratio (z) = 0.15487 0.15487
#
# Static dielectric constant tensor:
#      x y z
#    x 1.815140 0.000000 0.000000 
#    y 0.000000 1.815140 0.000000 
#    z 0.000000 0.000000 2.033940 
# 
# From -- ./inp_files/311.got.cif
#   From: 2010.05.17/outbox.cif.g08.bks.cpg/sg77_cif.got.tgz:311.got - 2010.06.03 18:44:51.
