data_PCOD9541877
_publ_section_title
;
Structure prediction by ZEFSAII (Michael W. Deem and Ramdas Pophale) SiO2 
 PCOD9541877
Probable space group: I 4
;
_chemical_formula_sum "Si O2"
_cell_formula_units_Z 40
_cell_length_a 19.416184
_cell_length_b 19.416184
_cell_length_c 5.241051
_cell_angle_alpha 90.000000
_cell_angle_beta 90.000000
_cell_angle_gamma 90.000000
_cell_volume 1975.814388
_symmetry_space_group_name_H-M "I 4"
_symmetry_group_IT_number 79
_symmetry_cell_setting 'tetragonal'
loop_
_space_group_symop_operation_xyz
x,y,z
-y,x,z
-x,-y,z
y,-x,z
1/2+x,1/2+y,1/2+z
1/2-y,1/2+x,1/2+z
1/2-x,1/2-y,1/2+z
1/2+y,1/2-x,1/2+z
loop_
_atom_site_type_symbol
_atom_site_label
_atom_site_fract_x
_atom_site_fract_y
_atom_site_fract_z
Si Si1 0.945182 0.101962 0.929840
Si Si2 0.066226 0.744624 0.114907
Si Si3 0.834096 0.132189 0.562674
Si Si4 0.744599 0.410096 0.566470
Si Si5 0.213305 0.351630 0.110060
O O1 0.914172 0.122461 0.648926
O O2 0.026290 0.087963 0.966373
O O3 0.928291 0.171418 0.089788
O O4 0.093825 0.715885 0.380253
O O5 0.986690 0.726543 0.081593
O O6 0.111661 0.715952 0.883238
O O7 0.808475 0.100154 0.300622
O O8 0.814776 0.212828 0.571192
O O9 0.792548 0.098625 0.795943
O O10 0.800973 0.350530 0.590580
#
# Coordination Sequence:
#
# PCOD9541877 Si02
#       5
#     8   8   8   8   8
#     4  10  21  40  61  94 138 178 210 251 308 388
#     4  11  24  42  63  96 127 170 217 259 322 390
#     4  11  22  39  63  95 124 170 219 256 315 376
#     4  12  23  42  67  91 127 168 214 275 321 371
#     4  11  24  41  65  94 127 164 217 273 321 372
#
# _framework density 20.244817999999999
#
# number of rings (size 3 to 8) (size 9 to 14) (size 15 to 20)
#    0.000    1.000    2.000    6.000    2.800    0.000 
#    0.000    0.000    0.000    3.600    0.000    0.000 
#    0.000    0.000    0.000    0.000    0.000    0.000 
#
# Total GULP energy -111756.137573 kJ/mol
# GULP energy per Si atom -5587.806879 kJ/mol
# Density = 2.019874 g / cm^3
# Si number density = 20.244818 Si / 1000 Ang^3
#
#
#
# Elastic Constant Matrix: (Units=GPa)
#
#
# Indices 1 2 3 4 5 6 
#
# 1 76.1755 47.6189 11.0530 0.0000 0.0000 5.8977
# 2 47.6189 76.1755 11.0530 0.0000 0.0000 -5.8977
# 3 11.0530 11.0530 56.0555 0.0000 0.0000 0.0000
# 4 0.0000 0.0000 0.0000 9.7610 0.0000 0.0000
# 5 0.0000 0.0000 0.0000 0.0000 9.7610 0.0000
# 6 5.8977 -5.8977 0.0000 0.0000 0.0000 41.5576
#
#
#
# Elastic Compliance Matrix: (Units=1/GPa)
#
#
# Indices 1 2 3 4 5 6 
#
# 1 0.022786 -0.014413 -0.001651 0.000000 0.000000 -0.005279
# 2 -0.014413 0.022786 -0.001651 0.000000 0.000000 0.005279
# 3 -0.001651 -0.001651 0.018491 0.000000 0.000000 0.000000
# 4 0.000000 0.000000 0.000000 0.102448 0.000000 0.000000
# 5 0.000000 0.000000 0.000000 0.000000 0.102448 0.000000
# 6 -0.005279 0.005279 0.000000 0.000000 0.000000 0.025561
#
#
# Mechanical properties :
#
#
# Convention : Reuss Voigt Hill
#
# Bulk Modulus (GPa) = 34.92567 38.65072 36.78820
# Shear Modulus (GPa) = 14.72780 21.46136 18.09458
#
# Velocity S-wave (km/s) = 2.70012 3.25944 2.99287
# Velocity P-wave (km/s) = 5.19711 5.77047 5.49128
#
# Compressibility (1/GPa) = 0.02863223
#
# Stress axis : x y z
#
# Youngs Moduli (GPa) = 43.88711 43.88711 54.08175
#
# Poissons Ratio (x) = 0.63255 0.08929
# Poissons Ratio (y) = 0.63255 0.08929
# Poissons Ratio (z) = 0.07245 0.07245
#
# Static dielectric constant tensor:
#      x y z
#    x 1.722270 0.000000 0.000000 
#    y 0.000000 1.722270 0.000000 
#    z 0.000000 0.000000 1.739770 
# 
# From -- ./inp_files/144.got.cif
#   From: 2010.05.17/outbox.cif.g08.bks.cpg/sg79_cif.got.tgz:144.got - 2010.06.03 18:47:27.
