data_PCOD9541145
_publ_section_title
;
Structure prediction by ZEFSAII (Michael W. Deem and Ramdas Pophale) SiO2 
 PCOD9541145
Probable space group: P 41
;
_chemical_formula_sum "Si O2"
_cell_formula_units_Z 24
_cell_length_a 5.437373
_cell_length_b 5.437373
_cell_length_c 28.105033
_cell_angle_alpha 90.000000
_cell_angle_beta 90.000000
_cell_angle_gamma 90.000000
_cell_volume 830.926007
_symmetry_space_group_name_H-M "P 41"
_symmetry_group_IT_number 76
_symmetry_cell_setting 'tetragonal'
loop_
_space_group_symop_operation_xyz
x,y,z
-y,x,1/4+z
-x,-y,1/2+z
y,-x,3/4+z
loop_
_atom_site_type_symbol
_atom_site_label
_atom_site_fract_x
_atom_site_fract_y
_atom_site_fract_z
Si Si1 0.631881 0.622969 0.146830
Si Si2 0.343033 0.697270 0.564653
Si Si3 0.052118 0.320825 0.728229
Si Si4 0.841911 0.452254 0.526831
Si Si5 0.183892 0.181515 0.190199
Si Si6 0.871905 0.866459 0.859255
O O1 0.652073 0.357632 0.120770
O O2 0.683259 0.641759 0.202628
O O3 0.369240 0.734023 0.132760
O O4 0.865992 0.769680 0.124611
O O5 0.341517 0.950684 0.535306
O O6 0.593052 0.576131 0.545082
O O7 0.089180 0.581468 0.544988
O O8 0.911274 0.553044 0.705803
O O9 0.959182 0.055171 0.711640
O O10 0.842836 0.434714 0.469984
O O11 0.842626 0.186841 0.553775
O O12 0.164560 0.137596 0.133694
#
# Coordination Sequence:
#
# PCOD9541145 Si02
#       6
#     4   4   4   4   4   4
#     4   9  20  39  62  91 127 169 216 266 321 383
#     4  10  20  38  63  90 125 169 216 266 322 383
#     4  11  23  39  60  93 131 170 216 266 323 384
#     4  10  20  38  63  90 125 169 216 266 322 383
#     4  11  23  39  60  93 131 170 216 266 323 384
#     4   9  20  39  62  91 127 169 216 266 321 383
#
# _framework density 28.883438999999999
#
# number of rings (size 3 to 8) (size 9 to 14) (size 15 to 20)
#    0.000    2.000    0.000    3.000    0.000    4.000 
#    0.000    8.333    0.000    0.000    0.000    0.000 
#    0.000    0.000    0.000    0.000    0.000    0.000 
#
# Total GULP energy -134272.576437 kJ/mol
# GULP energy per Si atom -5594.690685 kJ/mol
# Density = 2.881770 g / cm^3
# Si number density = 28.883439 Si / 1000 Ang^3
#
#
#
# Elastic Constant Matrix: (Units=GPa)
#
#
# Indices 1 2 3 4 5 6 
#
# 1 154.4885 73.1532 36.6441 0.0000 0.0000 -2.1129
# 2 73.1532 154.4885 36.6441 0.0000 0.0000 2.1129
# 3 36.6441 36.6441 120.5927 0.0000 0.0000 0.0000
# 4 0.0000 0.0000 0.0000 47.0724 0.0000 0.0000
# 5 0.0000 0.0000 0.0000 0.0000 47.0724 0.0000
# 6 -2.1129 2.1129 0.0000 0.0000 0.0000 70.6546
#
#
#
# Elastic Compliance Matrix: (Units=1/GPa)
#
#
# Indices 1 2 3 4 5 6 
#
# 1 0.008592 -0.003722 -0.001480 0.000000 0.000000 0.000368
# 2 -0.003722 0.008592 -0.001480 0.000000 0.000000 -0.000368
# 3 -0.001480 -0.001480 0.009192 0.000000 0.000000 0.000000
# 4 0.000000 0.000000 0.000000 0.021244 0.000000 0.000000
# 5 0.000000 0.000000 0.000000 0.000000 0.021244 0.000000
# 6 0.000368 -0.000368 0.000000 0.000000 0.000000 0.014175
#
#
# Mechanical properties :
#
#
# Convention : Reuss Voigt Hill
#
# Bulk Modulus (GPa) = 76.85426 80.27248 78.56337
# Shear Modulus (GPa) = 49.63364 51.83510 50.73437
#
# Velocity S-wave (km/s) = 4.14987 4.24090 4.19563
# Velocity P-wave (km/s) = 7.04472 7.19948 7.12252
#
# Compressibility (1/GPa) = 0.01301164
#
# Stress axis : x y z
#
# Youngs Moduli (GPa) = 116.39318 116.39318 108.79530
#
# Poissons Ratio (x) = 0.43326 0.16097
# Poissons Ratio (y) = 0.43326 0.16097
# Poissons Ratio (z) = 0.17221 0.17221
#
# Static dielectric constant tensor:
#      x y z
#    x 2.283570 0.000000 0.000000 
#    y 0.000000 2.283570 0.000000 
#    z 0.000000 0.000000 2.270990 
# 
# From -- ./inp_files/1700.got.cif
#   From: 2010.05.17/outbox.cif.g08.bks.cpg/sg76_cif.got.tgz:1700.got - 2010.06.03 18:43:17.
