data_PCOD9541460
_publ_section_title
;
Structure prediction by ZEFSAII (Michael W. Deem and Ramdas Pophale) SiO2 
 PCOD9541460
Probable space group: P 42
;
_chemical_formula_sum "Si O2"
_cell_formula_units_Z 32
_cell_length_a 14.985173
_cell_length_b 14.985173
_cell_length_c 8.625017
_cell_angle_alpha 90.000000
_cell_angle_beta 90.000000
_cell_angle_gamma 90.000000
_cell_volume 1936.794227
_symmetry_space_group_name_H-M "P 42"
_symmetry_group_IT_number 77
_symmetry_cell_setting 'tetragonal'
loop_
_space_group_symop_operation_xyz
x,y,z
-y,x,1/2+z
-x,-y,z
y,-x,1/2+z
loop_
_atom_site_type_symbol
_atom_site_label
_atom_site_fract_x
_atom_site_fract_y
_atom_site_fract_z
Si Si1 0.187377 0.592702 0.851470
Si Si2 0.826965 0.508435 0.551647
Si Si3 0.335005 0.227125 0.856874
Si Si4 0.399859 0.647282 0.157499
Si Si5 0.352420 0.487616 0.973767
Si Si6 0.419535 0.892015 0.754321
Si Si7 0.677936 0.287372 0.650963
Si Si8 0.376752 0.080754 0.644664
O O1 0.141090 0.538411 0.710337
O O2 0.256716 0.662294 0.770987
O O3 0.251431 0.523542 0.943261
O O4 0.117934 0.635920 0.971123
O O5 0.786909 0.428378 0.446992
O O6 0.742754 0.568711 0.598058
O O7 0.894145 0.561742 0.440136
O O8 0.345683 0.299510 0.721595
O O9 0.317213 0.135476 0.767718
O O10 0.271695 0.266252 0.991282
O O11 0.407161 0.571482 0.030926
O O12 0.454151 0.617869 0.307707
O O13 0.348368 0.405514 0.093773
O O14 0.366522 0.801584 0.717951
O O15 0.519123 0.895934 0.682274
O O16 0.369401 0.976532 0.681333
#
# Coordination Sequence:
#
# PCOD9541460 Si02
#       8
#     4   4   4   4   4   4   4   4
#     4  10  18  33  51  70  99 135 172 213 258 309
#     4   9  19  32  49  71  97 134 174 208 261 301
#     4   9  18  33  48  65  99 137 164 205 268 299
#     4  10  18  30  48  64  96 135 176 217 242 296
#     4  10  18  31  45  66  95 132 178 211 252 290
#     4  10  19  33  53  76 100 132 173 214 265 312
#     4  10  19  32  52  68  99 138 170 210 253 319
#     4  10  19  34  53  71 103 134 167 220 265 307
#
# _framework density 16.522147
#
# number of rings (size 3 to 8) (size 9 to 14) (size 15 to 20)
#    0.000    2.250    2.500    1.500    0.000    0.000 
#    0.000   26.250    0.000    0.000    0.000    0.000 
#    0.000    3.000    0.000    0.000    0.000    0.000 
#
# Total GULP energy -178332.468075 kJ/mol
# GULP energy per Si atom -5572.889627 kJ/mol
# Density = 1.648454 g / cm^3
# Si number density = 16.522147 Si / 1000 Ang^3
#
#
#
# Elastic Constant Matrix: (Units=GPa)
#
#
# Indices 1 2 3 4 5 6 
#
# 1 37.0771 2.2876 23.8865 0.0000 0.0000 3.4534
# 2 2.2876 37.0771 23.8865 0.0000 0.0000 -3.4534
# 3 23.8865 23.8865 74.2438 0.0000 0.0000 0.0000
# 4 0.0000 0.0000 0.0000 17.6138 0.0000 0.0000
# 5 0.0000 0.0000 0.0000 0.0000 17.6138 0.0000
# 6 3.4534 -3.4534 0.0000 0.0000 0.0000 9.0776
#
#
#
# Elastic Compliance Matrix: (Units=1/GPa)
#
#
# Indices 1 2 3 4 5 6 
#
# 1 0.036384 0.005292 -0.013408 0.000000 0.000000 -0.011829
# 2 0.005292 0.036384 -0.013408 0.000000 0.000000 0.011829
# 3 -0.013408 -0.013408 0.022097 0.000000 0.000000 0.000000
# 4 0.000000 0.000000 0.000000 0.056774 0.000000 0.000000
# 5 0.000000 0.000000 0.000000 0.000000 0.056774 0.000000
# 6 -0.011829 0.011829 0.000000 0.000000 0.000000 0.119161
#
#
# Mechanical properties :
#
#
# Convention : Reuss Voigt Hill
#
# Bulk Modulus (GPa) = 19.29938 27.61325 23.45632
# Shear Modulus (GPa) = 12.89006 15.41687 14.15347
#
# Velocity S-wave (km/s) = 2.79618 3.05799 2.93001
# Velocity P-wave (km/s) = 4.70437 5.40533 5.06698
#
# Compressibility (1/GPa) = 0.05181514
#
# Stress axis : x y z
#
# Youngs Moduli (GPa) = 27.48438 27.48438 45.25505
#
# Poissons Ratio (x) = -0.14544 0.60680
# Poissons Ratio (y) = -0.14544 0.60680
# Poissons Ratio (z) = 0.36852 0.36852
#
# Static dielectric constant tensor:
#      x y z
#    x 1.565880 0.000000 0.000000 
#    y 0.000000 1.565880 0.000000 
#    z 0.000000 0.000000 1.615580 
# 
# From -- ./inp_files/529.got.cif
#   From: 2010.05.17/outbox.cif.g08.bks.cpg/sg77_cif.got.tgz:529.got - 2010.06.03 18:44:51.
