data_PCOD9541541
_publ_section_title
;
Structure prediction by ZEFSAII (Michael W. Deem and Ramdas Pophale) SiO2 
 PCOD9541541
Probable space group: P 42
;
_chemical_formula_sum "Si O2"
_cell_formula_units_Z 16
_cell_length_a 5.153711
_cell_length_b 5.153711
_cell_length_c 23.091052
_cell_angle_alpha 90.000000
_cell_angle_beta 90.000000
_cell_angle_gamma 90.000000
_cell_volume 613.315361
_symmetry_space_group_name_H-M "P 42"
_symmetry_group_IT_number 77
_symmetry_cell_setting 'tetragonal'
loop_
_space_group_symop_operation_xyz
x,y,z
-y,x,1/2+z
-x,-y,z
y,-x,1/2+z
loop_
_atom_site_type_symbol
_atom_site_label
_atom_site_fract_x
_atom_site_fract_y
_atom_site_fract_z
Si Si1 0.500000 0.500000 0.427351
Si Si2 0.178878 0.752381 0.517764
Si Si3 0.185872 0.745996 0.650453
Si Si4 0.772984 0.841816 0.339909
Si Si5 0.000000 0.500000 0.238633
O O1 0.397810 0.721403 0.469899
O O2 0.706426 0.611597 0.382942
O O3 0.278334 0.746546 0.583883
O O4 0.000000 0.500000 0.510972
O O5 0.000000 0.000000 0.511379
O O6 0.433791 0.774945 0.692103
O O7 0.000000 0.500000 0.661219
O O8 0.000000 0.000000 0.658983
O O9 0.921320 0.728122 0.283519
O O10 0.500000 0.000000 0.328504
O O11 0.000000 0.000000 0.370155
#
# Coordination Sequence:
#
# PCOD9541541 Si02
#       5
#     2   4   4   4   2
#     4  12  30  48  80 110 160 216 276 346 420 498
#     4  10  26  48  77 117 159 211 274 344 423 505
#     4  10  24  47  75 114 159 206 269 341 417 506
#     4  12  30  51  77 116 161 215 284 344 415 500
#     4  12  26  50  82 114 162 220 268 346 422 498
#
# _framework density 26.087724999999999
#
# number of rings (size 3 to 8) (size 9 to 14) (size 15 to 20)
#    0.000    1.000    0.000    3.000    8.750   11.000 
#    0.000    0.000    0.000    0.000    0.000    0.000 
#    0.000    0.000    0.000    0.000    0.000    0.000 
#
# Total GULP energy -89516.005579 kJ/mol
# GULP energy per Si atom -5594.750349 kJ/mol
# Density = 2.602835 g / cm^3
# Si number density = 26.087725 Si / 1000 Ang^3
#
#
#
# Elastic Constant Matrix: (Units=GPa)
#
#
# Indices 1 2 3 4 5 6 
#
# 1 161.0544 71.8641 51.0643 0.0000 0.0000 4.0408
# 2 71.8641 161.0544 51.0643 0.0000 0.0000 -4.0408
# 3 51.0643 51.0643 159.5363 0.0000 0.0000 0.0000
# 4 0.0000 0.0000 0.0000 -35.4371 0.0000 0.0000
# 5 0.0000 0.0000 0.0000 0.0000 -35.4371 0.0000
# 6 4.0408 -4.0408 0.0000 0.0000 0.0000 63.2386
#
#
#
# Elastic Compliance Matrix: (Units=1/GPa)
#
#
# Indices 1 2 3 4 5 6 
#
# 1 0.008136 -0.003142 -0.001599 0.000000 0.000000 -0.000721
# 2 -0.003142 0.008136 -0.001599 0.000000 0.000000 0.000721
# 3 -0.001599 -0.001599 0.007292 0.000000 0.000000 0.000000
# 4 0.000000 0.000000 0.000000 -0.028219 0.000000 0.000000
# 5 0.000000 0.000000 0.000000 0.000000 -0.028219 0.000000
# 6 -0.000721 0.000721 0.000000 0.000000 0.000000 0.015905
#
#
# Mechanical properties :
#
#
# Convention : Reuss Voigt Hill
#
# Bulk Modulus (GPa) = 91.86287 92.18118 92.02203
# Shear Modulus (GPa) = -7530.64518 18.98305 -3755.83107
#
# Velocity S-wave (km/s) = -53.78595 2.70045 -37.98445
# Velocity P-wave (km/s) = 61.82191 6.71826 43.45581
#
# Compressibility (1/GPa) = 0.01088579
#
# Stress axis : x y z
#
# Youngs Moduli (GPa) = 122.91390 122.91390 137.14592
#
# Poissons Ratio (x) = 0.38613 0.21924
# Poissons Ratio (y) = 0.38613 0.21924
# Poissons Ratio (z) = 0.19649 0.19649
#
# Static dielectric constant tensor:
#      x y z
#    x 2.105830 0.000000 0.000000 
#    y 0.000000 2.105830 0.000000 
#    z 0.000000 0.000000 2.028310 
# 
# From -- ./inp_files/1488.got.cif
#   From: 2010.05.17/outbox.cif.g08.bks.cpg/sg77_cif.got.tgz:1488.got - 2010.06.03 18:44:51.
