data_PCOD9541347
_publ_section_title
;
Structure prediction by ZEFSAII (Michael W. Deem and Ramdas Pophale) SiO2 
 PCOD9541347
Probable space group: P 41
;
_chemical_formula_sum "Si O2"
_cell_formula_units_Z 28
_cell_length_a 13.388709
_cell_length_b 13.388709
_cell_length_c 6.910729
_cell_angle_alpha 90.000000
_cell_angle_beta 90.000000
_cell_angle_gamma 90.000000
_cell_volume 1238.800202
_symmetry_space_group_name_H-M "P 41"
_symmetry_group_IT_number 76
_symmetry_cell_setting 'tetragonal'
loop_
_space_group_symop_operation_xyz
x,y,z
-y,x,1/4+z
-x,-y,1/2+z
y,-x,3/4+z
loop_
_atom_site_type_symbol
_atom_site_label
_atom_site_fract_x
_atom_site_fract_y
_atom_site_fract_z
Si Si1 0.428445 0.378083 0.163850
Si Si2 0.216209 0.847608 0.232635
Si Si3 0.537116 0.222783 0.006185
Si Si4 0.652639 0.672479 0.045845
Si Si5 0.136846 0.523211 0.358581
Si Si6 0.332828 0.875214 0.848882
Si Si7 0.270970 0.019835 0.525343
O O1 0.529603 0.402590 0.280579
O O2 0.432415 0.264710 0.084344
O O3 0.346513 0.368867 0.330953
O O4 0.271726 0.755725 0.336401
O O5 0.101428 0.816931 0.260600
O O6 0.253095 0.946460 0.343040
O O7 0.252093 0.841628 0.009861
O O8 0.609669 0.187079 0.178122
O O9 0.577095 0.330930 0.928446
O O10 0.514645 0.145432 0.832750
O O11 0.564155 0.750180 0.073039
O O12 0.100409 0.429249 0.233280
O O13 0.072507 0.619594 0.292512
O O14 0.273798 0.957306 0.723775
#
# Coordination Sequence:
#
# PCOD9541347 Si02
#       7
#     4   4   4   4   4   4   4
#     4  12  23  37  60 101 145 204 258 307 362 432
#     4  11  26  52  73 112 147 193 255 309 389 466
#     4  12  23  43  68 102 150 203 253 309 365 445
#     4  11  21  43  66  98 151 199 249 308 373 441
#     4  11  25  43  72 111 150 196 255 308 373 454
#     4  12  24  46  77 108 154 196 250 312 371 453
#     4  11  28  50  80 112 151 195 250 317 391 459
#
# _framework density 22.602515
#
# number of rings (size 3 to 8) (size 9 to 14) (size 15 to 20)
#    0.000    0.571    4.286    3.429    4.000    1.143 
#    2.571    0.000    0.000    0.000    0.000    0.000 
#    0.000    0.000    0.000    0.000    0.000    0.000 
#
# Total GULP energy -156061.675979 kJ/mol
# GULP energy per Si atom -5573.631285 kJ/mol
# Density = 2.255107 g / cm^3
# Si number density = 22.602515 Si / 1000 Ang^3
#
#
#
# Elastic Constant Matrix: (Units=GPa)
#
#
# Indices 1 2 3 4 5 6 
#
# 1 92.7900 44.6510 48.8170 0.0000 0.0000 12.9321
# 2 44.6510 92.7900 48.8170 0.0000 0.0000 -12.9321
# 3 48.8170 48.8170 138.1903 0.0000 0.0000 0.0000
# 4 0.0000 0.0000 0.0000 30.1031 0.0000 0.0000
# 5 0.0000 0.0000 0.0000 0.0000 30.1031 0.0000
# 6 12.9321 -12.9321 0.0000 0.0000 0.0000 35.9314
#
#
#
# Elastic Compliance Matrix: (Units=1/GPa)
#
#
# Indices 1 2 3 4 5 6 
#
# 1 0.017733 -0.008020 -0.003431 0.000000 0.000000 -0.009269
# 2 -0.008020 0.017733 -0.003431 0.000000 0.000000 0.009269
# 3 -0.003431 -0.003431 0.009661 0.000000 0.000000 0.000000
# 4 0.000000 0.000000 0.000000 0.033219 0.000000 0.000000
# 5 0.000000 0.000000 0.000000 0.000000 0.033219 0.000000
# 6 -0.009269 0.009269 0.000000 0.000000 0.000000 0.034503
#
#
# Mechanical properties :
#
#
# Convention : Reuss Voigt Hill
#
# Bulk Modulus (GPa) = 65.09530 67.59336 66.34433
# Shear Modulus (GPa) = 27.63127 31.32652 29.47890
#
# Velocity S-wave (km/s) = 3.50020 3.72691 3.61533
# Velocity P-wave (km/s) = 6.72293 6.96347 6.84426
#
# Compressibility (1/GPa) = 0.01536209
#
# Stress axis : x y z
#
# Youngs Moduli (GPa) = 56.39114 56.39114 103.51224
#
# Poissons Ratio (x) = 0.45225 0.35518
# Poissons Ratio (y) = 0.45225 0.35518
# Poissons Ratio (z) = 0.19350 0.19350
#
# Static dielectric constant tensor:
#      x y z
#    x 1.976120 0.000000 0.000000 
#    y 0.000000 1.976120 0.000000 
#    z 0.000000 0.000000 1.925310 
# 
# From -- ./inp_files/271.got.cif
#   From: 2010.05.17/outbox.cif.g08.bks.cpg/sg76_cif.got.tgz:271.got - 2010.06.03 18:43:17.
