data_PCOD9541863
_publ_section_title
;
Structure prediction by ZEFSAII (Michael W. Deem and Ramdas Pophale) SiO2 
 PCOD9541863
Probable space group: I 4
;
_chemical_formula_sum "Si O2"
_cell_formula_units_Z 56
_cell_length_a 14.799475
_cell_length_b 14.799475
_cell_length_c 13.478238
_cell_angle_alpha 90.000000
_cell_angle_beta 90.000000
_cell_angle_gamma 90.000000
_cell_volume 2952.063803
_symmetry_space_group_name_H-M "I 4"
_symmetry_group_IT_number 79
_symmetry_cell_setting 'tetragonal'
loop_
_space_group_symop_operation_xyz
x,y,z
-y,x,z
-x,-y,z
y,-x,z
1/2+x,1/2+y,1/2+z
1/2-y,1/2+x,1/2+z
1/2-x,1/2-y,1/2+z
1/2+y,1/2-x,1/2+z
loop_
_atom_site_type_symbol
_atom_site_label
_atom_site_fract_x
_atom_site_fract_y
_atom_site_fract_z
Si Si1 0.746863 0.618327 0.143210
Si Si2 0.175012 0.713428 0.209227
Si Si3 0.492682 0.105843 0.441418
Si Si4 0.394157 0.992682 0.707774
Si Si5 0.324988 0.786572 0.939965
Si Si6 0.538680 0.355998 0.324596
Si Si7 0.881673 0.246864 0.005982
O O1 0.732685 0.719357 0.185903
O O2 0.845334 0.573870 0.151451
O O3 0.693720 0.555868 0.220756
O O4 0.729520 0.623094 0.025202
O O5 0.149335 0.607222 0.194188
O O6 0.155961 0.734732 0.324596
O O7 0.123094 0.770480 0.123990
O O8 0.512135 0.117322 0.324596
O O9 0.392777 0.149335 0.455004
O O10 0.573869 0.154667 0.497741
O O11 0.500000 0.000000 0.462594
O O12 0.500000 0.000000 0.686598
O O13 0.219357 0.767314 0.963289
O O14 0.607894 0.438302 0.324596
O O15 0.555868 0.306280 0.428436
#
# Coordination Sequence:
#
# PCOD9541863 Si02
#       7
#     8   8   8   8   8   8   8
#     4  11  21  36  61  86 121 161 202 260 303 367
#     4  10  22  38  57  86 125 164 203 249 311 369
#     4  10  21  37  58  87 123 160 204 251 308 374
#     4  10  21  37  58  87 123 160 204 251 308 374
#     4  10  22  38  57  86 125 164 203 249 311 369
#     4  11  22  40  67  92 114 154 211 262 312 363
#     4  11  21  36  61  86 121 161 202 260 303 367
#
# _framework density 18.96978
#
# number of rings (size 3 to 8) (size 9 to 14) (size 15 to 20)
#    0.000    1.571    2.857    1.714    4.000    0.000 
#    0.000    0.000    0.000    0.000    0.000    2.000 
#    0.000    0.000    0.000    0.000    0.000    0.000 
#
# Total GULP energy -155980.633212 kJ/mol
# GULP energy per Si atom -5570.736900 kJ/mol
# Density = 1.892660 g / cm^3
# Si number density = 18.969780 Si / 1000 Ang^3
#
#
#
# Elastic Constant Matrix: (Units=GPa)
#
#
# Indices 1 2 3 4 5 6 
#
# 1 66.2382 25.9260 35.6864 0.0000 0.0000 -1.0255
# 2 25.9260 66.2382 35.6864 0.0000 0.0000 1.0255
# 3 35.6864 35.6864 190.7907 0.0000 0.0000 0.0000
# 4 0.0000 0.0000 0.0000 4.0704 0.0000 0.0000
# 5 0.0000 0.0000 0.0000 0.0000 4.0704 0.0000
# 6 -1.0255 1.0255 0.0000 0.0000 0.0000 38.1651
#
#
#
# Elastic Compliance Matrix: (Units=1/GPa)
#
#
# Indices 1 2 3 4 5 6 
#
# 1 0.018764 -0.006076 -0.002373 0.000000 0.000000 0.000667
# 2 -0.006076 0.018764 -0.002373 0.000000 0.000000 -0.000667
# 3 -0.002373 -0.002373 0.006129 0.000000 0.000000 0.000000
# 4 0.000000 0.000000 0.000000 0.245679 0.000000 0.000000
# 5 0.000000 0.000000 0.000000 0.000000 0.245679 0.000000
# 6 0.000667 -0.000667 0.000000 0.000000 0.000000 0.026238
#
#
# Mechanical properties :
#
#
# Convention : Reuss Voigt Hill
#
# Bulk Modulus (GPa) = 45.42912 57.54052 51.48482
# Shear Modulus (GPa) = 8.47119 24.32572 16.39846
#
# Velocity S-wave (km/s) = 2.11550 3.58486 2.94335
# Velocity P-wave (km/s) = 5.47423 6.89446 6.22498
#
# Compressibility (1/GPa) = 0.02201231
#
# Stress axis : x y z
#
# Youngs Moduli (GPa) = 53.29301 53.29301 163.15490
#
# Poissons Ratio (x) = 0.32382 0.38720
# Poissons Ratio (y) = 0.32382 0.38720
# Poissons Ratio (z) = 0.12648 0.12648
#
# Static dielectric constant tensor:
#      x y z
#    x 1.670830 0.000000 0.000000 
#    y 0.000000 1.670830 0.000000 
#    z 0.000000 0.000000 1.704390 
# 
# From -- ./inp_files/1151.got.cif
#   From: 2010.05.17/outbox.cif.g08.bks.cpg/sg79_cif.got.tgz:1151.got - 2010.06.03 18:47:27.
