data_PCOD9541659
_publ_section_title
;
Structure prediction by ZEFSAII (Michael W. Deem and Ramdas Pophale) SiO2 
 PCOD9541659
Probable space group: P 43
;
_chemical_formula_sum "Si O2"
_cell_formula_units_Z 32
_cell_length_a 8.705978
_cell_length_b 8.705978
_cell_length_c 15.804389
_cell_angle_alpha 90.000000
_cell_angle_beta 90.000000
_cell_angle_gamma 90.000000
_cell_volume 1197.878696
_symmetry_space_group_name_H-M "P 43"
_symmetry_group_IT_number 78
_symmetry_cell_setting 'tetragonal'
loop_
_space_group_symop_operation_xyz
x,y,z
-y,x,3/4+z
-x,-y,1/2+z
y,-x,1/4+z
loop_
_atom_site_type_symbol
_atom_site_label
_atom_site_fract_x
_atom_site_fract_y
_atom_site_fract_z
Si Si1 0.242129 0.713032 0.505240
Si Si2 0.222542 0.754450 0.751825
Si Si3 0.205661 0.128737 0.946728
Si Si4 0.445951 0.947377 0.199011
Si Si5 0.511716 0.372251 0.145244
Si Si6 0.031437 0.003447 0.555259
Si Si7 0.469502 0.955822 0.005241
Si Si8 0.692906 0.340706 0.441527
O O1 0.389194 0.661164 0.560751
O O2 0.311122 0.661646 0.411789
O O3 0.169592 0.876359 0.539404
O O4 0.085331 0.612920 0.506410
O O5 0.382766 0.725730 0.709484
O O6 0.103321 0.628314 0.717240
O O7 0.248337 0.718687 0.850566
O O8 0.139857 0.914913 0.741688
O O9 0.165489 0.302946 0.932335
O O10 0.382083 0.085162 0.953575
O O11 0.107394 0.020743 0.884411
O O12 0.125228 0.084462 0.035404
O O13 0.577350 0.837260 0.234297
O O14 0.488777 0.000174 0.103313
O O15 0.545209 0.550034 0.170738
O O16 0.366929 0.801965 0.995225
#
# Coordination Sequence:
#
# PCOD9541659 Si02
#       8
#     4   4   4   4   4   4   4   4
#     4  11  26  43  71  99 147 191 245 311 381 451
#     4  10  21  39  66  98 136 171 248 289 362 441
#     4  11  21  41  65  93 141 179 234 296 369 428
#     4  10  24  44  64 101 140 185 242 300 371 455
#     4  11  23  46  66 100 138 193 245 308 371 449
#     4  11  23  40  64 101 134 189 234 302 362 441
#     4  10  21  39  66  96 129 180 228 297 360 435
#     4  10  21  42  68  98 135 182 236 305 362 450
#
# _framework density 26.713889000000002
#
# number of rings (size 3 to 8) (size 9 to 14) (size 15 to 20)
#    0.000    1.500    3.750    0.750    3.500    2.000 
#    4.500    0.000    0.000    0.000    0.000    0.000 
#    0.000    0.000    0.000    0.000    0.000    0.000 
#
# Total GULP energy -178621.827251 kJ/mol
# GULP energy per Si atom -5581.932102 kJ/mol
# Density = 2.665309 g / cm^3
# Si number density = 26.713889 Si / 1000 Ang^3
#
#
#
# Elastic Constant Matrix: (Units=GPa)
#
#
# Indices 1 2 3 4 5 6 
#
# 1 66.4350 81.8803 18.2842 0.0000 0.0000 -3.1126
# 2 81.8803 66.4350 18.2842 0.0000 0.0000 3.1126
# 3 18.2842 18.2842 55.5922 0.0000 0.0000 0.0000
# 4 0.0000 0.0000 0.0000 32.9457 0.0000 0.0000
# 5 0.0000 0.0000 0.0000 0.0000 32.9457 0.0000
# 6 -3.1126 3.1126 0.0000 0.0000 0.0000 64.3588
#
#
#
# Elastic Compliance Matrix: (Units=1/GPa)
#
#
# Indices 1 2 3 4 5 6 
#
# 1 -0.028085 0.035422 -0.002413 0.000000 0.000000 -0.003071
# 2 0.035422 -0.028085 -0.002413 0.000000 0.000000 0.003071
# 3 -0.002413 -0.002413 0.019576 0.000000 0.000000 0.000000
# 4 0.000000 0.000000 0.000000 0.030353 0.000000 0.000000
# 5 0.000000 0.000000 0.000000 0.000000 0.030353 0.000000
# 6 -0.003071 0.003071 0.000000 0.000000 0.000000 0.015241
#
#
# Mechanical properties :
#
#
# Convention : Reuss Voigt Hill
#
# Bulk Modulus (GPa) = 40.65480 47.26217 43.95848
# Shear Modulus (GPa) = -366.60083 30.71760 -167.94161
#
# Velocity S-wave (km/s) = -11.72733 3.39466 -7.93746
# Velocity P-wave (km/s) = 12.96619 5.75285 8.21665
#
# Compressibility (1/GPa) = 0.02459734
#
# Stress axis : x y z
#
# Youngs Moduli (GPa) = -35.60667 -35.60667 51.08404
#
# Poissons Ratio (x) = 1.26126 0.12328
# Poissons Ratio (y) = 1.26126 0.12328
# Poissons Ratio (z) = -0.08593 -0.08593
#
# Static dielectric constant tensor:
#      x y z
#    x 2.108540 0.000000 0.000000 
#    y 0.000000 2.108540 0.000000 
#    z 0.000000 0.000000 2.309670 
# 
# From -- ./inp_files/1490.got.cif
#   From: 2010.05.17/outbox.cif.g08.bks.cpg/sg78_cif.got.tgz:1490.got - 2010.06.03 18:45:56.
