data_PCOD9541708
_publ_section_title
;
Structure prediction by ZEFSAII (Michael W. Deem and Ramdas Pophale) SiO2 
 PCOD9541708
Probable space group: P 43
;
_chemical_formula_sum "Si O2"
_cell_formula_units_Z 32
_cell_length_a 11.373764
_cell_length_b 11.373764
_cell_length_c 11.488676
_cell_angle_alpha 90.000000
_cell_angle_beta 90.000000
_cell_angle_gamma 90.000000
_cell_volume 1486.203936
_symmetry_space_group_name_H-M "P 43"
_symmetry_group_IT_number 78
_symmetry_cell_setting 'tetragonal'
loop_
_space_group_symop_operation_xyz
x,y,z
-y,x,3/4+z
-x,-y,1/2+z
y,-x,1/4+z
loop_
_atom_site_type_symbol
_atom_site_label
_atom_site_fract_x
_atom_site_fract_y
_atom_site_fract_z
Si Si1 0.288055 0.077641 0.893690
Si Si2 0.753330 0.833907 0.805395
Si Si3 0.421627 0.780170 0.514996
Si Si4 0.163587 0.477982 0.015972
Si Si5 0.561492 0.543818 0.478872
Si Si6 0.585404 0.946537 0.633370
Si Si7 0.995128 0.136509 0.251290
Si Si8 0.107711 0.114435 0.723405
O O1 0.400415 0.104747 0.813232
O O2 0.183064 0.152346 0.834771
O O3 0.222048 0.951529 0.905113
O O4 0.330667 0.089799 0.025861
O O5 0.727580 0.696664 0.817814
O O6 0.641971 0.893490 0.748399
O O7 0.800135 0.907603 0.913976
O O8 0.869852 0.840988 0.724386
O O9 0.402112 0.830819 0.385121
O O10 0.521751 0.680047 0.498483
O O11 0.465503 0.883222 0.598200
O O12 0.299430 0.482053 0.978682
O O13 0.082781 0.431122 0.912044
O O14 0.515504 0.513674 0.348791
O O15 0.955925 0.184341 0.378004
O O16 0.979166 0.993443 0.259630
#
# Coordination Sequence:
#
# PCOD9541708 Si02
#       8
#     4   4   4   4   4   4   4   4
#     4  10  23  39  64  96 139 181 219 288 339 425
#     4  11  22  39  63  94 125 178 216 280 336 418
#     4  10  23  43  64  89 137 178 229 291 350 414
#     4  10  23  44  65  99 139 179 232 297 353 421
#     4  10  22  47  73  99 134 187 245 305 368 423
#     4  11  24  37  65  99 127 181 232 280 344 423
#     4   9  21  36  62  93 131 171 210 270 347 418
#     4   9  20  39  60  95 136 177 211 269 351 418
#
# _framework density 21.531364
#
# number of rings (size 3 to 8) (size 9 to 14) (size 15 to 20)
#    0.000    2.000    0.000    2.250   10.500    4.000 
#    2.250    3.750    0.000    0.000    0.000    0.000 
#    0.000    0.000    0.000    0.000    0.000    0.000 
#
# Total GULP energy -178144.884546 kJ/mol
# GULP energy per Si atom -5567.027642 kJ/mol
# Density = 2.148236 g / cm^3
# Si number density = 21.531364 Si / 1000 Ang^3
#
#
#
# Elastic Constant Matrix: (Units=GPa)
#
#
# Indices 1 2 3 4 5 6 
#
# 1 58.2245 19.3845 32.3039 0.0000 0.0000 -0.4617
# 2 19.3845 58.2245 32.3039 0.0000 0.0000 0.4617
# 3 32.3039 32.3039 93.0392 0.0000 0.0000 0.0000
# 4 0.0000 0.0000 0.0000 27.8599 0.0000 0.0000
# 5 0.0000 0.0000 0.0000 0.0000 27.8599 0.0000
# 6 -0.4617 0.4617 0.0000 0.0000 0.0000 15.6339
#
#
#
# Elastic Compliance Matrix: (Units=1/GPa)
#
#
# Indices 1 2 3 4 5 6 
#
# 1 0.021944 -0.003821 -0.006293 0.000000 0.000000 0.000761
# 2 -0.003821 0.021944 -0.006293 0.000000 0.000000 -0.000761
# 3 -0.006293 -0.006293 0.015118 0.000000 0.000000 0.000000
# 4 0.000000 0.000000 0.000000 0.035894 0.000000 0.000000
# 5 0.000000 0.000000 0.000000 0.000000 0.035894 0.000000
# 6 0.000761 -0.000761 0.000000 0.000000 0.000000 0.064009
#
#
# Mechanical properties :
#
#
# Convention : Reuss Voigt Hill
#
# Bulk Modulus (GPa) = 38.17601 41.94142 40.05872
# Shear Modulus (GPa) = 21.15544 22.63713 21.89628
#
# Velocity S-wave (km/s) = 3.13795 3.24598 3.19242
# Velocity P-wave (km/s) = 5.55859 5.79396 5.67750
#
# Compressibility (1/GPa) = 0.02619446
#
# Stress axis : x y z
#
# Youngs Moduli (GPa) = 45.57020 45.57020 66.14689
#
# Poissons Ratio (x) = 0.17410 0.41624
# Poissons Ratio (y) = 0.17410 0.41624
# Poissons Ratio (z) = 0.28676 0.28676
#
# Static dielectric constant tensor:
#      x y z
#    x 1.830000 0.000000 0.000000 
#    y 0.000000 1.830000 0.000000 
#    z 0.000000 0.000000 1.843100 
# 
# From -- ./inp_files/942.got.cif
#   From: 2010.05.17/outbox.cif.g08.bks.cpg/sg78_cif.got.tgz:942.got - 2010.06.03 18:45:56.
