data_PCOD9541100
_publ_section_title
;
Structure prediction by ZEFSAII (Michael W. Deem and Ramdas Pophale) SiO2 
 PCOD9541100
Probable space group: P 41
;
_chemical_formula_sum "Si O2"
_cell_formula_units_Z 24
_cell_length_a 8.817425
_cell_length_b 8.817425
_cell_length_c 15.314312
_cell_angle_alpha 90.000000
_cell_angle_beta 90.000000
_cell_angle_gamma 90.000000
_cell_volume 1190.641564
_symmetry_space_group_name_H-M "P 41"
_symmetry_group_IT_number 76
_symmetry_cell_setting 'tetragonal'
loop_
_space_group_symop_operation_xyz
x,y,z
-y,x,1/4+z
-x,-y,1/2+z
y,-x,3/4+z
loop_
_atom_site_type_symbol
_atom_site_label
_atom_site_fract_x
_atom_site_fract_y
_atom_site_fract_z
Si Si1 0.235656 0.590493 0.460650
Si Si2 0.484195 0.863447 0.936780
Si Si3 0.297977 0.138397 0.885384
Si Si4 0.471774 0.291466 0.028958
Si Si5 0.622622 0.628390 0.827520
Si Si6 0.656558 0.038948 0.087989
O O1 0.188966 0.582123 0.561190
O O2 0.383231 0.697767 0.464293
O O3 0.289296 0.440819 0.410856
O O4 0.092785 0.655260 0.408953
O O5 0.576396 0.797604 0.854699
O O6 0.343807 0.968027 0.907874
O O7 0.413773 0.726573 0.995006
O O8 0.599679 0.957730 0.998848
O O9 0.135622 0.188321 0.846431
O O10 0.330468 0.232958 0.973553
O O11 0.449915 0.459060 0.064877
O O12 0.525821 0.168472 0.099937
#
# Coordination Sequence:
#
# PCOD9541100 Si02
#       6
#     4   4   4   4   4   4
#     4  10  19  34  61  91 119 162 206 265 313 375
#     4  10  23  38  63 103 125 161 217 277 322 368
#     4  10  22  39  62  88 127 174 210 250 329 400
#     4  10  20  36  62  94 118 165 217 268 321 367
#     4  11  21  36  66 100 127 153 219 285 311 366
#     4   9  21  37  58  88 128 165 211 257 322 396
#
# _framework density 20.157198999999999
#
# number of rings (size 3 to 8) (size 9 to 14) (size 15 to 20)
#    0.000    2.000    1.667    2.000    4.667    0.000 
#    0.000    0.000   22.000    0.000    0.000    0.000 
#    0.000    0.000    0.000    0.000    0.000    0.000 
#
# Total GULP energy -133673.766673 kJ/mol
# GULP energy per Si atom -5569.740278 kJ/mol
# Density = 2.011132 g / cm^3
# Si number density = 20.157199 Si / 1000 Ang^3
#
#
#
# Elastic Constant Matrix: (Units=GPa)
#
#
# Indices 1 2 3 4 5 6 
#
# 1 102.7873 35.1670 28.1367 0.0000 0.0000 0.4349
# 2 35.1670 102.7873 28.1367 0.0000 0.0000 -0.4349
# 3 28.1367 28.1367 53.3345 0.0000 0.0000 0.0000
# 4 0.0000 0.0000 0.0000 25.4830 0.0000 0.0000
# 5 0.0000 0.0000 0.0000 0.0000 25.4830 0.0000
# 6 0.4349 -0.4349 0.0000 0.0000 0.0000 26.4662
#
#
#
# Elastic Compliance Matrix: (Units=1/GPa)
#
#
# Indices 1 2 3 4 5 6 
#
# 1 0.012014 -0.002778 -0.004873 0.000000 0.000000 -0.000243
# 2 -0.002778 0.012014 -0.004873 0.000000 0.000000 0.000243
# 3 -0.004873 -0.004873 0.023891 0.000000 0.000000 0.000000
# 4 0.000000 0.000000 0.000000 0.039242 0.000000 0.000000
# 5 0.000000 0.000000 0.000000 0.000000 0.039242 0.000000
# 6 -0.000243 0.000243 0.000000 0.000000 0.000000 0.037792
#
#
# Mechanical properties :
#
#
# Convention : Reuss Voigt Hill
#
# Bulk Modulus (GPa) = 43.71992 49.08776 46.40384
# Shear Modulus (GPa) = 25.39817 26.65104 26.02460
#
# Velocity S-wave (km/s) = 3.55351 3.64010 3.59706
# Velocity P-wave (km/s) = 6.21072 6.48632 6.35002
#
# Compressibility (1/GPa) = 0.02287287
#
# Stress axis : x y z
#
# Youngs Moduli (GPa) = 83.23630 83.23630 41.85717
#
# Poissons Ratio (x) = 0.23120 0.20396
# Poissons Ratio (y) = 0.23120 0.20396
# Poissons Ratio (z) = 0.40558 0.40558
#
# Static dielectric constant tensor:
#      x y z
#    x 1.741600 0.000000 0.000000 
#    y 0.000000 1.741600 0.000000 
#    z 0.000000 0.000000 1.755760 
# 
# From -- ./inp_files/1082.got.cif
#   From: 2010.05.17/outbox.cif.g08.bks.cpg/sg76_cif.got.tgz:1082.got - 2010.06.03 18:43:17.
