data_PCOD9541683
_publ_section_title
;
Structure prediction by ZEFSAII (Michael W. Deem and Ramdas Pophale) SiO2 
 PCOD9541683
Probable space group: P 43
;
_chemical_formula_sum "Si O2"
_cell_formula_units_Z 16
_cell_length_a 8.173460
_cell_length_b 8.173460
_cell_length_c 8.917995
_cell_angle_alpha 90.000000
_cell_angle_beta 90.000000
_cell_angle_gamma 90.000000
_cell_volume 595.770655
_symmetry_space_group_name_H-M "P 43"
_symmetry_group_IT_number 78
_symmetry_cell_setting 'tetragonal'
loop_
_space_group_symop_operation_xyz
x,y,z
-y,x,3/4+z
-x,-y,1/2+z
y,-x,1/4+z
loop_
_atom_site_type_symbol
_atom_site_label
_atom_site_fract_x
_atom_site_fract_y
_atom_site_fract_z
Si Si1 0.302232 0.920711 0.864640
Si Si2 0.860397 0.060014 0.807445
Si Si3 0.527261 0.052416 0.648174
Si Si4 0.551770 0.314539 0.165610
O O1 0.367584 0.061797 0.751242
O O2 0.293829 0.761754 0.759349
O O3 0.166248 0.003410 0.967049
O O4 0.442804 0.873168 0.985809
O O5 0.679426 0.100680 0.753608
O O6 0.907560 0.885351 0.732647
O O7 0.535489 0.855625 0.618485
O O8 0.430236 0.404825 0.279278
#
# Coordination Sequence:
#
# PCOD9541683 Si02
#       4
#     4   4   4   4
#     4   9  22  42  65 100 133 177 231 284 356 411
#     4  10  22  38  64  98 128 174 220 280 348 406
#     4   9  22  42  65 100 133 177 231 284 356 411
#     4  10  24  48  66 100 142 200 240 290 350 430
#
# _framework density 26.855972000000001
#
# number of rings (size 3 to 8) (size 9 to 14) (size 15 to 20)
#    1.500    1.000    0.000    0.000    3.500   10.000 
#   22.500    0.000    0.000    0.000    0.000    0.000 
#    0.000    0.000    0.000    0.000    0.000    0.000 
#
# Total GULP energy -89340.140115 kJ/mol
# GULP energy per Si atom -5583.758757 kJ/mol
# Density = 2.679485 g / cm^3
# Si number density = 26.855972 Si / 1000 Ang^3
#
#
#
# Elastic Constant Matrix: (Units=GPa)
#
#
# Indices 1 2 3 4 5 6 
#
# 1 56.1826 33.2868 18.1988 0.0000 0.0000 -0.0378
# 2 33.2868 56.1826 18.1988 0.0000 0.0000 0.0378
# 3 18.1988 18.1988 128.6130 0.0000 0.0000 0.0000
# 4 0.0000 0.0000 0.0000 51.3859 0.0000 0.0000
# 5 0.0000 0.0000 0.0000 0.0000 51.3859 0.0000
# 6 -0.0378 0.0378 0.0000 0.0000 0.0000 39.3715
#
#
#
# Elastic Compliance Matrix: (Units=1/GPa)
#
#
# Indices 1 2 3 4 5 6 
#
# 1 0.027768 -0.015908 -0.001678 0.000000 0.000000 0.000042
# 2 -0.015908 0.027768 -0.001678 0.000000 0.000000 -0.000042
# 3 -0.001678 -0.001678 0.008250 0.000000 0.000000 0.000000
# 4 0.000000 0.000000 0.000000 0.019461 0.000000 0.000000
# 5 0.000000 0.000000 0.000000 0.000000 0.019461 0.000000
# 6 0.000042 -0.000042 0.000000 0.000000 0.000000 0.025399
#
#
# Mechanical properties :
#
#
# Convention : Reuss Voigt Hill
#
# Bulk Modulus (GPa) = 39.59303 42.26080 40.92691
# Shear Modulus (GPa) = 28.56254 39.84825 34.20539
#
# Velocity S-wave (km/s) = 3.26474 3.85616 3.57271
# Velocity P-wave (km/s) = 5.38388 5.96631 5.68256
#
# Compressibility (1/GPa) = 0.02525697
#
# Stress axis : x y z
#
# Youngs Moduli (GPa) = 36.01277 36.01277 121.20938
#
# Poissons Ratio (x) = 0.57290 0.20341
# Poissons Ratio (y) = 0.57290 0.20341
# Poissons Ratio (z) = 0.06044 0.06044
#
# Static dielectric constant tensor:
#      x y z
#    x 2.212170 0.000000 0.000000 
#    y 0.000000 2.212170 0.000000 
#    z 0.000000 0.000000 2.085480 
# 
# From -- ./inp_files/425.got.cif
#   From: 2010.05.17/outbox.cif.g08.bks.cpg/sg78_cif.got.tgz:425.got - 2010.06.03 18:45:56.
