data_PCOD9541828
_publ_section_title
;
Structure prediction by ZEFSAII (Michael W. Deem and Ramdas Pophale) SiO2 
 PCOD9541828
Probable space group: I 4
;
_chemical_formula_sum "Si O2"
_cell_formula_units_Z 40
_cell_length_a 20.806594
_cell_length_b 20.806594
_cell_length_c 5.158762
_cell_angle_alpha 90.000000
_cell_angle_beta 90.000000
_cell_angle_gamma 90.000000
_cell_volume 2233.302118
_symmetry_space_group_name_H-M "I 4"
_symmetry_group_IT_number 79
_symmetry_cell_setting 'tetragonal'
loop_
_space_group_symop_operation_xyz
x,y,z
-y,x,z
-x,-y,z
y,-x,z
1/2+x,1/2+y,1/2+z
1/2-y,1/2+x,1/2+z
1/2-x,1/2-y,1/2+z
1/2+y,1/2-x,1/2+z
loop_
_atom_site_type_symbol
_atom_site_label
_atom_site_fract_x
_atom_site_fract_y
_atom_site_fract_z
Si Si1 0.684878 0.491269 0.591330
Si Si2 0.698861 0.339727 0.579995
Si Si3 0.102755 0.742101 0.884749
Si Si4 0.780791 0.671129 0.877230
Si Si5 0.510598 0.394098 0.081171
O O1 0.694503 0.415211 0.615218
O O2 0.745331 0.530842 0.479527
O O3 0.630655 0.505430 0.374715
O O4 0.662623 0.516703 0.871666
O O5 0.639655 0.311313 0.411598
O O6 0.766109 0.320265 0.450657
O O7 0.693094 0.293861 0.833499
O O8 0.140460 0.701195 0.101909
O O9 0.118455 0.716649 0.602472
O O10 0.567536 0.444341 0.034215
#
# Coordination Sequence:
#
# PCOD9541828 Si02
#       5
#     8   8   8   8   8
#     4  12  24  32  56  77 105 136 188 227 268 304
#     4  10  21  35  58  75 102 142 179 215 272 324
#     4  10  20  35  49  80 104 135 171 233 261 306
#     4  10  20  36  56  72 104 138 179 213 279 317
#     4  11  23  37  47  68 106 152 186 215 251 302
#
# _framework density 17.910698
#
# number of rings (size 3 to 8) (size 9 to 14) (size 15 to 20)
#    1.200    0.200    2.000    4.800    5.600    1.600 
#    0.000    0.000    0.000    0.000    0.000    0.000 
#    0.000    4.800    0.000    0.000    0.000    0.000 
#
# Total GULP energy -111497.590024 kJ/mol
# GULP energy per Si atom -5574.879501 kJ/mol
# Density = 1.786993 g / cm^3
# Si number density = 17.910698 Si / 1000 Ang^3
#
#
#
# Elastic Constant Matrix: (Units=GPa)
#
#
# Indices 1 2 3 4 5 6 
#
# 1 33.1131 2.4203 0.2629 0.0000 0.0000 -2.2201
# 2 2.4203 33.1131 0.2629 0.0000 0.0000 2.2201
# 3 0.2629 0.2629 66.9541 0.0000 0.0000 0.0000
# 4 0.0000 0.0000 0.0000 18.4538 0.0000 0.0000
# 5 0.0000 0.0000 0.0000 0.0000 18.4538 0.0000
# 6 -2.2201 2.2201 0.0000 0.0000 0.0000 14.4427
#
#
#
# Elastic Compliance Matrix: (Units=1/GPa)
#
#
# Indices 1 2 3 4 5 6 
#
# 1 0.030733 -0.002589 -0.000111 0.000000 0.000000 0.005122
# 2 -0.002589 0.030733 -0.000111 0.000000 0.000000 -0.005122
# 3 -0.000111 -0.000111 0.014936 0.000000 0.000000 0.000000
# 4 0.000000 0.000000 0.000000 0.054189 0.000000 0.000000
# 5 0.000000 0.000000 0.000000 0.000000 0.054189 0.000000
# 6 0.005122 -0.005122 0.000000 0.000000 0.000000 0.070814
#
#
# Mechanical properties :
#
#
# Convention : Reuss Voigt Hill
#
# Bulk Modulus (GPa) = 14.12775 15.45252 14.79013
# Shear Modulus (GPa) = 17.55563 18.95235 18.25399
#
# Velocity S-wave (km/s) = 3.13417 3.25646 3.19590
# Velocity P-wave (km/s) = 4.58284 4.77343 4.67911
#
# Compressibility (1/GPa) = 0.07078270
#
# Stress axis : x y z
#
# Youngs Moduli (GPa) = 32.53825 32.53825 66.95022
#
# Poissons Ratio (x) = 0.08424 0.00740
# Poissons Ratio (y) = 0.08424 0.00740
# Poissons Ratio (z) = 0.00360 0.00360
#
# Static dielectric constant tensor:
#      x y z
#    x 1.612280 0.000000 0.000000 
#    y 0.000000 1.612280 0.000000 
#    z 0.000000 0.000000 1.654170 
# 
# From -- ./inp_files/186.got.cif
#   From: 2010.05.17/outbox.cif.g08.bks.cpg/sg79_cif.got.tgz:186.got - 2010.06.03 18:47:27.
