data_PCOD9541783
_publ_section_title
;
Structure prediction by ZEFSAII (Michael W. Deem and Ramdas Pophale) SiO2 
 PCOD9541783
Probable space group: P 43
;
_chemical_formula_sum "Si O2"
_cell_formula_units_Z 28
_cell_length_a 13.502312
_cell_length_b 13.502312
_cell_length_c 6.063298
_cell_angle_alpha 90.000000
_cell_angle_beta 90.000000
_cell_angle_gamma 90.000000
_cell_volume 1105.414588
_symmetry_space_group_name_H-M "P 43"
_symmetry_group_IT_number 78
_symmetry_cell_setting 'tetragonal'
loop_
_space_group_symop_operation_xyz
x,y,z
-y,x,3/4+z
-x,-y,1/2+z
y,-x,1/4+z
loop_
_atom_site_type_symbol
_atom_site_label
_atom_site_fract_x
_atom_site_fract_y
_atom_site_fract_z
Si Si1 0.119459 0.919734 0.131570
Si Si2 0.379215 0.573894 0.851879
Si Si3 0.222764 0.071031 0.463425
Si Si4 0.716189 0.249990 0.081152
Si Si5 0.082698 0.568463 0.922890
Si Si6 0.400661 0.252694 0.994739
Si Si7 0.863289 0.547382 0.048749
O O1 0.018322 0.891589 0.243537
O O2 0.185738 0.971081 0.335557
O O3 0.116390 0.836293 0.930348
O O4 0.390378 0.487479 0.675648
O O5 0.312648 0.662659 0.754359
O O6 0.328800 0.545246 0.083434
O O7 0.222978 0.168980 0.312004
O O8 0.338538 0.059049 0.518036
O O9 0.697608 0.302366 0.845332
O O10 0.651317 0.162375 0.184708
O O11 0.142566 0.478598 0.807013
O O12 0.978914 0.527974 0.007428
O O13 0.152328 0.615586 0.108162
O O14 0.471725 0.210728 0.182731
#
# Coordination Sequence:
#
# PCOD9541783 Si02
#       7
#     4   4   4   4   4   4   4
#     4  12  26  50  75 112 157 204 262 340 402 491
#     4  12  28  48  79 115 155 208 264 334 406 484
#     4  12  28  47  79 116 159 213 273 337 415 492
#     4  12  28  47  77 114 154 207 272 329 406 493
#     4  12  27  50  75 113 157 211 265 333 404 488
#     4  12  24  51  73 109 158 201 263 331 394 482
#     4  12  27  47  78 111 154 210 267 334 405 478
#
# _framework density 25.329863
#
# number of rings (size 3 to 8) (size 9 to 14) (size 15 to 20)
#    0.000    0.000    5.714    2.571   10.000    1.143 
#    2.571    0.000    0.000    0.000    0.000    0.000 
#    0.000    0.000    0.000    0.000    0.000    0.000 
#
# Total GULP energy -156140.886750 kJ/mol
# GULP energy per Si atom -5576.460241 kJ/mol
# Density = 2.527221 g / cm^3
# Si number density = 25.329863 Si / 1000 Ang^3
#
#
#
# Elastic Constant Matrix: (Units=GPa)
#
#
# Indices 1 2 3 4 5 6 
#
# 1 113.0792 17.4034 36.0457 0.0000 0.0000 4.7651
# 2 17.4034 113.0792 36.0457 0.0000 0.0000 -4.7651
# 3 36.0457 36.0457 85.8483 0.0000 0.0000 0.0000
# 4 0.0000 0.0000 0.0000 43.6035 0.0000 0.0000
# 5 0.0000 0.0000 0.0000 0.0000 43.6035 0.0000
# 6 4.7651 -4.7651 0.0000 0.0000 0.0000 40.3643
#
#
#
# Elastic Compliance Matrix: (Units=1/GPa)
#
#
# Indices 1 2 3 4 5 6 
#
# 1 0.010278 -0.000299 -0.004190 0.000000 0.000000 -0.001249
# 2 -0.000299 0.010278 -0.004190 0.000000 0.000000 0.001249
# 3 -0.004190 -0.004190 0.015167 0.000000 0.000000 0.000000
# 4 0.000000 0.000000 0.000000 0.022934 0.000000 0.000000
# 5 0.000000 0.000000 0.000000 0.000000 0.022934 0.000000
# 6 -0.001249 0.001249 0.000000 0.000000 0.000000 0.025069
#
#
# Mechanical properties :
#
#
# Convention : Reuss Voigt Hill
#
# Bulk Modulus (GPa) = 54.45138 54.55513 54.50325
# Shear Modulus (GPa) = 38.42086 40.34837 39.38461
#
# Velocity S-wave (km/s) = 3.89886 3.99547 3.94746
# Velocity P-wave (km/s) = 6.46620 6.54749 6.50697
#
# Compressibility (1/GPa) = 0.01836501
#
# Stress axis : x y z
#
# Youngs Moduli (GPa) = 97.29958 97.29958 65.93313
#
# Poissons Ratio (x) = 0.02907 0.27625
# Poissons Ratio (y) = 0.02907 0.27625
# Poissons Ratio (z) = 0.40767 0.40767
#
# Static dielectric constant tensor:
#      x y z
#    x 2.027450 0.000000 0.000000 
#    y 0.000000 2.027450 0.000000 
#    z 0.000000 0.000000 2.173650 
# 
# From -- ./inp_files/229.got.cif
#   From: 2010.05.17/outbox.cif.g08.bks.cpg/sg78_cif.got.tgz:229.got - 2010.06.03 18:45:56.
