data_PCOD9541023
_publ_section_title
;
Structure prediction by ZEFSAII (Michael W. Deem and Ramdas Pophale) SiO2 
 PCOD9541023
Probable space group: P 4
;
_chemical_formula_sum "Si O2"
_cell_formula_units_Z 26
_cell_length_a 8.536599
_cell_length_b 8.536599
_cell_length_c 17.576662
_cell_angle_alpha 90.000000
_cell_angle_beta 90.000000
_cell_angle_gamma 90.000000
_cell_volume 1280.873273
_symmetry_space_group_name_H-M "P 4"
_symmetry_group_IT_number 75
_symmetry_cell_setting 'tetragonal'
loop_
_space_group_symop_operation_xyz
x,y,z
-y,x,z
-x,-y,z
y,-x,z
loop_
_atom_site_type_symbol
_atom_site_label
_atom_site_fract_x
_atom_site_fract_y
_atom_site_fract_z
Si Si1 0.566943 0.242001 0.377200
Si Si2 0.240985 0.464541 0.208842
Si Si3 0.500000 0.000000 0.073887
Si Si4 0.076575 0.253664 0.508019
Si Si5 0.252452 0.411267 0.639842
Si Si6 0.580103 0.249054 0.817571
Si Si7 0.259378 0.957936 0.938281
O O1 0.682657 0.393698 0.385234
O O2 0.565816 0.169263 0.292327
O O3 0.631096 0.122414 0.439296
O O4 0.371647 0.331187 0.207299
O O5 0.138788 0.472799 0.133952
O O6 0.644335 0.023244 0.016143
O O7 0.119374 0.346508 0.584883
O O8 0.900633 0.188155 0.504788
O O9 0.409900 0.307588 0.625993
O O10 0.208433 0.401116 0.728617
O O11 0.689194 0.403123 0.830717
O O12 0.628743 0.107655 0.871829
O O13 0.122368 0.828958 0.933445
#
# Coordination Sequence:
#
# PCOD9541023 Si02
#       7
#     4   4   2   4   4   4   4
#     4   9  19  37  60  84 110 143 190 246 299 351
#     4   9  20  38  60  87 114 144 189 242 292 349
#     4  12  22  38  62  86 114 152 190 234 294 364
#     4  11  24  37  51  81 124 164 203 246 295 355
#     4   9  19  37  61  87 115 153 205 258 302 346
#     4   9  19  38  63  89 118 157 207 258 305 357
#     4  11  24  39  56  84 121 157 195 243 302 367
#
# _framework density 20.298649000000001
#
# number of rings (size 3 to 8) (size 9 to 14) (size 15 to 20)
#    0.000    2.154    0.000    4.615    0.000    7.385 
#    0.000    6.154    0.000    1.846    0.000    0.000 
#    0.000    0.000    0.000    0.000    0.000    0.000 
#
# Total GULP energy -145038.380717 kJ/mol
# GULP energy per Si atom -5578.399258 kJ/mol
# Density = 2.025245 g / cm^3
# Si number density = 20.298649 Si / 1000 Ang^3
#
#
#
# Elastic Constant Matrix: (Units=GPa)
#
#
# Indices 1 2 3 4 5 6 
#
# 1 78.9920 64.1861 80.5549 0.0000 0.0000 1.8076
# 2 64.1861 78.9920 80.5549 0.0000 0.0000 -1.8076
# 3 80.5549 80.5549 150.8575 0.0000 0.0000 0.0000
# 4 0.0000 0.0000 0.0000 38.3707 0.0000 0.0000
# 5 0.0000 0.0000 0.0000 0.0000 38.3707 0.0000
# 6 1.8076 -1.8076 0.0000 0.0000 0.0000 37.6819
#
#
#
# Elastic Compliance Matrix: (Units=1/GPa)
#
#
# Indices 1 2 3 4 5 6 
#
# 1 0.042920 -0.025421 -0.009344 0.000000 0.000000 -0.003278
# 2 -0.025421 0.042920 -0.009344 0.000000 0.000000 0.003278
# 3 -0.009344 -0.009344 0.016607 0.000000 0.000000 0.000000
# 4 0.000000 0.000000 0.000000 0.026062 0.000000 0.000000
# 5 0.000000 0.000000 0.000000 0.000000 0.026062 0.000000
# 6 -0.003278 0.003278 0.000000 0.000000 0.000000 0.026852
#
#
# Mechanical properties :
#
#
# Convention : Reuss Voigt Hill
#
# Bulk Modulus (GPa) = 70.27843 84.38145 77.32994
# Shear Modulus (GPa) = 18.22270 28.45435 23.33852
#
# Velocity S-wave (km/s) = 2.99946 3.74810 3.39449
# Velocity P-wave (km/s) = 6.83323 7.77118 7.31725
#
# Compressibility (1/GPa) = 0.01422912
#
# Stress axis : x y z
#
# Youngs Moduli (GPa) = 23.29935 23.29935 60.21386
#
# Poissons Ratio (x) = 0.59230 0.56262
# Poissons Ratio (y) = 0.59230 0.56262
# Poissons Ratio (z) = 0.21770 0.21770
#
# Static dielectric constant tensor:
#      x y z
#    x 1.679130 0.000000 0.000000 
#    y 0.000000 1.679130 0.000000 
#    z 0.000000 0.000000 1.713420 
# 
# From -- ./inp_files/721.got.cif
#   From: 2010.05.17/outbox.cif.g08.bks.cpg/sg75_cif.got.tgz:721.got - 2010.06.03 18:42:43.
