data_PCOD9541847
_publ_section_title
;
Structure prediction by ZEFSAII (Michael W. Deem and Ramdas Pophale) SiO2 
 PCOD9541847
Probable space group: I 4
;
_chemical_formula_sum "Si O2"
_cell_formula_units_Z 60
_cell_length_a 14.221761
_cell_length_b 14.221761
_cell_length_c 15.050957
_cell_angle_alpha 90.000000
_cell_angle_beta 90.000000
_cell_angle_gamma 90.000000
_cell_volume 3044.183775
_symmetry_space_group_name_H-M "I 4"
_symmetry_group_IT_number 79
_symmetry_cell_setting 'tetragonal'
loop_
_space_group_symop_operation_xyz
x,y,z
-y,x,z
-x,-y,z
y,-x,z
1/2+x,1/2+y,1/2+z
1/2-y,1/2+x,1/2+z
1/2-x,1/2-y,1/2+z
1/2+y,1/2-x,1/2+z
loop_
_atom_site_type_symbol
_atom_site_label
_atom_site_fract_x
_atom_site_fract_y
_atom_site_fract_z
Si Si1 0.573304 0.230719 0.638780
Si Si2 0.359691 0.149917 0.959613
Si Si3 0.640312 0.850086 0.317950
Si Si4 0.732924 0.661510 0.988020
Si Si5 0.354578 0.262291 0.638779
Si Si6 0.850802 0.953221 0.638782
Si Si7 0.267074 0.338488 0.289542
Si Si8 0.000000 0.500000 0.388781
O O1 0.607858 0.176184 0.551962
O O2 0.607854 0.176186 0.725601
O O3 0.463054 0.241266 0.638777
O O4 0.628117 0.329416 0.638780
O O5 0.284258 0.133805 0.880178
O O6 0.453613 0.090619 0.937957
O O7 0.351884 0.263910 0.969286
O O8 0.715745 0.866198 0.397383
O O9 0.648120 0.736093 0.308275
O O10 0.546388 0.909381 0.339605
O O11 0.805699 0.717778 0.051657
O O12 0.703371 0.574666 0.049345
O O13 0.305701 0.217778 0.725902
O O14 0.796629 0.925334 0.728219
O O15 0.941415 0.885623 0.638782
#
# Coordination Sequence:
#
# PCOD9541847 Si02
#       8
#     8   8   8   8   8   8   8   4
#     4  10  20  38  56  82 116 162 204 242 294 364
#     4  10  22  38  59  88 125 161 196 244 312 364
#     4  10  22  38  59  88 125 161 196 244 312 364
#     4   9  20  41  61  81 123 168 185 238 324 370
#     4   9  18  36  60  80 112 153 196 242 300 363
#     4  10  22  39  64  93 112 148 214 256 282 354
#     4   9  20  41  61  81 123 168 185 238 324 370
#     4  12  24  34  60 104 116 146 216 270 284 356
#
# _framework density 19.709717000000001
#
# number of rings (size 3 to 8) (size 9 to 14) (size 15 to 20)
#    0.000    2.267    0.000    2.400    3.733    0.800 
#    0.000    0.000    0.000    0.000    0.000    0.000 
#    0.000    0.000    0.000    0.000    0.000    0.000 
#
# Total GULP energy -167235.808746 kJ/mol
# GULP energy per Si atom -5574.526958 kJ/mol
# Density = 1.966486 g / cm^3
# Si number density = 19.709717 Si / 1000 Ang^3
#
#
#
# Elastic Constant Matrix: (Units=GPa)
#
#
# Indices 1 2 3 4 5 6 
#
# 1 -17.2530 93.5853 25.1598 0.0000 0.0000 36.8417
# 2 93.5853 -17.2530 25.1598 0.0000 0.0000 -36.8417
# 3 25.1598 25.1598 138.6974 0.0000 0.0000 0.0000
# 4 0.0000 0.0000 0.0000 16.3587 0.0000 0.0000
# 5 0.0000 0.0000 0.0000 0.0000 16.3587 0.0000
# 6 36.8417 -36.8417 0.0000 0.0000 0.0000 6.4977
#
#
#
# Elastic Compliance Matrix: (Units=1/GPa)
#
#
# Indices 1 2 3 4 5 6 
#
# 1 0.006494 0.008386 -0.002699 0.000000 0.000000 0.010726
# 2 0.008386 0.006494 -0.002699 0.000000 0.000000 -0.010726
# 3 -0.002699 -0.002699 0.008189 0.000000 0.000000 0.000000
# 4 0.000000 0.000000 0.000000 0.061130 0.000000 0.000000
# 5 0.000000 0.000000 0.000000 0.000000 0.061130 0.000000
# 6 0.010726 -0.010726 0.000000 0.000000 0.000000 0.032269
#
#
# Mechanical properties :
#
#
# Convention : Reuss Voigt Hill
#
# Bulk Modulus (GPa) = 36.82934 43.55567 40.19251
# Shear Modulus (GPa) = 27.96705 5.19545 16.58125
#
# Velocity S-wave (km/s) = 3.77098 1.62533 2.90362
# Velocity P-wave (km/s) = 6.13896 5.06644 5.62831
#
# Compressibility (1/GPa) = 0.02715227
#
# Stress axis : x y z
#
# Youngs Moduli (GPa) = 153.98497 153.98499 122.11162
#
# Poissons Ratio (x) = -1.29130 0.32961
# Poissons Ratio (y) = -1.29130 0.32961
# Poissons Ratio (z) = 0.41564 0.41564
#
# Static dielectric constant tensor:
#      x y z
#    x 1.707600 0.000000 0.000000 
#    y 0.000000 1.707600 0.000000 
#    z 0.000000 0.000000 1.685370 
# 
# From -- ./inp_files/1448.got.cif
#   From: 2010.05.17/outbox.cif.g08.bks.cpg/sg79_cif.got.tgz:1448.got - 2010.06.03 18:47:27.
