data_PCOD9541536
_publ_section_title
;
Structure prediction by ZEFSAII (Michael W. Deem and Ramdas Pophale) SiO2 
 PCOD9541536
Probable space group: P 42
;
_chemical_formula_sum "Si O2"
_cell_formula_units_Z 20
_cell_length_a 8.319615
_cell_length_b 8.319615
_cell_length_c 12.361889
_cell_angle_alpha 90.000000
_cell_angle_beta 90.000000
_cell_angle_gamma 90.000000
_cell_volume 855.640432
_symmetry_space_group_name_H-M "P 42"
_symmetry_group_IT_number 77
_symmetry_cell_setting 'tetragonal'
loop_
_space_group_symop_operation_xyz
x,y,z
-y,x,1/2+z
-x,-y,z
y,-x,1/2+z
loop_
_atom_site_type_symbol
_atom_site_label
_atom_site_fract_x
_atom_site_fract_y
_atom_site_fract_z
Si Si1 0.508955 0.317645 0.098840
Si Si2 0.978030 0.188977 0.972885
Si Si3 0.163175 0.229123 0.176655
Si Si4 0.608942 0.158888 0.900566
Si Si5 0.677407 0.079359 0.258132
O O1 0.500000 0.500000 0.133548
O O2 0.335136 0.246318 0.121512
O O3 0.640340 0.221049 0.172262
O O4 0.527208 0.298439 0.969898
O O5 0.791727 0.194368 0.941414
O O6 0.097271 0.265856 0.882533
O O7 0.000000 0.000000 0.977252
O O8 0.024977 0.255711 0.089705
O O9 0.154190 0.356979 0.273450
O O10 0.184754 0.044604 0.217307
O O11 0.500000 0.000000 0.928485
O O12 0.500000 0.000000 0.267091
#
# Coordination Sequence:
#
# PCOD9541536 Si02
#       5
#     4   4   4   4   4
#     4  11  24  42  67  97 137 182 230 289 350 405
#     4  11  23  41  69  98 130 177 231 285 343 411
#     4  10  24  43  67  98 136 185 232 279 345 419
#     4  11  25  45  68  99 139 180 228 287 348 416
#     4   9  21  43  64  92 135 180 227 284 345 413
#
# _framework density 23.374302
#
# number of rings (size 3 to 8) (size 9 to 14) (size 15 to 20)
#    0.000    1.600    0.000    4.200    0.000   17.600 
#    0.000    0.000    0.000    0.000    0.000    0.000 
#    0.000    0.000    0.000    0.000    0.000    0.000 
#
# Total GULP energy -111419.527280 kJ/mol
# GULP energy per Si atom -5570.976364 kJ/mol
# Density = 2.332110 g / cm^3
# Si number density = 23.374302 Si / 1000 Ang^3
#
#
#
# Elastic Constant Matrix: (Units=GPa)
#
#
# Indices 1 2 3 4 5 6 
#
# 1 52.8808 12.8909 46.4411 0.0000 0.0000 -3.0270
# 2 12.8909 52.8808 46.4411 0.0000 0.0000 3.0270
# 3 46.4411 46.4411 168.5660 0.0000 0.0000 0.0000
# 4 0.0000 0.0000 0.0000 3.5903 0.0000 0.0000
# 5 0.0000 0.0000 0.0000 0.0000 3.5903 0.0000
# 6 -3.0270 3.0270 0.0000 0.0000 0.0000 -2.0210
#
#
#
# Elastic Compliance Matrix: (Units=1/GPa)
#
#
# Indices 1 2 3 4 5 6 
#
# 1 0.022636 0.002251 -0.006856 0.000000 0.000000 -0.030531
# 2 0.002251 0.022636 -0.006856 0.000000 0.000000 0.030531
# 3 -0.006856 -0.006856 0.009710 0.000000 0.000000 0.000000
# 4 0.000000 0.000000 0.000000 0.278529 0.000000 0.000000
# 5 0.000000 0.000000 0.000000 0.000000 0.278529 0.000000
# 6 -0.030531 0.030531 0.000000 0.000000 0.000000 -0.403357
#
#
# Mechanical properties :
#
#
# Convention : Reuss Voigt Hill
#
# Bulk Modulus (GPa) = 31.19342 53.98599 42.58971
# Shear Modulus (GPa) = 20.63629 12.26888 16.45258
#
# Velocity S-wave (km/s) = 2.97452 2.29353 2.65594
# Velocity P-wave (km/s) = 5.01709 5.49182 5.25982
#
# Compressibility (1/GPa) = 0.03205804
#
# Stress axis : x y z
#
# Youngs Moduli (GPa) = 44.17829 44.17829 102.98216
#
# Poissons Ratio (x) = -0.09946 0.70610
# Poissons Ratio (y) = -0.09946 0.70610
# Poissons Ratio (z) = 0.30291 0.30291
#
# Static dielectric constant tensor:
#      x y z
#    x 2.339340 0.000000 0.000000 
#    y 0.000000 2.339340 0.000000 
#    z 0.000000 0.000000 1.970760 
# 
# From -- ./inp_files/776.got.cif
#   From: 2010.05.17/outbox.cif.g08.bks.cpg/sg77_cif.got.tgz:776.got - 2010.06.03 18:44:51.
