data_PCOD9541721
_publ_section_title
;
Structure prediction by ZEFSAII (Michael W. Deem and Ramdas Pophale) SiO2 
 PCOD9541721
Probable space group: P 43
;
_chemical_formula_sum "Si O2"
_cell_formula_units_Z 28
_cell_length_a 14.307073
_cell_length_b 14.307073
_cell_length_c 6.275199
_cell_angle_alpha 90.000000
_cell_angle_beta 90.000000
_cell_angle_gamma 90.000000
_cell_volume 1284.485154
_symmetry_space_group_name_H-M "P 43"
_symmetry_group_IT_number 78
_symmetry_cell_setting 'tetragonal'
loop_
_space_group_symop_operation_xyz
x,y,z
-y,x,3/4+z
-x,-y,1/2+z
y,-x,1/4+z
loop_
_atom_site_type_symbol
_atom_site_label
_atom_site_fract_x
_atom_site_fract_y
_atom_site_fract_z
Si Si1 0.745788 0.093770 0.225020
Si Si2 0.109636 0.596243 0.457149
Si Si3 0.114250 0.747637 0.805690
Si Si4 0.908868 0.569556 0.276980
Si Si5 0.634321 0.208847 0.886624
Si Si6 0.368881 0.481840 0.242188
Si Si7 0.740091 0.357887 0.604064
O O1 0.839299 0.150675 0.279795
O O2 0.667281 0.107644 0.405991
O O3 0.754189 0.983369 0.181484
O O4 0.705497 0.144656 0.014400
O O5 0.094574 0.693402 0.584422
O O6 0.122778 0.515150 0.630023
O O7 0.194988 0.608932 0.299104
O O8 0.018634 0.566849 0.324969
O O9 0.192369 0.683711 0.924480
O O10 0.857611 0.566485 0.503401
O O11 0.680489 0.274390 0.707647
O O12 0.582716 0.280300 0.045526
O O13 0.450070 0.413193 0.164559
O O14 0.328798 0.554258 0.061060
#
# Coordination Sequence:
#
# PCOD9541721 Si02
#       7
#     4   4   4   4   4   4   4
#     4  12  25  45  71 102 142 190 243 297 367 429
#     4  12  25  41  70 102 138 177 231 295 354 430
#     4  12  25  45  71 102 142 190 243 297 367 429
#     4  12  25  41  70 102 138 177 231 295 354 430
#     4  11  23  45  68  99 134 181 235 290 353 428
#     4  10  24  44  64  92 136 176 226 280 348 428
#     4  11  23  45  68  99 134 181 235 290 353 428
#
# _framework density 21.798618000000001
#
# number of rings (size 3 to 8) (size 9 to 14) (size 15 to 20)
#    0.000    0.571    5.714    2.571    2.000    1.143 
#   10.286    2.857    0.000    0.000    0.000    0.000 
#    0.000    0.000    0.000    0.000    0.000    0.000 
#
# Total GULP energy -156617.080956 kJ/mol
# GULP energy per Si atom -5593.467177 kJ/mol
# Density = 2.174900 g / cm^3
# Si number density = 21.798618 Si / 1000 Ang^3
#
#
#
# Elastic Constant Matrix: (Units=GPa)
#
#
# Indices 1 2 3 4 5 6 
#
# 1 83.9713 23.7623 9.4512 0.0000 0.0000 3.0156
# 2 23.7623 83.9713 9.4512 0.0000 0.0000 -3.0156
# 3 9.4512 9.4512 31.4813 0.0000 0.0000 0.0000
# 4 0.0000 0.0000 0.0000 33.7892 0.0000 0.0000
# 5 0.0000 0.0000 0.0000 0.0000 33.7892 0.0000
# 6 3.0156 -3.0156 0.0000 0.0000 0.0000 41.2181
#
#
#
# Elastic Compliance Matrix: (Units=1/GPa)
#
#
# Indices 1 2 3 4 5 6 
#
# 1 0.013265 -0.003467 -0.002942 0.000000 0.000000 -0.001224
# 2 -0.003467 0.013265 -0.002942 0.000000 0.000000 0.001224
# 3 -0.002942 -0.002942 0.033531 0.000000 0.000000 0.000000
# 4 0.000000 0.000000 0.000000 0.029595 0.000000 0.000000
# 5 0.000000 0.000000 0.000000 0.000000 0.029595 0.000000
# 6 -0.001224 0.001224 0.000000 0.000000 0.000000 0.024440
#
#
# Mechanical properties :
#
#
# Convention : Reuss Voigt Hill
#
# Bulk Modulus (GPa) = 24.17725 31.63927 27.90826
# Shear Modulus (GPa) = 28.38034 32.20991 30.29513
#
# Velocity S-wave (km/s) = 3.61215 3.84814 3.73201
# Velocity P-wave (km/s) = 5.33967 5.85578 5.60367
#
# Compressibility (1/GPa) = 0.04136120
#
# Stress axis : x y z
#
# Youngs Moduli (GPa) = 75.38716 75.38716 29.82307
#
# Poissons Ratio (x) = 0.26134 0.08773
# Poissons Ratio (y) = 0.26134 0.08773
# Poissons Ratio (z) = 0.22176 0.22176
#
# Static dielectric constant tensor:
#      x y z
#    x 1.811110 0.000000 0.000000 
#    y 0.000000 1.811110 0.000000 
#    z 0.000000 0.000000 1.784550 
# 
# From -- ./inp_files/253.got.cif
#   From: 2010.05.17/outbox.cif.g08.bks.cpg/sg78_cif.got.tgz:253.got - 2010.06.03 18:45:56.
