data_PCOD9541972
_publ_section_title
;
Structure prediction by ZEFSAII (Michael W. Deem and Ramdas Pophale) SiO2 
 PCOD9541972
Probable space group: I 4
;
_chemical_formula_sum "Si O2"
_cell_formula_units_Z 56
_cell_length_a 13.774706
_cell_length_b 13.774706
_cell_length_c 13.813604
_cell_angle_alpha 90.000000
_cell_angle_beta 90.000000
_cell_angle_gamma 90.000000
_cell_volume 2621.028108
_symmetry_space_group_name_H-M "I 4"
_symmetry_group_IT_number 79
_symmetry_cell_setting 'tetragonal'
loop_
_space_group_symop_operation_xyz
x,y,z
-y,x,z
-x,-y,z
y,-x,z
1/2+x,1/2+y,1/2+z
1/2-y,1/2+x,1/2+z
1/2-x,1/2-y,1/2+z
1/2+y,1/2-x,1/2+z
loop_
_atom_site_type_symbol
_atom_site_label
_atom_site_fract_x
_atom_site_fract_y
_atom_site_fract_z
Si Si1 0.839735 0.968693 0.666690
Si Si2 0.170557 0.772615 0.519645
Si Si3 0.772615 0.829443 0.185238
Si Si4 0.647092 0.889661 0.352442
Si Si5 0.401404 0.251503 0.852442
Si Si6 0.047796 0.703607 0.852442
Si Si7 0.968693 0.160265 0.038193
O O1 0.782228 0.933384 0.572165
O O2 0.770777 0.963041 0.758689
O O3 0.927115 0.890342 0.667791
O O4 0.250000 0.750000 0.602442
O O5 0.167774 0.682720 0.446704
O O6 0.191721 0.865037 0.449112
O O7 0.682720 0.832226 0.258180
O O8 0.865037 0.808279 0.255772
O O9 0.782228 0.933384 0.132719
O O10 0.531274 0.882957 0.352442
O O11 0.710084 0.989100 0.352442
O O12 0.337906 0.154687 0.852442
O O13 0.036959 0.770777 0.946194
O O14 0.072885 0.109658 0.037092
#
# Coordination Sequence:
#
# PCOD9541972 Si02
#       7
#     8   8   8   8   8   8   8
#     4  11  23  39  66  98 128 168 224 281 331 386
#     4  11  22  43  67  91 128 178 222 273 331 393
#     4  11  22  43  67  91 128 178 222 273 331 393
#     4  11  26  40  65  96 133 174 217 275 329 404
#     4  11  24  44  65  96 133 182 221 266 337 402
#     4  12  23  41  64  94 138 170 220 270 334 399
#     4  11  23  39  66  98 128 168 224 281 331 386
#
# _framework density 21.365660999999999
#
# number of rings (size 3 to 8) (size 9 to 14) (size 15 to 20)
#    0.000    0.857    2.857    4.714    4.000    1.143 
#    0.000    0.000    6.286    6.857    0.000    0.000 
#    0.000    0.000    0.000    0.000    0.000    0.000 
#
# Total GULP energy -156420.437628 kJ/mol
# GULP energy per Si atom -5586.444201 kJ/mol
# Density = 2.131703 g / cm^3
# Si number density = 21.365661 Si / 1000 Ang^3
#
#
#
# Elastic Constant Matrix: (Units=GPa)
#
#
# Indices 1 2 3 4 5 6 
#
# 1 71.8033 -8.5730 33.8410 0.0000 0.0000 -7.6028
# 2 -8.5730 71.8033 33.8410 0.0000 0.0000 7.6028
# 3 33.8410 33.8410 152.9209 0.0000 0.0000 0.0000
# 4 0.0000 0.0000 0.0000 -51.7594 0.0000 0.0000
# 5 0.0000 0.0000 0.0000 0.0000 -51.7594 0.0000
# 6 -7.6028 7.6028 0.0000 0.0000 0.0000 37.1863
#
#
#
# Elastic Compliance Matrix: (Units=1/GPa)
#
#
# Indices 1 2 3 4 5 6 
#
# 1 0.016833 0.003891 -0.004586 0.000000 0.000000 0.002646
# 2 0.003891 0.016833 -0.004586 0.000000 0.000000 -0.002646
# 3 -0.004586 -0.004586 0.008569 0.000000 0.000000 0.000000
# 4 0.000000 0.000000 0.000000 -0.019320 0.000000 0.000000
# 5 0.000000 0.000000 0.000000 0.000000 -0.019320 0.000000
# 6 0.002646 -0.002646 0.000000 0.000000 0.000000 0.027974
#
#
# Mechanical properties :
#
#
# Convention : Reuss Voigt Hill
#
# Bulk Modulus (GPa) = 31.57277 46.08286 38.82781
# Shear Modulus (GPa) = 94.89608 2.56138 48.72873
#
# Velocity S-wave (km/s) = 6.67171 1.09610 4.78085
# Velocity P-wave (km/s) = 8.61152 4.81844 6.97767
#
# Compressibility (1/GPa) = 0.03167286
#
# Stress axis : x y z
#
# Youngs Moduli (GPa) = 59.40641 59.40640 116.69723
#
# Poissons Ratio (x) = -0.23116 0.53520
# Poissons Ratio (y) = -0.23116 0.53520
# Poissons Ratio (z) = 0.27245 0.27245
#
# Static dielectric constant tensor:
#      x y z
#    x 1.774630 0.000000 0.000000 
#    y 0.000000 1.774630 0.000000 
#    z 0.000000 0.000000 1.844550 
# 
# From -- ./inp_files/1142.got.cif
#   From: 2010.05.17/outbox.cif.g08.bks.cpg/sg79_cif.got.tgz:1142.got - 2010.06.03 18:47:27.
