data_PCOD9541715
_publ_section_title
;
Structure prediction by ZEFSAII (Michael W. Deem and Ramdas Pophale) SiO2 
 PCOD9541715
Probable space group: P 43
;
_chemical_formula_sum "Si O2"
_cell_formula_units_Z 28
_cell_length_a 8.102891
_cell_length_b 8.102891
_cell_length_c 16.674015
_cell_angle_alpha 90.000000
_cell_angle_beta 90.000000
_cell_angle_gamma 90.000000
_cell_volume 1094.763178
_symmetry_space_group_name_H-M "P 43"
_symmetry_group_IT_number 78
_symmetry_cell_setting 'tetragonal'
loop_
_space_group_symop_operation_xyz
x,y,z
-y,x,3/4+z
-x,-y,1/2+z
y,-x,1/4+z
loop_
_atom_site_type_symbol
_atom_site_label
_atom_site_fract_x
_atom_site_fract_y
_atom_site_fract_z
Si Si1 0.624207 0.911032 0.975990
Si Si2 0.716324 0.938130 0.801116
Si Si3 0.517287 0.641345 0.371148
Si Si4 0.108793 0.969472 0.800507
Si Si5 0.754139 0.564375 0.794951
Si Si6 0.175088 0.492409 0.950651
Si Si7 0.261961 0.835833 0.949779
O O1 0.654900 0.995942 0.888681
O O2 0.456181 0.806896 0.961041
O O3 0.804946 0.836432 0.998410
O O4 0.575556 0.047912 0.042891
O O5 0.913315 0.940604 0.806504
O O6 0.675697 0.745711 0.794987
O O7 0.637984 0.036011 0.726108
O O8 0.512640 0.724256 0.457750
O O9 0.349268 0.534737 0.360763
O O10 0.692228 0.550819 0.382568
O O11 0.519314 0.739064 0.288207
O O12 0.226354 0.960460 0.877421
O O13 0.102111 0.161657 0.775583
O O14 0.141384 0.681683 0.929415
#
# Coordination Sequence:
#
# PCOD9541715 Si02
#       7
#     4   4   4   4   4   4   4
#     4  11  24  47  73 108 149 198 251 308 389 454
#     4  11  23  45  71 104 147 188 247 314 372 458
#     4  10  23  44  66 105 137 183 249 299 366 451
#     4  11  27  48  74 114 152 198 259 316 386 460
#     4  10  23  43  72 102 143 191 238 308 375 445
#     4  11  25  44  71 104 142 192 247 305 378 449
#     4  12  27  47  77 105 152 202 251 320 380 461
#
# _framework density 25.576308000000001
#
# number of rings (size 3 to 8) (size 9 to 14) (size 15 to 20)
#    0.000    1.143    2.857    1.714    6.000    2.286 
#    5.143    0.000    0.000    0.000    0.000    0.000 
#    0.000    0.000    0.000    0.000    0.000    0.000 
#
# Total GULP energy -156094.389776 kJ/mol
# GULP energy per Si atom -5574.799635 kJ/mol
# Density = 2.551809 g / cm^3
# Si number density = 25.576308 Si / 1000 Ang^3
#
#
#
# Elastic Constant Matrix: (Units=GPa)
#
#
# Indices 1 2 3 4 5 6 
#
# 1 60.8292 2.5545 -3.8426 0.0000 0.0000 1.7642
# 2 2.5545 60.8292 -3.8426 0.0000 0.0000 -1.7642
# 3 -3.8426 -3.8426 60.1141 0.0000 0.0000 0.0000
# 4 0.0000 0.0000 0.0000 22.4808 0.0000 0.0000
# 5 0.0000 0.0000 0.0000 0.0000 22.4808 0.0000
# 6 1.7642 -1.7642 0.0000 0.0000 0.0000 29.0199
#
#
#
# Elastic Compliance Matrix: (Units=1/GPa)
#
#
# Indices 1 2 3 4 5 6 
#
# 1 0.016562 -0.000662 0.001016 0.000000 0.000000 -0.001047
# 2 -0.000662 0.016562 0.001016 0.000000 0.000000 0.001047
# 3 0.001016 0.001016 0.016765 0.000000 0.000000 0.000000
# 4 0.000000 0.000000 0.000000 0.044482 0.000000 0.000000
# 5 0.000000 0.000000 0.000000 0.000000 0.044482 0.000000
# 6 -0.001047 0.001047 0.000000 0.000000 0.000000 0.034586
#
#
# Mechanical properties :
#
#
# Convention : Reuss Voigt Hill
#
# Bulk Modulus (GPa) = 19.00028 19.05677 19.02853
# Shear Modulus (GPa) = 26.56167 27.25653 26.90910
#
# Velocity S-wave (km/s) = 3.22611 3.26804 3.24714
# Velocity P-wave (km/s) = 4.61758 4.65910 4.63839
#
# Compressibility (1/GPa) = 0.05263079
#
# Stress axis : x y z
#
# Youngs Moduli (GPa) = 60.37975 60.37975 59.64820
#
# Poissons Ratio (x) = 0.03995 -0.06063
# Poissons Ratio (y) = 0.03995 -0.06063
# Poissons Ratio (z) = -0.06137 -0.06137
#
# Static dielectric constant tensor:
#      x y z
#    x 2.112670 0.000000 0.000000 
#    y 0.000000 2.112670 0.000000 
#    z 0.000000 0.000000 2.111780 
# 
# From -- ./inp_files/1286.got.cif
#   From: 2010.05.17/outbox.cif.g08.bks.cpg/sg78_cif.got.tgz:1286.got - 2010.06.03 18:45:56.
