data_PCOD9541950
_publ_section_title
;
Structure prediction by ZEFSAII (Michael W. Deem and Ramdas Pophale) SiO2 
 PCOD9541950
Probable space group: I 4
;
_chemical_formula_sum "Si O2"
_cell_formula_units_Z 48
_cell_length_a 20.010310
_cell_length_b 20.010310
_cell_length_c 6.562333
_cell_angle_alpha 90.000000
_cell_angle_beta 90.000000
_cell_angle_gamma 90.000000
_cell_volume 2627.640204
_symmetry_space_group_name_H-M "I 4"
_symmetry_group_IT_number 79
_symmetry_cell_setting 'tetragonal'
loop_
_space_group_symop_operation_xyz
x,y,z
-y,x,z
-x,-y,z
y,-x,z
1/2+x,1/2+y,1/2+z
1/2-y,1/2+x,1/2+z
1/2-x,1/2-y,1/2+z
1/2+y,1/2-x,1/2+z
loop_
_atom_site_type_symbol
_atom_site_label
_atom_site_fract_x
_atom_site_fract_y
_atom_site_fract_z
Si Si1 0.822582 0.227808 0.506110
Si Si2 0.179698 0.316571 0.658908
Si Si3 0.736125 0.586415 0.396092
Si Si4 0.149063 0.877044 0.151040
Si Si5 0.895959 0.038642 0.495860
Si Si6 0.269709 0.563892 0.288036
O O1 0.748530 0.223636 0.597150
O O2 0.835770 0.295542 0.383713
O O3 0.875156 0.220968 0.686408
O O4 0.827977 0.169091 0.339483
O O5 0.203139 0.374494 0.507095
O O6 0.105173 0.288024 0.672947
O O7 0.669783 0.595673 0.534889
O O8 0.751244 0.509664 0.355679
O O9 0.123298 0.943957 0.262027
O O10 0.205256 0.894965 0.985860
O O11 0.834390 0.055950 0.642376
O O12 0.962134 0.083012 0.531990
#
# Coordination Sequence:
#
# PCOD9541950 Si02
#       6
#     8   8   8   8   8   8
#     4  11  19  37  60  85 114 151 195 246 305 348
#     4  11  21  37  60  85 117 152 197 256 310 357
#     4  11  24  38  59  91 119 155 207 253 309 368
#     4  11  20  36  56  82 117 160 195 246 291 354
#     4  11  23  36  53  82 124 172 207 235 285 362
#     4  12  23  38  58  84 121 159 202 252 308 362
#
# _framework density 18.267340999999998
#
# number of rings (size 3 to 8) (size 9 to 14) (size 15 to 20)
#    0.000    0.833    5.000    4.000    0.000    1.333 
#    0.000    1.667    0.000    0.000    0.000    3.500 
#    0.000    0.000    0.000    0.000    0.000    0.000 
#
# Total GULP energy -134027.198353 kJ/mol
# GULP energy per Si atom -5584.466598 kJ/mol
# Density = 1.822576 g / cm^3
# Si number density = 18.267341 Si / 1000 Ang^3
#
#
#
# Elastic Constant Matrix: (Units=GPa)
#
#
# Indices 1 2 3 4 5 6 
#
# 1 103.3607 51.5599 38.4688 0.0000 0.0000 0.3818
# 2 51.5599 103.3607 38.4688 0.0000 0.0000 -0.3818
# 3 38.4688 38.4688 93.9139 0.0000 0.0000 0.0000
# 4 0.0000 0.0000 0.0000 25.4915 0.0000 0.0000
# 5 0.0000 0.0000 0.0000 0.0000 25.4915 0.0000
# 6 0.3818 -0.3818 0.0000 0.0000 0.0000 28.1062
#
#
#
# Elastic Compliance Matrix: (Units=1/GPa)
#
#
# Indices 1 2 3 4 5 6 
#
# 1 0.013706 -0.005603 -0.003319 0.000000 0.000000 -0.000262
# 2 -0.005603 0.013706 -0.003319 0.000000 0.000000 0.000262
# 3 -0.003319 -0.003319 0.013367 0.000000 0.000000 0.000000
# 4 0.000000 0.000000 0.000000 0.039229 0.000000 0.000000
# 5 0.000000 0.000000 0.000000 0.000000 0.039229 0.000000
# 6 -0.000262 0.000262 0.000000 0.000000 0.000000 0.035587
#
#
# Mechanical properties :
#
#
# Convention : Reuss Voigt Hill
#
# Bulk Modulus (GPa) = 61.36125 61.95889 61.66007
# Shear Modulus (GPa) = 27.06538 27.29370 27.17954
#
# Velocity S-wave (km/s) = 3.85337 3.86959 3.86148
# Velocity P-wave (km/s) = 7.31174 7.34550 7.32864
#
# Compressibility (1/GPa) = 0.01629693
#
# Stress axis : x y z
#
# Youngs Moduli (GPa) = 72.96089 72.96089 74.80931
#
# Poissons Ratio (x) = 0.40877 0.24831
# Poissons Ratio (y) = 0.40877 0.24831
# Poissons Ratio (z) = 0.24218 0.24218
#
# Static dielectric constant tensor:
#      x y z
#    x 1.648570 0.000000 0.000000 
#    y 0.000000 1.648570 0.000000 
#    z 0.000000 0.000000 1.660710 
# 
# From -- ./inp_files/216.got.cif
#   From: 2010.05.17/outbox.cif.g08.bks.cpg/sg79_cif.got.tgz:216.got - 2010.06.03 18:47:27.
