data_PCOD9541699
_publ_section_title
;
Structure prediction by ZEFSAII (Michael W. Deem and Ramdas Pophale) SiO2 
 PCOD9541699
Probable space group: P 43
;
_chemical_formula_sum "Si O2"
_cell_formula_units_Z 24
_cell_length_a 8.002777
_cell_length_b 8.002777
_cell_length_c 17.596659
_cell_angle_alpha 90.000000
_cell_angle_beta 90.000000
_cell_angle_gamma 90.000000
_cell_volume 1126.968166
_symmetry_space_group_name_H-M "P 43"
_symmetry_group_IT_number 78
_symmetry_cell_setting 'tetragonal'
loop_
_space_group_symop_operation_xyz
x,y,z
-y,x,3/4+z
-x,-y,1/2+z
y,-x,1/4+z
loop_
_atom_site_type_symbol
_atom_site_label
_atom_site_fract_x
_atom_site_fract_y
_atom_site_fract_z
Si Si1 0.980947 0.496512 0.381990
Si Si2 0.555937 0.515217 0.942202
Si Si3 0.132359 0.003467 0.626803
Si Si4 0.630318 0.737173 0.547619
Si Si5 0.693588 0.674361 0.087475
Si Si6 0.994233 0.817228 0.489292
O O1 0.022230 0.313237 0.415446
O O2 0.094997 0.523582 0.307925
O O3 0.792082 0.470518 0.352434
O O4 0.012306 0.648782 0.439395
O O5 0.644445 0.407640 0.876972
O O6 0.463918 0.672325 0.902794
O O7 0.429150 0.390932 0.984084
O O8 0.675863 0.583264 0.007805
O O9 0.115081 0.869970 0.558535
O O10 0.156390 0.193444 0.594882
O O11 0.974297 0.999605 0.681810
O O12 0.816486 0.793703 0.530312
#
# Coordination Sequence:
#
# PCOD9541699 Si02
#       6
#     4   4   4   4   4   4
#     4  10  24  41  67 100 141 188 234 299 363 433
#     4  10  22  43  67 100 143 193 242 301 364 440
#     4  10  26  41  74 104 143 189 242 301 369 437
#     4  11  23  41  68 102 141 191 243 300 371 432
#     4   9  22  42  66 100 140 185 245 295 366 430
#     4  12  23  48  70 106 148 188 248 306 369 444
#
# _framework density 21.296075999999999
#
# number of rings (size 3 to 8) (size 9 to 14) (size 15 to 20)
#    1.000    0.667    3.333    0.000    7.000    0.000 
#    3.000    0.000    0.000    0.000    0.000    0.000 
#    0.000    0.000    0.000    0.000    0.000    0.000 
#
# Total GULP energy -133749.158096 kJ/mol
# GULP energy per Si atom -5572.881587 kJ/mol
# Density = 2.124761 g / cm^3
# Si number density = 21.296076 Si / 1000 Ang^3
#
#
#
# Elastic Constant Matrix: (Units=GPa)
#
#
# Indices 1 2 3 4 5 6 
#
# 1 101.0646 8.5669 34.1850 0.0000 0.0000 3.8623
# 2 8.5669 101.0646 34.1850 0.0000 0.0000 -3.8623
# 3 34.1850 34.1850 100.4403 0.0000 0.0000 0.0000
# 4 0.0000 0.0000 0.0000 26.8845 0.0000 0.0000
# 5 0.0000 0.0000 0.0000 0.0000 26.8845 0.0000
# 6 3.8623 -3.8623 0.0000 0.0000 0.0000 49.2394
#
#
#
# Elastic Compliance Matrix: (Units=1/GPa)
#
#
# Indices 1 2 3 4 5 6 
#
# 1 0.011231 0.000348 -0.003941 0.000000 0.000000 -0.000854
# 2 0.000348 0.011231 -0.003941 0.000000 0.000000 0.000854
# 3 -0.003941 -0.003941 0.012639 0.000000 0.000000 0.000000
# 4 0.000000 0.000000 0.000000 0.037196 0.000000 0.000000
# 5 0.000000 0.000000 0.000000 0.000000 0.037196 0.000000
# 6 -0.000854 0.000854 0.000000 0.000000 0.000000 0.020443
#
#
# Mechanical properties :
#
#
# Convention : Reuss Voigt Hill
#
# Bulk Modulus (GPa) = 49.91705 50.71591 50.31648
# Shear Modulus (GPa) = 32.96401 35.64383 34.30392
#
# Velocity S-wave (km/s) = 3.93859 4.09556 4.01784
# Velocity P-wave (km/s) = 6.64634 6.79935 6.72328
#
# Compressibility (1/GPa) = 0.02003324
#
# Stress axis : x y z
#
# Youngs Moduli (GPa) = 89.04093 89.04093 79.12133
#
# Poissons Ratio (x) = -0.03102 0.31182
# Poissons Ratio (y) = -0.03102 0.31182
# Poissons Ratio (z) = 0.35091 0.35091
#
# Static dielectric constant tensor:
#      x y z
#    x 1.814300 0.000000 0.000000 
#    y 0.000000 1.814300 0.000000 
#    z 0.000000 0.000000 1.759750 
# 
# From -- ./inp_files/1245.got.cif
#   From: 2010.05.17/outbox.cif.g08.bks.cpg/sg78_cif.got.tgz:1245.got - 2010.06.03 18:45:56.
