data_PCOD9541757
_publ_section_title
;
Structure prediction by ZEFSAII (Michael W. Deem and Ramdas Pophale) SiO2 
 PCOD9541757
Probable space group: P 43
;
_chemical_formula_sum "Si O2"
_cell_formula_units_Z 20
_cell_length_a 13.341862
_cell_length_b 13.341862
_cell_length_c 4.836612
_cell_angle_alpha 90.000000
_cell_angle_beta 90.000000
_cell_angle_gamma 90.000000
_cell_volume 860.942481
_symmetry_space_group_name_H-M "P 43"
_symmetry_group_IT_number 78
_symmetry_cell_setting 'tetragonal'
loop_
_space_group_symop_operation_xyz
x,y,z
-y,x,3/4+z
-x,-y,1/2+z
y,-x,1/4+z
loop_
_atom_site_type_symbol
_atom_site_label
_atom_site_fract_x
_atom_site_fract_y
_atom_site_fract_z
Si Si1 0.367942 0.418038 0.789090
Si Si2 0.638455 0.243082 0.027726
Si Si3 0.552342 0.041965 0.128037
Si Si4 0.142727 0.831882 0.605254
Si Si5 0.767539 0.974022 0.330663
O O1 0.467458 0.382676 0.632905
O O2 0.278620 0.391397 0.582807
O O3 0.337881 0.367768 0.077023
O O4 0.562878 0.150164 0.981324
O O5 0.749301 0.199960 0.994949
O O6 0.470991 0.032633 0.373110
O O7 0.656964 0.019085 0.287285
O O8 0.122801 0.772349 0.886924
O O9 0.154453 0.947117 0.696824
O O10 0.057901 0.802049 0.384684
#
# Coordination Sequence:
#
# PCOD9541757 Si02
#       5
#     4   4   4   4   4
#     4  12  25  43  65  94 131 172 219 273 328 391
#     4  11  25  42  65  96 130 170 220 271 328 397
#     4  11  24  42  65  96 131 170 219 274 332 397
#     4  11  24  43  65  96 130 171 219 271 331 393
#     4  11  24  42  66  94 132 171 217 273 327 396
#
# _framework density 23.230356
#
# number of rings (size 3 to 8) (size 9 to 14) (size 15 to 20)
#    0.000    0.800    0.000    7.200    0.000   17.600 
#    0.000    0.000    0.000    0.000    0.000    0.000 
#    0.000    0.000    0.000    0.000    0.000    0.000 
#
# Total GULP energy -111775.690872 kJ/mol
# GULP energy per Si atom -5588.784544 kJ/mol
# Density = 2.317748 g / cm^3
# Si number density = 23.230356 Si / 1000 Ang^3
#
#
#
# Elastic Constant Matrix: (Units=GPa)
#
#
# Indices 1 2 3 4 5 6 
#
# 1 60.3337 18.1169 16.1254 0.0000 0.0000 -32.9937
# 2 18.1169 60.3337 16.1254 0.0000 0.0000 32.9937
# 3 16.1254 16.1254 122.6784 0.0000 0.0000 0.0000
# 4 0.0000 0.0000 0.0000 35.3114 0.0000 0.0000
# 5 0.0000 0.0000 0.0000 0.0000 35.3114 0.0000
# 6 -32.9937 32.9937 0.0000 0.0000 0.0000 64.4830
#
#
#
# Elastic Compliance Matrix: (Units=1/GPa)
#
#
# Indices 1 2 3 4 5 6 
#
# 1 0.065886 -0.052411 -0.001771 0.000000 0.000000 0.060528
# 2 -0.052411 0.065886 -0.001771 0.000000 0.000000 -0.060528
# 3 -0.001771 -0.001771 0.008617 0.000000 0.000000 0.000000
# 4 0.000000 0.000000 0.000000 0.028319 0.000000 0.000000
# 5 0.000000 0.000000 0.000000 0.000000 0.028319 0.000000
# 6 0.060528 -0.060528 0.000000 0.000000 0.000000 0.077448
#
#
# Mechanical properties :
#
#
# Convention : Reuss Voigt Hill
#
# Bulk Modulus (GPa) = 35.10963 38.23123 36.67043
# Shear Modulus (GPa) = 12.63022 39.88634 26.25828
#
# Velocity S-wave (km/s) = 2.33426 4.14816 3.36571
# Velocity P-wave (km/s) = 4.73408 6.27982 5.56092
#
# Compressibility (1/GPa) = 0.02848222
#
# Stress axis : x y z
#
# Youngs Moduli (GPa) = 15.17780 15.17780 116.04927
#
# Poissons Ratio (x) = 0.79548 0.20555
# Poissons Ratio (y) = 0.79548 0.20555
# Poissons Ratio (z) = 0.02688 0.02688
#
# Static dielectric constant tensor:
#      x y z
#    x 1.947380 0.000000 0.000000 
#    y 0.000000 1.947380 0.000000 
#    z 0.000000 0.000000 1.828030 
# 
# From -- ./inp_files/154.got.cif
#   From: 2010.05.17/outbox.cif.g08.bks.cpg/sg78_cif.got.tgz:154.got - 2010.06.03 18:45:56.
