data_PCOD9541990
_publ_section_title
;
Structure prediction by ZEFSAII (Michael W. Deem and Ramdas Pophale) SiO2 
 PCOD9541990
Probable space group: I 4
;
_chemical_formula_sum "Si O2"
_cell_formula_units_Z 40
_cell_length_a 8.344528
_cell_length_b 8.344528
_cell_length_c 26.192387
_cell_angle_alpha 90.000000
_cell_angle_beta 90.000000
_cell_angle_gamma 90.000000
_cell_volume 1823.805964
_symmetry_space_group_name_H-M "I 4"
_symmetry_group_IT_number 79
_symmetry_cell_setting 'tetragonal'
loop_
_space_group_symop_operation_xyz
x,y,z
-y,x,z
-x,-y,z
y,-x,z
1/2+x,1/2+y,1/2+z
1/2-y,1/2+x,1/2+z
1/2-x,1/2-y,1/2+z
1/2+y,1/2-x,1/2+z
loop_
_atom_site_type_symbol
_atom_site_label
_atom_site_fract_x
_atom_site_fract_y
_atom_site_fract_z
Si Si1 0.920507 0.739830 0.676100
Si Si2 0.443747 0.233606 0.362018
Si Si3 0.500015 0.231403 0.474127
Si Si4 0.766392 0.556272 0.586236
Si Si5 0.420512 0.760171 0.772159
O O1 0.888400 0.632127 0.626362
O O2 0.867063 0.632930 0.724128
O O3 0.101187 0.807332 0.677267
O O4 0.616189 0.319537 0.355576
O O5 0.465716 0.159525 0.418608
O O6 0.367885 0.111592 0.321895
O O7 0.652133 0.347884 0.474128
O O8 0.534322 0.159520 0.529646
O O9 0.616178 0.680473 0.592676
O O10 0.307335 0.601190 0.770994
#
# Coordination Sequence:
#
# PCOD9541990 Si02
#       5
#     8   8   8   8   8
#     4  11  24  39  56  84 122 161 202 251 305 361
#     4   9  17  32  58  86 114 149 193 245 296 352
#     4   7  12  26  52  81 108 139 182 233 282 333
#     4   9  17  32  58  86 114 149 193 245 296 352
#     4  11  24  39  56  84 122 161 202 251 305 361
#
# _framework density 21.932158000000001
#
# number of rings (size 3 to 8) (size 9 to 14) (size 15 to 20)
#    0.000    2.600    0.000    4.800    0.000    8.800 
#    0.000    0.000    0.000   50.400    0.000   25.200 
#    0.000    0.000    0.000    0.000    0.000    0.000 
#
# Total GULP energy -111341.144407 kJ/mol
# GULP energy per Si atom -5567.057220 kJ/mol
# Density = 2.188224 g / cm^3
# Si number density = 21.932158 Si / 1000 Ang^3
#
#
#
# Elastic Constant Matrix: (Units=GPa)
#
#
# Indices 1 2 3 4 5 6 
#
# 1 113.4973 77.3326 69.0423 0.0000 0.0000 0.0009
# 2 77.3326 113.4973 69.0423 0.0000 0.0000 -0.0009
# 3 69.0423 69.0423 212.5941 0.0000 0.0000 0.0000
# 4 0.0000 0.0000 0.0000 -19.6552 0.0000 0.0000
# 5 0.0000 0.0000 0.0000 0.0000 -19.6552 0.0000
# 6 0.0009 -0.0009 0.0000 0.0000 0.0000 42.5611
#
#
#
# Elastic Compliance Matrix: (Units=1/GPa)
#
#
# Indices 1 2 3 4 5 6 
#
# 1 0.017251 -0.010401 -0.002225 0.000000 0.000000 -0.000001
# 2 -0.010401 0.017251 -0.002225 0.000000 0.000000 0.000001
# 3 -0.002225 -0.002225 0.006149 0.000000 0.000000 0.000000
# 4 0.000000 0.000000 0.000000 -0.050877 0.000000 0.000000
# 5 0.000000 0.000000 0.000000 0.000000 -0.050877 0.000000
# 6 -0.000001 0.000001 0.000000 0.000000 0.000000 0.023496
#
#
# Mechanical properties :
#
#
# Convention : Reuss Voigt Hill
#
# Bulk Modulus (GPa) = 91.32186 96.71368 94.01777
# Shear Modulus (GPa) = -1174.05198 15.59490 -579.22854
#
# Velocity S-wave (km/s) = -23.16188 2.66945 -16.26879
# Velocity P-wave (km/s) = 25.95320 7.32760 17.60504
#
# Compressibility (1/GPa) = 0.01095028
#
# Stress axis : x y z
#
# Youngs Moduli (GPa) = 57.96888 57.96889 162.63501
#
# Poissons Ratio (x) = 0.60291 0.36180
# Poissons Ratio (y) = 0.60291 0.36180
# Poissons Ratio (z) = 0.12896 0.12896
#
# Static dielectric constant tensor:
#      x y z
#    x 1.871730 0.000000 0.000000 
#    y 0.000000 1.871730 0.000000 
#    z 0.000000 0.000000 1.871810 
# 
# From -- ./inp_files/1898.got.cif
#   From: 2010.05.17/outbox.cif.g08.bks.cpg/sg79_cif.got.tgz:1898.got - 2010.06.03 18:47:27.
