data_PCOD9541939
_publ_section_title
;
Structure prediction by ZEFSAII (Michael W. Deem and Ramdas Pophale) SiO2 
 PCOD9541939
Probable space group: I 4
;
_chemical_formula_sum "Si O2"
_cell_formula_units_Z 60
_cell_length_a 16.423738
_cell_length_b 16.423738
_cell_length_c 9.257637
_cell_angle_alpha 90.000000
_cell_angle_beta 90.000000
_cell_angle_gamma 90.000000
_cell_volume 2497.147320
_symmetry_space_group_name_H-M "I 4"
_symmetry_group_IT_number 79
_symmetry_cell_setting 'tetragonal'
loop_
_space_group_symop_operation_xyz
x,y,z
-y,x,z
-x,-y,z
y,-x,z
1/2+x,1/2+y,1/2+z
1/2-y,1/2+x,1/2+z
1/2-x,1/2-y,1/2+z
1/2+y,1/2-x,1/2+z
loop_
_atom_site_type_symbol
_atom_site_label
_atom_site_fract_x
_atom_site_fract_y
_atom_site_fract_z
Si Si1 0.008331 0.313021 0.870420
Si Si2 0.500000 0.000000 0.959989
Si Si3 0.287655 0.487620 0.852379
Si Si4 0.274702 0.826338 0.033121
Si Si5 0.597125 0.591971 0.266720
Si Si6 0.347006 0.334429 0.989505
Si Si7 0.662507 0.952094 0.578020
Si Si8 0.194397 0.094230 0.052777
O O1 0.996809 0.289712 0.703918
O O2 0.093747 0.278313 0.930840
O O3 0.003740 0.411529 0.882837
O O4 0.934665 0.272948 0.961124
O O5 0.502977 0.078378 0.060091
O O6 0.349436 0.427328 0.932943
O O7 0.292581 0.578750 0.908867
O O8 0.304040 0.468914 0.685474
O O9 0.202344 0.455983 0.918959
O O10 0.357382 0.842883 0.124002
O O11 0.187484 0.811391 0.107177
O O12 0.292396 0.739264 0.957987
O O13 0.503256 0.609591 0.235714
O O14 0.622187 0.594721 0.434936
O O15 0.646470 0.652461 0.162288
#
# Coordination Sequence:
#
# PCOD9541939 Si02
#       8
#     8   4   8   8   8   8   8   8
#     4  11  25  48  76 109 150 199 260 312 389 462
#     4  10  24  46  74 110 146 198 254 336 376 446
#     4  11  27  43  70 106 154 191 247 313 383 450
#     4  10  26  46  74 112 146 197 259 314 384 463
#     4  11  24  46  76 105 138 197 251 304 373 467
#     4  11  24  47  73 106 145 199 254 313 380 462
#     4  10  24  48  74 109 147 198 257 313 384 465
#     4  12  27  45  70 110 156 193 246 321 380 459
#
# _framework density 24.027418000000001
#
# number of rings (size 3 to 8) (size 9 to 14) (size 15 to 20)
#    0.000    1.200    1.333    2.800    7.467    9.867 
#    0.000    0.000    0.000    0.000    0.000    0.000 
#    0.000    0.000    0.000    0.000    0.000    0.000 
#
# Total GULP energy -167442.885745 kJ/mol
# GULP energy per Si atom -5581.429525 kJ/mol
# Density = 2.397273 g / cm^3
# Si number density = 24.027418 Si / 1000 Ang^3
#
#
#
# Elastic Constant Matrix: (Units=GPa)
#
#
# Indices 1 2 3 4 5 6 
#
# 1 109.1284 32.2290 26.1868 0.0000 0.0000 5.4231
# 2 32.2290 109.1284 26.1868 0.0000 0.0000 -5.4231
# 3 26.1868 26.1868 126.5461 0.0000 0.0000 0.0000
# 4 0.0000 0.0000 0.0000 4.1915 0.0000 0.0000
# 5 0.0000 0.0000 0.0000 0.0000 4.1915 0.0000
# 6 5.4231 -5.4231 0.0000 0.0000 0.0000 36.1787
#
#
#
# Elastic Compliance Matrix: (Units=1/GPa)
#
#
# Indices 1 2 3 4 5 6 
#
# 1 0.010473 -0.002812 -0.001585 0.000000 0.000000 -0.001991
# 2 -0.002812 0.010473 -0.001585 0.000000 0.000000 0.001991
# 3 -0.001585 -0.001585 0.008558 0.000000 0.000000 0.000000
# 4 0.000000 0.000000 0.000000 0.238578 0.000000 0.000000
# 5 0.000000 0.000000 0.000000 0.000000 0.238578 0.000000
# 6 -0.001991 0.001991 0.000000 0.000000 0.000000 0.028238
#
#
# Mechanical properties :
#
#
# Convention : Reuss Voigt Hill
#
# Bulk Modulus (GPa) = 57.01272 57.11198 57.06235
# Shear Modulus (GPa) = 9.04632 26.25904 17.65268
#
# Velocity S-wave (km/s) = 1.94247 3.30946 2.71346
# Velocity P-wave (km/s) = 5.36755 6.19875 5.79806
#
# Compressibility (1/GPa) = 0.01753995
#
# Stress axis : x y z
#
# Youngs Moduli (GPa) = 95.48100 95.48100 116.84380
#
# Poissons Ratio (x) = 0.26845 0.18525
# Poissons Ratio (y) = 0.26845 0.18525
# Poissons Ratio (z) = 0.15138 0.15138
#
# Static dielectric constant tensor:
#      x y z
#    x 1.944980 0.000000 0.000000 
#    y 0.000000 1.944980 0.000000 
#    z 0.000000 0.000000 1.978620 
# 
# From -- ./inp_files/752.got.cif
#   From: 2010.05.17/outbox.cif.g08.bks.cpg/sg79_cif.got.tgz:752.got - 2010.06.03 18:47:27.
