data_PCOD9541182
_publ_section_title
;
Structure prediction by ZEFSAII (Michael W. Deem and Ramdas Pophale) SiO2 
 PCOD9541182
Probable space group: P 41
;
_chemical_formula_sum "Si O2"
_cell_formula_units_Z 28
_cell_length_a 15.595538
_cell_length_b 15.595538
_cell_length_c 5.289804
_cell_angle_alpha 90.000000
_cell_angle_beta 90.000000
_cell_angle_gamma 90.000000
_cell_volume 1286.590390
_symmetry_space_group_name_H-M "P 41"
_symmetry_group_IT_number 76
_symmetry_cell_setting 'tetragonal'
loop_
_space_group_symop_operation_xyz
x,y,z
-y,x,1/4+z
-x,-y,1/2+z
y,-x,3/4+z
loop_
_atom_site_type_symbol
_atom_site_label
_atom_site_fract_x
_atom_site_fract_y
_atom_site_fract_z
Si Si1 0.353465 0.181337 0.715230
Si Si2 0.558113 0.947447 0.834165
Si Si3 0.287011 0.798859 0.282444
Si Si4 0.115512 0.044309 0.293630
Si Si5 0.786136 0.111075 0.275021
Si Si6 0.854346 0.526359 0.201068
Si Si7 0.945991 0.275928 0.295020
O O1 0.384833 0.102156 0.541305
O O2 0.299049 0.253105 0.567927
O O3 0.442997 0.199000 0.859981
O O4 0.284586 0.146447 0.918652
O O5 0.487696 0.875984 0.749817
O O6 0.627485 0.963981 0.616533
O O7 0.526778 0.044278 0.873075
O O8 0.245239 0.857521 0.504314
O O9 0.387786 0.811558 0.344856
O O10 0.255071 0.834163 0.010257
O O11 0.105783 0.110571 0.056543
O O12 0.051414 0.084570 0.492562
O O13 0.217511 0.047742 0.295760
O O14 0.756535 0.015576 0.347905
#
# Coordination Sequence:
#
# PCOD9541182 Si02
#       7
#     4   4   4   4   4   4   4
#     4  11  24  41  66  98 138 176 226 286 351 419
#     4  11  21  40  66 100 134 172 227 293 351 406
#     4  12  26  44  67  99 137 176 223 281 351 427
#     4  10  22  40  56  85 128 183 241 279 325 391
#     4  11  24  42  63  94 128 184 226 280 334 399
#     4  11  24  39  67 103 134 176 226 288 357 410
#     4  10  21  40  61  91 129 179 229 285 333 396
#
# _framework density 21.762948000000002
#
# number of rings (size 3 to 8) (size 9 to 14) (size 15 to 20)
#    0.000    1.143    4.286    1.714    6.000    2.286 
#    2.571    0.000    0.000    0.000    3.714    0.000 
#    0.000    0.000    0.000    0.000    0.000    0.000 
#
# Total GULP energy -156090.588100 kJ/mol
# GULP energy per Si atom -5574.663861 kJ/mol
# Density = 2.171341 g / cm^3
# Si number density = 21.762948 Si / 1000 Ang^3
#
#
#
# Elastic Constant Matrix: (Units=GPa)
#
#
# Indices 1 2 3 4 5 6 
#
# 1 103.2701 54.6099 27.5978 0.0000 0.0000 7.7341
# 2 54.6099 103.2701 27.5978 0.0000 0.0000 -7.7341
# 3 27.5978 27.5978 78.0855 0.0000 0.0000 0.0000
# 4 0.0000 0.0000 0.0000 21.0492 0.0000 0.0000
# 5 0.0000 0.0000 0.0000 0.0000 21.0492 0.0000
# 6 7.7341 -7.7341 0.0000 0.0000 0.0000 30.5017
#
#
#
# Elastic Compliance Matrix: (Units=1/GPa)
#
#
# Indices 1 2 3 4 5 6 
#
# 1 0.014790 -0.007563 -0.002554 0.000000 0.000000 -0.005668
# 2 -0.007563 0.014790 -0.002554 0.000000 0.000000 0.005668
# 3 -0.002554 -0.002554 0.014612 0.000000 0.000000 0.000000
# 4 0.000000 0.000000 0.000000 0.047508 0.000000 0.000000
# 5 0.000000 0.000000 0.000000 0.000000 0.047508 0.000000
# 6 -0.005668 0.005668 0.000000 0.000000 0.000000 0.035659
#
#
# Mechanical properties :
#
#
# Convention : Reuss Voigt Hill
#
# Bulk Modulus (GPa) = 53.05348 56.02629 54.53989
# Shear Modulus (GPa) = 24.21409 26.17469 25.19439
#
# Velocity S-wave (km/s) = 3.33923 3.47178 3.40615
# Velocity P-wave (km/s) = 6.26882 6.47077 6.37059
#
# Compressibility (1/GPa) = 0.01884891
#
# Stress axis : x y z
#
# Youngs Moduli (GPa) = 67.61505 67.61505 68.43721
#
# Poissons Ratio (x) = 0.51135 0.17480
# Poissons Ratio (y) = 0.51135 0.17480
# Poissons Ratio (z) = 0.17270 0.17270
#
# Static dielectric constant tensor:
#      x y z
#    x 1.857130 0.000000 0.000000 
#    y 0.000000 1.857130 0.000000 
#    z 0.000000 0.000000 2.013970 
# 
# From -- ./inp_files/232.got.cif
#   From: 2010.05.17/outbox.cif.g08.bks.cpg/sg76_cif.got.tgz:232.got - 2010.06.03 18:43:17.
