data_PCOD9541759
_publ_section_title
;
Structure prediction by ZEFSAII (Michael W. Deem and Ramdas Pophale) SiO2 
 PCOD9541759
Probable space group: P 43
;
_chemical_formula_sum "Si O2"
_cell_formula_units_Z 24
_cell_length_a 9.816133
_cell_length_b 9.816133
_cell_length_c 10.990233
_cell_angle_alpha 90.000000
_cell_angle_beta 90.000000
_cell_angle_gamma 90.000000
_cell_volume 1058.980024
_symmetry_space_group_name_H-M "P 43"
_symmetry_group_IT_number 78
_symmetry_cell_setting 'tetragonal'
loop_
_space_group_symop_operation_xyz
x,y,z
-y,x,3/4+z
-x,-y,1/2+z
y,-x,1/4+z
loop_
_atom_site_type_symbol
_atom_site_label
_atom_site_fract_x
_atom_site_fract_y
_atom_site_fract_z
Si Si1 0.463084 0.143494 0.219960
Si Si2 0.798428 0.663230 0.746941
Si Si3 0.283282 0.920023 0.869359
Si Si4 0.556462 0.176635 0.726771
Si Si5 0.900531 0.986636 0.981273
Si Si6 0.717772 0.779322 0.312760
O O1 0.333059 0.236794 0.248827
O O2 0.552727 0.193919 0.104855
O O3 0.570523 0.138606 0.331877
O O4 0.423441 0.984040 0.199068
O O5 0.798155 0.587255 0.617989
O O6 0.932444 0.759291 0.743341
O O7 0.173247 0.889477 0.763941
O O8 0.296621 0.080802 0.884014
O O9 0.222489 0.856842 0.989269
O O10 0.399542 0.216228 0.711856
O O11 0.651358 0.273888 0.648997
O O12 0.992977 0.046851 0.092155
#
# Coordination Sequence:
#
# PCOD9541759 Si02
#       6
#     4   4   4   4   4   4
#     4  11  27  47  74 108 150 187 248 306 370 444
#     4  12  26  48  74 107 146 195 244 305 374 449
#     4  11  24  46  73 109 146 190 242 311 365 436
#     4  11  27  47  76 107 147 196 241 315 360 453
#     4  12  24  42  76 113 144 189 256 307 374 436
#     4  11  26  48  73 106 151 191 247 302 377 432
#
# _framework density 22.663315999999998
#
# number of rings (size 3 to 8) (size 9 to 14) (size 15 to 20)
#    0.000    0.667    3.333    3.000   11.667    1.333 
#    9.000    0.000    0.000    0.000    0.000    0.000 
#    0.000    0.000    0.000    0.000    0.000    0.000 
#
# Total GULP energy -134293.351775 kJ/mol
# GULP energy per Si atom -5595.556324 kJ/mol
# Density = 2.261173 g / cm^3
# Si number density = 22.663316 Si / 1000 Ang^3
#
#
#
# Elastic Constant Matrix: (Units=GPa)
#
#
# Indices 1 2 3 4 5 6 
#
# 1 89.7233 62.4605 -1.4213 0.0000 0.0000 -3.2034
# 2 62.4605 89.7233 -1.4213 0.0000 0.0000 3.2034
# 3 -1.4213 -1.4213 50.8433 0.0000 0.0000 0.0000
# 4 0.0000 0.0000 0.0000 28.4507 0.0000 0.0000
# 5 0.0000 0.0000 0.0000 0.0000 28.4507 0.0000
# 6 -3.2034 3.2034 0.0000 0.0000 0.0000 39.9981
#
#
#
# Elastic Compliance Matrix: (Units=1/GPa)
#
#
# Indices 1 2 3 4 5 6 
#
# 1 0.021979 -0.015405 0.000184 0.000000 0.000000 0.002994
# 2 -0.015405 0.021979 0.000184 0.000000 0.000000 -0.002994
# 3 0.000184 0.000184 0.019679 0.000000 0.000000 0.000000
# 4 0.000000 0.000000 0.000000 0.035148 0.000000 0.000000
# 5 0.000000 0.000000 0.000000 0.000000 0.035148 0.000000
# 6 0.002994 -0.002994 0.000000 0.000000 0.000000 0.025481
#
#
# Mechanical properties :
#
#
# Convention : Reuss Voigt Hill
#
# Bulk Modulus (GPa) = 29.79508 38.83617 34.31562
# Shear Modulus (GPa) = 24.91581 30.75805 27.83693
#
# Velocity S-wave (km/s) = 3.31930 3.68798 3.50849
# Velocity P-wave (km/s) = 5.27880 5.94208 5.62023
#
# Compressibility (1/GPa) = 0.03356259
#
# Stress axis : x y z
#
# Youngs Moduli (GPa) = 45.49797 45.49797 50.81675
#
# Poissons Ratio (x) = 0.70088 -0.00934
# Poissons Ratio (y) = 0.70088 -0.00934
# Poissons Ratio (z) = -0.00836 -0.00836
#
# Static dielectric constant tensor:
#      x y z
#    x 1.854580 0.000000 0.000000 
#    y 0.000000 1.854580 0.000000 
#    z 0.000000 0.000000 1.857420 
# 
# From -- ./inp_files/854.got.cif
#   From: 2010.05.17/outbox.cif.g08.bks.cpg/sg78_cif.got.tgz:854.got - 2010.06.03 18:45:56.
