data_PCOD9541774
_publ_section_title
;
Structure prediction by ZEFSAII (Michael W. Deem and Ramdas Pophale) SiO2 
 PCOD9541774
Probable space group: P 43
;
_chemical_formula_sum "Si O2"
_cell_formula_units_Z 20
_cell_length_a 7.046650
_cell_length_b 7.046650
_cell_length_c 12.822518
_cell_angle_alpha 90.000000
_cell_angle_beta 90.000000
_cell_angle_gamma 90.000000
_cell_volume 636.705673
_symmetry_space_group_name_H-M "P 43"
_symmetry_group_IT_number 78
_symmetry_cell_setting 'tetragonal'
loop_
_space_group_symop_operation_xyz
x,y,z
-y,x,3/4+z
-x,-y,1/2+z
y,-x,1/4+z
loop_
_atom_site_type_symbol
_atom_site_label
_atom_site_fract_x
_atom_site_fract_y
_atom_site_fract_z
Si Si1 0.588367 0.915524 0.433430
Si Si2 0.769492 0.480702 0.327920
Si Si3 0.243742 0.970918 0.708404
Si Si4 0.047659 0.191806 0.972570
Si Si5 0.423019 0.309046 0.235427
O O1 0.859507 0.295345 0.379570
O O2 0.044927 0.016083 0.447901
O O3 0.308500 0.121775 0.272377
O O4 0.753597 0.880782 0.522446
O O5 0.885594 0.506787 0.222376
O O6 0.837106 0.647483 0.404456
O O7 0.547861 0.449280 0.308345
O O8 0.313004 0.050017 0.821422
O O9 0.393524 0.801573 0.682403
O O10 0.563810 0.252560 0.937722
#
# Coordination Sequence:
#
# PCOD9541774 Si02
#       5
#     4   4   4   4   4
#     4  12  28  51  83 125 173 227 290 359 442 531
#     4  11  28  52  85 127 174 226 290 363 440 529
#     4  11  27  53  84 125 182 234 286 364 448 530
#     4  11  27  53  82 120 172 230 288 359 440 523
#     4  11  28  53  86 125 165 225 294 361 436 525
#
# _framework density 31.411688000000002
#
# number of rings (size 3 to 8) (size 9 to 14) (size 15 to 20)
#    0.000    0.800    0.000    3.600    0.000   28.800 
#    0.000    4.000    0.000    2.400    0.000    0.000 
#    0.000    0.000    0.000    0.000    0.000    0.000 
#
# Total GULP energy -111929.826328 kJ/mol
# GULP energy per Si atom -5596.491316 kJ/mol
# Density = 3.134019 g / cm^3
# Si number density = 31.411688 Si / 1000 Ang^3
#
#
#
# Elastic Constant Matrix: (Units=GPa)
#
#
# Indices 1 2 3 4 5 6 
#
# 1 285.4248 87.5919 54.5221 0.0000 0.0000 21.5031
# 2 87.5919 285.4248 54.5221 0.0000 0.0000 -21.5031
# 3 54.5221 54.5221 99.5037 0.0000 0.0000 0.0000
# 4 0.0000 0.0000 0.0000 52.6613 0.0000 0.0000
# 5 0.0000 0.0000 0.0000 0.0000 52.6613 0.0000
# 6 21.5031 -21.5031 0.0000 0.0000 0.0000 99.8704
#
#
#
# Elastic Compliance Matrix: (Units=1/GPa)
#
#
# Indices 1 2 3 4 5 6 
#
# 1 0.004248 -0.001055 -0.001749 0.000000 0.000000 -0.001142
# 2 -0.001055 0.004248 -0.001749 0.000000 0.000000 0.001142
# 3 -0.001749 -0.001749 0.011967 0.000000 0.000000 0.000000
# 4 0.000000 0.000000 0.000000 0.018989 0.000000 0.000000
# 5 0.000000 0.000000 0.000000 0.000000 0.018989 0.000000
# 6 -0.001142 0.001142 0.000000 0.000000 0.000000 0.010505
#
#
# Mechanical properties :
#
#
# Convention : Reuss Voigt Hill
#
# Bulk Modulus (GPa) = 88.07028 118.18060 103.12544
# Shear Modulus (GPa) = 61.09692 72.61975 66.85833
#
# Velocity S-wave (km/s) = 4.41504 4.81341 4.61852
# Velocity P-wave (km/s) = 7.35448 8.28231 7.83215
#
# Compressibility (1/GPa) = 0.01135457
#
# Stress axis : x y z
#
# Youngs Moduli (GPa) = 235.42859 235.42859 83.56522
#
# Poissons Ratio (x) = 0.24847 0.14617
# Poissons Ratio (y) = 0.24847 0.14617
# Poissons Ratio (z) = 0.41179 0.41179
#
# Static dielectric constant tensor:
#      x y z
#    x 2.445920 0.000000 0.000000 
#    y 0.000000 2.445920 0.000000 
#    z 0.000000 0.000000 2.810240 
# 
# From -- ./inp_files/1202.got.cif
#   From: 2010.05.17/outbox.cif.g08.bks.cpg/sg78_cif.got.tgz:1202.got - 2010.06.03 18:45:56.
