data_PCOD9541376
_publ_section_title
;
Structure prediction by ZEFSAII (Michael W. Deem and Ramdas Pophale) SiO2 
 PCOD9541376
Probable space group: P 41
;
_chemical_formula_sum "Si O2"
_cell_formula_units_Z 28
_cell_length_a 14.509228
_cell_length_b 14.509228
_cell_length_c 6.029085
_cell_angle_alpha 90.000000
_cell_angle_beta 90.000000
_cell_angle_gamma 90.000000
_cell_volume 1269.229090
_symmetry_space_group_name_H-M "P 41"
_symmetry_group_IT_number 76
_symmetry_cell_setting 'tetragonal'
loop_
_space_group_symop_operation_xyz
x,y,z
-y,x,1/4+z
-x,-y,1/2+z
y,-x,3/4+z
loop_
_atom_site_type_symbol
_atom_site_label
_atom_site_fract_x
_atom_site_fract_y
_atom_site_fract_z
Si Si1 0.891475 0.916099 0.657940
Si Si2 0.758774 0.386746 0.462003
Si Si3 0.230300 0.210478 0.886559
Si Si4 0.383760 0.430191 0.406849
Si Si5 0.575264 0.223872 0.008331
Si Si6 0.278718 0.093587 0.481051
Si Si7 0.457998 0.976710 0.414625
O O1 0.853826 0.823250 0.539969
O O2 0.807838 0.933479 0.829847
O O3 0.991679 0.899318 0.761643
O O4 0.794486 0.331476 0.248830
O O5 0.652783 0.359882 0.492966
O O6 0.768881 0.496642 0.448140
O O7 0.817172 0.338272 0.653020
O O8 0.218621 0.317046 0.819976
O O9 0.234350 0.130776 0.704343
O O10 0.477212 0.400167 0.526148
O O11 0.309223 0.440755 0.597420
O O12 0.548866 0.131664 0.880409
O O13 0.356591 0.016102 0.469358
O O14 0.509331 0.988545 0.663154
#
# Coordination Sequence:
#
# PCOD9541376 Si02
#       7
#     4   4   4   4   4   4   4
#     4  11  30  49  79 108 148 194 254 329 402 476
#     4  11  23  47  69 104 151 192 246 312 377 460
#     4  11  26  48  74 112 145 198 251 320 389 466
#     4  12  25  42  69 107 152 200 254 308 383 465
#     4  12  25  43  75 107 145 199 255 314 383 466
#     4  11  26  49  73 108 150 193 253 318 390 473
#     4  12  29  48  77 114 153 204 255 325 396 462
#
# _framework density 22.060635000000001
#
# number of rings (size 3 to 8) (size 9 to 14) (size 15 to 20)
#    0.000    0.571    2.857    3.429   10.000    1.143 
#    0.000    0.000    0.000    0.000    0.000    0.000 
#    0.000    0.000    0.000    0.000    0.000    0.000 
#
# Total GULP energy -156255.526171 kJ/mol
# GULP energy per Si atom -5580.554506 kJ/mol
# Density = 2.201042 g / cm^3
# Si number density = 22.060635 Si / 1000 Ang^3
#
#
#
# Elastic Constant Matrix: (Units=GPa)
#
#
# Indices 1 2 3 4 5 6 
#
# 1 270.0603 -179.4978 12.6532 0.0000 0.0000 -499.3438
# 2 -179.4978 270.0603 12.6532 0.0000 0.0000 499.3438
# 3 12.6532 12.6532 54.6472 0.0000 0.0000 0.0000
# 4 0.0000 0.0000 0.0000 24.9997 0.0000 0.0000
# 5 0.0000 0.0000 0.0000 0.0000 24.9997 0.0000
# 6 -499.3438 499.3438 0.0000 0.0000 0.0000 1609.6267
#
#
#
# Elastic Compliance Matrix: (Units=1/GPa)
#
#
# Indices 1 2 3 4 5 6 
#
# 1 0.009481 0.002325 -0.002734 0.000000 0.000000 0.002220
# 2 0.002325 0.009481 -0.002734 0.000000 0.000000 -0.002220
# 3 -0.002734 -0.002734 0.019565 0.000000 0.000000 0.000000
# 4 0.000000 0.000000 0.000000 0.040000 0.000000 0.000000
# 5 0.000000 0.000000 0.000000 0.000000 0.040000 0.000000
# 6 0.002220 -0.002220 0.000000 0.000000 0.000000 0.001999
#
#
# Mechanical properties :
#
#
# Convention : Reuss Voigt Hill
#
# Bulk Modulus (GPa) = 31.01486 31.82058 31.41772
# Shear Modulus (GPa) = 36.34811 381.85583 209.10197
#
# Velocity S-wave (km/s) = 4.06352 13.17078 9.74633
# Velocity P-wave (km/s) = 6.00880 15.67636 11.87127
#
# Compressibility (1/GPa) = 0.03224261
#
# Stress axis : x y z
#
# Youngs Moduli (GPa) = 105.47400 105.47400 51.11147
#
# Poissons Ratio (x) = -0.24522 0.13972
# Poissons Ratio (y) = -0.24522 0.13972
# Poissons Ratio (z) = 0.28832 0.28832
#
# Static dielectric constant tensor:
#      x y z
#    x 1.792820 0.000000 0.000000 
#    y 0.000000 1.792820 0.000000 
#    z 0.000000 0.000000 1.887420 
# 
# From -- ./inp_files/267.got.cif
#   From: 2010.05.17/outbox.cif.g08.bks.cpg/sg76_cif.got.tgz:267.got - 2010.06.03 18:43:17.
