data_PCOD9541635
_publ_section_title
;
Structure prediction by ZEFSAII (Michael W. Deem and Ramdas Pophale) SiO2 
 PCOD9541635
Probable space group: P 43
;
_chemical_formula_sum "Si O2"
_cell_formula_units_Z 28
_cell_length_a 13.844762
_cell_length_b 13.844762
_cell_length_c 6.417174
_cell_angle_alpha 90.000000
_cell_angle_beta 90.000000
_cell_angle_gamma 90.000000
_cell_volume 1230.027451
_symmetry_space_group_name_H-M "P 43"
_symmetry_group_IT_number 78
_symmetry_cell_setting 'tetragonal'
loop_
_space_group_symop_operation_xyz
x,y,z
-y,x,3/4+z
-x,-y,1/2+z
y,-x,1/4+z
loop_
_atom_site_type_symbol
_atom_site_label
_atom_site_fract_x
_atom_site_fract_y
_atom_site_fract_z
Si Si1 0.113598 0.401258 0.145130
Si Si2 0.754607 0.513104 0.350728
Si Si3 0.112130 0.079025 0.536870
Si Si4 0.509447 0.916720 0.785356
Si Si5 0.162579 0.721043 0.514165
Si Si6 0.678354 0.303271 0.341640
Si Si7 0.219664 0.850628 0.143228
O O1 0.108529 0.417117 0.392840
O O2 0.093561 0.298844 0.034093
O O3 0.219205 0.431471 0.062272
O O4 0.027985 0.475396 0.085651
O O5 0.715270 0.408970 0.401679
O O6 0.696714 0.567057 0.166258
O O7 0.859196 0.504361 0.246745
O O8 0.217034 0.103865 0.438147
O O9 0.030439 0.102779 0.366244
O O10 0.094308 0.146948 0.740220
O O11 0.614152 0.876344 0.711926
O O12 0.270492 0.712838 0.616774
O O13 0.163519 0.783920 0.306531
O O14 0.721817 0.220370 0.489825
#
# Coordination Sequence:
#
# PCOD9541635 Si02
#       7
#     4   4   4   4   4   4   4
#     4  11  22  37  62  96 128 163 209 265 327 396
#     4  10  20  40  62  90 126 164 208 260 316 384
#     4  11  28  44  64  90 130 181 238 280 326 399
#     4  11  22  37  62  96 128 163 209 265 327 396
#     4  10  23  42  64  94 127 170 214 276 336 396
#     4   9  20  40  64  92 124 167 210 266 324 395
#     4  10  23  42  64  94 127 170 214 276 336 396
#
# _framework density 22.763721
#
# number of rings (size 3 to 8) (size 9 to 14) (size 15 to 20)
#    0.000    1.714    1.429    1.714    6.000    0.000 
#    0.000    0.000   15.714    0.000    0.000    0.000 
#    0.000    0.000    0.000    0.000    0.000    0.000 
#
# Total GULP energy -156168.668097 kJ/mol
# GULP energy per Si atom -5577.452432 kJ/mol
# Density = 2.271191 g / cm^3
# Si number density = 22.763721 Si / 1000 Ang^3
#
#
#
# Elastic Constant Matrix: (Units=GPa)
#
#
# Indices 1 2 3 4 5 6 
#
# 1 15.6798 58.4466 17.6835 0.0000 0.0000 125.5524
# 2 58.4466 15.6798 17.6835 0.0000 0.0000 -125.5524
# 3 17.6835 17.6835 35.0109 0.0000 0.0000 0.0000
# 4 0.0000 0.0000 0.0000 34.5583 0.0000 0.0000
# 5 0.0000 0.0000 0.0000 0.0000 34.5583 0.0000
# 6 125.5524 -125.5524 0.0000 0.0000 0.0000 -350.4956
#
#
#
# Elastic Compliance Matrix: (Units=1/GPa)
#
#
# Indices 1 2 3 4 5 6 
#
# 1 0.019484 -0.001710 -0.008977 0.000000 0.000000 0.007592
# 2 -0.001710 0.019484 -0.008977 0.000000 0.000000 -0.007592
# 3 -0.008977 -0.008977 0.037631 0.000000 0.000000 0.000000
# 4 0.000000 0.000000 0.000000 0.028937 0.000000 0.000000
# 5 0.000000 0.000000 0.000000 0.000000 0.028937 0.000000
# 6 0.007592 -0.007592 0.000000 0.000000 0.000000 0.002586
#
#
# Mechanical properties :
#
#
# Convention : Reuss Voigt Hill
#
# Bulk Modulus (GPa) = 26.83161 28.22198 27.52680
# Shear Modulus (GPa) = 26.48148 -58.10534 -15.81193
#
# Velocity S-wave (km/s) = 3.41445 -5.05775 -2.63841
# Velocity P-wave (km/s) = 5.23041 4.65651 1.68436
#
# Compressibility (1/GPa) = 0.03726947
#
# Stress axis : x y z
#
# Youngs Moduli (GPa) = 51.32408 51.32408 26.57381
#
# Poissons Ratio (x) = 0.08778 0.23856
# Poissons Ratio (y) = 0.08778 0.23856
# Poissons Ratio (z) = 0.46075 0.46075
#
# Static dielectric constant tensor:
#      x y z
#    x 1.884500 0.000000 0.000000 
#    y 0.000000 1.884500 0.000000 
#    z 0.000000 0.000000 1.903610 
# 
# From -- ./inp_files/274.got.cif
#   From: 2010.05.17/outbox.cif.g08.bks.cpg/sg78_cif.got.tgz:274.got - 2010.06.03 18:45:56.
