data_PCOD9541651
_publ_section_title
;
Structure prediction by ZEFSAII (Michael W. Deem and Ramdas Pophale) SiO2 
 PCOD9541651
Probable space group: P 43
;
_chemical_formula_sum "Si O2"
_cell_formula_units_Z 24
_cell_length_a 14.807437
_cell_length_b 14.807437
_cell_length_c 5.054072
_cell_angle_alpha 90.000000
_cell_angle_beta 90.000000
_cell_angle_gamma 90.000000
_cell_volume 1108.156790
_symmetry_space_group_name_H-M "P 43"
_symmetry_group_IT_number 78
_symmetry_cell_setting 'tetragonal'
loop_
_space_group_symop_operation_xyz
x,y,z
-y,x,3/4+z
-x,-y,1/2+z
y,-x,1/4+z
loop_
_atom_site_type_symbol
_atom_site_label
_atom_site_fract_x
_atom_site_fract_y
_atom_site_fract_z
Si Si1 0.185807 0.403407 0.919500
Si Si2 0.314878 0.000060 0.356472
Si Si3 0.856551 0.224340 0.777215
Si Si4 0.615267 0.821292 0.119311
Si Si5 0.129792 0.957043 0.450489
Si Si6 0.306557 0.737557 0.644200
O O1 0.183054 0.510976 0.938151
O O2 0.212993 0.357162 0.638615
O O3 0.255421 0.369375 0.140190
O O4 0.087534 0.367565 0.012670
O O5 0.261945 0.047408 0.116762
O O6 0.373275 0.082089 0.472369
O O7 0.231764 0.973510 0.547360
O O8 0.821034 0.301928 0.581444
O O9 0.861650 0.118245 0.711598
O O10 0.788859 0.221942 0.032173
O O11 0.638236 0.729511 0.962164
O O12 0.053843 0.910590 0.626962
#
# Coordination Sequence:
#
# PCOD9541651 Si02
#       6
#     4   4   4   4   4   4
#     4  12  27  44  78 105 144 192 245 300 387 444
#     4  10  24  40  64 103 148 185 243 301 351 437
#     4  10  22  44  65  99 146 188 239 298 358 421
#     4  11  26  44  75 106 147 188 242 315 376 445
#     4  10  21  38  61  97 136 198 241 287 335 426
#     4  11  24  48  69 104 139 189 236 299 375 449
#
# _framework density 21.657584
#
# number of rings (size 3 to 8) (size 9 to 14) (size 15 to 20)
#    0.000    1.333    3.333    0.000   11.667    0.000 
#    6.000    0.000    0.000    2.000    0.000    0.000 
#    0.000    0.000    0.000    0.000    0.000    0.000 
#
# Total GULP energy -133734.637223 kJ/mol
# GULP energy per Si atom -5572.276551 kJ/mol
# Density = 2.160829 g / cm^3
# Si number density = 21.657584 Si / 1000 Ang^3
#
#
#
# Elastic Constant Matrix: (Units=GPa)
#
#
# Indices 1 2 3 4 5 6 
#
# 1 135.7660 32.9207 32.1680 0.0000 0.0000 -0.0726
# 2 32.9207 135.7660 32.1680 0.0000 0.0000 0.0726
# 3 32.1680 32.1680 96.8467 0.0000 0.0000 0.0000
# 4 0.0000 0.0000 0.0000 18.2302 0.0000 0.0000
# 5 0.0000 0.0000 0.0000 0.0000 18.2302 0.0000
# 6 -0.0726 0.0726 0.0000 0.0000 0.0000 26.6590
#
#
#
# Elastic Compliance Matrix: (Units=1/GPa)
#
#
# Indices 1 2 3 4 5 6 
#
# 1 0.008256 -0.001468 -0.002255 0.000000 0.000000 0.000026
# 2 -0.001468 0.008256 -0.002255 0.000000 0.000000 -0.000026
# 3 -0.002255 -0.002255 0.011823 0.000000 0.000000 0.000000
# 4 0.000000 0.000000 0.000000 0.054854 0.000000 0.000000
# 5 0.000000 0.000000 0.000000 0.000000 0.054854 0.000000
# 6 0.000026 -0.000026 0.000000 0.000000 0.000000 0.037511
#
#
# Mechanical properties :
#
#
# Convention : Reuss Voigt Hill
#
# Bulk Modulus (GPa) = 61.04702 62.54354 61.79528
# Shear Modulus (GPa) = 25.91104 30.69869 28.30486
#
# Velocity S-wave (km/s) = 3.46265 3.76900 3.61907
# Velocity P-wave (km/s) = 6.65095 6.91965 6.78663
#
# Compressibility (1/GPa) = 0.01638082
#
# Stress axis : x y z
#
# Youngs Moduli (GPa) = 121.12804 121.12804 84.57803
#
# Poissons Ratio (x) = 0.17777 0.19070
# Poissons Ratio (y) = 0.17777 0.19070
# Poissons Ratio (z) = 0.27311 0.27311
#
# Static dielectric constant tensor:
#      x y z
#    x 1.816440 0.000000 0.000000 
#    y 0.000000 1.816440 0.000000 
#    z 0.000000 0.000000 1.969020 
# 
# From -- ./inp_files/163.got.cif
#   From: 2010.05.17/outbox.cif.g08.bks.cpg/sg78_cif.got.tgz:163.got - 2010.06.03 18:45:56.
