data_PCOD9541261
_publ_section_title
;
Structure prediction by ZEFSAII (Michael W. Deem and Ramdas Pophale) SiO2 
 PCOD9541261
Probable space group: P 41
;
_chemical_formula_sum "Si O2"
_cell_formula_units_Z 24
_cell_length_a 8.948681
_cell_length_b 8.948681
_cell_length_c 11.211017
_cell_angle_alpha 90.000000
_cell_angle_beta 90.000000
_cell_angle_gamma 90.000000
_cell_volume 897.765816
_symmetry_space_group_name_H-M "P 41"
_symmetry_group_IT_number 76
_symmetry_cell_setting 'tetragonal'
loop_
_space_group_symop_operation_xyz
x,y,z
-y,x,1/4+z
-x,-y,1/2+z
y,-x,3/4+z
loop_
_atom_site_type_symbol
_atom_site_label
_atom_site_fract_x
_atom_site_fract_y
_atom_site_fract_z
Si Si1 0.620815 0.968764 0.122390
Si Si2 0.490298 0.289703 0.086451
Si Si3 0.641004 0.227508 0.499978
Si Si4 0.545639 0.776589 0.334420
Si Si5 0.823766 0.774522 0.987594
Si Si6 0.095467 0.935899 0.890810
O O1 0.497985 0.865723 0.051709
O O2 0.626843 0.893697 0.251170
O O3 0.767266 0.925451 0.048440
O O4 0.573437 0.139976 0.131295
O O5 0.379494 0.370181 0.176395
O O6 0.613082 0.406970 0.040193
O O7 0.405459 0.227545 0.970671
O O8 0.734756 0.267855 0.619163
O O9 0.738767 0.118832 0.417941
O O10 0.368898 0.809919 0.322839
O O11 0.989507 0.799808 0.938923
O O12 0.057127 0.942363 0.748366
#
# Coordination Sequence:
#
# PCOD9541261 Si02
#       6
#     4   4   4   4   4   4
#     4  11  26  47  70 101 147 190 226 296 372 427
#     4  12  27  43  73 112 140 185 244 307 350 430
#     4  10  24  44  72  98 138 188 237 284 364 435
#     4  11  26  45  70 108 143 179 248 299 354 429
#     4  10  23  45  72  93 139 197 224 282 372 437
#     4  10  22  46  75 106 141 193 245 296 370 444
#
# _framework density 26.733028000000001
#
# number of rings (size 3 to 8) (size 9 to 14) (size 15 to 20)
#    0.000    1.333    1.667    3.000   11.667    0.000 
#   12.000    0.000    0.000    0.000    0.000    0.000 
#    0.000    0.000    0.000    0.000    0.000    0.000 
#
# Total GULP energy -134336.006157 kJ/mol
# GULP energy per Si atom -5597.333590 kJ/mol
# Density = 2.667218 g / cm^3
# Si number density = 26.733028 Si / 1000 Ang^3
#
#
#
# Elastic Constant Matrix: (Units=GPa)
#
#
# Indices 1 2 3 4 5 6 
#
# 1 83.3881 25.7094 17.4807 0.0000 0.0000 5.4175
# 2 25.7094 83.3881 17.4807 0.0000 0.0000 -5.4175
# 3 17.4807 17.4807 115.6851 0.0000 0.0000 0.0000
# 4 0.0000 0.0000 0.0000 41.2214 0.0000 0.0000
# 5 0.0000 0.0000 0.0000 0.0000 41.2214 0.0000
# 6 5.4175 -5.4175 0.0000 0.0000 0.0000 34.5231
#
#
#
# Elastic Compliance Matrix: (Units=1/GPa)
#
#
# Indices 1 2 3 4 5 6 
#
# 1 0.013748 -0.004116 -0.001456 0.000000 0.000000 -0.002803
# 2 -0.004116 0.013748 -0.001456 0.000000 0.000000 0.002803
# 3 -0.001456 -0.001456 0.009084 0.000000 0.000000 0.000000
# 4 0.000000 0.000000 0.000000 0.024259 0.000000 0.000000
# 5 0.000000 0.000000 0.000000 0.000000 0.024259 0.000000
# 6 -0.002803 0.002803 0.000000 0.000000 0.000000 0.029846
#
#
# Mechanical properties :
#
#
# Convention : Reuss Voigt Hill
#
# Bulk Modulus (GPa) = 44.39117 44.86698 44.62907
# Shear Modulus (GPa) = 36.62798 38.17920 37.40359
#
# Velocity S-wave (km/s) = 3.70556 3.78321 3.74458
# Velocity P-wave (km/s) = 5.91182 5.99194 5.95201
#
# Compressibility (1/GPa) = 0.02252700
#
# Stress axis : x y z
#
# Youngs Moduli (GPa) = 72.73632 72.73632 110.08321
#
# Poissons Ratio (x) = 0.29936 0.16023
# Poissons Ratio (y) = 0.29936 0.16023
# Poissons Ratio (z) = 0.10587 0.10587
#
# Static dielectric constant tensor:
#      x y z
#    x 2.097470 0.000000 0.000000 
#    y 0.000000 2.097470 0.000000 
#    z 0.000000 0.000000 2.106050 
# 
# From -- ./inp_files/843.got.cif
#   From: 2010.05.17/outbox.cif.g08.bks.cpg/sg76_cif.got.tgz:843.got - 2010.06.03 18:43:17.
