data_PCOD9541765
_publ_section_title
;
Structure prediction by ZEFSAII (Michael W. Deem and Ramdas Pophale) SiO2 
 PCOD9541765
Probable space group: P 43
;
_chemical_formula_sum "Si O2"
_cell_formula_units_Z 24
_cell_length_a 13.486535
_cell_length_b 13.486535
_cell_length_c 5.886281
_cell_angle_alpha 90.000000
_cell_angle_beta 90.000000
_cell_angle_gamma 90.000000
_cell_volume 1070.635793
_symmetry_space_group_name_H-M "P 43"
_symmetry_group_IT_number 78
_symmetry_cell_setting 'tetragonal'
loop_
_space_group_symop_operation_xyz
x,y,z
-y,x,3/4+z
-x,-y,1/2+z
y,-x,1/4+z
loop_
_atom_site_type_symbol
_atom_site_label
_atom_site_fract_x
_atom_site_fract_y
_atom_site_fract_z
Si Si1 0.606180 0.245968 0.888780
Si Si2 0.465086 0.364213 0.621424
Si Si3 0.050312 0.517741 0.159220
Si Si4 0.840488 0.772257 0.354405
Si Si5 0.279511 0.069200 0.095999
Si Si6 0.306844 0.216079 0.468120
O O1 0.533930 0.336696 0.836571
O O2 0.669184 0.214166 0.666838
O O3 0.546101 0.148649 0.956985
O O4 0.691152 0.276929 0.060231
O O5 0.543074 0.394737 0.427257
O O6 0.404380 0.262736 0.582461
O O7 0.074944 0.634612 0.157905
O O8 0.987903 0.506607 0.400275
O O9 0.809154 0.857507 0.529883
O O10 0.789209 0.803393 0.121280
O O11 0.956749 0.754525 0.361645
O O12 0.325978 0.117805 0.322109
#
# Coordination Sequence:
#
# PCOD9541765 Si02
#       6
#     4   4   4   4   4   4
#     4  11  25  42  67 103 147 198 249 314 377 454
#     4  12  25  42  68 106 153 205 258 309 395 471
#     4  12  27  45  80 113 150 198 265 317 387 461
#     4  11  24  51  69 108 148 195 256 321 394 456
#     4  11  27  45  77 109 146 202 254 324 393 463
#     4  11  26  45  73  99 156 192 252 321 382 467
#
# _framework density 22.416588000000001
#
# number of rings (size 3 to 8) (size 9 to 14) (size 15 to 20)
#    0.000    0.667    3.333    3.000    9.333    2.667 
#    3.000    0.000    0.000    0.000    0.000    0.000 
#    0.000    0.000    0.000    0.000    0.000    0.000 
#
# Total GULP energy -134084.828146 kJ/mol
# GULP energy per Si atom -5586.867839 kJ/mol
# Density = 2.236557 g / cm^3
# Si number density = 22.416588 Si / 1000 Ang^3
#
#
#
# Elastic Constant Matrix: (Units=GPa)
#
#
# Indices 1 2 3 4 5 6 
#
# 1 101.6700 27.3169 23.9492 0.0000 0.0000 -5.5503
# 2 27.3169 101.6700 23.9492 0.0000 0.0000 5.5503
# 3 23.9492 23.9492 75.0416 0.0000 0.0000 0.0000
# 4 0.0000 0.0000 0.0000 31.3585 0.0000 0.0000
# 5 0.0000 0.0000 0.0000 0.0000 31.3585 0.0000
# 6 -5.5503 5.5503 0.0000 0.0000 0.0000 36.9305
#
#
#
# Elastic Compliance Matrix: (Units=1/GPa)
#
#
# Indices 1 2 3 4 5 6 
#
# 1 0.011277 -0.002482 -0.002807 0.000000 0.000000 0.002068
# 2 -0.002482 0.011277 -0.002807 0.000000 0.000000 -0.002068
# 3 -0.002807 -0.002807 0.015118 0.000000 0.000000 0.000000
# 4 0.000000 0.000000 0.000000 0.031889 0.000000 0.000000
# 5 0.000000 0.000000 0.000000 0.000000 0.031889 0.000000
# 6 0.002068 -0.002068 0.000000 0.000000 0.000000 0.027699
#
#
# Mechanical properties :
#
#
# Convention : Reuss Voigt Hill
#
# Bulk Modulus (GPa) = 46.55480 47.64579 47.10030
# Shear Modulus (GPa) = 32.78704 33.47390 33.13047
#
# Velocity S-wave (km/s) = 3.82858 3.86847 3.84857
# Velocity P-wave (km/s) = 6.35272 6.42295 6.38793
#
# Compressibility (1/GPa) = 0.02148006
#
# Stress axis : x y z
#
# Youngs Moduli (GPa) = 88.67962 88.67962 66.14829
#
# Poissons Ratio (x) = 0.22006 0.18567
# Poissons Ratio (y) = 0.22006 0.18567
# Poissons Ratio (z) = 0.24891 0.24891
#
# Static dielectric constant tensor:
#      x y z
#    x 1.804420 0.000000 0.000000 
#    y 0.000000 1.804420 0.000000 
#    z 0.000000 0.000000 1.930100 
# 
# From -- ./inp_files/172.got.cif
#   From: 2010.05.17/outbox.cif.g08.bks.cpg/sg78_cif.got.tgz:172.got - 2010.06.03 18:45:56.
