data_PCOD9541713
_publ_section_title
;
Structure prediction by ZEFSAII (Michael W. Deem and Ramdas Pophale) SiO2 
 PCOD9541713
Probable space group: P 43
;
_chemical_formula_sum "Si O2"
_cell_formula_units_Z 24
_cell_length_a 10.819741
_cell_length_b 10.819741
_cell_length_c 8.773942
_cell_angle_alpha 90.000000
_cell_angle_beta 90.000000
_cell_angle_gamma 90.000000
_cell_volume 1027.137272
_symmetry_space_group_name_H-M "P 43"
_symmetry_group_IT_number 78
_symmetry_cell_setting 'tetragonal'
loop_
_space_group_symop_operation_xyz
x,y,z
-y,x,3/4+z
-x,-y,1/2+z
y,-x,1/4+z
loop_
_atom_site_type_symbol
_atom_site_label
_atom_site_fract_x
_atom_site_fract_y
_atom_site_fract_z
Si Si1 0.865643 0.328346 0.105260
Si Si2 0.393371 0.729493 0.114925
Si Si3 0.077192 0.386964 0.610112
Si Si4 0.193904 0.540677 0.156798
Si Si5 0.712416 0.119258 0.039074
Si Si6 0.606065 0.424163 0.148814
O O1 0.990140 0.294864 0.197047
O O2 0.888915 0.471211 0.056386
O O3 0.827843 0.209350 0.004373
O O4 0.730032 0.345232 0.186276
O O5 0.349511 0.836630 0.000957
O O6 0.289278 0.648139 0.194036
O O7 0.455209 0.633120 0.000396
O O8 0.083973 0.297164 0.466665
O O9 0.939801 0.400768 0.670158
O O10 0.213866 0.489108 0.985123
O O11 0.195431 0.414195 0.252566
O O12 0.475439 0.387418 0.225510
#
# Coordination Sequence:
#
# PCOD9541713 Si02
#       6
#     4   4   4   4   4   4
#     4  10  23  42  66  98 133 174 228 273 343 406
#     4  11  23  40  64  99 137 171 225 284 337 422
#     4  10  23  42  71  93 134 181 219 283 347 411
#     4  11  24  42  65 102 136 176 226 278 352 409
#     4  11  25  42  73  94 134 182 224 287 334 414
#     4  11  22  36  61  96 136 170 214 273 339 406
#
# _framework density 23.365915000000001
#
# number of rings (size 3 to 8) (size 9 to 14) (size 15 to 20)
#    0.000    1.333    1.667    5.000    9.333    0.000 
#    0.000    0.000    7.333    0.000    0.000    0.000 
#    0.000    0.000    0.000    0.000    0.000    0.000 
#
# Total GULP energy -133933.425296 kJ/mol
# GULP energy per Si atom -5580.559387 kJ/mol
# Density = 2.331273 g / cm^3
# Si number density = 23.365915 Si / 1000 Ang^3
#
#
#
# Elastic Constant Matrix: (Units=GPa)
#
#
# Indices 1 2 3 4 5 6 
#
# 1 93.3981 60.6189 17.3276 0.0000 0.0000 -9.8915
# 2 60.6189 93.3981 17.3276 0.0000 0.0000 9.8915
# 3 17.3276 17.3276 81.9951 0.0000 0.0000 0.0000
# 4 0.0000 0.0000 0.0000 20.2865 0.0000 0.0000
# 5 0.0000 0.0000 0.0000 0.0000 20.2865 0.0000
# 6 -9.8915 9.8915 0.0000 0.0000 0.0000 29.6033
#
#
#
# Elastic Compliance Matrix: (Units=1/GPa)
#
#
# Indices 1 2 3 4 5 6 
#
# 1 0.022515 -0.015698 -0.001441 0.000000 0.000000 0.012768
# 2 -0.015698 0.022515 -0.001441 0.000000 0.000000 -0.012768
# 3 -0.001441 -0.001441 0.012805 0.000000 0.000000 0.000000
# 4 0.000000 0.000000 0.000000 0.049294 0.000000 0.000000
# 5 0.000000 0.000000 0.000000 0.000000 0.049294 0.000000
# 6 0.012768 -0.012768 0.000000 0.000000 0.000000 0.042313
#
#
# Mechanical properties :
#
#
# Convention : Reuss Voigt Hill
#
# Bulk Modulus (GPa) = 48.36471 51.03772 49.70122
# Shear Modulus (GPa) = 20.59429 25.60309 23.09869
#
# Velocity S-wave (km/s) = 2.97203 3.31380 3.14755
# Velocity P-wave (km/s) = 5.70272 6.04416 5.87592
#
# Compressibility (1/GPa) = 0.02067623
#
# Stress axis : x y z
#
# Youngs Moduli (GPa) = 44.41470 44.41470 78.09627
#
# Poissons Ratio (x) = 0.69723 0.11250
# Poissons Ratio (y) = 0.69723 0.11250
# Poissons Ratio (z) = 0.06398 0.06398
#
# Static dielectric constant tensor:
#      x y z
#    x 1.937520 0.000000 0.000000 
#    y 0.000000 1.937520 0.000000 
#    z 0.000000 0.000000 1.914720 
# 
# From -- ./inp_files/881.got.cif
#   From: 2010.05.17/outbox.cif.g08.bks.cpg/sg78_cif.got.tgz:881.got - 2010.06.03 18:45:56.
