data_PCOD9541544
_publ_section_title
;
Structure prediction by ZEFSAII (Michael W. Deem and Ramdas Pophale) SiO2 
 PCOD9541544
Probable space group: P 42
;
_chemical_formula_sum "Si O2"
_cell_formula_units_Z 14
_cell_length_a 5.278994
_cell_length_b 5.278994
_cell_length_c 20.259199
_cell_angle_alpha 90.000000
_cell_angle_beta 90.000000
_cell_angle_gamma 90.000000
_cell_volume 564.578853
_symmetry_space_group_name_H-M "P 42"
_symmetry_group_IT_number 77
_symmetry_cell_setting 'tetragonal'
loop_
_space_group_symop_operation_xyz
x,y,z
-y,x,1/2+z
-x,-y,z
y,-x,1/2+z
loop_
_atom_site_type_symbol
_atom_site_label
_atom_site_fract_x
_atom_site_fract_y
_atom_site_fract_z
Si Si1 0.250570 0.826751 0.682020
Si Si2 0.500000 0.500000 0.428109
Si Si3 0.827762 0.748384 0.040092
Si Si4 0.258954 0.160783 0.327789
O O1 0.239281 0.686392 0.611435
O O2 0.242818 0.688719 0.752111
O O3 0.500000 0.000000 0.684973
O O4 0.000000 0.000000 0.681156
O O5 0.324877 0.660718 0.478052
O O6 0.288177 0.385406 0.379062
O O7 0.000000 0.500000 0.047023
O O8 0.000000 0.000000 0.031022
O O9 0.500000 0.000000 0.349164
O O10 0.000000 0.000000 0.330728
#
# Coordination Sequence:
#
# PCOD9541544 Si02
#       4
#     4   2   4   4
#     4   9  21  47  77 105 145 196 260 325 378 455
#     4  12  28  46  78 112 160 206 252 314 410 478
#     4  10  24  49  73 107 150 196 258 317 384 463
#     4  11  28  49  74 109 152 198 257 319 389 467
#
# _framework density 24.797242000000001
#
# number of rings (size 3 to 8) (size 9 to 14) (size 15 to 20)
#    0.000    1.714    0.000    0.857    8.000    9.143 
#   15.429    0.000    0.000    0.000    0.000    0.000 
#    0.000    0.000    0.000    0.000    0.000    0.000 
#
# Total GULP energy -78243.419379 kJ/mol
# GULP energy per Si atom -5588.815670 kJ/mol
# Density = 2.474080 g / cm^3
# Si number density = 24.797242 Si / 1000 Ang^3
#
#
#
# Elastic Constant Matrix: (Units=GPa)
#
#
# Indices 1 2 3 4 5 6 
#
# 1 115.2141 32.9917 41.0504 0.0000 0.0000 -0.7904
# 2 32.9917 115.2141 41.0504 0.0000 0.0000 0.7904
# 3 41.0504 41.0504 257.4394 0.0000 0.0000 0.0000
# 4 0.0000 0.0000 0.0000 61.3576 0.0000 0.0000
# 5 0.0000 0.0000 0.0000 0.0000 61.3576 0.0000
# 6 -0.7904 0.7904 0.0000 0.0000 0.0000 37.9037
#
#
#
# Elastic Compliance Matrix: (Units=1/GPa)
#
#
# Indices 1 2 3 4 5 6 
#
# 1 0.009784 -0.002383 -0.001180 0.000000 0.000000 0.000254
# 2 -0.002383 0.009784 -0.001180 0.000000 0.000000 -0.000254
# 3 -0.001180 -0.001180 0.004261 0.000000 0.000000 0.000000
# 4 0.000000 0.000000 0.000000 0.016298 0.000000 0.000000
# 5 0.000000 0.000000 0.000000 0.000000 0.016298 0.000000
# 6 0.000254 -0.000254 0.000000 0.000000 0.000000 0.026393
#
#
# Mechanical properties :
#
#
# Convention : Reuss Voigt Hill
#
# Bulk Modulus (GPa) = 69.72326 79.78364 74.75345
# Shear Modulus (GPa) = 51.50111 56.97546 54.23828
#
# Velocity S-wave (km/s) = 4.56223 4.79858 4.68190
# Velocity P-wave (km/s) = 7.47866 7.93386 7.70962
#
# Compressibility (1/GPa) = 0.01434242
#
# Stress axis : x y z
#
# Youngs Moduli (GPa) = 102.20687 102.20687 234.69890
#
# Poissons Ratio (x) = 0.24355 0.27698
# Poissons Ratio (y) = 0.24355 0.27698
# Poissons Ratio (z) = 0.12062 0.12062
#
# Static dielectric constant tensor:
#      x y z
#    x 1.021360 0.000000 0.000000 
#    y 0.000000 1.021360 0.000000 
#    z 0.000000 0.000000 1.993600 
# 
# From -- ./inp_files/1427.got.cif
#   From: 2010.05.17/outbox.cif.g08.bks.cpg/sg77_cif.got.tgz:1427.got - 2010.06.03 18:44:51.
