data_PCOD9541404
_publ_section_title
;
Structure prediction by ZEFSAII (Michael W. Deem and Ramdas Pophale) SiO2 
 PCOD9541404
Probable space group: P 41
;
_chemical_formula_sum "Si O2"
_cell_formula_units_Z 28
_cell_length_a 9.026607
_cell_length_b 9.026607
_cell_length_c 14.817085
_cell_angle_alpha 90.000000
_cell_angle_beta 90.000000
_cell_angle_gamma 90.000000
_cell_volume 1207.290662
_symmetry_space_group_name_H-M "P 41"
_symmetry_group_IT_number 76
_symmetry_cell_setting 'tetragonal'
loop_
_space_group_symop_operation_xyz
x,y,z
-y,x,1/4+z
-x,-y,1/2+z
y,-x,3/4+z
loop_
_atom_site_type_symbol
_atom_site_label
_atom_site_fract_x
_atom_site_fract_y
_atom_site_fract_z
Si Si1 0.607010 0.355795 0.010610
Si Si2 0.191315 0.801188 0.653690
Si Si3 0.282707 0.343417 0.081405
Si Si4 0.931859 0.182212 0.774275
Si Si5 0.154921 0.874896 0.972338
Si Si6 0.780855 0.599137 0.066874
Si Si7 0.100558 0.629543 0.108517
O O1 0.743708 0.288019 0.068198
O O2 0.458531 0.355839 0.070142
O O3 0.672301 0.519170 0.996735
O O4 0.565132 0.275515 0.918121
O O5 0.309258 0.785818 0.733232
O O6 0.030446 0.763887 0.697619
O O7 0.176001 0.961749 0.609461
O O8 0.233377 0.204822 0.142311
O O9 0.211061 0.493458 0.119610
O O10 0.773012 0.233593 0.806498
O O11 0.972533 0.301134 0.698227
O O12 0.916446 0.018200 0.731889
O O13 0.178975 0.770671 0.060052
O O14 0.956188 0.570860 0.054148
#
# Coordination Sequence:
#
# PCOD9541404 Si02
#       7
#     4   4   4   4   4   4   4
#     4  12  26  48  68 106 144 197 239 296 369 445
#     4  12  24  45  76 102 143 190 242 306 367 434
#     4  12  27  45  73 106 149 192 246 301 369 449
#     4  11  25  46  73 105 146 186 246 308 367 431
#     4  11  25  44  75 105 141 186 241 305 360 431
#     4  11  26  45  72 101 146 190 243 298 367 442
#     4  11  25  49  69 111 143 189 249 300 365 438
#
# _framework density 23.192428
#
# number of rings (size 3 to 8) (size 9 to 14) (size 15 to 20)
#    0.000    0.571    2.857    5.143    6.000    0.000 
#    0.000    0.000    0.000    0.000    0.000    0.000 
#    0.000    0.000    0.000    0.000    0.000    0.000 
#
# Total GULP energy -156423.890258 kJ/mol
# GULP energy per Si atom -5586.567509 kJ/mol
# Density = 2.313964 g / cm^3
# Si number density = 23.192428 Si / 1000 Ang^3
#
#
#
# Elastic Constant Matrix: (Units=GPa)
#
#
# Indices 1 2 3 4 5 6 
#
# 1 76.3626 40.7413 -9.1554 0.0000 0.0000 3.9766
# 2 40.7413 76.3626 -9.1554 0.0000 0.0000 -3.9766
# 3 -9.1554 -9.1554 22.6075 0.0000 0.0000 0.0000
# 4 0.0000 0.0000 0.0000 31.9638 0.0000 0.0000
# 5 0.0000 0.0000 0.0000 0.0000 31.9638 0.0000
# 6 3.9766 -3.9766 0.0000 0.0000 0.0000 30.6079
#
#
#
# Elastic Compliance Matrix: (Units=1/GPa)
#
#
# Indices 1 2 3 4 5 6 
#
# 1 0.019014 -0.009897 0.003692 0.000000 0.000000 -0.003756
# 2 -0.009897 0.019014 0.003692 0.000000 0.000000 0.003756
# 3 0.003692 0.003692 0.047223 0.000000 0.000000 0.000000
# 4 0.000000 0.000000 0.000000 0.031285 0.000000 0.000000
# 5 0.000000 0.000000 0.000000 0.000000 0.031285 0.000000
# 6 -0.003756 0.003756 0.000000 0.000000 0.000000 0.033647
#
#
# Mechanical properties :
#
#
# Convention : Reuss Voigt Hill
#
# Bulk Modulus (GPa) = 12.46495 24.46595 18.46545
# Shear Modulus (GPa) = 23.44793 29.10058 26.27426
#
# Velocity S-wave (km/s) = 3.18310 3.54608 3.36948
# Velocity P-wave (km/s) = 4.34692 5.22860 4.80801
#
# Compressibility (1/GPa) = 0.08022495
#
# Stress axis : x y z
#
# Youngs Moduli (GPa) = 52.59226 52.59226 21.17595
#
# Poissons Ratio (x) = 0.52053 -0.07818
# Poissons Ratio (y) = 0.52053 -0.07818
# Poissons Ratio (z) = -0.19417 -0.19417
#
# Static dielectric constant tensor:
#      x y z
#    x 1.918080 0.000000 0.000000 
#    y 0.000000 1.918080 0.000000 
#    z 0.000000 0.000000 1.912610 
# 
# From -- ./inp_files/1104.got.cif
#   From: 2010.05.17/outbox.cif.g08.bks.cpg/sg76_cif.got.tgz:1104.got - 2010.06.03 18:43:17.
