data_PCOD9541696
_publ_section_title
;
Structure prediction by ZEFSAII (Michael W. Deem and Ramdas Pophale) SiO2 
 PCOD9541696
Probable space group: P 43
;
_chemical_formula_sum "Si O2"
_cell_formula_units_Z 32
_cell_length_a 7.479436
_cell_length_b 7.479436
_cell_length_c 25.856409
_cell_angle_alpha 90.000000
_cell_angle_beta 90.000000
_cell_angle_gamma 90.000000
_cell_volume 1446.458272
_symmetry_space_group_name_H-M "P 43"
_symmetry_group_IT_number 78
_symmetry_cell_setting 'tetragonal'
loop_
_space_group_symop_operation_xyz
x,y,z
-y,x,3/4+z
-x,-y,1/2+z
y,-x,1/4+z
loop_
_atom_site_type_symbol
_atom_site_label
_atom_site_fract_x
_atom_site_fract_y
_atom_site_fract_z
Si Si1 0.540255 0.699391 0.359340
Si Si2 0.131424 0.728140 0.378668
Si Si3 0.079393 0.018820 0.588886
Si Si4 0.169273 0.522731 0.000926
Si Si5 0.990377 0.140386 0.984928
Si Si6 0.392132 0.482740 0.680632
Si Si7 0.695996 0.024938 0.417262
Si Si8 0.362357 0.897444 0.667513
O O1 0.326269 0.709306 0.355786
O O2 0.608257 0.777899 0.305417
O O3 0.573155 0.496959 0.377894
O O4 0.602169 0.840247 0.402412
O O5 0.042490 0.534834 0.383919
O O6 0.135650 0.805721 0.436969
O O7 0.021976 0.869852 0.346252
O O8 0.194962 0.898176 0.628825
O O9 0.111447 0.967293 0.529763
O O10 0.102009 0.211636 0.614658
O O11 0.072148 0.329460 0.005066
O O12 0.359780 0.508453 0.972388
O O13 0.036462 0.640156 0.964891
O O14 0.151065 0.027833 0.958564
O O15 0.404407 0.696370 0.686040
O O16 0.184530 0.431305 0.684161
#
# Coordination Sequence:
#
# PCOD9541696 Si02
#       8
#     4   4   4   4   4   4   4   4
#     4  11  23  42  66  97 134 179 222 278 345 404
#     4   9  21  41  63  94 128 172 224 276 331 404
#     4  11  21  41  69  94 131 177 223 278 339 402
#     4  11  22  45  70  94 136 181 224 283 344 405
#     4  10  22  42  68  94 133 184 223 280 348 404
#     4  11  24  44  65 101 138 172 223 288 336 409
#     4  11  24  40  67  96 141 174 225 283 341 406
#     4  10  23  43  68  96 137 171 226 286 332 404
#
# _framework density 22.123000999999999
#
# number of rings (size 3 to 8) (size 9 to 14) (size 15 to 20)
#    0.000    1.500    3.750    0.750    1.750    1.000 
#   13.500    1.250    0.000    0.000    0.000    0.000 
#    0.000    0.000    0.000    0.000    0.000    0.000 
#
# Total GULP energy -178555.611461 kJ/mol
# GULP energy per Si atom -5579.862858 kJ/mol
# Density = 2.207265 g / cm^3
# Si number density = 22.123001 Si / 1000 Ang^3
#
#
#
# Elastic Constant Matrix: (Units=GPa)
#
#
# Indices 1 2 3 4 5 6 
#
# 1 67.6424 6.4866 6.4523 0.0000 0.0000 11.9262
# 2 6.4866 67.6424 6.4523 0.0000 0.0000 -11.9262
# 3 6.4523 6.4523 77.8999 0.0000 0.0000 0.0000
# 4 0.0000 0.0000 0.0000 21.2811 0.0000 0.0000
# 5 0.0000 0.0000 0.0000 0.0000 21.2811 0.0000
# 6 11.9262 -11.9262 0.0000 0.0000 0.0000 26.0378
#
#
#
# Elastic Compliance Matrix: (Units=1/GPa)
#
#
# Indices 1 2 3 4 5 6 
#
# 1 0.016798 -0.003110 -0.001134 0.000000 0.000000 -0.009119
# 2 -0.003110 0.016798 -0.001134 0.000000 0.000000 0.009119
# 3 -0.001134 -0.001134 0.013025 0.000000 0.000000 0.000000
# 4 0.000000 0.000000 0.000000 0.046990 0.000000 0.000000
# 5 0.000000 0.000000 0.000000 0.000000 0.046990 0.000000
# 6 -0.009119 0.009119 0.000000 0.000000 0.000000 0.046759
#
#
# Mechanical properties :
#
#
# Convention : Reuss Voigt Hill
#
# Bulk Modulus (GPa) = 27.88256 27.99634 27.93945
# Shear Modulus (GPa) = 23.80160 26.63957 25.22059
#
# Velocity S-wave (km/s) = 3.28361 3.47386 3.38008
# Velocity P-wave (km/s) = 5.19682 5.36401 5.28108
#
# Compressibility (1/GPa) = 0.03586471
#
# Stress axis : x y z
#
# Youngs Moduli (GPa) = 59.53179 59.53179 76.77667
#
# Poissons Ratio (x) = 0.18517 0.08704
# Poissons Ratio (y) = 0.18517 0.08704
# Poissons Ratio (z) = 0.06749 0.06749
#
# Static dielectric constant tensor:
#      x y z
#    x 1.843270 0.000000 0.000000 
#    y 0.000000 1.843270 0.000000 
#    z 0.000000 0.000000 1.867820 
# 
# From -- ./inp_files/1604.got.cif
#   From: 2010.05.17/outbox.cif.g08.bks.cpg/sg78_cif.got.tgz:1604.got - 2010.06.03 18:45:56.
