data_PCOD9541304
_publ_section_title
;
Structure prediction by ZEFSAII (Michael W. Deem and Ramdas Pophale) SiO2 
 PCOD9541304
Probable space group: P 41
;
_chemical_formula_sum "Si O2"
_cell_formula_units_Z 16
_cell_length_a 7.643737
_cell_length_b 7.643737
_cell_length_c 9.220963
_cell_angle_alpha 90.000000
_cell_angle_beta 90.000000
_cell_angle_gamma 90.000000
_cell_volume 538.750580
_symmetry_space_group_name_H-M "P 41"
_symmetry_group_IT_number 76
_symmetry_cell_setting 'tetragonal'
loop_
_space_group_symop_operation_xyz
x,y,z
-y,x,1/4+z
-x,-y,1/2+z
y,-x,3/4+z
loop_
_atom_site_type_symbol
_atom_site_label
_atom_site_fract_x
_atom_site_fract_y
_atom_site_fract_z
Si Si1 0.843956 0.470110 0.667360
Si Si2 0.656044 0.470110 0.034428
Si Si3 0.029890 0.343957 0.917361
Si Si4 0.843956 0.029889 0.534428
O O1 0.660076 0.387313 0.713330
O O2 0.993600 0.356621 0.746858
O O3 0.887315 0.660076 0.738457
O O4 0.856621 0.506399 0.496857
O O5 0.506401 0.356621 0.954930
O O6 0.839925 0.387316 0.988458
O O7 0.112685 0.160078 0.963333
O O8 0.993599 0.143378 0.454931
#
# Coordination Sequence:
#
# PCOD9541304 Si02
#       4
#     4   4   4   4
#     4  10  24  44  68  98 132 172 218 268 324 386
#     4  10  24  44  68  98 132 172 218 268 324 386
#     4  10  24  44  68  98 132 172 218 268 324 386
#     4  10  24  44  68  98 132 172 218 268 324 386
#
# _framework density 29.698342
#
# number of rings (size 3 to 8) (size 9 to 14) (size 15 to 20)
#    0.000    2.000    0.000    0.000    0.000   36.000 
#    0.000    0.000    0.000    0.000    0.000    0.000 
#    0.000    0.000    0.000    0.000    0.000    0.000 
#
# Total GULP energy -89671.887431 kJ/mol
# GULP energy per Si atom -5604.492964 kJ/mol
# Density = 2.963075 g / cm^3
# Si number density = 29.698342 Si / 1000 Ang^3
#
#
#
# Elastic Constant Matrix: (Units=GPa)
#
#
# Indices 1 2 3 4 5 6 
#
# 1 211.5369 42.6540 35.9493 0.0000 0.0000 0.0000
# 2 42.6540 211.5369 35.9493 0.0000 0.0000 0.0000
# 3 35.9493 35.9493 142.8745 0.0000 0.0000 0.0000
# 4 0.0000 0.0000 0.0000 53.3849 0.0000 0.0000
# 5 0.0000 0.0000 0.0000 0.0000 53.3849 0.0000
# 6 0.0000 0.0000 0.0000 0.0000 0.0000 39.7680
#
#
#
# Elastic Compliance Matrix: (Units=1/GPa)
#
#
# Indices 1 2 3 4 5 6 
#
# 1 0.005078 -0.000843 -0.001066 0.000000 0.000000 0.000000
# 2 -0.000843 0.005078 -0.001066 0.000000 0.000000 0.000000
# 3 -0.001066 -0.001066 0.007535 0.000000 0.000000 0.000000
# 4 0.000000 0.000000 0.000000 0.018732 0.000000 0.000000
# 5 0.000000 0.000000 0.000000 0.000000 0.018732 0.000000
# 6 0.000000 0.000000 0.000000 0.000000 0.000000 0.025146
#
#
# Mechanical properties :
#
#
# Convention : Reuss Voigt Hill
#
# Bulk Modulus (GPa) = 85.15288 88.33928 86.74608
# Shear Modulus (GPa) = 55.45391 59.40061 57.42726
#
# Velocity S-wave (km/s) = 4.32584 4.47714 4.40214
# Velocity P-wave (km/s) = 7.32703 7.51907 7.42367
#
# Compressibility (1/GPa) = 0.01174358
#
# Stress axis : x y z
#
# Youngs Moduli (GPa) = 196.91331 196.91331 132.70617
#
# Poissons Ratio (x) = 0.16598 0.14143
# Poissons Ratio (y) = 0.16598 0.14143
# Poissons Ratio (z) = 0.20985 0.20985
#
# Static dielectric constant tensor:
#      x y z
#    x 2.348230 0.000000 0.000000 
#    y 0.000000 2.348230 0.000000 
#    z 0.000000 0.000000 2.430460 
# 
# From -- ./inp_files/749.got.cif
#   From: 2010.05.17/outbox.cif.g08.bks.cpg/sg76_cif.got.tgz:749.got - 2010.06.03 18:43:17.
