data_PCOD9541623
_publ_section_title
;
Structure prediction by ZEFSAII (Michael W. Deem and Ramdas Pophale) SiO2 
 PCOD9541623
Probable space group: P 43
;
_chemical_formula_sum "Si O2"
_cell_formula_units_Z 20
_cell_length_a 7.214582
_cell_length_b 7.214582
_cell_length_c 14.684776
_cell_angle_alpha 90.000000
_cell_angle_beta 90.000000
_cell_angle_gamma 90.000000
_cell_volume 764.345431
_symmetry_space_group_name_H-M "P 43"
_symmetry_group_IT_number 78
_symmetry_cell_setting 'tetragonal'
loop_
_space_group_symop_operation_xyz
x,y,z
-y,x,3/4+z
-x,-y,1/2+z
y,-x,1/4+z
loop_
_atom_site_type_symbol
_atom_site_label
_atom_site_fract_x
_atom_site_fract_y
_atom_site_fract_z
Si Si1 0.734327 0.189166 0.270150
Si Si2 0.186837 0.457151 0.343579
Si Si3 0.442802 0.919071 0.941544
Si Si4 0.080683 0.871479 0.484889
Si Si5 0.193388 0.348737 0.069879
O O1 0.571429 0.139177 0.199084
O O2 0.690296 0.203310 0.377603
O O3 0.795792 0.384295 0.224873
O O4 0.912119 0.054647 0.258501
O O5 0.195305 0.250595 0.301130
O O6 0.366610 0.586193 0.326873
O O7 0.038621 0.573274 0.283501
O O8 0.485579 0.078985 0.865071
O O9 0.183712 0.864151 0.389415
O O10 0.902597 0.740346 0.482350
#
# Coordination Sequence:
#
# PCOD9541623 Si02
#       5
#     4   4   4   4   4
#     4  10  21  40  65  91 141 170 231 277 345 409
#     4  10  20  36  65  97 124 164 235 268 327 422
#     4  10  23  39  69  97 128 189 217 289 348 395
#     4  10  20  38  62  96 125 181 209 280 337 394
#     4  10  20  35  65  89 128 166 220 264 343 388
#
# _framework density 26.166177999999999
#
# number of rings (size 3 to 8) (size 9 to 14) (size 15 to 20)
#    0.000    2.400    4.000    1.200    5.600    0.000 
#    0.000    0.000   26.400    0.000    0.000    0.000 
#    0.000    0.000    0.000    0.000    0.000    0.000 
#
# Total GULP energy -111380.819322 kJ/mol
# GULP energy per Si atom -5569.040966 kJ/mol
# Density = 2.610662 g / cm^3
# Si number density = 26.166178 Si / 1000 Ang^3
#
#
#
# Elastic Constant Matrix: (Units=GPa)
#
#
# Indices 1 2 3 4 5 6 
#
# 1 74.2263 14.5365 6.3754 0.0000 0.0000 -10.9904
# 2 14.5365 74.2263 6.3754 0.0000 0.0000 10.9904
# 3 6.3754 6.3754 82.2230 0.0000 0.0000 0.0000
# 4 0.0000 0.0000 0.0000 41.0550 0.0000 0.0000
# 5 0.0000 0.0000 0.0000 0.0000 41.0550 0.0000
# 6 -10.9904 10.9904 0.0000 0.0000 0.0000 17.6139
#
#
#
# Elastic Compliance Matrix: (Units=1/GPa)
#
#
# Indices 1 2 3 4 5 6 
#
# 1 0.016572 -0.005179 -0.000883 0.000000 0.000000 0.013572
# 2 -0.005179 0.016572 -0.000883 0.000000 0.000000 -0.013572
# 3 -0.000883 -0.000883 0.012299 0.000000 0.000000 0.000000
# 4 0.000000 0.000000 0.000000 0.024358 0.000000 0.000000
# 5 0.000000 0.000000 0.000000 0.000000 0.024358 0.000000
# 6 0.013572 -0.013572 0.000000 0.000000 0.000000 0.073710
#
#
# Mechanical properties :
#
#
# Convention : Reuss Voigt Hill
#
# Bulk Modulus (GPa) = 31.69442 31.69445 31.69444
# Shear Modulus (GPa) = 26.00411 33.50398 29.75405
#
# Velocity S-wave (km/s) = 3.15589 3.58219 3.37578
# Velocity P-wave (km/s) = 5.04168 5.40819 5.22815
#
# Compressibility (1/GPa) = 0.03155129
#
# Stress axis : x y z
#
# Youngs Moduli (GPa) = 60.34269 60.34269 81.30715
#
# Poissons Ratio (x) = 0.31252 0.07183
# Poissons Ratio (y) = 0.31252 0.07183
# Poissons Ratio (z) = 0.05331 0.05331
#
# Static dielectric constant tensor:
#      x y z
#    x 2.259840 0.000000 0.000000 
#    y 0.000000 2.259840 0.000000 
#    z 0.000000 0.000000 2.133180 
# 
# From -- ./inp_files/1197.got.cif
#   From: 2010.05.17/outbox.cif.g08.bks.cpg/sg78_cif.got.tgz:1197.got - 2010.06.03 18:45:56.
