data_PCOD9541640
_publ_section_title
;
Structure prediction by ZEFSAII (Michael W. Deem and Ramdas Pophale) SiO2 
 PCOD9541640
Probable space group: P 43
;
_chemical_formula_sum "Si O2"
_cell_formula_units_Z 28
_cell_length_a 7.849922
_cell_length_b 7.849922
_cell_length_c 18.565397
_cell_angle_alpha 90.000000
_cell_angle_beta 90.000000
_cell_angle_gamma 90.000000
_cell_volume 1144.023442
_symmetry_space_group_name_H-M "P 43"
_symmetry_group_IT_number 78
_symmetry_cell_setting 'tetragonal'
loop_
_space_group_symop_operation_xyz
x,y,z
-y,x,3/4+z
-x,-y,1/2+z
y,-x,1/4+z
loop_
_atom_site_type_symbol
_atom_site_label
_atom_site_fract_x
_atom_site_fract_y
_atom_site_fract_z
Si Si1 0.950166 0.035279 0.855920
Si Si2 0.927153 0.765470 0.751131
Si Si3 0.954762 0.677064 0.101417
Si Si4 0.761882 0.645539 0.529609
Si Si5 0.703883 0.371433 0.435438
Si Si6 0.621996 0.707271 0.023765
Si Si7 0.487840 0.744432 0.417489
O O1 0.910030 0.060918 0.939551
O O2 0.807800 0.138320 0.810788
O O3 0.915748 0.842683 0.830016
O O4 0.149147 0.060237 0.836707
O O5 0.768986 0.653595 0.727789
O O6 0.100586 0.657914 0.748266
O O7 0.827938 0.730811 0.168116
O O8 0.812386 0.634651 0.040441
O O9 0.073138 0.524587 0.127997
O O10 0.825992 0.467850 0.491683
O O11 0.656010 0.707262 0.460879
O O12 0.648778 0.587941 0.598534
O O13 0.513056 0.379040 0.470416
O O14 0.718493 0.450285 0.355443
#
# Coordination Sequence:
#
# PCOD9541640 Si02
#       7
#     4   4   4   4   4   4   4
#     4  10  22  42  69 103 135 179 241 299 355 417
#     4  10  20  43  64  98 137 176 237 294 356 424
#     4   9  21  41  74  96 136 189 235 301 348 433
#     4  11  25  42  69  99 146 183 243 296 358 435
#     4  10  20  41  66 103 134 186 236 285 355 438
#     4   9  19  39  69  98 133 183 232 290 343 435
#     4  11  23  46  65 103 139 190 240 301 361 430
#
# _framework density 24.475021000000002
#
# number of rings (size 3 to 8) (size 9 to 14) (size 15 to 20)
#    0.857    1.143    1.429    1.714    0.000    3.429 
#   18.000    0.000    3.143    0.000    0.000    0.000 
#    0.000    0.000    0.000    0.000    0.000    0.000 
#
# Total GULP energy -155886.690233 kJ/mol
# GULP energy per Si atom -5567.381794 kJ/mol
# Density = 2.441931 g / cm^3
# Si number density = 24.475021 Si / 1000 Ang^3
#
#
#
# Elastic Constant Matrix: (Units=GPa)
#
#
# Indices 1 2 3 4 5 6 
#
# 1 46.8288 11.2176 9.3261 0.0000 0.0000 -5.9583
# 2 11.2176 46.8288 9.3261 0.0000 0.0000 5.9583
# 3 9.3261 9.3261 90.8863 0.0000 0.0000 0.0000
# 4 0.0000 0.0000 0.0000 33.5286 0.0000 0.0000
# 5 0.0000 0.0000 0.0000 0.0000 33.5286 0.0000
# 6 -5.9583 5.9583 0.0000 0.0000 0.0000 31.6612
#
#
#
# Elastic Compliance Matrix: (Units=1/GPa)
#
#
# Indices 1 2 3 4 5 6 
#
# 1 0.023892 -0.006077 -0.001828 0.000000 0.000000 0.005640
# 2 -0.006077 0.023892 -0.001828 0.000000 0.000000 -0.005640
# 3 -0.001828 -0.001828 0.011378 0.000000 0.000000 0.000000
# 4 0.000000 0.000000 0.000000 0.029825 0.000000 0.000000
# 5 0.000000 0.000000 0.000000 0.000000 0.029825 0.000000
# 6 0.005640 -0.005640 0.000000 0.000000 0.000000 0.033707
#
#
# Mechanical properties :
#
#
# Convention : Reuss Voigt Hill
#
# Bulk Modulus (GPa) = 25.19162 27.14261 26.16712
# Shear Modulus (GPa) = 26.99547 30.05528 28.52537
#
# Velocity S-wave (km/s) = 3.32472 3.50808 3.41763
# Velocity P-wave (km/s) = 5.00534 5.24622 5.12720
#
# Compressibility (1/GPa) = 0.03969574
#
# Stress axis : x y z
#
# Youngs Moduli (GPa) = 41.85563 41.85563 87.88954
#
# Poissons Ratio (x) = 0.25434 0.16067
# Poissons Ratio (y) = 0.25434 0.16067
# Poissons Ratio (z) = 0.07651 0.07651
#
# Static dielectric constant tensor:
#      x y z
#    x 2.086170 0.000000 0.000000 
#    y 0.000000 2.086170 0.000000 
#    z 0.000000 0.000000 1.927670 
# 
# From -- ./inp_files/1276.got.cif
#   From: 2010.05.17/outbox.cif.g08.bks.cpg/sg78_cif.got.tgz:1276.got - 2010.06.03 18:45:56.
