data_PCOD9541846
_publ_section_title
;
Structure prediction by ZEFSAII (Michael W. Deem and Ramdas Pophale) SiO2 
 PCOD9541846
Probable space group: I 4
;
_chemical_formula_sum "Si O2"
_cell_formula_units_Z 42
_cell_length_a 11.008701
_cell_length_b 11.008701
_cell_length_c 18.348470
_cell_angle_alpha 90.000000
_cell_angle_beta 90.000000
_cell_angle_gamma 90.000000
_cell_volume 2223.678560
_symmetry_space_group_name_H-M "I 4"
_symmetry_group_IT_number 79
_symmetry_cell_setting 'tetragonal'
loop_
_space_group_symop_operation_xyz
x,y,z
-y,x,z
-x,-y,z
y,-x,z
1/2+x,1/2+y,1/2+z
1/2-y,1/2+x,1/2+z
1/2-x,1/2-y,1/2+z
1/2+y,1/2-x,1/2+z
loop_
_atom_site_type_symbol
_atom_site_label
_atom_site_fract_x
_atom_site_fract_y
_atom_site_fract_z
Si Si1 0.800872 0.046195 0.259450
Si Si2 0.547471 0.299308 0.489727
Si Si3 0.357721 0.035168 0.134706
Si Si4 0.118312 0.688555 0.835828
Si Si5 0.752475 0.397575 0.242321
Si Si6 0.500000 0.500000 0.195553
O O1 0.708121 0.075395 0.324848
O O2 0.913838 0.138286 0.262105
O O3 0.720419 0.056921 0.185759
O O4 0.640187 0.413414 0.490674
O O5 0.552663 0.210722 0.558717
O O6 0.579707 0.226487 0.416409
O O7 0.350088 0.158807 0.180711
O O8 0.500000 0.000000 0.127121
O O9 0.191794 0.799773 0.796851
O O10 0.994784 0.673539 0.790532
O O11 0.644879 0.469393 0.203074
#
# Coordination Sequence:
#
# PCOD9541846 Si02
#       6
#     8   8   8   8   8   2
#     4  11  23  40  68  98 131 175 226 281 342 405
#     4  11  25  43  68  98 140 182 227 289 353 407
#     4  12  24  42  63  98 136 174 226 283 346 413
#     4  11  20  41  68  97 128 170 231 287 334 406
#     4  10  20  37  68  97 123 160 229 285 334 397
#     4   8  20  32  64  92 120 148 204 286 332 372
#
# _framework density 18.887623000000001
#
# number of rings (size 3 to 8) (size 9 to 14) (size 15 to 20)
#    0.000    1.143    5.714    1.143    0.000    1.524 
#    6.857    0.000    0.000    0.000    0.000    0.000 
#    0.000    0.000    0.000    0.000    0.000    0.000 
#
# Total GULP energy -116913.336893 kJ/mol
# GULP energy per Si atom -5567.301757 kJ/mol
# Density = 1.884463 g / cm^3
# Si number density = 18.887623 Si / 1000 Ang^3
#
#
#
# Elastic Constant Matrix: (Units=GPa)
#
#
# Indices 1 2 3 4 5 6 
#
# 1 80.1747 26.8065 30.9456 0.0000 0.0000 -5.3814
# 2 26.8065 80.1747 30.9456 0.0000 0.0000 5.3814
# 3 30.9456 30.9456 107.5795 0.0000 0.0000 0.0000
# 4 0.0000 0.0000 0.0000 31.5012 0.0000 0.0000
# 5 0.0000 0.0000 0.0000 0.0000 31.5012 0.0000
# 6 -5.3814 5.3814 0.0000 0.0000 0.0000 46.8657
#
#
#
# Elastic Compliance Matrix: (Units=1/GPa)
#
#
# Indices 1 2 3 4 5 6 
#
# 1 0.015198 -0.003984 -0.003226 0.000000 0.000000 0.002203
# 2 -0.003984 0.015198 -0.003226 0.000000 0.000000 -0.002203
# 3 -0.003226 -0.003226 0.011151 0.000000 0.000000 0.000000
# 4 0.000000 0.000000 0.000000 0.031745 0.000000 0.000000
# 5 0.000000 0.000000 0.000000 0.000000 0.031745 0.000000
# 6 0.002203 -0.002203 0.000000 0.000000 0.000000 0.021843
#
#
# Mechanical properties :
#
#
# Convention : Reuss Voigt Hill
#
# Bulk Modulus (GPa) = 48.36575 49.48048 48.92312
# Shear Modulus (GPa) = 32.33267 33.92239 33.12753
#
# Velocity S-wave (km/s) = 4.14193 4.24254 4.19254
# Velocity P-wave (km/s) = 6.96684 7.08893 7.02815
#
# Compressibility (1/GPa) = 0.02067579
#
# Stress axis : x y z
#
# Youngs Moduli (GPa) = 65.79932 65.79932 89.67670
#
# Poissons Ratio (x) = 0.26216 0.28926
# Poissons Ratio (y) = 0.26216 0.28926
# Poissons Ratio (z) = 0.21224 0.21224
#
# Static dielectric constant tensor:
#      x y z
#    x 1.693430 0.000000 0.000000 
#    y 0.000000 1.693430 0.000000 
#    z 0.000000 0.000000 1.630740 
# 
# From -- ./inp_files/1518.got.cif
#   From: 2010.05.17/outbox.cif.g08.bks.cpg/sg79_cif.got.tgz:1518.got - 2010.06.03 18:47:27.
