data_PCOD9541063
_publ_section_title
;
Structure prediction by ZEFSAII (Michael W. Deem and Ramdas Pophale) SiO2 
 PCOD9541063
Probable space group: P 4
;
_chemical_formula_sum "Si O2"
_cell_formula_units_Z 18
_cell_length_a 11.935286
_cell_length_b 11.935286
_cell_length_c 4.709499
_cell_angle_alpha 90.000000
_cell_angle_beta 90.000000
_cell_angle_gamma 90.000000
_cell_volume 670.873086
_symmetry_space_group_name_H-M "P 4"
_symmetry_group_IT_number 75
_symmetry_cell_setting 'tetragonal'
loop_
_space_group_symop_operation_xyz
x,y,z
-y,x,z
-x,-y,z
y,-x,z
loop_
_atom_site_type_symbol
_atom_site_label
_atom_site_fract_x
_atom_site_fract_y
_atom_site_fract_z
Si Si1 0.943261 0.676040 0.348230
Si Si2 0.000000 0.000000 0.019241
Si Si3 0.127881 0.197923 0.836894
Si Si4 0.246582 0.489054 0.200401
Si Si5 0.379147 0.172162 0.675123
Si Si6 0.500000 0.500000 0.065665
O O1 0.832926 0.598731 0.370264
O O2 0.920851 0.791286 0.520646
O O3 0.057096 0.630011 0.487951
O O4 0.933439 0.706295 0.017910
O O5 0.890454 0.921395 0.977007
O O6 0.260369 0.208581 0.804560
O O7 0.463216 0.172620 0.939908
O O8 0.263197 0.581908 0.445280
O O9 0.367505 0.456974 0.078926
#
# Coordination Sequence:
#
# PCOD9541063 Si02
#       6
#     4   1   4   4   4   1
#     4  12  27  49  78 113 160 207 269 326 404 479
#     4  12  28  46  76 106 160 202 264 314 412 458
#     4  12  26  47  75 114 153 205 258 326 391 483
#     4  12  28  50  82 115 159 215 266 343 405 477
#     4  12  26  50  78 116 160 209 271 328 407 486
#     4  12  28  54  84 122 164 214 288 342 416 494
#
# _framework density 26.830705999999999
#
# number of rings (size 3 to 8) (size 9 to 14) (size 15 to 20)
#    0.000    0.000    2.222    7.333    3.111    5.333 
#    0.000    0.000    0.000    0.000    0.000    0.000 
#    0.000    0.000    0.000    0.000    0.000    0.000 
#
# Total GULP energy -100206.406548 kJ/mol
# GULP energy per Si atom -5567.022586 kJ/mol
# Density = 2.676964 g / cm^3
# Si number density = 26.830706 Si / 1000 Ang^3
#
#
#
# Elastic Constant Matrix: (Units=GPa)
#
#
# Indices 1 2 3 4 5 6 
#
# 1 85.6432 15.6996 24.3910 0.0000 0.0000 -12.4285
# 2 15.6996 85.6432 24.3910 0.0000 0.0000 12.4285
# 3 24.3910 24.3910 134.0458 0.0000 0.0000 0.0000
# 4 0.0000 0.0000 0.0000 17.8134 0.0000 0.0000
# 5 0.0000 0.0000 0.0000 0.0000 17.8134 0.0000
# 6 -12.4285 12.4285 0.0000 0.0000 0.0000 23.0490
#
#
#
# Elastic Compliance Matrix: (Units=1/GPa)
#
#
# Indices 1 2 3 4 5 6 
#
# 1 0.014251 -0.003436 -0.001968 0.000000 0.000000 0.009537
# 2 -0.003436 0.014251 -0.001968 0.000000 0.000000 -0.009537
# 3 -0.001968 -0.001968 0.008176 0.000000 0.000000 0.000000
# 4 0.000000 0.000000 0.000000 0.056138 0.000000 0.000000
# 5 0.000000 0.000000 0.000000 0.000000 0.056138 0.000000
# 6 0.009537 -0.009537 0.000000 0.000000 0.000000 0.053671
#
#
# Mechanical properties :
#
#
# Convention : Reuss Voigt Hill
#
# Bulk Modulus (GPa) = 45.59061 48.25505 46.92283
# Shear Modulus (GPa) = 22.25407 27.79187 25.02297
#
# Velocity S-wave (km/s) = 2.88310 3.22191 3.05720
# Velocity P-wave (km/s) = 5.30206 5.64491 5.47617
#
# Compressibility (1/GPa) = 0.02193434
#
# Stress axis : x y z
#
# Youngs Moduli (GPa) = 70.17229 70.17229 122.30504
#
# Poissons Ratio (x) = 0.24111 0.24068
# Poissons Ratio (y) = 0.24111 0.24068
# Poissons Ratio (z) = 0.13809 0.13809
#
# Static dielectric constant tensor:
#      x y z
#    x 2.199050 0.000000 0.000000 
#    y 0.000000 2.199050 0.000000 
#    z 0.000000 0.000000 2.101190 
# 
# From -- ./inp_files/86.got.cif
#   From: 2010.05.17/outbox.cif.g08.bks.cpg/sg75_cif.got.tgz:86.got - 2010.06.03 18:42:43.
