data_PCOD9541400
_publ_section_title
;
Structure prediction by ZEFSAII (Michael W. Deem and Ramdas Pophale) SiO2 
 PCOD9541400
Probable space group: P 41
;
_chemical_formula_sum "Si O2"
_cell_formula_units_Z 24
_cell_length_a 9.269090
_cell_length_b 9.269090
_cell_length_c 11.166889
_cell_angle_alpha 90.000000
_cell_angle_beta 90.000000
_cell_angle_gamma 90.000000
_cell_volume 959.414764
_symmetry_space_group_name_H-M "P 41"
_symmetry_group_IT_number 76
_symmetry_cell_setting 'tetragonal'
loop_
_space_group_symop_operation_xyz
x,y,z
-y,x,1/4+z
-x,-y,1/2+z
y,-x,3/4+z
loop_
_atom_site_type_symbol
_atom_site_label
_atom_site_fract_x
_atom_site_fract_y
_atom_site_fract_z
Si Si1 0.801843 0.601796 0.688090
Si Si2 0.590928 0.008312 0.781975
Si Si3 0.686994 0.169212 0.987195
Si Si4 0.625383 0.882768 0.101643
Si Si5 0.918150 0.914476 0.733545
Si Si6 0.392496 0.493439 0.856175
O O1 0.766093 0.468759 0.779298
O O2 0.896961 0.740111 0.725866
O O3 0.653032 0.662523 0.638900
O O4 0.887679 0.506518 0.592962
O O5 0.509378 0.038711 0.661056
O O6 0.758136 0.973713 0.764224
O O7 0.586526 0.148250 0.869385
O O8 0.615315 0.259855 0.092190
O O9 0.707353 0.003114 0.024229
O O10 0.821089 0.261481 0.943842
O O11 0.021005 0.951051 0.849190
O O12 0.452008 0.508105 0.719783
#
# Coordination Sequence:
#
# PCOD9541400 Si02
#       6
#     4   4   4   4   4   4
#     4  11  25  46  81 108 166 214 277 344 415 498
#     4  11  26  48  74 114 166 213 272 346 426 492
#     4  11  26  43  76 112 156 212 276 337 422 508
#     4  11  24  49  73 111 159 216 273 351 413 499
#     4  12  28  54  85 124 170 226 284 347 433 522
#     4  12  25  46  79 115 155 211 278 343 425 505
#
# _framework density 25.015249000000001
#
# number of rings (size 3 to 8) (size 9 to 14) (size 15 to 20)
#    0.000    0.667    1.667    5.000    7.000    2.667 
#    3.000    0.000    0.000    0.000    0.000    0.000 
#    0.000    0.000    0.000    0.000    0.000    0.000 
#
# Total GULP energy -134054.755611 kJ/mol
# GULP energy per Si atom -5585.614817 kJ/mol
# Density = 2.495831 g / cm^3
# Si number density = 25.015249 Si / 1000 Ang^3
#
#
#
# Elastic Constant Matrix: (Units=GPa)
#
#
# Indices 1 2 3 4 5 6 
#
# 1 111.1405 38.8396 49.8719 0.0000 0.0000 0.8412
# 2 38.8396 111.1405 49.8719 0.0000 0.0000 -0.8412
# 3 49.8719 49.8719 123.3116 0.0000 0.0000 0.0000
# 4 0.0000 0.0000 0.0000 40.3098 0.0000 0.0000
# 5 0.0000 0.0000 0.0000 0.0000 40.3098 0.0000
# 6 0.8412 -0.8412 0.0000 0.0000 0.0000 58.8464
#
#
#
# Elastic Compliance Matrix: (Units=1/GPa)
#
#
# Indices 1 2 3 4 5 6 
#
# 1 0.011478 -0.002357 -0.003689 0.000000 0.000000 -0.000198
# 2 -0.002357 0.011478 -0.003689 0.000000 0.000000 0.000198
# 3 -0.003689 -0.003689 0.011093 0.000000 0.000000 0.000000
# 4 0.000000 0.000000 0.000000 0.024808 0.000000 0.000000
# 5 0.000000 0.000000 0.000000 0.000000 0.024808 0.000000
# 6 -0.000198 0.000198 0.000000 0.000000 0.000000 0.016999
#
#
# Mechanical properties :
#
#
# Convention : Reuss Voigt Hill
#
# Bulk Modulus (GPa) = 68.58849 69.19546 68.89198
# Shear Modulus (GPa) = 40.00176 41.69380 40.84778
#
# Velocity S-wave (km/s) = 4.00321 4.08700 4.04532
# Velocity P-wave (km/s) = 6.98897 7.07055 7.02988
#
# Compressibility (1/GPa) = 0.01457971
#
# Stress axis : x y z
#
# Youngs Moduli (GPa) = 87.12151 87.12151 90.14445
#
# Poissons Ratio (x) = 0.20539 0.33252
# Poissons Ratio (y) = 0.20539 0.33252
# Poissons Ratio (z) = 0.32137 0.32137
#
# Static dielectric constant tensor:
#      x y z
#    x 1.978940 0.000000 0.000000 
#    y 0.000000 1.978940 0.000000 
#    z 0.000000 0.000000 2.147810 
# 
# From -- ./inp_files/845.got.cif
#   From: 2010.05.17/outbox.cif.g08.bks.cpg/sg76_cif.got.tgz:845.got - 2010.06.03 18:43:17.
