data_PCOD9541558
_publ_section_title
;
Structure prediction by ZEFSAII (Michael W. Deem and Ramdas Pophale) SiO2 
 PCOD9541558
Probable space group: P 42
;
_chemical_formula_sum "Si O2"
_cell_formula_units_Z 18
_cell_length_a 5.297481
_cell_length_b 5.297481
_cell_length_c 26.516809
_cell_angle_alpha 90.000000
_cell_angle_beta 90.000000
_cell_angle_gamma 90.000000
_cell_volume 744.149297
_symmetry_space_group_name_H-M "P 42"
_symmetry_group_IT_number 77
_symmetry_cell_setting 'tetragonal'
loop_
_space_group_symop_operation_xyz
x,y,z
-y,x,1/2+z
-x,-y,z
y,-x,1/2+z
loop_
_atom_site_type_symbol
_atom_site_label
_atom_site_fract_x
_atom_site_fract_y
_atom_site_fract_z
Si Si1 0.248986 0.669420 0.981230
Si Si2 0.256319 0.850897 0.092781
Si Si3 0.000000 0.000000 0.225272
Si Si4 0.500000 0.000000 0.287666
Si Si5 0.344276 0.755073 0.871681
Si Si6 0.500000 0.000000 0.661292
O O1 0.500000 0.500000 0.982497
O O2 0.235982 0.812473 0.927516
O O3 0.000000 0.500000 0.983990
O O4 0.264302 0.825122 0.032451
O O5 0.219095 0.591561 0.122951
O O6 0.500000 0.000000 0.110386
O O7 0.000000 0.000000 0.103192
O O8 0.068495 0.257768 0.195335
O O9 0.262127 0.914643 0.253363
O O10 0.663582 0.832624 0.326893
O O11 0.500000 0.500000 0.880140
O O12 0.500000 0.000000 0.855820
#
# Coordination Sequence:
#
# PCOD9541558 Si02
#       6
#     4   4   2   2   4   2
#     4  11  23  45  74 119 163 207 256 317 391 483
#     4  12  27  48  81 117 160 210 260 325 398 487
#     4  12  32  50  84 108 160 200 278 348 402 478
#     4  12  28  53  78 116 148 215 268 338 414 476
#     4  11  25  47  78 114 159 207 259 324 395 486
#     4  12  30  57  78 120 152 213 270 342 412 476
#
# _framework density 24.188697999999999
#
# number of rings (size 3 to 8) (size 9 to 14) (size 15 to 20)
#    0.000    0.444    3.333    3.333    6.222    3.556 
#    2.000    0.000    0.000    0.000    0.000    0.000 
#    0.000    0.000    0.000    0.000    0.000    0.000 
#
# Total GULP energy -100568.289230 kJ/mol
# GULP energy per Si atom -5587.127179 kJ/mol
# Density = 2.413364 g / cm^3
# Si number density = 24.188698 Si / 1000 Ang^3
#
#
#
# Elastic Constant Matrix: (Units=GPa)
#
#
# Indices 1 2 3 4 5 6 
#
# 1 172.5592 73.6192 58.5180 0.0000 0.0000 -4.5951
# 2 73.6192 172.5592 58.5180 0.0000 0.0000 4.5951
# 3 58.5180 58.5180 134.0819 0.0000 0.0000 0.0000
# 4 0.0000 0.0000 0.0000 26.0447 0.0000 0.0000
# 5 0.0000 0.0000 0.0000 0.0000 26.0447 0.0000
# 6 -4.5951 4.5951 0.0000 0.0000 0.0000 64.4065
#
#
#
# Elastic Compliance Matrix: (Units=1/GPa)
#
#
# Indices 1 2 3 4 5 6 
#
# 1 0.007650 -0.002524 -0.002237 0.000000 0.000000 0.000726
# 2 -0.002524 0.007650 -0.002237 0.000000 0.000000 -0.000726
# 3 -0.002237 -0.002237 0.009411 0.000000 0.000000 0.000000
# 4 0.000000 0.000000 0.000000 0.038396 0.000000 0.000000
# 5 0.000000 0.000000 0.000000 0.000000 0.038396 0.000000
# 6 0.000726 -0.000726 0.000000 0.000000 0.000000 0.015630
#
#
# Mechanical properties :
#
#
# Convention : Reuss Voigt Hill
#
# Bulk Modulus (GPa) = 93.33619 95.61229 94.47424
# Shear Modulus (GPa) = 37.11947 42.53551 39.82749
#
# Velocity S-wave (km/s) = 3.92162 4.19798 4.06215
# Velocity P-wave (km/s) = 7.69259 7.94424 7.81942
#
# Compressibility (1/GPa) = 0.01071396
#
# Stress axis : x y z
#
# Youngs Moduli (GPa) = 130.71768 130.71768 106.26171
#
# Poissons Ratio (x) = 0.33000 0.23771
# Poissons Ratio (y) = 0.33000 0.23771
# Poissons Ratio (z) = 0.29241 0.29241
#
# Static dielectric constant tensor:
#      x y z
#    x 1.953490 0.000000 0.000000 
#    y 0.000000 1.953490 0.000000 
#    z 0.000000 0.000000 2.081750 
# 
# From -- ./inp_files/1661.got.cif
#   From: 2010.05.17/outbox.cif.g08.bks.cpg/sg77_cif.got.tgz:1661.got - 2010.06.03 18:44:51.
