data_PCOD9541900
_publ_section_title
;
Structure prediction by ZEFSAII (Michael W. Deem and Ramdas Pophale) SiO2 
 PCOD9541900
Probable space group: I 4
;
_chemical_formula_sum "Si O2"
_cell_formula_units_Z 60
_cell_length_a 14.055469
_cell_length_b 14.055469
_cell_length_c 13.751689
_cell_angle_alpha 90.000000
_cell_angle_beta 90.000000
_cell_angle_gamma 90.000000
_cell_volume 2716.731544
_symmetry_space_group_name_H-M "I 4"
_symmetry_group_IT_number 79
_symmetry_cell_setting 'tetragonal'
loop_
_space_group_symop_operation_xyz
x,y,z
-y,x,z
-x,-y,z
y,-x,z
1/2+x,1/2+y,1/2+z
1/2-y,1/2+x,1/2+z
1/2-x,1/2-y,1/2+z
1/2+y,1/2-x,1/2+z
loop_
_atom_site_type_symbol
_atom_site_label
_atom_site_fract_x
_atom_site_fract_y
_atom_site_fract_z
Si Si1 0.135562 0.662578 0.386030
Si Si2 0.951484 0.800688 0.152868
Si Si3 0.000000 0.500000 0.441425
Si Si4 0.740615 0.234579 0.694462
Si Si5 0.028841 0.849279 0.361340
Si Si6 0.381284 0.409349 0.242237
Si Si7 0.170071 0.404737 0.546555
Si Si8 0.858883 0.845492 0.958991
O O1 0.073140 0.567305 0.383795
O O2 0.184114 0.691770 0.285333
O O3 0.063063 0.749627 0.404903
O O4 0.229659 0.649520 0.452936
O O5 0.847503 0.772069 0.191531
O O6 0.922393 0.861483 0.056049
O O7 0.013507 0.841871 0.242745
O O8 0.012041 0.710534 0.116069
O O9 0.068739 0.432815 0.505373
O O10 0.848822 0.206425 0.706269
O O11 0.693647 0.181525 0.603633
O O12 0.926914 0.891996 0.389857
O O13 0.483268 0.371851 0.207805
O O14 0.393566 0.389298 0.358176
O O15 0.254301 0.391819 0.468170
#
# Coordination Sequence:
#
# PCOD9541900 Si02
#       8
#     8   8   4   8   8   8   8   8
#     4  11  23  43  59  97 135 177 217 275 341 406
#     4  11  19  42  64  96 127 168 222 275 335 398
#     4  12  28  40  66  98 132 180 240 276 334 420
#     4  10  23  41  66  93 134 174 214 278 346 390
#     4  11  22  38  65  98 132 171 219 265 334 401
#     4  10  22  40  64  96 125 171 220 267 332 409
#     4  11  23  42  64  98 127 175 225 281 337 396
#     4  10  22  40  66  91 136 168 215 280 345 388
#
# _framework density 22.085362
#
# number of rings (size 3 to 8) (size 9 to 14) (size 15 to 20)
#    0.000    1.333    4.000    1.600    3.733    1.600 
#    0.000    1.333    0.000    0.000    0.000    0.000 
#    0.000    0.000    0.000    0.000    0.000    0.000 
#
# Total GULP energy -167418.600001 kJ/mol
# GULP energy per Si atom -5580.620000 kJ/mol
# Density = 2.203509 g / cm^3
# Si number density = 22.085362 Si / 1000 Ang^3
#
#
#
# Elastic Constant Matrix: (Units=GPa)
#
#
# Indices 1 2 3 4 5 6 
#
# 1 56.5731 59.5345 3.7758 0.0000 0.0000 -0.3613
# 2 59.5345 56.5731 3.7758 0.0000 0.0000 0.3613
# 3 3.7758 3.7758 4.4141 0.0000 0.0000 0.0000
# 4 0.0000 0.0000 0.0000 19.3980 0.0000 0.0000
# 5 0.0000 0.0000 0.0000 0.0000 19.3980 0.0000
# 6 -0.3613 0.3613 0.0000 0.0000 0.0000 30.7303
#
#
#
# Elastic Compliance Matrix: (Units=1/GPa)
#
#
# Indices 1 2 3 4 5 6 
#
# 1 -0.163794 0.172914 -0.007801 0.000000 0.000000 -0.003959
# 2 0.172914 -0.163794 -0.007801 0.000000 0.000000 0.003959
# 3 -0.007801 -0.007801 0.239895 0.000000 0.000000 0.000000
# 4 0.000000 0.000000 0.000000 0.051552 0.000000 0.000000
# 5 0.000000 0.000000 0.000000 0.000000 0.051552 0.000000
# 6 -0.003959 0.003959 0.000000 0.000000 0.000000 0.032448
#
#
# Mechanical properties :
#
#
# Convention : Reuss Voigt Hill
#
# Bulk Modulus (GPa) = 4.40665 27.97028 16.18847
# Shear Modulus (GPa) = -26.16119 17.27021 -4.44549
#
# Velocity S-wave (km/s) = -3.44546 2.79942 -1.42030
# Velocity P-wave (km/s) = 3.71869 4.81052 2.15783
#
# Compressibility (1/GPa) = 0.22692960
#
# Stress axis : x y z
#
# Youngs Moduli (GPa) = -6.10522 -6.10522 4.16849
#
# Poissons Ratio (x) = 1.05568 0.03252
# Poissons Ratio (y) = 1.05568 0.03252
# Poissons Ratio (z) = -0.04763 -0.04763
#
# Static dielectric constant tensor:
#      x y z
#    x 1.813670 0.000000 0.000000 
#    y 0.000000 1.813670 0.000000 
#    z 0.000000 0.000000 1.883530 
# 
# From -- ./inp_files/1455.got.cif
#   From: 2010.05.17/outbox.cif.g08.bks.cpg/sg79_cif.got.tgz:1455.got - 2010.06.03 18:47:27.
