data_PCOD9541767
_publ_section_title
;
Structure prediction by ZEFSAII (Michael W. Deem and Ramdas Pophale) SiO2 
 PCOD9541767
Probable space group: P 43
;
_chemical_formula_sum "Si O2"
_cell_formula_units_Z 16
_cell_length_a 5.385799
_cell_length_b 5.385799
_cell_length_c 18.147847
_cell_angle_alpha 90.000000
_cell_angle_beta 90.000000
_cell_angle_gamma 90.000000
_cell_volume 526.411529
_symmetry_space_group_name_H-M "P 43"
_symmetry_group_IT_number 78
_symmetry_cell_setting 'tetragonal'
loop_
_space_group_symop_operation_xyz
x,y,z
-y,x,3/4+z
-x,-y,1/2+z
y,-x,1/4+z
loop_
_atom_site_type_symbol
_atom_site_label
_atom_site_fract_x
_atom_site_fract_y
_atom_site_fract_z
Si Si1 0.506714 0.889113 0.942170
Si Si2 0.847651 0.137153 0.322549
Si Si3 0.364147 0.106901 0.133190
Si Si4 0.499430 0.609757 0.502767
O O1 0.430814 0.888675 0.856454
O O2 0.385731 0.646422 0.977456
O O3 0.775815 0.364602 0.965117
O O4 0.772969 0.869309 0.986673
O O5 0.951162 0.392502 0.360275
O O6 0.142542 0.618154 0.218913
O O7 0.105069 0.996989 0.101419
O O8 0.432086 0.357173 0.087323
#
# Coordination Sequence:
#
# PCOD9541767 Si02
#       4
#     4   4   4   4
#     4  11  25  47  77 116 162 214 272 336 410 491
#     4  11  26  49  81 122 169 220 276 342 418 497
#     4  11  26  49  81 122 169 220 276 342 418 497
#     4  11  25  47  77 116 162 214 272 336 410 491
#
# _framework density 30.394476999999998
#
# number of rings (size 3 to 8) (size 9 to 14) (size 15 to 20)
#    0.000    1.000    0.000    4.500    0.000   20.000 
#    0.000    2.500    0.000    3.000    0.000    0.000 
#    0.000    0.000    0.000    0.000    0.000    0.000 
#
# Total GULP energy -89153.208579 kJ/mol
# GULP energy per Si atom -5572.075536 kJ/mol
# Density = 3.032530 g / cm^3
# Si number density = 30.394477 Si / 1000 Ang^3
#
#
#
# Elastic Constant Matrix: (Units=GPa)
#
#
# Indices 1 2 3 4 5 6 
#
# 1 207.8116 44.6466 57.6991 0.0000 0.0000 2.9775
# 2 44.6466 207.8116 57.6991 0.0000 0.0000 -2.9775
# 3 57.6991 57.6991 180.9105 0.0000 0.0000 0.0000
# 4 0.0000 0.0000 0.0000 60.9272 0.0000 0.0000
# 5 0.0000 0.0000 0.0000 0.0000 60.9272 0.0000
# 6 2.9775 -2.9775 0.0000 0.0000 0.0000 7.2649
#
#
#
# Elastic Compliance Matrix: (Units=1/GPa)
#
#
# Indices 1 2 3 4 5 6 
#
# 1 0.005429 -0.000792 -0.001479 0.000000 0.000000 -0.002550
# 2 -0.000792 0.005429 -0.001479 0.000000 0.000000 0.002550
# 3 -0.001479 -0.001479 0.006471 0.000000 0.000000 0.000000
# 4 0.000000 0.000000 0.000000 0.016413 0.000000 0.000000
# 5 0.000000 0.000000 0.000000 0.000000 0.016413 0.000000
# 6 -0.002550 0.002550 0.000000 0.000000 0.000000 0.139739
#
#
# Mechanical properties :
#
#
# Convention : Reuss Voigt Hill
#
# Bulk Modulus (GPa) = 101.73589 101.84703 101.79146
# Shear Modulus (GPa) = 24.91629 54.92312 39.91970
#
# Velocity S-wave (km/s) = 2.86626 4.25551 3.62800
# Velocity P-wave (km/s) = 6.67071 7.59782 7.14931
#
# Compressibility (1/GPa) = 0.00982937
#
# Stress axis : x y z
#
# Youngs Moduli (GPa) = 184.18059 184.18059 154.53630
#
# Poissons Ratio (x) = 0.14594 0.22855
# Poissons Ratio (y) = 0.14594 0.22855
# Poissons Ratio (z) = 0.27239 0.27239
#
# Static dielectric constant tensor:
#      x y z
#    x 2.425520 0.000000 0.000000 
#    y 0.000000 2.425520 0.000000 
#    z 0.000000 0.000000 2.552700 
# 
# From -- ./inp_files/1363.got.cif
#   From: 2010.05.17/outbox.cif.g08.bks.cpg/sg78_cif.got.tgz:1363.got - 2010.06.03 18:45:56.
