data_PCOD9541750
_publ_section_title
;
Structure prediction by ZEFSAII (Michael W. Deem and Ramdas Pophale) SiO2 
 PCOD9541750
Probable space group: P 43
;
_chemical_formula_sum "Si O2"
_cell_formula_units_Z 20
_cell_length_a 11.299536
_cell_length_b 11.299536
_cell_length_c 5.750733
_cell_angle_alpha 90.000000
_cell_angle_beta 90.000000
_cell_angle_gamma 90.000000
_cell_volume 734.250794
_symmetry_space_group_name_H-M "P 43"
_symmetry_group_IT_number 78
_symmetry_cell_setting 'tetragonal'
loop_
_space_group_symop_operation_xyz
x,y,z
-y,x,3/4+z
-x,-y,1/2+z
y,-x,1/4+z
loop_
_atom_site_type_symbol
_atom_site_label
_atom_site_fract_x
_atom_site_fract_y
_atom_site_fract_z
Si Si1 0.224472 0.951806 0.227690
Si Si2 0.789353 0.856658 0.063477
Si Si3 0.013812 0.601819 0.096786
Si Si4 0.379842 0.380403 0.533719
Si Si5 0.588628 0.182434 0.003143
O O1 0.285446 0.850019 0.387596
O O2 0.161468 0.064280 0.348046
O O3 0.160185 0.886119 0.014630
O O4 0.334636 0.012445 0.092398
O O5 0.695847 0.951077 0.154922
O O6 0.706726 0.736944 0.051800
O O7 0.116096 0.506235 0.096361
O O8 0.885080 0.567289 0.002322
O O9 0.518238 0.361330 0.478725
O O10 0.318886 0.432986 0.298243
#
# Coordination Sequence:
#
# PCOD9541750 Si02
#       5
#     4   4   4   4   4
#     4  11  25  47  78 119 156 213 280 356 428 506
#     4  11  28  47  81 114 171 216 287 355 431 526
#     4  11  23  44  80 108 150 211 286 347 407 504
#     4  12  30  48  71 121 175 223 269 353 442 514
#     4  11  24  44  74 114 148 217 284 339 408 506
#
# _framework density 27.238647
#
# number of rings (size 3 to 8) (size 9 to 14) (size 15 to 20)
#    0.000    0.800    4.000    1.200   14.000    0.000 
#    0.000    0.000    4.400    2.400    0.000    0.000 
#    0.000    0.000    0.000    0.000    0.000    0.000 
#
# Total GULP energy -111635.915364 kJ/mol
# GULP energy per Si atom -5581.795768 kJ/mol
# Density = 2.717665 g / cm^3
# Si number density = 27.238647 Si / 1000 Ang^3
#
#
#
# Elastic Constant Matrix: (Units=GPa)
#
#
# Indices 1 2 3 4 5 6 
#
# 1 108.9250 18.5469 38.2891 0.0000 0.0000 10.9693
# 2 18.5469 108.9250 38.2891 0.0000 0.0000 -10.9693
# 3 38.2891 38.2891 85.9444 0.0000 0.0000 0.0000
# 4 0.0000 0.0000 0.0000 53.4608 0.0000 0.0000
# 5 0.0000 0.0000 0.0000 0.0000 53.4608 0.0000
# 6 10.9693 -10.9693 0.0000 0.0000 0.0000 23.1728
#
#
#
# Elastic Compliance Matrix: (Units=1/GPa)
#
#
# Indices 1 2 3 4 5 6 
#
# 1 0.011606 -0.000895 -0.004772 0.000000 0.000000 -0.005918
# 2 -0.000895 0.011606 -0.004772 0.000000 0.000000 0.005918
# 3 -0.004772 -0.004772 0.015888 0.000000 0.000000 0.000000
# 4 0.000000 0.000000 0.000000 0.018705 0.000000 0.000000
# 5 0.000000 0.000000 0.000000 0.000000 0.018705 0.000000
# 6 -0.005918 0.005918 0.000000 0.000000 0.000000 0.048757
#
#
# Mechanical properties :
#
#
# Convention : Reuss Voigt Hill
#
# Bulk Modulus (GPa) = 54.87790 54.89384 54.88587
# Shear Modulus (GPa) = 32.84726 39.93017 36.38871
#
# Velocity S-wave (km/s) = 3.47638 3.83291 3.65899
# Velocity P-wave (km/s) = 6.02532 6.30753 6.16804
#
# Compressibility (1/GPa) = 0.01822227
#
# Stress axis : x y z
#
# Youngs Moduli (GPa) = 86.15927 86.15927 62.94241
#
# Poissons Ratio (x) = 0.07708 0.30037
# Poissons Ratio (y) = 0.07708 0.30037
# Poissons Ratio (z) = 0.41117 0.41117
#
# Static dielectric constant tensor:
#      x y z
#    x 2.208210 0.000000 0.000000 
#    y 0.000000 2.208210 0.000000 
#    z 0.000000 0.000000 2.293250 
# 
# From -- ./inp_files/111.got.cif
#   From: 2010.05.17/outbox.cif.g08.bks.cpg/sg78_cif.got.tgz:111.got - 2010.06.03 18:45:56.
