data_PCOD9541836
_publ_section_title
;
Structure prediction by ZEFSAII (Michael W. Deem and Ramdas Pophale) SiO2 
 PCOD9541836
Probable space group: I 4
;
_chemical_formula_sum "Si O2"
_cell_formula_units_Z 64
_cell_length_a 20.234341
_cell_length_b 20.234341
_cell_length_c 8.749440
_cell_angle_alpha 90.000000
_cell_angle_beta 90.000000
_cell_angle_gamma 90.000000
_cell_volume 3582.270582
_symmetry_space_group_name_H-M "I 4"
_symmetry_group_IT_number 79
_symmetry_cell_setting 'tetragonal'
loop_
_space_group_symop_operation_xyz
x,y,z
-y,x,z
-x,-y,z
y,-x,z
1/2+x,1/2+y,1/2+z
1/2-y,1/2+x,1/2+z
1/2-x,1/2-y,1/2+z
1/2+y,1/2-x,1/2+z
loop_
_atom_site_type_symbol
_atom_site_label
_atom_site_fract_x
_atom_site_fract_y
_atom_site_fract_z
Si Si1 0.242719 0.659382 0.283950
Si Si2 0.565805 0.323869 0.262894
Si Si3 0.230963 0.336486 0.166407
Si Si4 0.854326 0.236814 0.315669
Si Si5 0.265661 0.627404 0.634656
Si Si6 0.001165 0.816154 0.298961
Si Si7 0.333971 0.572395 0.114494
Si Si8 0.599997 0.540296 0.541166
O O1 0.290526 0.722757 0.269822
O O2 0.171063 0.691564 0.258141
O O3 0.260679 0.630036 0.450161
O O4 0.265759 0.609603 0.152836
O O5 0.590639 0.250945 0.220423
O O6 0.490875 0.336665 0.221763
O O7 0.609234 0.375742 0.162502
O O8 0.570901 0.341740 0.440739
O O9 0.158438 0.305936 0.179512
O O10 0.258253 0.329537 0.992411
O O11 0.818586 0.178550 0.215757
O O12 0.933265 0.227647 0.325233
O O13 0.282663 0.553822 0.689694
O O14 0.033801 0.879562 0.216569
O O15 0.958921 0.835484 0.447136
O O16 0.535276 0.581859 0.504448
#
# Coordination Sequence:
#
# PCOD9541836 Si02
#       8
#     8   8   8   8   8   8   8   8
#     4   9  20  37  58  80 106 146 191 238 281 335
#     4  11  20  37  55  78 108 151 192 226 270 328
#     4   9  19  35  57  79 105 148 187 233 285 333
#     4  10  20  37  57  82 113 145 185 236 290 334
#     4  10  20  36  56  81 113 142 183 238 284 332
#     4  12  24  35  53  82 114 144 183 236 290 338
#     4  11  23  35  56  78 112 149 189 227 273 340
#     4  11  24  37  48  72 112 157 195 225 262 319
#
# _framework density 17.865763000000001
#
# number of rings (size 3 to 8) (size 9 to 14) (size 15 to 20)
#    0.000    1.625    2.500    3.000    7.000    1.250 
#    0.000    0.000    0.000    0.000    0.000    0.875 
#    0.000    0.000    0.000    0.000    0.000    0.000 
#
# Total GULP energy -178181.921031 kJ/mol
# GULP energy per Si atom -5568.185032 kJ/mol
# Density = 1.782510 g / cm^3
# Si number density = 17.865763 Si / 1000 Ang^3
#
#
#
# Elastic Constant Matrix: (Units=GPa)
#
#
# Indices 1 2 3 4 5 6 
#
# 1 59.7584 48.3000 17.5759 0.0000 0.0000 -6.1335
# 2 48.3000 59.7584 17.5759 0.0000 0.0000 6.1335
# 3 17.5759 17.5759 65.9858 0.0000 0.0000 0.0000
# 4 0.0000 0.0000 0.0000 27.1132 0.0000 0.0000
# 5 0.0000 0.0000 0.0000 0.0000 27.1132 0.0000
# 6 -6.1335 6.1335 0.0000 0.0000 0.0000 16.0155
#
#
#
# Elastic Compliance Matrix: (Units=1/GPa)
#
#
# Indices 1 2 3 4 5 6 
#
# 1 0.079025 -0.068893 -0.002699 0.000000 0.000000 0.056648
# 2 -0.068893 0.079025 -0.002699 0.000000 0.000000 -0.056648
# 3 -0.002699 -0.002699 0.016592 0.000000 0.000000 0.000000
# 4 0.000000 0.000000 0.000000 0.036882 0.000000 0.000000
# 5 0.000000 0.000000 0.000000 0.000000 0.036882 0.000000
# 6 0.056648 -0.056648 0.000000 0.000000 0.000000 0.105829
#
#
# Mechanical properties :
#
#
# Convention : Reuss Voigt Hill
#
# Bulk Modulus (GPa) = 38.37056 39.15625 38.76341
# Shear Modulus (GPa) = 9.77508 20.85175 15.31341
#
# Velocity S-wave (km/s) = 2.34164 3.42004 2.93087
# Velocity P-wave (km/s) = 5.36981 6.12863 5.76172
#
# Compressibility (1/GPa) = 0.02606165
#
# Stress axis : x y z
#
# Youngs Moduli (GPa) = 12.65418 12.65418 60.26823
#
# Poissons Ratio (x) = 0.87179 0.16265
# Poissons Ratio (y) = 0.87179 0.16265
# Poissons Ratio (z) = 0.03415 0.03415
#
# Static dielectric constant tensor:
#      x y z
#    x 1.652490 0.000000 0.000000 
#    y 0.000000 1.652490 0.000000 
#    z 0.000000 0.000000 1.696930 
# 
# From -- ./inp_files/798.got.cif
#   From: 2010.05.17/outbox.cif.g08.bks.cpg/sg79_cif.got.tgz:798.got - 2010.06.03 18:47:27.
