data_PCOD9541368
_publ_section_title
;
Structure prediction by ZEFSAII (Michael W. Deem and Ramdas Pophale) SiO2 
 PCOD9541368
Probable space group: P 41
;
_chemical_formula_sum "Si O2"
_cell_formula_units_Z 20
_cell_length_a 12.028604
_cell_length_b 12.028604
_cell_length_c 6.650333
_cell_angle_alpha 90.000000
_cell_angle_beta 90.000000
_cell_angle_gamma 90.000000
_cell_volume 962.218820
_symmetry_space_group_name_H-M "P 41"
_symmetry_group_IT_number 76
_symmetry_cell_setting 'tetragonal'
loop_
_space_group_symop_operation_xyz
x,y,z
-y,x,1/4+z
-x,-y,1/2+z
y,-x,3/4+z
loop_
_atom_site_type_symbol
_atom_site_label
_atom_site_fract_x
_atom_site_fract_y
_atom_site_fract_z
Si Si1 0.725434 0.862099 0.186910
Si Si2 0.636869 0.450316 0.359105
Si Si3 0.857357 0.508418 0.164610
Si Si4 0.894740 0.710246 0.437999
Si Si5 0.242067 0.317687 0.351209
O O1 0.605015 0.882988 0.293017
O O2 0.800803 0.781369 0.323344
O O3 0.772555 0.987114 0.180832
O O4 0.727473 0.795842 0.973111
O O5 0.591053 0.569077 0.419526
O O6 0.763828 0.463273 0.313120
O O7 0.626578 0.356859 0.527497
O O8 0.919464 0.594323 0.315770
O O9 0.812717 0.594380 0.000094
O O10 0.841038 0.694853 0.660159
#
# Coordination Sequence:
#
# PCOD9541368 Si02
#       5
#     4   4   4   4   4
#     4  11  26  46  70 102 137 181 242 289 349 423
#     4  12  20  35  61  96 140 179 216 269 344 428
#     4  11  23  41  65 102 134 176 231 282 345 421
#     4  11  26  47  69 101 138 185 234 295 352 411
#     4  11  23  43  65  97 139 181 225 285 350 413
#
# _framework density 20.785292999999999
#
# number of rings (size 3 to 8) (size 9 to 14) (size 15 to 20)
#    0.000    0.800    4.000    3.600    2.800    3.200 
#    3.600    0.000    0.000    0.000    0.000    0.000 
#    0.000    0.000    0.000    0.000    0.000    0.000 
#
# Total GULP energy -111387.279931 kJ/mol
# GULP energy per Si atom -5569.363997 kJ/mol
# Density = 2.073799 g / cm^3
# Si number density = 20.785293 Si / 1000 Ang^3
#
#
#
# Elastic Constant Matrix: (Units=GPa)
#
#
# Indices 1 2 3 4 5 6 
#
# 1 72.0398 8.9292 6.8519 0.0000 0.0000 -1.5874
# 2 8.9292 72.0398 6.8519 0.0000 0.0000 1.5874
# 3 6.8519 6.8519 56.3953 0.0000 0.0000 0.0000
# 4 0.0000 0.0000 0.0000 17.6138 0.0000 0.0000
# 5 0.0000 0.0000 0.0000 0.0000 17.6138 0.0000
# 6 -1.5874 1.5874 0.0000 0.0000 0.0000 -1.9333
#
#
#
# Elastic Compliance Matrix: (Units=1/GPa)
#
#
# Indices 1 2 3 4 5 6 
#
# 1 0.013913 -0.001303 -0.001532 0.000000 0.000000 -0.012494
# 2 -0.001303 0.013913 -0.001532 0.000000 0.000000 0.012494
# 3 -0.001532 -0.001532 0.018104 0.000000 0.000000 0.000000
# 4 0.000000 0.000000 0.000000 0.056774 0.000000 0.000000
# 5 0.000000 0.000000 0.000000 0.000000 0.056774 0.000000
# 6 -0.012494 0.012494 0.000000 0.000000 0.000000 -0.496731
#
#
# Mechanical properties :
#
#
# Convention : Reuss Voigt Hill
#
# Bulk Modulus (GPa) = 26.88501 27.30455 27.09478
# Shear Modulus (GPa) = -15.81683 18.51497 1.34907
#
# Velocity S-wave (km/s) = -2.76155 2.98782 0.80651
# Velocity P-wave (km/s) = 1.67168 5.00677 3.73244
#
# Compressibility (1/GPa) = 0.03719545
#
# Stress axis : x y z
#
# Youngs Moduli (GPa) = 71.87425 71.87425 55.23562
#
# Poissons Ratio (x) = 0.09369 0.08462
# Poissons Ratio (y) = 0.09369 0.08462
# Poissons Ratio (z) = 0.11012 0.11012
#
# Static dielectric constant tensor:
#      x y z
#    x 1.804460 0.000000 0.000000 
#    y 0.000000 1.804460 0.000000 
#    z 0.000000 0.000000 1.793890 
# 
# From -- ./inp_files/103.got.cif
#   From: 2010.05.17/outbox.cif.g08.bks.cpg/sg76_cif.got.tgz:103.got - 2010.06.03 18:43:17.
