data_PCOD9541948
_publ_section_title
;
Structure prediction by ZEFSAII (Michael W. Deem and Ramdas Pophale) SiO2 
 PCOD9541948
Probable space group: I 4
;
_chemical_formula_sum "Si O2"
_cell_formula_units_Z 64
_cell_length_a 23.876769
_cell_length_b 23.876769
_cell_length_c 6.343805
_cell_angle_alpha 90.000000
_cell_angle_beta 90.000000
_cell_angle_gamma 90.000000
_cell_volume 3616.603851
_symmetry_space_group_name_H-M "I 4"
_symmetry_group_IT_number 79
_symmetry_cell_setting 'tetragonal'
loop_
_space_group_symop_operation_xyz
x,y,z
-y,x,z
-x,-y,z
y,-x,z
1/2+x,1/2+y,1/2+z
1/2-y,1/2+x,1/2+z
1/2-x,1/2-y,1/2+z
1/2+y,1/2-x,1/2+z
loop_
_atom_site_type_symbol
_atom_site_label
_atom_site_fract_x
_atom_site_fract_y
_atom_site_fract_z
Si Si1 0.807302 0.822970 0.238920
Si Si2 0.273068 0.089772 0.068407
Si Si3 0.436621 0.118262 0.539109
Si Si4 0.841415 0.664745 0.263533
Si Si5 0.486386 0.211385 0.249585
Si Si6 0.887129 0.761727 0.521373
Si Si7 0.965705 0.363745 0.364129
Si Si8 0.801650 0.738826 0.890244
O O1 0.779463 0.883545 0.197009
O O2 0.860641 0.814833 0.394085
O O3 0.761197 0.777592 0.324563
O O4 0.816338 0.796522 0.008822
O O5 0.320362 0.074427 0.239113
O O6 0.297056 0.140447 0.925703
O O7 0.267109 0.036316 0.907441
O O8 0.381325 0.116452 0.683839
O O9 0.444950 0.172502 0.390291
O O10 0.423028 0.064560 0.402414
O O11 0.486701 0.121310 0.698377
O O12 0.883417 0.711615 0.352651
O O13 0.814874 0.690214 0.055309
O O14 0.447572 0.258644 0.135112
O O15 0.510270 0.170723 0.065179
O O16 0.841206 0.741869 0.690273
#
# Coordination Sequence:
#
# PCOD9541948 Si02
#       8
#     8   8   8   8   8   8   8   8
#     4  11  21  31  50  83 110 136 178 235 285 347
#     4  11  23  35  55  81 102 143 192 239 286 353
#     4  11  22  37  55  75  94 137 189 251 297 347
#     4  11  19  32  57  75 104 134 182 240 284 346
#     4  11  23  39  56  75 103 148 191 240 291 345
#     4  11  21  33  52  78 112 139 181 235 295 345
#     4  11  24  38  59  70  99 137 194 246 305 347
#     4  11  19  31  53  81 109 138 171 231 291 342
#
# _framework density 17.696161
#
# number of rings (size 3 to 8) (size 9 to 14) (size 15 to 20)
#    0.000    1.000    6.250    2.250    0.000    0.000 
#    0.000    1.875    0.000    0.000    0.000    0.000 
#    0.000    0.000    0.000    0.000    0.000   43.750 
#
# Total GULP energy -178162.621855 kJ/mol
# GULP energy per Si atom -5567.581933 kJ/mol
# Density = 1.765588 g / cm^3
# Si number density = 17.696161 Si / 1000 Ang^3
#
#
#
# Elastic Constant Matrix: (Units=GPa)
#
#
# Indices 1 2 3 4 5 6 
#
# 1 62.2471 35.9599 29.0772 0.0000 0.0000 -0.5694
# 2 35.9599 62.2471 29.0772 0.0000 0.0000 0.5694
# 3 29.0772 29.0772 79.8988 0.0000 0.0000 0.0000
# 4 0.0000 0.0000 0.0000 23.4006 0.0000 0.0000
# 5 0.0000 0.0000 0.0000 0.0000 23.4006 0.0000
# 6 -0.5694 0.5694 0.0000 0.0000 0.0000 27.4857
#
#
#
# Elastic Compliance Matrix: (Units=1/GPa)
#
#
# Indices 1 2 3 4 5 6 
#
# 1 0.025528 -0.012548 -0.004724 0.000000 0.000000 0.000789
# 2 -0.012548 0.025528 -0.004724 0.000000 0.000000 -0.000789
# 3 -0.004724 -0.004724 0.015954 0.000000 0.000000 0.000000
# 4 0.000000 0.000000 0.000000 0.042734 0.000000 0.000000
# 5 0.000000 0.000000 0.000000 0.000000 0.042734 0.000000
# 6 0.000789 -0.000789 0.000000 0.000000 0.000000 0.036415
#
#
# Mechanical properties :
#
#
# Convention : Reuss Voigt Hill
#
# Bulk Modulus (GPa) = 43.44276 43.62464 43.53370
# Shear Modulus (GPa) = 20.78521 22.20929 21.49725
#
# Velocity S-wave (km/s) = 3.43090 3.54649 3.48918
# Velocity P-wave (km/s) = 6.34802 6.44016 6.39426
#
# Compressibility (1/GPa) = 0.02301880
#
# Stress axis : x y z
#
# Youngs Moduli (GPa) = 39.17325 39.17325 62.68038
#
# Poissons Ratio (x) = 0.49154 0.29608
# Poissons Ratio (y) = 0.49154 0.29608
# Poissons Ratio (z) = 0.18504 0.18504
#
# Static dielectric constant tensor:
#      x y z
#    x 1.666800 0.000000 0.000000 
#    y 0.000000 1.666800 0.000000 
#    z 0.000000 0.000000 1.653490 
# 
# From -- ./inp_files/301.got.cif
#   From: 2010.05.17/outbox.cif.g08.bks.cpg/sg79_cif.got.tgz:301.got - 2010.06.03 18:47:27.
