data_PCOD9541913
_publ_section_title
;
Structure prediction by ZEFSAII (Michael W. Deem and Ramdas Pophale) SiO2 
 PCOD9541913
Probable space group: I 4
;
_chemical_formula_sum "Si O2"
_cell_formula_units_Z 40
_cell_length_a 12.571232
_cell_length_b 12.571232
_cell_length_c 9.835517
_cell_angle_alpha 90.000000
_cell_angle_beta 90.000000
_cell_angle_gamma 90.000000
_cell_volume 1554.364525
_symmetry_space_group_name_H-M "I 4"
_symmetry_group_IT_number 79
_symmetry_cell_setting 'tetragonal'
loop_
_space_group_symop_operation_xyz
x,y,z
-y,x,z
-x,-y,z
y,-x,z
1/2+x,1/2+y,1/2+z
1/2-y,1/2+x,1/2+z
1/2-x,1/2-y,1/2+z
1/2+y,1/2-x,1/2+z
loop_
_atom_site_type_symbol
_atom_site_label
_atom_site_fract_x
_atom_site_fract_y
_atom_site_fract_z
Si Si1 0.329559 0.736717 0.593210
Si Si2 0.826287 0.357000 0.383764
Si Si3 0.524525 0.676746 0.206709
Si Si4 0.350913 0.577128 0.786535
Si Si5 0.060172 0.339381 0.457847
O O1 0.224949 0.713212 0.504092
O O2 0.322693 0.785318 0.745655
O O3 0.365527 0.616434 0.630261
O O4 0.391710 0.832118 0.517098
O O5 0.749558 0.452194 0.337309
O O6 0.946738 0.390380 0.420585
O O7 0.413197 0.615903 0.205967
O O8 0.535400 0.753649 0.077172
O O9 0.367505 0.457250 0.840723
O O10 0.229282 0.595078 0.826969
#
# Coordination Sequence:
#
# PCOD9541913 Si02
#       5
#     8   8   8   8   8
#     4  11  22  39  66 106 147 191 245 315 384 465
#     4  11  23  41  70 111 148 202 250 323 391 467
#     4  10  22  41  72 113 157 203 258 322 389 463
#     4  11  21  37  67 106 137 177 248 320 373 442
#     4  11  20  41  70 108 145 201 251 305 396 478
#
# _framework density 25.733991
#
# number of rings (size 3 to 8) (size 9 to 14) (size 15 to 20)
#    0.000    1.200    4.000    3.600    0.000    3.200 
#    0.000    2.000    0.000    4.800   10.400    0.000 
#    0.000    0.000    0.000    0.000    0.000    0.000 
#
# Total GULP energy -111359.613925 kJ/mol
# GULP energy per Si atom -5567.980696 kJ/mol
# Density = 2.567542 g / cm^3
# Si number density = 25.733991 Si / 1000 Ang^3
#
#
#
# Elastic Constant Matrix: (Units=GPa)
#
#
# Indices 1 2 3 4 5 6 
#
# 1 78.1084 22.2548 55.2872 0.0000 0.0000 -4.3362
# 2 22.2548 78.1084 55.2872 0.0000 0.0000 4.3362
# 3 55.2872 55.2872 105.7231 0.0000 0.0000 0.0000
# 4 0.0000 0.0000 0.0000 41.9349 0.0000 0.0000
# 5 0.0000 0.0000 0.0000 0.0000 41.9349 0.0000
# 6 -4.3362 4.3362 0.0000 0.0000 0.0000 44.3339
#
#
#
# Elastic Compliance Matrix: (Units=1/GPa)
#
#
# Indices 1 2 3 4 5 6 
#
# 1 0.020844 0.002664 -0.012293 0.000000 0.000000 0.001778
# 2 0.002664 0.020844 -0.012293 0.000000 0.000000 -0.001778
# 3 -0.012293 -0.012293 0.022316 0.000000 0.000000 0.000000
# 4 0.000000 0.000000 0.000000 0.023847 0.000000 0.000000
# 5 0.000000 0.000000 0.000000 0.000000 0.023847 0.000000
# 6 0.001778 -0.001778 0.000000 0.000000 0.000000 0.022904
#
#
# Mechanical properties :
#
#
# Convention : Reuss Voigt Hill
#
# Bulk Modulus (GPa) = 49.60655 58.62204 54.11429
# Shear Modulus (GPa) = 27.00284 34.24810 30.62547
#
# Velocity S-wave (km/s) = 3.24281 3.65204 3.45349
# Velocity P-wave (km/s) = 5.77405 6.37281 6.08080
#
# Compressibility (1/GPa) = 0.02015863
#
# Stress axis : x y z
#
# Youngs Moduli (GPa) = 47.97557 47.97557 44.81082
#
# Poissons Ratio (x) = -0.12780 0.55087
# Poissons Ratio (y) = -0.12780 0.55087
# Poissons Ratio (z) = 0.58978 0.58978
#
# Static dielectric constant tensor:
#      x y z
#    x 2.181990 0.000000 0.000000 
#    y 0.000000 2.181990 0.000000 
#    z 0.000000 0.000000 2.044820 
# 
# From -- ./inp_files/534.got.cif
#   From: 2010.05.17/outbox.cif.g08.bks.cpg/sg79_cif.got.tgz:534.got - 2010.06.03 18:47:27.
