data_PCOD9541437
_publ_section_title
;
Structure prediction by ZEFSAII (Michael W. Deem and Ramdas Pophale) SiO2 
 PCOD9541437
Probable space group: P 41
;
_chemical_formula_sum "Si O2"
_cell_formula_units_Z 20
_cell_length_a 9.651481
_cell_length_b 9.651481
_cell_length_c 8.989682
_cell_angle_alpha 90.000000
_cell_angle_beta 90.000000
_cell_angle_gamma 90.000000
_cell_volume 837.398637
_symmetry_space_group_name_H-M "P 41"
_symmetry_group_IT_number 76
_symmetry_cell_setting 'tetragonal'
loop_
_space_group_symop_operation_xyz
x,y,z
-y,x,1/4+z
-x,-y,1/2+z
y,-x,3/4+z
loop_
_atom_site_type_symbol
_atom_site_label
_atom_site_fract_x
_atom_site_fract_y
_atom_site_fract_z
Si Si1 0.907948 0.422273 0.266700
Si Si2 0.198884 0.460003 0.381872
Si Si3 0.614923 0.614317 0.619809
Si Si4 0.240041 0.299849 0.653615
Si Si5 0.153831 0.048218 0.845193
O O1 0.774915 0.352009 0.342580
O O2 0.833825 0.559576 0.204979
O O3 0.970293 0.312405 0.149605
O O4 0.033771 0.468324 0.371121
O O5 0.262645 0.446557 0.218899
O O6 0.235882 0.323482 0.476596
O O7 0.270960 0.599631 0.444202
O O8 0.476078 0.602335 0.720416
O O9 0.156806 0.177467 0.730944
O O10 0.085892 0.928572 0.745739
#
# Coordination Sequence:
#
# PCOD9541437 Si02
#       5
#     4   4   4   4   4
#     4  12  28  48  79 113 160 206 267 329 399 486
#     4  12  27  47  79 118 156 211 264 333 406 476
#     4  12  26  46  79 117 162 208 273 339 408 474
#     4  12  26  49  77 117 158 204 267 334 397 471
#     4  12  29  54  82 121 166 211 265 337 410 487
#
# _framework density 23.883489000000001
#
# number of rings (size 3 to 8) (size 9 to 14) (size 15 to 20)
#    0.000    0.000    4.000    4.800    5.600    1.600 
#    0.000    0.000    0.000    0.000    0.000    0.000 
#    0.000    0.000    0.000    0.000    0.000    0.000 
#
# Total GULP energy -111878.680884 kJ/mol
# GULP energy per Si atom -5593.934044 kJ/mol
# Density = 2.382913 g / cm^3
# Si number density = 23.883489 Si / 1000 Ang^3
#
#
#
# Elastic Constant Matrix: (Units=GPa)
#
#
# Indices 1 2 3 4 5 6 
#
# 1 139.0482 26.0956 38.3418 0.0000 0.0000 5.5964
# 2 26.0956 139.0482 38.3418 0.0000 0.0000 -5.5964
# 3 38.3418 38.3418 96.2138 0.0000 0.0000 0.0000
# 4 0.0000 0.0000 0.0000 43.8490 0.0000 0.0000
# 5 0.0000 0.0000 0.0000 0.0000 43.8490 0.0000
# 6 5.5964 -5.5964 0.0000 0.0000 0.0000 24.8030
#
#
#
# Elastic Compliance Matrix: (Units=1/GPa)
#
#
# Indices 1 2 3 4 5 6 
#
# 1 0.008243 -0.000813 -0.002961 0.000000 0.000000 -0.002043
# 2 -0.000813 0.008243 -0.002961 0.000000 0.000000 0.002043
# 3 -0.002961 -0.002961 0.012753 0.000000 0.000000 0.000000
# 4 0.000000 0.000000 0.000000 0.022806 0.000000 0.000000
# 5 0.000000 0.000000 0.000000 0.000000 0.022806 0.000000
# 6 -0.002043 0.002043 0.000000 0.000000 0.000000 0.041240
#
#
# Mechanical properties :
#
#
# Convention : Reuss Voigt Hill
#
# Bulk Modulus (GPa) = 63.41164 64.42983 63.92073
# Shear Modulus (GPa) = 37.08746 40.60226 38.84486
#
# Velocity S-wave (km/s) = 3.94490 4.12760 4.03728
# Velocity P-wave (km/s) = 6.88169 7.05346 6.96811
#
# Compressibility (1/GPa) = 0.01576998
#
# Stress axis : x y z
#
# Youngs Moduli (GPa) = 121.31506 121.31506 78.41007
#
# Poissons Ratio (x) = 0.09860 0.23217
# Poissons Ratio (y) = 0.09860 0.23217
# Poissons Ratio (z) = 0.35921 0.35921
#
# Static dielectric constant tensor:
#      x y z
#    x 1.905290 0.000000 0.000000 
#    y 0.000000 1.905290 0.000000 
#    z 0.000000 0.000000 1.993400 
# 
# From -- ./inp_files/433.got.cif
#   From: 2010.05.17/outbox.cif.g08.bks.cpg/sg76_cif.got.tgz:433.got - 2010.06.03 18:43:17.
