data_PCOD9541569
_publ_section_title
;
Structure prediction by ZEFSAII (Michael W. Deem and Ramdas Pophale) SiO2 
 PCOD9541569
Probable space group: P 42
;
_chemical_formula_sum "Si O2"
_cell_formula_units_Z 20
_cell_length_a 6.847993
_cell_length_b 6.847993
_cell_length_c 13.641088
_cell_angle_alpha 90.000000
_cell_angle_beta 90.000000
_cell_angle_gamma 90.000000
_cell_volume 639.698933
_symmetry_space_group_name_H-M "P 42"
_symmetry_group_IT_number 77
_symmetry_cell_setting 'tetragonal'
loop_
_space_group_symop_operation_xyz
x,y,z
-y,x,1/2+z
-x,-y,z
y,-x,1/2+z
loop_
_atom_site_type_symbol
_atom_site_label
_atom_site_fract_x
_atom_site_fract_y
_atom_site_fract_z
Si Si1 0.122040 0.848777 0.875000
Si Si2 0.832066 0.220193 0.645795
Si Si3 0.500000 0.000000 0.514551
Si Si4 0.252296 0.318257 0.650994
Si Si5 0.848368 0.370287 0.363900
Si Si6 0.500000 0.500000 0.499570
O O1 0.120837 0.831583 0.757137
O O2 0.377457 0.899834 0.872916
O O3 0.128982 0.096381 0.893909
O O4 0.079981 0.321892 0.090877
O O5 0.894581 0.355715 0.931378
O O6 0.053752 0.229808 0.603921
O O7 0.583512 0.668910 0.569506
O O8 0.333819 0.230098 0.752107
O O9 0.220311 0.551679 0.658517
O O10 0.667617 0.399209 0.437556
#
# Coordination Sequence:
#
# PCOD9541569 Si02
#       6
#     4   4   2   4   4   2
#     4  12  30  60  95 140 204 272 347 443 533 640
#     4  11  29  60  95 141 200 274 352 439 528 635
#     4  12  32  60 106 154 210 278 366 448 548 660
#     4  11  28  61  92 138 202 266 339 429 524 624
#     4  12  32  59  91 142 201 267 343 428 532 636
#     4  12  32  54  98 144 198 272 352 434 520 644
#
# _framework density 31.264710999999998
#
# number of rings (size 3 to 8) (size 9 to 14) (size 15 to 20)
#    0.000    0.400    2.000    1.800   15.400    0.800 
#    3.600    0.000    0.000    0.000    0.000    0.000 
#    0.000    0.000    0.000    0.000    0.000    0.000 
#
# Total GULP energy -111888.930086 kJ/mol
# GULP energy per Si atom -5594.446504 kJ/mol
# Density = 3.119355 g / cm^3
# Si number density = 31.264711 Si / 1000 Ang^3
#
#
#
# Elastic Constant Matrix: (Units=GPa)
#
#
# Indices 1 2 3 4 5 6 
#
# 1 278.4226 179.2782 125.7570 0.0000 0.0000 -1.6026
# 2 179.2782 278.4226 125.7570 0.0000 0.0000 1.6026
# 3 125.7570 125.7570 244.4394 0.0000 0.0000 0.0000
# 4 0.0000 0.0000 0.0000 150.1638 0.0000 0.0000
# 5 0.0000 0.0000 0.0000 0.0000 150.1638 0.0000
# 6 -1.6026 1.6026 0.0000 0.0000 0.0000 117.5077
#
#
#
# Elastic Compliance Matrix: (Units=1/GPa)
#
#
# Indices 1 2 3 4 5 6 
#
# 1 0.006568 -0.003522 -0.001567 0.000000 0.000000 0.000138
# 2 -0.003522 0.006568 -0.001567 0.000000 0.000000 -0.000138
# 3 -0.001567 -0.001567 0.005703 0.000000 0.000000 0.000000
# 4 0.000000 0.000000 0.000000 0.006659 0.000000 0.000000
# 5 0.000000 0.000000 0.000000 0.000000 0.006659 0.000000
# 6 0.000138 -0.000138 0.000000 0.000000 0.000000 0.008514
#
#
# Mechanical properties :
#
#
# Convention : Reuss Voigt Hill
#
# Bulk Modulus (GPa) = 180.92700 184.76321 182.84511
# Shear Modulus (GPa) = 89.56064 108.26656 98.91360
#
# Velocity S-wave (km/s) = 5.35799 5.89102 5.63082
# Velocity P-wave (km/s) = 9.81186 10.27117 10.04414
#
# Compressibility (1/GPa) = 0.00552709
#
# Stress axis : x y z
#
# Youngs Moduli (GPa) = 152.24525 152.24525 175.33394
#
# Poissons Ratio (x) = 0.53627 0.27476
# Poissons Ratio (y) = 0.53627 0.27476
# Poissons Ratio (z) = 0.23858 0.23858
#
# Static dielectric constant tensor:
#      x y z
#    x 0.833800 0.000000 0.000000 
#    y 0.000000 0.833800 0.000000 
#    z 0.000000 0.000000 2.211110 
# 
# From -- ./inp_files/806.got.cif
#   From: 2010.05.17/outbox.cif.g08.bks.cpg/sg77_cif.got.tgz:806.got - 2010.06.03 18:44:51.
