data_PCOD9541054
_publ_section_title
;
Structure prediction by ZEFSAII (Michael W. Deem and Ramdas Pophale) SiO2 
 PCOD9541054
Probable space group: P 4
;
_chemical_formula_sum "Si O2"
_cell_formula_units_Z 23
_cell_length_a 8.316212
_cell_length_b 8.316212
_cell_length_c 14.374134
_cell_angle_alpha 90.000000
_cell_angle_beta 90.000000
_cell_angle_gamma 90.000000
_cell_volume 994.106225
_symmetry_space_group_name_H-M "P 4"
_symmetry_group_IT_number 75
_symmetry_cell_setting 'tetragonal'
loop_
_space_group_symop_operation_xyz
x,y,z
-y,x,z
-x,-y,z
y,-x,z
loop_
_atom_site_type_symbol
_atom_site_label
_atom_site_fract_x
_atom_site_fract_y
_atom_site_fract_z
Si Si1 0.500000 0.000000 0.418960
Si Si2 0.544326 0.237905 0.268028
Si Si3 0.624472 0.887264 0.085010
Si Si4 0.582105 0.756124 0.565496
Si Si5 0.366460 0.274882 0.901132
Si Si6 0.754500 0.899877 0.733648
Si Si7 0.000000 0.000000 0.118009
O O1 0.592118 0.109607 0.345072
O O2 0.394410 0.111791 0.485602
O O3 0.675163 0.374366 0.282088
O O4 0.500473 0.166017 0.167104
O O5 0.500000 0.000000 0.028000
O O6 0.659424 0.748024 0.010856
O O7 0.799780 0.956548 0.115443
O O8 0.399851 0.693976 0.555531
O O9 0.618715 0.834551 0.664801
O O10 0.553842 0.289517 0.876023
O O11 0.289810 0.133888 0.840344
O O12 0.916500 0.798270 0.715029
#
# Coordination Sequence:
#
# PCOD9541054 Si02
#       7
#     2   4   4   4   4   4   1
#     4  12  24  42  72 106 138 180 240 304 378 460
#     4  11  24  46  73 106 148 195 246 308 383 462
#     4  12  26  47  72 110 154 205 259 327 383 455
#     4  11  24  46  73 102 139 186 239 299 372 457
#     4  11  25  43  68 104 145 201 258 311 376 451
#     4  11  26  44  70 105 147 189 242 309 377 450
#     4  12  28  44  80 112 156 214 276 328 396 460
#
# _framework density 23.136358000000001
#
# number of rings (size 3 to 8) (size 9 to 14) (size 15 to 20)
#    0.000    0.696    0.870    6.261    4.870    5.565 
#    0.000    0.000    0.000    2.087    0.000    0.000 
#    0.000    0.000    0.000    0.000    0.000    0.000 
#
# Total GULP energy -128176.063415 kJ/mol
# GULP energy per Si atom -5572.872322 kJ/mol
# Density = 2.308370 g / cm^3
# Si number density = 23.136358 Si / 1000 Ang^3
#
#
#
# Elastic Constant Matrix: (Units=GPa)
#
#
# Indices 1 2 3 4 5 6 
#
# 1 101.0041 26.5137 29.6319 0.0000 0.0000 -2.1458
# 2 26.5137 101.0041 29.6319 0.0000 0.0000 2.1458
# 3 29.6319 29.6319 112.4936 0.0000 0.0000 0.0000
# 4 0.0000 0.0000 0.0000 31.7755 0.0000 0.0000
# 5 0.0000 0.0000 0.0000 0.0000 31.7755 0.0000
# 6 -2.1458 2.1458 0.0000 0.0000 0.0000 16.6781
#
#
#
# Elastic Compliance Matrix: (Units=1/GPa)
#
#
# Indices 1 2 3 4 5 6 
#
# 1 0.011230 -0.002294 -0.002354 0.000000 0.000000 0.001740
# 2 -0.002294 0.011230 -0.002354 0.000000 0.000000 -0.001740
# 3 -0.002354 -0.002354 0.010129 0.000000 0.000000 0.000000
# 4 0.000000 0.000000 0.000000 0.031471 0.000000 0.000000
# 5 0.000000 0.000000 0.000000 0.000000 0.031471 0.000000
# 6 0.001740 -0.001740 0.000000 0.000000 0.000000 0.060407
#
#
# Mechanical properties :
#
#
# Convention : Reuss Voigt Hill
#
# Bulk Modulus (GPa) = 53.80368 54.00635 53.90501
# Shear Modulus (GPa) = 28.38684 31.29411 29.84047
#
# Velocity S-wave (km/s) = 3.50657 3.68175 3.59523
# Velocity P-wave (km/s) = 6.30081 6.43949 6.37053
#
# Compressibility (1/GPa) = 0.01858609
#
# Stress axis : x y z
#
# Youngs Moduli (GPa) = 89.04412 89.04412 98.72213
#
# Poissons Ratio (x) = 0.20430 0.23237
# Poissons Ratio (y) = 0.20430 0.23237
# Poissons Ratio (z) = 0.20959 0.20959
#
# Static dielectric constant tensor:
#      x y z
#    x 2.103410 0.000000 0.000000 
#    y 0.000000 2.103410 0.000000 
#    z 0.000000 0.000000 1.884740 
# 
# From -- ./inp_files/695.got.cif
#   From: 2010.05.17/outbox.cif.g08.bks.cpg/sg75_cif.got.tgz:695.got - 2010.06.03 18:42:43.
