data_PCOD9541983
_publ_section_title
;
Structure prediction by ZEFSAII (Michael W. Deem and Ramdas Pophale) SiO2 
 PCOD9541983
Probable space group: I 4
;
_chemical_formula_sum "Si O2"
_cell_formula_units_Z 40
_cell_length_a 16.238730
_cell_length_b 16.238730
_cell_length_c 6.669649
_cell_angle_alpha 90.000000
_cell_angle_beta 90.000000
_cell_angle_gamma 90.000000
_cell_volume 1758.762111
_symmetry_space_group_name_H-M "I 4"
_symmetry_group_IT_number 79
_symmetry_cell_setting 'tetragonal'
loop_
_space_group_symop_operation_xyz
x,y,z
-y,x,z
-x,-y,z
y,-x,z
1/2+x,1/2+y,1/2+z
1/2-y,1/2+x,1/2+z
1/2-x,1/2-y,1/2+z
1/2+y,1/2-x,1/2+z
loop_
_atom_site_type_symbol
_atom_site_label
_atom_site_fract_x
_atom_site_fract_y
_atom_site_fract_z
Si Si1 0.516484 0.802067 0.729340
Si Si2 0.333085 0.224728 0.431698
Si Si3 0.363448 0.473059 0.917413
Si Si4 0.878943 0.228238 0.734745
Si Si5 0.627103 0.877211 0.042572
O O1 0.588064 0.787380 0.570425
O O2 0.470506 0.714835 0.766798
O O3 0.553033 0.829934 0.941135
O O4 0.463029 0.879077 0.655374
O O5 0.259375 0.179851 0.552140
O O6 0.321615 0.320431 0.384818
O O7 0.339822 0.181136 0.217750
O O8 0.437021 0.406055 0.895694
O O9 0.323130 0.452265 0.134960
O O10 0.899445 0.308867 0.864216
#
# Coordination Sequence:
#
# PCOD9541983 Si02
#       5
#     8   8   8   8   8
#     4  11  27  45  75 103 147 196 247 304 369 443
#     4  11  23  43  74 106 139 190 250 306 351 437
#     4  11  26  47  70 108 156 189 233 305 376 443
#     4  11  23  42  73 107 139 190 252 298 359 436
#     4  11  25  45  71 106 141 186 249 304 365 435
#
# _framework density 22.743269000000002
#
# number of rings (size 3 to 8) (size 9 to 14) (size 15 to 20)
#    0.000    1.000    4.000    1.200   11.200    0.000 
#    0.000    3.000    0.000    0.000    0.000    0.000 
#    0.000    0.000    0.000    0.000    0.000    0.000 
#
# Total GULP energy -111665.897686 kJ/mol
# GULP energy per Si atom -5583.294884 kJ/mol
# Density = 2.269150 g / cm^3
# Si number density = 22.743269 Si / 1000 Ang^3
#
#
#
# Elastic Constant Matrix: (Units=GPa)
#
#
# Indices 1 2 3 4 5 6 
#
# 1 74.4682 38.9408 28.6019 0.0000 0.0000 -3.2812
# 2 38.9408 74.4682 28.6019 0.0000 0.0000 3.2812
# 3 28.6019 28.6019 98.7241 0.0000 0.0000 0.0000
# 4 0.0000 0.0000 0.0000 32.4284 0.0000 0.0000
# 5 0.0000 0.0000 0.0000 0.0000 32.4284 0.0000
# 6 -3.2812 3.2812 0.0000 0.0000 0.0000 28.3805
#
#
#
# Elastic Compliance Matrix: (Units=1/GPa)
#
#
# Indices 1 2 3 4 5 6 
#
# 1 0.019544 -0.009217 -0.002992 0.000000 0.000000 0.003325
# 2 -0.009217 0.019544 -0.002992 0.000000 0.000000 -0.003325
# 3 -0.002992 -0.002992 0.011863 0.000000 0.000000 0.000000
# 4 0.000000 0.000000 0.000000 0.030837 0.000000 0.000000
# 5 0.000000 0.000000 0.000000 0.000000 0.030837 0.000000
# 6 0.003325 -0.003325 0.000000 0.000000 0.000000 0.036004
#
#
# Mechanical properties :
#
#
# Convention : Reuss Voigt Hill
#
# Bulk Modulus (GPa) = 48.66419 48.88328 48.77373
# Shear Modulus (GPa) = 26.89887 28.74851 27.82369
#
# Velocity S-wave (km/s) = 3.44280 3.55920 3.50148
# Velocity P-wave (km/s) = 6.10307 6.19925 6.15135
#
# Compressibility (1/GPa) = 0.02054899
#
# Stress axis : x y z
#
# Youngs Moduli (GPa) = 51.16632 51.16632 84.29721
#
# Poissons Ratio (x) = 0.47162 0.25220
# Poissons Ratio (y) = 0.47162 0.25220
# Poissons Ratio (z) = 0.15308 0.15308
#
# Static dielectric constant tensor:
#      x y z
#    x 1.890330 0.000000 0.000000 
#    y 0.000000 1.890330 0.000000 
#    z 0.000000 0.000000 1.821410 
# 
# From -- ./inp_files/117.got.cif
#   From: 2010.05.17/outbox.cif.g08.bks.cpg/sg79_cif.got.tgz:117.got - 2010.06.03 18:47:27.
