data_PCOD9541762
_publ_section_title
;
Structure prediction by ZEFSAII (Michael W. Deem and Ramdas Pophale) SiO2 
 PCOD9541762
Probable space group: P 43
;
_chemical_formula_sum "Si O2"
_cell_formula_units_Z 20
_cell_length_a 10.238673
_cell_length_b 10.238673
_cell_length_c 8.665780
_cell_angle_alpha 90.000000
_cell_angle_beta 90.000000
_cell_angle_gamma 90.000000
_cell_volume 908.437399
_symmetry_space_group_name_H-M "P 43"
_symmetry_group_IT_number 78
_symmetry_cell_setting 'tetragonal'
loop_
_space_group_symop_operation_xyz
x,y,z
-y,x,3/4+z
-x,-y,1/2+z
y,-x,1/4+z
loop_
_atom_site_type_symbol
_atom_site_label
_atom_site_fract_x
_atom_site_fract_y
_atom_site_fract_z
Si Si1 0.716531 0.249835 0.612840
Si Si2 0.856519 0.997373 0.651768
Si Si3 0.572292 0.886338 0.702003
Si Si4 0.530175 0.152306 0.876224
Si Si5 0.338711 0.497761 0.648883
O O1 0.825920 0.140861 0.581412
O O2 0.645746 0.221185 0.777974
O O3 0.770605 0.395558 0.599317
O O4 0.603369 0.244088 0.486011
O O5 0.910296 0.035693 0.818799
O O6 0.715817 0.928498 0.643839
O O7 0.471416 0.860347 0.561805
O O8 0.589004 0.756819 0.802368
O O9 0.524533 0.007849 0.804161
O O10 0.430754 0.423767 0.527725
#
# Coordination Sequence:
#
# PCOD9541762 Si02
#       5
#     4   4   4   4   4
#     4  11  24  47  71 104 146 188 237 311 360 446
#     4  11  25  46  70 101 139 187 243 297 355 424
#     4  11  26  47  73 106 143 197 240 307 373 438
#     4  11  24  47  75 101 149 191 239 304 373 439
#     4  12  29  43  73 110 147 191 245 303 381 447
#
# _framework density 22.015827000000002
#
# number of rings (size 3 to 8) (size 9 to 14) (size 15 to 20)
#    0.000    0.800    4.000    2.400    5.600    1.600 
#    3.600    0.000    0.000    0.000    0.000    0.000 
#    0.000    0.000    0.000    0.000    0.000    0.000 
#
# Total GULP energy -111783.751769 kJ/mol
# GULP energy per Si atom -5589.187588 kJ/mol
# Density = 2.196572 g / cm^3
# Si number density = 22.015827 Si / 1000 Ang^3
#
#
#
# Elastic Constant Matrix: (Units=GPa)
#
#
# Indices 1 2 3 4 5 6 
#
# 1 36.3887 34.4800 27.8807 0.0000 0.0000 -19.9301
# 2 34.4800 36.3887 27.8807 0.0000 0.0000 19.9301
# 3 27.8807 27.8807 104.8058 0.0000 0.0000 0.0000
# 4 0.0000 0.0000 0.0000 36.8094 0.0000 0.0000
# 5 0.0000 0.0000 0.0000 0.0000 36.8094 0.0000
# 6 -19.9301 19.9301 0.0000 0.0000 0.0000 29.6430
#
#
#
# Elastic Compliance Matrix: (Units=1/GPa)
#
#
# Indices 1 2 3 4 5 6 
#
# 1 -0.011165 0.029011 -0.004747 0.000000 0.000000 -0.027011
# 2 0.029011 -0.011165 -0.004747 0.000000 0.000000 0.027011
# 3 -0.004747 -0.004747 0.012067 0.000000 0.000000 0.000000
# 4 0.000000 0.000000 0.000000 0.027167 0.000000 0.000000
# 5 0.000000 0.000000 0.000000 0.000000 0.027167 0.000000
# 6 -0.027011 0.027011 0.000000 0.000000 0.000000 -0.002587
#
#
# Mechanical properties :
#
#
# Convention : Reuss Voigt Hill
#
# Bulk Modulus (GPa) = 34.75897 39.78514 37.27206
# Shear Modulus (GPa) = 415.17142 26.47513 220.82328
#
# Velocity S-wave (km/s) = 13.74729 3.47154 10.02596
# Velocity P-wave (km/s) = 16.36479 5.84630 12.28791
#
# Compressibility (1/GPa) = 0.02876955
#
# Stress axis : x y z
#
# Youngs Moduli (GPa) = -89.56791 -89.56791 82.86845
#
# Poissons Ratio (x) = 2.59843 0.39341
# Poissons Ratio (y) = 2.59843 0.39341
# Poissons Ratio (z) = -0.42522 -0.42522
#
# Static dielectric constant tensor:
#      x y z
#    x 1.806130 0.000000 0.000000 
#    y 0.000000 1.806130 0.000000 
#    z 0.000000 0.000000 1.831410 
# 
# From -- ./inp_files/513.got.cif
#   From: 2010.05.17/outbox.cif.g08.bks.cpg/sg78_cif.got.tgz:513.got - 2010.06.03 18:45:56.
