data_PCOD9541178
_publ_section_title
;
Structure prediction by ZEFSAII (Michael W. Deem and Ramdas Pophale) SiO2 
 PCOD9541178
Probable space group: P 41
;
_chemical_formula_sum "Si O2"
_cell_formula_units_Z 24
_cell_length_a 12.475320
_cell_length_b 12.475320
_cell_length_c 4.963010
_cell_angle_alpha 90.000000
_cell_angle_beta 90.000000
_cell_angle_gamma 90.000000
_cell_volume 772.411158
_symmetry_space_group_name_H-M "P 41"
_symmetry_group_IT_number 76
_symmetry_cell_setting 'tetragonal'
loop_
_space_group_symop_operation_xyz
x,y,z
-y,x,1/4+z
-x,-y,1/2+z
y,-x,3/4+z
loop_
_atom_site_type_symbol
_atom_site_label
_atom_site_fract_x
_atom_site_fract_y
_atom_site_fract_z
Si Si1 0.195218 0.852145 0.166200
Si Si2 0.658001 0.549967 0.793197
Si Si3 0.927723 0.151586 0.186580
Si Si4 0.935990 0.342546 0.377135
Si Si5 0.768995 0.626493 0.262443
Si Si6 0.586593 0.991271 0.153852
O O1 0.121018 0.890252 0.412939
O O2 0.268387 0.761655 0.329080
O O3 0.289394 0.945168 0.179310
O O4 0.138770 0.771919 0.928896
O O5 0.561777 0.612557 0.938056
O O6 0.744660 0.536976 0.034112
O O7 0.695094 0.612246 0.524244
O O8 0.939552 0.291792 0.060977
O O9 0.877913 0.055839 0.413450
O O10 0.908550 0.400899 0.656837
O O11 0.885796 0.624841 0.395557
O O12 0.459820 0.034755 0.963273
#
# Coordination Sequence:
#
# PCOD9541178 Si02
#       6
#     4   4   4   4   4   4
#     4  12  28  46  76 103 144 193 249 318 373 445
#     4  12  27  49  75 107 154 200 241 295 362 442
#     4  12  26  47  73 104 146 192 247 309 378 449
#     4  10  21  40  67  98 139 180 227 287 371 430
#     4  12  25  45  78 109 143 193 253 304 364 442
#     4  10  21  39  69 103 136 182 223 291 368 430
#
# _framework density 31.071531
#
# number of rings (size 3 to 8) (size 9 to 14) (size 15 to 20)
#    0.000    0.667    1.667    6.000    2.333    5.333 
#    0.000    0.000    0.000    0.000    0.000    0.000 
#    0.000    0.000    0.000    0.000    0.000    0.000 
#
# Total GULP energy -133832.292293 kJ/mol
# GULP energy per Si atom -5576.345512 kJ/mol
# Density = 3.100081 g / cm^3
# Si number density = 31.071531 Si / 1000 Ang^3
#
#
#
# Elastic Constant Matrix: (Units=GPa)
#
#
# Indices 1 2 3 4 5 6 
#
# 1 138.9523 24.5203 39.3290 0.0000 0.0000 -10.2788
# 2 24.5203 138.9523 39.3290 0.0000 0.0000 10.2788
# 3 39.3290 39.3290 298.8054 0.0000 0.0000 0.0000
# 4 0.0000 0.0000 0.0000 74.7667 0.0000 0.0000
# 5 0.0000 0.0000 0.0000 0.0000 74.7667 0.0000
# 6 -10.2788 10.2788 0.0000 0.0000 0.0000 45.3035
#
#
#
# Elastic Compliance Matrix: (Units=1/GPa)
#
#
# Indices 1 2 3 4 5 6 
#
# 1 0.007820 -0.001290 -0.000860 0.000000 0.000000 0.002067
# 2 -0.001290 0.007820 -0.000860 0.000000 0.000000 -0.002067
# 3 -0.000860 -0.000860 0.003573 0.000000 0.000000 0.000000
# 4 0.000000 0.000000 0.000000 0.013375 0.000000 0.000000
# 5 0.000000 0.000000 0.000000 0.000000 0.013375 0.000000
# 6 0.002067 -0.002067 0.000000 0.000000 0.000000 0.023011
#
#
# Mechanical properties :
#
#
# Convention : Reuss Voigt Hill
#
# Bulk Modulus (GPa) = 75.77910 87.00740 81.39325
# Shear Modulus (GPa) = 62.97899 70.53614 66.75756
#
# Velocity S-wave (km/s) = 4.50700 4.76975 4.64023
# Velocity P-wave (km/s) = 7.17813 7.64180 7.41359
#
# Compressibility (1/GPa) = 0.01319625
#
# Stress axis : x y z
#
# Youngs Moduli (GPa) = 127.86912 127.86912 279.88145
#
# Poissons Ratio (x) = 0.16491 0.24058
# Poissons Ratio (y) = 0.16491 0.24058
# Poissons Ratio (z) = 0.10992 0.10992
#
# Static dielectric constant tensor:
#      x y z
#    x 3.156410 0.000000 0.000000 
#    y 0.000000 3.156410 0.000000 
#    z 0.000000 0.000000 2.590120 
# 
# From -- ./inp_files/217.got.cif
#   From: 2010.05.17/outbox.cif.g08.bks.cpg/sg76_cif.got.tgz:217.got - 2010.06.03 18:43:17.
