data_PCOD9541439
_publ_section_title
;
Structure prediction by ZEFSAII (Michael W. Deem and Ramdas Pophale) SiO2 
 PCOD9541439
Probable space group: P 41
;
_chemical_formula_sum "Si O2"
_cell_formula_units_Z 20
_cell_length_a 12.281833
_cell_length_b 12.281833
_cell_length_c 5.023877
_cell_angle_alpha 90.000000
_cell_angle_beta 90.000000
_cell_angle_gamma 90.000000
_cell_volume 757.818798
_symmetry_space_group_name_H-M "P 41"
_symmetry_group_IT_number 76
_symmetry_cell_setting 'tetragonal'
loop_
_space_group_symop_operation_xyz
x,y,z
-y,x,1/4+z
-x,-y,1/2+z
y,-x,3/4+z
loop_
_atom_site_type_symbol
_atom_site_label
_atom_site_fract_x
_atom_site_fract_y
_atom_site_fract_z
Si Si1 0.724239 0.473002 0.907840
Si Si2 0.136375 0.901138 0.211101
Si Si3 0.267823 0.857487 0.680831
Si Si4 0.562190 0.967713 0.987218
Si Si5 0.378723 0.640842 0.903274
O O1 0.658286 0.244092 0.251799
O O2 0.712323 0.603455 0.931540
O O3 0.840093 0.431135 0.813009
O O4 0.674341 0.431048 0.172621
O O5 0.213711 0.895471 0.956314
O O6 0.019514 0.871867 0.093135
O O7 0.178182 0.828437 0.456905
O O8 0.337677 0.956663 0.561915
O O9 0.466936 0.015994 0.178330
O O10 0.520213 0.642767 0.889184
#
# Coordination Sequence:
#
# PCOD9541439 Si02
#       5
#     4   4   4   4   4
#     4  12  28  50  81 110 153 198 251 321 380 460
#     4  12  27  48  68 106 154 202 247 300 377 461
#     4  12  27  46  77 109 147 196 258 310 375 458
#     4  12  26  49  77 109 149 190 244 310 384 434
#     4  12  28  51  75 114 149 198 262 313 386 451
#
# _framework density 26.391535999999999
#
# number of rings (size 3 to 8) (size 9 to 14) (size 15 to 20)
#    0.000    0.000    2.000    7.200   11.200    1.600 
#    0.000    0.000    0.000    0.000    0.000    0.000 
#    0.000    0.000    0.000    0.000    0.000    0.000 
#
# Total GULP energy -111464.846362 kJ/mol
# GULP energy per Si atom -5573.242318 kJ/mol
# Density = 2.633147 g / cm^3
# Si number density = 26.391536 Si / 1000 Ang^3
#
#
#
# Elastic Constant Matrix: (Units=GPa)
#
#
# Indices 1 2 3 4 5 6 
#
# 1 89.4943 56.4956 20.2784 0.0000 0.0000 -19.0062
# 2 56.4956 89.4943 20.2784 0.0000 0.0000 19.0062
# 3 20.2784 20.2784 100.2061 0.0000 0.0000 0.0000
# 4 0.0000 0.0000 0.0000 32.6016 0.0000 0.0000
# 5 0.0000 0.0000 0.0000 0.0000 32.6016 0.0000
# 6 -19.0062 19.0062 0.0000 0.0000 0.0000 42.0151
#
#
#
# Elastic Compliance Matrix: (Units=1/GPa)
#
#
# Indices 1 2 3 4 5 6 
#
# 1 0.035268 -0.028010 -0.001469 0.000000 0.000000 0.028625
# 2 -0.028010 0.035268 -0.001469 0.000000 0.000000 -0.028625
# 3 -0.001469 -0.001469 0.010574 0.000000 0.000000 0.000000
# 4 0.000000 0.000000 0.000000 0.030673 0.000000 0.000000
# 5 0.000000 0.000000 0.000000 0.000000 0.030673 0.000000
# 6 0.028625 -0.028625 0.000000 0.000000 0.000000 0.049699
#
#
# Mechanical properties :
#
#
# Convention : Reuss Voigt Hill
#
# Bulk Modulus (GPa) = 52.04391 52.58883 52.31637
# Shear Modulus (GPa) = 19.19702 33.58649 26.39176
#
# Velocity S-wave (km/s) = 2.69995 3.57126 3.16572
# Velocity P-wave (km/s) = 5.42977 6.08069 5.76442
#
# Compressibility (1/GPa) = 0.01921455
#
# Stress axis : x y z
#
# Youngs Moduli (GPa) = 28.35407 28.35407 94.57265
#
# Poissons Ratio (x) = 0.79421 0.13890
# Poissons Ratio (y) = 0.79421 0.13890
# Poissons Ratio (z) = 0.04164 0.04164
#
# Static dielectric constant tensor:
#      x y z
#    x 2.190890 0.000000 0.000000 
#    y 0.000000 2.190890 0.000000 
#    z 0.000000 0.000000 2.177500 
# 
# From -- ./inp_files/150.got.cif
#   From: 2010.05.17/outbox.cif.g08.bks.cpg/sg76_cif.got.tgz:150.got - 2010.06.03 18:43:17.
