data_PCOD9541619
_publ_section_title
;
Structure prediction by ZEFSAII (Michael W. Deem and Ramdas Pophale) SiO2 
 PCOD9541619
Probable space group: P 43
;
_chemical_formula_sum "Si O2"
_cell_formula_units_Z 28
_cell_length_a 8.100210
_cell_length_b 8.100210
_cell_length_c 16.464085
_cell_angle_alpha 90.000000
_cell_angle_beta 90.000000
_cell_angle_gamma 90.000000
_cell_volume 1080.264628
_symmetry_space_group_name_H-M "P 43"
_symmetry_group_IT_number 78
_symmetry_cell_setting 'tetragonal'
loop_
_space_group_symop_operation_xyz
x,y,z
-y,x,3/4+z
-x,-y,1/2+z
y,-x,1/4+z
loop_
_atom_site_type_symbol
_atom_site_label
_atom_site_fract_x
_atom_site_fract_y
_atom_site_fract_z
Si Si1 0.532181 0.824681 0.785050
Si Si2 0.507020 0.405520 0.142373
Si Si3 0.826058 0.258977 0.827357
Si Si4 0.043011 0.876254 0.494992
Si Si5 0.819922 0.808428 0.089813
Si Si6 0.148665 0.450297 0.852046
Si Si7 0.623727 0.733126 0.238669
O O1 0.575667 0.654080 0.830319
O O2 0.480364 0.757440 0.697209
O O3 0.706882 0.910697 0.790478
O O4 0.366798 0.904331 0.820855
O O5 0.337289 0.354900 0.094392
O O6 0.543629 0.566074 0.197919
O O7 0.969329 0.395523 0.824563
O O8 0.859577 0.153503 0.746930
O O9 0.875633 0.146879 0.906426
O O10 0.099987 0.036923 0.544970
O O11 0.626832 0.807369 0.060950
O O12 0.782745 0.801621 0.186014
O O13 0.141999 0.489414 0.948985
O O14 0.289646 0.323485 0.821799
#
# Coordination Sequence:
#
# PCOD9541619 Si02
#       7
#     4   4   4   4   4   4   4
#     4  10  21  40  71  98 131 184 238 292 356 426
#     4  10  19  42  65 100 128 171 232 298 354 437
#     4  11  27  43  63  98 149 183 230 300 387 439
#     4  11  26  44  63 103 143 192 231 298 371 453
#     4   9  21  41  71  98 132 185 242 295 352 453
#     4  10  21  42  67 103 132 187 238 310 364 446
#     4   9  19  38  72  98 131 176 249 297 370 434
#
# _framework density 25.919577
#
# number of rings (size 3 to 8) (size 9 to 14) (size 15 to 20)
#    0.857    1.143    1.429    0.857    4.000    2.286 
#    7.714    0.000    0.000    0.000    0.000    0.000 
#    0.000    0.000    0.000    0.000    0.000    0.000 
#
# Total GULP energy -155985.251545 kJ/mol
# GULP energy per Si atom -5570.901841 kJ/mol
# Density = 2.586058 g / cm^3
# Si number density = 25.919577 Si / 1000 Ang^3
#
#
#
# Elastic Constant Matrix: (Units=GPa)
#
#
# Indices 1 2 3 4 5 6 
#
# 1 101.5210 32.0261 20.5307 0.0000 0.0000 -0.9727
# 2 32.0261 101.5210 20.5307 0.0000 0.0000 0.9727
# 3 20.5307 20.5307 71.4309 0.0000 0.0000 0.0000
# 4 0.0000 0.0000 0.0000 40.1256 0.0000 0.0000
# 5 0.0000 0.0000 0.0000 0.0000 40.1256 0.0000
# 6 -0.9727 0.9727 0.0000 0.0000 0.0000 14.1836
#
#
#
# Elastic Compliance Matrix: (Units=1/GPa)
#
#
# Indices 1 2 3 4 5 6 
#
# 1 0.011316 -0.003102 -0.002361 0.000000 0.000000 0.000989
# 2 -0.003102 0.011316 -0.002361 0.000000 0.000000 -0.000989
# 3 -0.002361 -0.002361 0.015357 0.000000 0.000000 0.000000
# 4 0.000000 0.000000 0.000000 0.024922 0.000000 0.000000
# 5 0.000000 0.000000 0.000000 0.000000 0.024922 0.000000
# 6 0.000989 -0.000989 0.000000 0.000000 0.000000 0.070640
#
#
# Mechanical properties :
#
#
# Convention : Reuss Voigt Hill
#
# Bulk Modulus (GPa) = 44.76065 46.73867 45.74966
# Shear Modulus (GPa) = 27.53839 32.31263 29.92551
#
# Velocity S-wave (km/s) = 3.26307 3.53462 3.40156
# Velocity P-wave (km/s) = 5.61279 5.89317 5.75468
#
# Compressibility (1/GPa) = 0.02234105
#
# Stress axis : x y z
#
# Youngs Moduli (GPa) = 88.37398 88.37398 65.11831
#
# Poissons Ratio (x) = 0.27411 0.15373
# Poissons Ratio (y) = 0.27411 0.15373
# Poissons Ratio (z) = 0.20864 0.20864
#
# Static dielectric constant tensor:
#      x y z
#    x 2.091080 0.000000 0.000000 
#    y 0.000000 2.091080 0.000000 
#    z 0.000000 0.000000 2.156530 
# 
# From -- ./inp_files/1435.got.cif
#   From: 2010.05.17/outbox.cif.g08.bks.cpg/sg78_cif.got.tgz:1435.got - 2010.06.03 18:45:56.
