data_PCOD9541584
_publ_section_title
;
Structure prediction by ZEFSAII (Michael W. Deem and Ramdas Pophale) SiO2 
 PCOD9541584
Probable space group: P 43
;
_chemical_formula_sum "Si O2"
_cell_formula_units_Z 28
_cell_length_a 7.791133
_cell_length_b 7.791133
_cell_length_c 17.422479
_cell_angle_alpha 90.000000
_cell_angle_beta 90.000000
_cell_angle_gamma 90.000000
_cell_volume 1057.575024
_symmetry_space_group_name_H-M "P 43"
_symmetry_group_IT_number 78
_symmetry_cell_setting 'tetragonal'
loop_
_space_group_symop_operation_xyz
x,y,z
-y,x,3/4+z
-x,-y,1/2+z
y,-x,1/4+z
loop_
_atom_site_type_symbol
_atom_site_label
_atom_site_fract_x
_atom_site_fract_y
_atom_site_fract_z
Si Si1 0.098972 0.202852 0.566140
Si Si2 0.263555 0.100298 0.962116
Si Si3 0.403900 0.789984 0.408804
Si Si4 0.448312 0.846747 0.130887
Si Si5 0.174964 0.024545 0.326113
Si Si6 0.819759 0.484387 0.973494
Si Si7 0.261917 0.660084 0.013924
O O1 0.057519 0.259199 0.653346
O O2 0.135100 0.999819 0.574512
O O3 0.212789 0.340658 0.520159
O O4 0.918995 0.239909 0.521774
O O5 0.458930 0.151403 0.971450
O O6 0.176802 0.257287 0.915233
O O7 0.150806 0.106256 0.036846
O O8 0.505015 0.767787 0.327263
O O9 0.259592 0.938894 0.401483
O O10 0.336823 0.605483 0.432207
O O11 0.504013 0.034926 0.157622
O O12 0.414194 0.780333 0.045324
O O13 0.571266 0.725345 0.181601
O O14 0.334306 0.111549 0.281892
#
# Coordination Sequence:
#
# PCOD9541584 Si02
#       7
#     4   4   4   4   4   4   4
#     4   9  18  32  54  83 114 138 198 246 280 362
#     4   9  17  32  52  86 112 144 204 244 282 369
#     4  10  17  30  56  80 112 154 191 241 303 352
#     4   8  14  27  47  74 102 133 184 235 274 339
#     4  11  17  32  61  82 107 161 186 242 309 341
#     4  10  18  32  54  83 106 144 190 239 291 357
#     4   9  15  29  50  80 107 142 197 241 283 366
#
# _framework density 26.475662
#
# number of rings (size 3 to 8) (size 9 to 14) (size 15 to 20)
#    0.000    2.857    5.714    2.571    0.000    0.000 
#    0.000    0.000   18.857    8.571    0.000    0.000 
#    0.000    0.000    0.000    0.000    0.000    0.000 
#
# Total GULP energy -156364.261475 kJ/mol
# GULP energy per Si atom -5584.437910 kJ/mol
# Density = 2.641540 g / cm^3
# Si number density = 26.475662 Si / 1000 Ang^3
#
#
#
# Elastic Constant Matrix: (Units=GPa)
#
#
# Indices 1 2 3 4 5 6 
#
# 1 126.0379 21.0292 16.2463 0.0000 0.0000 -5.0656
# 2 21.0292 126.0379 16.2463 0.0000 0.0000 5.0656
# 3 16.2463 16.2463 61.3448 0.0000 0.0000 0.0000
# 4 0.0000 0.0000 0.0000 32.4053 0.0000 0.0000
# 5 0.0000 0.0000 0.0000 0.0000 32.4053 0.0000
# 6 -5.0656 5.0656 0.0000 0.0000 0.0000 10.3542
#
#
#
# Elastic Compliance Matrix: (Units=1/GPa)
#
#
# Indices 1 2 3 4 5 6 
#
# 1 0.008608 -0.001386 -0.001913 0.000000 0.000000 0.004890
# 2 -0.001386 0.008608 -0.001913 0.000000 0.000000 -0.004890
# 3 -0.001913 -0.001913 0.017314 0.000000 0.000000 0.000000
# 4 0.000000 0.000000 0.000000 0.030859 0.000000 0.000000
# 5 0.000000 0.000000 0.000000 0.000000 0.030859 0.000000
# 6 0.004890 -0.004890 0.000000 0.000000 0.000000 0.101363
#
#
# Mechanical properties :
#
#
# Convention : Reuss Voigt Hill
#
# Bulk Modulus (GPa) = 41.47995 46.71822 44.09909
# Shear Modulus (GPa) = 23.14040 32.35954 27.74997
#
# Velocity S-wave (km/s) = 2.95960 3.49984 3.24100
# Velocity P-wave (km/s) = 5.23261 5.83232 5.54058
#
# Compressibility (1/GPa) = 0.02410803
#
# Stress axis : x y z
#
# Youngs Moduli (GPa) = 116.16437 116.16437 57.75537
#
# Poissons Ratio (x) = 0.16104 0.11047
# Poissons Ratio (y) = 0.16104 0.11047
# Poissons Ratio (z) = 0.22219 0.22219
#
# Static dielectric constant tensor:
#      x y z
#    x 2.139510 0.000000 0.000000 
#    y 0.000000 2.139510 0.000000 
#    z 0.000000 0.000000 2.161850 
# 
# From -- ./inp_files/1574.got.cif
#   From: 2010.05.17/outbox.cif.g08.bks.cpg/sg78_cif.got.tgz:1574.got - 2010.06.03 18:45:56.
