data_PCOD9541829
_publ_section_title
;
Structure prediction by ZEFSAII (Michael W. Deem and Ramdas Pophale) SiO2 
 PCOD9541829
Probable space group: I 4
;
_chemical_formula_sum "Si O2"
_cell_formula_units_Z 58
_cell_length_a 12.311080
_cell_length_b 12.311080
_cell_length_c 22.531942
_cell_angle_alpha 90.000000
_cell_angle_beta 90.000000
_cell_angle_gamma 90.000000
_cell_volume 3415.001758
_symmetry_space_group_name_H-M "I 4"
_symmetry_group_IT_number 79
_symmetry_cell_setting 'tetragonal'
loop_
_space_group_symop_operation_xyz
x,y,z
-y,x,z
-x,-y,z
y,-x,z
1/2+x,1/2+y,1/2+z
1/2-y,1/2+x,1/2+z
1/2-x,1/2-y,1/2+z
1/2+y,1/2-x,1/2+z
loop_
_atom_site_type_symbol
_atom_site_label
_atom_site_fract_x
_atom_site_fract_y
_atom_site_fract_z
Si Si1 0.808391 0.381433 0.239650
Si Si2 0.127494 0.300618 0.115688
Si Si3 0.178073 0.012772 0.424058
Si Si4 0.000000 0.000000 0.607002
Si Si5 0.874923 0.500155 0.835842
Si Si6 0.625755 0.194500 0.608125
Si Si7 0.635054 0.196028 0.246583
Si Si8 0.759656 0.000841 0.561414
O O1 0.853710 0.350368 0.174832
O O2 0.708238 0.302480 0.253336
O O3 0.777115 0.507907 0.240129
O O4 0.903339 0.365474 0.287719
O O5 0.192178 0.189574 0.103550
O O6 0.137822 0.326766 0.185833
O O7 0.191184 0.397555 0.082906
O O8 0.002089 0.296842 0.097935
O O9 0.198695 0.014848 0.494531
O O10 0.097195 0.111892 0.409639
O O11 0.288518 0.016661 0.387553
O O12 0.133310 0.982993 0.601609
O O13 0.852967 0.388201 0.800571
O O14 0.000000 0.500000 0.856928
O O15 0.684099 0.106597 0.566326
#
# Coordination Sequence:
#
# PCOD9541829 Si02
#       8
#     8   8   8   2   8   8   8   8
#     4  10  20  35  52  78 109 145 190 234 279 335
#     4  11  22  36  56  80 113 155 192 237 289 346
#     4  11  21  38  59  85 117 149 186 239 290 337
#     4  12  20  40  56  92 120 148 192 256 276 366
#     4  10  21  36  57  78 112 149 194 231 277 335
#     4  11  22  36  56  80 113 155 192 237 289 346
#     4  10  20  35  52  78 109 145 190 234 279 335
#     4  12  21  37  59  87 118 149 191 239 303 347
#
# _framework density 16.983885999999998
#
# number of rings (size 3 to 8) (size 9 to 14) (size 15 to 20)
#    0.000    1.241    5.517    1.241    0.000    1.655 
#    0.000    0.000    0.000    0.000    0.000    0.000 
#    0.000    6.621    0.000    0.000    0.000    0.000 
#
# Total GULP energy -161719.999394 kJ/mol
# GULP energy per Si atom -5576.551703 kJ/mol
# Density = 1.694523 g / cm^3
# Si number density = 16.983886 Si / 1000 Ang^3
#
#
#
# Elastic Constant Matrix: (Units=GPa)
#
#
# Indices 1 2 3 4 5 6 
#
# 1 107.9358 5.2775 -4.7879 0.0000 0.0000 -3.1183
# 2 5.2775 107.9358 -4.7879 0.0000 0.0000 3.1183
# 3 -4.7879 -4.7879 23.0582 0.0000 0.0000 0.0000
# 4 0.0000 0.0000 0.0000 15.9985 0.0000 0.0000
# 5 0.0000 0.0000 0.0000 0.0000 15.9985 0.0000
# 6 -3.1183 3.1183 0.0000 0.0000 0.0000 16.9532
#
#
#
# Elastic Compliance Matrix: (Units=1/GPa)
#
#
# Indices 1 2 3 4 5 6 
#
# 1 0.009421 -0.000430 0.001867 0.000000 0.000000 0.001812
# 2 -0.000430 0.009421 0.001867 0.000000 0.000000 -0.001812
# 3 0.001867 0.001867 0.044144 0.000000 0.000000 0.000000
# 4 0.000000 0.000000 0.000000 0.062506 0.000000 0.000000
# 5 0.000000 0.000000 0.000000 0.000000 0.062506 0.000000
# 6 0.001812 -0.001812 0.000000 0.000000 0.000000 0.059653
#
#
# Mechanical properties :
#
#
# Convention : Reuss Voigt Hill
#
# Bulk Modulus (GPa) = 14.36925 25.59257 19.98091
# Shear Modulus (GPa) = 18.92214 26.00523 22.46368
#
# Velocity S-wave (km/s) = 3.34147 3.91726 3.64077
# Velocity P-wave (km/s) = 4.83385 5.96334 5.42805
#
# Compressibility (1/GPa) = 0.06959307
#
# Stress axis : x y z
#
# Youngs Moduli (GPa) = 106.14628 106.14628 22.65319
#
# Poissons Ratio (x) = 0.04566 -0.04229
# Poissons Ratio (y) = 0.04566 -0.04229
# Poissons Ratio (z) = -0.19816 -0.19816
#
# Static dielectric constant tensor:
#      x y z
#    x 1.563040 0.000000 0.000000 
#    y 0.000000 1.563040 0.000000 
#    z 0.000000 0.000000 1.562770 
# 
# From -- ./inp_files/1857.got.cif
#   From: 2010.05.17/outbox.cif.g08.bks.cpg/sg79_cif.got.tgz:1857.got - 2010.06.03 18:47:27.
