data_PCOD9541710
_publ_section_title
;
Structure prediction by ZEFSAII (Michael W. Deem and Ramdas Pophale) SiO2 
 PCOD9541710
Probable space group: P 43
;
_chemical_formula_sum "Si O2"
_cell_formula_units_Z 28
_cell_length_a 12.279696
_cell_length_b 12.279696
_cell_length_c 7.801762
_cell_angle_alpha 90.000000
_cell_angle_beta 90.000000
_cell_angle_gamma 90.000000
_cell_volume 1176.434978
_symmetry_space_group_name_H-M "P 43"
_symmetry_group_IT_number 78
_symmetry_cell_setting 'tetragonal'
loop_
_space_group_symop_operation_xyz
x,y,z
-y,x,3/4+z
-x,-y,1/2+z
y,-x,1/4+z
loop_
_atom_site_type_symbol
_atom_site_label
_atom_site_fract_x
_atom_site_fract_y
_atom_site_fract_z
Si Si1 0.119054 0.082443 0.045430
Si Si2 0.669186 0.913998 0.723261
Si Si3 0.597435 0.409702 0.244234
Si Si4 0.514255 0.107656 0.717962
Si Si5 0.828933 0.297056 0.315094
Si Si6 0.554692 0.735640 0.517466
Si Si7 0.208045 0.280566 0.877374
O O1 0.251494 0.056302 0.063391
O O2 0.080220 0.985134 0.170258
O O3 0.143945 0.215516 0.029512
O O4 0.599205 0.809898 0.670381
O O5 0.576468 0.999587 0.770216
O O6 0.741962 0.883715 0.889140
O O7 0.531259 0.399196 0.420536
O O8 0.714047 0.354499 0.270484
O O9 0.528578 0.348992 0.095925
O O10 0.393887 0.097545 0.643307
O O11 0.503798 0.189494 0.876932
O O12 0.602412 0.158035 0.587183
O O13 0.800756 0.211714 0.464366
O O14 0.667980 0.697763 0.434242
#
# Coordination Sequence:
#
# PCOD9541710 Si02
#       7
#     4   4   4   4   4   4   4
#     4  11  25  48  74 102 135 180 235 305 366 431
#     4  11  23  46  68 105 136 184 241 295 362 425
#     4  12  25  39  63 100 139 188 229 287 352 431
#     4  11  22  43  69  94 136 193 227 303 348 427
#     4  11  25  42  68 105 142 181 244 289 356 435
#     4  10  23  40  66  95 143 183 235 286 351 429
#     4  10  23  44  66 101 141 183 237 293 357 426
#
# _framework density 23.800723000000001
#
# number of rings (size 3 to 8) (size 9 to 14) (size 15 to 20)
#    0.000    1.143    2.857    2.571    8.000    1.143 
#    0.000    1.429    0.000    0.000    0.000    0.000 
#    0.000    0.000    0.000    0.000    0.000    0.000 
#
# Total GULP energy -155944.978256 kJ/mol
# GULP energy per Si atom -5569.463509 kJ/mol
# Density = 2.374655 g / cm^3
# Si number density = 23.800723 Si / 1000 Ang^3
#
#
#
# Elastic Constant Matrix: (Units=GPa)
#
#
# Indices 1 2 3 4 5 6 
#
# 1 41.9796 -7.7642 28.7398 0.0000 0.0000 -14.8468
# 2 -7.7642 41.9796 28.7398 0.0000 0.0000 14.8468
# 3 28.7398 28.7398 73.9049 0.0000 0.0000 0.0000
# 4 0.0000 0.0000 0.0000 29.6078 0.0000 0.0000
# 5 0.0000 0.0000 0.0000 0.0000 29.6078 0.0000
# 6 -14.8468 14.8468 0.0000 0.0000 0.0000 -60.8948
#
#
#
# Elastic Compliance Matrix: (Units=1/GPa)
#
#
# Indices 1 2 3 4 5 6 
#
# 1 0.050923 0.033374 -0.032781 0.000000 0.000000 -0.004279
# 2 0.033374 0.050923 -0.032781 0.000000 0.000000 0.004279
# 3 -0.032781 -0.032781 0.039026 0.000000 0.000000 0.000000
# 4 0.000000 0.000000 0.000000 0.033775 0.000000 0.000000
# 5 0.000000 0.000000 0.000000 0.000000 0.033775 0.000000
# 6 -0.004279 0.004279 0.000000 0.000000 0.000000 -0.014335
#
#
# Mechanical properties :
#
#
# Convention : Reuss Voigt Hill
#
# Bulk Modulus (GPa) = 13.07262 28.58833 20.83047
# Shear Modulus (GPa) = 17.60809 6.87409 12.24109
#
# Velocity S-wave (km/s) = 2.72290 1.70131 2.27031
# Velocity P-wave (km/s) = 3.92301 3.98709 3.95518
#
# Compressibility (1/GPa) = 0.07649578
#
# Stress axis : x y z
#
# Youngs Moduli (GPa) = 19.63760 19.63760 25.62378
#
# Poissons Ratio (x) = -0.65538 0.83997
# Poissons Ratio (y) = -0.65538 0.83997
# Poissons Ratio (z) = 0.64374 0.64374
#
# Static dielectric constant tensor:
#      x y z
#    x 1.935090 0.000000 0.000000 
#    y 0.000000 1.935090 0.000000 
#    z 0.000000 0.000000 2.009780 
# 
# From -- ./inp_files/638.got.cif
#   From: 2010.05.17/outbox.cif.g08.bks.cpg/sg78_cif.got.tgz:638.got - 2010.06.03 18:45:56.
