data_PCOD9541143
_publ_section_title
;
Structure prediction by ZEFSAII (Michael W. Deem and Ramdas Pophale) SiO2 
 PCOD9541143
Probable space group: P 41
;
_chemical_formula_sum "Si O2"
_cell_formula_units_Z 24
_cell_length_a 13.497053
_cell_length_b 13.497053
_cell_length_c 6.491965
_cell_angle_alpha 90.000000
_cell_angle_beta 90.000000
_cell_angle_gamma 90.000000
_cell_volume 1182.644118
_symmetry_space_group_name_H-M "P 41"
_symmetry_group_IT_number 76
_symmetry_cell_setting 'tetragonal'
loop_
_space_group_symop_operation_xyz
x,y,z
-y,x,1/4+z
-x,-y,1/2+z
y,-x,3/4+z
loop_
_atom_site_type_symbol
_atom_site_label
_atom_site_fract_x
_atom_site_fract_y
_atom_site_fract_z
Si Si1 0.647677 0.143077 0.186910
Si Si2 0.376154 0.028134 0.947502
Si Si3 0.738239 0.481837 0.658083
Si Si4 0.860446 0.565263 0.018341
Si Si5 0.686885 0.771335 0.617819
Si Si6 0.400104 0.573146 0.670213
O O1 0.540262 0.181876 0.265020
O O2 0.723474 0.207136 0.323508
O O3 0.661171 0.028156 0.242226
O O4 0.644465 0.166881 0.944588
O O5 0.479326 0.078827 0.884931
O O6 0.313918 0.115378 0.050666
O O7 0.390290 0.939698 0.109295
O O8 0.750479 0.367742 0.587054
O O9 0.634178 0.529421 0.584120
O O10 0.771940 0.516264 0.884061
O O11 0.617677 0.706484 0.463256
O O12 0.456603 0.597074 0.461794
#
# Coordination Sequence:
#
# PCOD9541143 Si02
#       6
#     4   4   4   4   4   4
#     4  10  21  37  55  89 115 147 200 250 297 367
#     4  11  20  35  57  83 111 151 189 255 304 355
#     4   9  19  36  54  81 117 153 190 242 292 354
#     4  11  19  35  61  85 114 149 201 245 309 352
#     4  10  20  38  56  80 117 153 196 247 306 361
#     4   9  19  35  49  72 116 155 190 225 270 343
#
# _framework density 20.293510000000001
#
# number of rings (size 3 to 8) (size 9 to 14) (size 15 to 20)
#    0.000    2.000    3.333    1.000    0.000    1.333 
#   12.000    0.000    0.000    0.000    4.333    0.000 
#    0.000    0.000    0.000    0.000    0.000    0.000 
#
# Total GULP energy -133844.634533 kJ/mol
# GULP energy per Si atom -5576.859772 kJ/mol
# Density = 2.024732 g / cm^3
# Si number density = 20.293510 Si / 1000 Ang^3
#
#
#
# Elastic Constant Matrix: (Units=GPa)
#
#
# Indices 1 2 3 4 5 6 
#
# 1 73.1942 11.6181 25.9310 0.0000 0.0000 -3.0413
# 2 11.6181 73.1942 25.9310 0.0000 0.0000 3.0413
# 3 25.9310 25.9310 96.8155 0.0000 0.0000 0.0000
# 4 0.0000 0.0000 0.0000 23.7287 0.0000 0.0000
# 5 0.0000 0.0000 0.0000 0.0000 23.7287 0.0000
# 6 -3.0413 3.0413 0.0000 0.0000 0.0000 19.6771
#
#
#
# Elastic Compliance Matrix: (Units=1/GPa)
#
#
# Indices 1 2 3 4 5 6 
#
# 1 0.015296 -0.001196 -0.003777 0.000000 0.000000 0.002549
# 2 -0.001196 0.015296 -0.003777 0.000000 0.000000 -0.002549
# 3 -0.003777 -0.003777 0.012352 0.000000 0.000000 0.000000
# 4 0.000000 0.000000 0.000000 0.042143 0.000000 0.000000
# 5 0.000000 0.000000 0.000000 0.000000 0.042143 0.000000
# 6 0.002549 -0.002549 0.000000 0.000000 0.000000 0.051608
#
#
# Mechanical properties :
#
#
# Convention : Reuss Voigt Hill
#
# Bulk Modulus (GPa) = 39.29907 41.12931 40.21419
# Shear Modulus (GPa) = 24.41189 25.40851 24.91020
#
# Velocity S-wave (km/s) = 3.47211 3.54227 3.50736
# Velocity P-wave (km/s) = 5.95663 6.08617 6.02175
#
# Compressibility (1/GPa) = 0.02544589
#
# Stress axis : x y z
#
# Youngs Moduli (GPa) = 65.37672 65.37672 80.95898
#
# Poissons Ratio (x) = 0.07818 0.30575
# Poissons Ratio (y) = 0.07818 0.30575
# Poissons Ratio (z) = 0.24690 0.24690
#
# Static dielectric constant tensor:
#      x y z
#    x 1.738830 0.000000 0.000000 
#    y 0.000000 1.738830 0.000000 
#    z 0.000000 0.000000 1.833530 
# 
# From -- ./inp_files/213.got.cif
#   From: 2010.05.17/outbox.cif.g08.bks.cpg/sg76_cif.got.tgz:213.got - 2010.06.03 18:43:17.
