data_PCOD9541475
_publ_section_title
;
Structure prediction by ZEFSAII (Michael W. Deem and Ramdas Pophale) SiO2 
 PCOD9541475
Probable space group: P 42
;
_chemical_formula_sum "Si O2"
_cell_formula_units_Z 22
_cell_length_a 9.069322
_cell_length_b 9.069322
_cell_length_c 14.465571
_cell_angle_alpha 90.000000
_cell_angle_beta 90.000000
_cell_angle_gamma 90.000000
_cell_volume 1189.830848
_symmetry_space_group_name_H-M "P 42"
_symmetry_group_IT_number 77
_symmetry_cell_setting 'tetragonal'
loop_
_space_group_symop_operation_xyz
x,y,z
-y,x,1/2+z
-x,-y,z
y,-x,1/2+z
loop_
_atom_site_type_symbol
_atom_site_label
_atom_site_fract_x
_atom_site_fract_y
_atom_site_fract_z
Si Si1 0.717967 0.425809 0.664100
Si Si2 0.282033 0.574191 0.115775
Si Si3 0.837308 0.789176 0.492912
Si Si4 0.000000 0.000000 0.139937
Si Si5 0.000000 0.500000 0.233805
Si Si6 0.789176 0.162692 0.786962
Si Si7 0.000000 0.500000 0.546070
O O1 0.591525 0.342843 0.604249
O O2 0.657157 0.591525 0.675626
O O3 0.744072 0.327023 0.754196
O O4 0.869196 0.437844 0.609428
O O5 0.255928 0.672977 0.025678
O O6 0.130804 0.562155 0.170447
O O7 0.904810 0.895527 0.571707
O O8 0.838506 0.854402 0.389937
O O9 0.931761 0.638493 0.493008
O O10 0.095190 0.104473 0.208168
O O11 0.068238 0.361507 0.286866
#
# Coordination Sequence:
#
# PCOD9541475 Si02
#       7
#     4   4   4   2   2   4   2
#     4   9  19  37  60  82 117 156 187 237 293 332
#     4   9  19  37  60  82 117 156 187 237 293 332
#     4  11  22  38  61  87 114 155 196 233 287 350
#     4  12  22  40  56  86 128 148 186 248 292 326
#     4  10  19  38  63  84 116 154 187 242 291 338
#     4  11  22  38  61  87 114 155 196 233 287 350
#     4  10  19  38  63  84 116 154 187 242 291 338
#
# _framework density 18.490022
#
# number of rings (size 3 to 8) (size 9 to 14) (size 15 to 20)
#    0.000    1.818    3.636    1.091    0.000    0.000 
#    0.000   17.273    0.000    0.000    0.000    0.000 
#    0.000    0.000    0.000    0.000    0.000    0.000 
#
# Total GULP energy -122633.330165 kJ/mol
# GULP energy per Si atom -5574.242280 kJ/mol
# Density = 1.844794 g / cm^3
# Si number density = 18.490022 Si / 1000 Ang^3
#
#
#
# Elastic Constant Matrix: (Units=GPa)
#
#
# Indices 1 2 3 4 5 6 
#
# 1 97.6847 28.3491 54.9462 0.0000 0.0000 2.8331
# 2 28.3491 97.6847 54.9462 0.0000 0.0000 -2.8331
# 3 54.9462 54.9462 128.7116 0.0000 0.0000 0.0000
# 4 0.0000 0.0000 0.0000 6.9391 0.0000 0.0000
# 5 0.0000 0.0000 0.0000 0.0000 6.9391 0.0000
# 6 2.8331 -2.8331 0.0000 0.0000 0.0000 22.0626
#
#
#
# Elastic Compliance Matrix: (Units=1/GPa)
#
#
# Indices 1 2 3 4 5 6 
#
# 1 0.013607 -0.000968 -0.005395 0.000000 0.000000 -0.001872
# 2 -0.000968 0.013607 -0.005395 0.000000 0.000000 0.001872
# 3 -0.005395 -0.005395 0.012376 0.000000 0.000000 0.000000
# 4 0.000000 0.000000 0.000000 0.144112 0.000000 0.000000
# 5 0.000000 0.000000 0.000000 0.000000 0.144112 0.000000
# 6 -0.001872 0.001872 0.000000 0.000000 0.000000 0.045806
#
#
# Mechanical properties :
#
#
# Convention : Reuss Voigt Hill
#
# Bulk Modulus (GPa) = 62.22100 66.72937 64.47518
# Shear Modulus (GPa) = 12.42250 19.57743 15.99997
#
# Velocity S-wave (km/s) = 2.59482 3.25747 2.94484
# Velocity P-wave (km/s) = 6.53465 7.09337 6.81973
#
# Compressibility (1/GPa) = 0.01607174
#
# Stress axis : x y z
#
# Youngs Moduli (GPa) = 73.49057 73.49057 80.80238
#
# Poissons Ratio (x) = 0.07117 0.43596
# Poissons Ratio (y) = 0.07117 0.43596
# Poissons Ratio (z) = 0.39651 0.39651
#
# Static dielectric constant tensor:
#      x y z
#    x 1.652420 0.000000 0.000000 
#    y 0.000000 1.652420 0.000000 
#    z 0.000000 0.000000 1.602050 
# 
# From -- ./inp_files/1054.got.cif
#   From: 2010.05.17/outbox.cif.g08.bks.cpg/sg77_cif.got.tgz:1054.got - 2010.06.03 18:44:51.
