data_PCOD9541694
_publ_section_title
;
Structure prediction by ZEFSAII (Michael W. Deem and Ramdas Pophale) SiO2 
 PCOD9541694
Probable space group: P 43
;
_chemical_formula_sum "Si O2"
_cell_formula_units_Z 24
_cell_length_a 14.329208
_cell_length_b 14.329208
_cell_length_c 5.548086
_cell_angle_alpha 90.000000
_cell_angle_beta 90.000000
_cell_angle_gamma 90.000000
_cell_volume 1139.167426
_symmetry_space_group_name_H-M "P 43"
_symmetry_group_IT_number 78
_symmetry_cell_setting 'tetragonal'
loop_
_space_group_symop_operation_xyz
x,y,z
-y,x,3/4+z
-x,-y,1/2+z
y,-x,1/4+z
loop_
_atom_site_type_symbol
_atom_site_label
_atom_site_fract_x
_atom_site_fract_y
_atom_site_fract_z
Si Si1 0.585249 0.150666 0.455430
Si Si2 0.757300 0.477657 0.833453
Si Si3 0.735496 0.947786 0.982409
Si Si4 0.057274 0.615625 0.229248
Si Si5 0.848159 0.772892 0.874470
Si Si6 0.709656 0.659955 0.599738
O O1 0.495821 0.205595 0.353099
O O2 0.677366 0.146455 0.281591
O O3 0.622326 0.215039 0.664943
O O4 0.564233 0.042542 0.497632
O O5 0.857057 0.456508 0.711113
O O6 0.703489 0.572801 0.778429
O O7 0.692151 0.391473 0.772419
O O8 0.676881 0.938889 0.729645
O O9 0.816369 0.868995 0.996534
O O10 0.675669 0.938623 0.231019
O O11 0.777268 0.052863 0.990743
O O12 0.759743 0.749960 0.707659
#
# Coordination Sequence:
#
# PCOD9541694 Si02
#       6
#     4   4   4   4   4   4
#     4  10  24  41  69  99 137 173 237 282 344 409
#     4  11  26  41  70  97 136 180 228 283 349 405
#     4  11  23  41  72  99 142 183 230 278 353 411
#     4  11  24  42  72 106 134 181 230 296 337 400
#     4  10  22  42  65  99 137 184 224 284 342 416
#     4  11  23  45  64  98 134 181 227 287 347 415
#
# _framework density 21.068017999999999
#
# number of rings (size 3 to 8) (size 9 to 14) (size 15 to 20)
#    0.000    1.333    3.333    1.000    4.667    2.667 
#    3.000    3.333    0.000    0.000    0.000    0.000 
#    0.000    0.000    0.000    0.000    0.000    0.000 
#
# Total GULP energy -133716.664177 kJ/mol
# GULP energy per Si atom -5571.527674 kJ/mol
# Density = 2.102007 g / cm^3
# Si number density = 21.068018 Si / 1000 Ang^3
#
#
#
# Elastic Constant Matrix: (Units=GPa)
#
#
# Indices 1 2 3 4 5 6 
#
# 1 37.9048 44.6331 2.2463 0.0000 0.0000 18.2827
# 2 44.6331 37.9048 2.2463 0.0000 0.0000 -18.2827
# 3 2.2463 2.2463 61.8284 0.0000 0.0000 0.0000
# 4 0.0000 0.0000 0.0000 -22.3525 0.0000 0.0000
# 5 0.0000 0.0000 0.0000 0.0000 -22.3525 0.0000
# 6 18.2827 -18.2827 0.0000 0.0000 0.0000 -7.2431
#
#
#
# Elastic Compliance Matrix: (Units=1/GPa)
#
#
# Indices 1 2 3 4 5 6 
#
# 1 0.011913 0.000227 -0.000441 0.000000 0.000000 0.029499
# 2 0.000227 0.011913 -0.000441 0.000000 0.000000 -0.029499
# 3 -0.000441 -0.000441 0.016206 0.000000 0.000000 0.000000
# 4 0.000000 0.000000 0.000000 -0.044738 0.000000 0.000000
# 5 0.000000 0.000000 0.000000 0.000000 -0.044738 0.000000
# 6 0.029499 -0.029499 0.000000 0.000000 0.000000 0.010856
#
#
# Mechanical properties :
#
#
# Convention : Reuss Voigt Hill
#
# Bulk Modulus (GPa) = 25.82581 26.20993 26.01787
# Shear Modulus (GPa) = -205.17524 -4.48880 -104.83202
#
# Velocity S-wave (km/s) = -9.87919 -1.46125 -7.06165
# Velocity P-wave (km/s) = 10.85571 3.10171 7.35615
#
# Compressibility (1/GPa) = 0.03872096
#
# Stress axis : x y z
#
# Youngs Moduli (GPa) = 83.94131 83.94131 61.70611
#
# Poissons Ratio (x) = -0.01902 0.02722
# Poissons Ratio (y) = -0.01902 0.02722
# Poissons Ratio (z) = 0.03702 0.03702
#
# Static dielectric constant tensor:
#      x y z
#    x 1.979190 0.000000 0.000000 
#    y 0.000000 1.979190 0.000000 
#    z 0.000000 0.000000 1.908160 
# 
# From -- ./inp_files/185.got.cif
#   From: 2010.05.17/outbox.cif.g08.bks.cpg/sg78_cif.got.tgz:185.got - 2010.06.03 18:45:56.
