data_PCOD9541255
_publ_section_title
;
Structure prediction by ZEFSAII (Michael W. Deem and Ramdas Pophale) SiO2 
 PCOD9541255
Probable space group: P 41
;
_chemical_formula_sum "Si O2"
_cell_formula_units_Z 28
_cell_length_a 14.941200
_cell_length_b 14.941200
_cell_length_c 5.495531
_cell_angle_alpha 90.000000
_cell_angle_beta 90.000000
_cell_angle_gamma 90.000000
_cell_volume 1226.819359
_symmetry_space_group_name_H-M "P 41"
_symmetry_group_IT_number 76
_symmetry_cell_setting 'tetragonal'
loop_
_space_group_symop_operation_xyz
x,y,z
-y,x,1/4+z
-x,-y,1/2+z
y,-x,3/4+z
loop_
_atom_site_type_symbol
_atom_site_label
_atom_site_fract_x
_atom_site_fract_y
_atom_site_fract_z
Si Si1 0.462322 0.913552 0.803990
Si Si2 0.769124 0.651396 0.305318
Si Si3 0.857434 0.194264 0.096173
Si Si4 0.487878 0.762194 0.179543
Si Si5 0.892668 0.913464 0.838654
Si Si6 0.378039 0.453402 0.066027
Si Si7 0.895621 0.392864 0.201743
O O1 0.398809 0.862915 0.612375
O O2 0.564771 0.902338 0.719168
O O3 0.434310 0.015504 0.828980
O O4 0.455302 0.850467 0.035600
O O5 0.786551 0.754687 0.282462
O O6 0.695637 0.621327 0.501446
O O7 0.732656 0.599585 0.073966
O O8 0.857163 0.132119 0.342718
O O9 0.899728 0.287284 0.185782
O O10 0.902985 0.166429 0.836865
O O11 0.568606 0.803389 0.338399
O O12 0.510690 0.676217 0.019551
O O13 0.893353 0.011052 0.711058
O O14 0.404445 0.529791 0.875863
#
# Coordination Sequence:
#
# PCOD9541255 Si02
#       7
#     4   4   4   4   4   4   4
#     4  10  22  44  69 101 151 194 245 308 388 460
#     4  10  27  45  69 108 150 197 255 326 381 457
#     4  12  30  45  85 117 153 200 267 323 383 479
#     4  10  24  45  68  98 153 197 247 316 379 465
#     4  12  29  56  82 114 156 205 253 324 397 468
#     4  11  28  44  72 101 141 207 262 320 385 463
#     4  11  24  41  73 109 146 200 247 315 389 452
#
# _framework density 22.823243999999999
#
# number of rings (size 3 to 8) (size 9 to 14) (size 15 to 20)
#    0.000    1.143    1.429    1.714   20.000    0.000 
#    0.000    0.000    0.000    0.000    0.000    0.000 
#    0.000    0.000    0.000    0.000    0.000    0.000 
#
# Total GULP energy -156161.544349 kJ/mol
# GULP energy per Si atom -5577.198012 kJ/mol
# Density = 2.277130 g / cm^3
# Si number density = 22.823244 Si / 1000 Ang^3
#
#
#
# Elastic Constant Matrix: (Units=GPa)
#
#
# Indices 1 2 3 4 5 6 
#
# 1 190.0044 -84.3165 27.5045 0.0000 0.0000 -42.6853
# 2 -84.3165 190.0044 27.5045 0.0000 0.0000 42.6853
# 3 27.5045 27.5045 100.0453 0.0000 0.0000 0.0000
# 4 0.0000 0.0000 0.0000 11.0478 0.0000 0.0000
# 5 0.0000 0.0000 0.0000 0.0000 11.0478 0.0000
# 6 -42.6853 42.6853 0.0000 0.0000 0.0000 33.9485
#
#
#
# Elastic Compliance Matrix: (Units=1/GPa)
#
#
# Indices 1 2 3 4 5 6 
#
# 1 0.008515 0.002527 -0.003036 0.000000 0.000000 0.007530
# 2 0.002527 0.008515 -0.003036 0.000000 0.000000 -0.007530
# 3 -0.003036 -0.003036 0.011665 0.000000 0.000000 0.000000
# 4 0.000000 0.000000 0.000000 0.090516 0.000000 0.000000
# 5 0.000000 0.000000 0.000000 0.000000 0.090516 0.000000
# 6 0.007530 -0.007530 0.000000 0.000000 0.000000 0.048392
#
#
# Mechanical properties :
#
#
# Convention : Reuss Voigt Hill
#
# Bulk Modulus (GPa) = 46.28403 46.82658 46.55531
# Shear Modulus (GPa) = 18.35468 45.16627 31.76047
#
# Velocity S-wave (km/s) = 2.83894 4.45338 3.73444
# Velocity P-wave (km/s) = 5.57400 6.85602 6.24798
#
# Compressibility (1/GPa) = 0.02160572
#
# Stress axis : x y z
#
# Youngs Moduli (GPa) = 117.43588 117.43588 85.72963
#
# Poissons Ratio (x) = -0.29671 0.26024
# Poissons Ratio (y) = -0.29671 0.26024
# Poissons Ratio (z) = 0.35649 0.35649
#
# Static dielectric constant tensor:
#      x y z
#    x 1.831480 0.000000 0.000000 
#    y 0.000000 1.831480 0.000000 
#    z 0.000000 0.000000 2.043430 
# 
# From -- ./inp_files/269.got.cif
#   From: 2010.05.17/outbox.cif.g08.bks.cpg/sg76_cif.got.tgz:269.got - 2010.06.03 18:43:17.
