data_PCOD9541171
_publ_section_title
;
Structure prediction by ZEFSAII (Michael W. Deem and Ramdas Pophale) SiO2 
 PCOD9541171
Probable space group: P 41
;
_chemical_formula_sum "Si O2"
_cell_formula_units_Z 24
_cell_length_a 11.702065
_cell_length_b 11.702065
_cell_length_c 7.117693
_cell_angle_alpha 90.000000
_cell_angle_beta 90.000000
_cell_angle_gamma 90.000000
_cell_volume 974.684959
_symmetry_space_group_name_H-M "P 41"
_symmetry_group_IT_number 76
_symmetry_cell_setting 'tetragonal'
loop_
_space_group_symop_operation_xyz
x,y,z
-y,x,1/4+z
-x,-y,1/2+z
y,-x,3/4+z
loop_
_atom_site_type_symbol
_atom_site_label
_atom_site_fract_x
_atom_site_fract_y
_atom_site_fract_z
Si Si1 0.267967 0.922776 0.687030
Si Si2 0.209752 0.457385 0.121649
Si Si3 0.580754 0.693651 0.525692
Si Si4 0.728373 0.668964 0.181341
Si Si5 0.936487 0.140719 0.437847
Si Si6 0.318334 0.132605 0.464989
O O1 0.355071 0.878234 0.844737
O O2 0.319868 0.857046 0.505657
O O3 0.146274 0.882364 0.761268
O O4 0.268955 0.053750 0.630890
O O5 0.151130 0.547325 0.257835
O O6 0.220721 0.539899 0.937141
O O7 0.339085 0.404703 0.122869
O O8 0.660088 0.729933 0.353165
O O9 0.456380 0.671352 0.431001
O O10 0.723085 0.736779 0.989598
O O11 0.920685 0.266253 0.525204
O O12 0.059236 0.104653 0.359173
#
# Coordination Sequence:
#
# PCOD9541171 Si02
#       6
#     4   4   4   4   4   4
#     4  10  23  42  61  90 131 162 204 263 316 371
#     4  10  22  39  62  92 126 170 206 256 316 362
#     4   8  19  39  58  83 123 161 210 251 290 365
#     4  10  21  38  62  90 122 169 211 258 312 359
#     4  12  25  44  69  92 121 163 212 261 312 374
#     4  12  24  38  64  95 125 161 209 259 318 377
#
# _framework density 24.623339999999999
#
# number of rings (size 3 to 8) (size 9 to 14) (size 15 to 20)
#    0.000    2.000    0.000    5.000    0.000   12.000 
#    0.000    0.000    0.000    0.000    0.000    0.000 
#    0.000    0.000    0.000    0.000    0.000    0.000 
#
# Total GULP energy -133653.963852 kJ/mol
# GULP energy per Si atom -5568.915161 kJ/mol
# Density = 2.456730 g / cm^3
# Si number density = 24.623340 Si / 1000 Ang^3
#
#
#
# Elastic Constant Matrix: (Units=GPa)
#
#
# Indices 1 2 3 4 5 6 
#
# 1 29.3564 92.0869 12.1571 0.0000 0.0000 13.6796
# 2 92.0869 29.3564 12.1571 0.0000 0.0000 -13.6796
# 3 12.1571 12.1571 33.7312 0.0000 0.0000 0.0000
# 4 0.0000 0.0000 0.0000 36.7527 0.0000 0.0000
# 5 0.0000 0.0000 0.0000 0.0000 36.7527 0.0000
# 6 13.6796 -13.6796 0.0000 0.0000 0.0000 23.2200
#
#
#
# Elastic Compliance Matrix: (Units=1/GPa)
#
#
# Indices 1 2 3 4 5 6 
#
# 1 -0.001904 0.010779 -0.003199 0.000000 0.000000 0.007472
# 2 0.010779 -0.001904 -0.003199 0.000000 0.000000 -0.007472
# 3 -0.003199 -0.003199 0.031952 0.000000 0.000000 0.000000
# 4 0.000000 0.000000 0.000000 0.027209 0.000000 0.000000
# 5 0.000000 0.000000 0.000000 0.000000 0.027209 0.000000
# 6 0.007472 -0.007472 0.000000 0.000000 0.000000 0.034263
#
#
# Mechanical properties :
#
#
# Convention : Reuss Voigt Hill
#
# Bulk Modulus (GPa) = 27.09517 36.13845 31.61681
# Shear Modulus (GPa) = 41.54080 17.74794 29.64437
#
# Velocity S-wave (km/s) = 4.11183 2.68764 3.47351
# Velocity P-wave (km/s) = 5.79401 4.93352 5.38099
#
# Compressibility (1/GPa) = 0.03690695
#
# Stress axis : x y z
#
# Youngs Moduli (GPa) = -525.23116 -525.23116 31.29724
#
# Poissons Ratio (x) = 5.66126 0.10010
# Poissons Ratio (y) = 5.66126 0.10010
# Poissons Ratio (z) = -1.67996 -1.67996
#
# Static dielectric constant tensor:
#      x y z
#    x 2.018860 0.000000 0.000000 
#    y 0.000000 2.018860 0.000000 
#    z 0.000000 0.000000 2.065780 
# 
# From -- ./inp_files/558.got.cif
#   From: 2010.05.17/outbox.cif.g08.bks.cpg/sg76_cif.got.tgz:558.got - 2010.06.03 18:43:17.
