data_PCOD9541324
_publ_section_title
;
Structure prediction by ZEFSAII (Michael W. Deem and Ramdas Pophale) SiO2 
 PCOD9541324
Probable space group: P 41
;
_chemical_formula_sum "Si O2"
_cell_formula_units_Z 16
_cell_length_a 7.006900
_cell_length_b 7.006900
_cell_length_c 11.091436
_cell_angle_alpha 90.000000
_cell_angle_beta 90.000000
_cell_angle_gamma 90.000000
_cell_volume 544.552325
_symmetry_space_group_name_H-M "P 41"
_symmetry_group_IT_number 76
_symmetry_cell_setting 'tetragonal'
loop_
_space_group_symop_operation_xyz
x,y,z
-y,x,1/4+z
-x,-y,1/2+z
y,-x,3/4+z
loop_
_atom_site_type_symbol
_atom_site_label
_atom_site_fract_x
_atom_site_fract_y
_atom_site_fract_z
Si Si1 0.465733 0.364038 0.399810
Si Si2 0.911861 0.090219 0.339825
Si Si3 0.944023 0.513351 0.248711
Si Si4 0.651899 0.827685 0.205500
O O1 0.592578 0.466535 0.505989
O O2 0.488670 0.142722 0.425822
O O3 0.256825 0.440657 0.439076
O O4 0.877204 0.314817 0.311923
O O5 0.963094 0.058636 0.480426
O O6 0.737051 0.940819 0.318045
O O7 0.008502 0.653064 0.357420
O O8 0.780058 0.638965 0.186857
#
# Coordination Sequence:
#
# PCOD9541324 Si02
#       4
#     4   4   4   4
#     4  10  26  47  77 117 160 217 280 348 418 504
#     4  12  30  54  85 128 174 231 290 360 438 513
#     4  11  28  51  83 121 175 222 297 352 440 515
#     4  11  26  50  81 122 163 224 283 358 414 532
#
# _framework density 29.381930000000001
#
# number of rings (size 3 to 8) (size 9 to 14) (size 15 to 20)
#    0.000    1.000    2.500    0.000   17.500    0.000 
#    0.000    0.000    0.000    0.000    0.000    0.000 
#    0.000    0.000    0.000    0.000    0.000    0.000 
#
# Total GULP energy -89400.539943 kJ/mol
# GULP energy per Si atom -5587.533746 kJ/mol
# Density = 2.931506 g / cm^3
# Si number density = 29.381930 Si / 1000 Ang^3
#
#
#
# Elastic Constant Matrix: (Units=GPa)
#
#
# Indices 1 2 3 4 5 6 
#
# 1 146.5808 82.5228 36.0108 0.0000 0.0000 -11.3104
# 2 82.5228 146.5808 36.0108 0.0000 0.0000 11.3104
# 3 36.0108 36.0108 171.0854 0.0000 0.0000 0.0000
# 4 0.0000 0.0000 0.0000 42.0979 0.0000 0.0000
# 5 0.0000 0.0000 0.0000 0.0000 42.0979 0.0000
# 6 -11.3104 11.3104 0.0000 0.0000 0.0000 69.9881
#
#
#
# Elastic Compliance Matrix: (Units=1/GPa)
#
#
# Indices 1 2 3 4 5 6 
#
# 1 0.010615 -0.005941 -0.000984 0.000000 0.000000 0.002675
# 2 -0.005941 0.010615 -0.000984 0.000000 0.000000 -0.002675
# 3 -0.000984 -0.000984 0.006259 0.000000 0.000000 0.000000
# 4 0.000000 0.000000 0.000000 0.023754 0.000000 0.000000
# 5 0.000000 0.000000 0.000000 0.000000 0.023754 0.000000
# 6 0.002675 -0.002675 0.000000 0.000000 0.000000 0.015153
#
#
# Mechanical properties :
#
#
# Convention : Reuss Voigt Hill
#
# Bulk Modulus (GPa) = 85.67428 85.92620 85.80024
# Shear Modulus (GPa) = 45.51345 51.48364 48.49854
#
# Velocity S-wave (km/s) = 3.94004 4.19050 4.06720
# Velocity P-wave (km/s) = 7.06546 7.26097 7.16388
#
# Compressibility (1/GPa) = 0.01167211
#
# Stress axis : x y z
#
# Youngs Moduli (GPa) = 94.20738 94.20738 159.76496
#
# Poissons Ratio (x) = 0.55966 0.15718
# Poissons Ratio (y) = 0.55966 0.15718
# Poissons Ratio (z) = 0.09268 0.09268
#
# Static dielectric constant tensor:
#      x y z
#    x 2.334710 0.000000 0.000000 
#    y 0.000000 2.334710 0.000000 
#    z 0.000000 0.000000 2.506560 
# 
# From -- ./inp_files/771.got.cif
#   From: 2010.05.17/outbox.cif.g08.bks.cpg/sg76_cif.got.tgz:771.got - 2010.06.03 18:43:17.
