data_PCOD9541239
_publ_section_title
;
Structure prediction by ZEFSAII (Michael W. Deem and Ramdas Pophale) SiO2 
 PCOD9541239
Probable space group: P 41
;
_chemical_formula_sum "Si O2"
_cell_formula_units_Z 20
_cell_length_a 5.373535
_cell_length_b 5.373535
_cell_length_c 25.675584
_cell_angle_alpha 90.000000
_cell_angle_beta 90.000000
_cell_angle_gamma 90.000000
_cell_volume 741.379366
_symmetry_space_group_name_H-M "P 41"
_symmetry_group_IT_number 76
_symmetry_cell_setting 'tetragonal'
loop_
_space_group_symop_operation_xyz
x,y,z
-y,x,1/4+z
-x,-y,1/2+z
y,-x,3/4+z
loop_
_atom_site_type_symbol
_atom_site_label
_atom_site_fract_x
_atom_site_fract_y
_atom_site_fract_z
Si Si1 0.585703 0.872052 0.818220
Si Si2 0.094744 0.091290 0.122745
Si Si3 0.957937 0.053283 0.492391
Si Si4 0.931571 0.530768 0.220155
Si Si5 0.548553 0.446060 0.401973
O O1 0.337698 0.991334 0.841684
O O2 0.657100 0.915222 0.758335
O O3 0.576801 0.597890 0.845151
O O4 0.844401 0.968241 0.842359
O O5 0.993799 0.060002 0.180703
O O6 0.383561 0.164276 0.136794
O O7 0.703196 0.922373 0.509546
O O8 0.224436 0.948337 0.504187
O O9 0.198183 0.525865 0.187614
O O10 0.691316 0.518548 0.183073
#
# Coordination Sequence:
#
# PCOD9541239 Si02
#       5
#     4   4   4   4   4
#     4  10  22  40  72  95 137 172 229 267 339 397
#     4   9  20  44  64  98 133 173 217 282 323 396
#     4  11  23  44  70 100 132 181 222 275 338 399
#     4  11  24  40  71  89 137 167 223 265 337 378
#     4   9  23  42  65  94 129 175 207 279 319 390
#
# _framework density 26.976745999999999
#
# number of rings (size 3 to 8) (size 9 to 14) (size 15 to 20)
#    1.200    0.800    2.000    0.000    2.800    6.400 
#    0.000    0.000    0.000    0.000    0.000    0.000 
#    0.000    0.000    0.000    0.000    0.000    0.000 
#
# Total GULP energy -111340.505907 kJ/mol
# GULP energy per Si atom -5567.025295 kJ/mol
# Density = 2.691535 g / cm^3
# Si number density = 26.976746 Si / 1000 Ang^3
#
#
#
# Elastic Constant Matrix: (Units=GPa)
#
#
# Indices 1 2 3 4 5 6 
#
# 1 147.6332 10.7814 17.9937 0.0000 0.0000 -4.5996
# 2 10.7814 147.6332 17.9937 0.0000 0.0000 4.5996
# 3 17.9937 17.9937 89.2227 0.0000 0.0000 0.0000
# 4 0.0000 0.0000 0.0000 41.1045 0.0000 0.0000
# 5 0.0000 0.0000 0.0000 0.0000 41.1045 0.0000
# 6 -4.5996 4.5996 0.0000 0.0000 0.0000 20.2036
#
#
#
# Elastic Compliance Matrix: (Units=1/GPa)
#
#
# Indices 1 2 3 4 5 6 
#
# 1 0.007018 -0.000403 -0.001334 0.000000 0.000000 0.001689
# 2 -0.000403 0.007018 -0.001334 0.000000 0.000000 -0.001689
# 3 -0.001334 -0.001334 0.011746 0.000000 0.000000 0.000000
# 4 0.000000 0.000000 0.000000 0.024328 0.000000 0.000000
# 5 0.000000 0.000000 0.000000 0.000000 0.024328 0.000000
# 6 0.001689 -0.001689 0.000000 0.000000 0.000000 0.050265
#
#
# Mechanical properties :
#
#
# Convention : Reuss Voigt Hill
#
# Bulk Modulus (GPa) = 50.91502 53.11408 52.01455
# Shear Modulus (GPa) = 36.39193 42.99718 39.69455
#
# Velocity S-wave (km/s) = 3.67687 3.99665 3.84009
# Velocity P-wave (km/s) = 6.07787 6.40540 6.24378
#
# Compressibility (1/GPa) = 0.01964057
#
# Stress axis : x y z
#
# Youngs Moduli (GPa) = 142.48683 142.48683 85.13505
#
# Poissons Ratio (x) = 0.05736 0.11359
# Poissons Ratio (y) = 0.05736 0.11359
# Poissons Ratio (z) = 0.19010 0.19010
#
# Static dielectric constant tensor:
#      x y z
#    x 2.186540 0.000000 0.000000 
#    y 0.000000 2.186540 0.000000 
#    z 0.000000 0.000000 2.353850 
# 
# From -- ./inp_files/1660.got.cif
#   From: 2010.05.17/outbox.cif.g08.bks.cpg/sg76_cif.got.tgz:1660.got - 2010.06.03 18:43:17.
