data_PCOD9541419
_publ_section_title
;
Structure prediction by ZEFSAII (Michael W. Deem and Ramdas Pophale) SiO2 
 PCOD9541419
Probable space group: P 41
;
_chemical_formula_sum "Si O2"
_cell_formula_units_Z 20
_cell_length_a 12.263157
_cell_length_b 12.263157
_cell_length_c 5.027345
_cell_angle_alpha 90.000000
_cell_angle_beta 90.000000
_cell_angle_gamma 90.000000
_cell_volume 756.037376
_symmetry_space_group_name_H-M "P 41"
_symmetry_group_IT_number 76
_symmetry_cell_setting 'tetragonal'
loop_
_space_group_symop_operation_xyz
x,y,z
-y,x,1/4+z
-x,-y,1/2+z
y,-x,3/4+z
loop_
_atom_site_type_symbol
_atom_site_label
_atom_site_fract_x
_atom_site_fract_y
_atom_site_fract_z
Si Si1 0.870961 0.756264 0.492690
Si Si2 0.651487 0.432958 0.497231
Si Si3 0.840221 0.966226 0.852967
Si Si4 0.573654 0.994666 0.442738
Si Si5 0.241795 0.640556 0.506490
O O1 0.837969 0.876487 0.614372
O O2 0.759927 0.720328 0.353037
O O3 0.975420 0.752781 0.292733
O O4 0.913471 0.668783 0.710694
O O5 0.625266 0.539323 0.668459
O O6 0.701389 0.447029 0.203978
O O7 0.730651 0.367718 0.695706
O O8 0.901742 0.075983 0.780908
O O9 0.621334 0.882808 0.328023
O O10 0.516935 0.971744 0.725008
#
# Coordination Sequence:
#
# PCOD9541419 Si02
#       5
#     4   4   4   4   4
#     4  12  30  48  80 116 163 214 267 337 397 502
#     4  12  28  54  84 120 152 202 279 354 405 472
#     4  12  22  46  74 113 153 201 265 322 386 455
#     4  12  31  55  78 116 170 215 269 330 421 499
#     4  12  29  51  84 121 160 216 268 327 431 486
#
# _framework density 26.453714999999999
#
# number of rings (size 3 to 8) (size 9 to 14) (size 15 to 20)
#    0.000    0.000    2.000    6.000   19.600    0.000 
#    0.000    0.000    0.000    0.000    0.000    0.000 
#    0.000    0.000    0.000    0.000    0.000    0.000 
#
# Total GULP energy -111762.991591 kJ/mol
# GULP energy per Si atom -5588.149580 kJ/mol
# Density = 2.639351 g / cm^3
# Si number density = 26.453715 Si / 1000 Ang^3
#
#
#
# Elastic Constant Matrix: (Units=GPa)
#
#
# Indices 1 2 3 4 5 6 
#
# 1 79.8367 39.8805 30.6393 0.0000 0.0000 -5.5323
# 2 39.8805 79.8367 30.6393 0.0000 0.0000 5.5323
# 3 30.6393 30.6393 146.6475 0.0000 0.0000 0.0000
# 4 0.0000 0.0000 0.0000 56.1580 0.0000 0.0000
# 5 0.0000 0.0000 0.0000 0.0000 56.1580 0.0000
# 6 -5.5323 5.5323 0.0000 0.0000 0.0000 15.7664
#
#
#
# Elastic Compliance Matrix: (Units=1/GPa)
#
#
# Indices 1 2 3 4 5 6 
#
# 1 0.018537 -0.009184 -0.001954 0.000000 0.000000 0.009727
# 2 -0.009184 0.018537 -0.001954 0.000000 0.000000 -0.009727
# 3 -0.001954 -0.001954 0.007636 0.000000 0.000000 0.000000
# 4 0.000000 0.000000 0.000000 0.017807 0.000000 0.000000
# 5 0.000000 0.000000 0.000000 0.000000 0.017807 0.000000
# 6 0.009727 -0.009727 0.000000 0.000000 0.000000 0.070252
#
#
# Mechanical properties :
#
#
# Convention : Reuss Voigt Hill
#
# Bulk Modulus (GPa) = 53.97978 56.51545 55.24762
# Shear Modulus (GPa) = 27.33196 39.29394 33.31295
#
# Velocity S-wave (km/s) = 3.21783 3.85825 3.55250
# Velocity P-wave (km/s) = 5.85283 6.42327 6.14467
#
# Compressibility (1/GPa) = 0.01852546
#
# Stress axis : x y z
#
# Youngs Moduli (GPa) = 53.94563 53.94563 130.96444
#
# Poissons Ratio (x) = 0.49543 0.25593
# Poissons Ratio (y) = 0.49543 0.25593
# Poissons Ratio (z) = 0.10542 0.10542
#
# Static dielectric constant tensor:
#      x y z
#    x 1.898330 0.000000 0.000000 
#    y 0.000000 1.898330 0.000000 
#    z 0.000000 0.000000 2.219450 
# 
# From -- ./inp_files/140.got.cif
#   From: 2010.05.17/outbox.cif.g08.bks.cpg/sg76_cif.got.tgz:140.got - 2010.06.03 18:43:17.
