data_PCOD9541805
_publ_section_title
;
Structure prediction by ZEFSAII (Michael W. Deem and Ramdas Pophale) SiO2 
 PCOD9541805
Probable space group: I 4
;
_chemical_formula_sum "Si O2"
_cell_formula_units_Z 44
_cell_length_a 14.260372
_cell_length_b 14.260372
_cell_length_c 11.213504
_cell_angle_alpha 90.000000
_cell_angle_beta 90.000000
_cell_angle_gamma 90.000000
_cell_volume 2280.358097
_symmetry_space_group_name_H-M "I 4"
_symmetry_group_IT_number 79
_symmetry_cell_setting 'tetragonal'
loop_
_space_group_symop_operation_xyz
x,y,z
-y,x,z
-x,-y,z
y,-x,z
1/2+x,1/2+y,1/2+z
1/2-y,1/2+x,1/2+z
1/2-x,1/2-y,1/2+z
1/2+y,1/2-x,1/2+z
loop_
_atom_site_type_symbol
_atom_site_label
_atom_site_fract_x
_atom_site_fract_y
_atom_site_fract_z
Si Si1 0.458866 0.824069 0.890480
Si Si2 0.105010 0.255830 0.928014
Si Si3 0.726622 0.591072 0.311645
Si Si4 0.965126 0.149111 0.560595
Si Si5 0.500000 0.000000 0.034966
Si Si6 0.670533 0.088556 0.182056
O O1 0.354376 0.862892 0.868453
O O2 0.514600 0.788458 0.775865
O O3 0.448569 0.742265 0.986255
O O4 0.516355 0.910474 0.949782
O O5 0.165124 0.171687 0.873238
O O6 0.994911 0.245648 0.900398
O O7 0.118537 0.265512 0.070506
O O8 0.671854 0.546112 0.199720
O O9 0.821230 0.634502 0.254850
O O10 0.067726 0.109004 0.532862
O O11 0.415636 0.966220 0.118652
#
# Coordination Sequence:
#
# PCOD9541805 Si02
#       6
#     8   8   8   8   4   8
#     4  11  24  42  67  99 135 170 218 274 336 395
#     4  11  26  41  66  99 127 179 218 270 338 388
#     4  12  23  43  68  94 131 170 225 268 325 408
#     4  11  24  45  71  92 123 178 232 271 316 396
#     4  10  18  38  66 102 130 168 210 264 334 392
#     4  11  23  40  65 101 131 169 216 272 338 389
#
# _framework density 19.295213
#
# number of rings (size 3 to 8) (size 9 to 14) (size 15 to 20)
#    0.000    0.909    5.455    3.818    2.545    1.818 
#    0.000    0.000    0.000    0.000    0.000    0.000 
#    0.000    0.000    0.000    0.000    0.000    0.000 
#
# Total GULP energy -122901.091143 kJ/mol
# GULP energy per Si atom -5586.413234 kJ/mol
# Density = 1.925130 g / cm^3
# Si number density = 19.295213 Si / 1000 Ang^3
#
#
#
# Elastic Constant Matrix: (Units=GPa)
#
#
# Indices 1 2 3 4 5 6 
#
# 1 104.0011 60.0935 45.7964 0.0000 0.0000 6.1344
# 2 60.0935 104.0011 45.7964 0.0000 0.0000 -6.1344
# 3 45.7964 45.7964 98.8221 0.0000 0.0000 0.0000
# 4 0.0000 0.0000 0.0000 24.5418 0.0000 0.0000
# 5 0.0000 0.0000 0.0000 0.0000 24.5418 0.0000
# 6 6.1344 -6.1344 0.0000 0.0000 0.0000 3.3964
#
#
#
# Elastic Compliance Matrix: (Units=1/GPa)
#
#
# Indices 1 2 3 4 5 6 
#
# 1 0.027101 -0.018880 -0.003810 0.000000 0.000000 -0.083048
# 2 -0.018880 0.027101 -0.003810 0.000000 0.000000 0.083048
# 3 -0.003810 -0.003810 0.013650 0.000000 0.000000 0.000000
# 4 0.000000 0.000000 0.000000 0.040747 0.000000 0.000000
# 5 0.000000 0.000000 0.000000 0.000000 0.040747 0.000000
# 6 -0.083048 0.083048 0.000000 0.000000 0.000000 0.594422
#
#
# Mechanical properties :
#
#
# Convention : Reuss Voigt Hill
#
# Bulk Modulus (GPa) = 67.32755 67.79964 67.56359
# Shear Modulus (GPa) = 6.23662 20.83856 13.53759
#
# Velocity S-wave (km/s) = 1.79979 3.28988 2.65165
# Velocity P-wave (km/s) = 6.26802 7.04595 6.66834
#
# Compressibility (1/GPa) = 0.01485276
#
# Stress axis : x y z
#
# Youngs Moduli (GPa) = 36.89966 36.89966 73.25994
#
# Poissons Ratio (x) = 0.69667 0.27909
# Poissons Ratio (y) = 0.69667 0.27909
# Poissons Ratio (z) = 0.14057 0.14057
#
# Static dielectric constant tensor:
#      x y z
#    x 1.673690 0.000000 0.000000 
#    y 0.000000 1.673690 0.000000 
#    z 0.000000 0.000000 1.688280 
# 
# From -- ./inp_files/1017.got.cif
#   From: 2010.05.17/outbox.cif.g08.bks.cpg/sg79_cif.got.tgz:1017.got - 2010.06.03 18:47:27.
