data_PCOD9541878
_publ_section_title
;
Structure prediction by ZEFSAII (Michael W. Deem and Ramdas Pophale) SiO2 
 PCOD9541878
Probable space group: I 4
;
_chemical_formula_sum "Si O2"
_cell_formula_units_Z 58
_cell_length_a 17.361434
_cell_length_b 17.361434
_cell_length_c 8.973258
_cell_angle_alpha 90.000000
_cell_angle_beta 90.000000
_cell_angle_gamma 90.000000
_cell_volume 2704.713957
_symmetry_space_group_name_H-M "I 4"
_symmetry_group_IT_number 79
_symmetry_cell_setting 'tetragonal'
loop_
_space_group_symop_operation_xyz
x,y,z
-y,x,z
-x,-y,z
y,-x,z
1/2+x,1/2+y,1/2+z
1/2-y,1/2+x,1/2+z
1/2-x,1/2-y,1/2+z
1/2+y,1/2-x,1/2+z
loop_
_atom_site_type_symbol
_atom_site_label
_atom_site_fract_x
_atom_site_fract_y
_atom_site_fract_z
Si Si1 0.007433 0.792290 0.055340
Si Si2 0.743490 0.981276 0.570889
Si Si3 0.980881 0.589387 0.436647
Si Si4 0.730593 0.104660 0.833419
Si Si5 0.422927 0.853497 0.678148
Si Si6 0.897547 0.148496 0.772679
Si Si7 0.625852 0.482102 0.847053
Si Si8 0.500000 0.500000 0.220567
O O1 0.062637 0.734869 0.143026
O O2 0.977315 0.854453 0.172337
O O3 0.052333 0.830459 0.918634
O O4 0.939516 0.738922 0.989353
O O5 0.791097 0.911217 0.639780
O O6 0.655702 0.970424 0.521183
O O7 0.739437 0.039984 0.706854
O O8 0.795613 0.018873 0.440848
O O9 0.898402 0.594762 0.522354
O O10 0.000000 0.500000 0.454164
O O11 0.003008 0.609931 0.264999
O O12 0.649568 0.140599 0.789602
O O13 0.808405 0.152813 0.817362
O O14 0.927652 0.063396 0.725851
O O15 0.582910 0.562829 0.880907
#
# Coordination Sequence:
#
# PCOD9541878 Si02
#       8
#     8   8   8   8   8   8   8   2
#     4  11  22  41  62  96 138 172 228 287 335 414
#     4  10  21  40  62  97 138 169 224 288 325 402
#     4  11  23  43  70  94 125 174 236 291 351 411
#     4  10  22  41  65  91 133 179 225 273 341 414
#     4  11  24  44  68  98 129 172 230 298 353 404
#     4  11  22  38  67  99 139 187 228 270 331 431
#     4  11  23  35  63 101 141 177 215 271 347 411
#     4  12  20  36  76 102 136 196 240 254 344 432
#
# _framework density 21.444040999999999
#
# number of rings (size 3 to 8) (size 9 to 14) (size 15 to 20)
#    0.000    1.241    4.138    2.897    0.000    2.207 
#    2.483    1.379    0.000    0.000    0.000    0.000 
#    0.000    0.000    0.000    0.000    0.000    0.000 
#
# Total GULP energy -161526.391983 kJ/mol
# GULP energy per Si atom -5569.875586 kJ/mol
# Density = 2.139523 g / cm^3
# Si number density = 21.444041 Si / 1000 Ang^3
#
#
#
# Elastic Constant Matrix: (Units=GPa)
#
#
# Indices 1 2 3 4 5 6 
#
# 1 96.5967 -10.0003 14.9654 0.0000 0.0000 6.8417
# 2 -10.0003 96.5967 14.9654 0.0000 0.0000 -6.8417
# 3 14.9654 14.9654 85.0487 0.0000 0.0000 0.0000
# 4 0.0000 0.0000 0.0000 19.9731 0.0000 0.0000
# 5 0.0000 0.0000 0.0000 0.0000 19.9731 0.0000
# 6 6.8417 -6.8417 0.0000 0.0000 0.0000 23.4973
#
#
#
# Elastic Compliance Matrix: (Units=1/GPa)
#
#
# Indices 1 2 3 4 5 6 
#
# 1 0.011021 0.001275 -0.002164 0.000000 0.000000 -0.002838
# 2 0.001275 0.011021 -0.002164 0.000000 0.000000 0.002838
# 3 -0.002164 -0.002164 0.012519 0.000000 0.000000 0.000000
# 4 0.000000 0.000000 0.000000 0.050067 0.000000 0.000000
# 5 0.000000 0.000000 0.000000 0.000000 0.050067 0.000000
# 6 -0.002838 0.002838 0.000000 0.000000 0.000000 0.044210
#
#
# Mechanical properties :
#
#
# Convention : Reuss Voigt Hill
#
# Bulk Modulus (GPa) = 35.14152 35.34478 35.24315
# Shear Modulus (GPa) = 25.70761 29.90948 27.80854
#
# Velocity S-wave (km/s) = 3.46616 3.73871 3.60501
# Velocity P-wave (km/s) = 5.69580 5.92920 5.81367
#
# Compressibility (1/GPa) = 0.02845637
#
# Stress axis : x y z
#
# Youngs Moduli (GPa) = 90.73996 90.73996 79.87615
#
# Poissons Ratio (x) = -0.11571 0.17282
# Poissons Ratio (y) = -0.11571 0.17282
# Poissons Ratio (z) = 0.19632 0.19632
#
# Static dielectric constant tensor:
#      x y z
#    x 1.789400 0.000000 0.000000 
#    y 0.000000 1.789400 0.000000 
#    z 0.000000 0.000000 1.828340 
# 
# From -- ./inp_files/751.got.cif
#   From: 2010.05.17/outbox.cif.g08.bks.cpg/sg79_cif.got.tgz:751.got - 2010.06.03 18:47:27.
