data_PCOD9541442
_publ_section_title
;
Structure prediction by ZEFSAII (Michael W. Deem and Ramdas Pophale) SiO2 
 PCOD9541442
Probable space group: P 41
;
_chemical_formula_sum "Si O2"
_cell_formula_units_Z 28
_cell_length_a 12.538839
_cell_length_b 12.538839
_cell_length_c 7.565586
_cell_angle_alpha 90.000000
_cell_angle_beta 90.000000
_cell_angle_gamma 90.000000
_cell_volume 1189.480220
_symmetry_space_group_name_H-M "P 41"
_symmetry_group_IT_number 76
_symmetry_cell_setting 'tetragonal'
loop_
_space_group_symop_operation_xyz
x,y,z
-y,x,1/4+z
-x,-y,1/2+z
y,-x,3/4+z
loop_
_atom_site_type_symbol
_atom_site_label
_atom_site_fract_x
_atom_site_fract_y
_atom_site_fract_z
Si Si1 0.836153 0.728947 0.447150
Si Si2 0.140105 0.679445 0.196571
Si Si3 0.355790 0.508838 0.809093
Si Si4 0.359197 0.149967 0.068022
Si Si5 0.220643 0.354812 0.576003
Si Si6 0.011821 0.864839 0.361112
Si Si7 0.432509 0.914377 0.994945
O O1 0.721417 0.786058 0.443853
O O2 0.845253 0.682725 0.249216
O O3 0.858046 0.637633 0.591091
O O4 0.918645 0.823588 0.488945
O O5 0.260929 0.710809 0.238676
O O6 0.074493 0.758352 0.318331
O O7 0.109365 0.557150 0.224184
O O8 0.116440 0.704286 0.992586
O O9 0.411165 0.439664 0.964140
O O10 0.246607 0.563372 0.877619
O O11 0.307556 0.437374 0.650742
O O12 0.411320 0.042394 0.993078
O O13 0.139233 0.398288 0.430011
O O14 0.952470 0.913047 0.193825
#
# Coordination Sequence:
#
# PCOD9541442 Si02
#       7
#     4   4   4   4   4   4   4
#     4  12  26  53  77 115 157 205 265 331 397 477
#     4  12  29  48  80 116 158 205 268 327 399 483
#     4  12  29  49  80 112 158 208 261 321 402 472
#     4  12  29  48  80 116 158 205 268 327 399 483
#     4  12  26  53  77 115 157 205 265 331 397 477
#     4  12  29  49  80 112 158 208 261 321 402 472
#     4  12  30  48  82 114 156 212 264 332 410 470
#
# _framework density 23.539693
#
# number of rings (size 3 to 8) (size 9 to 14) (size 15 to 20)
#    0.000    0.000    4.286    3.429   10.000    0.000 
#    0.000    0.000    0.000    0.000    0.000    0.000 
#    0.000    0.000    0.000    0.000    0.000    0.000 
#
# Total GULP energy -156766.498090 kJ/mol
# GULP energy per Si atom -5598.803503 kJ/mol
# Density = 2.348612 g / cm^3
# Si number density = 23.539693 Si / 1000 Ang^3
#
#
#
# Elastic Constant Matrix: (Units=GPa)
#
#
# Indices 1 2 3 4 5 6 
#
# 1 110.4126 52.5159 27.7938 0.0000 0.0000 0.5770
# 2 52.5159 110.4126 27.7938 0.0000 0.0000 -0.5770
# 3 27.7938 27.7938 107.4862 0.0000 0.0000 0.0000
# 4 0.0000 0.0000 0.0000 23.0801 0.0000 0.0000
# 5 0.0000 0.0000 0.0000 0.0000 23.0801 0.0000
# 6 0.5770 -0.5770 0.0000 0.0000 0.0000 29.7151
#
#
#
# Elastic Compliance Matrix: (Units=1/GPa)
#
#
# Indices 1 2 3 4 5 6 
#
# 1 0.012005 -0.005274 -0.001741 0.000000 0.000000 -0.000335
# 2 -0.005274 0.012005 -0.001741 0.000000 0.000000 0.000335
# 3 -0.001741 -0.001741 0.010204 0.000000 0.000000 0.000000
# 4 0.000000 0.000000 0.000000 0.043327 0.000000 0.000000
# 5 0.000000 0.000000 0.000000 0.000000 0.043327 0.000000
# 6 -0.000335 0.000335 0.000000 0.000000 0.000000 0.033666
#
#
# Mechanical properties :
#
#
# Convention : Reuss Voigt Hill
#
# Bulk Modulus (GPa) = 59.86514 60.50204 60.18359
# Shear Modulus (GPa) = 28.15112 29.85557 29.00334
#
# Velocity S-wave (km/s) = 3.46193 3.56519 3.51394
# Velocity P-wave (km/s) = 6.43947 6.53494 6.48738
#
# Compressibility (1/GPa) = 0.01670421
#
# Stress axis : x y z
#
# Youngs Moduli (GPa) = 83.29730 83.29730 98.00355
#
# Poissons Ratio (x) = 0.43928 0.17059
# Poissons Ratio (y) = 0.43928 0.17059
# Poissons Ratio (z) = 0.14499 0.14499
#
# Static dielectric constant tensor:
#      x y z
#    x 2.049520 0.000000 0.000000 
#    y 0.000000 2.049520 0.000000 
#    z 0.000000 0.000000 1.904960 
# 
# From -- ./inp_files/622.got.cif
#   From: 2010.05.17/outbox.cif.g08.bks.cpg/sg76_cif.got.tgz:622.got - 2010.06.03 18:43:17.
