data_PCOD9541370
_publ_section_title
;
Structure prediction by ZEFSAII (Michael W. Deem and Ramdas Pophale) SiO2 
 PCOD9541370
Probable space group: P 41
;
_chemical_formula_sum "Si O2"
_cell_formula_units_Z 28
_cell_length_a 11.849202
_cell_length_b 11.849202
_cell_length_c 8.542470
_cell_angle_alpha 90.000000
_cell_angle_beta 90.000000
_cell_angle_gamma 90.000000
_cell_volume 1199.393439
_symmetry_space_group_name_H-M "P 41"
_symmetry_group_IT_number 76
_symmetry_cell_setting 'tetragonal'
loop_
_space_group_symop_operation_xyz
x,y,z
-y,x,1/4+z
-x,-y,1/2+z
y,-x,3/4+z
loop_
_atom_site_type_symbol
_atom_site_label
_atom_site_fract_x
_atom_site_fract_y
_atom_site_fract_z
Si Si1 0.104040 0.318357 0.667810
Si Si2 0.647779 0.800141 0.555517
Si Si3 0.712851 0.868907 0.080650
Si Si4 0.364375 0.506716 0.589035
Si Si5 0.564137 0.962277 0.354269
Si Si6 0.295772 0.575845 0.136355
Si Si7 0.799042 0.629148 0.503238
O O1 0.181816 0.218205 0.596814
O O2 0.079544 0.435780 0.575892
O O3 0.981372 0.272367 0.724290
O O4 0.173097 0.367377 0.819079
O O5 0.581955 0.735540 0.412041
O O6 0.606194 0.925322 0.526197
O O7 0.620920 0.757393 0.726674
O O8 0.775809 0.760377 0.536360
O O9 0.663790 0.916994 0.241965
O O10 0.608953 0.794334 0.017124
O O11 0.411590 0.447097 0.744266
O O12 0.362577 0.407512 0.455204
O O13 0.573784 0.094776 0.334690
O O14 0.302854 0.444377 0.082952
#
# Coordination Sequence:
#
# PCOD9541370 Si02
#       7
#     4   4   4   4   4   4   4
#     4  11  23  47  78 106 148 193 256 314 382 453
#     4  12  24  43  65 100 144 186 248 303 373 457
#     4  11  25  46  77 107 144 200 251 315 384 453
#     4  12  24  39  60  93 140 189 230 296 373 452
#     4  11  23  44  75 102 145 197 245 312 378 448
#     4  12  24  41  62 104 140 188 240 297 374 462
#     4  11  23  42  69 104 141 191 244 299 368 455
#
# _framework density 23.345133000000001
#
# number of rings (size 3 to 8) (size 9 to 14) (size 15 to 20)
#    0.000    0.571    4.286    5.143    0.000    1.143 
#    2.571    0.000    6.286    0.000    0.000    0.000 
#    0.000    0.000    0.000    0.000    0.000    0.000 
#
# Total GULP energy -156039.420510 kJ/mol
# GULP energy per Si atom -5572.836447 kJ/mol
# Density = 2.329200 g / cm^3
# Si number density = 23.345133 Si / 1000 Ang^3
#
#
#
# Elastic Constant Matrix: (Units=GPa)
#
#
# Indices 1 2 3 4 5 6 
#
# 1 92.1251 48.1374 6.8496 0.0000 0.0000 -9.5557
# 2 48.1374 92.1251 6.8496 0.0000 0.0000 9.5557
# 3 6.8496 6.8496 52.5253 0.0000 0.0000 0.0000
# 4 0.0000 0.0000 0.0000 41.1374 0.0000 0.0000
# 5 0.0000 0.0000 0.0000 0.0000 41.1374 0.0000
# 6 -9.5557 9.5557 0.0000 0.0000 0.0000 29.3360
#
#
#
# Elastic Compliance Matrix: (Units=1/GPa)
#
#
# Indices 1 2 3 4 5 6 
#
# 1 0.016851 -0.009630 -0.000942 0.000000 0.000000 0.008626
# 2 -0.009630 0.016851 -0.000942 0.000000 0.000000 -0.008626
# 3 -0.000942 -0.000942 0.019284 0.000000 0.000000 0.000000
# 4 0.000000 0.000000 0.000000 0.024309 0.000000 0.000000
# 5 0.000000 0.000000 0.000000 0.000000 0.024309 0.000000
# 6 0.008626 -0.008626 0.000000 0.000000 0.000000 0.039707
#
#
# Mechanical properties :
#
#
# Convention : Reuss Voigt Hill
#
# Bulk Modulus (GPa) = 33.37772 40.04986 36.71379
# Shear Modulus (GPa) = 28.68201 33.98475 31.33338
#
# Velocity S-wave (km/s) = 3.50895 3.81957 3.66755
# Velocity P-wave (km/s) = 5.54487 6.05351 5.80476
#
# Compressibility (1/GPa) = 0.02996011
#
# Stress axis : x y z
#
# Youngs Moduli (GPa) = 59.34218 59.34218 51.85627
#
# Poissons Ratio (x) = 0.57146 0.04883
# Poissons Ratio (y) = 0.57146 0.04883
# Poissons Ratio (z) = 0.05588 0.05588
#
# Static dielectric constant tensor:
#      x y z
#    x 2.007400 0.000000 0.000000 
#    y 0.000000 2.007400 0.000000 
#    z 0.000000 0.000000 1.921100 
# 
# From -- ./inp_files/602.got.cif
#   From: 2010.05.17/outbox.cif.g08.bks.cpg/sg76_cif.got.tgz:602.got - 2010.06.03 18:43:17.
