data_PCOD9541235
_publ_section_title
;
Structure prediction by ZEFSAII (Michael W. Deem and Ramdas Pophale) SiO2 
 PCOD9541235
Probable space group: P 41
;
_chemical_formula_sum "Si O2"
_cell_formula_units_Z 32
_cell_length_a 8.656393
_cell_length_b 8.656393
_cell_length_c 17.253925
_cell_angle_alpha 90.000000
_cell_angle_beta 90.000000
_cell_angle_gamma 90.000000
_cell_volume 1292.890774
_symmetry_space_group_name_H-M "P 41"
_symmetry_group_IT_number 76
_symmetry_cell_setting 'tetragonal'
loop_
_space_group_symop_operation_xyz
x,y,z
-y,x,1/4+z
-x,-y,1/2+z
y,-x,3/4+z
loop_
_atom_site_type_symbol
_atom_site_label
_atom_site_fract_x
_atom_site_fract_y
_atom_site_fract_z
Si Si1 0.845800 0.045787 0.830070
Si Si2 0.923876 0.432427 0.977245
Si Si3 0.171326 0.896398 0.492705
Si Si4 0.856228 0.320880 0.448045
Si Si5 0.600480 0.308597 0.820576
Si Si6 0.813477 0.488744 0.236093
Si Si7 0.501399 0.360577 0.306636
Si Si8 0.097888 0.382736 0.141900
O O1 0.817870 0.993778 0.917812
O O2 0.755270 0.207977 0.816742
O O3 0.022250 0.072497 0.807778
O O4 0.766620 0.929539 0.771298
O O5 0.009947 0.416205 0.060970
O O6 0.756606 0.497546 0.000037
O O7 0.012906 0.554580 0.923192
O O8 0.908493 0.254786 0.956050
O O9 0.342407 0.853738 0.520034
O O10 0.723976 0.432398 0.481619
O O11 0.781737 0.184166 0.398355
O O12 0.521574 0.262047 0.901910
O O13 0.602948 0.490559 0.819269
O O14 0.679759 0.408750 0.286869
O O15 0.975602 0.406709 0.211569
O O16 0.502453 0.243935 0.379647
#
# Coordination Sequence:
#
# PCOD9541235 Si02
#       8
#     4   4   4   4   4   4   4   4
#     4  10  25  42  64  94 139 173 220 274 334 393
#     4   9  20  41  65  90 129 172 219 270 324 401
#     4  11  22  43  67  96 131 180 218 272 332 401
#     4  10  23  42  61  94 130 173 214 276 334 378
#     4   9  19  41  62  96 124 171 220 272 316 408
#     4  10  22  40  66  98 133 169 221 272 341 392
#     4  11  20  39  69  94 124 178 222 275 337 391
#     4  10  23  40  64  96 138 162 220 287 330 390
#
# _framework density 24.750737999999998
#
# number of rings (size 3 to 8) (size 9 to 14) (size 15 to 20)
#    0.000    2.000    1.250    3.000    3.500    3.000 
#    6.750    0.000    0.000    0.000    0.000    0.000 
#    0.000    0.000    0.000    0.000    0.000    0.000 
#
# Total GULP energy -178697.167607 kJ/mol
# GULP energy per Si atom -5584.286488 kJ/mol
# Density = 2.469440 g / cm^3
# Si number density = 24.750738 Si / 1000 Ang^3
#
#
#
# Elastic Constant Matrix: (Units=GPa)
#
#
# Indices 1 2 3 4 5 6 
#
# 1 86.9717 12.3481 18.9408 0.0000 0.0000 -2.4685
# 2 12.3481 86.9717 18.9408 0.0000 0.0000 2.4685
# 3 18.9408 18.9408 33.3658 0.0000 0.0000 0.0000
# 4 0.0000 0.0000 0.0000 20.4076 0.0000 0.0000
# 5 0.0000 0.0000 0.0000 0.0000 20.4076 0.0000
# 6 -2.4685 2.4685 0.0000 0.0000 0.0000 39.6003
#
#
#
# Elastic Compliance Matrix: (Units=1/GPa)
#
#
# Indices 1 2 3 4 5 6 
#
# 1 0.013153 -0.000303 -0.007295 0.000000 0.000000 0.000839
# 2 -0.000303 0.013153 -0.007295 0.000000 0.000000 -0.000839
# 3 -0.007295 -0.007295 0.038253 0.000000 0.000000 0.000000
# 4 0.000000 0.000000 0.000000 0.049001 0.000000 0.000000
# 5 0.000000 0.000000 0.000000 0.000000 0.049001 0.000000
# 6 0.000839 -0.000839 0.000000 0.000000 0.000000 0.025357
#
#
# Mechanical properties :
#
#
# Convention : Reuss Voigt Hill
#
# Bulk Modulus (GPa) = 28.75654 34.19650 31.47652
# Shear Modulus (GPa) = 21.80581 26.55509 24.18045
#
# Velocity S-wave (km/s) = 2.97141 3.27907 3.12902
# Velocity P-wave (km/s) = 4.83902 5.30874 5.07931
#
# Compressibility (1/GPa) = 0.03477470
#
# Stress axis : x y z
#
# Youngs Moduli (GPa) = 76.02552 76.02552 26.14163
#
# Poissons Ratio (x) = 0.02300 0.19070
# Poissons Ratio (y) = 0.02300 0.19070
# Poissons Ratio (z) = 0.55461 0.55461
#
# Static dielectric constant tensor:
#      x y z
#    x 2.012400 0.000000 0.000000 
#    y 0.000000 2.012400 0.000000 
#    z 0.000000 0.000000 1.954760 
# 
# From -- ./inp_files/1429.got.cif
#   From: 2010.05.17/outbox.cif.g08.bks.cpg/sg76_cif.got.tgz:1429.got - 2010.06.03 18:43:17.
