data_PCOD9541932
_publ_section_title
;
Structure prediction by ZEFSAII (Michael W. Deem and Ramdas Pophale) SiO2 
 PCOD9541932
Probable space group: I 4
;
_chemical_formula_sum "Si O2"
_cell_formula_units_Z 58
_cell_length_a 17.718116
_cell_length_b 17.718116
_cell_length_c 8.562043
_cell_angle_alpha 90.000000
_cell_angle_beta 90.000000
_cell_angle_gamma 90.000000
_cell_volume 2687.896154
_symmetry_space_group_name_H-M "I 4"
_symmetry_group_IT_number 79
_symmetry_cell_setting 'tetragonal'
loop_
_space_group_symop_operation_xyz
x,y,z
-y,x,z
-x,-y,z
y,-x,z
1/2+x,1/2+y,1/2+z
1/2-y,1/2+x,1/2+z
1/2-x,1/2-y,1/2+z
1/2+y,1/2-x,1/2+z
loop_
_atom_site_type_symbol
_atom_site_label
_atom_site_fract_x
_atom_site_fract_y
_atom_site_fract_z
Si Si1 0.458883 0.808914 0.887150
Si Si2 0.592368 0.772443 0.106453
Si Si3 0.804381 0.817507 0.044723
Si Si4 0.500000 0.500000 0.330307
Si Si5 0.582122 0.037117 0.812219
Si Si6 0.199580 0.454940 0.522167
Si Si7 0.694573 0.276632 0.905805
Si Si8 0.664333 0.452444 0.384671
O O1 0.437320 0.894604 0.932751
O O2 0.471004 0.817415 0.702131
O O3 0.391579 0.750252 0.924563
O O4 0.533372 0.779885 0.966941
O O5 0.577640 0.855203 0.193774
O O6 0.568749 0.709485 0.229689
O O7 0.666190 0.732603 0.028465
O O8 0.732100 0.870401 0.010537
O O9 0.804130 0.798256 0.227777
O O10 0.798060 0.743925 0.936358
O O11 0.880775 0.856724 0.991582
O O12 0.592268 0.499949 0.337269
O O13 0.500000 0.000000 0.762576
O O14 0.631726 0.974856 0.905251
O O15 0.272554 0.503745 0.481857
#
# Coordination Sequence:
#
# PCOD9541932 Si02
#       8
#     8   8   8   2   8   8   8   8
#     4  11  26  43  68 102 137 191 234 294 370 423
#     4  11  26  45  69 104 142 189 233 299 366 433
#     4  11  22  41  72 101 132 183 231 294 348 421
#     4  12  24  40  76 102 132 192 228 298 352 436
#     4  11  27  45  71 103 148 189 244 301 371 455
#     4  10  23  45  67 100 140 182 235 294 358 430
#     4  11  24  44  71 100 141 180 244 289 355 442
#     4  11  23  44  69 103 136 179 237 285 363 428
#
# _framework density 21.578213000000002
#
# number of rings (size 3 to 8) (size 9 to 14) (size 15 to 20)
#    0.000    1.103    1.379    4.966    7.724    2.207 
#    0.000    0.000    0.000    1.655    0.000    0.000 
#    0.000    0.000    0.000    0.000    0.000    0.000 
#
# Total GULP energy -161449.068868 kJ/mol
# GULP energy per Si atom -5567.209271 kJ/mol
# Density = 2.152910 g / cm^3
# Si number density = 21.578213 Si / 1000 Ang^3
#
#
#
# Elastic Constant Matrix: (Units=GPa)
#
#
# Indices 1 2 3 4 5 6 
#
# 1 101.2545 22.4286 26.9724 0.0000 0.0000 -3.0170
# 2 22.4286 101.2545 26.9724 0.0000 0.0000 3.0170
# 3 26.9724 26.9724 38.5609 0.0000 0.0000 0.0000
# 4 0.0000 0.0000 0.0000 23.6199 0.0000 0.0000
# 5 0.0000 0.0000 0.0000 0.0000 23.6199 0.0000
# 6 -3.0170 3.0170 0.0000 0.0000 0.0000 33.6186
#
#
#
# Elastic Compliance Matrix: (Units=1/GPa)
#
#
# Indices 1 2 3 4 5 6 
#
# 1 0.012204 -0.000570 -0.008138 0.000000 0.000000 0.001146
# 2 -0.000570 0.012204 -0.008138 0.000000 0.000000 -0.001146
# 3 -0.008138 -0.008138 0.037318 0.000000 0.000000 0.000000
# 4 0.000000 0.000000 0.000000 0.042337 0.000000 0.000000
# 5 0.000000 0.000000 0.000000 0.000000 0.042337 0.000000
# 6 0.001146 -0.001146 0.000000 0.000000 0.000000 0.029951
#
#
# Mechanical properties :
#
#
# Convention : Reuss Voigt Hill
#
# Bulk Modulus (GPa) = 35.67021 43.75738 39.71380
# Shear Modulus (GPa) = 22.79058 27.15145 24.97101
#
# Velocity S-wave (km/s) = 3.25343 3.55107 3.40550
# Velocity P-wave (km/s) = 5.53892 6.09393 5.82304
#
# Compressibility (1/GPa) = 0.02803460
#
# Stress axis : x y z
#
# Youngs Moduli (GPa) = 81.93830 81.93830 26.79678
#
# Poissons Ratio (x) = 0.04667 0.21808
# Poissons Ratio (y) = 0.04667 0.21808
# Poissons Ratio (z) = 0.66683 0.66683
#
# Static dielectric constant tensor:
#      x y z
#    x 1.819700 0.000000 0.000000 
#    y 0.000000 1.819700 0.000000 
#    z 0.000000 0.000000 1.771970 
# 
# From -- ./inp_files/729.got.cif
#   From: 2010.05.17/outbox.cif.g08.bks.cpg/sg79_cif.got.tgz:729.got - 2010.06.03 18:47:27.
