data_PCOD9541122
_publ_section_title
;
Structure prediction by ZEFSAII (Michael W. Deem and Ramdas Pophale) SiO2 
 PCOD9541122
Probable space group: P 41
;
_chemical_formula_sum "Si O2"
_cell_formula_units_Z 28
_cell_length_a 11.487691
_cell_length_b 11.487691
_cell_length_c 9.214372
_cell_angle_alpha 90.000000
_cell_angle_beta 90.000000
_cell_angle_gamma 90.000000
_cell_volume 1215.993440
_symmetry_space_group_name_H-M "P 41"
_symmetry_group_IT_number 76
_symmetry_cell_setting 'tetragonal'
loop_
_space_group_symop_operation_xyz
x,y,z
-y,x,1/4+z
-x,-y,1/2+z
y,-x,3/4+z
loop_
_atom_site_type_symbol
_atom_site_label
_atom_site_fract_x
_atom_site_fract_y
_atom_site_fract_z
Si Si1 0.459657 0.904548 0.976730
Si Si2 0.267737 0.679604 0.703782
Si Si3 0.950856 0.752003 0.557452
Si Si4 0.918338 0.096019 0.553630
Si Si5 0.746625 0.719259 0.878229
Si Si6 0.679921 0.854053 0.148617
Si Si7 0.530019 0.727045 0.722322
O O1 0.373407 0.981796 0.879825
O O2 0.504338 0.818881 0.849428
O O3 0.367971 0.849979 0.091503
O O4 0.574076 0.923916 0.071239
O O5 0.249078 0.815680 0.755365
O O6 0.211683 0.657413 0.548992
O O7 0.408111 0.665301 0.694306
O O8 0.224996 0.587792 0.824944
O O9 0.974124 0.841478 0.686068
O O10 0.043542 0.771498 0.431975
O O11 0.846687 0.217619 0.562770
O O12 0.037901 0.095869 0.462287
O O13 0.638480 0.660081 0.794808
O O14 0.720380 0.751534 0.041718
#
# Coordination Sequence:
#
# PCOD9541122 Si02
#       7
#     4   4   4   4   4   4   4
#     4   9  21  44  65  94 133 175 227 274 344 403
#     4  11  23  41  66 102 132 176 228 277 340 405
#     4  10  22  44  64  90 135 175 212 285 336 403
#     4  11  24  41  66  93 128 172 220 278 341 406
#     4  10  22  46  61  94 135 176 214 281 338 411
#     4  11  25  39  70 100 129 173 232 284 325 413
#     4  10  19  43  66  91 136 177 215 271 342 407
#
# _framework density 23.026441999999999
#
# number of rings (size 3 to 8) (size 9 to 14) (size 15 to 20)
#    0.000    1.714    4.286    0.857    4.000    3.429 
#   12.857    0.000    0.000    0.000    0.000    0.000 
#    0.000    0.000    0.000    0.000    0.000    0.000 
#
# Total GULP energy -155882.463743 kJ/mol
# GULP energy per Si atom -5567.230848 kJ/mol
# Density = 2.297403 g / cm^3
# Si number density = 23.026442 Si / 1000 Ang^3
#
#
#
# Elastic Constant Matrix: (Units=GPa)
#
#
# Indices 1 2 3 4 5 6 
#
# 1 65.0167 8.7317 31.4577 0.0000 0.0000 -4.4749
# 2 8.7317 65.0167 31.4577 0.0000 0.0000 4.4749
# 3 31.4577 31.4577 142.6312 0.0000 0.0000 0.0000
# 4 0.0000 0.0000 0.0000 33.3654 0.0000 0.0000
# 5 0.0000 0.0000 0.0000 0.0000 33.3654 0.0000
# 6 -4.4749 4.4749 0.0000 0.0000 0.0000 7.0504
#
#
#
# Elastic Compliance Matrix: (Units=1/GPa)
#
#
# Indices 1 2 3 4 5 6 
#
# 1 0.018232 -0.001529 -0.003684 0.000000 0.000000 0.012542
# 2 -0.001529 0.018232 -0.003684 0.000000 0.000000 -0.012542
# 3 -0.003684 -0.003684 0.008636 0.000000 0.000000 0.000000
# 4 0.000000 0.000000 0.000000 0.029971 0.000000 0.000000
# 5 0.000000 0.000000 0.000000 0.000000 0.029971 0.000000
# 6 0.012542 -0.012542 0.000000 0.000000 0.000000 0.157757
#
#
# Mechanical properties :
#
#
# Convention : Reuss Voigt Hill
#
# Bulk Modulus (GPa) = 36.62258 46.21767 41.42012
# Shear Modulus (GPa) = 17.25956 28.15741 22.70848
#
# Velocity S-wave (km/s) = 2.74077 3.50069 3.14378
# Velocity P-wave (km/s) = 5.09459 6.03779 5.58613
#
# Compressibility (1/GPa) = 0.02730556
#
# Stress axis : x y z
#
# Youngs Moduli (GPa) = 54.84967 54.84967 115.79430
#
# Poissons Ratio (x) = 0.08389 0.42655
# Poissons Ratio (y) = 0.08389 0.42655
# Poissons Ratio (z) = 0.20205 0.20205
#
# Static dielectric constant tensor:
#      x y z
#    x 1.961350 0.000000 0.000000 
#    y 0.000000 1.961350 0.000000 
#    z 0.000000 0.000000 1.905910 
# 
# From -- ./inp_files/613.got.cif
#   From: 2010.05.17/outbox.cif.g08.bks.cpg/sg76_cif.got.tgz:613.got - 2010.06.03 18:43:17.
