data_PCOD9541082
_publ_section_title
;
Structure prediction by ZEFSAII (Michael W. Deem and Ramdas Pophale) SiO2 
 PCOD9541082
Probable space group: P 41
;
_chemical_formula_sum "Si O2"
_cell_formula_units_Z 32
_cell_length_a 14.366460
_cell_length_b 14.366460
_cell_length_c 7.387720
_cell_angle_alpha 90.000000
_cell_angle_beta 90.000000
_cell_angle_gamma 90.000000
_cell_volume 1524.789747
_symmetry_space_group_name_H-M "P 41"
_symmetry_group_IT_number 76
_symmetry_cell_setting 'tetragonal'
loop_
_space_group_symop_operation_xyz
x,y,z
-y,x,1/4+z
-x,-y,1/2+z
y,-x,3/4+z
loop_
_atom_site_type_symbol
_atom_site_label
_atom_site_fract_x
_atom_site_fract_y
_atom_site_fract_z
Si Si1 0.920457 0.077737 0.627120
Si Si2 0.153889 0.644745 0.662066
Si Si3 0.210797 0.755113 0.203468
Si Si4 0.445839 0.905295 0.505462
Si Si5 0.874475 0.428491 0.785408
Si Si6 0.736143 0.188403 0.114901
Si Si7 0.024749 0.231410 0.128373
Si Si8 0.623289 0.143466 0.602563
O O1 0.864501 0.173215 0.624523
O O2 0.866829 0.014790 0.478062
O O3 0.025655 0.089285 0.565948
O O4 0.118525 0.555690 0.777393
O O5 0.178281 0.592911 0.474648
O O6 0.233299 0.717677 0.721620
O O7 0.071530 0.715633 0.601671
O O8 0.164214 0.656000 0.170367
O O9 0.227939 0.790493 0.411181
O O10 0.314762 0.764938 0.126178
O O11 0.373284 0.836330 0.602739
O O12 0.414585 0.895220 0.294309
O O13 0.427504 0.013196 0.557428
O O14 0.850100 0.532557 0.729269
O O15 0.776527 0.095284 0.209824
O O16 0.073709 0.302057 0.269205
#
# Coordination Sequence:
#
# PCOD9541082 Si02
#       8
#     4   4   4   4   4   4   4   4
#     4  11  26  40  53  77 114 161 198 234 285 349
#     4  10  20  34  57  86 113 147 196 245 296 349
#     4   9  22  37  59  82 114 153 194 245 299 353
#     4  10  19  35  59  85 111 153 195 248 289 357
#     4  10  18  34  60  83 108 152 195 243 292 349
#     4  10  21  36  56  86 119 153 191 247 303 353
#     4  11  20  37  54  82 117 151 194 240 288 348
#     4   9  20  35  52  85 116 140 199 240 292 350
#
# _framework density 20.986501000000001
#
# number of rings (size 3 to 8) (size 9 to 14) (size 15 to 20)
#    0.000    2.000    2.500    0.750    5.250    3.000 
#    0.000    0.000    0.000    0.000    0.000   21.000 
#    0.000    0.000    0.000    0.000    0.000    0.000 
#
# Total GULP energy -178380.407375 kJ/mol
# GULP energy per Si atom -5574.387730 kJ/mol
# Density = 2.093873 g / cm^3
# Si number density = 20.986501 Si / 1000 Ang^3
#
#
#
# Elastic Constant Matrix: (Units=GPa)
#
#
# Indices 1 2 3 4 5 6 
#
# 1 115.0477 76.6968 9.1640 0.0000 0.0000 -2.7164
# 2 76.6968 115.0477 9.1640 0.0000 0.0000 2.7164
# 3 9.1640 9.1640 43.5668 0.0000 0.0000 0.0000
# 4 0.0000 0.0000 0.0000 25.9750 0.0000 0.0000
# 5 0.0000 0.0000 0.0000 0.0000 25.9750 0.0000
# 6 -2.7164 2.7164 0.0000 0.0000 0.0000 21.1791
#
#
#
# Elastic Compliance Matrix: (Units=1/GPa)
#
#
# Indices 1 2 3 4 5 6 
#
# 1 0.015940 -0.010618 -0.001120 0.000000 0.000000 0.003406
# 2 -0.010618 0.015940 -0.001120 0.000000 0.000000 -0.003406
# 3 -0.001120 -0.001120 0.023424 0.000000 0.000000 0.000000
# 4 0.000000 0.000000 0.000000 0.038499 0.000000 0.000000
# 5 0.000000 0.000000 0.000000 0.000000 0.038499 0.000000
# 6 0.003406 -0.003406 0.000000 0.000000 0.000000 0.048090
#
#
# Mechanical properties :
#
#
# Convention : Reuss Voigt Hill
#
# Bulk Modulus (GPa) = 33.79436 51.52355 42.65896
# Shear Modulus (GPa) = 23.15154 26.53496 24.84325
#
# Velocity S-wave (km/s) = 3.32499 3.55967 3.44433
# Velocity P-wave (km/s) = 5.55686 6.44198 6.01572
#
# Compressibility (1/GPa) = 0.02959074
#
# Stress axis : x y z
#
# Youngs Moduli (GPa) = 62.73553 62.73553 42.69086
#
# Poissons Ratio (x) = 0.66610 0.04779
# Poissons Ratio (y) = 0.66610 0.04779
# Poissons Ratio (z) = 0.07023 0.07023
#
# Static dielectric constant tensor:
#      x y z
#    x 1.792540 0.000000 0.000000 
#    y 0.000000 1.792540 0.000000 
#    z 0.000000 0.000000 1.900210 
# 
# From -- ./inp_files/669.got.cif
#   From: 2010.05.17/outbox.cif.g08.bks.cpg/sg76_cif.got.tgz:669.got - 2010.06.03 18:43:17.
