data_PCOD9541532
_publ_section_title
;
Structure prediction by ZEFSAII (Michael W. Deem and Ramdas Pophale) SiO2 
 PCOD9541532
Probable space group: P 42
;
_chemical_formula_sum "Si O2"
_cell_formula_units_Z 12
_cell_length_a 8.378368
_cell_length_b 8.378368
_cell_length_c 7.267839
_cell_angle_alpha 90.000000
_cell_angle_beta 90.000000
_cell_angle_gamma 90.000000
_cell_volume 510.180860
_symmetry_space_group_name_H-M "P 42"
_symmetry_group_IT_number 77
_symmetry_cell_setting 'tetragonal'
loop_
_space_group_symop_operation_xyz
x,y,z
-y,x,1/2+z
-x,-y,z
y,-x,1/2+z
loop_
_atom_site_type_symbol
_atom_site_label
_atom_site_fract_x
_atom_site_fract_y
_atom_site_fract_z
Si Si1 0.410667 0.829614 0.079590
Si Si2 0.746756 0.283607 0.424019
Si Si3 0.063263 0.183101 0.277415
O O1 0.382669 0.789547 0.290719
O O2 0.500000 0.000000 0.076845
O O3 0.539160 0.711562 0.990823
O O4 0.251227 0.841734 0.955027
O O5 0.788979 0.170361 0.597511
O O6 0.902994 0.287066 0.292119
O O7 0.000000 0.000000 0.288961
#
# Coordination Sequence:
#
# PCOD9541532 Si02
#       3
#     4   4   4
#     4  10  24  41  65  99 131 171 217 267 324 380
#     4  11  23  42  67  98 132 170 216 269 323 382
#     4  11  22  39  68  97 126 169 219 268 318 378
#
# _framework density 23.521070999999999
#
# number of rings (size 3 to 8) (size 9 to 14) (size 15 to 20)
#    0.000    1.333    0.000    7.000    0.000    8.000 
#    0.000    5.000    0.000    0.000    0.000    0.000 
#    0.000    0.000    0.000    0.000    0.000    0.000 
#
# Total GULP energy -67029.939974 kJ/mol
# GULP energy per Si atom -5585.828331 kJ/mol
# Density = 2.346754 g / cm^3
# Si number density = 23.521071 Si / 1000 Ang^3
#
#
#
# Elastic Constant Matrix: (Units=GPa)
#
#
# Indices 1 2 3 4 5 6 
#
# 1 76.1368 45.1906 74.0979 0.0000 0.0000 6.0034
# 2 45.1906 76.1368 74.0979 0.0000 0.0000 -6.0034
# 3 74.0979 74.0979 192.0778 0.0000 0.0000 0.0000
# 4 0.0000 0.0000 0.0000 23.2527 0.0000 0.0000
# 5 0.0000 0.0000 0.0000 0.0000 23.2527 0.0000
# 6 6.0034 -6.0034 0.0000 0.0000 0.0000 4.7431
#
#
#
# Elastic Compliance Matrix: (Units=1/GPa)
#
#
# Indices 1 2 3 4 5 6 
#
# 1 0.039542 -0.023955 -0.006013 0.000000 0.000000 -0.080369
# 2 -0.023955 0.039542 -0.006013 0.000000 0.000000 0.080369
# 3 -0.006013 -0.006013 0.009845 0.000000 0.000000 0.000000
# 4 0.000000 0.000000 0.000000 0.043006 0.000000 0.000000
# 5 0.000000 0.000000 0.000000 0.000000 0.043006 0.000000
# 6 -0.080369 0.080369 0.000000 0.000000 0.000000 0.414283
#
#
# Mechanical properties :
#
#
# Convention : Reuss Voigt Hill
#
# Bulk Modulus (GPa) = 58.93737 81.23599 70.08668
# Shear Modulus (GPa) = 7.49806 20.31402 13.90604
#
# Velocity S-wave (km/s) = 1.78738 2.94198 2.43413
# Velocity P-wave (km/s) = 5.41953 6.79359 6.14509
#
# Compressibility (1/GPa) = 0.01696716
#
# Stress axis : x y z
#
# Youngs Moduli (GPa) = 25.28988 25.28988 101.57076
#
# Poissons Ratio (x) = 0.60582 0.61073
# Poissons Ratio (y) = 0.60582 0.61073
# Poissons Ratio (z) = 0.15206 0.15206
#
# Static dielectric constant tensor:
#      x y z
#    x 1.965100 0.000000 0.000000 
#    y 0.000000 1.965100 0.000000 
#    z 0.000000 0.000000 1.878480 
# 
# From -- ./inp_files/37.got.cif
#   From: 2010.05.17/outbox.cif.g08.bks.cpg/sg77_cif.got.tgz:37.got - 2010.06.03 18:44:51.
