data_PCOD9541788
_publ_section_title
;
Structure prediction by ZEFSAII (Michael W. Deem and Ramdas Pophale) SiO2 
 PCOD9541788
Probable space group: P 43
;
_chemical_formula_sum "Si O2"
_cell_formula_units_Z 16
_cell_length_a 5.426301
_cell_length_b 5.426301
_cell_length_c 18.559833
_cell_angle_alpha 90.000000
_cell_angle_beta 90.000000
_cell_angle_gamma 90.000000
_cell_volume 546.489504
_symmetry_space_group_name_H-M "P 43"
_symmetry_group_IT_number 78
_symmetry_cell_setting 'tetragonal'
loop_
_space_group_symop_operation_xyz
x,y,z
-y,x,3/4+z
-x,-y,1/2+z
y,-x,1/4+z
loop_
_atom_site_type_symbol
_atom_site_label
_atom_site_fract_x
_atom_site_fract_y
_atom_site_fract_z
Si Si1 0.711057 0.390526 0.557080
Si Si2 0.954736 0.985393 0.105667
Si Si3 0.921611 0.277949 0.975994
Si Si4 0.345264 0.570330 0.679575
O O1 0.833303 0.609116 0.510389
O O2 0.308755 0.547338 0.482799
O O3 0.613822 0.220869 0.489185
O O4 0.960991 0.301140 0.600870
O O5 0.211631 0.069295 0.142311
O O6 0.889973 0.036814 0.023595
O O7 0.776171 0.182009 0.145404
O O8 0.429393 0.498997 0.867338
#
# Coordination Sequence:
#
# PCOD9541788 Si02
#       4
#     4   4   4   4
#     4  12  27  53  87 125 175 230 287 365 435 515
#     4  12  28  48  86 130 168 228 296 348 432 528
#     4  12  26  50  82 122 174 226 288 356 430 514
#     4  12  27  53  87 125 175 230 287 365 435 515
#
# _framework density 29.277778000000001
#
# number of rings (size 3 to 8) (size 9 to 14) (size 15 to 20)
#    0.000    0.000    7.500    1.500    0.000   10.000 
#    4.500    0.000    0.000    3.000    0.000    0.000 
#    0.000    0.000    0.000    0.000    0.000    0.000 
#
# Total GULP energy -89077.761299 kJ/mol
# GULP energy per Si atom -5567.360081 kJ/mol
# Density = 2.921114 g / cm^3
# Si number density = 29.277778 Si / 1000 Ang^3
#
#
#
# Elastic Constant Matrix: (Units=GPa)
#
#
# Indices 1 2 3 4 5 6 
#
# 1 82.9215 34.7557 48.2179 0.0000 0.0000 -3.1970
# 2 34.7557 82.9215 48.2179 0.0000 0.0000 3.1970
# 3 48.2179 48.2179 200.1921 0.0000 0.0000 0.0000
# 4 0.0000 0.0000 0.0000 48.8372 0.0000 0.0000
# 5 0.0000 0.0000 0.0000 0.0000 48.8372 0.0000
# 6 -3.1970 3.1970 0.0000 0.0000 0.0000 35.3815
#
#
#
# Elastic Compliance Matrix: (Units=1/GPa)
#
#
# Indices 1 2 3 4 5 6 
#
# 1 0.015801 -0.005213 -0.002550 0.000000 0.000000 0.001899
# 2 -0.005213 0.015801 -0.002550 0.000000 0.000000 -0.001899
# 3 -0.002550 -0.002550 0.006224 0.000000 0.000000 0.000000
# 4 0.000000 0.000000 0.000000 0.020476 0.000000 0.000000
# 5 0.000000 0.000000 0.000000 0.000000 0.020476 0.000000
# 6 0.001899 -0.001899 0.000000 0.000000 0.000000 0.028606
#
#
# Mechanical properties :
#
#
# Convention : Reuss Voigt Hill
#
# Bulk Modulus (GPa) = 58.14482 69.82419 63.98451
# Shear Modulus (GPa) = 37.38510 42.26744 39.82627
#
# Velocity S-wave (km/s) = 3.57726 3.80369 3.69221
# Velocity P-wave (km/s) = 6.07991 6.57201 6.33074
#
# Compressibility (1/GPa) = 0.01719844
#
# Stress axis : x y z
#
# Youngs Moduli (GPa) = 63.28850 63.28850 160.67779
#
# Poissons Ratio (x) = 0.32992 0.40975
# Poissons Ratio (y) = 0.32992 0.40975
# Poissons Ratio (z) = 0.16139 0.16139
#
# Static dielectric constant tensor:
#      x y z
#    x 2.602760 0.000000 0.000000 
#    y 0.000000 2.602760 0.000000 
#    z 0.000000 0.000000 2.318230 
# 
# From -- ./inp_files/1362.got.cif
#   From: 2010.05.17/outbox.cif.g08.bks.cpg/sg78_cif.got.tgz:1362.got - 2010.06.03 18:45:56.
