data_PCOD9541768
_publ_section_title
;
Structure prediction by ZEFSAII (Michael W. Deem and Ramdas Pophale) SiO2 
 PCOD9541768
Probable space group: P 43
;
_chemical_formula_sum "Si O2"
_cell_formula_units_Z 16
_cell_length_a 10.176107
_cell_length_b 10.176107
_cell_length_c 6.872484
_cell_angle_alpha 90.000000
_cell_angle_beta 90.000000
_cell_angle_gamma 90.000000
_cell_volume 711.667392
_symmetry_space_group_name_H-M "P 43"
_symmetry_group_IT_number 78
_symmetry_cell_setting 'tetragonal'
loop_
_space_group_symop_operation_xyz
x,y,z
-y,x,3/4+z
-x,-y,1/2+z
y,-x,1/4+z
loop_
_atom_site_type_symbol
_atom_site_label
_atom_site_fract_x
_atom_site_fract_y
_atom_site_fract_z
Si Si1 0.901543 0.391636 0.464640
Si Si2 0.816617 0.964871 0.922966
Si Si3 0.891634 0.401543 0.914727
Si Si4 0.683382 0.464873 0.206402
O O1 0.887788 0.254878 0.349458
O O2 0.874311 0.374313 0.689683
O O3 0.804306 0.491685 0.352991
O O4 0.046985 0.453016 0.439684
O O5 0.695694 0.991682 0.776376
O O6 0.917382 0.887534 0.785152
O O7 0.754875 0.387790 0.029909
O O8 0.612464 0.582620 0.094219
#
# Coordination Sequence:
#
# PCOD9541768 Si02
#       4
#     4   4   4   4
#     4  11  25  48  78 106 152 198 251 316 380 440
#     4  11  28  47  71 112 151 198 248 311 377 455
#     4  11  25  48  78 106 152 198 251 316 380 440
#     4  11  28  47  71 112 151 198 248 311 377 455
#
# _framework density 22.482413999999999
#
# number of rings (size 3 to 8) (size 9 to 14) (size 15 to 20)
#    0.000    1.000    5.000    0.000   14.000    2.000 
#    0.000    0.000    0.000    0.000    0.000    0.000 
#    0.000    0.000    0.000    0.000    0.000    0.000 
#
# Total GULP energy -89250.120703 kJ/mol
# GULP energy per Si atom -5578.132544 kJ/mol
# Density = 2.243124 g / cm^3
# Si number density = 22.482414 Si / 1000 Ang^3
#
#
#
# Elastic Constant Matrix: (Units=GPa)
#
#
# Indices 1 2 3 4 5 6 
#
# 1 64.2064 26.4051 36.4524 0.0000 0.0000 -0.0002
# 2 26.4051 64.2064 36.4524 0.0000 0.0000 0.0002
# 3 36.4524 36.4524 215.8056 0.0000 0.0000 0.0000
# 4 0.0000 0.0000 0.0000 43.3318 0.0000 0.0000
# 5 0.0000 0.0000 0.0000 0.0000 43.3318 0.0000
# 6 -0.0002 0.0002 0.0000 0.0000 0.0000 11.2264
#
#
#
# Elastic Compliance Matrix: (Units=1/GPa)
#
#
# Indices 1 2 3 4 5 6 
#
# 1 0.019613 -0.006841 -0.002157 0.000000 0.000000 0.000000
# 2 -0.006841 0.019613 -0.002157 0.000000 0.000000 0.000000
# 3 -0.002157 -0.002157 0.005363 0.000000 0.000000 0.000000
# 4 0.000000 0.000000 0.000000 0.023078 0.000000 0.000000
# 5 0.000000 0.000000 0.000000 0.000000 0.023078 0.000000
# 6 0.000000 0.000000 0.000000 0.000000 0.000000 0.089076
#
#
# Mechanical properties :
#
#
# Convention : Reuss Voigt Hill
#
# Bulk Modulus (GPa) = 44.88929 60.31536 52.60233
# Shear Modulus (GPa) = 23.85986 35.90523 29.88254
#
# Velocity S-wave (km/s) = 3.26124 4.00063 3.64971
# Velocity P-wave (km/s) = 5.84728 6.94450 6.41938
#
# Compressibility (1/GPa) = 0.02227703
#
# Stress axis : x y z
#
# Youngs Moduli (GPa) = 50.98666 50.98666 186.47648
#
# Poissons Ratio (x) = 0.34880 0.40229
# Poissons Ratio (y) = 0.34880 0.40229
# Poissons Ratio (z) = 0.11000 0.11000
#
# Static dielectric constant tensor:
#      x y z
#    x 1.894280 0.000000 0.000000 
#    y 0.000000 1.894280 0.000000 
#    z 0.000000 0.000000 1.789790 
# 
# From -- ./inp_files/116.got.cif
#   From: 2010.05.17/outbox.cif.g08.bks.cpg/sg78_cif.got.tgz:116.got - 2010.06.03 18:45:56.
