data_PCOD9541367
_publ_section_title
;
Structure prediction by ZEFSAII (Michael W. Deem and Ramdas Pophale) SiO2 
 PCOD9541367
Probable space group: P 41
;
_chemical_formula_sum "Si O2"
_cell_formula_units_Z 28
_cell_length_a 13.839677
_cell_length_b 13.839677
_cell_length_c 6.447096
_cell_angle_alpha 90.000000
_cell_angle_beta 90.000000
_cell_angle_gamma 90.000000
_cell_volume 1234.855231
_symmetry_space_group_name_H-M "P 41"
_symmetry_group_IT_number 76
_symmetry_cell_setting 'tetragonal'
loop_
_space_group_symop_operation_xyz
x,y,z
-y,x,1/4+z
-x,-y,1/2+z
y,-x,3/4+z
loop_
_atom_site_type_symbol
_atom_site_label
_atom_site_fract_x
_atom_site_fract_y
_atom_site_fract_z
Si Si1 0.124274 0.031470 0.782330
Si Si2 0.440198 0.748267 0.056716
Si Si3 0.052898 0.406460 0.093846
Si Si4 0.144280 0.488747 0.712773
Si Si5 0.240764 0.127451 0.489351
Si Si6 0.609934 0.737614 0.803238
Si Si7 0.225726 0.957295 0.150984
O O1 0.223046 0.082941 0.715310
O O2 0.101316 0.963453 0.588362
O O3 0.136371 0.979142 0.999317
O O4 0.453985 0.852830 0.949002
O O5 0.527165 0.690168 0.946964
O O6 0.342051 0.691811 0.001415
O O7 0.448392 0.778690 0.297159
O O8 0.046208 0.313957 0.241491
O O9 0.950453 0.461083 0.109660
O O10 0.092224 0.406082 0.856552
O O11 0.204917 0.564463 0.856614
O O12 0.336294 0.185941 0.450589
O O13 0.149300 0.200370 0.478438
O O14 0.239127 0.043499 0.314146
#
# Coordination Sequence:
#
# PCOD9541367 Si02
#       7
#     4   4   4   4   4   4   4
#     4  12  24  37  58  89 136 194 236 278 338 406
#     4  11  26  50  73 107 145 183 239 299 361 433
#     4  11  23  40  72 106 142 185 228 294 359 415
#     4  11  24  44  76 106 147 182 237 296 362 429
#     4  12  24  41  65  98 140 184 240 289 348 419
#     4  11  27  48  74 106 138 187 238 301 372 431
#     4  12  24  40  62  96 142 187 236 287 338 421
#
# _framework density 22.674720000000001
#
# number of rings (size 3 to 8) (size 9 to 14) (size 15 to 20)
#    0.000    0.571    7.143    0.857    2.000    4.571 
#    2.571    0.000    0.000    0.000    0.000    0.000 
#    0.000    0.000    0.000    0.000    0.000    0.000 
#
# Total GULP energy -156116.868454 kJ/mol
# GULP energy per Si atom -5575.602445 kJ/mol
# Density = 2.262311 g / cm^3
# Si number density = 22.674720 Si / 1000 Ang^3
#
#
#
# Elastic Constant Matrix: (Units=GPa)
#
#
# Indices 1 2 3 4 5 6 
#
# 1 75.3129 16.4452 9.8843 0.0000 0.0000 6.0529
# 2 16.4452 75.3129 9.8843 0.0000 0.0000 -6.0529
# 3 9.8843 9.8843 52.9831 0.0000 0.0000 0.0000
# 4 0.0000 0.0000 0.0000 23.4620 0.0000 0.0000
# 5 0.0000 0.0000 0.0000 0.0000 23.4620 0.0000
# 6 6.0529 -6.0529 0.0000 0.0000 0.0000 24.6125
#
#
#
# Elastic Compliance Matrix: (Units=1/GPa)
#
#
# Indices 1 2 3 4 5 6 
#
# 1 0.014623 -0.003269 -0.002118 0.000000 0.000000 -0.004400
# 2 -0.003269 0.014623 -0.002118 0.000000 0.000000 0.004400
# 3 -0.002118 -0.002118 0.019664 0.000000 0.000000 0.000000
# 4 0.000000 0.000000 0.000000 0.042622 0.000000 0.000000
# 5 0.000000 0.000000 0.000000 0.000000 0.042622 0.000000
# 6 -0.004400 0.004400 0.000000 0.000000 0.000000 0.042794
#
#
# Mechanical properties :
#
#
# Convention : Reuss Voigt Hill
#
# Bulk Modulus (GPa) = 29.49816 30.67072 30.08444
# Shear Modulus (GPa) = 24.59906 25.46700 25.03303
#
# Velocity S-wave (km/s) = 3.29731 3.35497 3.32626
# Velocity P-wave (km/s) = 5.24727 5.34449 5.29610
#
# Compressibility (1/GPa) = 0.03390042
#
# Stress axis : x y z
#
# Youngs Moduli (GPa) = 68.38380 68.38380 50.85355
#
# Poissons Ratio (x) = 0.22353 0.10772
# Poissons Ratio (y) = 0.22353 0.10772
# Poissons Ratio (z) = 0.14486 0.14486
#
# Static dielectric constant tensor:
#      x y z
#    x 1.953170 0.000000 0.000000 
#    y 0.000000 1.953170 0.000000 
#    z 0.000000 0.000000 1.892570 
# 
# From -- ./inp_files/249.got.cif
#   From: 2010.05.17/outbox.cif.g08.bks.cpg/sg76_cif.got.tgz:249.got - 2010.06.03 18:43:17.
