data_PCOD9541611
_publ_section_title
;
Structure prediction by ZEFSAII (Michael W. Deem and Ramdas Pophale) SiO2 
 PCOD9541611
Probable space group: P 43
;
_chemical_formula_sum "Si O2"
_cell_formula_units_Z 32
_cell_length_a 12.186920
_cell_length_b 12.186920
_cell_length_c 11.157415
_cell_angle_alpha 90.000000
_cell_angle_beta 90.000000
_cell_angle_gamma 90.000000
_cell_volume 1657.110646
_symmetry_space_group_name_H-M "P 43"
_symmetry_group_IT_number 78
_symmetry_cell_setting 'tetragonal'
loop_
_space_group_symop_operation_xyz
x,y,z
-y,x,3/4+z
-x,-y,1/2+z
y,-x,1/4+z
loop_
_atom_site_type_symbol
_atom_site_label
_atom_site_fract_x
_atom_site_fract_y
_atom_site_fract_z
Si Si1 0.251501 0.616425 0.680510
Si Si2 0.012539 0.196486 0.243854
Si Si3 0.114439 0.580638 0.317917
Si Si4 0.051620 0.595007 0.856420
Si Si5 0.242740 0.103500 0.267658
Si Si6 0.765618 0.580865 0.005187
Si Si7 0.707512 0.891103 0.337541
Si Si8 0.795655 0.128711 0.381156
O O1 0.166240 0.617085 0.790031
O O2 0.209070 0.709181 0.587675
O O3 0.372816 0.647839 0.717546
O O4 0.241066 0.502800 0.613872
O O5 0.026916 0.301752 0.327731
O O6 0.992582 0.247612 0.113943
O O7 0.903511 0.138442 0.295690
O O8 0.116242 0.119954 0.240036
O O9 0.087392 0.680058 0.406445
O O10 0.183724 0.490349 0.395060
O O11 0.161454 0.639849 0.199039
O O12 0.001755 0.513012 0.300886
O O13 0.071602 0.609291 0.997035
O O14 0.824126 0.690010 0.059325
O O15 0.796852 0.825947 0.251074
O O16 0.768040 0.999157 0.392357
#
# Coordination Sequence:
#
# PCOD9541611 Si02
#       8
#     4   4   4   4   4   4   4   4
#     4  10  21  38  68  91 119 170 226 278 336 406
#     4  10  19  37  62  87 124 173 220 268 329 416
#     4  11  24  37  62  94 133 170 223 286 331 404
#     4  10  19  37  66  91 118 169 230 277 335 392
#     4  10  21  37  56  91 125 169 218 261 330 399
#     4  11  20  41  67  94 127 172 225 284 342 409
#     4  11  23  40  64 100 133 183 225 280 342 411
#     4  11  21  41  69  94 135 180 231 270 341 423
#
# _framework density 19.31072
#
# number of rings (size 3 to 8) (size 9 to 14) (size 15 to 20)
#    0.000    1.500    5.000    3.000    3.500    1.000 
#    6.750    1.250    2.750    0.000    0.000    0.000 
#    0.000    0.000    0.000    0.000    0.000    0.000 
#
# Total GULP energy -178166.438913 kJ/mol
# GULP energy per Si atom -5567.701216 kJ/mol
# Density = 1.926677 g / cm^3
# Si number density = 19.310720 Si / 1000 Ang^3
#
#
#
# Elastic Constant Matrix: (Units=GPa)
#
#
# Indices 1 2 3 4 5 6 
#
# 1 80.2760 41.4216 25.7649 0.0000 0.0000 -12.0843
# 2 41.4216 80.2760 25.7649 0.0000 0.0000 12.0843
# 3 25.7649 25.7649 85.3505 0.0000 0.0000 0.0000
# 4 0.0000 0.0000 0.0000 18.9102 0.0000 0.0000
# 5 0.0000 0.0000 0.0000 0.0000 18.9102 0.0000
# 6 -12.0843 12.0843 0.0000 0.0000 0.0000 12.7918
#
#
#
# Elastic Compliance Matrix: (Units=1/GPa)
#
#
# Indices 1 2 3 4 5 6 
#
# 1 0.035916 -0.026495 -0.002844 0.000000 0.000000 0.058959
# 2 -0.026495 0.035916 -0.002844 0.000000 0.000000 -0.058959
# 3 -0.002844 -0.002844 0.013433 0.000000 0.000000 0.000000
# 4 0.000000 0.000000 0.000000 0.052882 0.000000 0.000000
# 5 0.000000 0.000000 0.000000 0.000000 0.052882 0.000000
# 6 0.058959 -0.058959 0.000000 0.000000 0.000000 0.189570
#
#
# Mechanical properties :
#
#
# Convention : Reuss Voigt Hill
#
# Bulk Modulus (GPa) = 47.84694 47.97837 47.91265
# Shear Modulus (GPa) = 11.06363 20.31920 15.69141
#
# Velocity S-wave (km/s) = 2.39619 3.24732 2.85366
# Velocity P-wave (km/s) = 5.69972 6.24175 5.97688
#
# Compressibility (1/GPa) = 0.02089998
#
# Stress axis : x y z
#
# Youngs Moduli (GPa) = 27.84262 27.84262 74.44103
#
# Poissons Ratio (x) = 0.73769 0.21171
# Poissons Ratio (y) = 0.73769 0.21171
# Poissons Ratio (z) = 0.07919 0.07919
#
# Static dielectric constant tensor:
#      x y z
#    x 1.701930 0.000000 0.000000 
#    y 0.000000 1.701930 0.000000 
#    z 0.000000 0.000000 1.720480 
# 
# From -- ./inp_files/994.got.cif
#   From: 2010.05.17/outbox.cif.g08.bks.cpg/sg78_cif.got.tgz:994.got - 2010.06.03 18:45:56.
