data_PCOD9541772
_publ_section_title
;
Structure prediction by ZEFSAII (Michael W. Deem and Ramdas Pophale) SiO2 
 PCOD9541772
Probable space group: P 43
;
_chemical_formula_sum "Si O2"
_cell_formula_units_Z 28
_cell_length_a 11.497073
_cell_length_b 11.497073
_cell_length_c 8.887309
_cell_angle_alpha 90.000000
_cell_angle_beta 90.000000
_cell_angle_gamma 90.000000
_cell_volume 1174.748389
_symmetry_space_group_name_H-M "P 43"
_symmetry_group_IT_number 78
_symmetry_cell_setting 'tetragonal'
loop_
_space_group_symop_operation_xyz
x,y,z
-y,x,3/4+z
-x,-y,1/2+z
y,-x,1/4+z
loop_
_atom_site_type_symbol
_atom_site_label
_atom_site_fract_x
_atom_site_fract_y
_atom_site_fract_z
Si Si1 0.539218 0.298752 0.648570
Si Si2 0.037432 0.644139 0.673148
Si Si3 0.967264 0.137619 0.348569
Si Si4 0.516308 0.721736 0.469527
Si Si5 0.318921 0.311163 0.436274
Si Si6 0.408969 0.037357 0.081773
Si Si7 0.844963 0.713854 0.194329
O O1 0.490893 0.235942 0.796708
O O2 0.604489 0.410404 0.713653
O O3 0.434895 0.332673 0.536516
O O4 0.639321 0.225603 0.566388
O O5 0.979498 0.751570 0.761356
O O6 0.173809 0.675186 0.659624
O O7 0.002495 0.620627 0.502000
O O8 0.017359 0.529700 0.772225
O O9 0.851085 0.176661 0.438355
O O10 0.052107 0.076722 0.466348
O O11 0.392616 0.692590 0.543181
O O12 0.577309 0.824793 0.562099
O O13 0.205637 0.335191 0.538510
O O14 0.311912 0.979440 0.974988
#
# Coordination Sequence:
#
# PCOD9541772 Si02
#       7
#     4   4   4   4   4   4   4
#     4  12  26  44  70 110 148 198 253 301 387 459
#     4  11  27  48  79 108 153 197 256 318 387 459
#     4  11  30  54  80 113 156 203 262 329 399 458
#     4  12  29  42  74 107 153 199 257 308 379 468
#     4  11  26  50  66 108 154 193 242 317 384 438
#     4  12  26  48  77 111 149 201 262 310 384 472
#     4  11  26  48  78 103 153 197 246 323 378 462
#
# _framework density 23.834890999999999
#
# number of rings (size 3 to 8) (size 9 to 14) (size 15 to 20)
#    0.000    0.571    2.857    2.571   14.000    0.000 
#    2.571    0.000    0.000    0.000    0.000    0.000 
#    0.000    0.000    0.000    0.000    0.000    0.000 
#
# Total GULP energy -156830.876559 kJ/mol
# GULP energy per Si atom -5601.102734 kJ/mol
# Density = 2.378064 g / cm^3
# Si number density = 23.834891 Si / 1000 Ang^3
#
#
#
# Elastic Constant Matrix: (Units=GPa)
#
#
# Indices 1 2 3 4 5 6 
#
# 1 61.9161 15.7030 33.8609 0.0000 0.0000 -0.2746
# 2 15.7030 61.9161 33.8609 0.0000 0.0000 0.2746
# 3 33.8609 33.8609 119.6838 0.0000 0.0000 0.0000
# 4 0.0000 0.0000 0.0000 40.4103 0.0000 0.0000
# 5 0.0000 0.0000 0.0000 0.0000 40.4103 0.0000
# 6 -0.2746 0.2746 0.0000 0.0000 0.0000 30.5796
#
#
#
# Elastic Compliance Matrix: (Units=1/GPa)
#
#
# Indices 1 2 3 4 5 6 
#
# 1 0.019374 -0.002268 -0.004840 0.000000 0.000000 0.000194
# 2 -0.002268 0.019374 -0.004840 0.000000 0.000000 -0.000194
# 3 -0.004840 -0.004840 0.011094 0.000000 0.000000 0.000000
# 4 0.000000 0.000000 0.000000 0.024746 0.000000 0.000000
# 5 0.000000 0.000000 0.000000 0.000000 0.024746 0.000000
# 6 0.000194 -0.000194 0.000000 0.000000 0.000000 0.032705
#
#
# Mechanical properties :
#
#
# Convention : Reuss Voigt Hill
#
# Bulk Modulus (GPa) = 38.53973 45.59615 42.06794
# Shear Modulus (GPa) = 30.38018 32.95280 31.66649
#
# Velocity S-wave (km/s) = 3.57404 3.72229 3.64892
# Velocity P-wave (km/s) = 5.76509 6.13559 5.95322
#
# Compressibility (1/GPa) = 0.02594725
#
# Stress axis : x y z
#
# Youngs Moduli (GPa) = 51.61675 51.61675 90.14059
#
# Poissons Ratio (x) = 0.11705 0.43624
# Poissons Ratio (y) = 0.11705 0.43624
# Poissons Ratio (z) = 0.24980 0.24980
#
# Static dielectric constant tensor:
#      x y z
#    x 1.921120 0.000000 0.000000 
#    y 0.000000 1.921120 0.000000 
#    z 0.000000 0.000000 1.905010 
# 
# From -- ./inp_files/629.got.cif
#   From: 2010.05.17/outbox.cif.g08.bks.cpg/sg78_cif.got.tgz:629.got - 2010.06.03 18:45:56.
