data_PCOD9541313
_publ_section_title
;
Structure prediction by ZEFSAII (Michael W. Deem and Ramdas Pophale) SiO2 
 PCOD9541313
Probable space group: P 41
;
_chemical_formula_sum "Si O2"
_cell_formula_units_Z 28
_cell_length_a 14.313465
_cell_length_b 14.313465
_cell_length_c 4.969351
_cell_angle_alpha 90.000000
_cell_angle_beta 90.000000
_cell_angle_gamma 90.000000
_cell_volume 1018.097179
_symmetry_space_group_name_H-M "P 41"
_symmetry_group_IT_number 76
_symmetry_cell_setting 'tetragonal'
loop_
_space_group_symop_operation_xyz
x,y,z
-y,x,1/4+z
-x,-y,1/2+z
y,-x,3/4+z
loop_
_atom_site_type_symbol
_atom_site_label
_atom_site_fract_x
_atom_site_fract_y
_atom_site_fract_z
Si Si1 0.448122 0.752840 0.380260
Si Si2 0.833318 0.171743 0.070046
Si Si3 0.441707 0.011562 0.635158
Si Si4 0.631030 0.794012 0.049802
Si Si5 0.841228 0.653014 0.627744
Si Si6 0.856646 0.009246 0.674446
Si Si7 0.418208 0.389577 0.336711
O O1 0.553948 0.764623 0.274813
O O2 0.412649 0.786310 0.666851
O O3 0.422351 0.644309 0.340488
O O4 0.382999 0.807716 0.163846
O O5 0.805176 0.264438 0.906736
O O6 0.761702 0.172345 0.320856
O O7 0.940735 0.180442 0.182512
O O8 0.808347 0.077115 0.897419
O O9 0.400029 0.101003 0.484629
O O10 0.491762 0.959390 0.386264
O O11 0.370294 0.947251 0.797696
O O12 0.616550 0.717297 0.816572
O O13 0.931440 0.083278 0.572637
O O14 0.527794 0.393788 0.385730
#
# Coordination Sequence:
#
# PCOD9541313 Si02
#       7
#     4   4   4   4   4   4   4
#     4  11  25  53  79 118 168 209 279 345 427 502
#     4  12  29  49  84 121 163 220 292 341 441 496
#     4  12  25  48  76 114 159 210 259 338 426 487
#     4  11  25  51  78 122 156 221 278 354 413 527
#     4  12  26  51  78 116 165 215 271 352 419 509
#     4  12  26  53  75 117 168 218 272 355 416 517
#     4  10  24  49  78 120 165 219 277 343 428 508
#
# _framework density 27.502286999999999
#
# number of rings (size 3 to 8) (size 9 to 14) (size 15 to 20)
#    0.000    0.571    5.714    0.000    6.000    3.429 
#   10.286    0.000    0.000    0.000    0.000    0.000 
#    0.000    0.000    0.000    0.000    0.000    0.000 
#
# Total GULP energy -156654.388893 kJ/mol
# GULP energy per Si atom -5594.799603 kJ/mol
# Density = 2.743969 g / cm^3
# Si number density = 27.502287 Si / 1000 Ang^3
#
#
#
# Elastic Constant Matrix: (Units=GPa)
#
#
# Indices 1 2 3 4 5 6 
#
# 1 149.0220 83.1075 47.9106 0.0000 0.0000 22.5479
# 2 83.1075 149.0220 47.9106 0.0000 0.0000 -22.5479
# 3 47.9106 47.9106 94.2545 0.0000 0.0000 0.0000
# 4 0.0000 0.0000 0.0000 26.5365 0.0000 0.0000
# 5 0.0000 0.0000 0.0000 0.0000 26.5365 0.0000
# 6 22.5479 -22.5479 0.0000 0.0000 0.0000 36.8799
#
#
#
# Elastic Compliance Matrix: (Units=1/GPa)
#
#
# Indices 1 2 3 4 5 6 
#
# 1 0.015766 -0.010314 -0.002771 0.000000 0.000000 -0.015945
# 2 -0.010314 0.015766 -0.002771 0.000000 0.000000 0.015945
# 3 -0.002771 -0.002771 0.013427 0.000000 0.000000 0.000000
# 4 0.000000 0.000000 0.000000 0.037684 0.000000 0.000000
# 5 0.000000 0.000000 0.000000 0.000000 0.037684 0.000000
# 6 -0.015945 0.015945 0.000000 0.000000 0.000000 0.046612
#
#
# Mechanical properties :
#
#
# Convention : Reuss Voigt Hill
#
# Bulk Modulus (GPa) = 75.49648 83.35067 79.42357
# Shear Modulus (GPa) = 24.62235 32.21524 28.41880
#
# Velocity S-wave (km/s) = 2.99538 3.42624 3.21802
# Velocity P-wave (km/s) = 6.28280 6.78415 6.53828
#
# Compressibility (1/GPa) = 0.01324565
#
# Stress axis : x y z
#
# Youngs Moduli (GPa) = 63.42760 63.42760 74.47737
#
# Poissons Ratio (x) = 0.65420 0.20640
# Poissons Ratio (y) = 0.65420 0.20640
# Poissons Ratio (z) = 0.17577 0.17577
#
# Static dielectric constant tensor:
#      x y z
#    x 2.203130 0.000000 0.000000 
#    y 0.000000 2.203130 0.000000 
#    z 0.000000 0.000000 2.214600 
# 
# From -- ./inp_files/229.got.cif
#   From: 2010.05.17/outbox.cif.g08.bks.cpg/sg76_cif.got.tgz:229.got - 2010.06.03 18:43:17.
