data_PCOD9541083
_publ_section_title
;
Structure prediction by ZEFSAII (Michael W. Deem and Ramdas Pophale) SiO2 
 PCOD9541083
Probable space group: P 41
;
_chemical_formula_sum "Si O2"
_cell_formula_units_Z 24
_cell_length_a 7.424080
_cell_length_b 7.424080
_cell_length_c 17.279571
_cell_angle_alpha 90.000000
_cell_angle_beta 90.000000
_cell_angle_gamma 90.000000
_cell_volume 952.397490
_symmetry_space_group_name_H-M "P 41"
_symmetry_group_IT_number 76
_symmetry_cell_setting 'tetragonal'
loop_
_space_group_symop_operation_xyz
x,y,z
-y,x,1/4+z
-x,-y,1/2+z
y,-x,3/4+z
loop_
_atom_site_type_symbol
_atom_site_label
_atom_site_fract_x
_atom_site_fract_y
_atom_site_fract_z
Si Si1 0.068063 0.834626 0.375000
Si Si2 0.641663 0.812784 0.416726
Si Si3 0.793855 0.682453 0.710010
Si Si4 0.551274 0.866113 0.249673
Si Si5 0.882734 0.828715 0.956291
Si Si6 0.294400 0.459705 0.045988
O O1 0.159590 0.714862 0.441047
O O2 0.095740 0.799004 0.285373
O O3 0.855057 0.824664 0.393798
O O4 0.149484 0.034212 0.387414
O O5 0.551926 0.775193 0.333891
O O6 0.612055 0.667907 0.482926
O O7 0.598078 0.008202 0.453387
O O8 0.694126 0.622277 0.631065
O O9 0.661794 0.640071 0.780466
O O10 0.820928 0.898740 0.710181
O O11 0.373782 0.819515 0.202284
O O12 0.549555 0.080133 0.272931
#
# Coordination Sequence:
#
# PCOD9541083 Si02
#       6
#     4   4   4   4   4   4
#     4  10  18  35  61  88 117 159 206 252 308 376
#     4   9  17  33  60  84 116 161 198 248 313 358
#     4   9  19  33  61  87 118 159 205 249 307 372
#     4   9  18  35  55  89 121 153 208 252 302 372
#     4  10  20  33  61  90 119 160 208 252 313 374
#     4   9  18  35  58  86 119 160 201 251 307 370
#
# _framework density 25.199563000000001
#
# number of rings (size 3 to 8) (size 9 to 14) (size 15 to 20)
#    0.000    2.667    1.667    0.000    7.000    0.000 
#    3.000    0.000   14.667    0.000    0.000    0.000 
#    0.000    0.000    0.000    0.000    0.000    0.000 
#
# Total GULP energy -134255.799852 kJ/mol
# GULP energy per Si atom -5593.991661 kJ/mol
# Density = 2.514221 g / cm^3
# Si number density = 25.199563 Si / 1000 Ang^3
#
#
#
# Elastic Constant Matrix: (Units=GPa)
#
#
# Indices 1 2 3 4 5 6 
#
# 1 73.2296 6.0664 31.4848 0.0000 0.0000 8.2836
# 2 6.0664 73.2296 31.4848 0.0000 0.0000 -8.2836
# 3 31.4848 31.4848 114.3230 0.0000 0.0000 0.0000
# 4 0.0000 0.0000 0.0000 27.2019 0.0000 0.0000
# 5 0.0000 0.0000 0.0000 0.0000 27.2019 0.0000
# 6 8.2836 -8.2836 0.0000 0.0000 0.0000 -14.5247
#
#
#
# Elastic Compliance Matrix: (Units=1/GPa)
#
#
# Indices 1 2 3 4 5 6 
#
# 1 0.014597 0.001544 -0.004445 0.000000 0.000000 0.007444
# 2 0.001544 0.014597 -0.004445 0.000000 0.000000 -0.007444
# 3 -0.004445 -0.004445 0.011196 0.000000 0.000000 0.000000
# 4 0.000000 0.000000 0.000000 0.036762 0.000000 0.000000
# 5 0.000000 0.000000 0.000000 0.000000 0.036762 0.000000
# 6 0.007444 -0.007444 0.000000 0.000000 0.000000 -0.060357
#
#
# Mechanical properties :
#
#
# Convention : Reuss Voigt Hill
#
# Bulk Modulus (GPa) = 38.91576 44.31717 41.61647
# Shear Modulus (GPa) = 65.09160 20.75890 42.92525
#
# Velocity S-wave (km/s) = 5.08788 2.87327 4.13172
# Velocity P-wave (km/s) = 7.07050 5.35091 6.26993
#
# Compressibility (1/GPa) = 0.02569653
#
# Stress axis : x y z
#
# Youngs Moduli (GPa) = 68.50765 68.50765 89.32067
#
# Poissons Ratio (x) = -0.10578 0.39705
# Poissons Ratio (y) = -0.10578 0.39705
# Poissons Ratio (z) = 0.30453 0.30453
#
# Static dielectric constant tensor:
#      x y z
#    x 2.017540 0.000000 0.000000 
#    y 0.000000 2.017540 0.000000 
#    z 0.000000 0.000000 1.887640 
# 
# From -- ./inp_files/1100.got.cif
#   From: 2010.05.17/outbox.cif.g08.bks.cpg/sg76_cif.got.tgz:1100.got - 2010.06.03 18:43:17.
