data_PCOD9541964
_publ_section_title
;
Structure prediction by ZEFSAII (Michael W. Deem and Ramdas Pophale) SiO2 
 PCOD9541964
Probable space group: I 4
;
_chemical_formula_sum "Si O2"
_cell_formula_units_Z 56
_cell_length_a 13.072007
_cell_length_b 13.072007
_cell_length_c 16.739276
_cell_angle_alpha 90.000000
_cell_angle_beta 90.000000
_cell_angle_gamma 90.000000
_cell_volume 2860.363409
_symmetry_space_group_name_H-M "I 4"
_symmetry_group_IT_number 79
_symmetry_cell_setting 'tetragonal'
loop_
_space_group_symop_operation_xyz
x,y,z
-y,x,z
-x,-y,z
y,-x,z
1/2+x,1/2+y,1/2+z
1/2-y,1/2+x,1/2+z
1/2-x,1/2-y,1/2+z
1/2+y,1/2-x,1/2+z
loop_
_atom_site_type_symbol
_atom_site_label
_atom_site_fract_x
_atom_site_fract_y
_atom_site_fract_z
Si Si1 0.759867 0.109163 0.332830
Si Si2 0.850228 0.089760 0.159726
Si Si3 0.327508 0.501301 0.074483
Si Si4 0.584207 0.255524 0.918481
Si Si5 0.109164 0.240133 0.986622
Si Si6 0.415794 0.744476 0.400971
Si Si7 0.672492 0.498699 0.244969
O O1 0.790686 0.122718 0.240300
O O2 0.860283 0.142341 0.384593
O O3 0.671599 0.181086 0.368386
O O4 0.725895 0.992586 0.347807
O O5 0.965901 0.135105 0.159726
O O6 0.790686 0.122718 0.079152
O O7 0.401621 0.402226 0.073088
O O8 0.271501 0.501907 0.159726
O O9 0.265540 0.490707 0.994395
O O10 0.671599 0.181086 0.951065
O O11 0.142342 0.139717 0.934859
O O12 0.992587 0.274105 0.971645
O O13 0.490707 0.734460 0.325057
O O14 0.598379 0.597774 0.246364
#
# Coordination Sequence:
#
# PCOD9541964 Si02
#       7
#     8   8   8   8   8   8   8
#     4  11  24  39  62  92 125 165 210 262 320 383
#     4  11  22  40  68  99 127 160 212 281 331 370
#     4   9  17  30  53  84 112 145 194 249 300 357
#     4  11  22  39  60  88 122 168 207 257 314 382
#     4  11  24  39  62  92 125 165 210 262 320 383
#     4  11  22  39  60  88 122 168 207 257 314 382
#     4   9  17  30  53  84 112 145 194 249 300 357
#
# _framework density 19.577929999999999
#
# number of rings (size 3 to 8) (size 9 to 14) (size 15 to 20)
#    0.000    1.571    5.714    0.857    2.000    1.143 
#    0.000    0.000    3.143    1.714    0.000    0.000 
#    0.000    0.000    0.000    0.000    0.000    0.000 
#
# Total GULP energy -155893.795629 kJ/mol
# GULP energy per Si atom -5567.635558 kJ/mol
# Density = 1.953337 g / cm^3
# Si number density = 19.577930 Si / 1000 Ang^3
#
#
#
# Elastic Constant Matrix: (Units=GPa)
#
#
# Indices 1 2 3 4 5 6 
#
# 1 40.9825 11.0680 19.5491 0.0000 0.0000 0.7460
# 2 11.0680 40.9825 19.5491 0.0000 0.0000 -0.7460
# 3 19.5491 19.5491 125.3138 0.0000 0.0000 0.0000
# 4 0.0000 0.0000 0.0000 23.5024 0.0000 0.0000
# 5 0.0000 0.0000 0.0000 0.0000 23.5024 0.0000
# 6 0.7460 -0.7460 0.0000 0.0000 0.0000 10.6095
#
#
#
# Elastic Compliance Matrix: (Units=1/GPa)
#
#
# Indices 1 2 3 4 5 6 
#
# 1 0.027654 -0.005892 -0.003395 0.000000 0.000000 -0.002359
# 2 -0.005892 0.027654 -0.003395 0.000000 0.000000 0.002359
# 3 -0.003395 -0.003395 0.009039 0.000000 0.000000 0.000000
# 4 0.000000 0.000000 0.000000 0.042549 0.000000 0.000000
# 5 0.000000 0.000000 0.000000 0.000000 0.042549 0.000000
# 6 -0.002359 0.002359 0.000000 0.000000 0.000000 0.094587
#
#
# Mechanical properties :
#
#
# Convention : Reuss Voigt Hill
#
# Bulk Modulus (GPa) = 25.65163 34.17905 29.91534
# Shear Modulus (GPa) = 17.70597 21.99703 19.85150
#
# Velocity S-wave (km/s) = 3.01056 3.35560 3.18775
# Velocity P-wave (km/s) = 5.02149 5.70168 5.37236
#
# Compressibility (1/GPa) = 0.03898388
#
# Stress axis : x y z
#
# Youngs Moduli (GPa) = 36.16083 36.16083 110.62934
#
# Poissons Ratio (x) = 0.21306 0.37558
# Poissons Ratio (y) = 0.21306 0.37558
# Poissons Ratio (z) = 0.12276 0.12276
#
# Static dielectric constant tensor:
#      x y z
#    x 1.702430 0.000000 0.000000 
#    y 0.000000 1.702430 0.000000 
#    z 0.000000 0.000000 1.756890 
# 
# From -- ./inp_files/1423.got.cif
#   From: 2010.05.17/outbox.cif.g08.bks.cpg/sg79_cif.got.tgz:1423.got - 2010.06.03 18:47:27.
