data_PCOD9541245
_publ_section_title
;
Structure prediction by ZEFSAII (Michael W. Deem and Ramdas Pophale) SiO2 
 PCOD9541245
Probable space group: P 41
;
_chemical_formula_sum "Si O2"
_cell_formula_units_Z 24
_cell_length_a 12.358250
_cell_length_b 12.358250
_cell_length_c 7.100784
_cell_angle_alpha 90.000000
_cell_angle_beta 90.000000
_cell_angle_gamma 90.000000
_cell_volume 1084.476773
_symmetry_space_group_name_H-M "P 41"
_symmetry_group_IT_number 76
_symmetry_cell_setting 'tetragonal'
loop_
_space_group_symop_operation_xyz
x,y,z
-y,x,1/4+z
-x,-y,1/2+z
y,-x,3/4+z
loop_
_atom_site_type_symbol
_atom_site_label
_atom_site_fract_x
_atom_site_fract_y
_atom_site_fract_z
Si Si1 0.735567 0.643000 0.398430
Si Si2 0.700636 0.212265 0.726061
Si Si3 0.995878 0.583059 0.040461
Si Si4 0.604740 0.758608 0.681765
Si Si5 0.340776 0.979302 0.721232
Si Si6 0.077854 0.869158 0.396562
O O1 0.744780 0.653552 0.174357
O O2 0.642869 0.718197 0.479128
O O3 0.722063 0.518703 0.460060
O O4 0.851204 0.679695 0.484715
O O5 0.708826 0.309304 0.578688
O O6 0.820004 0.165782 0.771053
O O7 0.628303 0.107289 0.677759
O O8 0.995486 0.637276 0.246621
O O9 0.112178 0.606716 0.951936
O O10 0.987102 0.453873 0.062249
O O11 0.235083 0.046661 0.772924
O O12 0.973433 0.893790 0.269337
#
# Coordination Sequence:
#
# PCOD9541245 Si02
#       6
#     4   4   4   4   4   4
#     4  10  25  46  66 104 135 181 238 282 342 413
#     4  11  23  46  71 100 145 174 229 292 343 410
#     4  10  22  42  68 100 130 174 233 275 339 416
#     4  11  24  45  71 102 135 183 234 281 354 412
#     4  10  22  43  65  97 133 174 229 280 335 415
#     4  12  24  44  63  99 144 180 221 282 355 416
#
# _framework density 22.130486999999999
#
# number of rings (size 3 to 8) (size 9 to 14) (size 15 to 20)
#    0.000    1.333    5.000    0.000    4.667    8.000 
#    3.000    0.000    0.000    0.000    0.000    0.000 
#    0.000    0.000    0.000    0.000    0.000    0.000 
#
# Total GULP energy -134330.988404 kJ/mol
# GULP energy per Si atom -5597.124517 kJ/mol
# Density = 2.208012 g / cm^3
# Si number density = 22.130487 Si / 1000 Ang^3
#
#
#
# Elastic Constant Matrix: (Units=GPa)
#
#
# Indices 1 2 3 4 5 6 
#
# 1 99.4904 34.4967 35.1633 0.0000 0.0000 -5.6462
# 2 34.4967 99.4904 35.1633 0.0000 0.0000 5.6462
# 3 35.1633 35.1633 60.5160 0.0000 0.0000 0.0000
# 4 0.0000 0.0000 0.0000 37.3259 0.0000 0.0000
# 5 0.0000 0.0000 0.0000 0.0000 37.3259 0.0000
# 6 -5.6462 5.6462 0.0000 0.0000 0.0000 28.5730
#
#
#
# Elastic Compliance Matrix: (Units=1/GPa)
#
#
# Indices 1 2 3 4 5 6 
#
# 1 0.013336 -0.002597 -0.006240 0.000000 0.000000 0.003148
# 2 -0.002597 0.013336 -0.006240 0.000000 0.000000 -0.003148
# 3 -0.006240 -0.006240 0.023776 0.000000 0.000000 0.000000
# 4 0.000000 0.000000 0.000000 0.026791 0.000000 0.000000
# 5 0.000000 0.000000 0.000000 0.000000 0.026791 0.000000
# 6 0.003148 -0.003148 0.000000 0.000000 0.000000 0.036242
#
#
# Mechanical properties :
#
#
# Convention : Reuss Voigt Hill
#
# Bulk Modulus (GPa) = 49.27561 52.12705 50.70133
# Shear Modulus (GPa) = 28.21833 30.95653 29.58743
#
# Velocity S-wave (km/s) = 3.57471 3.74414 3.66040
# Velocity P-wave (km/s) = 6.27315 6.50361 6.38942
#
# Compressibility (1/GPa) = 0.02029402
#
# Stress axis : x y z
#
# Youngs Moduli (GPa) = 74.98614 74.98614 42.05966
#
# Poissons Ratio (x) = 0.19477 0.26244
# Poissons Ratio (y) = 0.19477 0.26244
# Poissons Ratio (z) = 0.46789 0.46789
#
# Static dielectric constant tensor:
#      x y z
#    x 1.788430 0.000000 0.000000 
#    y 0.000000 1.788430 0.000000 
#    z 0.000000 0.000000 1.842870 
# 
# From -- ./inp_files/536.got.cif
#   From: 2010.05.17/outbox.cif.g08.bks.cpg/sg76_cif.got.tgz:536.got - 2010.06.03 18:43:17.
