data_PCOD9541016
_publ_section_title
;
Structure prediction by ZEFSAII (Michael W. Deem and Ramdas Pophale) SiO2 
 PCOD9541016
Probable space group: P 4
;
_chemical_formula_sum "Si O2"
_cell_formula_units_Z 18
_cell_length_a 9.622247
_cell_length_b 9.622247
_cell_length_c 10.314694
_cell_angle_alpha 90.000000
_cell_angle_beta 90.000000
_cell_angle_gamma 90.000000
_cell_volume 955.013147
_symmetry_space_group_name_H-M "P 4"
_symmetry_group_IT_number 75
_symmetry_cell_setting 'tetragonal'
loop_
_space_group_symop_operation_xyz
x,y,z
-y,x,z
-x,-y,z
y,-x,z
loop_
_atom_site_type_symbol
_atom_site_label
_atom_site_fract_x
_atom_site_fract_y
_atom_site_fract_z
Si Si1 0.534248 0.270831 0.897000
Si Si2 0.665020 0.881456 0.521899
Si Si3 0.834980 0.618545 0.616511
Si Si4 0.500000 0.000000 0.069205
Si Si5 0.965753 0.229169 0.241409
O O1 0.652732 0.386939 0.920662
O O2 0.554246 0.226333 0.747241
O O3 0.542000 0.132729 0.982551
O O4 0.750000 0.750000 0.569205
O O5 0.504368 0.836294 0.510053
O O6 0.726333 0.945754 0.391168
O O7 0.663708 0.004368 0.628357
O O8 0.632729 0.958000 0.155859
O O9 0.113061 0.152732 0.217748
#
# Coordination Sequence:
#
# PCOD9541016 Si02
#       5
#     4   4   4   2   4
#     4  11  24  43  66  95 134 173 215 275 326 381
#     4  11  22  39  65  96 128 166 212 265 334 392
#     4  11  22  39  65  96 128 166 212 265 334 392
#     4  12  24  44  70  92 128 184 232 258 316 396
#     4  11  24  43  66  95 134 173 215 275 326 381
#
# _framework density 18.847905999999998
#
# number of rings (size 3 to 8) (size 9 to 14) (size 15 to 20)
#    0.000    0.889    4.444    4.000    0.000    0.889 
#    0.000    0.000    0.000    0.000    0.000    0.000 
#    0.000    0.000    0.000    0.000    0.000    0.000 
#
# Total GULP energy -100516.104124 kJ/mol
# GULP energy per Si atom -5584.228007 kJ/mol
# Density = 1.880501 g / cm^3
# Si number density = 18.847906 Si / 1000 Ang^3
#
#
#
# Elastic Constant Matrix: (Units=GPa)
#
#
# Indices 1 2 3 4 5 6 
#
# 1 137.3593 63.3314 38.9817 0.0000 0.0000 4.6629
# 2 63.3314 137.3593 38.9817 0.0000 0.0000 -4.6629
# 3 38.9817 38.9817 72.3584 0.0000 0.0000 0.0000
# 4 0.0000 0.0000 0.0000 31.9876 0.0000 0.0000
# 5 0.0000 0.0000 0.0000 0.0000 31.9876 0.0000
# 6 4.6629 -4.6629 0.0000 0.0000 0.0000 30.5840
#
#
#
# Elastic Compliance Matrix: (Units=1/GPa)
#
#
# Indices 1 2 3 4 5 6 
#
# 1 0.010037 -0.003736 -0.003395 0.000000 0.000000 -0.002100
# 2 -0.003736 0.010037 -0.003395 0.000000 0.000000 0.002100
# 3 -0.003395 -0.003395 0.017478 0.000000 0.000000 0.000000
# 4 0.000000 0.000000 0.000000 0.031262 0.000000 0.000000
# 5 0.000000 0.000000 0.000000 0.000000 0.031262 0.000000
# 6 -0.002100 0.002100 0.000000 0.000000 0.000000 0.033337
#
#
# Mechanical properties :
#
#
# Convention : Reuss Voigt Hill
#
# Bulk Modulus (GPa) = 60.59989 69.96293 65.28141
# Shear Modulus (GPa) = 31.25680 32.63067 31.94374
#
# Velocity S-wave (km/s) = 4.07673 4.16536 4.12128
# Velocity P-wave (km/s) = 7.37438 7.76749 7.57349
#
# Compressibility (1/GPa) = 0.01650168
#
# Stress axis : x y z
#
# Youngs Moduli (GPa) = 99.62854 99.62854 57.21501
#
# Poissons Ratio (x) = 0.37218 0.19424
# Poissons Ratio (y) = 0.37218 0.19424
# Poissons Ratio (z) = 0.33823 0.33823
#
# Static dielectric constant tensor:
#      x y z
#    x 1.667330 0.000000 0.000000 
#    y 0.000000 1.667330 0.000000 
#    z 0.000000 0.000000 1.631400 
# 
# From -- ./inp_files/504.got.cif
#   From: 2010.05.17/outbox.cif.g08.bks.cpg/sg75_cif.got.tgz:504.got - 2010.06.03 18:42:43.
