data_PCOD9541697
_publ_section_title
;
Structure prediction by ZEFSAII (Michael W. Deem and Ramdas Pophale) SiO2 
 PCOD9541697
Probable space group: P 43
;
_chemical_formula_sum "Si O2"
_cell_formula_units_Z 20
_cell_length_a 7.834795
_cell_length_b 7.834795
_cell_length_c 11.520869
_cell_angle_alpha 90.000000
_cell_angle_beta 90.000000
_cell_angle_gamma 90.000000
_cell_volume 707.197169
_symmetry_space_group_name_H-M "P 43"
_symmetry_group_IT_number 78
_symmetry_cell_setting 'tetragonal'
loop_
_space_group_symop_operation_xyz
x,y,z
-y,x,3/4+z
-x,-y,1/2+z
y,-x,1/4+z
loop_
_atom_site_type_symbol
_atom_site_label
_atom_site_fract_x
_atom_site_fract_y
_atom_site_fract_z
Si Si1 0.057960 0.749132 0.419010
Si Si2 0.838552 0.410289 0.707291
Si Si3 0.589710 0.161446 0.305103
Si Si4 0.942041 0.749131 0.843384
Si Si5 0.721581 0.278419 0.506197
O O1 0.189691 0.722965 0.311571
O O2 0.100466 0.586052 0.498683
O O3 0.092841 0.907160 0.506197
O O4 0.882003 0.729053 0.347214
O O5 0.706464 0.425819 0.602468
O O6 0.999999 0.345959 0.631197
O O7 0.722964 0.189690 0.200823
O O8 0.574181 0.293534 0.409926
O O9 0.413949 0.899532 0.513711
O O10 0.117998 0.729052 0.915180
#
# Coordination Sequence:
#
# PCOD9541697 Si02
#       5
#     4   4   4   4   4
#     4  10  22  42  68  96 139 178 231 296 360 422
#     4   9  21  42  64  94 138 182 224 291 362 417
#     4   9  21  42  64  94 138 182 224 291 362 417
#     4  10  22  42  68  96 139 178 231 296 360 422
#     4  10  22  44  66 102 132 184 234 282 360 438
#
# _framework density 28.280654999999999
#
# number of rings (size 3 to 8) (size 9 to 14) (size 15 to 20)
#    0.000    2.400    0.000    0.000    5.600    0.000 
#   32.400    0.000   17.600    0.000    0.000    0.000 
#    0.000    0.000    0.000    0.000    0.000    0.000 
#
# Total GULP energy -111511.652022 kJ/mol
# GULP energy per Si atom -5575.582601 kJ/mol
# Density = 2.821629 g / cm^3
# Si number density = 28.280655 Si / 1000 Ang^3
#
#
#
# Elastic Constant Matrix: (Units=GPa)
#
#
# Indices 1 2 3 4 5 6 
#
# 1 116.6505 -1.3322 65.2278 0.0000 0.0000 -0.0002
# 2 -1.3322 116.6505 65.2278 0.0000 0.0000 0.0002
# 3 65.2278 65.2278 295.6308 0.0000 0.0000 0.0000
# 4 0.0000 0.0000 0.0000 57.0954 0.0000 0.0000
# 5 0.0000 0.0000 0.0000 0.0000 57.0954 0.0000
# 6 -0.0002 0.0002 0.0000 0.0000 0.0000 13.2274
#
#
#
# Elastic Compliance Matrix: (Units=1/GPa)
#
#
# Indices 1 2 3 4 5 6 
#
# 1 0.010016 0.001540 -0.002550 0.000000 0.000000 0.000000
# 2 0.001540 0.010016 -0.002550 0.000000 0.000000 0.000000
# 3 -0.002550 -0.002550 0.004508 0.000000 0.000000 0.000000
# 4 0.000000 0.000000 0.000000 0.017515 0.000000 0.000000
# 5 0.000000 0.000000 0.000000 0.000000 0.017515 0.000000
# 6 0.000000 0.000000 0.000000 0.000000 0.000000 0.075601
#
#
# Mechanical properties :
#
#
# Convention : Reuss Voigt Hill
#
# Bulk Modulus (GPa) = 57.40209 87.46430 72.43319
# Shear Modulus (GPa) = 33.76207 52.13754 42.94981
#
# Velocity S-wave (km/s) = 3.45892 4.29835 3.90128
# Velocity P-wave (km/s) = 6.02441 7.45847 6.77947
#
# Compressibility (1/GPa) = 0.01742097
#
# Stress axis : x y z
#
# Youngs Moduli (GPa) = 99.84087 99.84087 221.84088
#
# Poissons Ratio (x) = -0.15377 0.56563
# Poissons Ratio (y) = -0.15377 0.56563
# Poissons Ratio (z) = 0.25457 0.25457
#
# Static dielectric constant tensor:
#      x y z
#    x 2.638600 0.000000 0.000000 
#    y 0.000000 2.638600 0.000000 
#    z 0.000000 0.000000 2.597240 
# 
# From -- ./inp_files/825.got.cif
#   From: 2010.05.17/outbox.cif.g08.bks.cpg/sg78_cif.got.tgz:825.got - 2010.06.03 18:45:56.
