data_PCOD9541660
_publ_section_title
;
Structure prediction by ZEFSAII (Michael W. Deem and Ramdas Pophale) SiO2 
 PCOD9541660
Probable space group: P 43
;
_chemical_formula_sum "Si O2"
_cell_formula_units_Z 28
_cell_length_a 13.962058
_cell_length_b 13.962058
_cell_length_c 6.333564
_cell_angle_alpha 90.000000
_cell_angle_beta 90.000000
_cell_angle_gamma 90.000000
_cell_volume 1234.659035
_symmetry_space_group_name_H-M "P 43"
_symmetry_group_IT_number 78
_symmetry_cell_setting 'tetragonal'
loop_
_space_group_symop_operation_xyz
x,y,z
-y,x,3/4+z
-x,-y,1/2+z
y,-x,1/4+z
loop_
_atom_site_type_symbol
_atom_site_label
_atom_site_fract_x
_atom_site_fract_y
_atom_site_fract_z
Si Si1 0.589916 0.027095 0.422340
Si Si2 0.262937 0.988542 0.296367
Si Si3 0.480383 0.384402 0.037004
Si Si4 0.393342 0.111284 0.570806
Si Si5 0.155285 0.274890 0.415482
Si Si6 0.053793 0.123056 0.693027
Si Si7 0.621146 0.693400 0.878955
O O1 0.651540 0.033801 0.633784
O O2 0.481506 0.051067 0.474623
O O3 0.629824 0.104666 0.256387
O O4 0.611020 0.925414 0.310516
O O5 0.247271 0.900377 0.453477
O O6 0.300051 0.076665 0.439191
O O7 0.171290 0.998200 0.145615
O O8 0.401296 0.468588 0.064991
O O9 0.428695 0.295221 0.147111
O O10 0.397713 0.419590 0.421409
O O11 0.412149 0.223265 0.535245
O O12 0.130059 0.196453 0.594161
O O13 0.265183 0.294257 0.371427
O O14 0.974066 0.102402 0.518248
#
# Coordination Sequence:
#
# PCOD9541660 Si02
#       7
#     4   4   4   4   4   4   4
#     4  10  21  42  61  97 134 175 219 281 347 407
#     4  10  24  43  63  96 141 172 229 285 342 420
#     4   8  19  42  60  93 131 170 220 277 337 410
#     4  11  21  38  69  94 136 176 228 287 342 412
#     4  10  24  42  67  98 136 174 236 285 344 418
#     4  11  28  44  70  98 138 185 230 284 359 425
#     4  10  21  39  70  92 130 178 220 287 343 404
#
# _framework density 22.678325999999998
#
# number of rings (size 3 to 8) (size 9 to 14) (size 15 to 20)
#    0.857    1.143    1.429    0.857   10.000    0.000 
#    2.571    1.429    0.000    0.000    0.000    0.000 
#    0.000    0.000    0.000    0.000    0.000    0.000 
#
# Total GULP energy -156071.290643 kJ/mol
# GULP energy per Si atom -5573.974666 kJ/mol
# Density = 2.262671 g / cm^3
# Si number density = 22.678326 Si / 1000 Ang^3
#
#
#
# Elastic Constant Matrix: (Units=GPa)
#
#
# Indices 1 2 3 4 5 6 
#
# 1 81.2822 4.6810 15.0118 0.0000 0.0000 5.0928
# 2 4.6810 81.2822 15.0118 0.0000 0.0000 -5.0928
# 3 15.0118 15.0118 65.6338 0.0000 0.0000 0.0000
# 4 0.0000 0.0000 0.0000 25.4516 0.0000 0.0000
# 5 0.0000 0.0000 0.0000 0.0000 25.4516 0.0000
# 6 5.0928 -5.0928 0.0000 0.0000 0.0000 23.5060
#
#
#
# Elastic Compliance Matrix: (Units=1/GPa)
#
#
# Indices 1 2 3 4 5 6 
#
# 1 0.013042 -0.000400 -0.002892 0.000000 0.000000 -0.002912
# 2 -0.000400 0.013042 -0.002892 0.000000 0.000000 0.002912
# 3 -0.002892 -0.002892 0.016559 0.000000 0.000000 0.000000
# 4 0.000000 0.000000 0.000000 0.039290 0.000000 0.000000
# 5 0.000000 0.000000 0.000000 0.000000 0.039290 0.000000
# 6 -0.002912 0.002912 0.000000 0.000000 0.000000 0.043804
#
#
# Mechanical properties :
#
#
# Convention : Reuss Voigt Hill
#
# Bulk Modulus (GPa) = 33.02751 33.06749 33.04750
# Shear Modulus (GPa) = 26.66855 27.78139 27.22497
#
# Velocity S-wave (km/s) = 3.43293 3.50382 3.46856
# Velocity P-wave (km/s) = 5.50531 5.56613 5.53580
#
# Compressibility (1/GPa) = 0.03027779
#
# Stress axis : x y z
#
# Youngs Moduli (GPa) = 76.67323 76.67323 60.39075
#
# Poissons Ratio (x) = 0.03063 0.17463
# Poissons Ratio (y) = 0.03063 0.17463
# Poissons Ratio (z) = 0.22171 0.22171
#
# Static dielectric constant tensor:
#      x y z
#    x 1.849290 0.000000 0.000000 
#    y 0.000000 1.849290 0.000000 
#    z 0.000000 0.000000 1.916620 
# 
# From -- ./inp_files/239.got.cif
#   From: 2010.05.17/outbox.cif.g08.bks.cpg/sg78_cif.got.tgz:239.got - 2010.06.03 18:45:56.
