data_PCOD9541418
_publ_section_title
;
Structure prediction by ZEFSAII (Michael W. Deem and Ramdas Pophale) SiO2 
 PCOD9541418
Probable space group: P 41
;
_chemical_formula_sum "Si O2"
_cell_formula_units_Z 16
_cell_length_a 9.517983
_cell_length_b 9.517983
_cell_length_c 6.552791
_cell_angle_alpha 90.000000
_cell_angle_beta 90.000000
_cell_angle_gamma 90.000000
_cell_volume 593.630445
_symmetry_space_group_name_H-M "P 41"
_symmetry_group_IT_number 76
_symmetry_cell_setting 'tetragonal'
loop_
_space_group_symop_operation_xyz
x,y,z
-y,x,1/4+z
-x,-y,1/2+z
y,-x,3/4+z
loop_
_atom_site_type_symbol
_atom_site_label
_atom_site_fract_x
_atom_site_fract_y
_atom_site_fract_z
Si Si1 0.576498 0.329471 0.461910
Si Si2 0.277599 0.234534 0.848263
Si Si3 0.890604 0.574798 0.018430
Si Si4 0.181357 0.057130 0.201412
O O1 0.628367 0.421131 0.651051
O O2 0.660612 0.353315 0.256373
O O3 0.597132 0.173528 0.542279
O O4 0.194081 0.332679 0.688302
O O5 0.407278 0.132248 0.787070
O O6 0.173120 0.146557 0.993195
O O7 0.039724 0.654198 0.009927
O O8 0.118466 0.906661 0.137275
#
# Coordination Sequence:
#
# PCOD9541418 Si02
#       4
#     4   4   4   4
#     4  12  22  42  72 112 148 184 230 296 384 434
#     4  12  26  45  76 110 143 186 238 303 367 430
#     4  12  26  45  76 110 143 186 238 303 367 430
#     4  12  28  50  72 100 144 202 250 292 342 424
#
# _framework density 26.952798000000001
#
# number of rings (size 3 to 8) (size 9 to 14) (size 15 to 20)
#    0.000    0.000    7.500    3.000    0.000    6.000 
#    0.000    0.000    0.000    0.000    0.000    0.000 
#    0.000    0.000    0.000    0.000    0.000    0.000 
#
# Total GULP energy -89520.385067 kJ/mol
# GULP energy per Si atom -5595.024067 kJ/mol
# Density = 2.689145 g / cm^3
# Si number density = 26.952798 Si / 1000 Ang^3
#
#
#
# Elastic Constant Matrix: (Units=GPa)
#
#
# Indices 1 2 3 4 5 6 
#
# 1 43.5111 1.6679 17.3636 0.0000 0.0000 -5.9733
# 2 1.6679 43.5111 17.3636 0.0000 0.0000 5.9733
# 3 17.3636 17.3636 85.8063 0.0000 0.0000 0.0000
# 4 0.0000 0.0000 0.0000 57.8769 0.0000 0.0000
# 5 0.0000 0.0000 0.0000 0.0000 57.8769 0.0000
# 6 -5.9733 5.9733 0.0000 0.0000 0.0000 35.9394
#
#
#
# Elastic Compliance Matrix: (Units=1/GPa)
#
#
# Indices 1 2 3 4 5 6 
#
# 1 0.025650 0.000561 -0.005304 0.000000 0.000000 0.004170
# 2 0.000561 0.025650 -0.005304 0.000000 0.000000 -0.004170
# 3 -0.005304 -0.005304 0.013801 0.000000 0.000000 0.000000
# 4 0.000000 0.000000 0.000000 0.017278 0.000000 0.000000
# 5 0.000000 0.000000 0.000000 0.000000 0.017278 0.000000
# 6 0.004170 -0.004170 0.000000 0.000000 0.000000 0.029211
#
#
# Mechanical properties :
#
#
# Convention : Reuss Voigt Hill
#
# Bulk Modulus (GPa) = 22.21877 27.29098 24.75487
# Shear Modulus (GPa) = 30.49432 39.43417 34.96424
#
# Velocity S-wave (km/s) = 3.36727 3.82918 3.60563
# Velocity P-wave (km/s) = 4.83524 5.44955 5.15156
#
# Compressibility (1/GPa) = 0.04500699
#
# Stress axis : x y z
#
# Youngs Moduli (GPa) = 38.98593 38.98593 72.45955
#
# Poissons Ratio (x) = -0.02187 0.38433
# Poissons Ratio (y) = -0.02187 0.38433
# Poissons Ratio (z) = 0.20678 0.20678
#
# Static dielectric constant tensor:
#      x y z
#    x 2.178870 0.000000 0.000000 
#    y 0.000000 2.178870 0.000000 
#    z 0.000000 0.000000 1.996520 
# 
# From -- ./inp_files/37.got.cif
#   From: 2010.05.17/outbox.cif.g08.bks.cpg/sg76_cif.got.tgz:37.got - 2010.06.03 18:43:17.
