data_PCOD9541471
_publ_section_title
;
Structure prediction by ZEFSAII (Michael W. Deem and Ramdas Pophale) SiO2 
 PCOD9541471
Probable space group: P 42
;
_chemical_formula_sum "Si O2"
_cell_formula_units_Z 32
_cell_length_a 12.777113
_cell_length_b 12.777113
_cell_length_c 7.629589
_cell_angle_alpha 90.000000
_cell_angle_beta 90.000000
_cell_angle_gamma 90.000000
_cell_volume 1245.565627
_symmetry_space_group_name_H-M "P 42"
_symmetry_group_IT_number 77
_symmetry_cell_setting 'tetragonal'
loop_
_space_group_symop_operation_xyz
x,y,z
-y,x,1/2+z
-x,-y,z
y,-x,1/2+z
loop_
_atom_site_type_symbol
_atom_site_label
_atom_site_fract_x
_atom_site_fract_y
_atom_site_fract_z
Si Si1 0.201855 0.876242 0.319840
Si Si2 0.669389 0.320806 0.839475
Si Si3 0.399531 0.128778 0.138118
Si Si4 0.976773 0.271067 0.401954
Si Si5 0.076654 0.906795 0.973196
Si Si6 0.501647 0.376524 0.551676
Si Si7 0.559151 0.121508 0.812471
Si Si8 0.825415 0.564034 0.914852
O O1 0.515615 0.883246 0.289059
O O2 0.320383 0.857350 0.367170
O O3 0.139084 0.777492 0.402343
O O4 0.169764 0.991716 0.391297
O O5 0.768395 0.341162 0.714262
O O6 0.567141 0.357641 0.728256
O O7 0.651326 0.200051 0.873266
O O8 0.666686 0.384280 0.020796
O O9 0.030592 0.675841 0.596173
O O10 0.470460 0.139800 0.960370
O O11 0.042281 0.167029 0.350939
O O12 0.014491 0.372946 0.295586
O O13 0.847675 0.131663 0.126120
O O14 0.000000 0.000000 0.039071
O O15 0.500000 0.500000 0.522110
O O16 0.556645 0.302045 0.405349
O O17 0.531651 0.150659 0.614815
#
# Coordination Sequence:
#
# PCOD9541471 Si02
#       8
#     4   4   4   4   4   4   4   4
#     4  11  22  42  70 102 138 177 230 290 348 411
#     4  10  22  38  63  95 134 178 231 288 339 407
#     4  11  24  45  69  98 139 183 226 282 346 412
#     4  11  23  42  68  97 136 182 226 287 349 407
#     4  10  22  40  68 102 136 179 232 287 350 416
#     4  10  19  35  60  92 128 174 222 274 333 393
#     4  11  23  44  68  98 137 182 235 283 344 416
#     4  10  24  44  68 102 140 179 229 285 344 412
#
# _framework density 25.691137999999999
#
# number of rings (size 3 to 8) (size 9 to 14) (size 15 to 20)
#    0.000    1.500    0.000    5.625    0.000    5.000 
#    0.000   16.250    0.000    1.500    0.000    0.000 
#    0.000    0.000    0.000    0.000    0.000    0.000 
#
# Total GULP energy -178488.818806 kJ/mol
# GULP energy per Si atom -5577.775588 kJ/mol
# Density = 2.563266 g / cm^3
# Si number density = 25.691138 Si / 1000 Ang^3
#
#
#
# Elastic Constant Matrix: (Units=GPa)
#
#
# Indices 1 2 3 4 5 6 
#
# 1 71.1101 -1.1246 0.9742 0.0000 0.0000 -11.1494
# 2 -1.1246 71.1101 0.9742 0.0000 0.0000 11.1494
# 3 0.9742 0.9742 61.0843 0.0000 0.0000 0.0000
# 4 0.0000 0.0000 0.0000 20.7831 0.0000 0.0000
# 5 0.0000 0.0000 0.0000 0.0000 20.7831 0.0000
# 6 -11.1494 11.1494 0.0000 0.0000 0.0000 40.9655
#
#
#
# Elastic Compliance Matrix: (Units=1/GPa)
#
#
# Indices 1 2 3 4 5 6 
#
# 1 0.014704 -0.000409 -0.000228 0.000000 0.000000 0.004113
# 2 -0.000409 0.014704 -0.000228 0.000000 0.000000 -0.004113
# 3 -0.000228 -0.000228 0.016378 0.000000 0.000000 0.000000
# 4 0.000000 0.000000 0.000000 0.048116 0.000000 0.000000
# 5 0.000000 0.000000 0.000000 0.000000 0.048116 0.000000
# 6 0.004113 -0.004113 0.000000 0.000000 0.000000 0.026650
#
#
# Mechanical properties :
#
#
# Convention : Reuss Voigt Hill
#
# Bulk Modulus (GPa) = 22.69828 22.77246 22.73537
# Shear Modulus (GPa) = 27.01471 30.00505 28.50988
#
# Velocity S-wave (km/s) = 3.24623 3.42118 3.33485
# Velocity P-wave (km/s) = 4.78591 4.94865 4.86796
#
# Compressibility (1/GPa) = 0.04405619
#
# Stress axis : x y z
#
# Youngs Moduli (GPa) = 68.00734 68.00734 61.05713
#
# Poissons Ratio (x) = 0.02783 0.01392
# Poissons Ratio (y) = 0.02783 0.01392
# Poissons Ratio (z) = 0.01551 0.01551
#
# Static dielectric constant tensor:
#      x y z
#    x 2.135130 0.000000 0.000000 
#    y 0.000000 2.135130 0.000000 
#    z 0.000000 0.000000 2.119000 
# 
# From -- ./inp_files/543.got.cif
#   From: 2010.05.17/outbox.cif.g08.bks.cpg/sg77_cif.got.tgz:543.got - 2010.06.03 18:44:51.
