data_PCOD9541106
_publ_section_title
;
Structure prediction by ZEFSAII (Michael W. Deem and Ramdas Pophale) SiO2 
 PCOD9541106
Probable space group: P 41
;
_chemical_formula_sum "Si O2"
_cell_formula_units_Z 32
_cell_length_a 12.865864
_cell_length_b 12.865864
_cell_length_c 10.861831
_cell_angle_alpha 90.000000
_cell_angle_beta 90.000000
_cell_angle_gamma 90.000000
_cell_volume 1797.963843
_symmetry_space_group_name_H-M "P 41"
_symmetry_group_IT_number 76
_symmetry_cell_setting 'tetragonal'
loop_
_space_group_symop_operation_xyz
x,y,z
-y,x,1/4+z
-x,-y,1/2+z
y,-x,3/4+z
loop_
_atom_site_type_symbol
_atom_site_label
_atom_site_fract_x
_atom_site_fract_y
_atom_site_fract_z
Si Si1 0.768825 0.868602 0.002840
Si Si2 0.577106 0.931972 0.168824
Si Si3 0.779925 0.555691 0.762454
Si Si4 0.077581 0.957653 0.881577
Si Si5 0.221402 0.983509 0.295961
Si Si6 0.016031 0.322902 0.163545
Si Si7 0.397001 0.080866 0.152221
Si Si8 0.627855 0.734904 0.824518
O O1 0.682749 0.909797 0.095392
O O2 0.863097 0.803356 0.055522
O O3 0.714956 0.797209 0.900547
O O4 0.809786 0.964873 0.924004
O O5 0.503680 0.834718 0.128134
O O6 0.611885 0.960266 0.306079
O O7 0.510403 0.032790 0.128684
O O8 0.681669 0.625722 0.797795
O O9 0.741822 0.472179 0.661990
O O10 0.873817 0.624745 0.703732
O O11 0.037375 0.961968 0.739856
O O12 0.202707 0.964786 0.880963
O O13 0.035980 0.849824 0.940721
O O14 0.339499 0.010842 0.257753
O O15 0.939668 0.332905 0.279548
O O16 0.395614 0.197178 0.202982
#
# Coordination Sequence:
#
# PCOD9541106 Si02
#       8
#     4   4   4   4   4   4   4   4
#     4  10  21  34  55  85 119 158 201 237 298 358
#     4  10  22  37  57  90 119 153 202 258 301 355
#     4  10  21  39  67  89 113 156 204 254 310 371
#     4  12  25  38  55  89 132 178 211 242 300 374
#     4  11  19  35  55  80 115 161 203 238 288 365
#     4  11  21  37  60  87 126 160 201 252 300 363
#     4  10  19  37  60  87 112 153 209 248 301 363
#     4  10  20  39  65  87 112 151 209 251 304 363
#
# _framework density 17.797912
#
# number of rings (size 3 to 8) (size 9 to 14) (size 15 to 20)
#    0.000    1.500    3.750    3.000    3.500    0.000 
#    0.000    0.000    2.750    0.000    0.000    0.000 
#    0.000    0.000    0.000    0.000    0.000    0.000 
#
# Total GULP energy -178351.688821 kJ/mol
# GULP energy per Si atom -5573.490276 kJ/mol
# Density = 1.775740 g / cm^3
# Si number density = 17.797912 Si / 1000 Ang^3
#
#
#
# Elastic Constant Matrix: (Units=GPa)
#
#
# Indices 1 2 3 4 5 6 
#
# 1 92.4236 30.1635 34.4603 0.0000 0.0000 -0.7442
# 2 30.1635 92.4236 34.4603 0.0000 0.0000 0.7442
# 3 34.4603 34.4603 46.1359 0.0000 0.0000 0.0000
# 4 0.0000 0.0000 0.0000 22.0935 0.0000 0.0000
# 5 0.0000 0.0000 0.0000 0.0000 22.0935 0.0000
# 6 -0.7442 0.7442 0.0000 0.0000 0.0000 19.6447
#
#
#
# Elastic Compliance Matrix: (Units=1/GPa)
#
#
# Indices 1 2 3 4 5 6 
#
# 1 0.015070 -0.001007 -0.010504 0.000000 0.000000 0.000609
# 2 -0.001007 0.015070 -0.010504 0.000000 0.000000 -0.000609
# 3 -0.010504 -0.010504 0.037367 0.000000 0.000000 0.000000
# 4 0.000000 0.000000 0.000000 0.045262 0.000000 0.000000
# 5 0.000000 0.000000 0.000000 0.000000 0.045262 0.000000
# 6 0.000609 -0.000609 0.000000 0.000000 0.000000 0.050950
#
#
# Mechanical properties :
#
#
# Convention : Reuss Voigt Hill
#
# Bulk Modulus (GPa) = 42.59596 47.68349 45.13973
# Shear Modulus (GPa) = 19.16914 21.55962 20.36438
#
# Velocity S-wave (km/s) = 3.28540 3.48423 3.38627
# Velocity P-wave (km/s) = 6.19491 6.56020 6.38017
#
# Compressibility (1/GPa) = 0.02347640
#
# Stress axis : x y z
#
# Youngs Moduli (GPa) = 66.35860 66.35860 26.76176
#
# Poissons Ratio (x) = 0.06680 0.28111
# Poissons Ratio (y) = 0.06680 0.28111
# Poissons Ratio (z) = 0.69704 0.69704
#
# Static dielectric constant tensor:
#      x y z
#    x 1.642100 0.000000 0.000000 
#    y 0.000000 1.642100 0.000000 
#    z 0.000000 0.000000 1.643020 
# 
# From -- ./inp_files/971.got.cif
#   From: 2010.05.17/outbox.cif.g08.bks.cpg/sg76_cif.got.tgz:971.got - 2010.06.03 18:43:17.
