data_PCOD9541842
_publ_section_title
;
Structure prediction by ZEFSAII (Michael W. Deem and Ramdas Pophale) SiO2 
 PCOD9541842
Probable space group: I 4
;
_chemical_formula_sum "Si O2"
_cell_formula_units_Z 60
_cell_length_a 16.928856
_cell_length_b 16.928856
_cell_length_c 9.037904
_cell_angle_alpha 90.000000
_cell_angle_beta 90.000000
_cell_angle_gamma 90.000000
_cell_volume 2590.138251
_symmetry_space_group_name_H-M "I 4"
_symmetry_group_IT_number 79
_symmetry_cell_setting 'tetragonal'
loop_
_space_group_symop_operation_xyz
x,y,z
-y,x,z
-x,-y,z
y,-x,z
1/2+x,1/2+y,1/2+z
1/2-y,1/2+x,1/2+z
1/2-x,1/2-y,1/2+z
1/2+y,1/2-x,1/2+z
loop_
_atom_site_type_symbol
_atom_site_label
_atom_site_fract_x
_atom_site_fract_y
_atom_site_fract_z
Si Si1 0.000000 0.500000 0.147280
Si Si2 0.515579 0.370977 0.093574
Si Si3 0.260742 0.718452 0.496434
Si Si4 0.816790 0.328616 0.776377
Si Si5 0.180135 0.501907 0.624930
Si Si6 0.779793 0.576717 0.909999
Si Si7 0.011186 0.664860 0.678610
Si Si8 0.056079 0.214011 0.855212
O O1 0.006580 0.588597 0.079187
O O2 0.920999 0.501862 0.243061
O O3 0.584997 0.433255 0.062826
O O4 0.499024 0.348507 0.267516
O O5 0.537716 0.297959 0.986857
O O6 0.250035 0.710681 0.671658
O O7 0.297440 0.799554 0.439250
O O8 0.168720 0.713346 0.447248
O O9 0.304465 0.643268 0.418841
O O10 0.814531 0.418916 0.726302
O O11 0.905354 0.300710 0.736788
O O12 0.210057 0.435913 0.737328
O O13 0.239396 0.514092 0.489139
O O14 0.845515 0.527940 0.004169
O O15 0.939886 0.720045 0.725216
#
# Coordination Sequence:
#
# PCOD9541842 Si02
#       8
#     4   8   8   8   8   8   8   8
#     4  10  20  36  64  84 144 176 214 252 314 412
#     4  10  24  46  71  92 119 179 240 291 343 404
#     4  10  21  36  57  89 122 164 200 266 326 391
#     4   9  21  36  56  84 122 157 211 251 317 381
#     4  10  22  38  55  98 128 171 207 266 326 393
#     4  10  22  38  62  91 131 161 221 268 334 398
#     4   9  20  36  56  87 116 173 213 254 297 390
#     4  10  22  38  61  89 132 159 221 270 328 398
#
# _framework density 23.164787
#
# number of rings (size 3 to 8) (size 9 to 14) (size 15 to 20)
#    0.000    2.267    0.000    1.600    7.467    5.333 
#    2.400    0.000    0.000    1.600    0.000    0.000 
#    0.000    0.000    0.000    0.000    0.000    0.000 
#
# Total GULP energy -167160.145520 kJ/mol
# GULP energy per Si atom -5572.004851 kJ/mol
# Density = 2.311206 g / cm^3
# Si number density = 23.164787 Si / 1000 Ang^3
#
#
#
# Elastic Constant Matrix: (Units=GPa)
#
#
# Indices 1 2 3 4 5 6 
#
# 1 39.1418 8.7952 5.6923 0.0000 0.0000 7.0260
# 2 8.7952 39.1418 5.6923 0.0000 0.0000 -7.0260
# 3 5.6923 5.6923 64.9121 0.0000 0.0000 0.0000
# 4 0.0000 0.0000 0.0000 25.0499 0.0000 0.0000
# 5 0.0000 0.0000 0.0000 0.0000 25.0499 0.0000
# 6 7.0260 -7.0260 0.0000 0.0000 0.0000 15.1774
#
#
#
# Elastic Compliance Matrix: (Units=1/GPa)
#
#
# Indices 1 2 3 4 5 6 
#
# 1 0.031624 -0.010319 -0.001868 0.000000 0.000000 -0.019417
# 2 -0.010319 0.031624 -0.001868 0.000000 0.000000 0.019417
# 3 -0.001868 -0.001868 0.015733 0.000000 0.000000 0.000000
# 4 0.000000 0.000000 0.000000 0.039920 0.000000 0.000000
# 5 0.000000 0.000000 0.000000 0.000000 0.039920 0.000000
# 6 -0.019417 0.019417 0.000000 0.000000 0.000000 0.083864
#
#
# Mechanical properties :
#
#
# Convention : Reuss Voigt Hill
#
# Bulk Modulus (GPa) = 19.65834 20.39503 20.02669
# Shear Modulus (GPa) = 17.37595 21.25647 19.31621
#
# Velocity S-wave (km/s) = 2.74177 3.03251 2.89080
# Velocity P-wave (km/s) = 4.30439 4.59183 4.45043
#
# Compressibility (1/GPa) = 0.05086899
#
# Stress axis : x y z
#
# Youngs Moduli (GPa) = 31.62164 31.62164 63.56019
#
# Poissons Ratio (x) = 0.32632 0.11875
# Poissons Ratio (y) = 0.32632 0.11875
# Poissons Ratio (z) = 0.05908 0.05908
#
# Static dielectric constant tensor:
#      x y z
#    x 1.941230 0.000000 0.000000 
#    y 0.000000 1.941230 0.000000 
#    z 0.000000 0.000000 1.929040 
# 
# From -- ./inp_files/747.got.cif
#   From: 2010.05.17/outbox.cif.g08.bks.cpg/sg79_cif.got.tgz:747.got - 2010.06.03 18:47:27.
