data_PCOD9541563
_publ_section_title
;
Structure prediction by ZEFSAII (Michael W. Deem and Ramdas Pophale) SiO2 
 PCOD9541563
Probable space group: P 42
;
_chemical_formula_sum "Si O2"
_cell_formula_units_Z 20
_cell_length_a 8.203133
_cell_length_b 8.203133
_cell_length_c 12.598969
_cell_angle_alpha 90.000000
_cell_angle_beta 90.000000
_cell_angle_gamma 90.000000
_cell_volume 847.802149
_symmetry_space_group_name_H-M "P 42"
_symmetry_group_IT_number 77
_symmetry_cell_setting 'tetragonal'
loop_
_space_group_symop_operation_xyz
x,y,z
-y,x,1/2+z
-x,-y,z
y,-x,1/2+z
loop_
_atom_site_type_symbol
_atom_site_label
_atom_site_fract_x
_atom_site_fract_y
_atom_site_fract_z
Si Si1 0.186649 0.556942 0.820720
Si Si2 0.813858 0.276247 0.593833
Si Si3 0.190738 0.544745 0.044333
Si Si4 0.500000 0.000000 0.930197
Si Si5 0.000000 0.000000 0.703224
Si Si6 0.211039 0.696669 0.270769
O O1 0.204869 0.648565 0.711205
O O2 0.283465 0.391009 0.813198
O O3 0.000000 0.500000 0.826323
O O4 0.226392 0.637853 0.933952
O O5 0.632309 0.276129 0.546750
O O6 0.945075 0.362320 0.517194
O O7 0.884328 0.101449 0.624918
O O8 0.228495 0.647055 0.148042
O O9 0.000000 0.500000 0.050227
O O10 0.552992 0.866824 0.840496
O O11 0.870116 0.889986 0.771259
#
# Coordination Sequence:
#
# PCOD9541563 Si02
#       6
#     4   4   4   2   2   4
#     4  11  24  47  71 105 150 193 245 311 377 442
#     4  12  24  48  74 109 149 196 250 310 376 449
#     4  11  24  47  71 105 150 193 245 311 377 442
#     4  12  24  46  72 110 152 194 252 302 370 462
#     4  12  24  46  76 108 142 196 258 312 360 446
#     4  12  24  48  74 109 149 196 250 310 376 449
#
# _framework density 23.590409000000001
#
# number of rings (size 3 to 8) (size 9 to 14) (size 15 to 20)
#    0.000    0.400    8.000    0.000    0.000    1.600 
#   14.400    2.000    0.000    0.000    0.000    0.000 
#    0.000    0.000    0.000    0.000    0.000    0.000 
#
# Total GULP energy -111540.522397 kJ/mol
# GULP energy per Si atom -5577.026120 kJ/mol
# Density = 2.353672 g / cm^3
# Si number density = 23.590409 Si / 1000 Ang^3
#
#
#
# Elastic Constant Matrix: (Units=GPa)
#
#
# Indices 1 2 3 4 5 6 
#
# 1 36.9772 22.4628 24.6226 0.0000 0.0000 5.2659
# 2 22.4628 36.9772 24.6226 0.0000 0.0000 -5.2659
# 3 24.6226 24.6226 212.0995 0.0000 0.0000 0.0000
# 4 0.0000 0.0000 0.0000 28.3495 0.0000 0.0000
# 5 0.0000 0.0000 0.0000 0.0000 28.3495 0.0000
# 6 5.2659 -5.2659 0.0000 0.0000 0.0000 44.4704
#
#
#
# Elastic Compliance Matrix: (Units=1/GPa)
#
#
# Indices 1 2 3 4 5 6 
#
# 1 0.046994 -0.028380 -0.002161 0.000000 0.000000 -0.008925
# 2 -0.028380 0.046994 -0.002161 0.000000 0.000000 0.008925
# 3 -0.002161 -0.002161 0.005216 0.000000 0.000000 0.000000
# 4 0.000000 0.000000 0.000000 0.035274 0.000000 0.000000
# 5 0.000000 0.000000 0.000000 0.000000 0.035274 0.000000
# 6 -0.008925 0.008925 0.000000 0.000000 0.000000 0.024601
#
#
# Mechanical properties :
#
#
# Convention : Reuss Voigt Hill
#
# Bulk Modulus (GPa) = 29.58505 47.71888 38.65196
# Shear Modulus (GPa) = 18.44870 34.52361 26.48616
#
# Velocity S-wave (km/s) = 2.79954 3.82967 3.35438
# Velocity P-wave (km/s) = 4.79773 6.31088 5.60559
#
# Compressibility (1/GPa) = 0.03380085
#
# Stress axis : x y z
#
# Youngs Moduli (GPa) = 21.27951 21.27951 191.69996
#
# Poissons Ratio (x) = 0.60390 0.41424
# Poissons Ratio (y) = 0.60390 0.41424
# Poissons Ratio (z) = 0.04598 0.04598
#
# Static dielectric constant tensor:
#      x y z
#    x 1.915640 0.000000 0.000000 
#    y 0.000000 1.915640 0.000000 
#    z 0.000000 0.000000 1.904350 
# 
# From -- ./inp_files/814.got.cif
#   From: 2010.05.17/outbox.cif.g08.bks.cpg/sg77_cif.got.tgz:814.got - 2010.06.03 18:44:51.
