data_PCOD9541365
_publ_section_title
;
Structure prediction by ZEFSAII (Michael W. Deem and Ramdas Pophale) SiO2 
 PCOD9541365
Probable space group: P 41
;
_chemical_formula_sum "Si O2"
_cell_formula_units_Z 24
_cell_length_a 14.189905
_cell_length_b 14.189905
_cell_length_c 6.088957
_cell_angle_alpha 90.000000
_cell_angle_beta 90.000000
_cell_angle_gamma 90.000000
_cell_volume 1226.032218
_symmetry_space_group_name_H-M "P 41"
_symmetry_group_IT_number 76
_symmetry_cell_setting 'tetragonal'
loop_
_space_group_symop_operation_xyz
x,y,z
-y,x,1/4+z
-x,-y,1/2+z
y,-x,3/4+z
loop_
_atom_site_type_symbol
_atom_site_label
_atom_site_fract_x
_atom_site_fract_y
_atom_site_fract_z
Si Si1 0.805896 0.151022 0.020660
Si Si2 0.411078 0.946435 0.815946
Si Si3 0.281219 0.205887 0.158990
Si Si4 0.958839 0.256628 0.758910
Si Si5 0.803877 0.642202 0.933225
Si Si6 0.474024 0.150315 0.968369
O O1 0.795313 0.183961 0.270922
O O2 0.816038 0.042089 0.956703
O O3 0.894004 0.209627 0.939624
O O4 0.715105 0.182637 0.882137
O O5 0.475774 0.866485 0.703599
O O6 0.339999 0.983645 0.628120
O O7 0.462930 0.042435 0.884901
O O8 0.365695 0.897353 0.029691
O O9 0.283964 0.113232 0.315756
O O10 0.275882 0.304676 0.290303
O O11 0.372235 0.196485 0.004319
O O12 0.794467 0.540509 0.047731
#
# Coordination Sequence:
#
# PCOD9541365 Si02
#       6
#     4   4   4   4   4   4
#     4  11  23  41  57  86 130 174 215 262 314 379
#     4  12  21  37  63  97 127 161 211 276 328 380
#     4  11  24  40  62  90 134 170 214 265 331 393
#     4  11  23  39  59  85 128 176 216 268 316 376
#     4  11  23  38  61  89 135 163 206 273 328 386
#     4  12  22  35  64  95 126 166 210 264 335 382
#
# _framework density 19.575341999999999
#
# number of rings (size 3 to 8) (size 9 to 14) (size 15 to 20)
#    0.000    0.667    6.667    2.000    0.000    0.000 
#    3.000    0.000    0.000    0.000    0.000    0.000 
#   70.000    0.000    0.000    0.000    0.000    0.000 
#
# Total GULP energy -133798.034875 kJ/mol
# GULP energy per Si atom -5574.918120 kJ/mol
# Density = 1.953079 g / cm^3
# Si number density = 19.575342 Si / 1000 Ang^3
#
#
#
# Elastic Constant Matrix: (Units=GPa)
#
#
# Indices 1 2 3 4 5 6 
#
# 1 67.7525 46.2800 22.5911 0.0000 0.0000 8.6922
# 2 46.2800 67.7525 22.5911 0.0000 0.0000 -8.6922
# 3 22.5911 22.5911 58.3501 0.0000 0.0000 0.0000
# 4 0.0000 0.0000 0.0000 32.6636 0.0000 0.0000
# 5 0.0000 0.0000 0.0000 0.0000 32.6636 0.0000
# 6 8.6922 -8.6922 0.0000 0.0000 0.0000 21.9459
#
#
#
# Elastic Compliance Matrix: (Units=1/GPa)
#
#
# Indices 1 2 3 4 5 6 
#
# 1 0.039456 -0.029098 -0.004010 0.000000 0.000000 -0.027153
# 2 -0.029098 0.039456 -0.004010 0.000000 0.000000 0.027153
# 3 -0.004010 -0.004010 0.020243 0.000000 0.000000 0.000000
# 4 0.000000 0.000000 0.000000 0.030615 0.000000 0.000000
# 5 0.000000 0.000000 0.000000 0.000000 0.030615 0.000000
# 6 -0.027153 0.027153 0.000000 0.000000 0.000000 0.067075
#
#
# Mechanical properties :
#
#
# Convention : Reuss Voigt Hill
#
# Bulk Modulus (GPa) = 40.13080 41.86439 40.99759
# Shear Modulus (GPa) = 16.12873 24.28083 20.20478
#
# Velocity S-wave (km/s) = 2.87353 3.52572 3.21620
# Velocity P-wave (km/s) = 5.61736 6.16498 5.89753
#
# Compressibility (1/GPa) = 0.02491852
#
# Stress axis : x y z
#
# Youngs Moduli (GPa) = 25.34437 25.34437 49.39903
#
# Poissons Ratio (x) = 0.73747 0.19811
# Poissons Ratio (y) = 0.73747 0.19811
# Poissons Ratio (z) = 0.10164 0.10164
#
# Static dielectric constant tensor:
#      x y z
#    x 1.732570 0.000000 0.000000 
#    y 0.000000 1.732570 0.000000 
#    z 0.000000 0.000000 1.765580 
# 
# From -- ./inp_files/163.got.cif
#   From: 2010.05.17/outbox.cif.g08.bks.cpg/sg76_cif.got.tgz:163.got - 2010.06.03 18:43:17.
