data_PCOD9541520
_publ_section_title
;
Structure prediction by ZEFSAII (Michael W. Deem and Ramdas Pophale) SiO2 
 PCOD9541520
Probable space group: P 42
;
_chemical_formula_sum "Si O2"
_cell_formula_units_Z 10
_cell_length_a 5.540980
_cell_length_b 5.540980
_cell_length_c 13.563475
_cell_angle_alpha 90.000000
_cell_angle_beta 90.000000
_cell_angle_gamma 90.000000
_cell_volume 416.432040
_symmetry_space_group_name_H-M "P 42"
_symmetry_group_IT_number 77
_symmetry_cell_setting 'tetragonal'
loop_
_space_group_symop_operation_xyz
x,y,z
-y,x,1/2+z
-x,-y,z
y,-x,1/2+z
loop_
_atom_site_type_symbol
_atom_site_label
_atom_site_fract_x
_atom_site_fract_y
_atom_site_fract_z
Si Si1 0.746467 0.376742 0.307650
Si Si2 0.000000 0.000000 0.189467
Si Si3 0.244415 0.868402 0.497471
O O1 0.500000 0.500000 0.273813
O O2 0.792482 0.119903 0.255624
O O3 0.737341 0.359927 0.426691
O O4 0.000000 0.500000 0.283667
O O5 0.133365 0.183809 0.113230
O O6 0.500000 0.000000 0.484252
O O7 0.000000 0.000000 0.458739
#
# Coordination Sequence:
#
# PCOD9541520 Si02
#       3
#     4   2   4
#     4  12  26  48  78 114 157 212 268 335 413 487
#     4  10  24  48  76 110 162 206 274 334 398 496
#     4  10  22  47  73 105 159 198 264 330 408 469
#
# _framework density 24.013518000000001
#
# number of rings (size 3 to 8) (size 9 to 14) (size 15 to 20)
#    1.200    0.000    2.000    3.600    0.000    0.000 
#   14.400    0.000    0.000    0.000    0.000    0.000 
#    0.000    0.000    0.000    0.000    0.000    0.000 
#
# Total GULP energy -55714.727197 kJ/mol
# GULP energy per Si atom -5571.472720 kJ/mol
# Density = 2.395886 g / cm^3
# Si number density = 24.013518 Si / 1000 Ang^3
#
#
#
# Elastic Constant Matrix: (Units=GPa)
#
#
# Indices 1 2 3 4 5 6 
#
# 1 147.7193 62.9120 39.6638 0.0000 0.0000 -1.5983
# 2 62.9120 147.7193 39.6638 0.0000 0.0000 1.5983
# 3 39.6638 39.6638 127.4612 0.0000 0.0000 0.0000
# 4 0.0000 0.0000 0.0000 -19.3237 0.0000 0.0000
# 5 0.0000 0.0000 0.0000 0.0000 -19.3237 0.0000
# 6 -1.5983 1.5983 0.0000 0.0000 0.0000 56.7549
#
#
#
# Elastic Compliance Matrix: (Units=1/GPa)
#
#
# Indices 1 2 3 4 5 6 
#
# 1 0.008591 -0.003213 -0.001674 0.000000 0.000000 0.000332
# 2 -0.003213 0.008591 -0.001674 0.000000 0.000000 -0.000332
# 3 -0.001674 -0.001674 0.008887 0.000000 0.000000 0.000000
# 4 0.000000 0.000000 0.000000 -0.051750 0.000000 0.000000
# 5 0.000000 0.000000 0.000000 0.000000 -0.051750 0.000000
# 6 0.000332 -0.000332 0.000000 0.000000 0.000000 0.017638
#
#
# Mechanical properties :
#
#
# Convention : Reuss Voigt Hill
#
# Bulk Modulus (GPa) = 77.22711 78.59767 77.91239
# Shear Modulus (GPa) = -118.04658 22.33218 -47.85720
#
# Velocity S-wave (km/s) = -7.01891 3.05287 -4.46906
# Velocity P-wave (km/s) = 5.78421 6.72520 2.42603
#
# Compressibility (1/GPa) = 0.01294882
#
# Stress axis : x y z
#
# Youngs Moduli (GPa) = 116.40169 116.40169 112.52308
#
# Poissons Ratio (x) = 0.37400 0.18831
# Poissons Ratio (y) = 0.37400 0.18831
# Poissons Ratio (z) = 0.19480 0.19480
#
# Static dielectric constant tensor:
#      x y z
#    x 2.084080 0.000000 0.000000 
#    y 0.000000 2.084080 0.000000 
#    z 0.000000 0.000000 1.885770 
# 
# From -- ./inp_files/556.got.cif
#   From: 2010.05.17/outbox.cif.g08.bks.cpg/sg77_cif.got.tgz:556.got - 2010.06.03 18:44:51.
