data_PCOD9541080
_publ_section_title
;
Structure prediction by ZEFSAII (Michael W. Deem and Ramdas Pophale) SiO2 
 PCOD9541080
Probable space group: P 41
;
_chemical_formula_sum "Si O2"
_cell_formula_units_Z 32
_cell_length_a 10.431796
_cell_length_b 10.431796
_cell_length_c 15.296020
_cell_angle_alpha 90.000000
_cell_angle_beta 90.000000
_cell_angle_gamma 90.000000
_cell_volume 1664.549114
_symmetry_space_group_name_H-M "P 41"
_symmetry_group_IT_number 76
_symmetry_cell_setting 'tetragonal'
loop_
_space_group_symop_operation_xyz
x,y,z
-y,x,1/4+z
-x,-y,1/2+z
y,-x,3/4+z
loop_
_atom_site_type_symbol
_atom_site_label
_atom_site_fract_x
_atom_site_fract_y
_atom_site_fract_z
Si Si1 0.392814 0.339109 0.520540
Si Si2 0.045346 0.552755 0.488468
Si Si3 0.607336 0.017565 0.910704
Si Si4 0.489564 0.622144 0.558539
Si Si5 0.264679 0.273512 0.693641
Si Si6 0.250015 0.707702 0.096872
Si Si7 0.430998 0.897323 0.049346
Si Si8 0.749832 0.552579 0.492512
O O1 0.446427 0.474111 0.552947
O O2 0.299880 0.275855 0.591553
O O3 0.326376 0.348523 0.426215
O O4 0.507237 0.237191 0.516577
O O5 0.336791 0.153815 0.737501
O O6 0.059530 0.482978 0.394247
O O7 0.066380 0.456362 0.569947
O O8 0.896981 0.597397 0.497323
O O9 0.684268 0.887799 0.890387
O O10 0.710011 0.113954 0.951622
O O11 0.488342 0.993501 0.977313
O O12 0.407961 0.684223 0.481374
O O13 0.642929 0.627212 0.548761
O O14 0.446291 0.692751 0.645741
O O15 0.285207 0.848625 0.061628
O O16 0.253107 0.594220 0.026015
#
# Coordination Sequence:
#
# PCOD9541080 Si02
#       8
#     4   4   4   4   4   4   4   4
#     4  10  18  33  57  91 113 149 189 260 305 351
#     4  10  23  39  56  90 127 155 196 250 317 356
#     4  10  22  37  58  92 117 161 202 246 304 367
#     4  12  20  33  58  92 126 147 199 241 317 354
#     4  11  21  37  60  87 119 157 204 255 294 360
#     4  10  20  34  58  87 119 151 199 250 302 354
#     4  10  19  35  58  87 121 152 198 246 304 359
#     4  11  23  34  55  94 128 156 187 250 315 377
#
# _framework density 19.224426000000001
#
# number of rings (size 3 to 8) (size 9 to 14) (size 15 to 20)
#    0.000    1.500    2.500    4.500    3.500    0.000 
#    0.000    0.000    0.000    0.000   39.000    0.000 
#    0.000    0.000    0.000    0.000    0.000    0.000 
#
# Total GULP energy -178408.106503 kJ/mol
# GULP energy per Si atom -5575.253328 kJ/mol
# Density = 1.918067 g / cm^3
# Si number density = 19.224426 Si / 1000 Ang^3
#
#
#
# Elastic Constant Matrix: (Units=GPa)
#
#
# Indices 1 2 3 4 5 6 
#
# 1 80.5941 35.0323 4.7146 0.0000 0.0000 -8.9295
# 2 35.0323 80.5941 4.7146 0.0000 0.0000 8.9295
# 3 4.7146 4.7146 59.6389 0.0000 0.0000 0.0000
# 4 0.0000 0.0000 0.0000 25.0853 0.0000 0.0000
# 5 0.0000 0.0000 0.0000 0.0000 25.0853 0.0000
# 6 -8.9295 8.9295 0.0000 0.0000 0.0000 21.7774
#
#
#
# Elastic Compliance Matrix: (Units=1/GPa)
#
#
# Indices 1 2 3 4 5 6 
#
# 1 0.017428 -0.008723 -0.000688 0.000000 0.000000 0.010723
# 2 -0.008723 0.017428 -0.000688 0.000000 0.000000 -0.010723
# 3 -0.000688 -0.000688 0.016876 0.000000 0.000000 0.000000
# 4 0.000000 0.000000 0.000000 0.039864 0.000000 0.000000
# 5 0.000000 0.000000 0.000000 0.000000 0.039864 0.000000
# 6 0.010723 -0.010723 0.000000 0.000000 0.000000 0.054713
#
#
# Mechanical properties :
#
#
# Convention : Reuss Voigt Hill
#
# Bulk Modulus (GPa) = 31.71263 34.41670 33.06466
# Shear Modulus (GPa) = 23.05389 26.14732 24.60061
#
# Velocity S-wave (km/s) = 3.46670 3.69197 3.58111
# Velocity P-wave (km/s) = 5.70577 6.00963 5.85967
#
# Compressibility (1/GPa) = 0.03153318
#
# Stress axis : x y z
#
# Youngs Moduli (GPa) = 57.37898 57.37898 59.25444
#
# Poissons Ratio (x) = 0.50054 0.04077
# Poissons Ratio (y) = 0.50054 0.04077
# Poissons Ratio (z) = 0.03948 0.03948
#
# Static dielectric constant tensor:
#      x y z
#    x 1.715750 0.000000 0.000000 
#    y 0.000000 1.715750 0.000000 
#    z 0.000000 0.000000 1.710970 
# 
# From -- ./inp_files/1153.got.cif
#   From: 2010.05.17/outbox.cif.g08.bks.cpg/sg76_cif.got.tgz:1153.got - 2010.06.03 18:43:17.
