data_PCOD9541959
_publ_section_title
;
Structure prediction by ZEFSAII (Michael W. Deem and Ramdas Pophale) SiO2 
 PCOD9541959
Probable space group: I 4
;
_chemical_formula_sum "Si O2"
_cell_formula_units_Z 48
_cell_length_a 9.719052
_cell_length_b 9.719052
_cell_length_c 28.497263
_cell_angle_alpha 90.000000
_cell_angle_beta 90.000000
_cell_angle_gamma 90.000000
_cell_volume 2691.850659
_symmetry_space_group_name_H-M "I 4"
_symmetry_group_IT_number 79
_symmetry_cell_setting 'tetragonal'
loop_
_space_group_symop_operation_xyz
x,y,z
-y,x,z
-x,-y,z
y,-x,z
1/2+x,1/2+y,1/2+z
1/2-y,1/2+x,1/2+z
1/2-x,1/2-y,1/2+z
1/2+y,1/2-x,1/2+z
loop_
_atom_site_type_symbol
_atom_site_label
_atom_site_fract_x
_atom_site_fract_y
_atom_site_fract_z
Si Si1 0.098913 0.792343 0.850420
Si Si2 0.348014 0.860002 0.150105
Si Si3 0.139998 0.651986 0.108320
Si Si4 0.908062 0.789088 0.518948
Si Si5 0.908063 0.210912 0.739477
Si Si6 0.401087 0.292343 0.908006
O O1 0.108106 0.762131 0.794735
O O2 0.171262 0.671262 0.879213
O O3 0.937578 0.822628 0.860129
O O4 0.264660 0.735340 0.129213
O O5 0.500000 0.854090 0.129213
O O6 0.359259 0.833484 0.205723
O O7 0.285854 1.000000 0.129213
O O8 0.166516 0.640742 0.052703
O O9 0.891893 0.762131 0.463691
O O10 0.068602 0.825339 0.528484
O O11 0.068602 0.174660 0.729941
O O12 0.562422 0.322628 0.898297
#
# Coordination Sequence:
#
# PCOD9541959 Si02
#       6
#     8   8   8   8   8   8
#     4   9  19  37  58  84 116 148 189 235 284 343
#     4  11  22  36  56  83 114 148 189 234 278 338
#     4  11  22  36  56  83 114 148 189 234 278 338
#     4   9  17  34  60  83 107 147 193 237 278 326
#     4   9  17  34  60  83 107 147 193 237 278 326
#     4   9  19  37  58  84 116 148 189 235 284 343
#
# _framework density 17.831599000000001
#
# number of rings (size 3 to 8) (size 9 to 14) (size 15 to 20)
#    0.000    2.333    3.333    2.000    0.000    1.333 
#    6.000    0.000    0.000    0.000    0.000    0.000 
#    0.000    0.000    0.000    0.000    0.000    0.000 
#
# Total GULP energy -133709.334324 kJ/mol
# GULP energy per Si atom -5571.222264 kJ/mol
# Density = 1.779101 g / cm^3
# Si number density = 17.831599 Si / 1000 Ang^3
#
#
#
# Elastic Constant Matrix: (Units=GPa)
#
#
# Indices 1 2 3 4 5 6 
#
# 1 51.6050 17.7628 34.0731 0.0000 0.0000 0.0000
# 2 17.7628 51.6050 34.0731 0.0000 0.0000 0.0000
# 3 34.0731 34.0731 89.7215 0.0000 0.0000 0.0000
# 4 0.0000 0.0000 0.0000 -41.6656 0.0000 0.0000
# 5 0.0000 0.0000 0.0000 0.0000 -41.6656 0.0000
# 6 0.0000 0.0000 0.0000 0.0000 0.0000 33.0806
#
#
#
# Elastic Compliance Matrix: (Units=1/GPa)
#
#
# Indices 1 2 3 4 5 6 
#
# 1 0.026272 -0.003277 -0.008733 0.000000 0.000000 0.000000
# 2 -0.003277 0.026272 -0.008733 0.000000 0.000000 0.000000
# 3 -0.008733 -0.008733 0.017778 0.000000 0.000000 0.000000
# 4 0.000000 0.000000 0.000000 -0.024001 0.000000 0.000000
# 5 0.000000 0.000000 0.000000 0.000000 -0.024001 0.000000
# 6 0.000000 0.000000 0.000000 0.000000 0.000000 0.030229
#
#
# Mechanical properties :
#
#
# Convention : Reuss Voigt Hill
#
# Bulk Modulus (GPa) = 34.67727 40.52770 37.60249
# Shear Modulus (GPa) = 48.24081 -2.91528 22.66276
#
# Velocity S-wave (km/s) = 5.20695 -1.28002 3.56888
# Velocity P-wave (km/s) = 7.45916 4.53793 6.17381
#
# Compressibility (1/GPa) = 0.02883733
#
# Stress axis : x y z
#
# Youngs Moduli (GPa) = 38.06366 38.06366 56.24855
#
# Poissons Ratio (x) = 0.12474 0.49119
# Poissons Ratio (y) = 0.12474 0.49119
# Poissons Ratio (z) = 0.33239 0.33239
#
# Static dielectric constant tensor:
#      x y z
#    x 1.656450 0.000000 0.000000 
#    y 0.000000 1.656450 0.000000 
#    z 0.000000 0.000000 1.615410 
# 
# From -- ./inp_files/2133.got.cif
#   From: 2010.05.17/outbox.cif.g08.bks.cpg/sg79_cif.got.tgz:2133.got - 2010.06.03 18:47:27.
