data_PCOD9541350
_publ_section_title
;
Structure prediction by ZEFSAII (Michael W. Deem and Ramdas Pophale) SiO2 
 PCOD9541350
Probable space group: P 41
;
_chemical_formula_sum "Si O2"
_cell_formula_units_Z 24
_cell_length_a 16.101929
_cell_length_b 16.101929
_cell_length_c 5.062270
_cell_angle_alpha 90.000000
_cell_angle_beta 90.000000
_cell_angle_gamma 90.000000
_cell_volume 1312.505462
_symmetry_space_group_name_H-M "P 41"
_symmetry_group_IT_number 76
_symmetry_cell_setting 'tetragonal'
loop_
_space_group_symop_operation_xyz
x,y,z
-y,x,1/4+z
-x,-y,1/2+z
y,-x,3/4+z
loop_
_atom_site_type_symbol
_atom_site_label
_atom_site_fract_x
_atom_site_fract_y
_atom_site_fract_z
Si Si1 0.750352 0.461877 0.872890
Si Si2 0.363458 0.821229 0.269269
Si Si3 0.745287 0.700481 0.534148
Si Si4 0.618052 0.829638 0.623356
Si Si5 0.594151 0.414691 0.170546
Si Si6 0.557721 0.003189 0.797429
O O1 0.765632 0.554150 0.978753
O O2 0.782013 0.443367 0.578872
O O3 0.807787 0.409656 0.076180
O O4 0.655848 0.433893 0.923679
O O5 0.306014 0.778386 0.487465
O O6 0.391752 0.912915 0.348638
O O7 0.324221 0.818378 0.980557
O O8 0.707200 0.786508 0.635437
O O9 0.667464 0.635232 0.547627
O O10 0.611412 0.925290 0.698414
O O11 0.598479 0.498964 0.340910
O O12 0.492948 0.020250 0.559898
#
# Coordination Sequence:
#
# PCOD9541350 Si02
#       6
#     4   4   4   4   4   4
#     4  11  22  37  54  74 110 140 197 242 289 327
#     4  12  22  39  57  81 111 145 193 239 303 344
#     4  11  25  39  55  76 114 154 189 242 297 342
#     4  11  22  40  57  80 109 150 185 242 293 362
#     4  11  25  34  48  74 101 155 205 242 262 313
#     4  12  22  37  61  89 111 144 197 253 302 358
#
# _framework density 18.285640999999998
#
# number of rings (size 3 to 8) (size 9 to 14) (size 15 to 20)
#    0.000    0.667    5.000    4.000    4.667    0.000 
#    0.000    0.000    0.000    0.000    0.000    0.000 
#    0.000    2.667    0.000    0.167    0.000    0.000 
#
# Total GULP energy -134146.272806 kJ/mol
# GULP energy per Si atom -5589.428034 kJ/mol
# Density = 1.824402 g / cm^3
# Si number density = 18.285641 Si / 1000 Ang^3
#
#
#
# Elastic Constant Matrix: (Units=GPa)
#
#
# Indices 1 2 3 4 5 6 
#
# 1 80.3679 12.8335 14.6263 0.0000 0.0000 1.3883
# 2 12.8335 80.3679 14.6263 0.0000 0.0000 -1.3883
# 3 14.6263 14.6263 63.9241 0.0000 0.0000 0.0000
# 4 0.0000 0.0000 0.0000 24.4370 0.0000 0.0000
# 5 0.0000 0.0000 0.0000 0.0000 24.4370 0.0000
# 6 1.3883 -1.3883 0.0000 0.0000 0.0000 16.0308
#
#
#
# Elastic Compliance Matrix: (Units=1/GPa)
#
#
# Indices 1 2 3 4 5 6 
#
# 1 0.013210 -0.001650 -0.002645 0.000000 0.000000 -0.001287
# 2 -0.001650 0.013210 -0.002645 0.000000 0.000000 0.001287
# 3 -0.002645 -0.002645 0.016854 0.000000 0.000000 0.000000
# 4 0.000000 0.000000 0.000000 0.040922 0.000000 0.000000
# 5 0.000000 0.000000 0.000000 0.000000 0.040922 0.000000
# 6 -0.001287 0.001287 0.000000 0.000000 0.000000 0.062603
#
#
# Mechanical properties :
#
#
# Convention : Reuss Voigt Hill
#
# Bulk Modulus (GPa) = 34.02123 34.31469 34.16796
# Shear Modulus (GPa) = 23.65207 25.15252 24.40230
#
# Velocity S-wave (km/s) = 3.60040 3.71284 3.65705
# Velocity P-wave (km/s) = 5.99413 6.09811 6.04634
#
# Compressibility (1/GPa) = 0.02939341
#
# Stress axis : x y z
#
# Youngs Moduli (GPa) = 75.70083 75.70083 59.33344
#
# Poissons Ratio (x) = 0.12493 0.15693
# Poissons Ratio (y) = 0.12493 0.15693
# Poissons Ratio (z) = 0.20022 0.20022
#
# Static dielectric constant tensor:
#      x y z
#    x 1.641200 0.000000 0.000000 
#    y 0.000000 1.641200 0.000000 
#    z 0.000000 0.000000 1.667720 
# 
# From -- ./inp_files/176.got.cif
#   From: 2010.05.17/outbox.cif.g08.bks.cpg/sg76_cif.got.tgz:176.got - 2010.06.03 18:43:17.
