data_PCOD9541390
_publ_section_title
;
Structure prediction by ZEFSAII (Michael W. Deem and Ramdas Pophale) SiO2 
 PCOD9541390
Probable space group: P 41
;
_chemical_formula_sum "Si O2"
_cell_formula_units_Z 28
_cell_length_a 14.515070
_cell_length_b 14.515070
_cell_length_c 6.302994
_cell_angle_alpha 90.000000
_cell_angle_beta 90.000000
_cell_angle_gamma 90.000000
_cell_volume 1327.960517
_symmetry_space_group_name_H-M "P 41"
_symmetry_group_IT_number 76
_symmetry_cell_setting 'tetragonal'
loop_
_space_group_symop_operation_xyz
x,y,z
-y,x,1/4+z
-x,-y,1/2+z
y,-x,3/4+z
loop_
_atom_site_type_symbol
_atom_site_label
_atom_site_fract_x
_atom_site_fract_y
_atom_site_fract_z
Si Si1 0.111859 0.930206 0.949490
Si Si2 0.259336 0.164889 0.403397
Si Si3 0.134285 0.613805 0.762509
Si Si4 0.696781 0.653185 0.150923
Si Si5 0.521598 0.752613 0.138459
Si Si6 0.428610 0.834976 0.722138
Si Si7 0.282723 0.998253 0.722938
O O1 0.013624 0.900936 0.860378
O O2 0.178590 0.966419 0.763465
O O3 0.156737 0.842258 0.059783
O O4 0.329725 0.180403 0.206203
O O5 0.261501 0.250769 0.564508
O O6 0.285478 0.069809 0.526118
O O7 0.192597 0.587302 0.553874
O O8 0.114301 0.510830 0.842616
O O9 0.053186 0.678376 0.677860
O O10 0.587530 0.664712 0.112038
O O11 0.741875 0.617735 0.372322
O O12 0.728630 0.571841 0.001568
O O13 0.484798 0.807066 0.933867
O O14 0.346754 0.908588 0.717140
#
# Coordination Sequence:
#
# PCOD9541390 Si02
#       7
#     4   4   4   4   4   4   4
#     4  12  27  46  69 105 146 194 254 309 370 458
#     4  12  26  48  72 105 149 195 247 304 388 446
#     4  11  24  46  70 105 146 190 240 309 369 435
#     4  11  26  45  76 103 148 192 238 305 372 448
#     4  11  25  48  70 111 144 193 240 304 367 448
#     4  11  27  44  77 109 148 185 252 304 377 453
#     4  12  27  43  76 106 143 197 245 313 377 446
#
# _framework density 21.084962999999998
#
# number of rings (size 3 to 8) (size 9 to 14) (size 15 to 20)
#    0.000    0.571    4.286    1.714   12.000    1.143 
#    2.571    0.000    0.000    0.000    0.000    0.000 
#    0.000    0.000    0.000    0.000    0.000    0.000 
#
# Total GULP energy -156129.395731 kJ/mol
# GULP energy per Si atom -5576.049848 kJ/mol
# Density = 2.103697 g / cm^3
# Si number density = 21.084963 Si / 1000 Ang^3
#
#
#
# Elastic Constant Matrix: (Units=GPa)
#
#
# Indices 1 2 3 4 5 6 
#
# 1 102.5021 24.6525 36.0207 0.0000 0.0000 5.5582
# 2 24.6525 102.5021 36.0207 0.0000 0.0000 -5.5582
# 3 36.0207 36.0207 91.6166 0.0000 0.0000 0.0000
# 4 0.0000 0.0000 0.0000 27.5759 0.0000 0.0000
# 5 0.0000 0.0000 0.0000 0.0000 27.5759 0.0000
# 6 5.5582 -5.5582 0.0000 0.0000 0.0000 39.9689
#
#
#
# Elastic Compliance Matrix: (Units=1/GPa)
#
#
# Indices 1 2 3 4 5 6 
#
# 1 0.011612 -0.001494 -0.003978 0.000000 0.000000 -0.001822
# 2 -0.001494 0.011612 -0.003978 0.000000 0.000000 0.001822
# 3 -0.003978 -0.003978 0.014043 0.000000 0.000000 0.000000
# 4 0.000000 0.000000 0.000000 0.036263 0.000000 0.000000
# 5 0.000000 0.000000 0.000000 0.000000 0.036263 0.000000
# 6 -0.001822 0.001822 0.000000 0.000000 0.000000 0.025526
#
#
# Mechanical properties :
#
#
# Convention : Reuss Voigt Hill
#
# Bulk Modulus (GPa) = 54.44511 54.44542 54.44526
# Shear Modulus (GPa) = 31.18318 32.35262 31.76790
#
# Velocity S-wave (km/s) = 3.84986 3.92138 3.88578
# Velocity P-wave (km/s) = 6.75572 6.81036 6.78309
#
# Compressibility (1/GPa) = 0.01836712
#
# Stress axis : x y z
#
# Youngs Moduli (GPa) = 86.11822 86.11822 71.20851
#
# Poissons Ratio (x) = 0.12862 0.28328
# Poissons Ratio (y) = 0.12862 0.28328
# Poissons Ratio (z) = 0.34260 0.34260
#
# Static dielectric constant tensor:
#      x y z
#    x 1.805890 0.000000 0.000000 
#    y 0.000000 1.805890 0.000000 
#    z 0.000000 0.000000 1.825870 
# 
# From -- ./inp_files/260.got.cif
#   From: 2010.05.17/outbox.cif.g08.bks.cpg/sg76_cif.got.tgz:260.got - 2010.06.03 18:43:17.
