data_PCOD9541977
_publ_section_title
;
Structure prediction by ZEFSAII (Michael W. Deem and Ramdas Pophale) SiO2 
 PCOD9541977
Probable space group: I 4
;
_chemical_formula_sum "Si O2"
_cell_formula_units_Z 40
_cell_length_a 11.913780
_cell_length_b 11.913780
_cell_length_c 13.924571
_cell_angle_alpha 90.000000
_cell_angle_beta 90.000000
_cell_angle_gamma 90.000000
_cell_volume 1976.427901
_symmetry_space_group_name_H-M "I 4"
_symmetry_group_IT_number 79
_symmetry_cell_setting 'tetragonal'
loop_
_space_group_symop_operation_xyz
x,y,z
-y,x,z
-x,-y,z
y,-x,z
1/2+x,1/2+y,1/2+z
1/2-y,1/2+x,1/2+z
1/2-x,1/2-y,1/2+z
1/2+y,1/2-x,1/2+z
loop_
_atom_site_type_symbol
_atom_site_label
_atom_site_fract_x
_atom_site_fract_y
_atom_site_fract_z
Si Si1 0.000000 0.678905 0.522470
Si Si2 0.671793 0.088866 0.877697
Si Si3 0.827635 0.297473 0.886802
Si Si4 0.327635 0.202527 0.658138
Si Si5 0.588866 0.171793 0.667243
O O1 0.068913 0.609522 0.446861
O O2 0.101611 0.726689 0.592641
O O3 0.898389 0.726689 0.452299
O O4 0.931087 0.609523 0.598079
O O5 0.766272 0.179741 0.905318
O O6 0.623767 0.123768 0.772470
O O7 0.708817 0.961910 0.896002
O O8 0.815822 0.315823 0.772470
O O9 0.461910 0.208817 0.648937
O O10 0.266272 0.320260 0.639622
#
# Coordination Sequence:
#
# PCOD9541977 Si02
#       5
#     8   8   8   8   8
#     4  12  23  40  68  91 128 165 216 264 321 380
#     4  11  23  40  65  96 130 169 215 266 318 379
#     4  11  23  40  65  96 130 169 215 266 318 379
#     4  11  23  40  65  96 130 169 215 266 318 379
#     4  11  23  40  65  96 130 169 215 266 318 379
#
# _framework density 20.238530999999998
#
# number of rings (size 3 to 8) (size 9 to 14) (size 15 to 20)
#    0.000    0.800    4.000    4.800    0.000    0.800 
#    0.000    0.000    0.000   14.400    0.000    0.000 
#    0.000    0.000    0.000    0.000    0.000    0.000 
#
# Total GULP energy -111368.915256 kJ/mol
# GULP energy per Si atom -5568.445763 kJ/mol
# Density = 2.019247 g / cm^3
# Si number density = 20.238531 Si / 1000 Ang^3
#
#
#
# Elastic Constant Matrix: (Units=GPa)
#
#
# Indices 1 2 3 4 5 6 
#
# 1 78.2695 55.9020 19.9531 0.0000 0.0000 0.0001
# 2 55.9020 78.2695 19.9531 0.0000 0.0000 -0.0001
# 3 19.9531 19.9531 117.9723 0.0000 0.0000 0.0000
# 4 0.0000 0.0000 0.0000 33.4589 0.0000 0.0000
# 5 0.0000 0.0000 0.0000 0.0000 33.4589 0.0000
# 6 0.0001 -0.0001 0.0000 0.0000 0.0000 22.4469
#
#
#
# Elastic Compliance Matrix: (Units=1/GPa)
#
#
# Indices 1 2 3 4 5 6 
#
# 1 0.026278 -0.018430 -0.001327 0.000000 0.000000 0.000000
# 2 -0.018430 0.026278 -0.001327 0.000000 0.000000 0.000000
# 3 -0.001327 -0.001327 0.008926 0.000000 0.000000 0.000000
# 4 0.000000 0.000000 0.000000 0.029887 0.000000 0.000000
# 5 0.000000 0.000000 0.000000 0.000000 0.029887 0.000000
# 6 0.000000 0.000000 0.000000 0.000000 0.000000 0.044550
#
#
# Mechanical properties :
#
#
# Convention : Reuss Voigt Hill
#
# Bulk Modulus (GPa) = 51.78117 51.79195 51.78656
# Shear Modulus (GPa) = 23.31959 29.78649 26.55304
#
# Velocity S-wave (km/s) = 3.39814 3.84053 3.62609
# Velocity P-wave (km/s) = 6.40605 6.73146 6.57077
#
# Compressibility (1/GPa) = 0.01931204
#
# Stress axis : x y z
#
# Youngs Moduli (GPa) = 38.05494 38.05494 112.03767
#
# Poissons Ratio (x) = 0.70135 0.14871
# Poissons Ratio (y) = 0.70135 0.14871
# Poissons Ratio (z) = 0.05051 0.05051
#
# Static dielectric constant tensor:
#      x y z
#    x 1.772280 0.000000 0.000000 
#    y 0.000000 1.772280 0.000000 
#    z 0.000000 0.000000 1.861020 
# 
# From -- ./inp_files/1329.got.cif
#   From: 2010.05.17/outbox.cif.g08.bks.cpg/sg79_cif.got.tgz:1329.got - 2010.06.03 18:47:27.
