data_PCOD9541415
_publ_section_title
;
Structure prediction by ZEFSAII (Michael W. Deem and Ramdas Pophale) SiO2 
 PCOD9541415
Probable space group: P 41
;
_chemical_formula_sum "Si O2"
_cell_formula_units_Z 20
_cell_length_a 5.181607
_cell_length_b 5.181607
_cell_length_c 28.235807
_cell_angle_alpha 90.000000
_cell_angle_beta 90.000000
_cell_angle_gamma 90.000000
_cell_volume 758.104625
_symmetry_space_group_name_H-M "P 41"
_symmetry_group_IT_number 76
_symmetry_cell_setting 'tetragonal'
loop_
_space_group_symop_operation_xyz
x,y,z
-y,x,1/4+z
-x,-y,1/2+z
y,-x,3/4+z
loop_
_atom_site_type_symbol
_atom_site_label
_atom_site_fract_x
_atom_site_fract_y
_atom_site_fract_z
Si Si1 0.646009 0.833195 0.899540
Si Si2 0.475820 0.499999 0.978816
Si Si3 0.833197 0.646011 0.308092
Si Si4 0.144551 0.153464 0.295275
Si Si5 0.153462 0.144549 0.912357
O O1 0.348724 0.909044 0.904616
O O2 0.861340 0.042709 0.915746
O O3 0.697518 0.804811 0.843996
O O4 0.659670 0.599446 0.936365
O O5 0.281805 0.706391 0.002035
O O6 0.659670 0.400551 0.021266
O O7 0.281803 0.293607 0.955597
O O8 0.909048 0.348726 0.303017
O O9 0.804810 0.697523 0.363636
O O10 0.042711 0.861342 0.291886
#
# Coordination Sequence:
#
# PCOD9541415 Si02
#       5
#     4   4   4   4   4
#     4  11  29  53  78 117 165 213 272 340 418 492
#     4  12  28  50  88 122 156 222 276 354 394 512
#     4  11  29  53  78 117 165 213 272 340 418 492
#     4  11  29  53  78 117 165 213 272 340 418 492
#     4  11  29  53  78 117 165 213 272 340 418 492
#
# _framework density 26.381578000000001
#
# number of rings (size 3 to 8) (size 9 to 14) (size 15 to 20)
#    0.000    0.800    0.000    2.400   22.400    9.600 
#    0.000    0.000    0.000    0.000    0.000    0.000 
#    0.000    0.000    0.000    0.000    0.000    0.000 
#
# Total GULP energy -112083.061024 kJ/mol
# GULP energy per Si atom -5604.153051 kJ/mol
# Density = 2.632153 g / cm^3
# Si number density = 26.381578 Si / 1000 Ang^3
#
#
#
# Elastic Constant Matrix: (Units=GPa)
#
#
# Indices 1 2 3 4 5 6 
#
# 1 71.0737 31.7765 44.0173 0.0000 0.0000 -0.0003
# 2 31.7765 71.0737 44.0173 0.0000 0.0000 0.0003
# 3 44.0173 44.0173 141.6910 0.0000 0.0000 0.0000
# 4 0.0000 0.0000 0.0000 31.9536 0.0000 0.0000
# 5 0.0000 0.0000 0.0000 0.0000 31.9536 0.0000
# 6 -0.0003 0.0003 0.0000 0.0000 0.0000 19.4059
#
#
#
# Elastic Compliance Matrix: (Units=1/GPa)
#
#
# Indices 1 2 3 4 5 6 
#
# 1 0.019346 -0.006101 -0.004115 0.000000 0.000000 0.000000
# 2 -0.006101 0.019346 -0.004115 0.000000 0.000000 0.000000
# 3 -0.004115 -0.004115 0.009614 0.000000 0.000000 0.000000
# 4 0.000000 0.000000 0.000000 0.031295 0.000000 0.000000
# 5 0.000000 0.000000 0.000000 0.000000 0.031295 0.000000
# 6 0.000000 0.000000 0.000000 0.000000 0.000000 0.051531
#
#
# Mechanical properties :
#
#
# Convention : Reuss Voigt Hill
#
# Bulk Modulus (GPa) = 50.90288 58.16228 54.53258
# Shear Modulus (GPa) = 25.29901 27.59781 26.44841
#
# Velocity S-wave (km/s) = 3.10008 3.23786 3.16972
# Velocity P-wave (km/s) = 5.67016 6.00606 5.84052
#
# Compressibility (1/GPa) = 0.01964525
#
# Stress axis : x y z
#
# Youngs Moduli (GPa) = 51.69056 51.69056 104.01451
#
# Poissons Ratio (x) = 0.31537 0.42797
# Poissons Ratio (y) = 0.31537 0.42797
# Poissons Ratio (z) = 0.21268 0.21268
#
# Static dielectric constant tensor:
#      x y z
#    x 2.089220 0.000000 0.000000 
#    y 0.000000 2.089220 0.000000 
#    z 0.000000 0.000000 2.136470 
# 
# From -- ./inp_files/1656.got.cif
#   From: 2010.05.17/outbox.cif.g08.bks.cpg/sg76_cif.got.tgz:1656.got - 2010.06.03 18:43:17.
