data_PCOD9541980
_publ_section_title
;
Structure prediction by ZEFSAII (Michael W. Deem and Ramdas Pophale) SiO2 
 PCOD9541980
Probable space group: I 4
;
_chemical_formula_sum "Si O2"
_cell_formula_units_Z 46
_cell_length_a 8.396752
_cell_length_b 8.396752
_cell_length_c 30.663336
_cell_angle_alpha 90.000000
_cell_angle_beta 90.000000
_cell_angle_gamma 90.000000
_cell_volume 2161.932124
_symmetry_space_group_name_H-M "I 4"
_symmetry_group_IT_number 79
_symmetry_cell_setting 'tetragonal'
loop_
_space_group_symop_operation_xyz
x,y,z
-y,x,z
-x,-y,z
y,-x,z
1/2+x,1/2+y,1/2+z
1/2-y,1/2+x,1/2+z
1/2-x,1/2-y,1/2+z
1/2+y,1/2-x,1/2+z
loop_
_atom_site_type_symbol
_atom_site_label
_atom_site_fract_x
_atom_site_fract_y
_atom_site_fract_z
Si Si1 0.620065 0.738860 0.164230
Si Si2 0.254325 0.085438 0.984856
Si Si3 0.500000 0.000000 0.416064
Si Si4 0.500000 0.500000 0.748495
Si Si5 0.080818 0.670807 0.253383
Si Si6 0.603584 0.249855 0.849988
Si Si7 0.752619 0.110792 0.567833
O O1 0.431982 0.705025 0.165398
O O2 0.669789 0.830215 0.207062
O O3 0.648967 0.812395 0.116385
O O4 0.385629 0.104630 0.947142
O O5 0.096933 0.194527 0.981837
O O6 0.335287 0.132573 0.030535
O O7 0.613046 0.888714 0.386238
O O8 0.451901 0.313529 0.751077
O O9 0.000000 0.500000 0.253530
O O10 0.149470 0.681443 0.302613
O O11 0.698108 0.416320 0.853097
O O12 0.923383 0.202165 0.563946
#
# Coordination Sequence:
#
# PCOD9541980 Si02
#       7
#     8   8   4   2   8   8   8
#     4   9  20  39  63  95 133 175 224 271 322 403
#     4  11  24  43  62  94 132 161 204 274 337 403
#     4  12  24  42  68  90 120 168 218 258 346 416
#     4  12  24  44  64 100 144 172 236 300 320 432
#     4  12  22  40  65  95 137 182 219 280 351 390
#     4  11  23  42  64  92 125 163 217 278 325 397
#     4   9  19  41  69  93 125 169 218 265 321 396
#
# _framework density 21.277263999999999
#
# number of rings (size 3 to 8) (size 9 to 14) (size 15 to 20)
#    0.000    1.391    2.609    4.174    0.000    0.000 
#   10.957    1.739    0.000    2.087    0.000    0.000 
#    0.000    0.000    0.000    0.000    0.000    0.000 
#
# Total GULP energy -128086.302784 kJ/mol
# GULP energy per Si atom -5568.969686 kJ/mol
# Density = 2.122884 g / cm^3
# Si number density = 21.277264 Si / 1000 Ang^3
#
#
#
# Elastic Constant Matrix: (Units=GPa)
#
#
# Indices 1 2 3 4 5 6 
#
# 1 48.5622 13.9349 45.9872 0.0000 0.0000 -3.9458
# 2 13.9349 48.5622 45.9873 0.0000 0.0000 3.9458
# 3 45.9872 45.9873 197.6727 0.0000 0.0000 0.0000
# 4 0.0000 0.0000 0.0000 15.7651 0.0000 0.0000
# 5 0.0000 0.0000 0.0000 0.0000 15.7651 0.0000
# 6 -3.9458 3.9458 0.0000 0.0000 0.0000 35.9694
#
#
#
# Elastic Compliance Matrix: (Units=1/GPa)
#
#
# Indices 1 2 3 4 5 6 
#
# 1 0.026975 -0.002644 -0.005660 0.000000 0.000000 0.003249
# 2 -0.002644 0.026975 -0.005660 0.000000 0.000000 -0.003249
# 3 -0.005660 -0.005660 0.007693 0.000000 0.000000 0.000000
# 4 0.000000 0.000000 0.000000 0.063431 0.000000 0.000000
# 5 0.000000 0.000000 0.000000 0.000000 0.063431 0.000000
# 6 0.003249 -0.003249 0.000000 0.000000 0.000000 0.028514
#
#
# Mechanical properties :
#
#
# Convention : Reuss Voigt Hill
#
# Bulk Modulus (GPa) = 29.66231 56.29066 42.97648
# Shear Modulus (GPa) = 19.51694 26.09244 22.80469
#
# Velocity S-wave (km/s) = 3.03193 3.50566 3.27737
# Velocity P-wave (km/s) = 5.12132 6.54977 5.87909
#
# Compressibility (1/GPa) = 0.03371281
#
# Stress axis : x y z
#
# Youngs Moduli (GPa) = 37.07105 37.07106 129.99509
#
# Poissons Ratio (x) = 0.09802 0.73583
# Poissons Ratio (y) = 0.09802 0.73583
# Poissons Ratio (z) = 0.20984 0.20984
#
# Static dielectric constant tensor:
#      x y z
#    x 2.086070 0.000000 0.000000 
#    y 0.000000 2.086070 0.000000 
#    z 0.000000 0.000000 1.791390 
# 
# From -- ./inp_files/2109.got.cif
#   From: 2010.05.17/outbox.cif.g08.bks.cpg/sg79_cif.got.tgz:2109.got - 2010.06.03 18:47:27.
