data_PCOD9541830
_publ_section_title
;
Structure prediction by ZEFSAII (Michael W. Deem and Ramdas Pophale) SiO2 
 PCOD9541830
Probable space group: I 4
;
_chemical_formula_sum "Si O2"
_cell_formula_units_Z 52
_cell_length_a 16.641418
_cell_length_b 16.641418
_cell_length_c 10.139101
_cell_angle_alpha 90.000000
_cell_angle_beta 90.000000
_cell_angle_gamma 90.000000
_cell_volume 2807.890115
_symmetry_space_group_name_H-M "I 4"
_symmetry_group_IT_number 79
_symmetry_cell_setting 'tetragonal'
loop_
_space_group_symop_operation_xyz
x,y,z
-y,x,z
-x,-y,z
y,-x,z
1/2+x,1/2+y,1/2+z
1/2-y,1/2+x,1/2+z
1/2-x,1/2-y,1/2+z
1/2+y,1/2-x,1/2+z
loop_
_atom_site_type_symbol
_atom_site_label
_atom_site_fract_x
_atom_site_fract_y
_atom_site_fract_z
Si Si1 0.638890 0.738004 0.822540
Si Si2 0.362221 0.715641 0.029544
Si Si3 0.521593 0.823010 0.321779
Si Si4 0.323010 0.978406 0.524959
Si Si5 0.362221 0.715641 0.317195
Si Si6 0.638890 0.738004 0.524199
Si Si7 0.000000 0.500000 0.923370
O O1 0.658095 0.658571 0.907921
O O2 0.580338 0.792208 0.911208
O O3 0.720860 0.789118 0.810878
O O4 0.609674 0.723541 0.673369
O O5 0.441516 0.769351 0.013370
O O6 0.289118 0.779140 0.035861
O O7 0.366709 0.674385 0.173369
O O8 0.441516 0.769351 0.333369
O O9 0.580337 0.792207 0.435531
O O10 0.502899 0.917133 0.341553
O O11 0.554985 0.811699 0.173369
O O12 0.417133 0.997101 0.505186
O O13 0.341429 0.658095 0.438818
#
# Coordination Sequence:
#
# PCOD9541830 Si02
#       7
#     8   8   8   8   8   8   4
#     4  10  20  35  54  79 107 143 188 228 269 322
#     4   9  19  36  53  76 107 146 188 223 267 324
#     4  11  22  36  56  81 115 150 181 225 274 327
#     4  11  22  36  56  81 115 150 181 225 274 327
#     4   9  19  36  53  76 107 146 188 223 267 324
#     4  10  20  35  54  79 107 143 188 228 269 322
#     4  12  22  36  52  86 118 152 184 218 266 328
#
# _framework density 18.519241999999998
#
# number of rings (size 3 to 8) (size 9 to 14) (size 15 to 20)
#    0.000    1.846    3.077    1.385    0.000    3.692 
#    0.000    0.000    0.000    0.923    0.000    6.462 
#    0.000    0.000    0.000    0.000    0.000    0.000 
#
# Total GULP energy -144889.025768 kJ/mol
# GULP energy per Si atom -5572.654837 kJ/mol
# Density = 1.847709 g / cm^3
# Si number density = 18.519242 Si / 1000 Ang^3
#
#
#
# Elastic Constant Matrix: (Units=GPa)
#
#
# Indices 1 2 3 4 5 6 
#
# 1 39.4851 24.1982 52.2921 0.0000 0.0000 1.4960
# 2 24.1982 39.4851 52.2921 0.0000 0.0000 -1.4960
# 3 52.2921 52.2921 198.0001 0.0000 0.0000 0.0000
# 4 0.0000 0.0000 0.0000 12.5587 0.0000 0.0000
# 5 0.0000 0.0000 0.0000 0.0000 12.5587 0.0000
# 6 1.4960 -1.4960 0.0000 0.0000 0.0000 31.4522
#
#
#
# Elastic Compliance Matrix: (Units=1/GPa)
#
#
# Indices 1 2 3 4 5 6 
#
# 1 0.046880 -0.019150 -0.007323 0.000000 0.000000 -0.003141
# 2 -0.019150 0.046880 -0.007323 0.000000 0.000000 0.003141
# 3 -0.007323 -0.007323 0.008919 0.000000 0.000000 0.000000
# 4 0.000000 0.000000 0.000000 0.079626 0.000000 0.000000
# 5 0.000000 0.000000 0.000000 0.000000 0.079626 0.000000
# 6 -0.003141 0.003141 0.000000 0.000000 0.000000 0.032093
#
#
# Mechanical properties :
#
#
# Convention : Reuss Voigt Hill
#
# Bulk Modulus (GPa) = 28.50282 59.39278 43.94780
# Shear Modulus (GPa) = 13.39361 21.19312 17.29336
#
# Velocity S-wave (km/s) = 2.69220 3.38654 3.05914
# Velocity P-wave (km/s) = 5.00882 6.88709 6.02164
#
# Compressibility (1/GPa) = 0.03508424
#
# Stress axis : x y z
#
# Youngs Moduli (GPa) = 21.33114 21.33114 112.12335
#
# Poissons Ratio (x) = 0.40850 0.82113
# Poissons Ratio (y) = 0.40850 0.82113
# Poissons Ratio (z) = 0.15622 0.15622
#
# Static dielectric constant tensor:
#      x y z
#    x 1.626910 0.000000 0.000000 
#    y 0.000000 1.626910 0.000000 
#    z 0.000000 0.000000 1.694850 
# 
# From -- ./inp_files/685.got.cif
#   From: 2010.05.17/outbox.cif.g08.bks.cpg/sg79_cif.got.tgz:685.got - 2010.06.03 18:47:27.
