data_PCOD9541492
_publ_section_title
;
Structure prediction by ZEFSAII (Michael W. Deem and Ramdas Pophale) SiO2 
 PCOD9541492
Probable space group: P 42
;
_chemical_formula_sum "Si O2"
_cell_formula_units_Z 14
_cell_length_a 7.640672
_cell_length_b 7.640672
_cell_length_c 8.599915
_cell_angle_alpha 90.000000
_cell_angle_beta 90.000000
_cell_angle_gamma 90.000000
_cell_volume 502.061908
_symmetry_space_group_name_H-M "P 42"
_symmetry_group_IT_number 77
_symmetry_cell_setting 'tetragonal'
loop_
_space_group_symop_operation_xyz
x,y,z
-y,x,1/2+z
-x,-y,z
y,-x,1/2+z
loop_
_atom_site_type_symbol
_atom_site_label
_atom_site_fract_x
_atom_site_fract_y
_atom_site_fract_z
Si Si1 0.157192 0.187541 0.080240
Si Si2 0.150401 0.378391 0.577602
Si Si3 0.000000 0.000000 0.851905
Si Si4 0.206758 0.509747 0.226894
O O1 0.281280 0.345219 0.127045
O O2 0.044475 0.156155 0.232673
O O3 0.224250 0.990445 0.039084
O O4 0.315715 0.306932 0.673141
O O5 0.042098 0.193736 0.926326
O O6 0.207835 0.465817 0.411500
O O7 0.000000 0.500000 0.657245
O O8 0.000000 0.500000 0.178719
#
# Coordination Sequence:
#
# PCOD9541492 Si02
#       4
#     4   4   2   4
#     4  11  22  44  79 120 174 233 300 363 453 544
#     4  11  27  52  85 130 180 241 307 383 469 554
#     4  10  20  38  76 120 168 232 294 356 442 542
#     4  11  25  51  87 129 182 238 313 383 459 563
#
# _framework density 27.885005
#
# number of rings (size 3 to 8) (size 9 to 14) (size 15 to 20)
#    0.000    1.143    2.857    3.429    4.000    1.143 
#    5.143    5.714    0.000    0.000    0.000    0.000 
#    0.000    0.000    0.000    0.000    0.000    0.000 
#
# Total GULP energy -77983.082372 kJ/mol
# GULP energy per Si atom -5570.220169 kJ/mol
# Density = 2.782154 g / cm^3
# Si number density = 27.885005 Si / 1000 Ang^3
#
#
#
# Elastic Constant Matrix: (Units=GPa)
#
#
# Indices 1 2 3 4 5 6 
#
# 1 175.3583 63.8708 81.9485 0.0000 0.0000 -17.2709
# 2 63.8708 175.3583 81.9485 0.0000 0.0000 17.2709
# 3 81.9485 81.9485 173.3766 0.0000 0.0000 0.0000
# 4 0.0000 0.0000 0.0000 40.7140 0.0000 0.0000
# 5 0.0000 0.0000 0.0000 0.0000 40.7140 0.0000
# 6 -17.2709 17.2709 0.0000 0.0000 0.0000 51.6270
#
#
#
# Elastic Compliance Matrix: (Units=1/GPa)
#
#
# Indices 1 2 3 4 5 6 
#
# 1 0.008094 -0.001912 -0.002922 0.000000 0.000000 0.003348
# 2 -0.001912 0.008094 -0.002922 0.000000 0.000000 -0.003348
# 3 -0.002922 -0.002922 0.008530 0.000000 0.000000 0.000000
# 4 0.000000 0.000000 0.000000 0.024562 0.000000 0.000000
# 5 0.000000 0.000000 0.000000 0.000000 0.024562 0.000000
# 6 0.003348 -0.003348 0.000000 0.000000 0.000000 0.021609
#
#
# Mechanical properties :
#
#
# Convention : Reuss Voigt Hill
#
# Bulk Modulus (GPa) = 108.62465 108.84764 108.73614
# Shear Modulus (GPa) = 43.84705 46.36602 45.10654
#
# Velocity S-wave (km/s) = 3.96968 4.08212 4.02629
# Velocity P-wave (km/s) = 7.74921 7.83182 7.79063
#
# Compressibility (1/GPa) = 0.00920601
#
# Stress axis : x y z
#
# Youngs Moduli (GPa) = 123.54269 123.54269 117.23326
#
# Poissons Ratio (x) = 0.23627 0.34255
# Poissons Ratio (y) = 0.23627 0.34255
# Poissons Ratio (z) = 0.36099 0.36099
#
# Static dielectric constant tensor:
#      x y z
#    x 4.661350 0.000000 0.000000 
#    y 0.000000 4.661350 0.000000 
#    z 0.000000 0.000000 2.249250 
# 
# From -- ./inp_files/239.got.cif
#   From: 2010.05.17/outbox.cif.g08.bks.cpg/sg77_cif.got.tgz:239.got - 2010.06.03 18:44:51.
